=
 OpenBabel11062422473D

 67 73  0  0  1  0  0  0  0  0999 V2000
  196.1500  171.5090  141.0070 C   0  0  0  0  0  0  0  0  0  0  0  0
  193.9360  172.4320  143.6500 C   0  0  2  0  0  3  0  0  0  0  0  0
  189.2410  172.6510  141.5680 C   0  0  0  0  0  0  0  0  0  0  0  0
  190.4200  171.7870  141.1190 C   0  0  2  0  0  3  0  0  0  0  0  0
  191.7130  171.8120  144.4440 O   0  0  0  0  0  1  0  0  0  0  0  0
  191.3490  173.8720  142.2040 C   0  0  2  0  0  3  0  0  0  0  0  0
  192.6060  172.8760  144.2980 C   0  0  2  0  0  3  0  0  0  0  0  0
  189.8410  173.8850  142.1800 C   0  0  0  0  0  0  0  0  0  0  0  0
  188.4260  172.9950  140.4780 O   0  0  0  0  0  1  0  0  0  0  0  0
  193.0400  172.1370  141.1760 C   0  0  1  0  0  3  0  0  0  0  0  0
  197.6380  170.3320  139.6510 O   0  0  0  0  0  1  0  0  0  0  0  0
  190.9420  176.5650  144.9570 C   0  0  1  0  0  3  0  0  0  0  0  0
  189.4460  176.2990  142.9080 C   0  0  1  0  0  3  0  0  0  0  0  0
  190.0620  177.6460  144.8010 O   0  0  0  0  0  0  0  0  0  0  0  0
  189.5520  176.3860  144.4360 C   0  0  2  0  0  3  0  0  0  0  0  0
  192.8090  175.3540  143.7940 C   0  0  1  0  0  3  0  0  0  0  0  0
  193.8650  175.5030  142.7140 C   0  0  0  0  0  1  0  0  0  0  0  0
  195.4490  170.7410  143.1250 O   0  0  0  0  0  0  0  0  0  0  0  0
  194.2010  172.5230  142.1290 C   0  0  2  0  0  3  0  0  0  0  0  0
  195.3080  171.5420  142.0040 C   0  0  0  0  0  0  0  0  0  0  0  0
  192.0120  176.6400  143.8750 C   0  0  0  0  0  2  0  0  0  0  0  0
  191.6520  172.4520  141.7280 C   0  0  2  0  0  3  0  0  0  0  0  0
  190.5140  171.7340  139.7230 O   0  0  0  0  0  1  0  0  0  0  0  0
  194.5280  171.1050  144.1370 C   0  0  1  0  0  3  0  0  0  0  0  0
  196.9860  171.5060  140.0070 C   0  0  0  0  0  0  0  0  0  0  0  0
  191.9330  174.0930  143.6270 C   0  0  1  0  0  3  0  0  0  0  0  0
  189.0370  174.9250  142.4640 C   0  0  0  0  0  3  0  0  0  0  0  0
  188.4780  171.9610  142.5160 O   0  0  0  0  0  1  0  0  0  0  0  0
  193.0420  174.7830  137.5220 C   0  0  0  0  0  2  0  0  0  0  0  0
  194.1460  173.8750  139.6160 C   0  0  0  0  0  2  0  0  0  0  0  0
  194.9470  173.6600  136.3110 C   0  0  0  0  0  0  0  0  0  0  0  0
  193.4280  172.0980  137.4310 O   0  0  0  0  0  0  0  0  0  0  0  0
  196.1280  173.8500  135.5520 C   0  0  0  0  0  0  0  0  0  0  0  0
  193.4430  175.0620  138.9690 C   0  0  0  0  0  2  0  0  0  0  0  0
  193.1930  172.6880  139.7490 C   0  0  1  0  0  3  0  0  0  0  0  0
  196.5440  171.4520  135.5860 C   0  0  0  0  0  3  0  0  0  0  0  0
  196.9110  172.7400  135.2010 C   0  0  0  0  0  3  0  0  0  0  0  0
  193.5050  171.5820  138.7520 C   0  0  0  0  0  2  0  0  0  0  0  0
  194.1820  174.7860  136.6660 O   0  0  0  0  0  0  0  0  0  0  0  0
  194.5820  172.3420  136.6930 C   0  0  0  0  0  0  0  0  0  0  0  0
  195.3840  171.2560  136.3260 C   0  0  0  0  0  3  0  0  0  0  0  0
  195.7240  176.0760  134.8130 O   0  0  0  0  0  0  0  0  0  0  0  0
  196.5750  175.1890  135.0950 C   0  0  0  0  0  0  0  0  0  0  0  0
  197.9220  175.5070  135.0130 O   0  0  0  0  0  1  0  0  0  0  0  0
  196.3120  170.3780  145.5760 F   0  0  0  0  0  0  0  0  0  0  0  0
  195.2140  171.2310  145.5090 C   0  0  0  0  0  0  0  0  0  0  0  0
  194.3120  170.8110  146.4680 F   0  0  0  0  0  0  0  0  0  0  0  0
  195.5730  172.5690  145.8070 O   0  0  0  0  0  0  0  0  0  0  0  0
  196.9260  172.7770  145.4880 C   0  0  0  0  0  2  0  0  0  0  0  0
  197.0970  174.0450  144.9670 F   0  0  0  0  0  0  0  0  0  0  0  0
  188.4820  177.3700  142.3790 C   0  0  1  0  0  3  0  0  0  0  0  0
  189.2490  178.5700  141.8400 C   0  0  0  0  0  1  0  0  0  0  0  0
  186.2570  177.2230  141.2400 C   0  0  0  0  0  3  0  0  0  0  0  0
  187.5340  176.8400  141.3380 C   0  0  0  0  0  3  0  0  0  0  0  0
  185.6300  178.2020  142.1760 C   0  0  0  0  0  2  0  0  0  0  0  0
  184.9490  177.4480  143.3010 C   0  0  0  0  0  2  0  0  0  0  0  0
  186.3310  178.9950  144.4940 O   0  0  0  0  0  1  0  0  0  0  0  0
  185.2860  178.0810  144.6410 C   0  0  2  0  0  3  0  0  0  0  0  0
  185.6480  177.0270  145.6840 C   0  0  0  0  0  2  0  0  0  0  0  0
  185.4760  177.5230  147.1160 C   0  0  2  0  0  3  0  0  0  0  0  0
  184.4000  178.4040  147.1920 O   0  0  0  0  0  1  0  0  0  0  0  0
  187.8220  177.8140  147.2380 O   0  0  0  0  0  0  0  0  0  0  0  0
  186.7180  178.2090  147.5800 C   0  0  0  0  0  3  0  0  0  0  0  0
  197.2090  172.7580  139.2290 C   0  0  0  0  0  2  0  0  0  0  0  0
  197.9410  173.7910  140.0670 C   0  0  0  0  0  2  0  0  0  0  0  0
  196.8980  175.9840  140.6750 C   0  0  0  0  0  1  0  0  0  0  0  0
  197.5980  175.1870  139.5810 C   0  0  0  0  0  2  0  0  0  0  0  0
  1 20  2  0  0  0  0
  2 24  1  0  0  0  0
  2  7  1  0  0  0  0
  3  8  1  0  0  0  0
  3 28  1  0  0  0  0
  4  3  1  0  0  0  0
  4 22  1  0  0  0  0
  6 26  1  0  0  0  0
  7  5  1  0  0  0  0
  8  6  1  0  0  0  0
  8 27  2  0  0  0  0
  9  3  1  0  0  0  0
 10 22  1  0  0  0  0
 10 19  1  0  0  0  0
 11 25  1  0  0  0  0
 13 15  1  0  0  0  0
 14 12  1  0  0  0  0
 15 14  1  0  0  0  0
 15 12  1  0  0  0  0
 16 21  1  0  0  0  0
 17 16  1  0  0  0  0
 18 24  1  0  0  0  0
 19  2  1  0  0  0  0
 20 19  1  0  0  0  0
 20 18  1  0  0  0  0
 21 12  1  0  0  0  0
 22  6  1  0  0  0  0
 23  4  1  0  0  0  0
 24 46  1  0  0  0  0
 25  1  2  0  0  0  0
 26 16  1  0  0  0  0
 26  7  1  0  0  0  0
 27 13  1  0  0  0  0
 29 34  1  0  0  0  0
 30 35  1  0  0  0  0
 31 39  1  0  0  0  0
 31 40  1  0  0  0  0
 32 38  1  0  0  0  0
 33 31  2  0  0  0  0
 34 30  1  0  0  0  0
 35 10  1  0  0  0  0
 36 41  1  0  0  0  0
 37 33  1  0  0  0  0
 37 36  2  0  0  0  0
 38 35  1  0  0  0  0
 39 29  1  0  0  0  0
 40 32  1  0  0  0  0
 41 40  2  0  0  0  0
 42 43  2  0  0  0  0
 43 33  1  0  0  0  0
 44 43  1  0  0  0  0
 46 45  1  0  0  0  0
 46 48  1  0  0  0  0
 46 47  1  0  0  0  0
 49 48  1  0  0  0  0
 50 49  1  0  0  0  0
 51 13  1  0  0  0  0
 52 51  1  0  0  0  0
 53 54  2  0  0  0  0
 53 55  1  0  0  0  0
 54 51  1  0  0  0  0
 55 56  1  0  0  0  0
 56 58  1  0  0  0  0
 57 58  1  0  0  0  0
 58 59  1  0  0  0  0
 59 60  1  0  0  0  0
 60 61  1  0  0  0  0
 60 63  1  0  0  0  0
 62 63  2  0  0  0  0
 64 25  1  0  0  0  0
 64 65  1  0  0  0  0
 67 65  1  0  0  0  0
 67 66  1  0  0  0  0
M  END
>  <MODEL>
1

>  <REMARK>
 VINA RESULT:      -6.8      0.000      0.000
  Name = 
  16 active torsions:
  status: ('A' for Active; 'I' for Inactive)
    1  A    between atoms: C_7  and  C_23
    2  A    between atoms: C_7  and  C_64
    3  A    between atoms: C_8  and  C_35
    4  A    between atoms: C_8  and  C_59
    5  A    between atoms: O_14  and  C_27
    6  A    between atoms: O_14  and  C_38
    7  A    between atoms: C_21  and  C_40
    8  A    between atoms: C_22  and  C_36
    9  A    between atoms: C_26  and  C_28
   10  A    between atoms: C_29  and  C_40
   11  A    between atoms: C_29  and  C_53
   12  A    between atoms: C_31  and  C_42
   13  A    between atoms: C_31  and  C_56
   14  A    between atoms: C_38  and  C_54
   15  A    between atoms: C_53  and  C_64
   16  A    between atoms: C_55  and  C_56
                            x       y       z     vdW  Elec       q    Type
                         _______ _______ _______ _____ _____    ______ ____

>  <TORSDO>
F 16

$$$$
=
 OpenBabel11062422473D

 67 73  0  0  1  0  0  0  0  0999 V2000
  188.7930  174.9120  141.3410 C   0  0  0  0  0  0  0  0  0  0  0  0
  190.5820  173.4040  138.6450 C   0  0  2  0  0  3  0  0  0  0  0  0
  192.6400  169.0890  140.5360 C   0  0  0  0  0  0  0  0  0  0  0  0
  191.3650  169.7950  140.9990 C   0  0  2  0  0  3  0  0  0  0  0  0
  190.9290  171.1660  137.7350 O   0  0  0  0  0  1  0  0  0  0  0  0
  192.9170  171.5410  140.0370 C   0  0  2  0  0  3  0  0  0  0  0  0
  191.5380  172.4030  137.9600 C   0  0  2  0  0  3  0  0  0  0  0  0
  193.5380  170.1680  139.9990 C   0  0  0  0  0  0  0  0  0  0  0  0
  193.2640  168.4240  141.6030 O   0  0  0  0  0  1  0  0  0  0  0  0
  190.6270  172.3320  141.0660 C   0  0  1  0  0  3  0  0  0  0  0  0
  187.0890  175.7240  142.7100 O   0  0  0  0  0  1  0  0  0  0  0  0
  195.5970  172.4040  137.3780 C   0  0  1  0  0  3  0  0  0  0  0  0
  195.9190  170.8190  139.3510 C   0  0  1  0  0  3  0  0  0  0  0  0
  196.9380  172.0270  137.5390 O   0  0  0  0  0  0  0  0  0  0  0  0
  195.9850  171.0340  137.8330 C   0  0  2  0  0  3  0  0  0  0  0  0
  193.7120  173.5590  138.5700 C   0  0  1  0  0  3  0  0  0  0  0  0
  193.4010  174.5250  139.6980 C   0  0  0  0  0  1  0  0  0  0  0  0
  188.4140  174.0770  139.1670 O   0  0  0  0  0  0  0  0  0  0  0  0
  190.5290  173.6000  140.1790 C   0  0  2  0  0  3  0  0  0  0  0  0
  189.1820  174.2100  140.3120 C   0  0  0  0  0  0  0  0  0  0  0  0
  195.2120  173.3530  138.5060 C   0  0  0  0  0  2  0  0  0  0  0  0
  191.4870  171.2210  140.4690 C   0  0  2  0  0  3  0  0  0  0  0  0
  191.2520  169.7830  142.3950 O   0  0  0  0  0  1  0  0  0  0  0  0
  189.1380  173.4370  138.1320 C   0  0  1  0  0  3  0  0  0  0  0  0
  188.4330  175.6200  142.3730 C   0  0  0  0  0  0  0  0  0  0  0  0
  192.9100  172.2420  138.6500 C   0  0  1  0  0  3  0  0  0  0  0  0
  194.8190  169.8670  139.7220 C   0  0  0  0  0  3  0  0  0  0  0  0
  192.3360  168.1660  139.5300 O   0  0  0  0  0  1  0  0  0  0  0  0
  192.9830  173.0370  144.8490 C   0  0  0  0  0  2  0  0  0  0  0  0
  191.9020  173.8650  142.7100 C   0  0  0  0  0  2  0  0  0  0  0  0
  191.3070  174.5290  146.0000 C   0  0  0  0  0  0  0  0  0  0  0  0
  190.2970  172.6440  144.8040 O   0  0  0  0  0  0  0  0  0  0  0  0
  191.1170  175.7060  146.7660 C   0  0  0  0  0  0  0  0  0  0  0  0
  193.2060  173.5200  143.4180 C   0  0  0  0  0  2  0  0  0  0  0  0
  191.0420  172.6160  142.5190 C   0  0  1  0  0  3  0  0  0  0  0  0
  188.7040  175.4240  146.6110 C   0  0  0  0  0  3  0  0  0  0  0  0
  189.8140  176.1370  147.0590 C   0  0  0  0  0  3  0  0  0  0  0  0
  189.8450  172.5890  143.4580 C   0  0  0  0  0  2  0  0  0  0  0  0
  192.6200  174.1190  145.7030 O   0  0  0  0  0  0  0  0  0  0  0  0
  190.1680  173.8100  145.5520 C   0  0  0  0  0  0  0  0  0  0  0  0
  188.8820  174.2660  145.8620 C   0  0  0  0  0  3  0  0  0  0  0  0
  192.1080  177.1900  148.3400 O   0  0  0  0  0  1  0  0  0  0  0  0
  192.2490  176.5070  147.2890 C   0  0  0  0  0  0  0  0  0  0  0  0
  193.4890  176.4880  146.6690 O   0  0  0  0  0  0  0  0  0  0  0  0
  188.8950  173.2830  135.7450 F   0  0  0  0  0  0  0  0  0  0  0  0
  189.0020  174.1890  136.7960 C   0  0  0  0  0  0  0  0  0  0  0  0
  190.1670  174.9060  136.5990 F   0  0  0  0  0  0  0  0  0  0  0  0
  187.9230  175.1070  136.8060 O   0  0  0  0  0  0  0  0  0  0  0  0
  187.8060  175.7110  135.5430 C   0  0  0  0  0  2  0  0  0  0  0  0
  186.4760  175.9610  135.2630 F   0  0  0  0  0  0  0  0  0  0  0  0
  197.2780  170.3410  139.8800 C   0  0  1  0  0  3  0  0  0  0  0  0
  197.8390  171.3250  140.8970 C   0  0  0  0  0  1  0  0  0  0  0  0
  196.9170  168.7050  141.7420 C   0  0  0  0  0  3  0  0  0  0  0  0
  197.2220  168.9550  140.4640 C   0  0  0  0  0  3  0  0  0  0  0  0
  196.6260  169.7830  142.7320 C   0  0  0  0  0  2  0  0  0  0  0  0
  197.1960  169.3870  144.0800 C   0  0  0  0  0  2  0  0  0  0  0  0
  195.1330  170.3930  144.7550 O   0  0  0  0  0  1  0  0  0  0  0  0
  196.4100  170.0480  145.2000 C   0  0  2  0  0  3  0  0  0  0  0  0
  197.1330  171.2780  145.7410 C   0  0  0  0  0  2  0  0  0  0  0  0
  196.7620  172.5600  145.0010 C   0  0  2  0  0  3  0  0  0  0  0  0
  197.7710  172.9030  144.1040 O   0  0  0  0  0  1  0  0  0  0  0  0
  196.0100  174.7140  145.6290 O   0  0  0  0  0  0  0  0  0  0  0  0
  196.5520  173.6750  145.9710 C   0  0  0  0  0  3  0  0  0  0  0  0
  189.4720  176.2850  143.2090 C   0  0  0  0  0  2  0  0  0  0  0  0
  189.7520  177.6900  142.7050 C   0  0  0  0  0  2  0  0  0  0  0  0
  192.0780  177.4270  143.5920 C   0  0  0  0  0  1  0  0  0  0  0  0
  190.8500  178.3280  143.5350 C   0  0  0  0  0  2  0  0  0  0  0  0
  1 25  2  0  0  0  0
  2 19  1  0  0  0  0
  3  4  1  0  0  0  0
  3  9  1  0  0  0  0
  4 23  1  0  0  0  0
  5  7  1  0  0  0  0
  6 22  1  0  0  0  0
  7  2  1  0  0  0  0
  7 26  1  0  0  0  0
  8  6  1  0  0  0  0
  8  3  1  0  0  0  0
 10 35  1  0  0  0  0
 12 14  1  0  0  0  0
 12 15  1  0  0  0  0
 12 21  1  0  0  0  0
 13 27  1  0  0  0  0
 13 51  1  0  0  0  0
 14 15  1  0  0  0  0
 15 13  1  0  0  0  0
 16 26  1  0  0  0  0
 16 17  1  0  0  0  0
 18 20  1  0  0  0  0
 19 20  1  0  0  0  0
 19 10  1  0  0  0  0
 20  1  2  0  0  0  0
 21 16  1  0  0  0  0
 22  4  1  0  0  0  0
 22 10  1  0  0  0  0
 24  2  1  0  0  0  0
 24 18  1  0  0  0  0
 25 11  1  0  0  0  0
 25 64  1  0  0  0  0
 26  6  1  0  0  0  0
 27  8  2  0  0  0  0
 28  3  1  0  0  0  0
 29 39  1  0  0  0  0
 30 34  1  0  0  0  0
 31 33  1  0  0  0  0
 32 40  1  0  0  0  0
 33 37  2  0  0  0  0
 33 43  1  0  0  0  0
 34 29  1  0  0  0  0
 35 30  1  0  0  0  0
 35 38  1  0  0  0  0
 36 37  1  0  0  0  0
 38 32  1  0  0  0  0
 39 31  1  0  0  0  0
 40 41  1  0  0  0  0
 40 31  2  0  0  0  0
 41 36  2  0  0  0  0
 43 42  1  0  0  0  0
 44 43  2  0  0  0  0
 45 46  1  0  0  0  0
 46 48  1  0  0  0  0
 46 24  1  0  0  0  0
 47 46  1  0  0  0  0
 49 48  1  0  0  0  0
 50 49  1  0  0  0  0
 51 54  1  0  0  0  0
 51 52  1  0  0  0  0
 53 55  1  0  0  0  0
 54 53  2  0  0  0  0
 55 56  1  0  0  0  0
 56 58  1  0  0  0  0
 57 58  1  0  0  0  0
 58 59  1  0  0  0  0
 60 59  1  0  0  0  0
 60 63  1  0  0  0  0
 61 60  1  0  0  0  0
 62 63  2  0  0  0  0
 65 64  1  0  0  0  0
 65 67  1  0  0  0  0
 67 66  1  0  0  0  0
M  END
>  <MODEL>
2

>  <REMARK>
 VINA RESULT:      -5.8      3.554      9.847
  Name = 
  16 active torsions:
  status: ('A' for Active; 'I' for Inactive)
    1  A    between atoms: C_7  and  C_23
    2  A    between atoms: C_7  and  C_64
    3  A    between atoms: C_8  and  C_35
    4  A    between atoms: C_8  and  C_59
    5  A    between atoms: O_14  and  C_27
    6  A    between atoms: O_14  and  C_38
    7  A    between atoms: C_21  and  C_40
    8  A    between atoms: C_22  and  C_36
    9  A    between atoms: C_26  and  C_28
   10  A    between atoms: C_29  and  C_40
   11  A    between atoms: C_29  and  C_53
   12  A    between atoms: C_31  and  C_42
   13  A    between atoms: C_31  and  C_56
   14  A    between atoms: C_38  and  C_54
   15  A    between atoms: C_53  and  C_64
   16  A    between atoms: C_55  and  C_56
                            x       y       z     vdW  Elec       q    Type
                         _______ _______ _______ _____ _____    ______ ____

>  <TORSDO>
F 16

$$$$
=
 OpenBabel11062422473D

 67 73  0  0  1  0  0  0  0  0999 V2000
  196.2680  171.8510  141.0830 C   0  0  0  0  0  0  0  0  0  0  0  0
  194.0470  172.6000  143.7750 C   0  0  2  0  0  3  0  0  0  0  0  0
  189.3040  172.4540  141.7960 C   0  0  0  0  0  0  0  0  0  0  0  0
  190.5370  171.6840  141.3200 C   0  0  2  0  0  3  0  0  0  0  0  0
  191.8960  171.8100  144.6170 O   0  0  0  0  0  1  0  0  0  0  0  0
  191.3250  173.8340  142.3870 C   0  0  2  0  0  3  0  0  0  0  0  0
  192.7010  172.9400  144.4520 C   0  0  2  0  0  3  0  0  0  0  0  0
  189.8200  173.7310  142.3960 C   0  0  0  0  0  0  0  0  0  0  0  0
  188.4410  172.7330  140.7250 O   0  0  0  0  0  1  0  0  0  0  0  0
  193.1230  172.2360  141.3200 C   0  0  1  0  0  3  0  0  0  0  0  0
  197.8120  170.7920  139.6930 O   0  0  0  0  0  1  0  0  0  0  0  0
  190.7710  176.4900  145.1520 C   0  0  1  0  0  3  0  0  0  0  0  0
  189.2550  176.1070  143.1350 C   0  0  1  0  0  3  0  0  0  0  0  0
  189.8060  177.4990  145.0170 O   0  0  0  0  0  0  0  0  0  0  0  0
  189.3880  176.2030  144.6610 C   0  0  2  0  0  3  0  0  0  0  0  0
  192.7000  175.4260  143.9460 C   0  0  1  0  0  3  0  0  0  0  0  0
  193.7180  175.6560  142.8440 C   0  0  0  0  0  1  0  0  0  0  0  0
  195.6750  171.0320  143.2140 O   0  0  0  0  0  0  0  0  0  0  0  0
  194.2710  172.7110  142.2480 C   0  0  2  0  0  3  0  0  0  0  0  0
  195.4480  171.8180  142.0980 C   0  0  0  0  0  0  0  0  0  0  0  0
  191.8080  176.6470  144.0460 C   0  0  0  0  0  2  0  0  0  0  0  0
  191.7270  172.4430  141.9030 C   0  0  2  0  0  3  0  0  0  0  0  0
  190.6040  171.6370  139.9220 O   0  0  0  0  0  1  0  0  0  0  0  0
  194.7510  171.3230  144.2460 C   0  0  1  0  0  3  0  0  0  0  0  0
  197.0790  171.9120  140.0650 C   0  0  0  0  0  0  0  0  0  0  0  0
  191.9210  174.1010  143.7970 C   0  0  1  0  0  3  0  0  0  0  0  0
  188.9440  174.7050  142.6990 C   0  0  0  0  0  3  0  0  0  0  0  0
  188.6180  171.7070  142.7590 O   0  0  0  0  0  1  0  0  0  0  0  0
  192.8210  174.8640  137.6660 C   0  0  0  0  0  2  0  0  0  0  0  0
  194.0370  174.0670  139.7430 C   0  0  0  0  0  2  0  0  0  0  0  0
  194.8030  173.9210  136.4250 C   0  0  0  0  0  0  0  0  0  0  0  0
  193.4540  172.2270  137.5700 O   0  0  0  0  0  0  0  0  0  0  0  0
  195.9490  174.2190  135.6480 C   0  0  0  0  0  0  0  0  0  0  0  0
  193.2170  175.1820  139.1070 C   0  0  0  0  0  2  0  0  0  0  0  0
  193.2010  172.7960  139.8910 C   0  0  1  0  0  3  0  0  0  0  0  0
  196.5860  171.8710  135.6750 C   0  0  0  0  0  3  0  0  0  0  0  0
  196.8260  173.1860  135.2850 C   0  0  0  0  0  3  0  0  0  0  0  0
  193.5990  171.7220  138.8890 C   0  0  0  0  0  2  0  0  0  0  0  0
  193.9420  174.9720  136.7920 O   0  0  0  0  0  0  0  0  0  0  0  0
  194.5680  172.5760  136.8130 C   0  0  0  0  0  0  0  0  0  0  0  0
  195.4610  171.5690  136.4340 C   0  0  0  0  0  3  0  0  0  0  0  0
  195.3770  176.4910  135.2260 O   0  0  0  0  0  1  0  0  0  0  0  0
  196.2620  175.5930  135.1830 C   0  0  0  0  0  0  0  0  0  0  0  0
  197.5330  175.9300  134.7410 O   0  0  0  0  0  0  0  0  0  0  0  0
  194.6150  171.0950  146.6360 F   0  0  0  0  0  0  0  0  0  0  0  0
  195.4550  171.5030  145.6040 C   0  0  0  0  0  0  0  0  0  0  0  0
  195.6900  172.8530  145.7780 F   0  0  0  0  0  0  0  0  0  0  0  0
  196.7040  170.8350  145.6510 O   0  0  0  0  0  0  0  0  0  0  0  0
  196.5280  169.5420  146.1740 C   0  0  0  0  0  2  0  0  0  0  0  0
  196.3380  168.6400  145.1450 F   0  0  0  0  0  0  0  0  0  0  0  0
  188.2000  177.1000  142.6300 C   0  0  1  0  0  3  0  0  0  0  0  0
  188.7180  177.8730  141.4240 C   0  0  0  0  0  1  0  0  0  0  0  0
  185.6990  176.9650  142.6360 C   0  0  0  0  0  3  0  0  0  0  0  0
  186.8860  176.4420  142.3080 C   0  0  0  0  0  3  0  0  0  0  0  0
  185.5570  178.2490  143.3820 C   0  0  0  0  0  2  0  0  0  0  0  0
  184.0850  178.5630  143.5560 C   0  0  0  0  0  2  0  0  0  0  0  0
  183.9830  178.7740  141.1750 O   0  0  0  0  0  1  0  0  0  0  0  0
  183.3220  178.2390  142.2830 C   0  0  2  0  0  3  0  0  0  0  0  0
  181.8870  178.7570  142.3420 C   0  0  0  0  0  2  0  0  0  0  0  0
  181.0990  178.4760  141.0670 C   0  0  2  0  0  3  0  0  0  0  0  0
  180.8690  179.6620  140.3750 O   0  0  0  0  0  1  0  0  0  0  0  0
  179.3210  177.8960  142.5180 O   0  0  0  0  0  0  0  0  0  0  0  0
  179.7960  177.8260  141.3960 C   0  0  0  0  0  3  0  0  0  0  0  0
  197.1870  173.1770  139.2840 C   0  0  0  0  0  2  0  0  0  0  0  0
  197.9410  174.2340  140.0700 C   0  0  0  0  0  2  0  0  0  0  0  0
  197.5240  175.7380  142.0270 C   0  0  0  0  0  1  0  0  0  0  0  0
  196.9610  175.1920  140.7210 C   0  0  0  0  0  2  0  0  0  0  0  0
  1 20  2  0  0  0  0
  2 24  1  0  0  0  0
  2  7  1  0  0  0  0
  3  8  1  0  0  0  0
  3 28  1  0  0  0  0
  4  3  1  0  0  0  0
  4 22  1  0  0  0  0
  6  8  1  0  0  0  0
  6 26  1  0  0  0  0
  7  5  1  0  0  0  0
  8 27  2  0  0  0  0
  9  3  1  0  0  0  0
 10 22  1  0  0  0  0
 10 19  1  0  0  0  0
 11 25  1  0  0  0  0
 13 15  1  0  0  0  0
 14 12  1  0  0  0  0
 15 14  1  0  0  0  0
 15 12  1  0  0  0  0
 16 21  1  0  0  0  0
 17 16  1  0  0  0  0
 18 24  1  0  0  0  0
 19  2  1  0  0  0  0
 20 19  1  0  0  0  0
 20 18  1  0  0  0  0
 21 12  1  0  0  0  0
 22  6  1  0  0  0  0
 23  4  1  0  0  0  0
 24 46  1  0  0  0  0
 25  1  2  0  0  0  0
 26 16  1  0  0  0  0
 26  7  1  0  0  0  0
 27 13  1  0  0  0  0
 29 34  1  0  0  0  0
 30 35  1  0  0  0  0
 31 39  1  0  0  0  0
 31 40  1  0  0  0  0
 32 38  1  0  0  0  0
 33 31  2  0  0  0  0
 34 30  1  0  0  0  0
 35 10  1  0  0  0  0
 36 41  1  0  0  0  0
 37 33  1  0  0  0  0
 37 36  2  0  0  0  0
 38 35  1  0  0  0  0
 39 29  1  0  0  0  0
 40 32  1  0  0  0  0
 41 40  2  0  0  0  0
 43 42  1  0  0  0  0
 43 33  1  0  0  0  0
 44 43  2  0  0  0  0
 46 48  1  0  0  0  0
 46 47  1  0  0  0  0
 46 45  1  0  0  0  0
 48 49  1  0  0  0  0
 50 49  1  0  0  0  0
 51 13  1  0  0  0  0
 52 51  1  0  0  0  0
 53 55  1  0  0  0  0
 54 51  1  0  0  0  0
 54 53  2  0  0  0  0
 55 56  1  0  0  0  0
 57 58  1  0  0  0  0
 58 59  1  0  0  0  0
 58 56  1  0  0  0  0
 60 63  1  0  0  0  0
 60 59  1  0  0  0  0
 61 60  1  0  0  0  0
 63 62  2  0  0  0  0
 64 25  1  0  0  0  0
 64 65  1  0  0  0  0
 65 67  1  0  0  0  0
 67 66  1  0  0  0  0
M  END
>  <MODEL>
3

>  <REMARK>
 VINA RESULT:      -5.3      1.777      2.523
  Name = 
  16 active torsions:
  status: ('A' for Active; 'I' for Inactive)
    1  A    between atoms: C_7  and  C_23
    2  A    between atoms: C_7  and  C_64
    3  A    between atoms: C_8  and  C_35
    4  A    between atoms: C_8  and  C_59
    5  A    between atoms: O_14  and  C_27
    6  A    between atoms: O_14  and  C_38
    7  A    between atoms: C_21  and  C_40
    8  A    between atoms: C_22  and  C_36
    9  A    between atoms: C_26  and  C_28
   10  A    between atoms: C_29  and  C_40
   11  A    between atoms: C_29  and  C_53
   12  A    between atoms: C_31  and  C_42
   13  A    between atoms: C_31  and  C_56
   14  A    between atoms: C_38  and  C_54
   15  A    between atoms: C_53  and  C_64
   16  A    between atoms: C_55  and  C_56
                            x       y       z     vdW  Elec       q    Type
                         _______ _______ _______ _____ _____    ______ ____

>  <TORSDO>
F 16

$$$$
=
 OpenBabel11062422473D

 67 73  0  0  1  0  0  0  0  0999 V2000
  188.9760  174.6300  140.5130 C   0  0  0  0  0  0  0  0  0  0  0  0
  190.2700  173.7640  137.3000 C   0  0  2  0  0  3  0  0  0  0  0  0
  192.3600  169.0950  137.8160 C   0  0  0  0  0  0  0  0  0  0  0  0
  191.2040  169.6930  138.6200 C   0  0  2  0  0  3  0  0  0  0  0  0
  190.3640  171.7940  135.8620 O   0  0  0  0  0  1  0  0  0  0  0  0
  192.6850  171.5910  137.8530 C   0  0  2  0  0  3  0  0  0  0  0  0
  191.0630  172.9350  136.2660 C   0  0  2  0  0  3  0  0  0  0  0  0
  193.2230  170.2550  137.4070 C   0  0  0  0  0  0  0  0  0  0  0  0
  193.0990  168.1890  138.5940 O   0  0  0  0  0  1  0  0  0  0  0  0
  190.6160  172.1570  139.3770 C   0  0  1  0  0  3  0  0  0  0  0  0
  187.5360  175.1270  142.2780 O   0  0  0  0  0  1  0  0  0  0  0  0
  194.9870  173.0070  135.0790 C   0  0  1  0  0  3  0  0  0  0  0  0
  195.5140  171.0010  136.5630 C   0  0  1  0  0  3  0  0  0  0  0  0
  196.3160  172.5820  134.9390 O   0  0  0  0  0  0  0  0  0  0  0  0
  195.3670  171.5630  135.1430 C   0  0  2  0  0  3  0  0  0  0  0  0
  193.3590  173.8820  136.7790 C   0  0  1  0  0  3  0  0  0  0  0  0
  193.2670  174.5640  138.1320 C   0  0  0  0  0  1  0  0  0  0  0  0
  188.2400  174.3310  138.2910 O   0  0  0  0  0  0  0  0  0  0  0  0
  190.4530  173.5980  138.8280 C   0  0  2  0  0  3  0  0  0  0  0  0
  189.1730  174.1810  139.3030 C   0  0  0  0  0  0  0  0  0  0  0  0
  194.8210  173.6730  136.4390 C   0  0  0  0  0  2  0  0  0  0  0  0
  191.3210  171.2010  138.4160 C   0  0  2  0  0  3  0  0  0  0  0  0
  191.2970  169.3580  139.9770 O   0  0  0  0  0  1  0  0  0  0  0  0
  188.7700  173.9380  137.0380 C   0  0  1  0  0  3  0  0  0  0  0  0
  188.8090  175.0840  141.7220 C   0  0  0  0  0  0  0  0  0  0  0  0
  192.5110  172.5960  136.6800 C   0  0  1  0  0  3  0  0  0  0  0  0
  194.4330  170.0070  136.8740 C   0  0  0  0  0  3  0  0  0  0  0  0
  191.8640  168.4360  136.6860 O   0  0  0  0  0  1  0  0  0  0  0  0
  193.5350  171.9460  142.8100 C   0  0  0  0  0  2  0  0  0  0  0  0
  192.1740  173.2570  141.1190 C   0  0  0  0  0  2  0  0  0  0  0  0
  192.1030  173.1170  144.5240 C   0  0  0  0  0  0  0  0  0  0  0  0
  190.8620  171.5690  143.0880 O   0  0  0  0  0  0  0  0  0  0  0  0
  192.0700  174.0770  145.5660 C   0  0  0  0  0  0  0  0  0  0  0  0
  193.5580  172.7570  141.5160 C   0  0  0  0  0  2  0  0  0  0  0  0
  191.2530  172.0880  140.7730 C   0  0  1  0  0  3  0  0  0  0  0  0
  189.6540  173.8340  145.7220 C   0  0  0  0  0  3  0  0  0  0  0  0
  190.8420  174.4220  146.1490 C   0  0  0  0  0  3  0  0  0  0  0  0
  190.2110  171.8340  141.8530 C   0  0  0  0  0  2  0  0  0  0  0  0
  193.3420  172.7930  143.9400 O   0  0  0  0  0  0  0  0  0  0  0  0
  190.8860  172.5220  144.1000 C   0  0  0  0  0  0  0  0  0  0  0  0
  189.6780  172.8880  144.7030 C   0  0  0  0  0  3  0  0  0  0  0  0
  193.2210  175.8650  146.6340 O   0  0  0  0  0  1  0  0  0  0  0  0
  193.2960  174.7340  146.0820 C   0  0  0  0  0  0  0  0  0  0  0  0
  194.5300  174.1060  146.0130 O   0  0  0  0  0  0  0  0  0  0  0  0
  188.2230  174.3490  134.7330 F   0  0  0  0  0  0  0  0  0  0  0  0
  188.4790  174.9830  135.9460 C   0  0  0  0  0  0  0  0  0  0  0  0
  189.6210  175.7420  135.7780 F   0  0  0  0  0  0  0  0  0  0  0  0
  187.4250  175.8580  136.3110 O   0  0  0  0  0  0  0  0  0  0  0  0
  186.7950  176.3460  135.1530 C   0  0  0  0  0  2  0  0  0  0  0  0
  185.5370  175.7890  135.0320 F   0  0  0  0  0  0  0  0  0  0  0  0
  196.9090  170.3910  136.7530 C   0  0  1  0  0  3  0  0  0  0  0  0
  197.9390  171.4760  137.0360 C   0  0  0  0  0  1  0  0  0  0  0  0
  196.7980  169.6070  139.1290 C   0  0  0  0  0  3  0  0  0  0  0  0
  196.9450  169.3380  137.8270 C   0  0  0  0  0  3  0  0  0  0  0  0
  196.6090  170.9910  139.6550 C   0  0  0  0  0  2  0  0  0  0  0  0
  196.7400  170.9700  141.1650 C   0  0  0  0  0  2  0  0  0  0  0  0
  197.3450  172.4220  142.9680 O   0  0  0  0  0  1  0  0  0  0  0  0
  197.6210  172.1160  141.6340 C   0  0  2  0  0  3  0  0  0  0  0  0
  197.4450  173.3540  140.7600 C   0  0  0  0  0  2  0  0  0  0  0  0
  196.8670  174.5430  141.5200 C   0  0  2  0  0  3  0  0  0  0  0  0
  195.8690  175.1550  140.7660 O   0  0  0  0  0  1  0  0  0  0  0  0
  197.9410  176.1570  142.8770 O   0  0  0  0  0  0  0  0  0  0  0  0
  197.9410  175.5330  141.8290 C   0  0  0  0  0  3  0  0  0  0  0  0
  189.9930  175.5190  142.5160 C   0  0  0  0  0  2  0  0  0  0  0  0
  190.1400  177.0300  142.4800 C   0  0  0  0  0  2  0  0  0  0  0  0
  189.5110  177.4940  144.8570 C   0  0  0  0  0  1  0  0  0  0  0  0
  189.1160  177.6720  143.3970 C   0  0  0  0  0  2  0  0  0  0  0  0
  1 25  2  0  0  0  0
  2 19  1  0  0  0  0
  3  9  1  0  0  0  0
  3  4  1  0  0  0  0
  4 23  1  0  0  0  0
  5  7  1  0  0  0  0
  6 22  1  0  0  0  0
  7 26  1  0  0  0  0
  7  2  1  0  0  0  0
  8  3  1  0  0  0  0
  8  6  1  0  0  0  0
 10 35  1  0  0  0  0
 12 15  1  0  0  0  0
 12 21  1  0  0  0  0
 13 51  1  0  0  0  0
 13 27  1  0  0  0  0
 14 12  1  0  0  0  0
 14 15  1  0  0  0  0
 15 13  1  0  0  0  0
 16 17  1  0  0  0  0
 18 20  1  0  0  0  0
 19 20  1  0  0  0  0
 19 10  1  0  0  0  0
 20  1  2  0  0  0  0
 21 16  1  0  0  0  0
 22  4  1  0  0  0  0
 22 10  1  0  0  0  0
 24  2  1  0  0  0  0
 24 18  1  0  0  0  0
 25 11  1  0  0  0  0
 25 64  1  0  0  0  0
 26 16  1  0  0  0  0
 26  6  1  0  0  0  0
 27  8  2  0  0  0  0
 28  3  1  0  0  0  0
 29 39  1  0  0  0  0
 30 34  1  0  0  0  0
 31 33  1  0  0  0  0
 32 40  1  0  0  0  0
 33 43  1  0  0  0  0
 33 37  2  0  0  0  0
 34 29  1  0  0  0  0
 35 30  1  0  0  0  0
 35 38  1  0  0  0  0
 36 37  1  0  0  0  0
 38 32  1  0  0  0  0
 39 31  1  0  0  0  0
 40 31  2  0  0  0  0
 40 41  1  0  0  0  0
 41 36  2  0  0  0  0
 43 42  1  0  0  0  0
 44 43  2  0  0  0  0
 45 46  1  0  0  0  0
 46 48  1  0  0  0  0
 46 24  1  0  0  0  0
 47 46  1  0  0  0  0
 49 48  1  0  0  0  0
 50 49  1  0  0  0  0
 51 52  1  0  0  0  0
 51 54  1  0  0  0  0
 53 55  1  0  0  0  0
 54 53  2  0  0  0  0
 55 56  1  0  0  0  0
 56 58  1  0  0  0  0
 58 57  1  0  0  0  0
 59 60  1  0  0  0  0
 59 58  1  0  0  0  0
 60 63  1  0  0  0  0
 61 60  1  0  0  0  0
 63 62  2  0  0  0  0
 65 64  1  0  0  0  0
 65 67  1  0  0  0  0
 67 66  1  0  0  0  0
M  END
>  <MODEL>
4

>  <REMARK>
 VINA RESULT:      -5.2      3.824     10.005
  Name = 
  16 active torsions:
  status: ('A' for Active; 'I' for Inactive)
    1  A    between atoms: C_7  and  C_23
    2  A    between atoms: C_7  and  C_64
    3  A    between atoms: C_8  and  C_35
    4  A    between atoms: C_8  and  C_59
    5  A    between atoms: O_14  and  C_27
    6  A    between atoms: O_14  and  C_38
    7  A    between atoms: C_21  and  C_40
    8  A    between atoms: C_22  and  C_36
    9  A    between atoms: C_26  and  C_28
   10  A    between atoms: C_29  and  C_40
   11  A    between atoms: C_29  and  C_53
   12  A    between atoms: C_31  and  C_42
   13  A    between atoms: C_31  and  C_56
   14  A    between atoms: C_38  and  C_54
   15  A    between atoms: C_53  and  C_64
   16  A    between atoms: C_55  and  C_56
                            x       y       z     vdW  Elec       q    Type
                         _______ _______ _______ _____ _____    ______ ____

>  <TORSDO>
F 16

$$$$
=
 OpenBabel11062422473D

 67 73  0  0  1  0  0  0  0  0999 V2000
  193.3160  173.9570  145.5890 C   0  0  0  0  0  0  0  0  0  0  0  0
  195.3600  171.7240  143.6970 C   0  0  2  0  0  3  0  0  0  0  0  0
  195.9720  173.9100  139.0850 C   0  0  0  0  0  0  0  0  0  0  0  0
  195.7250  174.6090  140.4220 C   0  0  2  0  0  3  0  0  0  0  0  0
  197.2340  171.8700  142.1400 O   0  0  0  0  0  1  0  0  0  0  0  0
  194.6640  172.3190  140.5320 C   0  0  2  0  0  3  0  0  0  0  0  0
  196.0670  171.1640  142.4440 C   0  0  2  0  0  3  0  0  0  0  0  0
  195.3020  172.5690  139.1890 C   0  0  0  0  0  0  0  0  0  0  0  0
  195.4240  174.6470  138.0230 O   0  0  0  0  0  1  0  0  0  0  0  0
  194.3860  173.9270  142.5970 C   0  0  1  0  0  3  0  0  0  0  0  0
  192.5640  175.4920  147.1750 O   0  0  0  0  0  1  0  0  0  0  0  0
  194.8470  168.5930  139.4920 C   0  0  1  0  0  3  0  0  0  0  0  0
  194.3860  170.5510  137.9230 C   0  0  1  0  0  3  0  0  0  0  0  0
  194.4430  168.1660  138.2180 O   0  0  0  0  0  0  0  0  0  0  0  0
  195.2450  169.3220  138.2480 C   0  0  2  0  0  3  0  0  0  0  0  0
  194.0720  169.9440  141.4610 C   0  0  1  0  0  3  0  0  0  0  0  0
  192.8330  170.4980  142.1400 C   0  0  0  0  0  1  0  0  0  0  0  0
  195.4490  172.9520  145.6740 O   0  0  0  0  0  0  0  0  0  0  0  0
  194.2280  172.7760  143.6240 C   0  0  2  0  0  3  0  0  0  0  0  0
  194.2920  173.3160  145.0060 C   0  0  0  0  0  0  0  0  0  0  0  0
  193.6480  169.1940  140.2150 C   0  0  0  0  0  2  0  0  0  0  0  0
  195.1410  173.5300  141.3300 C   0  0  2  0  0  3  0  0  0  0  0  0
  194.8400  175.6850  140.2820 O   0  0  0  0  0  1  0  0  0  0  0  0
  196.2570  172.1020  144.8810 C   0  0  1  0  0  3  0  0  0  0  0  0
  192.3220  174.5820  146.1530 C   0  0  0  0  0  0  0  0  0  0  0  0
  195.1600  171.0080  141.2040 C   0  0  1  0  0  3  0  0  0  0  0  0
  195.1680  171.8230  138.0780 C   0  0  0  0  0  3  0  0  0  0  0  0
  197.3460  173.7510  138.8760 O   0  0  0  0  0  1  0  0  0  0  0  0
  190.4220  175.0520  140.7600 C   0  0  0  0  0  2  0  0  0  0  0  0
  191.8080  173.8000  142.4750 C   0  0  0  0  0  2  0  0  0  0  0  0
  189.4760  176.2700  142.7550 C   0  0  0  0  0  0  0  0  0  0  0  0
  191.8550  176.7050  142.3670 O   0  0  0  0  0  0  0  0  0  0  0  0
  188.3330  176.4810  143.5650 C   0  0  0  0  0  0  0  0  0  0  0  0
  190.9830  173.7010  141.1980 C   0  0  0  0  0  2  0  0  0  0  0  0
  193.0680  174.6330  142.2420 C   0  0  1  0  0  3  0  0  0  0  0  0
  189.6530  177.8550  145.0790 C   0  0  0  0  0  3  0  0  0  0  0  0
  188.4400  177.2720  144.7190 C   0  0  0  0  0  3  0  0  0  0  0  0
  192.9780  176.0090  142.8870 C   0  0  0  0  0  2  0  0  0  0  0  0
  189.3530  175.4620  141.6090 O   0  0  0  0  0  0  0  0  0  0  0  0
  190.7040  176.8730  143.1310 C   0  0  0  0  0  0  0  0  0  0  0  0
  190.7780  177.6570  144.2870 C   0  0  0  0  0  3  0  0  0  0  0  0
  186.9270  174.7730  142.6880 O   0  0  0  0  0  0  0  0  0  0  0  0
  187.0060  175.9050  143.2380 C   0  0  0  0  0  0  0  0  0  0  0  0
  185.8340  176.5690  143.5670 O   0  0  0  0  0  1  0  0  0  0  0  0
  196.9850  171.2260  146.9980 F   0  0  0  0  0  0  0  0  0  0  0  0
  196.7380  170.8740  145.6750 C   0  0  0  0  0  0  0  0  0  0  0  0
  197.9410  170.4680  145.1280 F   0  0  0  0  0  0  0  0  0  0  0  0
  195.8310  169.7890  145.5830 O   0  0  0  0  0  0  0  0  0  0  0  0
  196.5410  168.5770  145.6140 C   0  0  0  0  0  2  0  0  0  0  0  0
  196.9690  168.3140  146.9010 F   0  0  0  0  0  0  0  0  0  0  0  0
  193.7900  170.4260  136.5140 C   0  0  1  0  0  3  0  0  0  0  0  0
  194.8910  170.2970  135.4710 C   0  0  0  0  0  1  0  0  0  0  0  0
  191.5510  169.4410  135.9760 C   0  0  0  0  0  3  0  0  0  0  0  0
  192.8130  169.2890  136.3920 C   0  0  0  0  0  3  0  0  0  0  0  0
  190.9720  170.7680  135.6130 C   0  0  0  0  0  2  0  0  0  0  0  0
  189.7490  171.0270  136.4710 C   0  0  0  0  0  2  0  0  0  0  0  0
  188.9760  172.5440  138.1520 O   0  0  0  0  0  1  0  0  0  0  0  0
  189.7740  172.4470  137.0100 C   0  0  2  0  0  3  0  0  0  0  0  0
  189.3160  173.4540  135.9590 C   0  0  0  0  0  2  0  0  0  0  0  0
  190.1620  174.7240  135.9420 C   0  0  2  0  0  3  0  0  0  0  0  0
  190.2700  175.2100  134.6410 O   0  0  0  0  0  1  0  0  0  0  0  0
  192.2990  175.3550  136.7390 O   0  0  0  0  0  0  0  0  0  0  0  0
  191.5230  174.4470  136.4880 C   0  0  0  0  0  3  0  0  0  0  0  0
  190.9320  174.3430  145.6710 C   0  0  0  0  0  2  0  0  0  0  0  0
  190.8150  172.9770  145.0180 C   0  0  0  0  0  2  0  0  0  0  0  0
  188.9880  171.9380  143.6580 C   0  0  0  0  0  1  0  0  0  0  0  0
  189.3650  172.5300  145.0100 C   0  0  0  0  0  2  0  0  0  0  0  0
  1 25  2  0  0  0  0
  2 24  1  0  0  0  0
  3  8  1  0  0  0  0
  3  4  1  0  0  0  0
  4 22  1  0  0  0  0
  5  7  1  0  0  0  0
  6 26  1  0  0  0  0
  6 22  1  0  0  0  0
  7  2  1  0  0  0  0
  8  6  1  0  0  0  0
  9  3  1  0  0  0  0
 10 19  1  0  0  0  0
 12 21  1  0  0  0  0
 13 27  1  0  0  0  0
 13 15  1  0  0  0  0
 14 15  1  0  0  0  0
 14 12  1  0  0  0  0
 15 12  1  0  0  0  0
 16 17  1  0  0  0  0
 19  2  1  0  0  0  0
 19 20  1  0  0  0  0
 20  1  2  0  0  0  0
 20 18  1  0  0  0  0
 21 16  1  0  0  0  0
 22 10  1  0  0  0  0
 23  4  1  0  0  0  0
 24 18  1  0  0  0  0
 24 46  1  0  0  0  0
 25 11  1  0  0  0  0
 26 16  1  0  0  0  0
 26  7  1  0  0  0  0
 27  8  2  0  0  0  0
 28  3  1  0  0  0  0
 29 34  1  0  0  0  0
 29 39  1  0  0  0  0
 31 40  2  0  0  0  0
 31 33  1  0  0  0  0
 32 38  1  0  0  0  0
 32 40  1  0  0  0  0
 33 37  2  0  0  0  0
 34 30  1  0  0  0  0
 35 30  1  0  0  0  0
 35 10  1  0  0  0  0
 35 38  1  0  0  0  0
 37 36  1  0  0  0  0
 39 31  1  0  0  0  0
 40 41  1  0  0  0  0
 41 36  2  0  0  0  0
 42 43  2  0  0  0  0
 43 33  1  0  0  0  0
 43 44  1  0  0  0  0
 46 45  1  0  0  0  0
 47 46  1  0  0  0  0
 48 49  1  0  0  0  0
 48 46  1  0  0  0  0
 49 50  1  0  0  0  0
 51 13  1  0  0  0  0
 52 51  1  0  0  0  0
 53 54  2  0  0  0  0
 54 51  1  0  0  0  0
 55 53  1  0  0  0  0
 55 56  1  0  0  0  0
 56 58  1  0  0  0  0
 58 57  1  0  0  0  0
 59 58  1  0  0  0  0
 60 59  1  0  0  0  0
 60 63  1  0  0  0  0
 61 60  1  0  0  0  0
 63 62  2  0  0  0  0
 64 25  1  0  0  0  0
 65 64  1  0  0  0  0
 66 67  1  0  0  0  0
 67 65  1  0  0  0  0
M  END
>  <MODEL>
5

>  <REMARK>
 VINA RESULT:      -4.9      2.449      8.595
  Name = 
  16 active torsions:
  status: ('A' for Active; 'I' for Inactive)
    1  A    between atoms: C_7  and  C_23
    2  A    between atoms: C_7  and  C_64
    3  A    between atoms: C_8  and  C_35
    4  A    between atoms: C_8  and  C_59
    5  A    between atoms: O_14  and  C_27
    6  A    between atoms: O_14  and  C_38
    7  A    between atoms: C_21  and  C_40
    8  A    between atoms: C_22  and  C_36
    9  A    between atoms: C_26  and  C_28
   10  A    between atoms: C_29  and  C_40
   11  A    between atoms: C_29  and  C_53
   12  A    between atoms: C_31  and  C_42
   13  A    between atoms: C_31  and  C_56
   14  A    between atoms: C_38  and  C_54
   15  A    between atoms: C_53  and  C_64
   16  A    between atoms: C_55  and  C_56
                            x       y       z     vdW  Elec       q    Type
                         _______ _______ _______ _____ _____    ______ ____

>  <TORSDO>
F 16

$$$$
=
 OpenBabel11062422473D

 67 73  0  0  1  0  0  0  0  0999 V2000
  193.4470  172.4440  137.4740 C   0  0  0  0  0  0  0  0  0  0  0  0
  194.9590  172.7470  140.6940 C   0  0  2  0  0  3  0  0  0  0  0  0
  191.3590  171.3730  144.0960 C   0  0  0  0  0  0  0  0  0  0  0  0
  191.4990  170.9050  142.6470 C   0  0  2  0  0  3  0  0  0  0  0  0
  195.0140  171.4960  142.7890 O   0  0  0  0  0  1  0  0  0  0  0  0
  192.4840  173.2250  142.8160 C   0  0  2  0  0  3  0  0  0  0  0  0
  195.0180  172.7800  142.2370 C   0  0  2  0  0  3  0  0  0  0  0  0
  191.9310  172.7610  144.1400 C   0  0  0  0  0  0  0  0  0  0  0  0
  190.0120  171.3900  144.4920 O   0  0  0  0  0  1  0  0  0  0  0  0
  192.4110  172.0660  140.4540 C   0  0  1  0  0  3  0  0  0  0  0  0
  192.9100  171.7330  135.3190 O   0  0  0  0  0  1  0  0  0  0  0  0
  194.4400  175.7830  144.9680 C   0  0  1  0  0  3  0  0  0  0  0  0
  192.0700  174.9600  145.4290 C   0  0  1  0  0  3  0  0  0  0  0  0
  193.8110  176.5220  145.9810 O   0  0  0  0  0  0  0  0  0  0  0  0
  193.5020  175.1500  145.9450 C   0  0  2  0  0  3  0  0  0  0  0  0
  194.2190  175.1680  142.5440 C   0  0  1  0  0  3  0  0  0  0  0  0
  193.5680  175.5900  141.2390 C   0  0  0  0  0  1  0  0  0  0  0  0
  195.2800  171.5970  138.6940 O   0  0  0  0  0  0  0  0  0  0  0  0
  193.6330  172.8440  139.9020 C   0  0  2  0  0  3  0  0  0  0  0  0
  194.0660  172.2570  138.6080 C   0  0  0  0  0  0  0  0  0  0  0  0
  193.8040  176.1390  143.6300 C   0  0  0  0  0  2  0  0  0  0  0  0
  192.3830  171.9530  141.9770 C   0  0  2  0  0  3  0  0  0  0  0  0
  190.2520  170.8170  142.0150 O   0  0  0  0  0  1  0  0  0  0  0  0
  195.8320  171.7000  139.9940 C   0  0  1  0  0  3  0  0  0  0  0  0
  192.8180  172.6570  136.3530 C   0  0  0  0  0  0  0  0  0  0  0  0
  193.9640  173.6880  142.9060 C   0  0  1  0  0  3  0  0  0  0  0  0
  191.7420  173.5070  145.2430 C   0  0  0  0  0  3  0  0  0  0  0  0
  192.0790  170.5240  144.9430 O   0  0  0  0  0  1  0  0  0  0  0  0
  188.4610  174.1870  139.9550 C   0  0  0  0  0  2  0  0  0  0  0  0
  190.9800  174.0750  139.6860 C   0  0  0  0  0  2  0  0  0  0  0  0
  188.4250  174.2130  137.4340 C   0  0  0  0  0  0  0  0  0  0  0  0
  189.2630  172.1200  138.3900 O   0  0  0  0  0  0  0  0  0  0  0  0
  188.1530  174.9800  136.2730 C   0  0  0  0  0  0  0  0  0  0  0  0
  189.8150  174.6830  140.4580 C   0  0  0  0  0  2  0  0  0  0  0  0
  191.0590  172.5670  139.9240 C   0  0  1  0  0  3  0  0  0  0  0  0
  188.9980  173.1750  134.8760 C   0  0  0  0  0  3  0  0  0  0  0  0
  188.4460  174.4470  135.0090 C   0  0  0  0  0  3  0  0  0  0  0  0
  190.6000  171.7670  138.7130 C   0  0  0  0  0  2  0  0  0  0  0  0
  188.1380  174.7700  138.6950 O   0  0  0  0  0  0  0  0  0  0  0  0
  188.9840  172.9170  137.2850 C   0  0  0  0  0  0  0  0  0  0  0  0
  189.2630  172.4150  136.0100 C   0  0  0  0  0  3  0  0  0  0  0  0
  186.6180  176.5750  137.1470 O   0  0  0  0  0  1  0  0  0  0  0  0
  187.5530  176.3350  136.3360 C   0  0  0  0  0  0  0  0  0  0  0  0
  188.0330  177.3690  135.5460 O   0  0  0  0  0  0  0  0  0  0  0  0
  197.9410  171.5100  138.8560 F   0  0  0  0  0  0  0  0  0  0  0  0
  197.3170  172.1020  139.9500 C   0  0  0  0  0  0  0  0  0  0  0  0
  197.9210  171.5980  141.0870 F   0  0  0  0  0  0  0  0  0  0  0  0
  197.4910  173.5080  139.9520 O   0  0  0  0  0  0  0  0  0  0  0  0
  197.8170  173.9460  138.6570 C   0  0  0  0  0  2  0  0  0  0  0  0
  196.7550  174.6470  138.1180 F   0  0  0  0  0  0  0  0  0  0  0  0
  191.0700  175.6450  146.3700 C   0  0  1  0  0  3  0  0  0  0  0  0
  191.5960  175.6640  147.7980 C   0  0  0  0  0  1  0  0  0  0  0  0
  190.0920  177.3020  144.7670 C   0  0  0  0  0  3  0  0  0  0  0  0
  190.7070  177.0360  145.9240 C   0  0  0  0  0  3  0  0  0  0  0  0
  189.7240  176.2430  143.7810 C   0  0  0  0  0  2  0  0  0  0  0  0
  188.3610  175.6850  144.1370 C   0  0  0  0  0  2  0  0  0  0  0  0
  186.8570  176.6460  145.7310 O   0  0  0  0  0  1  0  0  0  0  0  0
  187.3940  176.8140  144.4530 C   0  0  2  0  0  3  0  0  0  0  0  0
  186.2770  176.9030  143.4170 C   0  0  0  0  0  2  0  0  0  0  0  0
  185.7490  178.3210  143.2310 C   0  0  2  0  0  3  0  0  0  0  0  0
  186.0370  179.0920  144.3550 O   0  0  0  0  0  1  0  0  0  0  0  0
  183.8060  177.9250  141.9390 O   0  0  0  0  0  0  0  0  0  0  0  0
  184.2740  178.2990  143.0030 C   0  0  0  0  0  3  0  0  0  0  0  0
  191.9740  173.8750  136.2020 C   0  0  0  0  0  2  0  0  0  0  0  0
  192.8380  175.1170  136.0690 C   0  0  0  0  0  2  0  0  0  0  0  0
  192.8910  177.4790  135.2410 C   0  0  0  0  0  1  0  0  0  0  0  0
  192.1030  176.1750  135.2670 C   0  0  0  0  0  2  0  0  0  0  0  0
  1 20  2  0  0  0  0
  2  7  1  0  0  0  0
  3  8  1  0  0  0  0
  3  9  1  0  0  0  0
  3 28  1  0  0  0  0
  4  3  1  0  0  0  0
  6 26  1  0  0  0  0
  6  8  1  0  0  0  0
  7  5  1  0  0  0  0
  7 26  1  0  0  0  0
  8 27  2  0  0  0  0
 10 22  1  0  0  0  0
 11 25  1  0  0  0  0
 12 15  1  0  0  0  0
 12 14  1  0  0  0  0
 13 15  1  0  0  0  0
 13 51  1  0  0  0  0
 15 14  1  0  0  0  0
 16 26  1  0  0  0  0
 16 21  1  0  0  0  0
 17 16  1  0  0  0  0
 18 24  1  0  0  0  0
 19 10  1  0  0  0  0
 19  2  1  0  0  0  0
 20 18  1  0  0  0  0
 20 19  1  0  0  0  0
 21 12  1  0  0  0  0
 22  4  1  0  0  0  0
 22  6  1  0  0  0  0
 23  4  1  0  0  0  0
 24  2  1  0  0  0  0
 25  1  2  0  0  0  0
 27 13  1  0  0  0  0
 29 34  1  0  0  0  0
 30 35  1  0  0  0  0
 30 34  1  0  0  0  0
 31 39  1  0  0  0  0
 32 38  1  0  0  0  0
 33 43  1  0  0  0  0
 33 31  2  0  0  0  0
 35 10  1  0  0  0  0
 36 37  2  0  0  0  0
 36 41  1  0  0  0  0
 37 33  1  0  0  0  0
 38 35  1  0  0  0  0
 39 29  1  0  0  0  0
 40 31  1  0  0  0  0
 40 32  1  0  0  0  0
 41 40  2  0  0  0  0
 43 42  1  0  0  0  0
 44 43  2  0  0  0  0
 45 46  1  0  0  0  0
 46 48  1  0  0  0  0
 46 24  1  0  0  0  0
 46 47  1  0  0  0  0
 49 48  1  0  0  0  0
 50 49  1  0  0  0  0
 51 52  1  0  0  0  0
 53 54  2  0  0  0  0
 54 51  1  0  0  0  0
 55 56  1  0  0  0  0
 55 53  1  0  0  0  0
 56 58  1  0  0  0  0
 58 57  1  0  0  0  0
 59 58  1  0  0  0  0
 60 59  1  0  0  0  0
 60 61  1  0  0  0  0
 62 63  2  0  0  0  0
 63 60  1  0  0  0  0
 64 25  1  0  0  0  0
 65 64  1  0  0  0  0
 66 67  1  0  0  0  0
 67 65  1  0  0  0  0
M  END
>  <MODEL>
6

>  <REMARK>
 VINA RESULT:      -4.7      2.857      5.194
  Name = 
  16 active torsions:
  status: ('A' for Active; 'I' for Inactive)
    1  A    between atoms: C_7  and  C_23
    2  A    between atoms: C_7  and  C_64
    3  A    between atoms: C_8  and  C_35
    4  A    between atoms: C_8  and  C_59
    5  A    between atoms: O_14  and  C_27
    6  A    between atoms: O_14  and  C_38
    7  A    between atoms: C_21  and  C_40
    8  A    between atoms: C_22  and  C_36
    9  A    between atoms: C_26  and  C_28
   10  A    between atoms: C_29  and  C_40
   11  A    between atoms: C_29  and  C_53
   12  A    between atoms: C_31  and  C_42
   13  A    between atoms: C_31  and  C_56
   14  A    between atoms: C_38  and  C_54
   15  A    between atoms: C_53  and  C_64
   16  A    between atoms: C_55  and  C_56
                            x       y       z     vdW  Elec       q    Type
                         _______ _______ _______ _____ _____    ______ ____

>  <TORSDO>
F 16

$$$$
=
 OpenBabel11062422473D

 67 73  0  0  1  0  0  0  0  0999 V2000
  192.6840  174.1260  145.6090 C   0  0  0  0  0  0  0  0  0  0  0  0
  194.3140  171.6630  143.6050 C   0  0  2  0  0  3  0  0  0  0  0  0
  194.8240  173.7370  138.9290 C   0  0  0  0  0  0  0  0  0  0  0  0
  194.7590  174.4680  140.2710 C   0  0  2  0  0  3  0  0  0  0  0  0
  196.0710  171.5850  141.9120 O   0  0  0  0  0  1  0  0  0  0  0  0
  193.4550  172.3150  140.4910 C   0  0  2  0  0  3  0  0  0  0  0  0
  194.8580  171.0190  142.3110 C   0  0  2  0  0  3  0  0  0  0  0  0
  194.0150  172.4830  139.1010 C   0  0  0  0  0  0  0  0  0  0  0  0
  194.2850  174.5260  137.9000 O   0  0  0  0  0  1  0  0  0  0  0  0
  193.5170  173.9560  142.5480 C   0  0  1  0  0  3  0  0  0  0  0  0
  192.2310  175.7460  147.2240 O   0  0  0  0  0  1  0  0  0  0  0  0
  193.1360  168.5870  139.4940 C   0  0  1  0  0  3  0  0  0  0  0  0
  192.7840  170.5750  137.9360 C   0  0  1  0  0  3  0  0  0  0  0  0
  192.5920  168.2010  138.2600 O   0  0  0  0  0  0  0  0  0  0  0  0
  193.5200  169.2580  138.2150 C   0  0  2  0  0  3  0  0  0  0  0  0
  192.6690  170.0290  141.4960 C   0  0  1  0  0  3  0  0  0  0  0  0
  191.5550  170.7250  142.2570 C   0  0  0  0  0  1  0  0  0  0  0  0
  194.6890  172.8850  145.5530 O   0  0  0  0  0  0  0  0  0  0  0  0
  193.3060  172.8370  143.6000 C   0  0  2  0  0  3  0  0  0  0  0  0
  193.5350  173.3750  144.9660 C   0  0  0  0  0  0  0  0  0  0  0  0
  192.0710  169.3250  140.2950 C   0  0  0  0  0  2  0  0  0  0  0  0
  194.1250  173.4690  141.2350 C   0  0  2  0  0  3  0  0  0  0  0  0
  193.9930  175.6380  140.1810 O   0  0  0  0  0  1  0  0  0  0  0  0
  195.3340  171.9440  144.7140 C   0  0  1  0  0  3  0  0  0  0  0  0
  191.8120  174.8640  146.2360 C   0  0  0  0  0  0  0  0  0  0  0  0
  193.8480  170.9600  141.1440 C   0  0  1  0  0  3  0  0  0  0  0  0
  193.7150  171.7500  138.0150 C   0  0  0  0  0  3  0  0  0  0  0  0
  196.1510  173.4220  138.6220 O   0  0  0  0  0  1  0  0  0  0  0  0
  189.6040  175.5410  140.9560 C   0  0  0  0  0  2  0  0  0  0  0  0
  190.9370  174.1050  142.5650 C   0  0  0  0  0  2  0  0  0  0  0  0
  188.8990  176.7970  143.0240 C   0  0  0  0  0  0  0  0  0  0  0  0
  191.2870  176.9900  142.5150 O   0  0  0  0  0  0  0  0  0  0  0  0
  187.8290  177.1060  143.9010 C   0  0  0  0  0  0  0  0  0  0  0  0
  190.0400  174.1270  141.3340 C   0  0  0  0  0  2  0  0  0  0  0  0
  192.2650  174.8070  142.2810 C   0  0  1  0  0  3  0  0  0  0  0  0
  189.3650  178.2930  145.3680 C   0  0  0  0  0  3  0  0  0  0  0  0
  188.0800  177.8500  145.0630 C   0  0  0  0  0  3  0  0  0  0  0  0
  192.3560  176.1660  142.9580 C   0  0  0  0  0  2  0  0  0  0  0  0
  188.6310  176.0370  141.8710 O   0  0  0  0  0  0  0  0  0  0  0  0
  190.2030  177.2580  143.3450 C   0  0  0  0  0  0  0  0  0  0  0  0
  190.4200  177.9990  144.5110 C   0  0  0  0  0  3  0  0  0  0  0  0
  185.5620  176.7670  144.5430 O   0  0  0  0  0  1  0  0  0  0  0  0
  186.4330  176.6810  143.6350 C   0  0  0  0  0  0  0  0  0  0  0  0
  186.0470  176.2290  142.3820 O   0  0  0  0  0  0  0  0  0  0  0  0
  196.4280  171.0150  146.6440 F   0  0  0  0  0  0  0  0  0  0  0  0
  195.7310  170.6740  145.4880 C   0  0  0  0  0  0  0  0  0  0  0  0
  196.5960  169.9500  144.6880 F   0  0  0  0  0  0  0  0  0  0  0  0
  194.6140  169.8510  145.7750 O   0  0  0  0  0  0  0  0  0  0  0  0
  194.9860  168.8510  146.6890 C   0  0  0  0  0  2  0  0  0  0  0  0
  194.4450  169.1240  147.9310 F   0  0  0  0  0  0  0  0  0  0  0  0
  192.0740  170.5110  136.5770 C   0  0  1  0  0  3  0  0  0  0  0  0
  192.7420  169.4900  135.6660 C   0  0  0  0  0  1  0  0  0  0  0  0
  189.6670  171.1790  136.7590 C   0  0  0  0  0  3  0  0  0  0  0  0
  190.6030  170.2240  136.7000 C   0  0  0  0  0  3  0  0  0  0  0  0
  189.9930  172.6350  136.7360 C   0  0  0  0  0  2  0  0  0  0  0  0
  190.0660  173.1040  135.2960 C   0  0  0  0  0  2  0  0  0  0  0  0
  190.6910  175.4040  135.0780 O   0  0  0  0  0  1  0  0  0  0  0  0
  189.5960  174.5450  135.1860 C   0  0  2  0  0  3  0  0  0  0  0  0
  188.7270  174.9430  136.3760 C   0  0  0  0  0  2  0  0  0  0  0  0
  187.5200  175.7860  135.9760 C   0  0  2  0  0  3  0  0  0  0  0  0
  187.9400  176.9950  135.4260 O   0  0  0  0  0  1  0  0  0  0  0  0
  187.0650  175.8540  138.2980 O   0  0  0  0  0  0  0  0  0  0  0  0
  186.6560  176.0500  137.1650 C   0  0  0  0  0  3  0  0  0  0  0  0
  190.3720  174.7820  145.8610 C   0  0  0  0  0  2  0  0  0  0  0  0
  189.8190  173.3960  146.1420 C   0  0  0  0  0  2  0  0  0  0  0  0
  189.9620  171.4020  144.6360 C   0  0  0  0  0  1  0  0  0  0  0  0
  189.3230  172.7670  144.8540 C   0  0  0  0  0  2  0  0  0  0  0  0
  1 25  2  0  0  0  0
  2 24  1  0  0  0  0
  3  8  1  0  0  0  0
  3  4  1  0  0  0  0
  4 22  1  0  0  0  0
  5  7  1  0  0  0  0
  6 26  1  0  0  0  0
  6 22  1  0  0  0  0
  7  2  1  0  0  0  0
  8  6  1  0  0  0  0
  9  3  1  0  0  0  0
 10 19  1  0  0  0  0
 12 21  1  0  0  0  0
 13 27  1  0  0  0  0
 13 15  1  0  0  0  0
 14 12  1  0  0  0  0
 15 14  1  0  0  0  0
 15 12  1  0  0  0  0
 16 17  1  0  0  0  0
 19  2  1  0  0  0  0
 19 20  1  0  0  0  0
 20 18  1  0  0  0  0
 20  1  2  0  0  0  0
 21 16  1  0  0  0  0
 22 10  1  0  0  0  0
 23  4  1  0  0  0  0
 24 46  1  0  0  0  0
 24 18  1  0  0  0  0
 25 11  1  0  0  0  0
 26 16  1  0  0  0  0
 26  7  1  0  0  0  0
 27  8  2  0  0  0  0
 28  3  1  0  0  0  0
 29 34  1  0  0  0  0
 29 39  1  0  0  0  0
 31 40  2  0  0  0  0
 31 33  1  0  0  0  0
 32 38  1  0  0  0  0
 32 40  1  0  0  0  0
 33 37  2  0  0  0  0
 34 30  1  0  0  0  0
 35 10  1  0  0  0  0
 35 30  1  0  0  0  0
 35 38  1  0  0  0  0
 37 36  1  0  0  0  0
 39 31  1  0  0  0  0
 40 41  1  0  0  0  0
 41 36  2  0  0  0  0
 43 33  1  0  0  0  0
 43 42  1  0  0  0  0
 44 43  2  0  0  0  0
 46 48  1  0  0  0  0
 46 45  1  0  0  0  0
 47 46  1  0  0  0  0
 48 49  1  0  0  0  0
 49 50  1  0  0  0  0
 51 54  1  0  0  0  0
 51 13  1  0  0  0  0
 52 51  1  0  0  0  0
 54 53  2  0  0  0  0
 55 53  1  0  0  0  0
 56 55  1  0  0  0  0
 57 58  1  0  0  0  0
 58 56  1  0  0  0  0
 58 59  1  0  0  0  0
 60 59  1  0  0  0  0
 60 63  1  0  0  0  0
 61 60  1  0  0  0  0
 63 62  2  0  0  0  0
 64 65  1  0  0  0  0
 64 25  1  0  0  0  0
 66 67  1  0  0  0  0
 67 65  1  0  0  0  0
M  END
>  <MODEL>
7

>  <REMARK>
 VINA RESULT:      -4.7      2.669      8.361
  Name = 
  16 active torsions:
  status: ('A' for Active; 'I' for Inactive)
    1  A    between atoms: C_7  and  C_23
    2  A    between atoms: C_7  and  C_64
    3  A    between atoms: C_8  and  C_35
    4  A    between atoms: C_8  and  C_59
    5  A    between atoms: O_14  and  C_27
    6  A    between atoms: O_14  and  C_38
    7  A    between atoms: C_21  and  C_40
    8  A    between atoms: C_22  and  C_36
    9  A    between atoms: C_26  and  C_28
   10  A    between atoms: C_29  and  C_40
   11  A    between atoms: C_29  and  C_53
   12  A    between atoms: C_31  and  C_42
   13  A    between atoms: C_31  and  C_56
   14  A    between atoms: C_38  and  C_54
   15  A    between atoms: C_53  and  C_64
   16  A    between atoms: C_55  and  C_56
                            x       y       z     vdW  Elec       q    Type
                         _______ _______ _______ _____ _____    ______ ____

>  <TORSDO>
F 16

$$$$
=
 OpenBabel11062422473D

 67 73  0  0  1  0  0  0  0  0999 V2000
  196.5640  171.3960  141.0420 C   0  0  0  0  0  0  0  0  0  0  0  0
  195.3060  171.9900  144.3290 C   0  0  2  0  0  3  0  0  0  0  0  0
  190.1890  172.1980  143.8820 C   0  0  0  0  0  0  0  0  0  0  0  0
  191.1710  171.4260  142.9990 C   0  0  2  0  0  3  0  0  0  0  0  0
  193.4620  171.2110  145.7260 O   0  0  0  0  0  1  0  0  0  0  0  0
  192.3760  173.4440  143.9280 C   0  0  2  0  0  3  0  0  0  0  0  0
  194.2500  172.3200  145.4060 C   0  0  2  0  0  3  0  0  0  0  0  0
  190.9400  173.3970  144.3870 C   0  0  0  0  0  0  0  0  0  0  0  0
  189.0630  172.6030  143.1470 O   0  0  0  0  0  1  0  0  0  0  0  0
  193.6660  171.8780  142.2520 C   0  0  1  0  0  3  0  0  0  0  0  0
  197.5510  170.4050  139.1750 O   0  0  0  0  0  1  0  0  0  0  0  0
  192.8460  175.8650  146.9140 C   0  0  1  0  0  3  0  0  0  0  0  0
  190.7740  175.7190  145.4330 C   0  0  1  0  0  3  0  0  0  0  0  0
  191.9500  176.9190  147.1520 O   0  0  0  0  0  0  0  0  0  0  0  0
  191.3640  175.6760  146.8480 C   0  0  2  0  0  3  0  0  0  0  0  0
  194.2530  174.8390  145.1060 C   0  0  1  0  0  3  0  0  0  0  0  0
  194.9050  175.1260  143.7650 C   0  0  0  0  0  1  0  0  0  0  0  0
  196.5890  170.4160  143.1880 O   0  0  0  0  0  0  0  0  0  0  0  0
  195.0670  172.2260  142.8180 C   0  0  2  0  0  3  0  0  0  0  0  0
  196.0870  171.3060  142.2530 C   0  0  0  0  0  0  0  0  0  0  0  0
  193.5110  176.0790  145.5600 C   0  0  0  0  0  2  0  0  0  0  0  0
  192.5260  172.0860  143.2460 C   0  0  2  0  0  3  0  0  0  0  0  0
  190.8120  171.5000  141.6480 O   0  0  0  0  0  1  0  0  0  0  0  0
  196.0370  170.6510  144.4700 C   0  0  1  0  0  3  0  0  0  0  0  0
  197.0350  171.5150  139.8330 C   0  0  0  0  0  0  0  0  0  0  0  0
  193.3840  173.5630  145.1050 C   0  0  1  0  0  3  0  0  0  0  0  0
  190.2590  174.3730  145.0120 C   0  0  0  0  0  3  0  0  0  0  0  0
  189.7780  171.3960  144.9520 O   0  0  0  0  0  1  0  0  0  0  0  0
  192.3680  174.7970  139.0670 C   0  0  0  0  0  2  0  0  0  0  0  0
  194.1110  173.8560  140.6500 C   0  0  0  0  0  2  0  0  0  0  0  0
  193.9300  174.0080  137.2510 C   0  0  0  0  0  0  0  0  0  0  0  0
  192.9480  172.1920  138.5700 O   0  0  0  0  0  0  0  0  0  0  0  0
  194.8170  174.3970  136.2160 C   0  0  0  0  0  0  0  0  0  0  0  0
  193.1470  175.0010  140.3640 C   0  0  0  0  0  2  0  0  0  0  0  0
  193.3470  172.5580  140.9120 C   0  0  1  0  0  3  0  0  0  0  0  0
  195.4350  172.0700  135.8620 C   0  0  0  0  0  3  0  0  0  0  0  0
  195.5590  173.4190  135.5380 C   0  0  0  0  0  3  0  0  0  0  0  0
  193.4530  171.5820  139.7490 C   0  0  0  0  0  2  0  0  0  0  0  0
  193.2040  175.0040  137.9310 O   0  0  0  0  0  0  0  0  0  0  0  0
  193.8100  172.6300  137.5690 C   0  0  0  0  0  0  0  0  0  0  0  0
  194.5640  171.6790  136.8730 C   0  0  0  0  0  3  0  0  0  0  0  0
  196.0370  176.4390  136.1230 O   0  0  0  0  0  1  0  0  0  0  0  0
  194.9900  175.8120  135.8060 C   0  0  0  0  0  0  0  0  0  0  0  0
  194.0360  176.4570  135.0330 O   0  0  0  0  0  0  0  0  0  0  0  0
  197.9280  171.8090  145.3990 F   0  0  0  0  0  0  0  0  0  0  0  0
  197.1260  170.6830  145.5580 C   0  0  0  0  0  0  0  0  0  0  0  0
  197.9340  169.5770  145.3750 F   0  0  0  0  0  0  0  0  0  0  0  0
  196.5800  170.6110  146.8640 O   0  0  0  0  0  0  0  0  0  0  0  0
  196.2750  169.2750  147.1750 C   0  0  0  0  0  2  0  0  0  0  0  0
  194.9070  169.0840  147.1350 F   0  0  0  0  0  0  0  0  0  0  0  0
  189.6800  176.7920  145.3450 C   0  0  1  0  0  3  0  0  0  0  0  0
  188.7290  176.5020  144.1920 C   0  0  0  0  0  1  0  0  0  0  0  0
  187.5790  176.9430  146.7000 C   0  0  0  0  0  3  0  0  0  0  0  0
  188.9150  176.9520  146.6300 C   0  0  0  0  0  3  0  0  0  0  0  0
  186.7060  176.8000  145.4980 C   0  0  0  0  0  2  0  0  0  0  0  0
  186.0450  178.1320  145.2030 C   0  0  0  0  0  2  0  0  0  0  0  0
  184.9320  176.7140  143.6290 O   0  0  0  0  0  1  0  0  0  0  0  0
  185.2320  178.0460  143.9220 C   0  0  2  0  0  3  0  0  0  0  0  0
  185.9650  178.6930  142.7500 C   0  0  0  0  0  2  0  0  0  0  0  0
  185.1390  178.7090  141.4670 C   0  0  2  0  0  3  0  0  0  0  0  0
  183.8810  178.1560  141.7000 O   0  0  0  0  0  1  0  0  0  0  0  0
  186.9920  177.5760  140.5270 O   0  0  0  0  0  0  0  0  0  0  0  0
  185.8340  177.9380  140.3940 C   0  0  0  0  0  3  0  0  0  0  0  0
  196.9830  172.8390  139.1490 C   0  0  0  0  0  2  0  0  0  0  0  0
  197.6380  173.9120  140.0000 C   0  0  0  0  0  2  0  0  0  0  0  0
  197.7430  175.9860  138.6020 C   0  0  0  0  0  1  0  0  0  0  0  0
  196.9990  175.2590  139.7160 C   0  0  0  0  0  2  0  0  0  0  0  0
  1 20  2  0  0  0  0
  2 24  1  0  0  0  0
  2  7  1  0  0  0  0
  3  8  1  0  0  0  0
  3 28  1  0  0  0  0
  4 22  1  0  0  0  0
  4  3  1  0  0  0  0
  6  8  1  0  0  0  0
  6 26  1  0  0  0  0
  7  5  1  0  0  0  0
  8 27  2  0  0  0  0
  9  3  1  0  0  0  0
 10 19  1  0  0  0  0
 10 22  1  0  0  0  0
 11 25  1  0  0  0  0
 12 14  1  0  0  0  0
 13 15  1  0  0  0  0
 15 12  1  0  0  0  0
 15 14  1  0  0  0  0
 16 21  1  0  0  0  0
 17 16  1  0  0  0  0
 18 24  1  0  0  0  0
 19  2  1  0  0  0  0
 20 19  1  0  0  0  0
 20 18  1  0  0  0  0
 21 12  1  0  0  0  0
 22  6  1  0  0  0  0
 23  4  1  0  0  0  0
 24 46  1  0  0  0  0
 25  1  2  0  0  0  0
 26 16  1  0  0  0  0
 26  7  1  0  0  0  0
 27 13  1  0  0  0  0
 29 34  1  0  0  0  0
 30 35  1  0  0  0  0
 31 40  1  0  0  0  0
 31 39  1  0  0  0  0
 32 38  1  0  0  0  0
 33 31  2  0  0  0  0
 34 30  1  0  0  0  0
 35 10  1  0  0  0  0
 36 41  1  0  0  0  0
 37 36  2  0  0  0  0
 37 33  1  0  0  0  0
 38 35  1  0  0  0  0
 39 29  1  0  0  0  0
 40 32  1  0  0  0  0
 41 40  2  0  0  0  0
 43 42  1  0  0  0  0
 43 33  1  0  0  0  0
 44 43  2  0  0  0  0
 45 46  1  0  0  0  0
 46 48  1  0  0  0  0
 47 46  1  0  0  0  0
 48 49  1  0  0  0  0
 50 49  1  0  0  0  0
 51 13  1  0  0  0  0
 51 54  1  0  0  0  0
 52 51  1  0  0  0  0
 54 53  2  0  0  0  0
 55 53  1  0  0  0  0
 56 55  1  0  0  0  0
 57 58  1  0  0  0  0
 58 56  1  0  0  0  0
 59 58  1  0  0  0  0
 60 61  1  0  0  0  0
 60 59  1  0  0  0  0
 63 62  2  0  0  0  0
 63 60  1  0  0  0  0
 64 25  1  0  0  0  0
 64 65  1  0  0  0  0
 66 67  1  0  0  0  0
 67 65  1  0  0  0  0
M  END
>  <MODEL>
8

>  <REMARK>
 VINA RESULT:      -4.2      1.757      2.835
  Name = 
  16 active torsions:
  status: ('A' for Active; 'I' for Inactive)
    1  A    between atoms: C_7  and  C_23
    2  A    between atoms: C_7  and  C_64
    3  A    between atoms: C_8  and  C_35
    4  A    between atoms: C_8  and  C_59
    5  A    between atoms: O_14  and  C_27
    6  A    between atoms: O_14  and  C_38
    7  A    between atoms: C_21  and  C_40
    8  A    between atoms: C_22  and  C_36
    9  A    between atoms: C_26  and  C_28
   10  A    between atoms: C_29  and  C_40
   11  A    between atoms: C_29  and  C_53
   12  A    between atoms: C_31  and  C_42
   13  A    between atoms: C_31  and  C_56
   14  A    between atoms: C_38  and  C_54
   15  A    between atoms: C_53  and  C_64
   16  A    between atoms: C_55  and  C_56
                            x       y       z     vdW  Elec       q    Type
                         _______ _______ _______ _____ _____    ______ ____

>  <TORSDO>
F 16

$$$$
=
 OpenBabel11062422473D

 67 73  0  0  1  0  0  0  0  0999 V2000
  192.3960  172.7580  136.6510 C   0  0  0  0  0  0  0  0  0  0  0  0
  195.4860  172.4010  138.4010 C   0  0  2  0  0  3  0  0  0  0  0  0
  194.3240  170.2550  142.9260 C   0  0  0  0  0  0  0  0  0  0  0  0
  193.5690  170.1090  141.6040 C   0  0  2  0  0  3  0  0  0  0  0  0
  196.5860  170.7340  139.8050 O   0  0  0  0  0  1  0  0  0  0  0  0
  194.7140  172.3620  141.6040 C   0  0  2  0  0  3  0  0  0  0  0  0
  196.4110  172.1050  139.6020 C   0  0  2  0  0  3  0  0  0  0  0  0
  194.9620  171.6150  142.8900 C   0  0  0  0  0  0  0  0  0  0  0  0
  193.4480  170.1570  144.0190 O   0  0  0  0  0  1  0  0  0  0  0  0
  193.1960  171.7310  139.5490 C   0  0  1  0  0  3  0  0  0  0  0  0
  190.6620  172.5100  135.1110 O   0  0  0  0  0  1  0  0  0  0  0  0
  197.8000  174.4440  142.6700 C   0  0  1  0  0  3  0  0  0  0  0  0
  196.0360  173.4900  144.2480 C   0  0  1  0  0  3  0  0  0  0  0  0
  197.9370  174.9370  143.9770 O   0  0  0  0  0  0  0  0  0  0  0  0
  197.5200  173.5970  143.8700 C   0  0  2  0  0  3  0  0  0  0  0  0
  196.1820  174.3550  140.7520 C   0  0  1  0  0  3  0  0  0  0  0  0
  194.9560  175.0310  140.1660 C   0  0  0  0  0  1  0  0  0  0  0  0
  194.4960  171.7100  136.4090 O   0  0  0  0  0  0  0  0  0  0  0  0
  193.9640  172.6350  138.5510 C   0  0  2  0  0  3  0  0  0  0  0  0
  193.5240  172.3470  137.1620 C   0  0  0  0  0  0  0  0  0  0  0  0
  196.5600  175.0630  142.0370 C   0  0  0  0  0  2  0  0  0  0  0  0
  194.0230  171.2960  140.7570 C   0  0  2  0  0  3  0  0  0  0  0  0
  192.1830  170.1310  141.8010 O   0  0  0  0  0  1  0  0  0  0  0  0
  195.6940  171.5460  137.1470 C   0  0  1  0  0  3  0  0  0  0  0  0
  191.2690  173.1900  136.1590 C   0  0  0  0  0  0  0  0  0  0  0  0
  196.0240  172.8270  140.9110 C   0  0  1  0  0  3  0  0  0  0  0  0
  195.5110  172.1030  144.0170 C   0  0  0  0  0  3  0  0  0  0  0  0
  195.3030  169.2610  143.0280 O   0  0  0  0  0  1  0  0  0  0  0  0
  189.8930  173.7670  141.8510 C   0  0  0  0  0  2  0  0  0  0  0  0
  191.8210  173.8180  140.2050 C   0  0  0  0  0  2  0  0  0  0  0  0
  188.4870  174.4420  139.8690 C   0  0  0  0  0  0  0  0  0  0  0  0
  189.4620  172.2040  139.6740 O   0  0  0  0  0  0  0  0  0  0  0  0
  187.7160  175.4720  139.2760 C   0  0  0  0  0  0  0  0  0  0  0  0
  191.3480  174.1640  141.6110 C   0  0  0  0  0  2  0  0  0  0  0  0
  191.8420  172.3040  139.9980 C   0  0  1  0  0  3  0  0  0  0  0  0
  187.4430  174.1200  137.2700 C   0  0  0  0  0  3  0  0  0  0  0  0
  187.2060  175.2950  137.9810 C   0  0  0  0  0  3  0  0  0  0  0  0
  190.7080  171.8270  139.1030 C   0  0  0  0  0  2  0  0  0  0  0  0
  189.0040  174.6440  141.1630 O   0  0  0  0  0  0  0  0  0  0  0  0
  188.7190  173.2490  139.1360 C   0  0  0  0  0  0  0  0  0  0  0  0
  188.1950  173.1030  137.8470 C   0  0  0  0  0  3  0  0  0  0  0  0
  188.0620  177.0700  141.0050 O   0  0  0  0  0  1  0  0  0  0  0  0
  187.4090  176.7430  139.9770 C   0  0  0  0  0  0  0  0  0  0  0  0
  186.4420  177.6130  139.4960 O   0  0  0  0  0  0  0  0  0  0  0  0
  196.6410  171.9300  134.9700 F   0  0  0  0  0  0  0  0  0  0  0  0
  196.9250  171.9810  136.3320 C   0  0  0  0  0  0  0  0  0  0  0  0
  197.9320  171.0650  136.5740 F   0  0  0  0  0  0  0  0  0  0  0  0
  197.3990  173.2590  136.7190 O   0  0  0  0  0  0  0  0  0  0  0  0
  196.9540  174.2250  135.8010 C   0  0  0  0  0  2  0  0  0  0  0  0
  196.4840  175.3350  136.4770 F   0  0  0  0  0  0  0  0  0  0  0  0
  195.8240  173.9370  145.7000 C   0  0  1  0  0  3  0  0  0  0  0  0
  197.0980  173.7570  146.5140 C   0  0  0  0  0  1  0  0  0  0  0  0
  194.0450  175.6690  146.0320 C   0  0  0  0  0  3  0  0  0  0  0  0
  195.3250  175.3530  145.8080 C   0  0  0  0  0  3  0  0  0  0  0  0
  192.9690  174.6440  146.1720 C   0  0  0  0  0  2  0  0  0  0  0  0
  191.8360  175.2230  146.9950 C   0  0  0  0  0  2  0  0  0  0  0  0
  190.6170  173.9520  145.3760 O   0  0  0  0  0  1  0  0  0  0  0  0
  190.5060  174.9960  146.2960 C   0  0  2  0  0  3  0  0  0  0  0  0
  190.0140  176.2630  145.6020 C   0  0  0  0  0  2  0  0  0  0  0  0
  188.8950  176.9640  146.3660 C   0  0  2  0  0  3  0  0  0  0  0  0
  188.2830  176.0730  147.2440 O   0  0  0  0  0  1  0  0  0  0  0  0
  188.1530  177.6930  144.2400 O   0  0  0  0  0  0  0  0  0  0  0  0
  187.8800  177.5070  145.4150 C   0  0  0  0  0  3  0  0  0  0  0  0
  190.6210  174.3940  136.7520 C   0  0  0  0  0  2  0  0  0  0  0  0
  190.8990  175.6260  135.9080 C   0  0  0  0  0  2  0  0  0  0  0  0
  188.9210  176.8130  134.9350 C   0  0  0  0  0  1  0  0  0  0  0  0
  189.9270  175.6850  134.7440 C   0  0  0  0  0  2  0  0  0  0  0  0
  1 20  2  0  0  0  0
  2 19  1  0  0  0  0
  2  7  1  0  0  0  0
  3 28  1  0  0  0  0
  3  9  1  0  0  0  0
  4 23  1  0  0  0  0
  4  3  1  0  0  0  0
  6  8  1  0  0  0  0
  7  5  1  0  0  0  0
  7 26  1  0  0  0  0
  8  3  1  0  0  0  0
  8 27  2  0  0  0  0
 10 35  1  0  0  0  0
 10 22  1  0  0  0  0
 11 25  1  0  0  0  0
 12 15  1  0  0  0  0
 12 14  1  0  0  0  0
 13 51  1  0  0  0  0
 15 14  1  0  0  0  0
 15 13  1  0  0  0  0
 16 26  1  0  0  0  0
 16 21  1  0  0  0  0
 17 16  1  0  0  0  0
 18 24  1  0  0  0  0
 18 20  1  0  0  0  0
 19 10  1  0  0  0  0
 20 19  1  0  0  0  0
 21 12  1  0  0  0  0
 22  4  1  0  0  0  0
 22  6  1  0  0  0  0
 24  2  1  0  0  0  0
 25  1  2  0  0  0  0
 25 64  1  0  0  0  0
 26  6  1  0  0  0  0
 27 13  1  0  0  0  0
 30 34  1  0  0  0  0
 31 39  1  0  0  0  0
 33 31  1  0  0  0  0
 33 43  1  0  0  0  0
 34 29  1  0  0  0  0
 35 30  1  0  0  0  0
 36 41  2  0  0  0  0
 36 37  1  0  0  0  0
 37 33  2  0  0  0  0
 38 32  1  0  0  0  0
 38 35  1  0  0  0  0
 39 29  1  0  0  0  0
 40 32  1  0  0  0  0
 40 31  2  0  0  0  0
 41 40  1  0  0  0  0
 43 42  1  0  0  0  0
 44 43  2  0  0  0  0
 45 46  1  0  0  0  0
 46 47  1  0  0  0  0
 46 48  1  0  0  0  0
 46 24  1  0  0  0  0
 49 50  1  0  0  0  0
 49 48  1  0  0  0  0
 51 54  1  0  0  0  0
 51 52  1  0  0  0  0
 53 55  1  0  0  0  0
 54 53  2  0  0  0  0
 55 56  1  0  0  0  0
 57 58  1  0  0  0  0
 58 56  1  0  0  0  0
 59 58  1  0  0  0  0
 59 60  1  0  0  0  0
 60 61  1  0  0  0  0
 62 63  2  0  0  0  0
 63 60  1  0  0  0  0
 65 64  1  0  0  0  0
 67 66  1  0  0  0  0
 67 65  1  0  0  0  0
M  END
>  <MODEL>
9

>  <REMARK>
 VINA RESULT:      -4.2      3.066      7.192
  Name = 
  16 active torsions:
  status: ('A' for Active; 'I' for Inactive)
    1  A    between atoms: C_7  and  C_23
    2  A    between atoms: C_7  and  C_64
    3  A    between atoms: C_8  and  C_35
    4  A    between atoms: C_8  and  C_59
    5  A    between atoms: O_14  and  C_27
    6  A    between atoms: O_14  and  C_38
    7  A    between atoms: C_21  and  C_40
    8  A    between atoms: C_22  and  C_36
    9  A    between atoms: C_26  and  C_28
   10  A    between atoms: C_29  and  C_40
   11  A    between atoms: C_29  and  C_53
   12  A    between atoms: C_31  and  C_42
   13  A    between atoms: C_31  and  C_56
   14  A    between atoms: C_38  and  C_54
   15  A    between atoms: C_53  and  C_64
   16  A    between atoms: C_55  and  C_56
                            x       y       z     vdW  Elec       q    Type
                         _______ _______ _______ _____ _____    ______ ____

>  <TORSDO>
F 16

$$$$
