=
 OpenBabel11062422023D

 34 37  0  0  1  0  0  0  0  0999 V2000
  189.1580  175.0700  145.7800 C   0  0  0  0  0  2  0  0  0  0  0  0
  192.7990  175.6060  145.6020 C   0  0  1  0  0  3  0  0  0  0  0  0
  189.5260  175.5070  147.2020 C   0  0  0  0  0  2  0  0  0  0  0  0
  191.5220  177.1360  148.7640 O   0  0  0  0  0  1  0  0  0  0  0  0
  193.9490  177.1970  147.0530 O   0  0  0  0  0  0  0  0  0  0  0  0
  190.3680  175.0700  144.9440 N   0  0  0  0  0  0  0  0  0  0  0  0
  191.8120  176.3140  147.6830 C   0  0  2  0  0  3  0  0  0  0  0  0
  191.4740  174.8730  145.8960 C   0  0  2  0  0  3  0  0  0  0  0  0
  192.9780  176.4260  146.8370 C   0  0  0  0  0  0  0  0  0  0  0  0
  190.9900  175.4230  147.1710 C   0  0  2  0  0  3  0  0  0  0  0  0
  193.9200  174.5880  145.4810 C   0  0  0  0  0  2  0  0  0  0  0  0
  197.2840  177.0650  143.2430 O   0  0  0  0  0  0  0  0  0  0  0  0
  194.8290  174.9660  144.3640 C   0  0  0  0  0  0  0  0  0  0  0  0
  196.4290  176.1440  143.3170 C   0  0  0  0  0  0  0  0  0  0  0  0
  195.6070  175.9890  144.4590 N   0  0  0  0  0  0  0  0  0  0  0  0
  196.2260  175.1450  142.2320 C   0  0  1  0  0  3  0  0  0  0  0  0
  194.9810  173.9690  142.8800 S   0  0  0  0  0  0  0  0  0  0  0  0
  195.7170  175.8020  140.9830 C   0  0  0  0  0  0  0  0  0  0  0  0
  194.8590  176.6720  141.0380 O   0  0  0  0  0  0  0  0  0  0  0  0
  196.2650  175.3860  139.6630 C   0  0  0  0  0  1  0  0  0  0  0  0
  190.4270  176.6670  144.1600 S   0  0  0  0  0  0  0  0  0  0  0  0
  189.7460  176.0230  142.5990 C   0  0  1  0  0  3  0  0  0  0  0  0
  190.2020  174.5850  142.3870 C   0  0  0  0  0  2  0  0  0  0  0  0
  189.1130  173.7500  142.1260 O   0  0  0  0  0  1  0  0  0  0  0  0
  188.2860  176.0940  142.6260 N   0  0  0  0  0  2  0  0  0  0  0  0
  187.8130  177.4770  142.5100 C   0  0  1  0  0  3  0  0  0  0  0  0
  187.3380  177.8310  141.1020 C   0  0  0  0  0  1  0  0  0  0  0  0
  185.6990  176.9020  145.6820 C   0  0  0  0  0  2  0  0  0  0  0  0
  184.3390  178.7640  144.9370 O   0  0  0  0  0  0  0  0  0  0  0  0
  185.1770  179.6690  144.2730 C   0  0  0  0  0  2  0  0  0  0  0  0
  185.9130  178.9750  143.1300 C   0  0  0  0  0  2  0  0  0  0  0  0
  185.1110  178.2830  146.0010 C   0  0  0  0  0  2  0  0  0  0  0  0
  186.0670  176.7120  144.2080 C   0  0  0  0  0  2  0  0  0  0  0  0
  186.8630  177.8920  143.6400 C   0  0  1  0  0  3  0  0  0  0  0  0
  1  3  1  0  0  0  0
  2 11  1  1  0  0  0
  2  8  1  0  0  0  0
  2  9  1  0  0  0  0
  6  1  1  0  0  0  0
  7  4  1  6  0  0  0
  8  6  1  6  0  0  0
  8 10  1  0  0  0  0
  9  5  2  0  0  0  0
  9  7  1  0  0  0  0
 10  3  1  6  0  0  0
 10  7  1  0  0  0  0
 12 14  2  0  0  0  0
 13 15  2  0  0  0  0
 13 11  1  0  0  0  0
 14 15  1  0  0  0  0
 16 18  1  6  0  0  0
 16 17  1  0  0  0  0
 16 14  1  0  0  0  0
 17 13  1  0  0  0  0
 18 19  2  0  0  0  0
 20 18  1  0  0  0  0
 21  6  1  0  0  0  0
 22 23  1  1  0  0  0
 22 25  1  0  0  0  0
 22 21  1  0  0  0  0
 24 23  1  0  0  0  0
 26 27  1  6  0  0  0
 26 25  1  0  0  0  0
 28 32  1  0  0  0  0
 29 32  1  0  0  0  0
 30 29  1  0  0  0  0
 31 34  1  0  0  0  0
 31 30  1  0  0  0  0
 33 28  1  0  0  0  0
 34 26  1  6  0  0  0
 34 33  1  0  0  0  0
M  END
>  <MODEL>
1

>  <REMARK>
 VINA RESULT:      -7.3      0.000      0.000
  Name = 
  9 active torsions:
  status: ('A' for Active; 'I' for Inactive)
    1  A    between atoms: C_1  and  N_14
    2  A    between atoms: C_1  and  C_33
    3  A    between atoms: C_6  and  C_11
    4  A    between atoms: C_7  and  C_26
    5  A    between atoms: C_9  and  C_31
    6  A    between atoms: C_11  and  C_16
    7  A    between atoms: N_14  and  C_26
    8  A    between atoms: S_19  and  N_20
    9  A    between atoms: S_19  and  C_26
                            x       y       z     vdW  Elec       q    Type
                         _______ _______ _______ _____ _____    ______ ____

>  <TORSDO>
F 9

$$$$
=
 OpenBabel11062422023D

 34 37  0  0  1  0  0  0  0  0999 V2000
  193.1060  176.8980  146.9150 C   0  0  0  0  0  2  0  0  0  0  0  0
  193.0770  174.0920  144.5260 C   0  0  1  0  0  3  0  0  0  0  0  0
  194.5880  176.6930  146.5850 C   0  0  0  0  0  2  0  0  0  0  0  0
  196.4460  175.7080  144.4270 O   0  0  0  0  0  1  0  0  0  0  0  0
  194.8070  173.8180  142.8260 O   0  0  0  0  0  0  0  0  0  0  0  0
  192.3000  175.9370  146.1450 N   0  0  0  0  0  0  0  0  0  0  0  0
  195.2380  175.1250  144.7870 C   0  0  2  0  0  3  0  0  0  0  0  0
  193.2160  174.8140  145.8820 C   0  0  2  0  0  3  0  0  0  0  0  0
  194.4430  174.2620  143.9460 C   0  0  0  0  0  0  0  0  0  0  0  0
  194.5620  175.4060  145.8820 C   0  0  2  0  0  3  0  0  0  0  0  0
  192.7900  172.6210  144.7690 C   0  0  0  0  0  2  0  0  0  0  0  0
  190.3560  170.2130  141.4910 O   0  0  0  0  0  0  0  0  0  0  0  0
  191.5980  172.2000  143.9810 C   0  0  0  0  0  0  0  0  0  0  0  0
  190.4560  171.0490  142.4280 C   0  0  0  0  0  0  0  0  0  0  0  0
  191.7080  171.3590  143.0110 N   0  0  0  0  0  0  0  0  0  0  0  0
  189.2800  171.7570  143.0040 C   0  0  1  0  0  3  0  0  0  0  0  0
  189.9400  172.7430  144.3980 S   0  0  0  0  0  0  0  0  0  0  0  0
  188.6430  172.6580  141.9890 C   0  0  0  0  0  0  0  0  0  0  0  0
  187.4270  172.7020  141.8640 O   0  0  0  0  0  0  0  0  0  0  0  0
  189.5060  173.5090  141.1220 C   0  0  0  0  0  1  0  0  0  0  0  0
  191.8180  176.7810  144.6530 S   0  0  0  0  0  0  0  0  0  0  0  0
  190.0450  176.6230  145.0330 C   0  0  1  0  0  3  0  0  0  0  0  0
  189.8530  176.3680  146.5230 C   0  0  0  0  0  2  0  0  0  0  0  0
  189.4990  177.5440  147.1890 O   0  0  0  0  0  1  0  0  0  0  0  0
  189.3390  177.8380  144.6300 N   0  0  0  0  0  2  0  0  0  0  0  0
  188.1050  177.5270  143.9020 C   0  0  1  0  0  3  0  0  0  0  0  0
  188.0610  176.0910  143.3830 C   0  0  0  0  0  1  0  0  0  0  0  0
  185.1680  177.1870  146.3750 C   0  0  0  0  0  2  0  0  0  0  0  0
  183.9950  178.7780  144.9760 O   0  0  0  0  0  0  0  0  0  0  0  0
  184.9420  179.6630  144.4450 C   0  0  0  0  0  2  0  0  0  0  0  0
  186.0260  178.8960  143.6920 C   0  0  0  0  0  2  0  0  0  0  0  0
  184.4350  178.5310  146.2810 C   0  0  0  0  0  2  0  0  0  0  0  0
  185.9730  176.8320  145.1230 C   0  0  0  0  0  2  0  0  0  0  0  0
  186.8360  177.9970  144.6260 C   0  0  1  0  0  3  0  0  0  0  0  0
  2 11  1  1  0  0  0
  2  8  1  0  0  0  0
  3  1  1  0  0  0  0
  5  9  2  0  0  0  0
  6  1  1  0  0  0  0
  7  4  1  6  0  0  0
  7 10  1  0  0  0  0
  8 10  1  0  0  0  0
  8  6  1  6  0  0  0
  9  2  1  0  0  0  0
  9  7  1  0  0  0  0
 10  3  1  6  0  0  0
 12 14  2  0  0  0  0
 13 17  1  0  0  0  0
 13 11  1  0  0  0  0
 14 16  1  0  0  0  0
 14 15  1  0  0  0  0
 15 13  2  0  0  0  0
 16 18  1  6  0  0  0
 16 17  1  0  0  0  0
 19 18  2  0  0  0  0
 20 18  1  0  0  0  0
 21 22  1  0  0  0  0
 21  6  1  0  0  0  0
 22 23  1  1  0  0  0
 23 24  1  0  0  0  0
 25 22  1  0  0  0  0
 26 27  1  1  0  0  0
 26 25  1  0  0  0  0
 29 32  1  0  0  0  0
 30 29  1  0  0  0  0
 31 30  1  0  0  0  0
 31 34  1  0  0  0  0
 32 28  1  0  0  0  0
 33 28  1  0  0  0  0
 34 26  1  6  0  0  0
 34 33  1  0  0  0  0
M  END
>  <MODEL>
2

>  <REMARK>
 VINA RESULT:      -7.2      2.267      4.774
  Name = 
  9 active torsions:
  status: ('A' for Active; 'I' for Inactive)
    1  A    between atoms: C_1  and  N_14
    2  A    between atoms: C_1  and  C_33
    3  A    between atoms: C_6  and  C_11
    4  A    between atoms: C_7  and  C_26
    5  A    between atoms: C_9  and  C_31
    6  A    between atoms: C_11  and  C_16
    7  A    between atoms: N_14  and  C_26
    8  A    between atoms: S_19  and  N_20
    9  A    between atoms: S_19  and  C_26
                            x       y       z     vdW  Elec       q    Type
                         _______ _______ _______ _____ _____    ______ ____

>  <TORSDO>
F 9

$$$$
=
 OpenBabel11062422023D

 34 37  0  0  1  0  0  0  0  0999 V2000
  193.0150  176.3880  146.4560 C   0  0  0  0  0  2  0  0  0  0  0  0
  193.4000  174.8560  143.1270 C   0  0  1  0  0  3  0  0  0  0  0  0
  194.4930  176.6150  146.1260 C   0  0  0  0  0  2  0  0  0  0  0  0
  196.4060  176.9660  143.8240 O   0  0  0  0  0  1  0  0  0  0  0  0
  195.0760  175.6290  141.5290 O   0  0  0  0  0  0  0  0  0  0  0  0
  192.3670  175.6960  145.3300 N   0  0  0  0  0  0  0  0  0  0  0  0
  195.3430  176.0730  143.8680 C   0  0  2  0  0  3  0  0  0  0  0  0
  193.4620  174.9710  144.6640 C   0  0  2  0  0  3  0  0  0  0  0  0
  194.6840  175.4990  142.7170 C   0  0  0  0  0  0  0  0  0  0  0  0
  194.6750  175.7490  144.9560 C   0  0  2  0  0  3  0  0  0  0  0  0
  193.3990  173.3890  142.7330 C   0  0  0  0  0  2  0  0  0  0  0  0
  191.0190  173.7090  138.6470 O   0  0  0  0  0  0  0  0  0  0  0  0
  192.3010  173.1250  141.7630 C   0  0  0  0  0  0  0  0  0  0  0  0
  191.1860  173.2810  139.8200 C   0  0  0  0  0  0  0  0  0  0  0  0
  192.2770  173.7070  140.6130 N   0  0  0  0  0  0  0  0  0  0  0  0
  190.2720  172.2910  140.4530 C   0  0  1  0  0  3  0  0  0  0  0  0
  191.0190  171.9110  142.0810 S   0  0  0  0  0  0  0  0  0  0  0  0
  188.8980  172.8660  140.6360 C   0  0  0  0  0  0  0  0  0  0  0  0
  188.0250  172.6790  139.8000 O   0  0  0  0  0  0  0  0  0  0  0  0
  188.5990  173.6730  141.8510 C   0  0  0  0  0  1  0  0  0  0  0  0
  191.6740  176.9720  144.3000 S   0  0  0  0  0  0  0  0  0  0  0  0
  189.9950  176.2790  144.4210 C   0  0  1  0  0  3  0  0  0  0  0  0
  190.0360  174.9390  145.1450 C   0  0  0  0  0  2  0  0  0  0  0  0
  189.1080  174.9070  146.1890 O   0  0  0  0  0  1  0  0  0  0  0  0
  189.1210  177.2120  145.1290 N   0  0  0  0  0  2  0  0  0  0  0  0
  188.1890  177.8770  144.2130 C   0  0  1  0  0  3  0  0  0  0  0  0
  188.1440  177.2300  142.8300 C   0  0  0  0  0  1  0  0  0  0  0  0
  185.1280  177.1020  146.4240 C   0  0  0  0  0  2  0  0  0  0  0  0
  183.8860  178.5940  144.9750 O   0  0  0  0  0  0  0  0  0  0  0  0
  184.7590  179.6040  144.5480 C   0  0  0  0  0  2  0  0  0  0  0  0
  185.9840  178.9980  143.8680 C   0  0  0  0  0  2  0  0  0  0  0  0
  184.2480  178.3530  146.3050 C   0  0  0  0  0  2  0  0  0  0  0  0
  186.0670  176.8910  145.2330 C   0  0  0  0  0  2  0  0  0  0  0  0
  186.8200  178.1670  144.8410 C   0  0  1  0  0  3  0  0  0  0  0  0
  2 11  1  1  0  0  0
  2  8  1  0  0  0  0
  3  1  1  0  0  0  0
  5  9  2  0  0  0  0
  6  1  1  0  0  0  0
  7  4  1  6  0  0  0
  7 10  1  0  0  0  0
  8 10  1  0  0  0  0
  8  6  1  6  0  0  0
  9  2  1  0  0  0  0
  9  7  1  0  0  0  0
 10  3  1  6  0  0  0
 12 14  2  0  0  0  0
 13 17  1  0  0  0  0
 13 11  1  0  0  0  0
 14 16  1  0  0  0  0
 14 15  1  0  0  0  0
 15 13  2  0  0  0  0
 16 18  1  1  0  0  0
 16 17  1  0  0  0  0
 18 20  1  0  0  0  0
 19 18  2  0  0  0  0
 21 22  1  0  0  0  0
 21  6  1  0  0  0  0
 22 25  1  0  0  0  0
 22 23  1  1  0  0  0
 23 24  1  0  0  0  0
 26 27  1  6  0  0  0
 26 25  1  0  0  0  0
 29 32  1  0  0  0  0
 30 29  1  0  0  0  0
 31 30  1  0  0  0  0
 31 34  1  0  0  0  0
 32 28  1  0  0  0  0
 33 28  1  0  0  0  0
 34 26  1  6  0  0  0
 34 33  1  0  0  0  0
M  END
>  <MODEL>
3

>  <REMARK>
 VINA RESULT:      -7.0      2.229      4.509
  Name = 
  9 active torsions:
  status: ('A' for Active; 'I' for Inactive)
    1  A    between atoms: C_1  and  N_14
    2  A    between atoms: C_1  and  C_33
    3  A    between atoms: C_6  and  C_11
    4  A    between atoms: C_7  and  C_26
    5  A    between atoms: C_9  and  C_31
    6  A    between atoms: C_11  and  C_16
    7  A    between atoms: N_14  and  C_26
    8  A    between atoms: S_19  and  N_20
    9  A    between atoms: S_19  and  C_26
                            x       y       z     vdW  Elec       q    Type
                         _______ _______ _______ _____ _____    ______ ____

>  <TORSDO>
F 9

$$$$
=
 OpenBabel11062422023D

 34 37  0  0  1  0  0  0  0  0999 V2000
  189.0090  175.2460  145.7840 C   0  0  0  0  0  2  0  0  0  0  0  0
  192.6710  175.5460  145.5090 C   0  0  1  0  0  3  0  0  0  0  0  0
  189.4410  175.6600  147.1940 C   0  0  0  0  0  2  0  0  0  0  0  0
  191.5790  177.1590  148.6990 O   0  0  0  0  0  1  0  0  0  0  0  0
  193.9590  177.0610  146.9240 O   0  0  0  0  0  0  0  0  0  0  0  0
  190.1950  175.1670  144.9160 N   0  0  0  0  0  0  0  0  0  0  0  0
  191.7870  176.3190  147.6130 C   0  0  2  0  0  3  0  0  0  0  0  0
  191.3100  174.9000  145.8400 C   0  0  2  0  0  3  0  0  0  0  0  0
  192.9350  176.3540  146.7370 C   0  0  0  0  0  0  0  0  0  0  0  0
  190.8960  175.4820  147.1250 C   0  0  2  0  0  3  0  0  0  0  0  0
  193.7200  174.4580  145.3610 C   0  0  0  0  0  2  0  0  0  0  0  0
  192.8410  173.0650  140.9170 O   0  0  0  0  0  0  0  0  0  0  0  0
  193.3310  173.5230  144.2700 C   0  0  0  0  0  0  0  0  0  0  0  0
  192.9230  172.8740  142.1600 C   0  0  0  0  0  0  0  0  0  0  0  0
  193.2530  173.9250  143.0480 N   0  0  0  0  0  0  0  0  0  0  0  0
  192.7010  171.5420  142.7850 C   0  0  1  0  0  3  0  0  0  0  0  0
  193.0600  171.7740  144.5650 S   0  0  0  0  0  0  0  0  0  0  0  0
  191.2830  171.0880  142.5990 C   0  0  0  0  0  0  0  0  0  0  0  0
  190.3860  171.5290  143.3030 O   0  0  0  0  0  0  0  0  0  0  0  0
  190.9690  170.0880  141.5410 C   0  0  0  0  0  1  0  0  0  0  0  0
  190.3350  176.7560  144.1260 S   0  0  0  0  0  0  0  0  0  0  0  0
  189.4850  176.1810  142.6220 C   0  0  1  0  0  3  0  0  0  0  0  0
  189.9280  174.7630  142.2850 C   0  0  0  0  0  2  0  0  0  0  0  0
  188.8800  174.0360  141.7140 O   0  0  0  0  0  1  0  0  0  0  0  0
  188.0380  176.2290  142.8190 N   0  0  0  0  0  2  0  0  0  0  0  0
  187.5210  177.5940  142.6860 C   0  0  1  0  0  3  0  0  0  0  0  0
  186.9890  177.9000  141.2870 C   0  0  0  0  0  1  0  0  0  0  0  0
  185.5510  177.0470  145.9540 C   0  0  0  0  0  2  0  0  0  0  0  0
  184.0930  178.8300  145.2020 O   0  0  0  0  0  0  0  0  0  0  0  0
  184.8700  179.7440  144.4780 C   0  0  0  0  0  2  0  0  0  0  0  0
  185.5890  179.0400  143.3300 C   0  0  0  0  0  2  0  0  0  0  0  0
  184.9220  178.4150  146.2510 C   0  0  0  0  0  2  0  0  0  0  0  0
  185.8700  176.8210  144.4740 C   0  0  0  0  0  2  0  0  0  0  0  0
  186.5980  178.0110  143.8380 C   0  0  1  0  0  3  0  0  0  0  0  0
  1  3  1  0  0  0  0
  2 11  1  1  0  0  0
  2  8  1  0  0  0  0
  2  9  1  0  0  0  0
  6  1  1  0  0  0  0
  7  4  1  6  0  0  0
  8  6  1  6  0  0  0
  8 10  1  0  0  0  0
  9  5  2  0  0  0  0
  9  7  1  0  0  0  0
 10  3  1  6  0  0  0
 10  7  1  0  0  0  0
 12 14  2  0  0  0  0
 13 17  1  0  0  0  0
 13 11  1  0  0  0  0
 14 16  1  0  0  0  0
 14 15  1  0  0  0  0
 15 13  2  0  0  0  0
 16 18  1  1  0  0  0
 16 17  1  0  0  0  0
 18 19  2  0  0  0  0
 20 18  1  0  0  0  0
 21  6  1  0  0  0  0
 22 23  1  1  0  0  0
 22 25  1  0  0  0  0
 22 21  1  0  0  0  0
 24 23  1  0  0  0  0
 26 27  1  6  0  0  0
 26 25  1  0  0  0  0
 28 32  1  0  0  0  0
 29 32  1  0  0  0  0
 30 29  1  0  0  0  0
 31 34  1  0  0  0  0
 31 30  1  0  0  0  0
 33 28  1  0  0  0  0
 34 26  1  6  0  0  0
 34 33  1  0  0  0  0
M  END
>  <MODEL>
4

>  <REMARK>
 VINA RESULT:      -6.8      2.033      2.852
  Name = 
  9 active torsions:
  status: ('A' for Active; 'I' for Inactive)
    1  A    between atoms: C_1  and  N_14
    2  A    between atoms: C_1  and  C_33
    3  A    between atoms: C_6  and  C_11
    4  A    between atoms: C_7  and  C_26
    5  A    between atoms: C_9  and  C_31
    6  A    between atoms: C_11  and  C_16
    7  A    between atoms: N_14  and  C_26
    8  A    between atoms: S_19  and  N_20
    9  A    between atoms: S_19  and  C_26
                            x       y       z     vdW  Elec       q    Type
                         _______ _______ _______ _____ _____    ______ ____

>  <TORSDO>
F 9

$$$$
=
 OpenBabel11062422023D

 34 37  0  0  1  0  0  0  0  0999 V2000
  189.9260  175.3640  146.4270 C   0  0  0  0  0  2  0  0  0  0  0  0
  192.9260  175.0200  144.3150 C   0  0  1  0  0  3  0  0  0  0  0  0
  191.0580  175.8640  147.3300 C   0  0  0  0  0  2  0  0  0  0  0  0
  193.7800  177.1550  147.2630 O   0  0  0  0  0  1  0  0  0  0  0  0
  194.8800  176.4570  144.5930 O   0  0  0  0  0  0  0  0  0  0  0  0
  190.4790  174.9890  145.1160 N   0  0  0  0  0  0  0  0  0  0  0  0
  193.3270  176.1700  146.3950 C   0  0  2  0  0  3  0  0  0  0  0  0
  191.8860  174.6520  145.3930 C   0  0  2  0  0  3  0  0  0  0  0  0
  193.8530  175.9120  145.0750 C   0  0  0  0  0  0  0  0  0  0  0  0
  192.2460  175.4400  146.5800 C   0  0  2  0  0  3  0  0  0  0  0  0
  193.6540  173.7640  143.8700 C   0  0  0  0  0  2  0  0  0  0  0  0
  191.0500  173.7890  139.9110 O   0  0  0  0  0  0  0  0  0  0  0  0
  192.9990  173.2010  142.6580 C   0  0  0  0  0  0  0  0  0  0  0  0
  191.7670  173.2280  140.7810 C   0  0  0  0  0  0  0  0  0  0  0  0
  192.2480  173.9330  141.9090 N   0  0  0  0  0  0  0  0  0  0  0  0
  192.1780  171.8000  140.6850 C   0  0  1  0  0  3  0  0  0  0  0  0
  193.2990  171.5210  142.1050 S   0  0  0  0  0  0  0  0  0  0  0  0
  190.9900  170.8900  140.7770 C   0  0  0  0  0  0  0  0  0  0  0  0
  190.1610  171.0300  141.6650 O   0  0  0  0  0  0  0  0  0  0  0  0
  190.8220  169.8020  139.7730 C   0  0  0  0  0  1  0  0  0  0  0  0
  190.3200  176.4290  144.0820 S   0  0  0  0  0  0  0  0  0  0  0  0
  188.9460  175.7030  143.1340 C   0  0  1  0  0  3  0  0  0  0  0  0
  189.0820  174.1860  143.1000 C   0  0  0  0  0  2  0  0  0  0  0  0
  188.2710  173.6350  142.1040 O   0  0  0  0  0  1  0  0  0  0  0  0
  187.6690  176.0860  143.7340 N   0  0  0  0  0  2  0  0  0  0  0  0
  187.5380  177.5420  143.8370 C   0  0  1  0  0  3  0  0  0  0  0  0
  187.2970  178.2190  142.4880 C   0  0  0  0  0  1  0  0  0  0  0  0
  186.2170  177.6080  147.4570 C   0  0  0  0  0  2  0  0  0  0  0  0
  184.0830  178.2590  146.5130 O   0  0  0  0  0  0  0  0  0  0  0  0
  184.3370  179.0390  145.3770 C   0  0  0  0  0  2  0  0  0  0  0  0
  185.2150  178.2740  144.3900 C   0  0  0  0  0  2  0  0  0  0  0  0
  185.0760  178.6330  147.4270 C   0  0  0  0  0  2  0  0  0  0  0  0
  186.5080  176.9630  146.0990 C   0  0  0  0  0  2  0  0  0  0  0  0
  186.6020  177.9910  144.9660 C   0  0  1  0  0  3  0  0  0  0  0  0
  1  3  1  0  0  0  0
  2 11  1  1  0  0  0
  2  9  1  0  0  0  0
  2  8  1  0  0  0  0
  5  9  2  0  0  0  0
  6  1  1  0  0  0  0
  7 10  1  0  0  0  0
  7  4  1  6  0  0  0
  8  6  1  6  0  0  0
  8 10  1  0  0  0  0
  9  7  1  0  0  0  0
 10  3  1  6  0  0  0
 12 14  2  0  0  0  0
 13 11  1  0  0  0  0
 14 15  1  0  0  0  0
 15 13  2  0  0  0  0
 16 18  1  1  0  0  0
 16 14  1  0  0  0  0
 16 17  1  0  0  0  0
 17 13  1  0  0  0  0
 18 19  2  0  0  0  0
 20 18  1  0  0  0  0
 21  6  1  0  0  0  0
 22 23  1  1  0  0  0
 22 25  1  0  0  0  0
 22 21  1  0  0  0  0
 24 23  1  0  0  0  0
 25 26  1  0  0  0  0
 26 27  1  6  0  0  0
 29 32  1  0  0  0  0
 30 29  1  0  0  0  0
 31 34  1  0  0  0  0
 31 30  1  0  0  0  0
 32 28  1  0  0  0  0
 33 28  1  0  0  0  0
 34 26  1  6  0  0  0
 34 33  1  0  0  0  0
M  END
>  <MODEL>
5

>  <REMARK>
 VINA RESULT:      -6.7      2.153      3.399
  Name = 
  9 active torsions:
  status: ('A' for Active; 'I' for Inactive)
    1  A    between atoms: C_1  and  N_14
    2  A    between atoms: C_1  and  C_33
    3  A    between atoms: C_6  and  C_11
    4  A    between atoms: C_7  and  C_26
    5  A    between atoms: C_9  and  C_31
    6  A    between atoms: C_11  and  C_16
    7  A    between atoms: N_14  and  C_26
    8  A    between atoms: S_19  and  N_20
    9  A    between atoms: S_19  and  C_26
                            x       y       z     vdW  Elec       q    Type
                         _______ _______ _______ _____ _____    ______ ____

>  <TORSDO>
F 9

$$$$
=
 OpenBabel11062422023D

 34 37  0  0  1  0  0  0  0  0999 V2000
  192.0850  176.3870  146.4390 C   0  0  0  0  0  2  0  0  0  0  0  0
  192.6820  174.3530  143.4250 C   0  0  1  0  0  3  0  0  0  0  0  0
  193.5740  176.0380  146.5320 C   0  0  0  0  0  2  0  0  0  0  0  0
  195.9840  175.3680  144.8530 O   0  0  0  0  0  1  0  0  0  0  0  0
  194.8640  174.2590  142.3350 O   0  0  0  0  0  0  0  0  0  0  0  0
  191.5260  175.8080  145.2070 N   0  0  0  0  0  0  0  0  0  0  0  0
  194.6900  174.9150  144.6330 C   0  0  2  0  0  3  0  0  0  0  0  0
  192.4000  174.6610  144.9100 C   0  0  2  0  0  3  0  0  0  0  0  0
  194.1720  174.4450  143.3690 C   0  0  0  0  0  0  0  0  0  0  0  0
  193.7020  175.0040  145.5000 C   0  0  2  0  0  3  0  0  0  0  0  0
  192.2320  172.9380  143.1110 C   0  0  0  0  0  2  0  0  0  0  0  0
  187.9480  172.6670  141.1010 O   0  0  0  0  0  0  0  0  0  0  0  0
  191.2320  172.9560  142.0070 C   0  0  0  0  0  0  0  0  0  0  0  0
  189.1960  172.8310  141.0680 C   0  0  0  0  0  0  0  0  0  0  0  0
  189.9880  172.7090  142.2350 N   0  0  0  0  0  0  0  0  0  0  0  0
  189.9290  173.1800  139.8210 C   0  0  1  0  0  3  0  0  0  0  0  0
  191.6700  173.4290  140.3330 S   0  0  0  0  0  0  0  0  0  0  0  0
  189.8400  172.0720  138.8150 C   0  0  0  0  0  0  0  0  0  0  0  0
  190.1880  170.9350  139.1010 O   0  0  0  0  0  0  0  0  0  0  0  0
  189.3190  172.3630  137.4500 C   0  0  0  0  0  1  0  0  0  0  0  0
  191.6370  177.0820  143.9690 S   0  0  0  0  0  0  0  0  0  0  0  0
  189.8270  177.2100  143.8140 C   0  0  1  0  0  3  0  0  0  0  0  0
  189.2400  175.8550  143.4420 C   0  0  0  0  0  2  0  0  0  0  0  0
  188.5790  175.9190  142.2120 O   0  0  0  0  0  1  0  0  0  0  0  0
  189.2530  177.6850  145.0710 N   0  0  0  0  0  2  0  0  0  0  0  0
  188.0710  176.9050  145.4520 C   0  0  1  0  0  3  0  0  0  0  0  0
  188.2900  176.0600  146.7060 C   0  0  0  0  0  1  0  0  0  0  0  0
  184.4650  177.7490  146.5220 C   0  0  0  0  0  2  0  0  0  0  0  0
  184.2380  178.8430  144.3720 O   0  0  0  0  0  0  0  0  0  0  0  0
  185.4840  179.3860  144.0330 C   0  0  0  0  0  2  0  0  0  0  0  0
  186.5590  178.3010  144.0380 C   0  0  0  0  0  2  0  0  0  0  0  0
  184.1330  179.0360  145.7550 C   0  0  0  0  0  2  0  0  0  0  0  0
  185.5510  176.8960  145.8610 C   0  0  0  0  0  2  0  0  0  0  0  0
  186.7720  177.7200  145.4350 C   0  0  1  0  0  3  0  0  0  0  0  0
  1  3  1  0  0  0  0
  2 11  1  1  0  0  0
  2  8  1  0  0  0  0
  5  9  2  0  0  0  0
  6  1  1  0  0  0  0
  7  4  1  6  0  0  0
  7 10  1  0  0  0  0
  8  6  1  6  0  0  0
  8 10  1  0  0  0  0
  9  2  1  0  0  0  0
  9  7  1  0  0  0  0
 10  3  1  6  0  0  0
 13 15  2  0  0  0  0
 13 11  1  0  0  0  0
 14 12  2  0  0  0  0
 14 15  1  0  0  0  0
 16 18  1  6  0  0  0
 16 17  1  0  0  0  0
 16 14  1  0  0  0  0
 17 13  1  0  0  0  0
 18 19  2  0  0  0  0
 20 18  1  0  0  0  0
 21  6  1  0  0  0  0
 22 23  1  1  0  0  0
 22 21  1  0  0  0  0
 22 25  1  0  0  0  0
 24 23  1  0  0  0  0
 25 26  1  0  0  0  0
 26 27  1  1  0  0  0
 29 32  1  0  0  0  0
 30 31  1  0  0  0  0
 30 29  1  0  0  0  0
 31 34  1  0  0  0  0
 32 28  1  0  0  0  0
 33 28  1  0  0  0  0
 34 26  1  6  0  0  0
 34 33  1  0  0  0  0
M  END
>  <MODEL>
6

>  <REMARK>
 VINA RESULT:      -6.7      2.399      4.656
  Name = 
  9 active torsions:
  status: ('A' for Active; 'I' for Inactive)
    1  A    between atoms: C_1  and  N_14
    2  A    between atoms: C_1  and  C_33
    3  A    between atoms: C_6  and  C_11
    4  A    between atoms: C_7  and  C_26
    5  A    between atoms: C_9  and  C_31
    6  A    between atoms: C_11  and  C_16
    7  A    between atoms: N_14  and  C_26
    8  A    between atoms: S_19  and  N_20
    9  A    between atoms: S_19  and  C_26
                            x       y       z     vdW  Elec       q    Type
                         _______ _______ _______ _____ _____    ______ ____

>  <TORSDO>
F 9

$$$$
=
 OpenBabel11062422023D

 34 37  0  0  1  0  0  0  0  0999 V2000
  192.0590  171.9730  141.9330 C   0  0  0  0  0  2  0  0  0  0  0  0
  189.1270  174.0950  141.2410 C   0  0  1  0  0  3  0  0  0  0  0  0
  191.4260  171.3180  140.7010 C   0  0  0  0  0  2  0  0  0  0  0  0
  189.7490  171.9140  138.2700 O   0  0  0  0  0  1  0  0  0  0  0  0
  188.2130  174.3510  138.9920 O   0  0  0  0  0  0  0  0  0  0  0  0
  191.2770  173.1620  142.3070 N   0  0  0  0  0  0  0  0  0  0  0  0
  189.5570  172.4450  139.5390 C   0  0  2  0  0  3  0  0  0  0  0  0
  189.9260  172.8930  141.7850 C   0  0  2  0  0  3  0  0  0  0  0  0
  188.8570  173.6730  139.8340 C   0  0  0  0  0  0  0  0  0  0  0  0
  190.1270  171.9960  140.6380 C   0  0  2  0  0  3  0  0  0  0  0  0
  187.8240  174.2210  142.0100 C   0  0  0  0  0  2  0  0  0  0  0  0
  187.8360  177.9160  144.9790 O   0  0  0  0  0  0  0  0  0  0  0  0
  187.6250  175.6320  142.4430 C   0  0  0  0  0  0  0  0  0  0  0  0
  187.6410  177.3750  143.8580 C   0  0  0  0  0  0  0  0  0  0  0  0
  187.8310  175.9860  143.6650 N   0  0  0  0  0  0  0  0  0  0  0  0
  187.2180  178.1450  142.6560 C   0  0  1  0  0  3  0  0  0  0  0  0
  187.2030  176.9340  141.2830 S   0  0  0  0  0  0  0  0  0  0  0  0
  185.8500  178.7310  142.8450 C   0  0  0  0  0  0  0  0  0  0  0  0
  185.6820  179.7160  143.5500 O   0  0  0  0  0  0  0  0  0  0  0  0
  184.6850  178.1010  142.1650 C   0  0  0  0  0  1  0  0  0  0  0  0
  192.0550  174.5410  141.4950 S   0  0  0  0  0  0  0  0  0  0  0  0
  193.4630  174.5380  142.6480 C   0  0  1  0  0  3  0  0  0  0  0  0
  194.7340  174.9560  141.9180 C   0  0  0  0  0  2  0  0  0  0  0  0
  194.6830  176.3060  141.5620 O   0  0  0  0  0  1  0  0  0  0  0  0
  193.1960  175.4440  143.7630 N   0  0  0  0  0  2  0  0  0  0  0  0
  193.3240  174.7610  145.0540 C   0  0  1  0  0  3  0  0  0  0  0  0
  194.6680  175.0110  145.7350 C   0  0  0  0  0  1  0  0  0  0  0  0
  189.6730  174.1560  146.1350 C   0  0  0  0  0  2  0  0  0  0  0  0
  189.8050  176.2960  147.2630 O   0  0  0  0  0  0  0  0  0  0  0  0
  191.1190  176.4580  147.7220 C   0  0  0  0  0  2  0  0  0  0  0  0
  192.1080  176.3340  146.5660 C   0  0  0  0  0  2  0  0  0  0  0  0
  189.5320  174.9350  147.4480 C   0  0  0  0  0  2  0  0  0  0  0  0
  190.7770  174.6860  145.2150 C   0  0  0  0  0  2  0  0  0  0  0  0
  192.0960  174.9320  145.9570 C   0  0  1  0  0  3  0  0  0  0  0  0
  1  6  1  0  0  0  0
  2  8  1  0  0  0  0
  2 11  1  1  0  0  0
  3  1  1  0  0  0  0
  5  9  2  0  0  0  0
  7  4  1  6  0  0  0
  7  9  1  0  0  0  0
  7 10  1  0  0  0  0
  8  6  1  6  0  0  0
  9  2  1  0  0  0  0
 10  3  1  6  0  0  0
 10  8  1  0  0  0  0
 11 13  1  0  0  0  0
 13 15  2  0  0  0  0
 14 12  2  0  0  0  0
 15 14  1  0  0  0  0
 16 18  1  1  0  0  0
 16 14  1  0  0  0  0
 17 13  1  0  0  0  0
 17 16  1  0  0  0  0
 18 19  2  0  0  0  0
 20 18  1  0  0  0  0
 21  6  1  0  0  0  0
 21 22  1  0  0  0  0
 22 23  1  6  0  0  0
 22 25  1  0  0  0  0
 24 23  1  0  0  0  0
 25 26  1  0  0  0  0
 26 27  1  1  0  0  0
 28 32  1  0  0  0  0
 29 32  1  0  0  0  0
 29 30  1  0  0  0  0
 31 30  1  0  0  0  0
 33 34  1  0  0  0  0
 33 28  1  0  0  0  0
 34 26  1  6  0  0  0
 34 31  1  0  0  0  0
M  END
>  <MODEL>
7

>  <REMARK>
 VINA RESULT:      -6.6      2.386      7.686
  Name = 
  9 active torsions:
  status: ('A' for Active; 'I' for Inactive)
    1  A    between atoms: C_1  and  N_14
    2  A    between atoms: C_1  and  C_33
    3  A    between atoms: C_6  and  C_11
    4  A    between atoms: C_7  and  C_26
    5  A    between atoms: C_9  and  C_31
    6  A    between atoms: C_11  and  C_16
    7  A    between atoms: N_14  and  C_26
    8  A    between atoms: S_19  and  N_20
    9  A    between atoms: S_19  and  C_26
                            x       y       z     vdW  Elec       q    Type
                         _______ _______ _______ _____ _____    ______ ____

>  <TORSDO>
F 9

$$$$
=
 OpenBabel11062422023D

 34 37  0  0  1  0  0  0  0  0999 V2000
  192.8060  174.3350  144.8770 C   0  0  0  0  0  2  0  0  0  0  0  0
  189.9050  176.6060  144.9390 C   0  0  1  0  0  3  0  0  0  0  0  0
  192.9440  175.0560  146.2220 C   0  0  0  0  0  2  0  0  0  0  0  0
  191.3470  176.4190  148.3830 O   0  0  0  0  0  1  0  0  0  0  0  0
  188.8640  177.3250  147.0280 O   0  0  0  0  0  0  0  0  0  0  0  0
  191.5920  174.8100  144.1940 N   0  0  0  0  0  0  0  0  0  0  0  0
  191.1240  176.5280  147.0170 C   0  0  2  0  0  3  0  0  0  0  0  0
  191.3670  176.1600  144.7380 C   0  0  2  0  0  3  0  0  0  0  0  0
  189.8740  176.9100  146.4020 C   0  0  0  0  0  0  0  0  0  0  0  0
  191.9660  176.1400  146.0810 C   0  0  2  0  0  3  0  0  0  0  0  0
  189.6500  177.8690  144.1360 C   0  0  0  0  0  2  0  0  0  0  0  0
  186.9570  177.7630  140.2370 O   0  0  0  0  0  0  0  0  0  0  0  0
  188.4040  177.7180  143.3350 C   0  0  0  0  0  0  0  0  0  0  0  0
  187.1400  177.6650  141.4800 C   0  0  0  0  0  0  0  0  0  0  0  0
  188.4070  177.9130  142.0610 N   0  0  0  0  0  0  0  0  0  0  0  0
  186.0600  177.2690  142.4240 C   0  0  1  0  0  3  0  0  0  0  0  0
  186.8650  177.1520  144.0640 S   0  0  0  0  0  0  0  0  0  0  0  0
  184.9680  178.2970  142.4560 C   0  0  0  0  0  0  0  0  0  0  0  0
  185.0610  179.2880  143.1670 O   0  0  0  0  0  0  0  0  0  0  0  0
  183.7570  178.1050  141.6100 C   0  0  0  0  0  1  0  0  0  0  0  0
  190.2960  173.6750  144.6430 S   0  0  0  0  0  0  0  0  0  0  0  0
  189.8340  173.3800  142.9070 C   0  0  1  0  0  3  0  0  0  0  0  0
  188.6060  174.2070  142.5480 C   0  0  0  0  0  2  0  0  0  0  0  0
  187.5940  173.3970  142.0270 O   0  0  0  0  0  1  0  0  0  0  0  0
  190.9510  173.7210  142.0290 N   0  0  0  0  0  2  0  0  0  0  0  0
  191.0910  172.7550  140.9350 C   0  0  1  0  0  3  0  0  0  0  0  0
  190.6400  171.3460  141.3180 C   0  0  0  0  0  1  0  0  0  0  0  0
  188.3810  173.3300  138.2550 C   0  0  0  0  0  2  0  0  0  0  0  0
  190.1960  173.4530  136.6550 O   0  0  0  0  0  0  0  0  0  0  0  0
  191.3000  174.0240  137.3010 C   0  0  0  0  0  2  0  0  0  0  0  0
  191.6610  173.2220  138.5490 C   0  0  0  0  0  2  0  0  0  0  0  0
  189.0910  174.1450  137.1660 C   0  0  0  0  0  2  0  0  0  0  0  0
  189.3260  172.4830  139.1100 C   0  0  0  0  0  2  0  0  0  0  0  0
  190.5480  173.2700  139.5960 C   0  0  1  0  0  3  0  0  0  0  0  0
  1  3  1  0  0  0  0
  2 11  1  6  0  0  0
  2  9  1  0  0  0  0
  6 21  1  0  0  0  0
  6  1  1  0  0  0  0
  7  4  1  1  0  0  0
  8  6  1  1  0  0  0
  8  2  1  0  0  0  0
  8 10  1  0  0  0  0
  9  7  1  0  0  0  0
  9  5  2  0  0  0  0
 10  3  1  1  0  0  0
 10  7  1  0  0  0  0
 12 14  2  0  0  0  0
 13 17  1  0  0  0  0
 13 11  1  0  0  0  0
 14 15  1  0  0  0  0
 14 16  1  0  0  0  0
 15 13  2  0  0  0  0
 16 18  1  1  0  0  0
 16 17  1  0  0  0  0
 18 19  2  0  0  0  0
 20 18  1  0  0  0  0
 22 23  1  6  0  0  0
 22 21  1  0  0  0  0
 24 23  1  0  0  0  0
 25 22  1  0  0  0  0
 26 27  1  1  0  0  0
 26 25  1  0  0  0  0
 28 33  1  0  0  0  0
 29 32  1  0  0  0  0
 29 30  1  0  0  0  0
 30 31  1  0  0  0  0
 31 34  1  0  0  0  0
 32 28  1  0  0  0  0
 33 34  1  0  0  0  0
 34 26  1  1  0  0  0
M  END
>  <MODEL>
8

>  <REMARK>
 VINA RESULT:      -6.6      3.171      7.212
  Name = 
  9 active torsions:
  status: ('A' for Active; 'I' for Inactive)
    1  A    between atoms: C_1  and  N_14
    2  A    between atoms: C_1  and  C_33
    3  A    between atoms: C_6  and  C_11
    4  A    between atoms: C_7  and  C_26
    5  A    between atoms: C_9  and  C_31
    6  A    between atoms: C_11  and  C_16
    7  A    between atoms: N_14  and  C_26
    8  A    between atoms: S_19  and  N_20
    9  A    between atoms: S_19  and  C_26
                            x       y       z     vdW  Elec       q    Type
                         _______ _______ _______ _____ _____    ______ ____

>  <TORSDO>
F 9

$$$$
=
 OpenBabel11062422023D

 34 37  0  0  1  0  0  0  0  0999 V2000
  188.3850  173.3140  139.3360 C   0  0  0  0  0  2  0  0  0  0  0  0
  191.2290  173.7250  141.6430 C   0  0  1  0  0  3  0  0  0  0  0  0
  189.0620  171.9410  139.3180 C   0  0  0  0  0  2  0  0  0  0  0  0
  190.7430  170.0780  140.9860 O   0  0  0  0  0  1  0  0  0  0  0  0
  192.1600  171.8520  142.9010 O   0  0  0  0  0  0  0  0  0  0  0  0
  189.1090  174.2000  140.2610 N   0  0  0  0  0  0  0  0  0  0  0  0
  190.8940  171.4560  140.9050 C   0  0  2  0  0  3  0  0  0  0  0  0
  190.4770  173.6560  140.2980 C   0  0  2  0  0  3  0  0  0  0  0  0
  191.5360  172.2860  141.8990 C   0  0  0  0  0  0  0  0  0  0  0  0
  190.3310  172.2240  139.9970 C   0  0  2  0  0  3  0  0  0  0  0  0
  192.5150  174.5110  141.4590 C   0  0  0  0  0  2  0  0  0  0  0  0
  195.2150  176.7300  144.6610 O   0  0  0  0  0  0  0  0  0  0  0  0
  192.8200  175.2810  142.6970 C   0  0  0  0  0  0  0  0  0  0  0  0
  194.1100  176.3330  144.2030 C   0  0  0  0  0  0  0  0  0  0  0  0
  194.0360  175.5480  143.0280 N   0  0  0  0  0  0  0  0  0  0  0  0
  192.8080  176.6680  144.8430 C   0  0  1  0  0  3  0  0  0  0  0  0
  191.5290  175.9720  143.7330 S   0  0  0  0  0  0  0  0  0  0  0  0
  192.7020  176.0500  146.2050 C   0  0  0  0  0  0  0  0  0  0  0  0
  192.5620  176.7470  147.2000 O   0  0  0  0  0  0  0  0  0  0  0  0
  192.7690  174.5690  146.3440 C   0  0  0  0  0  1  0  0  0  0  0  0
  188.2810  174.0590  141.8310 S   0  0  0  0  0  0  0  0  0  0  0  0
  187.9230  175.8420  141.9020 C   0  0  1  0  0  3  0  0  0  0  0  0
  187.4350  176.3290  140.5430 C   0  0  0  0  0  2  0  0  0  0  0  0
  187.1110  177.6870  140.5870 O   0  0  0  0  0  1  0  0  0  0  0  0
  186.9170  176.1070  142.9290 N   0  0  0  0  0  2  0  0  0  0  0  0
  187.4890  176.8310  144.0680 C   0  0  1  0  0  3  0  0  0  0  0  0
  188.4660  177.9300  143.6510 C   0  0  0  0  0  1  0  0  0  0  0  0
  184.5230  178.9010  145.4010 C   0  0  0  0  0  2  0  0  0  0  0  0
  185.3700  178.4180  147.6180 O   0  0  0  0  0  0  0  0  0  0  0  0
  185.9490  177.1420  147.5880 C   0  0  0  0  0  2  0  0  0  0  0  0
  187.0290  177.0710  146.5110 C   0  0  0  0  0  2  0  0  0  0  0  0
  184.2460  178.3150  146.7910 C   0  0  0  0  0  2  0  0  0  0  0  0
  185.9600  178.6910  144.9160 C   0  0  0  0  0  2  0  0  0  0  0  0
  186.4440  177.2500  145.1100 C   0  0  1  0  0  3  0  0  0  0  0  0
  1  6  1  0  0  0  0
  2 11  1  6  0  0  0
  2  9  1  0  0  0  0
  3  1  1  0  0  0  0
  6 21  1  0  0  0  0
  7  4  1  1  0  0  0
  7  9  1  0  0  0  0
  8  6  1  1  0  0  0
  8  2  1  0  0  0  0
  9  5  2  0  0  0  0
 10  3  1  1  0  0  0
 10  8  1  0  0  0  0
 10  7  1  0  0  0  0
 11 13  1  0  0  0  0
 13 15  2  0  0  0  0
 13 17  1  0  0  0  0
 14 12  2  0  0  0  0
 14 16  1  0  0  0  0
 15 14  1  0  0  0  0
 16 18  1  1  0  0  0
 17 16  1  0  0  0  0
 18 20  1  0  0  0  0
 18 19  2  0  0  0  0
 21 22  1  0  0  0  0
 22 23  1  6  0  0  0
 22 25  1  0  0  0  0
 23 24  1  0  0  0  0
 25 26  1  0  0  0  0
 26 27  1  6  0  0  0
 28 32  1  0  0  0  0
 30 29  1  0  0  0  0
 31 30  1  0  0  0  0
 32 29  1  0  0  0  0
 33 34  1  0  0  0  0
 33 28  1  0  0  0  0
 34 26  1  6  0  0  0
 34 31  1  0  0  0  0
M  END
>  <MODEL>
9

>  <REMARK>
 VINA RESULT:      -6.6      2.521      5.085
  Name = 
  9 active torsions:
  status: ('A' for Active; 'I' for Inactive)
    1  A    between atoms: C_1  and  N_14
    2  A    between atoms: C_1  and  C_33
    3  A    between atoms: C_6  and  C_11
    4  A    between atoms: C_7  and  C_26
    5  A    between atoms: C_9  and  C_31
    6  A    between atoms: C_11  and  C_16
    7  A    between atoms: N_14  and  C_26
    8  A    between atoms: S_19  and  N_20
    9  A    between atoms: S_19  and  C_26
                            x       y       z     vdW  Elec       q    Type
                         _______ _______ _______ _____ _____    ______ ____

>  <TORSDO>
F 9

$$$$
