=
 OpenBabel11062419533D

 30 32  0  0  1  0  0  0  0  0999 V2000
  190.4080  176.4200  144.1640 O   0  0  0  0  0  0  0  0  0  0  0  0
  188.3660  177.0390  145.9150 C   0  0  2  0  0  3  0  0  0  0  0  0
  188.0310  176.8580  144.4150 C   0  0  2  0  0  3  0  0  0  0  0  0
  189.0470  174.9840  147.0820 O   0  0  0  0  0  1  0  0  0  0  0  0
  189.1320  176.5670  142.2800 O   0  0  0  0  0  1  0  0  0  0  0  0
  192.5320  175.6450  146.9270 C   0  0  0  0  0  1  0  0  0  0  0  0
  190.5750  175.7610  145.4010 C   0  0  1  0  0  3  0  0  0  0  0  0
  189.1360  176.1250  143.6080 C   0  0  1  0  0  0  0  0  0  0  0  0
  190.4480  176.8670  147.2550 N   0  0  0  0  0  2  0  0  0  0  0  0
  191.5030  176.5610  146.2910 C   0  0  1  0  0  3  0  0  0  0  0  0
  189.5080  176.1270  146.4220 C   0  0  1  0  0  0  0  0  0  0  0  0
  186.9270  178.3430  147.5480 C   0  0  0  0  0  0  0  0  0  0  0  0
  185.7820  179.2260  147.1600 C   0  0  0  0  0  2  0  0  0  0  0  0
  187.1250  177.0140  146.8480 C   0  0  1  0  0  3  0  0  0  0  0  0
  187.6700  178.6840  148.4530 O   0  0  0  0  0  0  0  0  0  0  0  0
  185.8550  176.5520  146.1550 C   0  0  0  0  0  3  0  0  0  0  0  0
  184.5090  178.3880  147.1550 C   0  0  0  0  0  2  0  0  0  0  0  0
  184.6740  177.1800  146.2750 C   0  0  0  0  0  3  0  0  0  0  0  0
  188.8140  174.6190  143.5860 C   0  0  0  0  0  2  0  0  0  0  0  0
  188.3250  174.1620  142.2210 C   0  0  0  0  0  1  0  0  0  0  0  0
  187.7120  178.2380  143.8410 C   0  0  0  0  0  2  0  0  0  0  0  0
  186.8170  178.1030  142.6220 C   0  0  0  0  0  2  0  0  0  0  0  0
  185.4030  178.5890  142.9410 C   0  0  1  0  0  3  0  0  0  0  0  0
  185.3920  179.8620  143.7850 C   0  0  0  0  0  1  0  0  0  0  0  0
  184.5770  178.6790  141.7990 O   0  0  0  0  0  0  0  0  0  0  0  0
  183.3820  177.9780  142.0360 C   0  0  0  0  0  2  0  0  0  0  0  0
  181.2080  179.1260  141.5010 C   0  0  0  0  0  0  0  0  0  0  0  0
  180.2000  179.5370  140.4870 C   0  0  0  0  0  1  0  0  0  0  0  0
  181.0260  179.4150  142.7130 O   0  0  0  0  0  0  0  0  0  0  0  0
  182.3710  178.4100  141.0880 N   0  0  0  0  0  2  0  0  0  0  0  0
  2 11  1  0  0  0  0
  2 14  1  1  0  0  0
  3 21  1  6  0  0  0
  3  2  1  0  0  0  0
  7  1  1  6  0  0  0
  7 10  1  0  0  0  0
  7 11  1  0  0  0  0
  8  5  1  6  0  0  0
  8  1  1  0  0  0  0
  8  3  1  0  0  0  0
 10  6  1  1  0  0  0
 10  9  1  0  0  0  0
 11  4  1  1  0  0  0
 11  9  1  0  0  0  0
 12 15  2  0  0  0  0
 13 12  1  0  0  0  0
 14 16  1  6  0  0  0
 14 12  1  0  0  0  0
 16 18  2  0  0  0  0
 17 13  1  0  0  0  0
 18 17  1  0  0  0  0
 19  8  1  0  0  0  0
 20 19  1  0  0  0  0
 22 23  1  0  0  0  0
 22 21  1  0  0  0  0
 23 24  1  6  0  0  0
 25 26  1  0  0  0  0
 25 23  1  0  0  0  0
 27 29  2  0  0  0  0
 28 27  1  0  0  0  0
 30 27  1  0  0  0  0
 30 26  1  0  0  0  0
M  END
>  <MODEL>
1

>  <REMARK>
 VINA RESULT:      -7.3      0.000      0.000
  Name = 
  8 active torsions:
  status: ('A' for Active; 'I' for Inactive)
    1  A    between atoms: C_1  and  C_20
    2  A    between atoms: C_3  and  C_21
    3  A    between atoms: C_3  and  O_24
    4  A    between atoms: C_5  and  O_24
    5  A    between atoms: C_5  and  N_30
    6  A    between atoms: C_7  and  C_8
    7  A    between atoms: C_10  and  C_22
    8  A    between atoms: C_21  and  C_22
                            x       y       z     vdW  Elec       q    Type
                         _______ _______ _______ _____ _____    ______ ____

>  <TORSDO>
F 8

$$$$
=
 OpenBabel11062419533D

 30 32  0  0  1  0  0  0  0  0999 V2000
  190.9500  173.5960  141.5920 O   0  0  0  0  0  0  0  0  0  0  0  0
  190.3610  175.3930  143.6030 C   0  0  2  0  0  3  0  0  0  0  0  0
  189.3680  174.2400  143.3210 C   0  0  2  0  0  3  0  0  0  0  0  0
  192.5200  174.6960  144.5510 O   0  0  0  0  0  1  0  0  0  0  0  0
  188.9710  172.4710  141.7180 O   0  0  0  0  0  1  0  0  0  0  0  0
  194.2980  174.8320  141.4800 C   0  0  0  0  0  1  0  0  0  0  0  0
  192.1120  173.9780  142.2960 C   0  0  1  0  0  3  0  0  0  0  0  0
  189.9720  173.0820  142.4820 C   0  0  1  0  0  0  0  0  0  0  0  0
  192.5460  176.0690  142.6390 N   0  0  0  0  0  2  0  0  0  0  0  0
  192.8080  175.1090  141.5690 C   0  0  1  0  0  3  0  0  0  0  0  0
  191.8440  175.0220  143.3710 C   0  0  1  0  0  0  0  0  0  0  0  0
  189.5720  177.5020  144.7720 C   0  0  0  0  0  0  0  0  0  0  0  0
  188.1510  177.7920  145.1430 C   0  0  0  0  0  2  0  0  0  0  0  0
  190.1310  176.1080  144.9620 C   0  0  1  0  0  3  0  0  0  0  0  0
  190.2810  178.4030  144.3550 O   0  0  0  0  0  0  0  0  0  0  0  0
  189.2950  175.2980  145.9390 C   0  0  0  0  0  3  0  0  0  0  0  0
  187.9040  177.2660  146.5520 C   0  0  0  0  0  2  0  0  0  0  0  0
  188.2750  175.8120  146.6450 C   0  0  0  0  0  3  0  0  0  0  0  0
  190.5250  172.0130  143.4440 C   0  0  0  0  0  2  0  0  0  0  0  0
  189.7520  171.9720  144.7530 C   0  0  0  0  0  1  0  0  0  0  0  0
  188.1270  174.8450  142.6650 C   0  0  0  0  0  2  0  0  0  0  0  0
  188.5260  175.9810  141.7410 C   0  0  0  0  0  2  0  0  0  0  0  0
  187.3820  176.9850  141.6030 C   0  0  1  0  0  3  0  0  0  0  0  0
  187.0570  177.3160  140.1480 C   0  0  0  0  0  1  0  0  0  0  0  0
  186.2390  176.6280  142.3540 O   0  0  0  0  0  0  0  0  0  0  0  0
  185.3080  177.6810  142.3060 C   0  0  0  0  0  2  0  0  0  0  0  0
  184.7780  178.8730  144.4580 C   0  0  0  0  0  0  0  0  0  0  0  0
  184.0410  178.9030  145.7490 C   0  0  0  0  0  1  0  0  0  0  0  0
  185.5450  179.8250  144.1560 O   0  0  0  0  0  0  0  0  0  0  0  0
  184.6070  177.7650  143.5750 N   0  0  0  0  0  2  0  0  0  0  0  0
  1  8  1  0  0  0  0
  2 14  1  1  0  0  0
  3 21  1  6  0  0  0
  3  2  1  0  0  0  0
  7  1  1  6  0  0  0
  7 11  1  0  0  0  0
  8  5  1  6  0  0  0
  8  3  1  0  0  0  0
  8 19  1  0  0  0  0
  9 11  1  0  0  0  0
 10  6  1  1  0  0  0
 10  7  1  0  0  0  0
 10  9  1  0  0  0  0
 11  2  1  0  0  0  0
 11  4  1  1  0  0  0
 12 14  1  0  0  0  0
 12 13  1  0  0  0  0
 13 17  1  0  0  0  0
 14 16  1  1  0  0  0
 15 12  2  0  0  0  0
 16 18  2  0  0  0  0
 17 18  1  0  0  0  0
 19 20  1  0  0  0  0
 22 21  1  0  0  0  0
 23 24  1  6  0  0  0
 23 22  1  0  0  0  0
 23 25  1  0  0  0  0
 26 25  1  0  0  0  0
 26 30  1  0  0  0  0
 27 28  1  0  0  0  0
 29 27  2  0  0  0  0
 30 27  1  0  0  0  0
M  END
>  <MODEL>
2

>  <REMARK>
 VINA RESULT:      -7.1      2.750      4.047
  Name = 
  8 active torsions:
  status: ('A' for Active; 'I' for Inactive)
    1  A    between atoms: C_1  and  C_20
    2  A    between atoms: C_3  and  C_21
    3  A    between atoms: C_3  and  O_24
    4  A    between atoms: C_5  and  O_24
    5  A    between atoms: C_5  and  N_30
    6  A    between atoms: C_7  and  C_8
    7  A    between atoms: C_10  and  C_22
    8  A    between atoms: C_21  and  C_22
                            x       y       z     vdW  Elec       q    Type
                         _______ _______ _______ _____ _____    ______ ____

>  <TORSDO>
F 8

$$$$
=
 OpenBabel11062419533D

 30 32  0  0  1  0  0  0  0  0999 V2000
  191.5570  174.2380  145.9550 O   0  0  0  0  0  0  0  0  0  0  0  0
  189.8920  175.0090  143.8930 C   0  0  2  0  0  3  0  0  0  0  0  0
  190.0450  175.9460  145.1150 C   0  0  2  0  0  3  0  0  0  0  0  0
  191.9010  174.7960  142.4910 O   0  0  0  0  0  1  0  0  0  0  0  0
  191.0230  175.9780  147.3280 O   0  0  0  0  0  1  0  0  0  0  0  0
  192.9480  171.6960  143.8690 C   0  0  0  0  0  1  0  0  0  0  0  0
  192.0910  173.8750  144.7000 C   0  0  1  0  0  3  0  0  0  0  0  0
  191.2820  175.6300  145.9980 C   0  0  1  0  0  0  0  0  0  0  0  0
  190.8740  172.8210  143.2560 N   0  0  0  0  0  2  0  0  0  0  0  0
  191.7270  172.4400  144.3800 C   0  0  1  0  0  3  0  0  0  0  0  0
  191.1730  174.2200  143.5370 C   0  0  1  0  0  0  0  0  0  0  0  0
  187.8120  175.2390  142.4570 C   0  0  0  0  0  0  0  0  0  0  0  0
  186.6900  176.1930  142.7260 C   0  0  0  0  0  2  0  0  0  0  0  0
  189.2460  175.6870  142.6540 C   0  0  1  0  0  3  0  0  0  0  0  0
  187.5640  174.1190  142.0430 O   0  0  0  0  0  0  0  0  0  0  0  0
  189.3630  177.2020  142.6620 C   0  0  0  0  0  3  0  0  0  0  0  0
  186.9850  177.5000  142.0000 C   0  0  0  0  0  2  0  0  0  0  0  0
  188.3400  178.0260  142.3860 C   0  0  0  0  0  3  0  0  0  0  0  0
  192.4620  176.4990  145.5220 C   0  0  0  0  0  2  0  0  0  0  0  0
  193.5810  176.5490  146.5500 C   0  0  0  0  0  1  0  0  0  0  0  0
  188.7390  175.8920  145.9080 C   0  0  0  0  0  2  0  0  0  0  0  0
  188.1410  177.2830  146.0230 C   0  0  0  0  0  2  0  0  0  0  0  0
  187.2080  177.3640  147.2310 C   0  0  1  0  0  3  0  0  0  0  0  0
  187.2160  178.7410  147.8940 C   0  0  0  0  0  1  0  0  0  0  0  0
  185.9040  176.8940  146.9570 O   0  0  0  0  0  0  0  0  0  0  0  0
  184.9990  177.9660  147.0460 C   0  0  0  0  0  2  0  0  0  0  0  0
  184.6590  178.8470  144.7120 C   0  0  0  0  0  0  0  0  0  0  0  0
  183.8270  178.9050  143.4820 C   0  0  0  0  0  1  0  0  0  0  0  0
  185.7360  179.4970  144.7680 O   0  0  0  0  0  0  0  0  0  0  0  0
  184.2290  178.0530  145.8180 N   0  0  0  0  0  2  0  0  0  0  0  0
  1  8  1  0  0  0  0
  2 14  1  6  0  0  0
  2  3  1  0  0  0  0
  3 21  1  1  0  0  0
  3  8  1  0  0  0  0
  7  1  1  1  0  0  0
  8  5  1  1  0  0  0
  9 11  1  0  0  0  0
  9 10  1  0  0  0  0
 10  6  1  6  0  0  0
 10  7  1  0  0  0  0
 11  4  1  6  0  0  0
 11  2  1  0  0  0  0
 11  7  1  0  0  0  0
 12 14  1  0  0  0  0
 12 13  1  0  0  0  0
 14 16  1  1  0  0  0
 15 12  2  0  0  0  0
 17 18  1  0  0  0  0
 17 13  1  0  0  0  0
 18 16  2  0  0  0  0
 19  8  1  0  0  0  0
 19 20  1  0  0  0  0
 21 22  1  0  0  0  0
 22 23  1  0  0  0  0
 23 24  1  6  0  0  0
 25 26  1  0  0  0  0
 25 23  1  0  0  0  0
 27 29  2  0  0  0  0
 27 30  1  0  0  0  0
 28 27  1  0  0  0  0
 30 26  1  0  0  0  0
M  END
>  <MODEL>
3

>  <REMARK>
 VINA RESULT:      -7.0      2.516      4.939
  Name = 
  8 active torsions:
  status: ('A' for Active; 'I' for Inactive)
    1  A    between atoms: C_1  and  C_20
    2  A    between atoms: C_3  and  C_21
    3  A    between atoms: C_3  and  O_24
    4  A    between atoms: C_5  and  O_24
    5  A    between atoms: C_5  and  N_30
    6  A    between atoms: C_7  and  C_8
    7  A    between atoms: C_10  and  C_22
    8  A    between atoms: C_21  and  C_22
                            x       y       z     vdW  Elec       q    Type
                         _______ _______ _______ _____ _____    ______ ____

>  <TORSDO>
F 8

$$$$
=
 OpenBabel11062419533D

 30 32  0  0  1  0  0  0  0  0999 V2000
  193.4540  173.9560  143.2380 O   0  0  0  0  0  0  0  0  0  0  0  0
  191.6690  175.3690  144.7990 C   0  0  2  0  0  3  0  0  0  0  0  0
  191.3340  173.9050  144.4260 C   0  0  2  0  0  3  0  0  0  0  0  0
  193.5720  175.6400  146.3330 O   0  0  0  0  0  1  0  0  0  0  0  0
  192.1310  172.1130  143.0080 O   0  0  0  0  0  1  0  0  0  0  0  0
  195.9270  176.4670  143.8080 C   0  0  0  0  0  1  0  0  0  0  0  0
  194.1250  174.7930  144.1550 C   0  0  1  0  0  3  0  0  0  0  0  0
  192.5540  173.0930  143.9150 C   0  0  1  0  0  0  0  0  0  0  0  0
  193.5830  176.8790  144.3320 N   0  0  0  0  0  2  0  0  0  0  0  0
  194.4890  176.1030  143.4880 C   0  0  1  0  0  3  0  0  0  0  0  0
  193.1790  175.6430  144.9910 C   0  0  1  0  0  0  0  0  0  0  0  0
  189.7640  176.9130  145.4530 C   0  0  0  0  0  0  0  0  0  0  0  0
  188.3170  176.5260  145.4630 C   0  0  0  0  0  2  0  0  0  0  0  0
  190.8080  175.9390  145.9590 C   0  0  1  0  0  3  0  0  0  0  0  0
  190.0870  178.0250  145.0710 O   0  0  0  0  0  0  0  0  0  0  0  0
  190.1910  174.8650  146.8400 C   0  0  0  0  0  3  0  0  0  0  0  0
  187.9730  175.9890  146.8470 C   0  0  0  0  0  2  0  0  0  0  0  0
  188.9060  174.8730  147.2280 C   0  0  0  0  0  3  0  0  0  0  0  0
  193.1940  172.3590  145.1090 C   0  0  0  0  0  2  0  0  0  0  0  0
  193.8380  171.0470  144.6910 C   0  0  0  0  0  1  0  0  0  0  0  0
  190.1910  173.9340  143.4120 C   0  0  0  0  0  2  0  0  0  0  0  0
  190.4220  175.0380  142.3960 C   0  0  0  0  0  2  0  0  0  0  0  0
  189.0880  175.5590  141.8620 C   0  0  1  0  0  3  0  0  0  0  0  0
  187.8950  174.7360  142.3430 C   0  0  0  0  0  1  0  0  0  0  0  0
  188.9150  176.9470  142.0640 O   0  0  0  0  0  0  0  0  0  0  0  0
  187.6960  177.3490  141.4900 C   0  0  0  0  0  2  0  0  0  0  0  0
  186.0300  178.3220  143.1050 C   0  0  0  0  0  0  0  0  0  0  0  0
  185.5110  179.5050  143.8420 C   0  0  0  0  0  1  0  0  0  0  0  0
  185.4730  177.2020  143.2530 O   0  0  0  0  0  0  0  0  0  0  0  0
  187.1540  178.4690  142.2390 N   0  0  0  0  0  2  0  0  0  0  0  0
  1  8  1  0  0  0  0
  2 11  1  0  0  0  0
  2 14  1  1  0  0  0
  3 21  1  6  0  0  0
  3  2  1  0  0  0  0
  7  1  1  6  0  0  0
  7 11  1  0  0  0  0
  8  5  1  6  0  0  0
  8  3  1  0  0  0  0
  8 19  1  0  0  0  0
  9 11  1  0  0  0  0
 10  6  1  1  0  0  0
 10  7  1  0  0  0  0
 10  9  1  0  0  0  0
 11  4  1  1  0  0  0
 12 13  1  0  0  0  0
 12 14  1  0  0  0  0
 13 17  1  0  0  0  0
 14 16  1  6  0  0  0
 15 12  2  0  0  0  0
 16 18  2  0  0  0  0
 17 18  1  0  0  0  0
 20 19  1  0  0  0  0
 22 21  1  0  0  0  0
 23 25  1  0  0  0  0
 23 24  1  1  0  0  0
 23 22  1  0  0  0  0
 26 25  1  0  0  0  0
 26 30  1  0  0  0  0
 27 29  2  0  0  0  0
 27 28  1  0  0  0  0
 30 27  1  0  0  0  0
M  END
>  <MODEL>
4

>  <REMARK>
 VINA RESULT:      -7.0      2.892      4.740
  Name = 
  8 active torsions:
  status: ('A' for Active; 'I' for Inactive)
    1  A    between atoms: C_1  and  C_20
    2  A    between atoms: C_3  and  C_21
    3  A    between atoms: C_3  and  O_24
    4  A    between atoms: C_5  and  O_24
    5  A    between atoms: C_5  and  N_30
    6  A    between atoms: C_7  and  C_8
    7  A    between atoms: C_10  and  C_22
    8  A    between atoms: C_21  and  C_22
                            x       y       z     vdW  Elec       q    Type
                         _______ _______ _______ _____ _____    ______ ____

>  <TORSDO>
F 8

$$$$
=
 OpenBabel11062419533D

 30 32  0  0  1  0  0  0  0  0999 V2000
  188.7510  176.2970  142.1930 O   0  0  0  0  0  0  0  0  0  0  0  0
  187.0290  177.5190  143.9720 C   0  0  2  0  0  3  0  0  0  0  0  0
  188.4420  177.1190  144.4600 C   0  0  2  0  0  3  0  0  0  0  0  0
  186.9770  179.3410  142.3220 O   0  0  0  0  0  1  0  0  0  0  0  0
  190.3880  175.8820  143.7250 O   0  0  0  0  0  1  0  0  0  0  0  0
  186.6080  177.2280  139.4930 C   0  0  0  0  0  1  0  0  0  0  0  0
  187.9840  177.2990  141.5600 C   0  0  1  0  0  3  0  0  0  0  0  0
  189.4450  176.8300  143.3110 C   0  0  1  0  0  0  0  0  0  0  0  0
  185.8360  177.3500  141.8020 N   0  0  0  0  0  2  0  0  0  0  0  0
  186.7700  176.6800  140.9000 C   0  0  1  0  0  3  0  0  0  0  0  0
  186.9710  177.9530  142.4880 C   0  0  1  0  0  0  0  0  0  0  0  0
  184.8340  178.1380  145.0830 C   0  0  0  0  0  0  0  0  0  0  0  0
  184.3540  177.5890  146.3910 C   0  0  0  0  0  2  0  0  0  0  0  0
  186.2920  178.5110  144.9120 C   0  0  1  0  0  3  0  0  0  0  0  0
  184.0370  178.3180  144.1770 O   0  0  0  0  0  0  0  0  0  0  0  0
  186.9820  178.7020  146.2520 C   0  0  0  0  0  3  0  0  0  0  0  0
  184.8440  178.5040  147.5070 C   0  0  0  0  0  2  0  0  0  0  0  0
  186.3360  178.6800  147.4280 C   0  0  0  0  0  3  0  0  0  0  0  0
  190.2140  178.1250  142.9900 C   0  0  0  0  0  2  0  0  0  0  0  0
  191.3250  178.3900  143.9940 C   0  0  0  0  0  1  0  0  0  0  0  0
  188.2870  175.9300  145.4070 C   0  0  0  0  0  2  0  0  0  0  0  0
  189.0390  176.1910  146.7000 C   0  0  0  0  0  2  0  0  0  0  0  0
  189.6150  174.8890  147.2550 C   0  0  1  0  0  3  0  0  0  0  0  0
  189.6370  173.7640  146.2220 C   0  0  0  0  0  1  0  0  0  0  0  0
  190.8600  175.0650  147.9010 O   0  0  0  0  0  0  0  0  0  0  0  0
  191.6430  175.9650  147.1580 C   0  0  0  0  0  2  0  0  0  0  0  0
  194.0700  175.9480  146.4910 C   0  0  0  0  0  0  0  0  0  0  0  0
  195.2390  175.1990  145.9600 C   0  0  0  0  0  1  0  0  0  0  0  0
  194.1930  177.1640  146.7940 O   0  0  0  0  0  0  0  0  0  0  0  0
  192.8190  175.2800  146.6520 N   0  0  0  0  0  2  0  0  0  0  0  0
  1  8  1  0  0  0  0
  2  3  1  0  0  0  0
  2 14  1  1  0  0  0
  3 21  1  1  0  0  0
  7  1  1  1  0  0  0
  7 11  1  0  0  0  0
  8  5  1  1  0  0  0
  8  3  1  0  0  0  0
  9 11  1  0  0  0  0
 10  6  1  6  0  0  0
 10  7  1  0  0  0  0
 10  9  1  0  0  0  0
 11  4  1  6  0  0  0
 11  2  1  0  0  0  0
 12 13  1  0  0  0  0
 13 17  1  0  0  0  0
 14 12  1  0  0  0  0
 14 16  1  1  0  0  0
 15 12  2  0  0  0  0
 16 18  2  0  0  0  0
 18 17  1  0  0  0  0
 19  8  1  0  0  0  0
 19 20  1  0  0  0  0
 21 22  1  0  0  0  0
 22 23  1  0  0  0  0
 23 24  1  6  0  0  0
 23 25  1  0  0  0  0
 26 25  1  0  0  0  0
 27 30  1  0  0  0  0
 27 29  2  0  0  0  0
 28 27  1  0  0  0  0
 30 26  1  0  0  0  0
M  END
>  <MODEL>
5

>  <REMARK>
 VINA RESULT:      -6.9      2.530      7.240
  Name = 
  8 active torsions:
  status: ('A' for Active; 'I' for Inactive)
    1  A    between atoms: C_1  and  C_20
    2  A    between atoms: C_3  and  C_21
    3  A    between atoms: C_3  and  O_24
    4  A    between atoms: C_5  and  O_24
    5  A    between atoms: C_5  and  N_30
    6  A    between atoms: C_7  and  C_8
    7  A    between atoms: C_10  and  C_22
    8  A    between atoms: C_21  and  C_22
                            x       y       z     vdW  Elec       q    Type
                         _______ _______ _______ _____ _____    ______ ____

>  <TORSDO>
F 8

$$$$
=
 OpenBabel11062419533D

 30 32  0  0  1  0  0  0  0  0999 V2000
  186.1260  176.4070  143.7390 O   0  0  0  0  0  0  0  0  0  0  0  0
  188.4610  176.3110  145.2090 C   0  0  2  0  0  3  0  0  0  0  0  0
  188.5380  176.1080  143.6770 C   0  0  2  0  0  3  0  0  0  0  0  0
  187.8380  178.5790  145.9260 O   0  0  0  0  0  1  0  0  0  0  0  0
  187.0910  175.8120  141.7600 O   0  0  0  0  0  1  0  0  0  0  0  0
  184.4260  177.8150  146.5450 C   0  0  0  0  0  1  0  0  0  0  0  0
  186.1150  177.3580  144.7820 C   0  0  1  0  0  3  0  0  0  0  0  0
  187.2700  176.5800  142.9160 C   0  0  1  0  0  0  0  0  0  0  0  0
  186.6140  176.7710  146.8020 N   0  0  0  0  0  2  0  0  0  0  0  0
  185.4000  176.7910  145.9900 C   0  0  1  0  0  3  0  0  0  0  0  0
  187.3550  177.2940  145.6620 C   0  0  1  0  0  0  0  0  0  0  0  0
  190.3810  175.3850  146.5850 C   0  0  0  0  0  0  0  0  0  0  0  0
  191.5680  174.6690  146.0200 C   0  0  0  0  0  2  0  0  0  0  0  0
  189.8300  176.6060  145.8780 C   0  0  1  0  0  3  0  0  0  0  0  0
  189.8890  175.0010  147.6330 O   0  0  0  0  0  0  0  0  0  0  0  0
  190.8510  177.2100  144.9280 C   0  0  0  0  0  3  0  0  0  0  0  0
  192.6550  175.6960  145.7260 C   0  0  0  0  0  2  0  0  0  0  0  0
  192.1230  176.7900  144.8420 C   0  0  0  0  0  3  0  0  0  0  0  0
  187.4810  178.0380  142.4640 C   0  0  0  0  0  2  0  0  0  0  0  0
  188.9100  178.2910  142.0090 C   0  0  0  0  0  1  0  0  0  0  0  0
  188.8530  174.6350  143.4190 C   0  0  0  0  0  2  0  0  0  0  0  0
  190.1010  174.5100  142.5630 C   0  0  0  0  0  2  0  0  0  0  0  0
  190.7660  173.1520  142.7840 C   0  0  1  0  0  3  0  0  0  0  0  0
  189.8440  172.1460  143.4690 C   0  0  0  0  0  1  0  0  0  0  0  0
  191.3710  172.6350  141.6160 O   0  0  0  0  0  0  0  0  0  0  0  0
  190.4610  171.7870  140.9610 C   0  0  0  0  0  2  0  0  0  0  0  0
  188.6320  172.8490  139.5970 C   0  0  0  0  0  0  0  0  0  0  0  0
  188.2000  173.4940  138.3290 C   0  0  0  0  0  1  0  0  0  0  0  0
  187.7990  172.6800  140.5260 O   0  0  0  0  0  0  0  0  0  0  0  0
  189.9880  172.4290  139.7480 N   0  0  0  0  0  2  0  0  0  0  0  0
  2 11  1  0  0  0  0
  2 14  1  6  0  0  0
  3 21  1  1  0  0  0
  3  2  1  0  0  0  0
  7  1  1  6  0  0  0
  7 11  1  0  0  0  0
  7 10  1  0  0  0  0
  8  5  1  6  0  0  0
  8  3  1  0  0  0  0
  8  1  1  0  0  0  0
 10  6  1  1  0  0  0
 10  9  1  0  0  0  0
 11  4  1  1  0  0  0
 11  9  1  0  0  0  0
 12 15  2  0  0  0  0
 13 12  1  0  0  0  0
 14 16  1  6  0  0  0
 14 12  1  0  0  0  0
 17 13  1  0  0  0  0
 18 16  2  0  0  0  0
 18 17  1  0  0  0  0
 19  8  1  0  0  0  0
 20 19  1  0  0  0  0
 22 23  1  0  0  0  0
 22 21  1  0  0  0  0
 23 24  1  6  0  0  0
 25 23  1  0  0  0  0
 26 25  1  0  0  0  0
 27 30  1  0  0  0  0
 27 29  2  0  0  0  0
 28 27  1  0  0  0  0
 30 26  1  0  0  0  0
M  END
>  <MODEL>
6

>  <REMARK>
 VINA RESULT:      -6.9      3.112      6.425
  Name = 
  8 active torsions:
  status: ('A' for Active; 'I' for Inactive)
    1  A    between atoms: C_1  and  C_20
    2  A    between atoms: C_3  and  C_21
    3  A    between atoms: C_3  and  O_24
    4  A    between atoms: C_5  and  O_24
    5  A    between atoms: C_5  and  N_30
    6  A    between atoms: C_7  and  C_8
    7  A    between atoms: C_10  and  C_22
    8  A    between atoms: C_21  and  C_22
                            x       y       z     vdW  Elec       q    Type
                         _______ _______ _______ _____ _____    ______ ____

>  <TORSDO>
F 8

$$$$
=
 OpenBabel11062419533D

 30 32  0  0  1  0  0  0  0  0999 V2000
  186.4050  176.7380  142.0320 O   0  0  0  0  0  0  0  0  0  0  0  0
  187.5100  176.6650  144.5610 C   0  0  2  0  0  3  0  0  0  0  0  0
  188.3750  176.2210  143.3570 C   0  0  2  0  0  3  0  0  0  0  0  0
  186.9700  179.0630  144.6210 O   0  0  0  0  0  1  0  0  0  0  0  0
  188.1810  175.7600  140.9900 O   0  0  0  0  0  1  0  0  0  0  0  0
  183.7010  178.7090  143.2800 C   0  0  0  0  0  1  0  0  0  0  0  0
  185.9800  177.8370  142.8100 C   0  0  1  0  0  3  0  0  0  0  0  0
  187.8220  176.6800  141.9820 C   0  0  1  0  0  0  0  0  0  0  0  0
  185.1950  177.5280  144.8020 N   0  0  0  0  0  2  0  0  0  0  0  0
  184.6420  177.5290  143.4490 C   0  0  1  0  0  3  0  0  0  0  0  0
  186.5100  177.8000  144.2360 C   0  0  1  0  0  0  0  0  0  0  0  0
  188.0190  175.9120  146.9290 C   0  0  0  0  0  0  0  0  0  0  0  0
  189.0540  174.8930  147.2980 C   0  0  0  0  0  2  0  0  0  0  0  0
  188.3200  176.9380  145.8570 C   0  0  1  0  0  3  0  0  0  0  0  0
  186.9550  175.9310  147.5250 O   0  0  0  0  0  0  0  0  0  0  0  0
  189.8150  177.0770  145.6190 C   0  0  0  0  0  3  0  0  0  0  0  0
  190.3710  175.6160  147.5520 C   0  0  0  0  0  2  0  0  0  0  0  0
  190.7450  176.4660  146.3700 C   0  0  0  0  0  3  0  0  0  0  0  0
  188.4750  178.0250  141.6110 C   0  0  0  0  0  2  0  0  0  0  0  0
  189.7890  178.2400  142.3460 C   0  0  0  0  0  1  0  0  0  0  0  0
  188.5400  174.7040  143.4390 C   0  0  0  0  0  2  0  0  0  0  0  0
  190.0140  174.3370  143.4410 C   0  0  0  0  0  2  0  0  0  0  0  0
  190.3060  173.3040  144.5280 C   0  0  1  0  0  3  0  0  0  0  0  0
  189.6210  171.9630  144.2690 C   0  0  0  0  0  1  0  0  0  0  0  0
  191.6840  173.1710  144.8100 O   0  0  0  0  0  0  0  0  0  0  0  0
  192.4190  173.9380  143.8900 C   0  0  0  0  0  2  0  0  0  0  0  0
  193.6600  176.0740  144.3730 C   0  0  0  0  0  0  0  0  0  0  0  0
  194.7360  176.7820  145.1150 C   0  0  0  0  0  1  0  0  0  0  0  0
  192.9430  176.7110  143.5570 O   0  0  0  0  0  0  0  0  0  0  0  0
  193.4510  174.6800  144.5940 N   0  0  0  0  0  2  0  0  0  0  0  0
  2 14  1  1  0  0  0
  3 21  1  6  0  0  0
  3  2  1  0  0  0  0
  7  1  1  6  0  0  0
  7 10  1  0  0  0  0
  7 11  1  0  0  0  0
  8  5  1  6  0  0  0
  8  1  1  0  0  0  0
  8  3  1  0  0  0  0
 10  6  1  1  0  0  0
 10  9  1  0  0  0  0
 11  2  1  0  0  0  0
 11  4  1  1  0  0  0
 11  9  1  0  0  0  0
 12 13  1  0  0  0  0
 12 15  2  0  0  0  0
 13 17  1  0  0  0  0
 14 16  1  6  0  0  0
 14 12  1  0  0  0  0
 16 18  2  0  0  0  0
 18 17  1  0  0  0  0
 19  8  1  0  0  0  0
 19 20  1  0  0  0  0
 21 22  1  0  0  0  0
 22 23  1  0  0  0  0
 23 24  1  6  0  0  0
 23 25  1  0  0  0  0
 26 30  1  0  0  0  0
 26 25  1  0  0  0  0
 27 30  1  0  0  0  0
 27 28  1  0  0  0  0
 29 27  2  0  0  0  0
M  END
>  <MODEL>
7

>  <REMARK>
 VINA RESULT:      -6.8      2.639      7.199
  Name = 
  8 active torsions:
  status: ('A' for Active; 'I' for Inactive)
    1  A    between atoms: C_1  and  C_20
    2  A    between atoms: C_3  and  C_21
    3  A    between atoms: C_3  and  O_24
    4  A    between atoms: C_5  and  O_24
    5  A    between atoms: C_5  and  N_30
    6  A    between atoms: C_7  and  C_8
    7  A    between atoms: C_10  and  C_22
    8  A    between atoms: C_21  and  C_22
                            x       y       z     vdW  Elec       q    Type
                         _______ _______ _______ _____ _____    ______ ____

>  <TORSDO>
F 8

$$$$
=
 OpenBabel11062419533D

 30 32  0  0  1  0  0  0  0  0999 V2000
  188.5330  177.9420  143.6640 O   0  0  0  0  0  0  0  0  0  0  0  0
  189.2470  175.4150  142.8140 C   0  0  2  0  0  3  0  0  0  0  0  0
  189.7390  175.9010  144.1980 C   0  0  2  0  0  3  0  0  0  0  0  0
  186.8240  175.0300  142.6500 O   0  0  0  0  0  1  0  0  0  0  0  0
  189.8010  177.9020  145.5580 O   0  0  0  0  0  1  0  0  0  0  0  0
  186.0970  178.1200  141.0590 C   0  0  0  0  0  1  0  0  0  0  0  0
  187.4780  177.3190  142.9630 C   0  0  1  0  0  3  0  0  0  0  0  0
  188.9640  177.1300  144.7450 C   0  0  1  0  0  0  0  0  0  0  0  0
  187.8340  176.4100  141.0330 N   0  0  0  0  0  2  0  0  0  0  0  0
  187.4980  177.7500  141.5110 C   0  0  1  0  0  3  0  0  0  0  0  0
  187.8510  175.9490  142.4150 C   0  0  1  0  0  0  0  0  0  0  0  0
  190.5380  173.5520  141.6740 C   0  0  0  0  0  0  0  0  0  0  0  0
  191.7710  172.9050  142.2260 C   0  0  0  0  0  2  0  0  0  0  0  0
  189.3830  173.8840  142.5960 C   0  0  1  0  0  3  0  0  0  0  0  0
  190.4580  173.7710  140.4770 O   0  0  0  0  0  0  0  0  0  0  0  0
  189.4560  173.0910  143.8910 C   0  0  0  0  0  3  0  0  0  0  0  0
  191.3490  171.7060  143.0670 C   0  0  0  0  0  2  0  0  0  0  0  0
  190.3540  172.1200  144.1160 C   0  0  0  0  0  3  0  0  0  0  0  0
  187.8070  176.6290  145.6300 C   0  0  0  0  0  2  0  0  0  0  0  0
  188.2950  175.7010  146.7310 C   0  0  0  0  0  1  0  0  0  0  0  0
  191.2410  176.1640  144.0920 C   0  0  0  0  0  2  0  0  0  0  0  0
  192.0010  175.2330  145.0190 C   0  0  0  0  0  2  0  0  0  0  0  0
  192.4210  175.9700  146.2900 C   0  0  1  0  0  3  0  0  0  0  0  0
  191.7870  175.3840  147.5500 C   0  0  0  0  0  1  0  0  0  0  0  0
  193.8200  176.1280  146.4020 O   0  0  0  0  0  0  0  0  0  0  0  0
  194.4600  175.1140  145.6690 C   0  0  0  0  0  2  0  0  0  0  0  0
  195.7050  176.1680  143.7530 C   0  0  0  0  0  0  0  0  0  0  0  0
  196.9830  176.6850  143.1940 C   0  0  0  0  0  1  0  0  0  0  0  0
  194.6600  176.2030  143.0520 O   0  0  0  0  0  0  0  0  0  0  0  0
  195.6780  175.6380  145.0780 N   0  0  0  0  0  2  0  0  0  0  0  0
  1  8  1  0  0  0  0
  2 14  1  1  0  0  0
  2  3  1  0  0  0  0
  3 21  1  6  0  0  0
  3  8  1  0  0  0  0
  7  1  1  1  0  0  0
  8  5  1  1  0  0  0
  8 19  1  0  0  0  0
  9 10  1  0  0  0  0
  9 11  1  0  0  0  0
 10  6  1  6  0  0  0
 10  7  1  0  0  0  0
 11  4  1  1  0  0  0
 11  2  1  0  0  0  0
 11  7  1  0  0  0  0
 12 13  1  0  0  0  0
 12 14  1  0  0  0  0
 13 17  1  0  0  0  0
 14 16  1  1  0  0  0
 15 12  2  0  0  0  0
 16 18  2  0  0  0  0
 17 18  1  0  0  0  0
 19 20  1  0  0  0  0
 21 22  1  0  0  0  0
 22 23  1  0  0  0  0
 23 25  1  0  0  0  0
 23 24  1  1  0  0  0
 26 25  1  0  0  0  0
 27 30  1  0  0  0  0
 28 27  1  0  0  0  0
 29 27  2  0  0  0  0
 30 26  1  0  0  0  0
M  END
>  <MODEL>
8

>  <REMARK>
 VINA RESULT:      -6.8      3.296      8.515
  Name = 
  8 active torsions:
  status: ('A' for Active; 'I' for Inactive)
    1  A    between atoms: C_1  and  C_20
    2  A    between atoms: C_3  and  C_21
    3  A    between atoms: C_3  and  O_24
    4  A    between atoms: C_5  and  O_24
    5  A    between atoms: C_5  and  N_30
    6  A    between atoms: C_7  and  C_8
    7  A    between atoms: C_10  and  C_22
    8  A    between atoms: C_21  and  C_22
                            x       y       z     vdW  Elec       q    Type
                         _______ _______ _______ _____ _____    ______ ____

>  <TORSDO>
F 8

$$$$
=
 OpenBabel11062419533D

 30 32  0  0  1  0  0  0  0  0999 V2000
  188.4610  177.8720  147.1290 O   0  0  0  0  0  0  0  0  0  0  0  0
  187.4010  177.4800  144.6100 C   0  0  2  0  0  3  0  0  0  0  0  0
  188.8410  176.9890  144.8960 C   0  0  2  0  0  3  0  0  0  0  0  0
  185.6310  176.2480  145.7920 O   0  0  0  0  0  1  0  0  0  0  0  0
  190.5460  177.1100  146.6080 O   0  0  0  0  0  1  0  0  0  0  0  0
  185.2050  178.6550  148.3670 C   0  0  0  0  0  1  0  0  0  0  0  0
  187.0900  177.5410  147.1940 C   0  0  1  0  0  3  0  0  0  0  0  0
  189.1800  176.8840  146.4070 C   0  0  1  0  0  0  0  0  0  0  0  0
  185.6510  178.5950  145.9720 N   0  0  0  0  0  2  0  0  0  0  0  0
  186.2580  178.8030  147.2840 C   0  0  1  0  0  3  0  0  0  0  0  0
  186.4470  177.3830  145.8240 C   0  0  1  0  0  0  0  0  0  0  0  0
  186.6240  177.9490  142.2410 C   0  0  0  0  0  0  0  0  0  0  0  0
  187.5060  177.9150  141.0310 C   0  0  0  0  0  2  0  0  0  0  0  0
  186.7780  176.8920  143.3150 C   0  0  1  0  0  3  0  0  0  0  0  0
  185.7610  178.8060  142.3330 O   0  0  0  0  0  0  0  0  0  0  0  0
  187.5090  175.6660  142.7930 C   0  0  0  0  0  3  0  0  0  0  0  0
  187.4770  176.5060  140.4530 C   0  0  0  0  0  2  0  0  0  0  0  0
  187.8440  175.4950  141.5040 C   0  0  0  0  0  3  0  0  0  0  0  0
  188.8840  175.4470  146.8790 C   0  0  0  0  0  2  0  0  0  0  0  0
  189.3970  174.4080  145.8950 C   0  0  0  0  0  1  0  0  0  0  0  0
  189.8030  177.9130  144.1490 C   0  0  0  0  0  2  0  0  0  0  0  0
  190.4700  177.1620  143.0110 C   0  0  0  0  0  2  0  0  0  0  0  0
  191.4120  176.0890  143.5590 C   0  0  1  0  0  3  0  0  0  0  0  0
  191.4480  174.8340  142.6890 C   0  0  0  0  0  1  0  0  0  0  0  0
  192.7000  176.5850  143.8620 O   0  0  0  0  0  0  0  0  0  0  0  0
  193.5520  176.3550  142.7680 C   0  0  0  0  0  2  0  0  0  0  0  0
  196.0510  176.3220  142.4690 C   0  0  0  0  0  0  0  0  0  0  0  0
  197.3940  175.9840  143.0090 C   0  0  0  0  0  1  0  0  0  0  0  0
  195.9520  176.8450  141.3270 O   0  0  0  0  0  0  0  0  0  0  0  0
  194.8880  176.0520  143.2500 N   0  0  0  0  0  2  0  0  0  0  0  0
  2 14  1  6  0  0  0
  2  3  1  0  0  0  0
  2 11  1  0  0  0  0
  3 21  1  6  0  0  0
  3  8  1  0  0  0  0
  7  1  1  6  0  0  0
  7 10  1  0  0  0  0
  8  5  1  1  0  0  0
  8 19  1  0  0  0  0
  8  1  1  0  0  0  0
  9 10  1  0  0  0  0
 10  6  1  1  0  0  0
 11  4  1  6  0  0  0
 11  9  1  0  0  0  0
 11  7  1  0  0  0  0
 12 15  2  0  0  0  0
 12 14  1  0  0  0  0
 13 12  1  0  0  0  0
 14 16  1  6  0  0  0
 17 13  1  0  0  0  0
 17 18  1  0  0  0  0
 18 16  2  0  0  0  0
 20 19  1  0  0  0  0
 22 23  1  0  0  0  0
 22 21  1  0  0  0  0
 23 24  1  6  0  0  0
 23 25  1  0  0  0  0
 26 30  1  0  0  0  0
 26 25  1  0  0  0  0
 27 28  1  0  0  0  0
 27 30  1  0  0  0  0
 29 27  2  0  0  0  0
M  END
>  <MODEL>
9

>  <REMARK>
 VINA RESULT:      -6.7      3.006      7.583
  Name = 
  8 active torsions:
  status: ('A' for Active; 'I' for Inactive)
    1  A    between atoms: C_1  and  C_20
    2  A    between atoms: C_3  and  C_21
    3  A    between atoms: C_3  and  O_24
    4  A    between atoms: C_5  and  O_24
    5  A    between atoms: C_5  and  N_30
    6  A    between atoms: C_7  and  C_8
    7  A    between atoms: C_10  and  C_22
    8  A    between atoms: C_21  and  C_22
                            x       y       z     vdW  Elec       q    Type
                         _______ _______ _______ _____ _____    ______ ____

>  <TORSDO>
F 8

$$$$
