=
 OpenBabel11062422263D

 36 41  0  0  1  0  0  0  0  0999 V2000
  184.7730  177.9540  143.3130 C   0  0  0  0  0  0  0  0  0  0  0  0
  185.4650  177.7350  142.1410 C   0  0  0  0  0  0  0  0  0  0  0  0
  186.6120  178.3100  144.9300 C   0  0  0  0  0  3  0  0  0  0  0  0
  183.4880  178.2710  143.0350 N   0  0  0  0  0  0  0  0  0  0  0  0
  184.3820  178.0910  145.6490 O   0  0  0  0  0  1  0  0  0  0  0  0
  184.6140  177.9210  141.1190 N   0  0  0  0  0  0  0  0  0  0  0  0
  186.8520  177.2700  141.9980 C   0  0  0  0  0  3  0  0  0  0  0  0
  183.4410  178.2580  141.6860 C   0  0  0  0  0  0  0  0  0  0  0  0
  185.2900  177.6570  144.6810 C   0  0  1  0  0  3  0  0  0  0  0  0
  187.8260  177.3980  142.9090 C   0  0  0  0  0  0  0  0  0  0  0  0
  184.8960  177.7920  139.6980 C   0  0  0  0  0  1  0  0  0  0  0  0
  187.7060  178.1550  144.1790 C   0  0  0  0  0  3  0  0  0  0  0  0
  182.2600  178.5470  140.9360 N   0  0  0  0  0  2  0  0  0  0  0  0
  181.0080  178.8870  141.5880 C   0  0  2  0  0  3  0  0  0  0  0  0
  178.7900  180.5560  139.4410 C   0  0  0  0  0  3  0  0  0  0  0  0
  178.3120  179.1650  139.3220 C   0  0  0  0  0  3  0  0  0  0  0  0
  179.9280  178.4890  140.7790 C   0  0  0  0  0  0  0  0  0  0  0  0
  180.3470  179.8770  140.8520 C   0  0  0  0  0  0  0  0  0  0  0  0
  178.8970  178.0400  140.0180 C   0  0  0  0  0  3  0  0  0  0  0  0
  179.8630  180.9490  140.2380 N   0  0  0  0  0  0  0  0  0  0  0  0
  189.1760  176.8870  142.5290 C   0  0  0  0  0  2  0  0  0  0  0  0
  189.1920  175.1580  144.1160 C   0  0  0  0  0  2  0  0  0  0  0  0
  189.8690  173.9410  143.4970 C   0  0  1  0  0  3  0  0  0  0  0  0
  191.2170  175.9340  143.2610 C   0  0  0  0  0  2  0  0  0  0  0  0
  191.1890  174.4480  142.9390 C   0  0  1  0  0  3  0  0  0  0  0  0
  189.8920  176.3630  143.6920 N   0  0  0  0  0  0  0  0  0  0  0  0
  191.5960  172.1160  143.8870 C   0  0  0  0  0  1  0  0  0  0  0  0
  191.1810  173.5460  144.1650 C   0  0  2  0  0  0  0  0  0  0  0  0
  191.5080  174.1320  145.5420 C   0  0  0  0  0  2  0  0  0  0  0  0
  192.9830  176.4710  146.2250 O   0  0  0  0  0  0  0  0  0  0  0  0
  192.9490  174.1880  145.7280 N   0  0  0  0  0  2  0  0  0  0  0  0
  193.6280  175.3990  146.0740 C   0  0  0  0  0  0  0  0  0  0  0  0
  195.1050  175.3850  146.2890 C   0  0  0  0  0  2  0  0  0  0  0  0
  196.9020  173.6290  146.0940 C   0  0  0  0  0  1  0  0  0  0  0  0
  195.8290  174.4180  145.3610 C   0  0  2  0  0  3  0  0  0  0  0  0
  196.3850  175.0980  144.2780 O   0  0  0  0  0  1  0  0  0  0  0  0
  1  9  1  0  0  0  0
  2  1  2  0  0  0  0
  4  1  1  0  0  0  0
  6  8  1  0  0  0  0
  6  2  1  0  0  0  0
  7  2  1  0  0  0  0
  7 10  2  0  0  0  0
  8  4  2  0  0  0  0
  9  3  1  0  0  0  0
  9  5  1  1  0  0  0
 10 12  1  0  0  0  0
 11  6  1  0  0  0  0
 12  3  2  0  0  0  0
 13  8  1  0  0  0  0
 14 13  1  6  0  0  0
 15 20  1  0  0  0  0
 16 15  2  0  0  0  0
 16 19  1  0  0  0  0
 17 18  1  0  0  0  0
 17 14  1  0  0  0  0
 18 14  1  0  0  0  0
 19 17  2  0  0  0  0
 20 18  2  0  0  0  0
 21 10  1  0  0  0  0
 21 26  1  0  0  0  0
 23 22  1  1  0  0  0
 23 28  1  0  0  0  0
 24 26  1  0  0  0  0
 25 24  1  1  0  0  0
 25 23  1  0  0  0  0
 25 28  1  0  0  0  0
 26 22  1  0  0  0  0
 28 27  1  6  0  0  0
 28 29  1  0  0  0  0
 29 31  1  0  0  0  0
 31 32  1  0  0  0  0
 32 30  2  0  0  0  0
 32 33  1  0  0  0  0
 35 34  1  1  0  0  0
 35 33  1  0  0  0  0
 36 35  1  0  0  0  0
M  END
>  <MODEL>
1

>  <REMARK>
 VINA RESULT:      -7.9      0.000      0.000
  Name = 
  7 active torsions:
  status: ('A' for Active; 'I' for Inactive)
    1  A    between atoms: C_3  and  N_34
    2  A    between atoms: C_7  and  N_14
    3  A    between atoms: C_7  and  C_30
    4  A    between atoms: C_12  and  N_13
    5  A    between atoms: C_12  and  C_29
    6  A    between atoms: C_19  and  C_20
    7  A    between atoms: C_19  and  C_25
                            x       y       z     vdW  Elec       q    Type
                         _______ _______ _______ _____ _____    ______ ____

>  <TORSDO>
F 7

$$$$
=
 OpenBabel11062422263D

 36 41  0  0  1  0  0  0  0  0999 V2000
  191.0700  176.0130  146.0330 C   0  0  0  0  0  0  0  0  0  0  0  0
  191.4030  176.5050  144.7890 C   0  0  0  0  0  0  0  0  0  0  0  0
  193.2090  176.2330  147.2570 C   0  0  0  0  0  3  0  0  0  0  0  0
  189.7260  176.0070  146.1790 N   0  0  0  0  0  0  0  0  0  0  0  0
  191.3840  175.0750  148.1900 O   0  0  0  0  0  1  0  0  0  0  0  0
  190.2650  176.8170  144.1500 N   0  0  0  0  0  0  0  0  0  0  0  0
  192.7450  176.5840  144.1930 C   0  0  0  0  0  3  0  0  0  0  0  0
  189.2760  176.5230  145.0140 C   0  0  0  0  0  0  0  0  0  0  0  0
  192.0230  175.3660  146.9810 C   0  0  1  0  0  3  0  0  0  0  0  0
  193.9050  176.6260  144.8590 C   0  0  0  0  0  0  0  0  0  0  0  0
  190.1240  177.3620  142.8090 C   0  0  0  0  0  1  0  0  0  0  0  0
  194.0330  176.7340  146.3330 C   0  0  0  0  0  3  0  0  0  0  0  0
  187.8910  176.7140  144.7200 N   0  0  0  0  0  2  0  0  0  0  0  0
  186.8540  176.3640  145.6740 C   0  0  2  0  0  3  0  0  0  0  0  0
  185.5980  179.1660  147.3720 C   0  0  0  0  0  3  0  0  0  0  0  0
  184.6060  179.0190  146.2900 C   0  0  0  0  0  3  0  0  0  0  0  0
  185.7440  177.2100  145.4990 C   0  0  0  0  0  0  0  0  0  0  0  0
  186.6830  177.4100  146.5870 C   0  0  0  0  0  0  0  0  0  0  0  0
  184.6550  177.9900  145.2740 C   0  0  0  0  0  3  0  0  0  0  0  0
  186.7010  178.3310  147.5410 N   0  0  0  0  0  0  0  0  0  0  0  0
  195.1490  176.7480  144.0420 C   0  0  0  0  0  2  0  0  0  0  0  0
  195.4350  174.4210  144.1420 C   0  0  0  0  0  2  0  0  0  0  0  0
  195.7800  173.9170  142.7450 C   0  0  1  0  0  3  0  0  0  0  0  0
  197.2050  175.7530  143.4150 C   0  0  0  0  0  2  0  0  0  0  0  0
  196.9340  174.7870  142.2720 C   0  0  1  0  0  3  0  0  0  0  0  0
  196.1070  175.6930  144.3730 N   0  0  0  0  0  0  0  0  0  0  0  0
  197.3500  172.4200  141.4190 C   0  0  0  0  0  1  0  0  0  0  0  0
  197.1790  173.3260  142.6210 C   0  0  2  0  0  0  0  0  0  0  0  0
  197.9410  172.9690  143.9010 C   0  0  0  0  0  2  0  0  0  0  0  0
  196.7970  171.8630  146.2630 O   0  0  0  0  0  0  0  0  0  0  0  0
  197.8060  171.5480  144.1800 N   0  0  0  0  0  2  0  0  0  0  0  0
  197.2190  171.0590  145.3880 C   0  0  0  0  0  0  0  0  0  0  0  0
  197.0730  169.5890  145.6010 C   0  0  0  0  0  2  0  0  0  0  0  0
  196.9770  168.5880  147.9110 C   0  0  0  0  0  1  0  0  0  0  0  0
  196.1870  169.2480  146.7920 C   0  0  2  0  0  3  0  0  0  0  0  0
  195.1290  168.4300  146.4000 O   0  0  0  0  0  1  0  0  0  0  0  0
  1  4  1  0  0  0  0
  1  9  1  0  0  0  0
  2  1  2  0  0  0  0
  6  2  1  0  0  0  0
  6  8  1  0  0  0  0
  7  2  1  0  0  0  0
  7 10  2  0  0  0  0
  8  4  2  0  0  0  0
  9  3  1  0  0  0  0
  9  5  1  1  0  0  0
 10 12  1  0  0  0  0
 11  6  1  0  0  0  0
 12  3  2  0  0  0  0
 13  8  1  0  0  0  0
 14 13  1  6  0  0  0
 14 18  1  0  0  0  0
 15 20  1  0  0  0  0
 16 15  2  0  0  0  0
 17 14  1  0  0  0  0
 17 18  1  0  0  0  0
 18 20  2  0  0  0  0
 19 17  2  0  0  0  0
 19 16  1  0  0  0  0
 21 26  1  0  0  0  0
 21 10  1  0  0  0  0
 22 26  1  0  0  0  0
 23 22  1  1  0  0  0
 24 26  1  0  0  0  0
 25 28  1  0  0  0  0
 25 23  1  0  0  0  0
 25 24  1  1  0  0  0
 28 27  1  6  0  0  0
 28 23  1  0  0  0  0
 28 29  1  0  0  0  0
 29 31  1  0  0  0  0
 31 32  1  0  0  0  0
 32 33  1  0  0  0  0
 32 30  2  0  0  0  0
 33 35  1  0  0  0  0
 35 34  1  1  0  0  0
 36 35  1  0  0  0  0
M  END
>  <MODEL>
2

>  <REMARK>
 VINA RESULT:      -7.6      4.667      7.033
  Name = 
  7 active torsions:
  status: ('A' for Active; 'I' for Inactive)
    1  A    between atoms: C_3  and  N_34
    2  A    between atoms: C_7  and  N_14
    3  A    between atoms: C_7  and  C_30
    4  A    between atoms: C_12  and  N_13
    5  A    between atoms: C_12  and  C_29
    6  A    between atoms: C_19  and  C_20
    7  A    between atoms: C_19  and  C_25
                            x       y       z     vdW  Elec       q    Type
                         _______ _______ _______ _____ _____    ______ ____

>  <TORSDO>
F 7

$$$$
=
 OpenBabel11062422263D

 36 41  0  0  1  0  0  0  0  0999 V2000
  192.9200  174.8820  145.7890 C   0  0  0  0  0  0  0  0  0  0  0  0
  191.7750  174.1780  145.4810 C   0  0  0  0  0  0  0  0  0  0  0  0
  192.1350  176.3590  147.6120 C   0  0  0  0  0  3  0  0  0  0  0  0
  194.0010  174.2360  145.2980 N   0  0  0  0  0  0  0  0  0  0  0  0
  194.2640  176.6380  146.6490 O   0  0  0  0  0  1  0  0  0  0  0  0
  192.1370  173.0790  144.8000 N   0  0  0  0  0  0  0  0  0  0  0  0
  190.3850  174.5810  145.7380 C   0  0  0  0  0  3  0  0  0  0  0  0
  193.4790  173.1330  144.7200 C   0  0  0  0  0  0  0  0  0  0  0  0
  192.9500  176.2590  146.3630 C   0  0  1  0  0  3  0  0  0  0  0  0
  189.9720  175.4410  146.6780 C   0  0  0  0  0  0  0  0  0  0  0  0
  191.2670  172.0450  144.2620 C   0  0  0  0  0  1  0  0  0  0  0  0
  190.8410  176.0410  147.7200 C   0  0  0  0  0  3  0  0  0  0  0  0
  194.2690  172.1370  144.0670 N   0  0  0  0  0  2  0  0  0  0  0  0
  195.7140  172.2430  143.9850 C   0  0  2  0  0  3  0  0  0  0  0  0
  197.3460  169.7650  145.8570 C   0  0  0  0  0  3  0  0  0  0  0  0
  197.3490  169.1560  144.5130 C   0  0  0  0  0  3  0  0  0  0  0  0
  196.2670  170.9840  143.6880 C   0  0  0  0  0  0  0  0  0  0  0  0
  196.2990  171.5260  145.0350 C   0  0  0  0  0  0  0  0  0  0  0  0
  196.7800  169.7770  143.3360 C   0  0  0  0  0  3  0  0  0  0  0  0
  196.7940  171.0090  146.1520 N   0  0  0  0  0  0  0  0  0  0  0  0
  188.5000  175.6690  146.7840 C   0  0  0  0  0  2  0  0  0  0  0  0
  186.9370  176.3920  145.1910 C   0  0  0  0  0  2  0  0  0  0  0  0
  185.6530  176.7800  145.9160 C   0  0  1  0  0  3  0  0  0  0  0  0
  187.5910  177.8540  146.8850 C   0  0  0  0  0  2  0  0  0  0  0  0
  186.0810  177.7330  147.0210 C   0  0  1  0  0  3  0  0  0  0  0  0
  188.0830  176.8190  145.9820 N   0  0  0  0  0  0  0  0  0  0  0  0
  183.8480  178.5600  146.1090 C   0  0  0  0  0  1  0  0  0  0  0  0
  185.3050  178.2610  145.8230 C   0  0  2  0  0  0  0  0  0  0  0  0
  186.0180  179.1180  144.7730 C   0  0  0  0  0  2  0  0  0  0  0  0
  187.6960  178.6560  142.5190 O   0  0  0  0  0  0  0  0  0  0  0  0
  185.5530  178.7640  143.4420 N   0  0  0  0  0  2  0  0  0  0  0  0
  186.4520  178.5440  142.3520 C   0  0  0  0  0  0  0  0  0  0  0  0
  185.9160  178.1450  141.0170 C   0  0  0  0  0  2  0  0  0  0  0  0
  186.3800  177.0330  138.8050 C   0  0  0  0  0  1  0  0  0  0  0  0
  186.9190  177.3520  140.1890 C   0  0  2  0  0  3  0  0  0  0  0  0
  187.2840  176.1790  140.8480 O   0  0  0  0  0  1  0  0  0  0  0  0
  1  9  1  0  0  0  0
  2  7  1  0  0  0  0
  2  1  2  0  0  0  0
  3 12  2  0  0  0  0
  4  1  1  0  0  0  0
  6  2  1  0  0  0  0
  7 10  2  0  0  0  0
  8  6  1  0  0  0  0
  8  4  2  0  0  0  0
  9  5  1  1  0  0  0
  9  3  1  0  0  0  0
 10 21  1  0  0  0  0
 10 12  1  0  0  0  0
 11  6  1  0  0  0  0
 13  8  1  0  0  0  0
 14 13  1  1  0  0  0
 14 18  1  0  0  0  0
 15 20  1  0  0  0  0
 16 15  2  0  0  0  0
 17 14  1  0  0  0  0
 17 18  1  0  0  0  0
 18 20  2  0  0  0  0
 19 17  2  0  0  0  0
 19 16  1  0  0  0  0
 22 26  1  0  0  0  0
 23 22  1  6  0  0  0
 23 25  1  0  0  0  0
 25 24  1  6  0  0  0
 26 21  1  0  0  0  0
 26 24  1  0  0  0  0
 28 23  1  0  0  0  0
 28 27  1  1  0  0  0
 28 25  1  0  0  0  0
 29 28  1  0  0  0  0
 31 29  1  0  0  0  0
 32 30  2  0  0  0  0
 32 31  1  0  0  0  0
 33 32  1  0  0  0  0
 35 34  1  6  0  0  0
 35 36  1  0  0  0  0
 35 33  1  0  0  0  0
M  END
>  <MODEL>
3

>  <REMARK>
 VINA RESULT:      -7.6      3.621     11.688
  Name = 
  7 active torsions:
  status: ('A' for Active; 'I' for Inactive)
    1  A    between atoms: C_3  and  N_34
    2  A    between atoms: C_7  and  N_14
    3  A    between atoms: C_7  and  C_30
    4  A    between atoms: C_12  and  N_13
    5  A    between atoms: C_12  and  C_29
    6  A    between atoms: C_19  and  C_20
    7  A    between atoms: C_19  and  C_25
                            x       y       z     vdW  Elec       q    Type
                         _______ _______ _______ _____ _____    ______ ____

>  <TORSDO>
F 7

$$$$
=
 OpenBabel11062422263D

 36 41  0  0  1  0  0  0  0  0999 V2000
  189.6940  175.8500  145.5910 C   0  0  0  0  0  0  0  0  0  0  0  0
  190.4190  176.5680  144.6630 C   0  0  0  0  0  0  0  0  0  0  0  0
  191.3080  175.6530  147.4550 C   0  0  0  0  0  3  0  0  0  0  0  0
  188.3770  175.9100  145.2900 N   0  0  0  0  0  0  0  0  0  0  0  0
  189.2800  174.4590  147.4670 O   0  0  0  0  0  1  0  0  0  0  0  0
  189.5540  177.0880  143.7770 N   0  0  0  0  0  0  0  0  0  0  0  0
  191.8810  176.6740  144.5640 C   0  0  0  0  0  3  0  0  0  0  0  0
  188.3360  176.6900  144.1880 C   0  0  0  0  0  0  0  0  0  0  0  0
  190.2810  174.9510  146.6260 C   0  0  1  0  0  3  0  0  0  0  0  0
  192.7570  176.4920  145.5610 C   0  0  0  0  0  0  0  0  0  0  0  0
  189.8630  177.9120  142.6190 C   0  0  0  0  0  1  0  0  0  0  0  0
  192.3900  176.2770  146.9820 C   0  0  0  0  0  3  0  0  0  0  0  0
  187.1260  177.0370  143.5130 N   0  0  0  0  0  2  0  0  0  0  0  0
  185.8330  176.5700  143.9780 C   0  0  2  0  0  3  0  0  0  0  0  0
  184.7180  178.3170  146.8100 C   0  0  0  0  0  3  0  0  0  0  0  0
  184.0270  179.0500  145.7310 C   0  0  0  0  0  3  0  0  0  0  0  0
  184.9790  177.6680  144.1890 C   0  0  0  0  0  0  0  0  0  0  0  0
  185.6280  176.9900  145.2970 C   0  0  0  0  0  0  0  0  0  0  0  0
  184.1470  178.7320  144.3250 C   0  0  0  0  0  3  0  0  0  0  0  0
  185.5680  177.2330  146.6000 N   0  0  0  0  0  0  0  0  0  0  0  0
  194.2000  176.6940  145.2370 C   0  0  0  0  0  2  0  0  0  0  0  0
  194.2440  174.3480  145.2180 C   0  0  0  0  0  2  0  0  0  0  0  0
  194.7270  173.8850  143.8480 C   0  0  1  0  0  3  0  0  0  0  0  0
  196.2170  175.5240  144.8180 C   0  0  0  0  0  2  0  0  0  0  0  0
  196.0130  174.6540  143.5890 C   0  0  1  0  0  3  0  0  0  0  0  0
  194.9980  175.5280  145.6190 N   0  0  0  0  0  0  0  0  0  0  0  0
  196.3110  172.3040  142.6420 C   0  0  0  0  0  1  0  0  0  0  0  0
  196.0670  173.1590  143.8690 C   0  0  2  0  0  0  0  0  0  0  0  0
  196.6080  172.6560  145.2100 C   0  0  0  0  0  2  0  0  0  0  0  0
  194.5990  170.8580  146.1280 O   0  0  0  0  0  0  0  0  0  0  0  0
  196.7120  171.2060  145.1930 N   0  0  0  0  0  2  0  0  0  0  0  0
  195.6620  170.3600  145.6690 C   0  0  0  0  0  0  0  0  0  0  0  0
  195.8110  168.8770  145.5900 C   0  0  0  0  0  2  0  0  0  0  0  0
  194.5360  168.1660  147.6440 C   0  0  0  0  0  1  0  0  0  0  0  0
  195.8930  168.2170  146.9610 C   0  0  2  0  0  3  0  0  0  0  0  0
  196.8170  168.8760  147.7710 O   0  0  0  0  0  1  0  0  0  0  0  0
  1  9  1  0  0  0  0
  2  1  2  0  0  0  0
  4  1  1  0  0  0  0
  6  8  1  0  0  0  0
  6  2  1  0  0  0  0
  7  2  1  0  0  0  0
  7 10  2  0  0  0  0
  8  4  2  0  0  0  0
  9  3  1  0  0  0  0
  9  5  1  1  0  0  0
 10 12  1  0  0  0  0
 11  6  1  0  0  0  0
 12  3  2  0  0  0  0
 13  8  1  0  0  0  0
 14 13  1  6  0  0  0
 14 17  1  0  0  0  0
 14 18  1  0  0  0  0
 16 15  2  0  0  0  0
 17 19  2  0  0  0  0
 17 18  1  0  0  0  0
 18 20  2  0  0  0  0
 19 16  1  0  0  0  0
 20 15  1  0  0  0  0
 21 10  1  0  0  0  0
 21 26  1  0  0  0  0
 22 26  1  0  0  0  0
 23 28  1  0  0  0  0
 23 22  1  1  0  0  0
 24 26  1  0  0  0  0
 25 23  1  0  0  0  0
 25 28  1  0  0  0  0
 25 24  1  1  0  0  0
 28 27  1  6  0  0  0
 28 29  1  0  0  0  0
 31 29  1  0  0  0  0
 31 32  1  0  0  0  0
 32 30  2  0  0  0  0
 33 32  1  0  0  0  0
 33 35  1  0  0  0  0
 35 34  1  1  0  0  0
 35 36  1  0  0  0  0
M  END
>  <MODEL>
4

>  <REMARK>
 VINA RESULT:      -7.5      3.984      6.176
  Name = 
  7 active torsions:
  status: ('A' for Active; 'I' for Inactive)
    1  A    between atoms: C_3  and  N_34
    2  A    between atoms: C_7  and  N_14
    3  A    between atoms: C_7  and  C_30
    4  A    between atoms: C_12  and  N_13
    5  A    between atoms: C_12  and  C_29
    6  A    between atoms: C_19  and  C_20
    7  A    between atoms: C_19  and  C_25
                            x       y       z     vdW  Elec       q    Type
                         _______ _______ _______ _____ _____    ______ ____

>  <TORSDO>
F 7

$$$$
=
 OpenBabel11062422263D

 36 41  0  0  1  0  0  0  0  0999 V2000
  189.6160  175.7530  145.7000 C   0  0  0  0  0  0  0  0  0  0  0  0
  190.4510  176.3520  144.7810 C   0  0  0  0  0  0  0  0  0  0  0  0
  191.0720  175.6150  147.6960 C   0  0  0  0  0  3  0  0  0  0  0  0
  188.3320  175.8630  145.2920 N   0  0  0  0  0  0  0  0  0  0  0  0
  188.9780  174.5420  147.6380 O   0  0  0  0  0  1  0  0  0  0  0  0
  189.6900  176.8480  143.7930 N   0  0  0  0  0  0  0  0  0  0  0  0
  191.9210  176.3670  144.7900 C   0  0  0  0  0  3  0  0  0  0  0  0
  188.4220  176.5530  144.1350 C   0  0  0  0  0  0  0  0  0  0  0  0
  190.0680  174.9080  146.8440 C   0  0  1  0  0  3  0  0  0  0  0  0
  192.7070  176.2170  145.8640 C   0  0  0  0  0  0  0  0  0  0  0  0
  190.1340  177.5570  142.6030 C   0  0  0  0  0  1  0  0  0  0  0  0
  192.2230  176.1370  147.2640 C   0  0  0  0  0  3  0  0  0  0  0  0
  187.2890  176.9130  143.3420 N   0  0  0  0  0  2  0  0  0  0  0  0
  185.9380  176.5580  143.7380 C   0  0  2  0  0  3  0  0  0  0  0  0
  184.4410  179.0190  145.7420 C   0  0  0  0  0  3  0  0  0  0  0  0
  183.9200  179.3790  144.4100 C   0  0  0  0  0  3  0  0  0  0  0  0
  185.0720  177.6390  143.4940 C   0  0  0  0  0  0  0  0  0  0  0  0
  185.5480  177.3390  144.8320 C   0  0  0  0  0  0  0  0  0  0  0  0
  184.2380  178.6670  143.1910 C   0  0  0  0  0  3  0  0  0  0  0  0
  185.3030  177.9510  145.9830 N   0  0  0  0  0  0  0  0  0  0  0  0
  194.1800  176.3100  145.6410 C   0  0  0  0  0  2  0  0  0  0  0  0
  196.0770  175.3000  144.6980 C   0  0  0  0  0  2  0  0  0  0  0  0
  196.4830  174.1210  145.5760 C   0  0  1  0  0  3  0  0  0  0  0  0
  194.1390  174.0340  144.9850 C   0  0  0  0  0  2  0  0  0  0  0  0
  195.2180  173.2980  145.7630 C   0  0  1  0  0  3  0  0  0  0  0  0
  194.6240  175.3610  144.6190 N   0  0  0  0  0  0  0  0  0  0  0  0
  197.1750  171.6750  145.5590 C   0  0  0  0  0  1  0  0  0  0  0  0
  196.3520  172.7620  144.9000 C   0  0  2  0  0  0  0  0  0  0  0  0
  196.1890  172.7120  143.3770 C   0  0  0  0  0  2  0  0  0  0  0  0
  193.7930  172.6940  141.8380 O   0  0  0  0  0  0  0  0  0  0  0  0
  195.4500  171.5210  142.9950 N   0  0  0  0  0  2  0  0  0  0  0  0
  194.2510  171.5820  142.2170 C   0  0  0  0  0  0  0  0  0  0  0  0
  193.5570  170.3220  141.8230 C   0  0  0  0  0  2  0  0  0  0  0  0
  191.0460  170.4650  141.9790 C   0  0  0  0  0  1  0  0  0  0  0  0
  192.3260  170.0330  142.6750 C   0  0  2  0  0  3  0  0  0  0  0  0
  192.4330  170.6520  143.9190 O   0  0  0  0  0  1  0  0  0  0  0  0
  1  9  1  0  0  0  0
  2  7  1  0  0  0  0
  2  1  2  0  0  0  0
  4  1  1  0  0  0  0
  6  8  1  0  0  0  0
  6  2  1  0  0  0  0
  7 10  2  0  0  0  0
  8  4  2  0  0  0  0
  9  5  1  1  0  0  0
  9  3  1  0  0  0  0
 10 12  1  0  0  0  0
 11  6  1  0  0  0  0
 12  3  2  0  0  0  0
 13  8  1  0  0  0  0
 14 13  1  6  0  0  0
 14 18  1  0  0  0  0
 15 20  1  0  0  0  0
 16 15  2  0  0  0  0
 17 14  1  0  0  0  0
 17 18  1  0  0  0  0
 18 20  2  0  0  0  0
 19 17  2  0  0  0  0
 19 16  1  0  0  0  0
 21 10  1  0  0  0  0
 23 22  1  6  0  0  0
 23 25  1  0  0  0  0
 25 24  1  6  0  0  0
 26 22  1  0  0  0  0
 26 24  1  0  0  0  0
 26 21  1  0  0  0  0
 28 27  1  1  0  0  0
 28 23  1  0  0  0  0
 28 25  1  0  0  0  0
 29 28  1  0  0  0  0
 30 32  2  0  0  0  0
 31 29  1  0  0  0  0
 32 31  1  0  0  0  0
 33 32  1  0  0  0  0
 33 35  1  0  0  0  0
 35 34  1  6  0  0  0
 35 36  1  0  0  0  0
M  END
>  <MODEL>
5

>  <REMARK>
 VINA RESULT:      -7.3      3.681      6.156
  Name = 
  7 active torsions:
  status: ('A' for Active; 'I' for Inactive)
    1  A    between atoms: C_3  and  N_34
    2  A    between atoms: C_7  and  N_14
    3  A    between atoms: C_7  and  C_30
    4  A    between atoms: C_12  and  N_13
    5  A    between atoms: C_12  and  C_29
    6  A    between atoms: C_19  and  C_20
    7  A    between atoms: C_19  and  C_25
                            x       y       z     vdW  Elec       q    Type
                         _______ _______ _______ _____ _____    ______ ____

>  <TORSDO>
F 7

$$$$
=
 OpenBabel11062422263D

 36 41  0  0  1  0  0  0  0  0999 V2000
  188.6980  174.3610  142.2930 C   0  0  0  0  0  0  0  0  0  0  0  0
  189.9190  174.9890  142.4100 C   0  0  0  0  0  0  0  0  0  0  0  0
  189.3160  171.9850  142.5920 C   0  0  0  0  0  3  0  0  0  0  0  0
  187.7020  175.2600  142.4670 N   0  0  0  0  0  0  0  0  0  0  0  0
  187.1500  172.6040  141.9120 O   0  0  0  0  0  1  0  0  0  0  0  0
  189.6930  176.2880  142.6670 N   0  0  0  0  0  0  0  0  0  0  0  0
  191.2480  174.4010  142.1900 C   0  0  0  0  0  3  0  0  0  0  0  0
  188.3540  176.4160  142.7110 C   0  0  0  0  0  0  0  0  0  0  0  0
  188.4960  172.9630  141.8140 C   0  0  1  0  0  3  0  0  0  0  0  0
  191.5620  173.1020  142.2790 C   0  0  0  0  0  0  0  0  0  0  0  0
  190.6820  177.3370  142.8600 C   0  0  0  0  0  1  0  0  0  0  0  0
  190.6420  172.0370  142.7470 C   0  0  0  0  0  3  0  0  0  0  0  0
  187.6920  177.6560  142.9650 N   0  0  0  0  0  2  0  0  0  0  0  0
  186.2430  177.7560  142.9850 C   0  0  2  0  0  3  0  0  0  0  0  0
  184.9410  177.6930  146.2420 C   0  0  0  0  0  3  0  0  0  0  0  0
  185.0040  179.1450  145.9870 C   0  0  0  0  0  3  0  0  0  0  0  0
  185.8470  178.7390  143.9100 C   0  0  0  0  0  0  0  0  0  0  0  0
  185.7590  177.3240  144.2240 C   0  0  0  0  0  0  0  0  0  0  0  0
  185.4840  179.7360  144.7570 C   0  0  0  0  0  3  0  0  0  0  0  0
  185.3380  176.7200  145.3270 N   0  0  0  0  0  0  0  0  0  0  0  0
  192.9920  172.7360  142.0540 C   0  0  0  0  0  2  0  0  0  0  0  0
  193.6100  173.4330  144.2080 C   0  0  0  0  0  2  0  0  0  0  0  0
  194.5930  172.4170  144.7800 C   0  0  1  0  0  3  0  0  0  0  0  0
  195.2600  173.1710  142.5810 C   0  0  0  0  0  2  0  0  0  0  0  0
  195.6680  172.2470  143.7180 C   0  0  1  0  0  3  0  0  0  0  0  0
  193.8900  173.6250  142.7920 N   0  0  0  0  0  0  0  0  0  0  0  0
  196.8090  172.1470  145.9960 C   0  0  0  0  0  1  0  0  0  0  0  0
  195.9940  172.9680  145.0180 C   0  0  2  0  0  0  0  0  0  0  0  0
  196.1960  174.4860  145.0160 C   0  0  0  0  0  2  0  0  0  0  0  0
  194.5560  176.7990  144.7500 O   0  0  0  0  0  0  0  0  0  0  0  0
  195.4240  175.0920  146.0890 N   0  0  0  0  0  2  0  0  0  0  0  0
  194.6170  176.2550  145.8860 C   0  0  0  0  0  0  0  0  0  0  0  0
  193.8170  176.8090  147.0170 C   0  0  0  0  0  2  0  0  0  0  0  0
  191.5630  176.9620  148.1330 C   0  0  0  0  0  1  0  0  0  0  0  0
  192.3650  176.3490  146.9960 C   0  0  2  0  0  3  0  0  0  0  0  0
  192.2890  174.9570  147.0470 O   0  0  0  0  0  1  0  0  0  0  0  0
  1  2  2  0  0  0  0
  1  4  1  0  0  0  0
  2  6  1  0  0  0  0
  3 12  2  0  0  0  0
  4  8  2  0  0  0  0
  6  8  1  0  0  0  0
  6 11  1  0  0  0  0
  7 10  2  0  0  0  0
  7  2  1  0  0  0  0
  8 13  1  0  0  0  0
  9  5  1  1  0  0  0
  9  1  1  0  0  0  0
  9  3  1  0  0  0  0
 10 12  1  0  0  0  0
 14 13  1  1  0  0  0
 14 17  1  0  0  0  0
 14 18  1  0  0  0  0
 16 15  1  0  0  0  0
 17 18  2  0  0  0  0
 17 19  1  0  0  0  0
 18 20  1  0  0  0  0
 19 16  2  0  0  0  0
 20 15  2  0  0  0  0
 21 10  1  0  0  0  0
 21 26  1  0  0  0  0
 23 22  1  6  0  0  0
 23 28  1  0  0  0  0
 24 26  1  0  0  0  0
 25 24  1  6  0  0  0
 25 23  1  0  0  0  0
 25 28  1  0  0  0  0
 26 22  1  0  0  0  0
 28 27  1  1  0  0  0
 29 28  1  0  0  0  0
 29 31  1  0  0  0  0
 30 32  2  0  0  0  0
 32 31  1  0  0  0  0
 32 33  1  0  0  0  0
 35 33  1  0  0  0  0
 35 36  1  0  0  0  0
 35 34  1  1  0  0  0
M  END
>  <MODEL>
6

>  <REMARK>
 VINA RESULT:      -7.3      4.051      5.915
  Name = 
  7 active torsions:
  status: ('A' for Active; 'I' for Inactive)
    1  A    between atoms: C_3  and  N_34
    2  A    between atoms: C_7  and  N_14
    3  A    between atoms: C_7  and  C_30
    4  A    between atoms: C_12  and  N_13
    5  A    between atoms: C_12  and  C_29
    6  A    between atoms: C_19  and  C_20
    7  A    between atoms: C_19  and  C_25
                            x       y       z     vdW  Elec       q    Type
                         _______ _______ _______ _____ _____    ______ ____

>  <TORSDO>
F 7

$$$$
=
 OpenBabel11062422263D

 36 41  0  0  1  0  0  0  0  0999 V2000
  192.3540  175.5780  145.0080 C   0  0  0  0  0  0  0  0  0  0  0  0
  191.1380  175.3150  144.4130 C   0  0  0  0  0  0  0  0  0  0  0  0
  191.6980  175.9470  147.3640 C   0  0  0  0  0  3  0  0  0  0  0  0
  193.3570  175.1500  144.2090 N   0  0  0  0  0  0  0  0  0  0  0  0
  193.8870  176.3960  146.6230 O   0  0  0  0  0  1  0  0  0  0  0  0
  191.3750  174.7120  143.2370 N   0  0  0  0  0  0  0  0  0  0  0  0
  189.8060  175.7100  144.8950 C   0  0  0  0  0  3  0  0  0  0  0  0
  192.7140  174.6120  143.1500 C   0  0  0  0  0  0  0  0  0  0  0  0
  192.5470  176.4160  146.2270 C   0  0  1  0  0  3  0  0  0  0  0  0
  189.4740  175.9830  146.1640 C   0  0  0  0  0  0  0  0  0  0  0  0
  190.3960  174.2580  142.2620 C   0  0  0  0  0  1  0  0  0  0  0  0
  190.3700  175.8060  147.3320 C   0  0  0  0  0  3  0  0  0  0  0  0
  193.3880  174.0190  142.0380 N   0  0  0  0  0  2  0  0  0  0  0  0
  194.8360  173.9480  141.9740 C   0  0  2  0  0  3  0  0  0  0  0  0
  195.9980  173.1860  138.7520 C   0  0  0  0  0  3  0  0  0  0  0  0
  196.1030  174.6580  138.7530 C   0  0  0  0  0  3  0  0  0  0  0  0
  195.3010  174.7090  140.8850 C   0  0  0  0  0  0  0  0  0  0  0  0
  195.2230  173.2610  140.8180 C   0  0  0  0  0  0  0  0  0  0  0  0
  195.7380  175.5000  139.8710 C   0  0  0  0  0  3  0  0  0  0  0  0
  195.5320  172.4340  139.8280 N   0  0  0  0  0  0  0  0  0  0  0  0
  188.0440  176.3230  146.4280 C   0  0  0  0  0  2  0  0  0  0  0  0
  185.9400  176.2590  145.3920 C   0  0  0  0  0  2  0  0  0  0  0  0
  185.1510  177.4890  145.8260 C   0  0  1  0  0  3  0  0  0  0  0  0
  187.3460  178.0760  144.9980 C   0  0  0  0  0  2  0  0  0  0  0  0
  186.0690  178.6730  145.5690 C   0  0  1  0  0  3  0  0  0  0  0  0
  187.3330  176.6300  145.1870 N   0  0  0  0  0  0  0  0  0  0  0  0
  183.6910  179.4020  145.0050 C   0  0  0  0  0  1  0  0  0  0  0  0
  184.8400  178.4640  144.6960 C   0  0  2  0  0  0  0  0  0  0  0  0
  185.0070  177.9880  143.2500 C   0  0  0  0  0  2  0  0  0  0  0  0
  184.6760  178.4250  140.4550 O   0  0  0  0  0  0  0  0  0  0  0  0
  183.7300  178.0440  142.5570 N   0  0  0  0  0  2  0  0  0  0  0  0
  183.6350  178.2660  141.1480 C   0  0  0  0  0  0  0  0  0  0  0  0
  182.2970  178.2750  140.4870 C   0  0  0  0  0  2  0  0  0  0  0  0
  180.1200  177.9350  141.7090 C   0  0  0  0  0  1  0  0  0  0  0  0
  181.2170  178.9220  141.3470 C   0  0  2  0  0  3  0  0  0  0  0  0
  180.6750  180.0330  140.7010 O   0  0  0  0  0  1  0  0  0  0  0  0
  1  9  1  0  0  0  0
  2  7  1  0  0  0  0
  2  1  2  0  0  0  0
  4  1  1  0  0  0  0
  6  2  1  0  0  0  0
  7 10  2  0  0  0  0
  8  6  1  0  0  0  0
  8  4  2  0  0  0  0
  9  5  1  1  0  0  0
  9  3  1  0  0  0  0
 10 21  1  0  0  0  0
 10 12  1  0  0  0  0
 11  6  1  0  0  0  0
 12  3  2  0  0  0  0
 13  8  1  0  0  0  0
 14 13  1  6  0  0  0
 15 16  2  0  0  0  0
 15 20  1  0  0  0  0
 16 19  1  0  0  0  0
 17 14  1  0  0  0  0
 18 17  1  0  0  0  0
 18 14  1  0  0  0  0
 19 17  2  0  0  0  0
 20 18  2  0  0  0  0
 23 22  1  6  0  0  0
 24 26  1  0  0  0  0
 25 24  1  6  0  0  0
 25 23  1  0  0  0  0
 26 22  1  0  0  0  0
 26 21  1  0  0  0  0
 28 27  1  1  0  0  0
 28 25  1  0  0  0  0
 28 23  1  0  0  0  0
 29 28  1  0  0  0  0
 30 32  2  0  0  0  0
 31 29  1  0  0  0  0
 32 31  1  0  0  0  0
 33 32  1  0  0  0  0
 33 35  1  0  0  0  0
 35 34  1  6  0  0  0
 36 35  1  0  0  0  0
M  END
>  <MODEL>
7

>  <REMARK>
 VINA RESULT:      -7.1      3.210     11.368
  Name = 
  7 active torsions:
  status: ('A' for Active; 'I' for Inactive)
    1  A    between atoms: C_3  and  N_34
    2  A    between atoms: C_7  and  N_14
    3  A    between atoms: C_7  and  C_30
    4  A    between atoms: C_12  and  N_13
    5  A    between atoms: C_12  and  C_29
    6  A    between atoms: C_19  and  C_20
    7  A    between atoms: C_19  and  C_25
                            x       y       z     vdW  Elec       q    Type
                         _______ _______ _______ _____ _____    ______ ____

>  <TORSDO>
F 7

$$$$
=
 OpenBabel11062422263D

 36 41  0  0  1  0  0  0  0  0999 V2000
  195.4160  175.7580  142.4120 C   0  0  0  0  0  0  0  0  0  0  0  0
  194.1940  175.1680  142.1660 C   0  0  0  0  0  0  0  0  0  0  0  0
  195.4250  175.8980  144.8820 C   0  0  0  0  0  3  0  0  0  0  0  0
  196.2090  175.6410  141.3230 N   0  0  0  0  0  0  0  0  0  0  0  0
  197.0870  176.9570  143.5940 O   0  0  0  0  0  1  0  0  0  0  0  0
  194.2190  174.6710  140.9190 N   0  0  0  0  0  0  0  0  0  0  0  0
  193.0150  175.1630  143.0430 C   0  0  0  0  0  3  0  0  0  0  0  0
  195.4460  174.9550  140.4440 C   0  0  0  0  0  0  0  0  0  0  0  0
  195.7360  176.6010  143.6000 C   0  0  1  0  0  3  0  0  0  0  0  0
  193.0180  175.3150  144.3740 C   0  0  0  0  0  0  0  0  0  0  0  0
  193.1510  173.9690  140.2240 C   0  0  0  0  0  1  0  0  0  0  0  0
  194.2380  175.3860  145.2160 C   0  0  0  0  0  3  0  0  0  0  0  0
  195.8870  174.5910  139.1350 N   0  0  0  0  0  2  0  0  0  0  0  0
  197.2130  174.9340  138.6540 C   0  0  2  0  0  3  0  0  0  0  0  0
  197.8560  173.6360  135.4590 C   0  0  0  0  0  3  0  0  0  0  0  0
  197.4180  175.0050  135.1280 C   0  0  0  0  0  3  0  0  0  0  0  0
  197.1260  175.4430  137.3450 C   0  0  0  0  0  0  0  0  0  0  0  0
  197.5670  174.0830  137.6010 C   0  0  0  0  0  0  0  0  0  0  0  0
  197.0190  175.9920  136.1080 C   0  0  0  0  0  3  0  0  0  0  0  0
  197.9360  173.1320  136.7550 N   0  0  0  0  0  0  0  0  0  0  0  0
  191.6980  175.2330  145.0660 C   0  0  0  0  0  2  0  0  0  0  0  0
  189.4550  175.3240  144.3840 C   0  0  0  0  0  2  0  0  0  0  0  0
  188.6020  175.7240  145.5830 C   0  0  1  0  0  3  0  0  0  0  0  0
  190.4570  177.2410  145.2550 C   0  0  0  0  0  2  0  0  0  0  0  0
  189.2570  176.9730  146.1500 C   0  0  1  0  0  3  0  0  0  0  0  0
  190.7010  176.0780  144.4090 N   0  0  0  0  0  0  0  0  0  0  0  0
  186.7310  177.2560  146.3680 C   0  0  0  0  0  1  0  0  0  0  0  0
  187.9150  177.0760  145.4390 C   0  0  2  0  0  0  0  0  0  0  0  0
  187.8380  177.7170  144.0500 C   0  0  0  0  0  2  0  0  0  0  0  0
  185.8830  179.7370  143.5980 O   0  0  0  0  0  0  0  0  0  0  0  0
  186.5230  177.4940  143.4710 N   0  0  0  0  0  2  0  0  0  0  0  0
  185.5870  178.5560  143.2700 C   0  0  0  0  0  0  0  0  0  0  0  0
  184.2670  178.2710  142.6360 C   0  0  0  0  0  2  0  0  0  0  0  0
  182.9120  178.2310  140.5120 C   0  0  0  0  0  1  0  0  0  0  0  0
  184.2870  178.4440  141.1220 C   0  0  2  0  0  3  0  0  0  0  0  0
  185.2130  177.5780  140.5400 O   0  0  0  0  0  1  0  0  0  0  0  0
  1  9  1  0  0  0  0
  2  1  2  0  0  0  0
  2  7  1  0  0  0  0
  3 12  2  0  0  0  0
  4  1  1  0  0  0  0
  6  2  1  0  0  0  0
  7 10  2  0  0  0  0
  8  6  1  0  0  0  0
  8  4  2  0  0  0  0
  9  5  1  1  0  0  0
  9  3  1  0  0  0  0
 10 21  1  0  0  0  0
 10 12  1  0  0  0  0
 11  6  1  0  0  0  0
 13  8  1  0  0  0  0
 14 13  1  6  0  0  0
 15 20  1  0  0  0  0
 16 15  2  0  0  0  0
 16 19  1  0  0  0  0
 17 18  1  0  0  0  0
 17 14  1  0  0  0  0
 18 14  1  0  0  0  0
 19 17  2  0  0  0  0
 20 18  2  0  0  0  0
 22 26  1  0  0  0  0
 23 22  1  6  0  0  0
 23 25  1  0  0  0  0
 25 24  1  6  0  0  0
 26 21  1  0  0  0  0
 26 24  1  0  0  0  0
 28 23  1  0  0  0  0
 28 25  1  0  0  0  0
 28 27  1  1  0  0  0
 29 28  1  0  0  0  0
 31 29  1  0  0  0  0
 32 31  1  0  0  0  0
 32 30  2  0  0  0  0
 33 32  1  0  0  0  0
 35 34  1  6  0  0  0
 35 33  1  0  0  0  0
 36 35  1  0  0  0  0
M  END
>  <MODEL>
8

>  <REMARK>
 VINA RESULT:      -7.0      4.811     11.785
  Name = 
  7 active torsions:
  status: ('A' for Active; 'I' for Inactive)
    1  A    between atoms: C_3  and  N_34
    2  A    between atoms: C_7  and  N_14
    3  A    between atoms: C_7  and  C_30
    4  A    between atoms: C_12  and  N_13
    5  A    between atoms: C_12  and  C_29
    6  A    between atoms: C_19  and  C_20
    7  A    between atoms: C_19  and  C_25
                            x       y       z     vdW  Elec       q    Type
                         _______ _______ _______ _____ _____    ______ ____

>  <TORSDO>
F 7

$$$$
=
 OpenBabel11062422263D

 36 41  0  0  1  0  0  0  0  0999 V2000
  189.6790  175.8230  145.6820 C   0  0  0  0  0  0  0  0  0  0  0  0
  190.4960  176.4820  144.7890 C   0  0  0  0  0  0  0  0  0  0  0  0
  191.1470  175.6240  147.6640 C   0  0  0  0  0  3  0  0  0  0  0  0
  188.3900  175.9230  145.2850 N   0  0  0  0  0  0  0  0  0  0  0  0
  189.0760  174.5090  147.5640 O   0  0  0  0  0  1  0  0  0  0  0  0
  189.7190  177.0060  143.8280 N   0  0  0  0  0  0  0  0  0  0  0  0
  191.9650  176.5280  144.7920 C   0  0  0  0  0  3  0  0  0  0  0  0
  188.4600  176.6690  144.1610 C   0  0  0  0  0  0  0  0  0  0  0  0
  190.1540  174.9360  146.7830 C   0  0  1  0  0  3  0  0  0  0  0  0
  192.7600  176.3450  145.8550 C   0  0  0  0  0  0  0  0  0  0  0  0
  190.1430  177.7790  142.6710 C   0  0  0  0  0  1  0  0  0  0  0  0
  192.2850  176.1900  147.2520 C   0  0  0  0  0  3  0  0  0  0  0  0
  187.3160  177.0400  143.3900 N   0  0  0  0  0  2  0  0  0  0  0  0
  185.9750  176.6380  143.7740 C   0  0  2  0  0  3  0  0  0  0  0  0
  184.3750  179.0430  145.7670 C   0  0  0  0  0  3  0  0  0  0  0  0
  183.8530  179.3860  144.4310 C   0  0  0  0  0  3  0  0  0  0  0  0
  185.0730  177.6890  143.5230 C   0  0  0  0  0  0  0  0  0  0  0  0
  185.5480  177.4030  144.8650 C   0  0  0  0  0  0  0  0  0  0  0  0
  184.2070  178.6870  143.2140 C   0  0  0  0  0  3  0  0  0  0  0  0
  185.2720  178.0050  146.0150 N   0  0  0  0  0  0  0  0  0  0  0  0
  194.2290  176.4800  145.6310 C   0  0  0  0  0  2  0  0  0  0  0  0
  195.9600  176.7860  144.0760 C   0  0  0  0  0  2  0  0  0  0  0  0
  196.8100  175.5210  144.0460 C   0  0  1  0  0  3  0  0  0  0  0  0
  194.4590  175.0280  143.7740 C   0  0  0  0  0  2  0  0  0  0  0  0
  195.8300  174.3760  143.8500 C   0  0  1  0  0  3  0  0  0  0  0  0
  194.5570  176.4180  144.2070 N   0  0  0  0  0  0  0  0  0  0  0  0
  197.9380  173.8260  142.5230 C   0  0  0  0  0  1  0  0  0  0  0  0
  196.7700  174.7710  142.7200 C   0  0  2  0  0  0  0  0  0  0  0  0
  196.2160  175.4900  141.4870 C   0  0  0  0  0  2  0  0  0  0  0  0
  197.6980  175.6750  139.0620 O   0  0  0  0  0  0  0  0  0  0  0  0
  196.1160  174.5620  140.3720 N   0  0  0  0  0  2  0  0  0  0  0  0
  196.8930  174.7120  139.1810 C   0  0  0  0  0  0  0  0  0  0  0  0
  196.7740  173.7050  138.0860 C   0  0  0  0  0  2  0  0  0  0  0  0
  195.1240  175.0290  136.7180 C   0  0  0  0  0  1  0  0  0  0  0  0
  196.4760  174.3350  136.7310 C   0  0  2  0  0  3  0  0  0  0  0  0
  196.5380  173.3780  135.7190 O   0  0  0  0  0  1  0  0  0  0  0  0
  1  9  1  0  0  0  0
  2  7  1  0  0  0  0
  2  1  2  0  0  0  0
  4  1  1  0  0  0  0
  6  8  1  0  0  0  0
  6  2  1  0  0  0  0
  7 10  2  0  0  0  0
  8  4  2  0  0  0  0
  9  5  1  1  0  0  0
  9  3  1  0  0  0  0
 10 12  1  0  0  0  0
 11  6  1  0  0  0  0
 12  3  2  0  0  0  0
 13  8  1  0  0  0  0
 14 13  1  6  0  0  0
 14 18  1  0  0  0  0
 15 20  1  0  0  0  0
 16 15  2  0  0  0  0
 17 14  1  0  0  0  0
 17 18  1  0  0  0  0
 18 20  2  0  0  0  0
 19 17  2  0  0  0  0
 19 16  1  0  0  0  0
 21 10  1  0  0  0  0
 22 26  1  0  0  0  0
 23 22  1  6  0  0  0
 24 26  1  0  0  0  0
 25 24  1  6  0  0  0
 25 23  1  0  0  0  0
 26 21  1  0  0  0  0
 28 27  1  6  0  0  0
 28 25  1  0  0  0  0
 28 23  1  0  0  0  0
 29 28  1  0  0  0  0
 30 32  2  0  0  0  0
 31 29  1  0  0  0  0
 32 31  1  0  0  0  0
 33 32  1  0  0  0  0
 35 34  1  1  0  0  0
 35 33  1  0  0  0  0
 36 35  1  0  0  0  0
M  END
>  <MODEL>
9

>  <REMARK>
 VINA RESULT:      -6.9      3.811      6.691
  Name = 
  7 active torsions:
  status: ('A' for Active; 'I' for Inactive)
    1  A    between atoms: C_3  and  N_34
    2  A    between atoms: C_7  and  N_14
    3  A    between atoms: C_7  and  C_30
    4  A    between atoms: C_12  and  N_13
    5  A    between atoms: C_12  and  C_29
    6  A    between atoms: C_19  and  C_20
    7  A    between atoms: C_19  and  C_25
                            x       y       z     vdW  Elec       q    Type
                         _______ _______ _______ _____ _____    ______ ____

>  <TORSDO>
F 7

$$$$
