=
 OpenBabel11072409433D

 70 78  0  0  1  0  0  0  0  0999 V2000
  186.9290  175.4260  143.4200 O   0  0  0  0  0  0  0  0  0  0  0  0
  187.4990  176.4420  143.0590 C   0  0  0  0  0  0  0  0  0  0  0  0
  187.4170  177.0030  141.6910 C   0  0  2  0  0  0  0  0  0  0  0  0
  189.0730  178.1170  142.8360 C   0  0  0  0  0  2  0  0  0  0  0  0
  188.3060  178.1090  141.6490 O   0  0  0  0  0  0  0  0  0  0  0  0
  188.4650  177.1860  143.8760 C   0  0  2  0  0  3  0  0  0  0  0  0
  183.9990  178.1440  141.6460 C   0  0  0  0  0  0  0  0  0  0  0  0
  185.4940  177.6970  140.2120 C   0  0  0  0  0  3  0  0  0  0  0  0
  186.0380  177.4370  141.4200 N   0  0  0  0  0  0  0  0  0  0  0  0
  184.2180  178.1280  140.3200 N   0  0  0  0  0  0  0  0  0  0  0  0
  182.7720  178.5540  142.2370 N   0  0  0  0  0  1  0  0  0  0  0  0
  185.1050  177.7280  142.3470 C   0  0  0  0  0  3  0  0  0  0  0  0
  190.6250  177.1740  145.1500 C   0  0  0  0  0  1  0  0  0  0  0  0
  189.5080  176.2880  144.5970 C   0  0  1  0  0  0  0  0  0  0  0  0
  188.7120  175.4290  146.0430 S   0  0  0  0  0  0  0  0  0  0  0  0
  186.6580  179.1330  147.8520 C   0  0  0  0  0  3  0  0  0  0  0  0
  186.5170  177.0800  146.5700 C   0  0  0  0  0  0  0  0  0  0  0  0
  184.1870  178.4880  146.8860 Cl  0  0  0  0  0  0  0  0  0  0  0  0
  188.0300  178.9340  148.0210 C   0  0  0  0  0  3  0  0  0  0  0  0
  185.9020  178.2090  147.1260 C   0  0  0  0  0  0  0  0  0  0  0  0
  185.7770  176.2140  145.8330 F   0  0  0  0  0  0  0  0  0  0  0  0
  188.6460  177.8080  147.4700 C   0  0  0  0  0  3  0  0  0  0  0  0
  187.8910  176.8650  146.7620 C   0  0  0  0  0  0  0  0  0  0  0  0
  190.1000  175.3920  143.6610 O   0  0  0  0  0  0  0  0  0  0  0  0
  190.2630  174.0850  144.1790 C   0  0  0  0  0  2  0  0  0  0  0  0
  191.4950  173.5310  143.8120 O   0  0  0  0  0  0  0  0  0  0  0  0
  194.5180  175.3190  144.5080 N   0  0  0  0  0  2  0  0  0  0  0  0
  192.4380  174.2360  144.4870 N   0  0  0  0  0  2  0  0  0  0  0  0
  193.7440  174.4490  143.9500 C   0  0  0  0  0  0  0  0  0  0  0  0
  194.2120  173.6430  142.8580 N   0  0  0  0  0  2  0  0  0  0  0  0
  195.1150  176.2750  140.8470 C   0  0  0  0  0  1  0  0  0  0  0  0
  197.9380  173.7470  140.8930 C   0  0  0  0  0  2  0  0  0  0  0  0
  193.8860  174.9480  139.0890 C   0  0  0  0  0  1  0  0  0  0  0  0
  196.4730  174.8990  139.2280 C   0  0  1  0  0  3  0  0  0  0  0  0
  195.1320  175.0310  139.9670 C   0  0  0  0  0  0  0  0  0  0  0  0
  196.7400  173.5840  139.9500 C   0  0  2  0  0  3  0  0  0  0  0  0
  195.3900  173.7020  140.6760 C   0  0  1  0  0  3  0  0  0  0  0  0
  196.4730  172.6920  142.7280 C   0  0  0  0  0  2  0  0  0  0  0  0
  197.8640  172.7670  142.0730 C   0  0  0  0  0  2  0  0  0  0  0  0
  195.5180  173.7700  142.2130 C   0  0  2  0  0  3  0  0  0  0  0  0
  197.5840  174.7870  137.3120 C   0  0  0  0  0  1  0  0  0  0  0  0
  196.3100  174.6540  137.8600 O   0  0  0  0  0  0  0  0  0  0  0  0
  187.8690  175.9390  140.6780 C   0  0  0  0  0  2  0  0  0  0  0  0
  188.5700  174.7560  141.3260 C   0  0  0  0  0  2  0  0  0  0  0  0
  188.5250  173.5850  140.4480 N   0  0  0  0  0  2  0  0  0  0  0  0
  189.8160  173.3100  139.7940 C   0  0  0  0  0  0  0  0  0  0  0  0
  190.9680  174.0900  140.4250 C   0  0  0  0  0  1  0  0  0  0  0  0
  189.7190  173.8000  138.3600 C   0  0  0  0  0  1  0  0  0  0  0  0
  193.4430  168.9070  139.2560 O   0  0  0  0  0  0  0  0  0  0  0  0
  193.3510  170.0850  138.4730 C   0  0  0  0  0  2  0  0  0  0  0  0
  190.9930  171.3600  140.9520 C   0  0  0  0  0  0  0  0  0  0  0  0
  192.4690  169.6400  142.5420 C   0  0  0  0  0  0  0  0  0  0  0  0
  190.9910  171.3420  138.5610 C   0  0  2  0  0  3  0  0  0  0  0  0
  192.9460  170.0220  141.2790 C   0  0  0  0  0  0  0  0  0  0  0  0
  192.2320  170.9540  140.5430 C   0  0  0  0  0  0  0  0  0  0  0  0
  191.2330  170.1660  142.9800 C   0  0  0  0  0  3  0  0  0  0  0  0
  192.4310  171.1600  139.0970 C   0  0  1  0  0  3  0  0  0  0  0  0
  190.1570  171.8010  139.7920 C   0  0  2  0  0  3  0  0  0  0  0  0
  190.5000  170.9780  142.1620 N   0  0  0  0  0  0  0  0  0  0  0  0
  193.9820  169.2510  140.5160 C   0  0  0  0  0  2  0  0  0  0  0  0
  189.9830  169.1960  138.6950 O   0  0  0  0  0  0  0  0  0  0  0  0
  190.4060  170.0840  137.9700 C   0  0  0  0  0  0  0  0  0  0  0  0
  190.0940  171.2660  135.8250 C   0  0  0  0  0  1  0  0  0  0  0  0
  190.3430  169.9270  136.4870 C   0  0  0  0  0  2  0  0  0  0  0  0
  193.1820  168.7160  143.3140 O   0  0  0  0  0  0  0  0  0  0  0  0
  193.4730  168.9440  144.6130 O   0  0  0  0  0  0  0  0  0  0  0  0
  195.7330  169.4360  146.6100 C   0  0  0  0  0  2  0  0  0  0  0  0
  195.4810  168.2530  145.6940 C   0  0  0  0  0  2  0  0  0  0  0  0
  195.1140  170.3620  145.5800 C   0  0  0  0  0  2  0  0  0  0  0  0
  194.8550  169.1760  144.6670 C   0  0  0  0  0  3  0  0  0  0  0  0
  2  1  2  0  0  0  0
  2  6  1  0  0  0  0
  3 43  1  6  0  0  0
  3  2  1  0  0  0  0
  4  6  1  0  0  0  0
  5  3  1  0  0  0  0
  5  4  1  0  0  0  0
  6 14  1  6  0  0  0
  7 11  1  0  0  0  0
  7 12  2  0  0  0  0
  8 10  2  0  0  0  0
  8  9  1  0  0  0  0
  9  3  1  0  0  0  0
  9 12  1  0  0  0  0
 10  7  1  0  0  0  0
 14 13  1  1  0  0  0
 14 15  1  0  0  0  0
 15 23  1  0  0  0  0
 16 19  1  0  0  0  0
 17 23  2  0  0  0  0
 17 20  1  0  0  0  0
 18 20  1  0  0  0  0
 20 16  2  0  0  0  0
 21 17  1  0  0  0  0
 22 19  2  0  0  0  0
 23 22  1  0  0  0  0
 24 25  1  0  0  0  0
 24 14  1  0  0  0  0
 26 25  1  0  0  0  0
 26 28  1  0  0  0  0
 29 28  1  0  0  0  0
 29 27  2  0  0  0  0
 30 29  1  0  0  0  0
 32 39  1  0  0  0  0
 33 35  1  0  0  0  0
 34 42  1  6  0  0  0
 34 36  1  0  0  0  0
 34 35  1  0  0  0  0
 35 31  1  0  0  0  0
 36 37  1  0  0  0  0
 36 32  1  1  0  0  0
 37 35  1  6  0  0  0
 37 40  1  0  0  0  0
 39 38  1  0  0  0  0
 40 38  1  0  0  0  0
 40 30  1  1  0  0  0
 41 42  1  0  0  0  0
 43 44  1  0  0  0  0
 45 44  1  0  0  0  0
 46 47  1  0  0  0  0
 46 45  1  0  0  0  0
 48 46  1  0  0  0  0
 49 60  1  0  0  0  0
 50 49  1  0  0  0  0
 51 59  1  0  0  0  0
 52 56  1  0  0  0  0
 52 65  1  0  0  0  0
 53 62  1  1  0  0  0
 53 57  1  0  0  0  0
 53 58  1  0  0  0  0
 54 52  2  0  0  0  0
 55 51  2  0  0  0  0
 55 54  1  0  0  0  0
 57 50  1  6  0  0  0
 57 55  1  0  0  0  0
 58 46  1  6  0  0  0
 58 51  1  0  0  0  0
 59 56  2  0  0  0  0
 60 54  1  0  0  0  0
 62 61  2  0  0  0  0
 63 64  1  0  0  0  0
 64 62  1  0  0  0  0
 65 66  1  0  0  0  0
 66 70  1  0  0  0  0
 68 67  1  0  0  0  0
 69 67  1  0  0  0  0
 70 69  1  0  0  0  0
 70 68  1  0  0  0  0
M  END
>  <MODEL>
1

>  <REMARK>
 VINA RESULT:      -6.7      0.000      0.000
  Name = 
  20 active torsions:
  status: ('A' for Active; 'I' for Inactive)
    1  A    between atoms: C_1  and  N_57
    2  A    between atoms: C_1  and  C_63
    3  A    between atoms: O_6  and  C_40
    4  A    between atoms: O_8  and  O_13
    5  A    between atoms: O_8  and  C_53
    6  A    between atoms: O_13  and  C_23
    7  A    between atoms: N_21  and  C_49
    8  A    between atoms: N_24  and  O_44
    9  A    between atoms: S_25  and  C_39
   10  A    between atoms: S_25  and  C_61
   11  A    between atoms: C_27  and  C_58
   12  A    between atoms: C_28  and  O_34
   13  A    between atoms: C_28  and  O_44
   14  A    between atoms: O_34  and  C_61
   15  A    between atoms: C_43  and  C_58
   16  A    between atoms: C_49  and  C_69
   17  A    between atoms: C_51  and  N_57
   18  A    between atoms: C_51  and  C_69
   19  A    between atoms: C_61  and  C_66
   20  A    between atoms: N_64  and  C_65
                            x       y       z     vdW  Elec       q    Type
                         _______ _______ _______ _____ _____    ______ ____

>  <TORSDO>
F 20

$$$$
=
 OpenBabel11072409433D

 70 78  0  0  1  0  0  0  0  0999 V2000
  193.2360  174.9440  142.2150 O   0  0  0  0  0  0  0  0  0  0  0  0
  193.1850  174.2780  143.2360 C   0  0  0  0  0  0  0  0  0  0  0  0
  191.9270  173.8220  143.8700 C   0  0  2  0  0  0  0  0  0  0  0  0
  193.6630  173.4210  145.3260 C   0  0  0  0  0  2  0  0  0  0  0  0
  192.2900  173.1860  145.0870 O   0  0  0  0  0  0  0  0  0  0  0  0
  194.3450  173.9500  144.0720 C   0  0  2  0  0  3  0  0  0  0  0  0
  190.5640  171.7900  141.2230 C   0  0  0  0  0  0  0  0  0  0  0  0
  190.5140  171.7980  143.3430 C   0  0  0  0  0  3  0  0  0  0  0  0
  191.2420  172.8750  142.9770 N   0  0  0  0  0  0  0  0  0  0  0  0
  190.0670  171.1080  142.2700 N   0  0  0  0  0  0  0  0  0  0  0  0
  190.3590  171.4120  139.8680 N   0  0  0  0  0  1  0  0  0  0  0  0
  191.2960  172.8800  141.6310 C   0  0  0  0  0  3  0  0  0  0  0  0
  194.9910  175.7250  145.7220 C   0  0  0  0  0  1  0  0  0  0  0  0
  195.2940  175.1510  144.3360 C   0  0  1  0  0  0  0  0  0  0  0  0
  197.0620  174.5700  144.3510 S   0  0  0  0  0  0  0  0  0  0  0  0
  196.2810  170.0330  144.2150 C   0  0  0  0  0  3  0  0  0  0  0  0
  196.7860  172.0310  145.4920 C   0  0  0  0  0  0  0  0  0  0  0  0
  196.6090  169.6890  146.9030 Cl  0  0  0  0  0  0  0  0  0  0  0  0
  196.2590  170.7890  143.0400 C   0  0  0  0  0  3  0  0  0  0  0  0
  196.5460  170.6520  145.4390 C   0  0  0  0  0  0  0  0  0  0  0  0
  197.0830  172.6100  146.6820 F   0  0  0  0  0  0  0  0  0  0  0  0
  196.4960  172.1640  143.0890 C   0  0  0  0  0  3  0  0  0  0  0  0
  196.7390  172.7960  144.3150 C   0  0  0  0  0  0  0  0  0  0  0  0
  195.0440  176.1810  143.3860 O   0  0  0  0  0  0  0  0  0  0  0  0
  196.2270  176.6790  142.7900 C   0  0  0  0  0  2  0  0  0  0  0  0
  196.1330  176.7080  141.3940 O   0  0  0  0  0  0  0  0  0  0  0  0
  197.6310  174.0730  139.4870 N   0  0  0  0  0  2  0  0  0  0  0  0
  197.0560  175.8220  140.9390 N   0  0  0  0  0  2  0  0  0  0  0  0
  196.6980  174.7370  140.0840 C   0  0  0  0  0  0  0  0  0  0  0  0
  195.3240  174.3420  139.9610 N   0  0  0  0  0  2  0  0  0  0  0  0
  195.3930  174.4060  136.5290 C   0  0  0  0  0  1  0  0  0  0  0  0
  193.6470  171.2380  137.6570 C   0  0  0  0  0  2  0  0  0  0  0  0
  193.2740  175.7410  136.8210 C   0  0  0  0  0  1  0  0  0  0  0  0
  193.1900  173.2230  136.2110 C   0  0  1  0  0  3  0  0  0  0  0  0
  193.9240  174.3640  136.9320 C   0  0  0  0  0  0  0  0  0  0  0  0
  192.8920  172.5680  137.5550 C   0  0  2  0  0  3  0  0  0  0  0  0
  193.6090  173.7180  138.2810 C   0  0  1  0  0  3  0  0  0  0  0  0
  194.4790  172.0360  139.9600 C   0  0  0  0  0  2  0  0  0  0  0  0
  193.9370  170.8660  139.1190 C   0  0  0  0  0  2  0  0  0  0  0  0
  194.8260  173.2610  139.1120 C   0  0  2  0  0  3  0  0  0  0  0  0
  191.0750  172.6320  135.9020 C   0  0  0  0  0  1  0  0  0  0  0  0
  191.9910  173.6440  135.6240 O   0  0  0  0  0  0  0  0  0  0  0  0
  191.0370  175.0390  144.1700 C   0  0  0  0  0  2  0  0  0  0  0  0
  191.1300  176.1230  143.1080 C   0  0  0  0  0  2  0  0  0  0  0  0
  189.8380  176.3120  142.4480 N   0  0  0  0  0  2  0  0  0  0  0  0
  189.1150  177.5000  142.9330 C   0  0  0  0  0  0  0  0  0  0  0  0
  188.8760  178.5290  141.8300 C   0  0  0  0  0  1  0  0  0  0  0  0
  189.9980  178.1890  143.9590 C   0  0  0  0  0  1  0  0  0  0  0  0
  184.3250  178.7860  145.8020 O   0  0  0  0  0  0  0  0  0  0  0  0
  185.6470  179.2470  146.0240 C   0  0  0  0  0  2  0  0  0  0  0  0
  186.5650  177.6560  142.8700 C   0  0  0  0  0  0  0  0  0  0  0  0
  183.8910  178.1720  142.3780 C   0  0  0  0  0  0  0  0  0  0  0  0
  187.5870  177.6970  145.0310 C   0  0  2  0  0  3  0  0  0  0  0  0
  184.5470  178.7970  143.4500 C   0  0  0  0  0  0  0  0  0  0  0  0
  185.9070  178.5910  143.6170 C   0  0  0  0  0  0  0  0  0  0  0  0
  184.6310  177.2920  141.5570 C   0  0  0  0  0  3  0  0  0  0  0  0
  186.6170  178.8920  144.8740 C   0  0  1  0  0  3  0  0  0  0  0  0
  187.7650  177.1300  143.5930 C   0  0  2  0  0  3  0  0  0  0  0  0
  185.9380  177.0170  141.8430 N   0  0  0  0  0  0  0  0  0  0  0  0
  183.8330  179.3950  144.6240 C   0  0  0  0  0  2  0  0  0  0  0  0
  186.0580  176.0030  145.6880 O   0  0  0  0  0  0  0  0  0  0  0  0
  187.0750  176.6250  145.9580 C   0  0  0  0  0  0  0  0  0  0  0  0
  188.7720  175.1630  146.9950 C   0  0  0  0  0  1  0  0  0  0  0  0
  187.8210  176.3190  147.2150 C   0  0  0  0  0  2  0  0  0  0  0  0
  182.5220  178.3800  142.1740 O   0  0  0  0  0  0  0  0  0  0  0  0
  182.0570  179.1150  141.1420 O   0  0  0  0  0  0  0  0  0  0  0  0
  179.2760  179.2640  139.8830 C   0  0  0  0  0  2  0  0  0  0  0  0
  179.8140  178.3330  140.9550 C   0  0  0  0  0  2  0  0  0  0  0  0
  180.1840  180.3670  140.3900 C   0  0  0  0  0  2  0  0  0  0  0  0
  180.7290  179.4330  141.4570 C   0  0  0  0  0  3  0  0  0  0  0  0
  1  2  2  0  0  0  0
  2  3  1  0  0  0  0
  2  6  1  0  0  0  0
  3 43  1  1  0  0  0
  3  5  1  0  0  0  0
  5  4  1  0  0  0  0
  6 14  1  1  0  0  0
  6  4  1  0  0  0  0
  7 12  2  0  0  0  0
  7 10  1  0  0  0  0
  9  8  1  0  0  0  0
  9  3  1  0  0  0  0
 10  8  2  0  0  0  0
 11  7  1  0  0  0  0
 12  9  1  0  0  0  0
 14 15  1  0  0  0  0
 14 13  1  1  0  0  0
 16 20  1  0  0  0  0
 17 21  1  0  0  0  0
 19 22  1  0  0  0  0
 19 16  2  0  0  0  0
 20 17  2  0  0  0  0
 20 18  1  0  0  0  0
 22 23  2  0  0  0  0
 23 15  1  0  0  0  0
 23 17  1  0  0  0  0
 24 14  1  0  0  0  0
 25 24  1  0  0  0  0
 26 25  1  0  0  0  0
 27 29  2  0  0  0  0
 28 26  1  0  0  0  0
 29 28  1  0  0  0  0
 30 29  1  0  0  0  0
 31 35  1  0  0  0  0
 32 39  1  0  0  0  0
 33 35  1  0  0  0  0
 34 42  1  1  0  0  0
 34 35  1  0  0  0  0
 34 36  1  0  0  0  0
 36 32  1  6  0  0  0
 36 37  1  0  0  0  0
 37 35  1  6  0  0  0
 37 40  1  0  0  0  0
 39 38  1  0  0  0  0
 40 38  1  0  0  0  0
 40 30  1  1  0  0  0
 42 41  1  0  0  0  0
 44 43  1  0  0  0  0
 45 46  1  0  0  0  0
 45 44  1  0  0  0  0
 46 48  1  0  0  0  0
 47 46  1  0  0  0  0
 49 50  1  0  0  0  0
 51 58  1  0  0  0  0
 51 55  1  0  0  0  0
 52 54  1  0  0  0  0
 53 62  1  1  0  0  0
 54 55  2  0  0  0  0
 54 60  1  0  0  0  0
 55 57  1  0  0  0  0
 56 59  1  0  0  0  0
 56 52  2  0  0  0  0
 57 53  1  0  0  0  0
 57 50  1  1  0  0  0
 58 46  1  6  0  0  0
 58 53  1  0  0  0  0
 59 51  2  0  0  0  0
 60 49  1  0  0  0  0
 61 62  2  0  0  0  0
 62 64  1  0  0  0  0
 63 64  1  0  0  0  0
 65 52  1  0  0  0  0
 66 70  1  0  0  0  0
 66 65  1  0  0  0  0
 67 69  1  0  0  0  0
 67 68  1  0  0  0  0
 68 70  1  0  0  0  0
 69 70  1  0  0  0  0
M  END
>  <MODEL>
2

>  <REMARK>
 VINA RESULT:      -6.6      3.608      9.774
  Name = 
  20 active torsions:
  status: ('A' for Active; 'I' for Inactive)
    1  A    between atoms: C_1  and  N_57
    2  A    between atoms: C_1  and  C_63
    3  A    between atoms: O_6  and  C_40
    4  A    between atoms: O_8  and  O_13
    5  A    between atoms: O_8  and  C_53
    6  A    between atoms: O_13  and  C_23
    7  A    between atoms: N_21  and  C_49
    8  A    between atoms: N_24  and  O_44
    9  A    between atoms: S_25  and  C_39
   10  A    between atoms: S_25  and  C_61
   11  A    between atoms: C_27  and  C_58
   12  A    between atoms: C_28  and  O_34
   13  A    between atoms: C_28  and  O_44
   14  A    between atoms: O_34  and  C_61
   15  A    between atoms: C_43  and  C_58
   16  A    between atoms: C_49  and  C_69
   17  A    between atoms: C_51  and  N_57
   18  A    between atoms: C_51  and  C_69
   19  A    between atoms: C_61  and  C_66
   20  A    between atoms: N_64  and  C_65
                            x       y       z     vdW  Elec       q    Type
                         _______ _______ _______ _____ _____    ______ ____

>  <TORSDO>
F 20

$$$$
=
 OpenBabel11072409433D

 70 78  0  0  1  0  0  0  0  0999 V2000
  192.1820  172.0400  143.9550 O   0  0  0  0  0  0  0  0  0  0  0  0
  191.7780  173.0450  143.3930 C   0  0  0  0  0  0  0  0  0  0  0  0
  191.4910  174.3250  144.0790 C   0  0  2  0  0  0  0  0  0  0  0  0
  190.6730  174.4510  141.9330 C   0  0  0  0  0  2  0  0  0  0  0  0
  190.9350  175.1950  143.1060 O   0  0  0  0  0  0  0  0  0  0  0  0
  191.3760  173.1020  141.9830 C   0  0  2  0  0  3  0  0  0  0  0  0
  194.5270  176.0810  144.9090 C   0  0  0  0  0  0  0  0  0  0  0  0
  193.2920  174.6200  145.8220 C   0  0  0  0  0  3  0  0  0  0  0  0
  192.7410  174.8840  144.6180 N   0  0  0  0  0  0  0  0  0  0  0  0
  194.4150  175.3430  146.0280 N   0  0  0  0  0  0  0  0  0  0  0  0
  195.5720  177.0190  144.6870 N   0  0  0  0  0  1  0  0  0  0  0  0
  193.5070  175.8220  144.0270 C   0  0  0  0  0  3  0  0  0  0  0  0
  189.5150  171.5650  142.6630 C   0  0  0  0  0  1  0  0  0  0  0  0
  190.4830  171.9140  141.5310 C   0  0  1  0  0  0  0  0  0  0  0  0
  189.4600  172.4140  140.0600 S   0  0  0  0  0  0  0  0  0  0  0  0
  191.5630  169.8530  136.8610 C   0  0  0  0  0  3  0  0  0  0  0  0
  191.5560  171.7930  138.3140 C   0  0  0  0  0  0  0  0  0  0  0  0
  193.7480  171.4830  136.7000 Cl  0  0  0  0  0  0  0  0  0  0  0  0
  190.3050  169.4850  137.3460 C   0  0  0  0  0  3  0  0  0  0  0  0
  192.1870  171.0070  137.3420 C   0  0  0  0  0  0  0  0  0  0  0  0
  192.1560  172.9330  138.7410 F   0  0  0  0  0  0  0  0  0  0  0  0
  189.6740  170.2660  138.3160 C   0  0  0  0  0  3  0  0  0  0  0  0
  190.3030  171.4100  138.8210 C   0  0  0  0  0  0  0  0  0  0  0  0
  191.2920  170.7650  141.2960 O   0  0  0  0  0  0  0  0  0  0  0  0
  190.7690  169.5930  141.8910 C   0  0  0  0  0  2  0  0  0  0  0  0
  191.7720  168.6530  142.1540 O   0  0  0  0  0  0  0  0  0  0  0  0
  194.6030  168.9610  139.9850 N   0  0  0  0  0  2  0  0  0  0  0  0
  192.5380  168.6000  141.0350 N   0  0  0  0  0  2  0  0  0  0  0  0
  193.8140  169.2380  140.9680 C   0  0  0  0  0  0  0  0  0  0  0  0
  194.1700  170.2350  141.9370 N   0  0  0  0  0  2  0  0  0  0  0  0
  196.6920  169.5170  144.1540 C   0  0  0  0  0  1  0  0  0  0  0  0
  197.6980  172.5350  142.0950 C   0  0  0  0  0  2  0  0  0  0  0  0
  195.3220  170.9640  145.7000 C   0  0  0  0  0  1  0  0  0  0  0  0
  197.4140  171.9090  144.4970 C   0  0  1  0  0  3  0  0  0  0  0  0
  196.2270  170.9340  144.4710 C   0  0  0  0  0  0  0  0  0  0  0  0
  196.8030  172.6790  143.3320 C   0  0  2  0  0  3  0  0  0  0  0  0
  195.6050  171.7170  143.3160 C   0  0  1  0  0  3  0  0  0  0  0  0
  195.5710  171.8960  140.7920 C   0  0  0  0  0  2  0  0  0  0  0  0
  196.8910  172.6870  140.7960 C   0  0  0  0  0  2  0  0  0  0  0  0
  195.4460  170.9490  141.9860 C   0  0  2  0  0  3  0  0  0  0  0  0
  197.6490  174.0090  145.1670 C   0  0  0  0  0  1  0  0  0  0  0  0
  197.4170  172.7190  145.6380 O   0  0  0  0  0  0  0  0  0  0  0  0
  190.4670  174.0830  145.2000 C   0  0  0  0  0  2  0  0  0  0  0  0
  189.9260  175.3690  145.8030 C   0  0  0  0  0  2  0  0  0  0  0  0
  188.4670  175.4190  145.6900 N   0  0  0  0  0  2  0  0  0  0  0  0
  187.9130  176.7470  146.0040 C   0  0  0  0  0  0  0  0  0  0  0  0
  188.7720  177.5160  147.0060 C   0  0  0  0  0  1  0  0  0  0  0  0
  186.5710  176.5380  146.6820 C   0  0  0  0  0  1  0  0  0  0  0  0
  186.5770  177.4310  140.4740 O   0  0  0  0  0  0  0  0  0  0  0  0
  187.3500  176.4110  141.0840 C   0  0  0  0  0  2  0  0  0  0  0  0
  186.2820  177.7470  144.3090 C   0  0  0  0  0  0  0  0  0  0  0  0
  184.1380  178.5250  142.7420 C   0  0  0  0  0  0  0  0  0  0  0  0
  188.4020  177.0330  143.4630 C   0  0  2  0  0  3  0  0  0  0  0  0
  185.0480  177.5660  142.2700 C   0  0  0  0  0  0  0  0  0  0  0  0
  186.0590  177.1290  143.1110 C   0  0  0  0  0  0  0  0  0  0  0  0
  184.3370  179.0640  144.0320 C   0  0  0  0  0  3  0  0  0  0  0  0
  187.2550  176.4160  142.6270 C   0  0  1  0  0  3  0  0  0  0  0  0
  187.7100  177.6070  144.7330 C   0  0  2  0  0  3  0  0  0  0  0  0
  185.4260  178.6990  144.7710 N   0  0  0  0  0  0  0  0  0  0  0  0
  185.2210  177.2290  140.8200 C   0  0  0  0  0  2  0  0  0  0  0  0
  188.5580  179.0260  142.1810 O   0  0  0  0  0  0  0  0  0  0  0  0
  189.1570  178.1190  142.7400 C   0  0  0  0  0  0  0  0  0  0  0  0
  191.2170  178.8120  143.9090 C   0  0  0  0  0  1  0  0  0  0  0  0
  190.6490  178.0840  142.7090 C   0  0  0  0  0  2  0  0  0  0  0  0
  183.0950  178.9670  141.9200 O   0  0  0  0  0  0  0  0  0  0  0  0
  182.0440  178.1790  141.6120 O   0  0  0  0  0  0  0  0  0  0  0  0
  179.2720  178.7960  140.4820 C   0  0  0  0  0  2  0  0  0  0  0  0
  179.6680  178.0570  141.7480 C   0  0  0  0  0  2  0  0  0  0  0  0
  180.4950  179.6820  140.6210 C   0  0  0  0  0  2  0  0  0  0  0  0
  180.8960  178.9360  141.8820 C   0  0  0  0  0  3  0  0  0  0  0  0
  2  1  2  0  0  0  0
  2  3  1  0  0  0  0
  3  9  1  0  0  0  0
  3 43  1  1  0  0  0
  4  6  1  0  0  0  0
  4  5  1  0  0  0  0
  5  3  1  0  0  0  0
  6 14  1  1  0  0  0
  6  2  1  0  0  0  0
  7 10  1  0  0  0  0
  8 10  2  0  0  0  0
  9  8  1  0  0  0  0
 11  7  1  0  0  0  0
 12  9  1  0  0  0  0
 12  7  2  0  0  0  0
 14 13  1  1  0  0  0
 15 14  1  0  0  0  0
 16 20  2  0  0  0  0
 16 19  1  0  0  0  0
 17 21  1  0  0  0  0
 17 23  2  0  0  0  0
 18 20  1  0  0  0  0
 19 22  2  0  0  0  0
 20 17  1  0  0  0  0
 22 23  1  0  0  0  0
 23 15  1  0  0  0  0
 24 14  1  0  0  0  0
 24 25  1  0  0  0  0
 25 26  1  0  0  0  0
 27 29  2  0  0  0  0
 28 26  1  0  0  0  0
 29 28  1  0  0  0  0
 29 30  1  0  0  0  0
 31 35  1  0  0  0  0
 34 42  1  1  0  0  0
 35 34  1  0  0  0  0
 35 33  1  0  0  0  0
 36 32  1  6  0  0  0
 36 34  1  0  0  0  0
 37 36  1  0  0  0  0
 37 35  1  1  0  0  0
 38 39  1  0  0  0  0
 38 40  1  0  0  0  0
 39 32  1  0  0  0  0
 40 30  1  1  0  0  0
 40 37  1  0  0  0  0
 41 42  1  0  0  0  0
 43 44  1  0  0  0  0
 45 44  1  0  0  0  0
 45 46  1  0  0  0  0
 46 48  1  0  0  0  0
 46 47  1  0  0  0  0
 49 60  1  0  0  0  0
 49 50  1  0  0  0  0
 51 58  1  0  0  0  0
 51 59  1  0  0  0  0
 52 56  1  0  0  0  0
 53 62  1  6  0  0  0
 53 58  1  0  0  0  0
 54 52  2  0  0  0  0
 54 55  1  0  0  0  0
 55 51  2  0  0  0  0
 56 59  2  0  0  0  0
 57 50  1  6  0  0  0
 57 55  1  0  0  0  0
 57 53  1  0  0  0  0
 58 46  1  1  0  0  0
 60 54  1  0  0  0  0
 61 62  2  0  0  0  0
 64 62  1  0  0  0  0
 64 63  1  0  0  0  0
 65 52  1  0  0  0  0
 66 70  1  0  0  0  0
 66 65  1  0  0  0  0
 67 69  1  0  0  0  0
 67 68  1  0  0  0  0
 68 70  1  0  0  0  0
 69 70  1  0  0  0  0
M  END
>  <MODEL>
3

>  <REMARK>
 VINA RESULT:      -6.4      3.303      9.714
  Name = 
  20 active torsions:
  status: ('A' for Active; 'I' for Inactive)
    1  A    between atoms: C_1  and  N_57
    2  A    between atoms: C_1  and  C_63
    3  A    between atoms: O_6  and  C_40
    4  A    between atoms: O_8  and  O_13
    5  A    between atoms: O_8  and  C_53
    6  A    between atoms: O_13  and  C_23
    7  A    between atoms: N_21  and  C_49
    8  A    between atoms: N_24  and  O_44
    9  A    between atoms: S_25  and  C_39
   10  A    between atoms: S_25  and  C_61
   11  A    between atoms: C_27  and  C_58
   12  A    between atoms: C_28  and  O_34
   13  A    between atoms: C_28  and  O_44
   14  A    between atoms: O_34  and  C_61
   15  A    between atoms: C_43  and  C_58
   16  A    between atoms: C_49  and  C_69
   17  A    between atoms: C_51  and  N_57
   18  A    between atoms: C_51  and  C_69
   19  A    between atoms: C_61  and  C_66
   20  A    between atoms: N_64  and  C_65
                            x       y       z     vdW  Elec       q    Type
                         _______ _______ _______ _____ _____    ______ ____

>  <TORSDO>
F 20

$$$$
=
 OpenBabel11072409433D

 70 78  0  0  1  0  0  0  0  0999 V2000
  192.5080  172.6730  139.8510 O   0  0  0  0  0  0  0  0  0  0  0  0
  191.7640  172.2380  140.7130 C   0  0  0  0  0  0  0  0  0  0  0  0
  190.5750  172.9560  141.2290 C   0  0  2  0  0  0  0  0  0  0  0  0
  190.9770  171.1440  142.5880 C   0  0  0  0  0  2  0  0  0  0  0  0
  190.0550  172.1740  142.2940 O   0  0  0  0  0  0  0  0  0  0  0  0
  192.0070  171.0080  141.4760 C   0  0  2  0  0  3  0  0  0  0  0  0
  188.5300  173.7220  138.3620 C   0  0  0  0  0  0  0  0  0  0  0  0
  188.5150  172.2960  139.9310 C   0  0  0  0  0  3  0  0  0  0  0  0
  189.5810  173.0940  140.1550 N   0  0  0  0  0  0  0  0  0  0  0  0
  187.8330  172.6700  138.8260 N   0  0  0  0  0  0  0  0  0  0  0  0
  188.1830  174.4390  137.1850 N   0  0  0  0  0  1  0  0  0  0  0  0
  189.6140  174.0010  139.1590 C   0  0  0  0  0  3  0  0  0  0  0  0
  193.5700  171.4990  143.3750 C   0  0  0  0  0  1  0  0  0  0  0  0
  193.4650  170.8600  141.9890 C   0  0  1  0  0  0  0  0  0  0  0  0
  193.8930  169.0590  142.1740 S   0  0  0  0  0  0  0  0  0  0  0  0
  196.2470  169.4290  146.1150 C   0  0  0  0  0  3  0  0  0  0  0  0
  194.2100  168.8350  144.9450 C   0  0  0  0  0  0  0  0  0  0  0  0
  194.1900  168.5260  147.6670 Cl  0  0  0  0  0  0  0  0  0  0  0  0
  196.8360  169.7980  144.9030 C   0  0  0  0  0  3  0  0  0  0  0  0
  194.9350  168.9490  146.1370 C   0  0  0  0  0  0  0  0  0  0  0  0
  192.9220  168.4070  144.9870 F   0  0  0  0  0  0  0  0  0  0  0  0
  196.1160  169.6820  143.7130 C   0  0  0  0  0  3  0  0  0  0  0  0
  194.8090  169.1810  143.7230 C   0  0  0  0  0  0  0  0  0  0  0  0
  194.3530  171.5670  141.1280 O   0  0  0  0  0  0  0  0  0  0  0  0
  195.4320  172.1650  141.8220 C   0  0  0  0  0  2  0  0  0  0  0  0
  196.0170  173.1980  141.0800 O   0  0  0  0  0  0  0  0  0  0  0  0
  194.0650  176.1230  141.7540 N   0  0  0  0  0  2  0  0  0  0  0  0
  195.0640  174.1570  140.9580 N   0  0  0  0  0  2  0  0  0  0  0  0
  194.7990  175.0910  142.0050 C   0  0  0  0  0  0  0  0  0  0  0  0
  195.2750  174.8330  143.3340 N   0  0  0  0  0  2  0  0  0  0  0  0
  194.0670  173.7850  146.3720 C   0  0  0  0  0  1  0  0  0  0  0  0
  194.5700  177.5390  146.4870 C   0  0  0  0  0  2  0  0  0  0  0  0
  191.8360  174.0660  145.2310 C   0  0  0  0  0  1  0  0  0  0  0  0
  192.7420  175.8760  146.8500 C   0  0  1  0  0  3  0  0  0  0  0  0
  193.0510  174.7780  145.8210 C   0  0  0  0  0  0  0  0  0  0  0  0
  193.2960  176.9250  145.8950 C   0  0  2  0  0  3  0  0  0  0  0  0
  193.5890  175.8330  144.8540 C   0  0  1  0  0  3  0  0  0  0  0  0
  195.6880  177.0900  144.2110 C   0  0  0  0  0  2  0  0  0  0  0  0
  195.5050  178.0660  145.3870 C   0  0  0  0  0  2  0  0  0  0  0  0
  195.0830  175.7130  144.4860 C   0  0  2  0  0  3  0  0  0  0  0  0
  191.2480  176.7620  148.2290 C   0  0  0  0  0  1  0  0  0  0  0  0
  191.3670  176.0800  147.0200 O   0  0  0  0  0  0  0  0  0  0  0  0
  191.0050  174.3330  141.7630 C   0  0  0  0  0  2  0  0  0  0  0  0
  189.9440  174.9970  142.6250 C   0  0  0  0  0  2  0  0  0  0  0  0
  189.3560  176.1430  141.9290 N   0  0  0  0  0  2  0  0  0  0  0  0
  188.9970  177.2440  142.8400 C   0  0  0  0  0  0  0  0  0  0  0  0
  188.9950  178.6020  142.1420 C   0  0  0  0  0  1  0  0  0  0  0  0
  190.0720  177.3260  143.9080 C   0  0  0  0  0  1  0  0  0  0  0  0
  184.4170  178.9990  145.8030 O   0  0  0  0  0  0  0  0  0  0  0  0
  185.7850  179.3120  146.0090 C   0  0  0  0  0  2  0  0  0  0  0  0
  186.4770  177.6730  142.8210 C   0  0  0  0  0  0  0  0  0  0  0  0
  183.8670  178.4800  142.3800 C   0  0  0  0  0  0  0  0  0  0  0  0
  187.5310  177.5760  144.9650 C   0  0  2  0  0  3  0  0  0  0  0  0
  184.6030  179.0170  143.4480 C   0  0  0  0  0  0  0  0  0  0  0  0
  185.9350  178.6640  143.5900 C   0  0  0  0  0  0  0  0  0  0  0  0
  184.4950  177.5370  141.5370 C   0  0  0  0  0  3  0  0  0  0  0  0
  186.6930  178.8700  144.8380 C   0  0  1  0  0  3  0  0  0  0  0  0
  187.6250  177.0120  143.5180 C   0  0  2  0  0  3  0  0  0  0  0  0
  185.7690  177.1200  141.7980 N   0  0  0  0  0  0  0  0  0  0  0  0
  183.9760  179.6730  144.6410 C   0  0  0  0  0  2  0  0  0  0  0  0
  185.8420  176.0420  145.6250 O   0  0  0  0  0  0  0  0  0  0  0  0
  186.9210  176.5520  145.8890 C   0  0  0  0  0  0  0  0  0  0  0  0
  188.5660  174.9890  146.8610 C   0  0  0  0  0  1  0  0  0  0  0  0
  187.6450  176.1590  147.1340 C   0  0  0  0  0  2  0  0  0  0  0  0
  182.5260  178.8370  142.2020 O   0  0  0  0  0  0  0  0  0  0  0  0
  181.7890  178.3580  141.1770 O   0  0  0  0  0  0  0  0  0  0  0  0
  179.1310  179.3130  140.0080 C   0  0  0  0  0  2  0  0  0  0  0  0
  179.5480  177.9340  140.4860 C   0  0  0  0  0  2  0  0  0  0  0  0
  180.0250  179.9440  141.0590 C   0  0  0  0  0  2  0  0  0  0  0  0
  180.4480  178.5640  141.5310 C   0  0  0  0  0  3  0  0  0  0  0  0
  1  2  2  0  0  0  0
  2  3  1  0  0  0  0
  2  6  1  0  0  0  0
  3 43  1  1  0  0  0
  3  5  1  0  0  0  0
  5  4  1  0  0  0  0
  6 14  1  1  0  0  0
  6  4  1  0  0  0  0
  7 10  1  0  0  0  0
  7 12  2  0  0  0  0
  8  9  1  0  0  0  0
  9  3  1  0  0  0  0
 10  8  2  0  0  0  0
 11  7  1  0  0  0  0
 12  9  1  0  0  0  0
 14 15  1  0  0  0  0
 14 13  1  1  0  0  0
 15 23  1  0  0  0  0
 16 20  1  0  0  0  0
 17 21  1  0  0  0  0
 17 20  2  0  0  0  0
 19 16  2  0  0  0  0
 20 18  1  0  0  0  0
 22 23  2  0  0  0  0
 22 19  1  0  0  0  0
 23 17  1  0  0  0  0
 24 25  1  0  0  0  0
 24 14  1  0  0  0  0
 26 25  1  0  0  0  0
 27 29  2  0  0  0  0
 28 26  1  0  0  0  0
 28 29  1  0  0  0  0
 29 30  1  0  0  0  0
 33 35  1  0  0  0  0
 34 42  1  6  0  0  0
 35 31  1  0  0  0  0
 35 34  1  0  0  0  0
 36 32  1  1  0  0  0
 36 34  1  0  0  0  0
 37 35  1  1  0  0  0
 37 36  1  0  0  0  0
 38 40  1  0  0  0  0
 38 39  1  0  0  0  0
 39 32  1  0  0  0  0
 40 30  1  6  0  0  0
 40 37  1  0  0  0  0
 42 41  1  0  0  0  0
 43 44  1  0  0  0  0
 45 44  1  0  0  0  0
 45 46  1  0  0  0  0
 46 48  1  0  0  0  0
 47 46  1  0  0  0  0
 49 50  1  0  0  0  0
 51 58  1  0  0  0  0
 51 55  1  0  0  0  0
 52 54  1  0  0  0  0
 53 62  1  1  0  0  0
 54 55  2  0  0  0  0
 54 60  1  0  0  0  0
 55 57  1  0  0  0  0
 56 59  1  0  0  0  0
 56 52  2  0  0  0  0
 57 53  1  0  0  0  0
 57 50  1  1  0  0  0
 58 46  1  6  0  0  0
 58 53  1  0  0  0  0
 59 51  2  0  0  0  0
 60 49  1  0  0  0  0
 61 62  2  0  0  0  0
 62 64  1  0  0  0  0
 63 64  1  0  0  0  0
 65 52  1  0  0  0  0
 66 70  1  0  0  0  0
 66 65  1  0  0  0  0
 67 68  1  0  0  0  0
 67 69  1  0  0  0  0
 68 70  1  0  0  0  0
 69 70  1  0  0  0  0
M  END
>  <MODEL>
4

>  <REMARK>
 VINA RESULT:      -6.3      3.481      9.907
  Name = 
  20 active torsions:
  status: ('A' for Active; 'I' for Inactive)
    1  A    between atoms: C_1  and  N_57
    2  A    between atoms: C_1  and  C_63
    3  A    between atoms: O_6  and  C_40
    4  A    between atoms: O_8  and  O_13
    5  A    between atoms: O_8  and  C_53
    6  A    between atoms: O_13  and  C_23
    7  A    between atoms: N_21  and  C_49
    8  A    between atoms: N_24  and  O_44
    9  A    between atoms: S_25  and  C_39
   10  A    between atoms: S_25  and  C_61
   11  A    between atoms: C_27  and  C_58
   12  A    between atoms: C_28  and  O_34
   13  A    between atoms: C_28  and  O_44
   14  A    between atoms: O_34  and  C_61
   15  A    between atoms: C_43  and  C_58
   16  A    between atoms: C_49  and  C_69
   17  A    between atoms: C_51  and  N_57
   18  A    between atoms: C_51  and  C_69
   19  A    between atoms: C_61  and  C_66
   20  A    between atoms: N_64  and  C_65
                            x       y       z     vdW  Elec       q    Type
                         _______ _______ _______ _____ _____    ______ ____

>  <TORSDO>
F 20

$$$$
=
 OpenBabel11072409433D

 70 78  0  0  1  0  0  0  0  0999 V2000
  193.8850  174.3760  140.7370 O   0  0  0  0  0  0  0  0  0  0  0  0
  194.8060  173.7320  141.2100 C   0  0  0  0  0  0  0  0  0  0  0  0
  195.8330  173.0300  140.4050 C   0  0  2  0  0  0  0  0  0  0  0  0
  196.0450  172.3620  142.5960 C   0  0  0  0  0  2  0  0  0  0  0  0
  196.6460  172.3090  141.3180 O   0  0  0  0  0  0  0  0  0  0  0  0
  194.9600  173.4290  142.6380 C   0  0  2  0  0  3  0  0  0  0  0  0
  197.5500  175.1850  138.0820 C   0  0  0  0  0  0  0  0  0  0  0  0
  197.3060  175.0670  140.1840 C   0  0  0  0  0  3  0  0  0  0  0  0
  196.6350  174.0160  139.6650 N   0  0  0  0  0  0  0  0  0  0  0  0
  197.8970  175.8080  139.2210 N   0  0  0  0  0  0  0  0  0  0  0  0
  197.9410  175.6310  136.7900 N   0  0  0  0  0  1  0  0  0  0  0  0
  196.7690  174.0820  138.3260 C   0  0  0  0  0  3  0  0  0  0  0  0
  193.2140  171.6310  142.7170 C   0  0  0  0  0  1  0  0  0  0  0  0
  193.6500  172.9630  143.3300 C   0  0  1  0  0  0  0  0  0  0  0  0
  193.9610  172.6660  145.1400 S   0  0  0  0  0  0  0  0  0  0  0  0
  193.9710  177.0810  146.4510 C   0  0  0  0  0  3  0  0  0  0  0  0
  192.9290  174.8930  146.4820 C   0  0  0  0  0  0  0  0  0  0  0  0
  191.6520  176.8760  147.8760 Cl  0  0  0  0  0  0  0  0  0  0  0  0
  194.9860  176.5860  145.6280 C   0  0  0  0  0  3  0  0  0  0  0  0
  192.9430  176.2370  146.8760 C   0  0  0  0  0  0  0  0  0  0  0  0
  191.9010  174.0960  146.8690 F   0  0  0  0  0  0  0  0  0  0  0  0
  194.9770  175.2470  145.2350 C   0  0  0  0  0  3  0  0  0  0  0  0
  193.9620  174.3880  145.6760 C   0  0  0  0  0  0  0  0  0  0  0  0
  192.6120  173.9060  143.0800 O   0  0  0  0  0  0  0  0  0  0  0  0
  191.3340  173.4290  143.4580 C   0  0  0  0  0  2  0  0  0  0  0  0
  190.3230  173.9490  142.6420 O   0  0  0  0  0  0  0  0  0  0  0  0
  190.3040  177.5290  142.5850 N   0  0  0  0  0  2  0  0  0  0  0  0
  190.6880  175.2270  142.3630 N   0  0  0  0  0  2  0  0  0  0  0  0
  189.8260  176.3310  142.6400 C   0  0  0  0  0  0  0  0  0  0  0  0
  188.4310  176.1070  142.8910 N   0  0  0  0  0  2  0  0  0  0  0  0
  188.5660  178.1150  145.6720 C   0  0  0  0  0  1  0  0  0  0  0  0
  185.4010  178.9080  143.7470 C   0  0  0  0  0  2  0  0  0  0  0  0
  187.4620  176.1340  146.7740 C   0  0  0  0  0  1  0  0  0  0  0  0
  186.0740  178.1970  146.0450 C   0  0  1  0  0  3  0  0  0  0  0  0
  187.2900  177.2920  145.7950 C   0  0  0  0  0  0  0  0  0  0  0  0
  185.4600  177.7330  144.7300 C   0  0  2  0  0  3  0  0  0  0  0  0
  186.6650  176.8120  144.4850 C   0  0  1  0  0  3  0  0  0  0  0  0
  186.4990  177.3480  142.0170 C   0  0  0  0  0  2  0  0  0  0  0  0
  185.4330  178.4250  142.2890 C   0  0  0  0  0  2  0  0  0  0  0  0
  187.4490  177.1470  143.1990 C   0  0  2  0  0  3  0  0  0  0  0  0
  184.1120  178.5000  147.0330 C   0  0  0  0  0  1  0  0  0  0  0  0
  185.2840  177.7510  147.1100 O   0  0  0  0  0  0  0  0  0  0  0  0
  195.1420  172.0490  139.4440 C   0  0  0  0  0  2  0  0  0  0  0  0
  195.4540  170.5930  139.7500 C   0  0  0  0  0  2  0  0  0  0  0  0
  194.2490  169.8880  140.1890 N   0  0  0  0  0  2  0  0  0  0  0  0
  193.4510  169.3650  139.0670 C   0  0  0  0  0  0  0  0  0  0  0  0
  192.1560  168.7000  139.5310 C   0  0  0  0  0  1  0  0  0  0  0  0
  194.2630  168.2710  138.3960 C   0  0  0  0  0  1  0  0  0  0  0  0
  190.5660  171.4090  134.5580 O   0  0  0  0  0  0  0  0  0  0  0  0
  191.1030  170.1120  134.7580 C   0  0  0  0  0  2  0  0  0  0  0  0
  191.7780  171.0950  138.2090 C   0  0  0  0  0  0  0  0  0  0  0  0
  189.6260  172.7480  137.6590 C   0  0  0  0  0  0  0  0  0  0  0  0
  193.0740  169.9490  136.5580 C   0  0  2  0  0  3  0  0  0  0  0  0
  189.9210  171.6640  136.8160 C   0  0  0  0  0  0  0  0  0  0  0  0
  190.9460  170.8010  137.1650 C   0  0  0  0  0  0  0  0  0  0  0  0
  190.4430  172.9590  138.7920 C   0  0  0  0  0  3  0  0  0  0  0  0
  191.5680  169.8650  136.2110 C   0  0  1  0  0  3  0  0  0  0  0  0
  193.1210  170.4620  138.0270 C   0  0  2  0  0  3  0  0  0  0  0  0
  191.5260  172.1590  139.0210 N   0  0  0  0  0  0  0  0  0  0  0  0
  189.4410  171.5610  135.4000 C   0  0  0  0  0  2  0  0  0  0  0  0
  194.1710  170.5170  134.5300 O   0  0  0  0  0  0  0  0  0  0  0  0
  193.8490  170.8740  135.6540 C   0  0  0  0  0  0  0  0  0  0  0  0
  194.4980  173.1530  134.9660 C   0  0  0  0  0  1  0  0  0  0  0  0
  194.2220  172.2360  136.1370 C   0  0  0  0  0  2  0  0  0  0  0  0
  188.5820  173.6230  137.3390 O   0  0  0  0  0  0  0  0  0  0  0  0
  188.8070  174.9110  137.0040 O   0  0  0  0  0  0  0  0  0  0  0  0
  188.1270  177.0750  134.9550 C   0  0  0  0  0  2  0  0  0  0  0  0
  189.2070  176.0080  134.9270 C   0  0  0  0  0  2  0  0  0  0  0  0
  187.2220  176.1330  135.7260 C   0  0  0  0  0  2  0  0  0  0  0  0
  188.3060  175.0690  135.7050 C   0  0  0  0  0  3  0  0  0  0  0  0
  1  2  2  0  0  0  0
  2  6  1  0  0  0  0
  3 43  1  6  0  0  0
  3  2  1  0  0  0  0
  3  5  1  0  0  0  0
  4  6  1  0  0  0  0
  5  4  1  0  0  0  0
  6 14  1  6  0  0  0
  7 12  2  0  0  0  0
  7 10  1  0  0  0  0
  9  8  1  0  0  0  0
  9  3  1  0  0  0  0
 10  8  2  0  0  0  0
 11  7  1  0  0  0  0
 12  9  1  0  0  0  0
 14 13  1  6  0  0  0
 14 15  1  0  0  0  0
 15 23  1  0  0  0  0
 16 20  1  0  0  0  0
 17 21  1  0  0  0  0
 17 20  2  0  0  0  0
 19 16  2  0  0  0  0
 20 18  1  0  0  0  0
 22 19  1  0  0  0  0
 22 23  2  0  0  0  0
 23 17  1  0  0  0  0
 24 14  1  0  0  0  0
 24 25  1  0  0  0  0
 26 25  1  0  0  0  0
 27 29  2  0  0  0  0
 28 29  1  0  0  0  0
 28 26  1  0  0  0  0
 29 30  1  0  0  0  0
 31 35  1  0  0  0  0
 34 42  1  1  0  0  0
 35 34  1  0  0  0  0
 35 33  1  0  0  0  0
 36 32  1  6  0  0  0
 36 34  1  0  0  0  0
 37 36  1  0  0  0  0
 37 35  1  1  0  0  0
 38 39  1  0  0  0  0
 38 40  1  0  0  0  0
 39 32  1  0  0  0  0
 40 30  1  6  0  0  0
 40 37  1  0  0  0  0
 41 42  1  0  0  0  0
 43 44  1  0  0  0  0
 44 45  1  0  0  0  0
 46 47  1  0  0  0  0
 46 45  1  0  0  0  0
 48 46  1  0  0  0  0
 49 50  1  0  0  0  0
 49 60  1  0  0  0  0
 51 59  1  0  0  0  0
 52 56  1  0  0  0  0
 53 62  1  6  0  0  0
 53 58  1  0  0  0  0
 54 55  1  0  0  0  0
 54 52  2  0  0  0  0
 55 51  2  0  0  0  0
 56 59  2  0  0  0  0
 57 50  1  6  0  0  0
 57 53  1  0  0  0  0
 57 55  1  0  0  0  0
 58 51  1  0  0  0  0
 58 46  1  1  0  0  0
 60 54  1  0  0  0  0
 61 62  2  0  0  0  0
 62 64  1  0  0  0  0
 63 64  1  0  0  0  0
 65 52  1  0  0  0  0
 66 65  1  0  0  0  0
 67 69  1  0  0  0  0
 68 67  1  0  0  0  0
 68 70  1  0  0  0  0
 70 69  1  0  0  0  0
 70 66  1  0  0  0  0
M  END
>  <MODEL>
5

>  <REMARK>
 VINA RESULT:      -6.3      3.166      8.996
  Name = 
  20 active torsions:
  status: ('A' for Active; 'I' for Inactive)
    1  A    between atoms: C_1  and  N_57
    2  A    between atoms: C_1  and  C_63
    3  A    between atoms: O_6  and  C_40
    4  A    between atoms: O_8  and  O_13
    5  A    between atoms: O_8  and  C_53
    6  A    between atoms: O_13  and  C_23
    7  A    between atoms: N_21  and  C_49
    8  A    between atoms: N_24  and  O_44
    9  A    between atoms: S_25  and  C_39
   10  A    between atoms: S_25  and  C_61
   11  A    between atoms: C_27  and  C_58
   12  A    between atoms: C_28  and  O_34
   13  A    between atoms: C_28  and  O_44
   14  A    between atoms: O_34  and  C_61
   15  A    between atoms: C_43  and  C_58
   16  A    between atoms: C_49  and  C_69
   17  A    between atoms: C_51  and  N_57
   18  A    between atoms: C_51  and  C_69
   19  A    between atoms: C_61  and  C_66
   20  A    between atoms: N_64  and  C_65
                            x       y       z     vdW  Elec       q    Type
                         _______ _______ _______ _____ _____    ______ ____

>  <TORSDO>
F 20

$$$$
=
 OpenBabel11072409433D

 70 78  0  0  1  0  0  0  0  0999 V2000
  190.1510  173.8230  138.4300 O   0  0  0  0  0  0  0  0  0  0  0  0
  190.0490  172.8530  139.1630 C   0  0  0  0  0  0  0  0  0  0  0  0
  190.2230  172.8960  140.6330 C   0  0  2  0  0  0  0  0  0  0  0  0
  190.1460  170.6930  139.9740 C   0  0  0  0  0  2  0  0  0  0  0  0
  190.1430  171.5550  141.0930 O   0  0  0  0  0  0  0  0  0  0  0  0
  189.8840  171.4720  138.6930 C   0  0  2  0  0  3  0  0  0  0  0  0
  187.7390  175.3050  141.6400 C   0  0  0  0  0  0  0  0  0  0  0  0
  188.2800  173.3290  142.1840 C   0  0  0  0  0  3  0  0  0  0  0  0
  189.1550  173.7120  141.2300 N   0  0  0  0  0  0  0  0  0  0  0  0
  187.3910  174.3060  142.4690 N   0  0  0  0  0  0  0  0  0  0  0  0
  187.0570  176.5510  141.5780 N   0  0  0  0  0  1  0  0  0  0  0  0
  188.8190  174.9640  140.8620 C   0  0  0  0  0  3  0  0  0  0  0  0
  192.2460  171.5550  137.8530 C   0  0  0  0  0  1  0  0  0  0  0  0
  190.8280  171.0850  137.5220 C   0  0  1  0  0  0  0  0  0  0  0  0
  190.8850  169.2350  137.3380 S   0  0  0  0  0  0  0  0  0  0  0  0
  195.4690  168.7860  137.3930 C   0  0  0  0  0  3  0  0  0  0  0  0
  193.3630  168.8870  138.5890 C   0  0  0  0  0  0  0  0  0  0  0  0
  195.6200  168.5660  140.1100 Cl  0  0  0  0  0  0  0  0  0  0  0  0
  194.7910  168.9630  136.1840 C   0  0  0  0  0  3  0  0  0  0  0  0
  194.7570  168.7500  138.5940 C   0  0  0  0  0  0  0  0  0  0  0  0
  192.6900  168.8920  139.7670 F   0  0  0  0  0  0  0  0  0  0  0  0
  193.4010  169.0980  136.1750 C   0  0  0  0  0  3  0  0  0  0  0  0
  192.6780  169.0390  137.3720 C   0  0  0  0  0  0  0  0  0  0  0  0
  190.4240  171.7610  136.3340 O   0  0  0  0  0  0  0  0  0  0  0  0
  191.4530  171.8320  135.3650 C   0  0  0  0  0  2  0  0  0  0  0  0
  191.4040  173.0300  134.6440 O   0  0  0  0  0  0  0  0  0  0  0  0
  192.7450  175.7430  136.5580 N   0  0  0  0  0  2  0  0  0  0  0  0
  191.4970  174.0250  135.5630 N   0  0  0  0  0  2  0  0  0  0  0  0
  192.7430  174.6530  135.8660 C   0  0  0  0  0  0  0  0  0  0  0  0
  193.9750  174.0290  135.4760 N   0  0  0  0  0  2  0  0  0  0  0  0
  196.5990  172.2050  136.7320 C   0  0  0  0  0  1  0  0  0  0  0  0
  197.7040  175.8050  136.3110 C   0  0  0  0  0  2  0  0  0  0  0  0
  195.5100  172.7430  138.9410 C   0  0  0  0  0  1  0  0  0  0  0  0
  197.5700  174.0790  138.1120 C   0  0  1  0  0  3  0  0  0  0  0  0
  196.2980  173.2930  137.7560 C   0  0  0  0  0  0  0  0  0  0  0  0
  196.9370  175.3500  137.5580 C   0  0  2  0  0  3  0  0  0  0  0  0
  195.6560  174.5710  137.2180 C   0  0  1  0  0  3  0  0  0  0  0  0
  195.4220  175.9840  135.1310 C   0  0  0  0  0  2  0  0  0  0  0  0
  196.8070  176.6150  135.3620 C   0  0  0  0  0  2  0  0  0  0  0  0
  195.3120  174.5740  135.7140 C   0  0  2  0  0  3  0  0  0  0  0  0
  197.8270  175.5850  139.7190 C   0  0  0  0  0  1  0  0  0  0  0  0
  197.7480  174.2120  139.4940 O   0  0  0  0  0  0  0  0  0  0  0  0
  191.6090  173.4730  140.9640 C   0  0  0  0  0  2  0  0  0  0  0  0
  192.5020  172.4940  141.7100 C   0  0  0  0  0  2  0  0  0  0  0  0
  192.1690  172.4730  143.1350 N   0  0  0  0  0  2  0  0  0  0  0  0
  193.2410  173.0240  143.9810 C   0  0  0  0  0  0  0  0  0  0  0  0
  194.5070  173.3420  143.1880 C   0  0  0  0  0  1  0  0  0  0  0  0
  193.6350  171.9510  144.9810 C   0  0  0  0  0  1  0  0  0  0  0  0
  190.7480  178.1740  144.2890 O   0  0  0  0  0  0  0  0  0  0  0  0
  191.6150  177.6630  143.2910 C   0  0  0  0  0  2  0  0  0  0  0  0
  191.3010  174.4060  144.9090 C   0  0  0  0  0  0  0  0  0  0  0  0
  188.8830  175.5340  145.6440 C   0  0  0  0  0  0  0  0  0  0  0  0
  193.1710  175.6260  144.0530 C   0  0  2  0  0  3  0  0  0  0  0  0
  189.6500  176.1090  144.6190 C   0  0  0  0  0  0  0  0  0  0  0  0
  190.8100  175.4720  144.2100 C   0  0  0  0  0  0  0  0  0  0  0  0
  189.3690  174.3660  146.2730 C   0  0  0  0  0  3  0  0  0  0  0  0
  191.8580  176.1410  143.4170 C   0  0  1  0  0  3  0  0  0  0  0  0
  192.7840  174.2880  144.7490 C   0  0  2  0  0  3  0  0  0  0  0  0
  190.5850  173.8510  145.9260 N   0  0  0  0  0  0  0  0  0  0  0  0
  189.4960  177.5300  144.1660 C   0  0  0  0  0  2  0  0  0  0  0  0
  193.2600  176.7370  146.1500 O   0  0  0  0  0  0  0  0  0  0  0  0
  193.7730  176.5820  145.0510 C   0  0  0  0  0  0  0  0  0  0  0  0
  196.0220  176.4250  144.0480 C   0  0  0  0  0  1  0  0  0  0  0  0
  195.0060  177.3420  144.6920 C   0  0  0  0  0  2  0  0  0  0  0  0
  187.6960  176.1460  146.0620 O   0  0  0  0  0  0  0  0  0  0  0  0
  187.6060  177.4810  146.2440 O   0  0  0  0  0  0  0  0  0  0  0  0
  185.5800  178.4970  144.1930 C   0  0  0  0  0  2  0  0  0  0  0  0
  185.6910  177.1410  144.8670 C   0  0  0  0  0  2  0  0  0  0  0  0
  186.1290  179.1590  145.4420 C   0  0  0  0  0  2  0  0  0  0  0  0
  186.2480  177.8020  146.1130 C   0  0  0  0  0  3  0  0  0  0  0  0
  1  2  2  0  0  0  0
  2  3  1  0  0  0  0
  3 43  1  1  0  0  0
  3  5  1  0  0  0  0
  3  9  1  0  0  0  0
  4  5  1  0  0  0  0
  6 14  1  6  0  0  0
  6  2  1  0  0  0  0
  6  4  1  0  0  0  0
  7 10  1  0  0  0  0
  8 10  2  0  0  0  0
  9  8  1  0  0  0  0
 11  7  1  0  0  0  0
 12  9  1  0  0  0  0
 12  7  2  0  0  0  0
 14 13  1  1  0  0  0
 15 23  1  0  0  0  0
 15 14  1  0  0  0  0
 16 20  1  0  0  0  0
 17 20  2  0  0  0  0
 17 21  1  0  0  0  0
 19 16  2  0  0  0  0
 20 18  1  0  0  0  0
 22 19  1  0  0  0  0
 22 23  2  0  0  0  0
 23 17  1  0  0  0  0
 24 14  1  0  0  0  0
 25 24  1  0  0  0  0
 26 25  1  0  0  0  0
 26 28  1  0  0  0  0
 28 29  1  0  0  0  0
 29 27  2  0  0  0  0
 30 29  1  0  0  0  0
 31 35  1  0  0  0  0
 34 42  1  1  0  0  0
 35 34  1  0  0  0  0
 35 33  1  0  0  0  0
 36 32  1  6  0  0  0
 36 34  1  0  0  0  0
 37 36  1  0  0  0  0
 37 35  1  6  0  0  0
 38 39  1  0  0  0  0
 38 40  1  0  0  0  0
 39 32  1  0  0  0  0
 40 30  1  1  0  0  0
 40 37  1  0  0  0  0
 42 41  1  0  0  0  0
 43 44  1  0  0  0  0
 44 45  1  0  0  0  0
 45 46  1  0  0  0  0
 46 48  1  0  0  0  0
 47 46  1  0  0  0  0
 50 49  1  0  0  0  0
 51 59  1  0  0  0  0
 52 65  1  0  0  0  0
 52 56  1  0  0  0  0
 53 58  1  0  0  0  0
 53 62  1  1  0  0  0
 54 52  2  0  0  0  0
 55 54  1  0  0  0  0
 55 51  2  0  0  0  0
 57 50  1  1  0  0  0
 57 53  1  0  0  0  0
 57 55  1  0  0  0  0
 58 46  1  6  0  0  0
 58 51  1  0  0  0  0
 59 56  2  0  0  0  0
 60 49  1  0  0  0  0
 60 54  1  0  0  0  0
 62 61  2  0  0  0  0
 63 64  1  0  0  0  0
 64 62  1  0  0  0  0
 65 66  1  0  0  0  0
 67 68  1  0  0  0  0
 67 69  1  0  0  0  0
 68 70  1  0  0  0  0
 69 70  1  0  0  0  0
 70 66  1  0  0  0  0
M  END
>  <MODEL>
6

>  <REMARK>
 VINA RESULT:      -6.2      3.767      8.890
  Name = 
  20 active torsions:
  status: ('A' for Active; 'I' for Inactive)
    1  A    between atoms: C_1  and  N_57
    2  A    between atoms: C_1  and  C_63
    3  A    between atoms: O_6  and  C_40
    4  A    between atoms: O_8  and  O_13
    5  A    between atoms: O_8  and  C_53
    6  A    between atoms: O_13  and  C_23
    7  A    between atoms: N_21  and  C_49
    8  A    between atoms: N_24  and  O_44
    9  A    between atoms: S_25  and  C_39
   10  A    between atoms: S_25  and  C_61
   11  A    between atoms: C_27  and  C_58
   12  A    between atoms: C_28  and  O_34
   13  A    between atoms: C_28  and  O_44
   14  A    between atoms: O_34  and  C_61
   15  A    between atoms: C_43  and  C_58
   16  A    between atoms: C_49  and  C_69
   17  A    between atoms: C_51  and  N_57
   18  A    between atoms: C_51  and  C_69
   19  A    between atoms: C_61  and  C_66
   20  A    between atoms: N_64  and  C_65
                            x       y       z     vdW  Elec       q    Type
                         _______ _______ _______ _____ _____    ______ ____

>  <TORSDO>
F 20

$$$$
=
 OpenBabel11072409433D

 70 78  0  0  1  0  0  0  0  0999 V2000
  192.3000  172.8790  139.8030 O   0  0  0  0  0  0  0  0  0  0  0  0
  191.2950  172.4360  140.3320 C   0  0  0  0  0  0  0  0  0  0  0  0
  190.0820  173.2360  140.6190 C   0  0  2  0  0  0  0  0  0  0  0  0
  189.8840  171.2070  141.6860 C   0  0  0  0  0  2  0  0  0  0  0  0
  189.1960  172.3910  141.3390 O   0  0  0  0  0  0  0  0  0  0  0  0
  191.1810  171.0860  140.8970 C   0  0  2  0  0  3  0  0  0  0  0  0
  188.1650  174.5910  137.8850 C   0  0  0  0  0  0  0  0  0  0  0  0
  189.9910  173.5400  138.1160 C   0  0  0  0  0  3  0  0  0  0  0  0
  189.4700  173.6700  139.3550 N   0  0  0  0  0  0  0  0  0  0  0  0
  189.1950  174.0950  137.1770 N   0  0  0  0  0  0  0  0  0  0  0  0
  187.0720  175.2900  137.3020 N   0  0  0  0  0  1  0  0  0  0  0  0
  188.3120  174.3480  139.2290 C   0  0  0  0  0  3  0  0  0  0  0  0
  191.9540  170.5300  143.2170 C   0  0  0  0  0  1  0  0  0  0  0  0
  192.3990  170.6560  141.7590 C   0  0  1  0  0  0  0  0  0  0  0  0
  193.0000  168.9810  141.2160 S   0  0  0  0  0  0  0  0  0  0  0  0
  191.0650  168.9900  137.0360 C   0  0  0  0  0  3  0  0  0  0  0  0
  192.8860  169.6380  138.4990 C   0  0  0  0  0  0  0  0  0  0  0  0
  193.0590  170.4620  135.8920 Cl  0  0  0  0  0  0  0  0  0  0  0  0
  190.4310  168.3540  138.1060 C   0  0  0  0  0  3  0  0  0  0  0  0
  192.2900  169.6330  137.2320 C   0  0  0  0  0  0  0  0  0  0  0  0
  194.0550  170.3020  138.6830 F   0  0  0  0  0  0  0  0  0  0  0  0
  191.0240  168.3550  139.3700 C   0  0  0  0  0  3  0  0  0  0  0  0
  192.2630  168.9760  139.5700 C   0  0  0  0  0  0  0  0  0  0  0  0
  193.4050  171.6630  141.7070 O   0  0  0  0  0  0  0  0  0  0  0  0
  194.4770  171.4160  142.5980 C   0  0  0  0  0  2  0  0  0  0  0  0
  195.1980  172.5830  142.8790 O   0  0  0  0  0  0  0  0  0  0  0  0
  193.0550  175.4160  142.4340 N   0  0  0  0  0  2  0  0  0  0  0  0
  194.5220  173.5940  142.2760 N   0  0  0  0  0  2  0  0  0  0  0  0
  193.4950  174.3200  142.9540 C   0  0  0  0  0  0  0  0  0  0  0  0
  192.9090  173.7860  144.1500 N   0  0  0  0  0  2  0  0  0  0  0  0
  192.9010  177.1220  144.9580 C   0  0  0  0  0  1  0  0  0  0  0  0
  189.9360  175.4530  146.6280 C   0  0  0  0  0  2  0  0  0  0  0  0
  194.4370  176.3600  146.8060 C   0  0  0  0  0  1  0  0  0  0  0  0
  191.9280  176.8200  147.2650 C   0  0  1  0  0  3  0  0  0  0  0  0
  193.0070  176.3590  146.2730 C   0  0  0  0  0  0  0  0  0  0  0  0
  191.3310  175.4180  147.2640 C   0  0  2  0  0  3  0  0  0  0  0  0
  192.4200  174.9480  146.2870 C   0  0  1  0  0  3  0  0  0  0  0  0
  190.6950  173.4740  145.1660 C   0  0  0  0  0  2  0  0  0  0  0  0
  189.5660  174.0980  146.0060 C   0  0  0  0  0  2  0  0  0  0  0  0
  191.8640  174.4340  144.9420 C   0  0  2  0  0  3  0  0  0  0  0  0
  191.5010  177.9150  149.1450 C   0  0  0  0  0  1  0  0  0  0  0  0
  192.4510  177.1010  148.5330 O   0  0  0  0  0  0  0  0  0  0  0  0
  190.4640  174.4440  141.4900 C   0  0  0  0  0  2  0  0  0  0  0  0
  189.2750  175.0650  142.2060 C   0  0  0  0  0  2  0  0  0  0  0  0
  188.9230  176.3510  141.6020 N   0  0  0  0  0  2  0  0  0  0  0  0
  188.5900  177.3800  142.6010 C   0  0  0  0  0  0  0  0  0  0  0  0
  188.6210  178.7920  142.0180 C   0  0  0  0  0  1  0  0  0  0  0  0
  189.6670  177.3480  143.6710 C   0  0  0  0  0  1  0  0  0  0  0  0
  183.9180  179.0720  145.4560 O   0  0  0  0  0  0  0  0  0  0  0  0
  185.2740  179.4220  145.6790 C   0  0  0  0  0  2  0  0  0  0  0  0
  186.0610  177.7470  142.5330 C   0  0  0  0  0  0  0  0  0  0  0  0
  183.4400  178.4820  142.0340 C   0  0  0  0  0  0  0  0  0  0  0  0
  187.0800  177.7120  144.6960 C   0  0  2  0  0  3  0  0  0  0  0  0
  184.1450  179.0550  143.1050 C   0  0  0  0  0  0  0  0  0  0  0  0
  185.4820  178.7370  143.2750 C   0  0  0  0  0  0  0  0  0  0  0  0
  184.1060  177.5410  141.2180 C   0  0  0  0  0  3  0  0  0  0  0  0
  186.2120  178.9830  144.5320 C   0  0  1  0  0  3  0  0  0  0  0  0
  187.2120  177.1270  143.2600 C   0  0  2  0  0  3  0  0  0  0  0  0
  185.3840  177.1590  141.5080 N   0  0  0  0  0  0  0  0  0  0  0  0
  183.4810  179.7150  144.2760 C   0  0  0  0  0  2  0  0  0  0  0  0
  185.5960  175.9390  145.2380 O   0  0  0  0  0  0  0  0  0  0  0  0
  186.4790  176.6900  145.6270 C   0  0  0  0  0  0  0  0  0  0  0  0
  185.9420  177.1550  147.9900 C   0  0  0  0  0  1  0  0  0  0  0  0
  186.9710  176.5940  147.0330 C   0  0  0  0  0  2  0  0  0  0  0  0
  182.0930  178.8030  141.8270 O   0  0  0  0  0  0  0  0  0  0  0  0
  181.2300  177.9320  141.2610 O   0  0  0  0  0  0  0  0  0  0  0  0
  178.4080  177.7360  142.4180 C   0  0  0  0  0  2  0  0  0  0  0  0
  179.4880  178.7790  142.6480 C   0  0  0  0  0  2  0  0  0  0  0  0
  178.9030  177.5430  140.9980 C   0  0  0  0  0  2  0  0  0  0  0  0
  179.9880  178.5800  141.2310 C   0  0  0  0  0  3  0  0  0  0  0  0
  1  2  2  0  0  0  0
  2  3  1  0  0  0  0
  2  6  1  0  0  0  0
  3  5  1  0  0  0  0
  3 43  1  1  0  0  0
  5  4  1  0  0  0  0
  6  4  1  0  0  0  0
  6 14  1  1  0  0  0
  7 12  2  0  0  0  0
  8  9  1  0  0  0  0
  9  3  1  0  0  0  0
 10  7  1  0  0  0  0
 10  8  2  0  0  0  0
 11  7  1  0  0  0  0
 12  9  1  0  0  0  0
 14 13  1  1  0  0  0
 15 14  1  0  0  0  0
 16 20  2  0  0  0  0
 16 19  1  0  0  0  0
 17 21  1  0  0  0  0
 17 23  2  0  0  0  0
 18 20  1  0  0  0  0
 19 22  2  0  0  0  0
 20 17  1  0  0  0  0
 22 23  1  0  0  0  0
 23 15  1  0  0  0  0
 24 14  1  0  0  0  0
 24 25  1  0  0  0  0
 25 26  1  0  0  0  0
 27 29  2  0  0  0  0
 28 26  1  0  0  0  0
 28 29  1  0  0  0  0
 29 30  1  0  0  0  0
 31 35  1  0  0  0  0
 34 42  1  1  0  0  0
 35 33  1  0  0  0  0
 35 34  1  0  0  0  0
 36 32  1  6  0  0  0
 36 34  1  0  0  0  0
 37 35  1  6  0  0  0
 37 36  1  0  0  0  0
 38 39  1  0  0  0  0
 39 32  1  0  0  0  0
 40 30  1  1  0  0  0
 40 38  1  0  0  0  0
 40 37  1  0  0  0  0
 42 41  1  0  0  0  0
 43 44  1  0  0  0  0
 45 44  1  0  0  0  0
 45 46  1  0  0  0  0
 46 48  1  0  0  0  0
 47 46  1  0  0  0  0
 49 50  1  0  0  0  0
 51 58  1  0  0  0  0
 51 55  1  0  0  0  0
 52 54  1  0  0  0  0
 53 62  1  1  0  0  0
 54 55  2  0  0  0  0
 54 60  1  0  0  0  0
 55 57  1  0  0  0  0
 56 59  1  0  0  0  0
 56 52  2  0  0  0  0
 57 53  1  0  0  0  0
 57 50  1  1  0  0  0
 58 46  1  6  0  0  0
 58 53  1  0  0  0  0
 59 51  2  0  0  0  0
 60 49  1  0  0  0  0
 61 62  2  0  0  0  0
 62 64  1  0  0  0  0
 64 63  1  0  0  0  0
 65 52  1  0  0  0  0
 66 65  1  0  0  0  0
 67 68  1  0  0  0  0
 69 70  1  0  0  0  0
 69 67  1  0  0  0  0
 70 66  1  0  0  0  0
 70 68  1  0  0  0  0
M  END
>  <MODEL>
7

>  <REMARK>
 VINA RESULT:      -6.0      3.773     10.312
  Name = 
  20 active torsions:
  status: ('A' for Active; 'I' for Inactive)
    1  A    between atoms: C_1  and  N_57
    2  A    between atoms: C_1  and  C_63
    3  A    between atoms: O_6  and  C_40
    4  A    between atoms: O_8  and  O_13
    5  A    between atoms: O_8  and  C_53
    6  A    between atoms: O_13  and  C_23
    7  A    between atoms: N_21  and  C_49
    8  A    between atoms: N_24  and  O_44
    9  A    between atoms: S_25  and  C_39
   10  A    between atoms: S_25  and  C_61
   11  A    between atoms: C_27  and  C_58
   12  A    between atoms: C_28  and  O_34
   13  A    between atoms: C_28  and  O_44
   14  A    between atoms: O_34  and  C_61
   15  A    between atoms: C_43  and  C_58
   16  A    between atoms: C_49  and  C_69
   17  A    between atoms: C_51  and  N_57
   18  A    between atoms: C_51  and  C_69
   19  A    between atoms: C_61  and  C_66
   20  A    between atoms: N_64  and  C_65
                            x       y       z     vdW  Elec       q    Type
                         _______ _______ _______ _____ _____    ______ ____

>  <TORSDO>
F 20

$$$$
=
 OpenBabel11072409433D

 70 78  0  0  1  0  0  0  0  0999 V2000
  191.7900  174.3140  144.8270 O   0  0  0  0  0  0  0  0  0  0  0  0
  191.5470  175.3380  144.2120 C   0  0  0  0  0  0  0  0  0  0  0  0
  190.1870  175.7640  143.8070 C   0  0  2  0  0  0  0  0  0  0  0  0
  191.7190  177.1140  142.7470 C   0  0  0  0  0  2  0  0  0  0  0  0
  190.3440  176.9330  143.0170 O   0  0  0  0  0  0  0  0  0  0  0  0
  192.5670  176.2330  143.6530 C   0  0  2  0  0  3  0  0  0  0  0  0
  187.7750  176.6360  146.3380 C   0  0  0  0  0  0  0  0  0  0  0  0
  189.6910  175.7320  146.2810 C   0  0  0  0  0  3  0  0  0  0  0  0
  189.3850  176.0520  145.0050 N   0  0  0  0  0  0  0  0  0  0  0  0
  188.7110  176.0950  147.1370 N   0  0  0  0  0  0  0  0  0  0  0  0
  186.5370  177.1490  146.8120 N   0  0  0  0  0  1  0  0  0  0  0  0
  188.1620  176.6180  145.0200 C   0  0  0  0  0  3  0  0  0  0  0  0
  193.1370  174.2780  142.1890 C   0  0  0  0  0  1  0  0  0  0  0  0
  193.7160  175.4960  142.9120 C   0  0  1  0  0  0  0  0  0  0  0  0
  194.4530  176.6110  141.6170 S   0  0  0  0  0  0  0  0  0  0  0  0
  197.5570  173.6220  139.9930 C   0  0  0  0  0  3  0  0  0  0  0  0
  195.6830  175.1080  139.6030 C   0  0  0  0  0  0  0  0  0  0  0  0
  196.6430  173.7540  137.4230 Cl  0  0  0  0  0  0  0  0  0  0  0  0
  197.5350  173.9480  141.3510 C   0  0  0  0  0  3  0  0  0  0  0  0
  196.6320  174.1990  139.1200 C   0  0  0  0  0  0  0  0  0  0  0  0
  194.7640  175.6280  138.7510 F   0  0  0  0  0  0  0  0  0  0  0  0
  196.5910  174.8550  141.8360 C   0  0  0  0  0  3  0  0  0  0  0  0
  195.6750  175.4560  140.9640 C   0  0  0  0  0  0  0  0  0  0  0  0
  194.6690  175.0160  143.8560 O   0  0  0  0  0  0  0  0  0  0  0  0
  194.7920  175.8560  144.9880 C   0  0  0  0  0  2  0  0  0  0  0  0
  195.1480  175.1350  146.1330 O   0  0  0  0  0  0  0  0  0  0  0  0
  197.7540  172.9270  145.0600 N   0  0  0  0  0  2  0  0  0  0  0  0
  196.3900  174.6420  145.8930 N   0  0  0  0  0  2  0  0  0  0  0  0
  196.5970  173.2830  145.5080 C   0  0  0  0  0  0  0  0  0  0  0  0
  195.5540  172.3150  145.6980 N   0  0  0  0  0  2  0  0  0  0  0  0
  194.5170  171.0450  142.6820 C   0  0  0  0  0  1  0  0  0  0  0  0
  195.6500  168.1810  144.8900 C   0  0  0  0  0  2  0  0  0  0  0  0
  192.2560  171.0790  143.7970 C   0  0  0  0  0  1  0  0  0  0  0  0
  193.6190  168.8820  143.6160 C   0  0  1  0  0  3  0  0  0  0  0  0
  193.6290  170.4120  143.7460 C   0  0  0  0  0  0  0  0  0  0  0  0
  194.2360  168.7610  145.0040 C   0  0  2  0  0  3  0  0  0  0  0  0
  194.2290  170.2910  145.1470 C   0  0  1  0  0  3  0  0  0  0  0  0
  196.4290  170.1260  146.3870 C   0  0  0  0  0  2  0  0  0  0  0  0
  196.5380  168.6250  146.0620 C   0  0  0  0  0  2  0  0  0  0  0  0
  195.6350  170.9010  145.3340 C   0  0  2  0  0  3  0  0  0  0  0  0
  191.9860  168.1690  142.2950 C   0  0  0  0  0  1  0  0  0  0  0  0
  192.3240  168.3510  143.6350 O   0  0  0  0  0  0  0  0  0  0  0  0
  189.5380  174.6550  142.9630 C   0  0  0  0  0  2  0  0  0  0  0  0
  189.5160  174.9710  141.4760 C   0  0  0  0  0  2  0  0  0  0  0  0
  189.8980  173.7950  140.6920 N   0  0  0  0  0  2  0  0  0  0  0  0
  188.9060  173.4490  139.6590 C   0  0  0  0  0  0  0  0  0  0  0  0
  188.0200  174.6340  139.2790 C   0  0  0  0  0  1  0  0  0  0  0  0
  187.9740  172.4050  140.2480 C   0  0  0  0  0  1  0  0  0  0  0  0
  193.3630  172.6850  136.1390 O   0  0  0  0  0  0  0  0  0  0  0  0
  192.9530  173.8620  136.8140 C   0  0  0  0  0  2  0  0  0  0  0  0
  190.5700  171.7930  138.6490 C   0  0  0  0  0  0  0  0  0  0  0  0
  192.5060  169.8970  138.0850 C   0  0  0  0  0  0  0  0  0  0  0  0
  190.3880  173.9190  137.5710 C   0  0  2  0  0  3  0  0  0  0  0  0
  192.7900  171.2640  137.9380 C   0  0  0  0  0  0  0  0  0  0  0  0
  191.8330  172.1930  138.3150 C   0  0  0  0  0  0  0  0  0  0  0  0
  191.2220  169.5220  138.5390 C   0  0  0  0  0  3  0  0  0  0  0  0
  191.8690  173.6030  137.8860 C   0  0  1  0  0  3  0  0  0  0  0  0
  189.5710  172.8740  138.3850 C   0  0  2  0  0  3  0  0  0  0  0  0
  190.2680  170.4700  138.7690 N   0  0  0  0  0  0  0  0  0  0  0  0
  193.9080  171.7930  137.0910 C   0  0  0  0  0  2  0  0  0  0  0  0
  190.3730  174.7150  135.3330 O   0  0  0  0  0  0  0  0  0  0  0  0
  190.0510  173.8230  136.1050 C   0  0  0  0  0  0  0  0  0  0  0  0
  190.2370  171.7700  134.7470 C   0  0  0  0  0  1  0  0  0  0  0  0
  189.3200  172.6260  135.5940 C   0  0  0  0  0  2  0  0  0  0  0  0
  193.4630  168.9390  137.7310 O   0  0  0  0  0  0  0  0  0  0  0  0
  194.0750  168.1660  138.6540 O   0  0  0  0  0  0  0  0  0  0  0  0
  196.7720  168.5680  140.0350 C   0  0  0  0  0  2  0  0  0  0  0  0
  196.1020  169.3840  138.9430 C   0  0  0  0  0  2  0  0  0  0  0  0
  195.4110  168.2350  140.6160 C   0  0  0  0  0  2  0  0  0  0  0  0
  194.7410  169.0450  139.5190 C   0  0  0  0  0  3  0  0  0  0  0  0
  2  1  2  0  0  0  0
  3 43  1  6  0  0  0
  3  2  1  0  0  0  0
  3  9  1  0  0  0  0
  4  5  1  0  0  0  0
  4  6  1  0  0  0  0
  5  3  1  0  0  0  0
  6 14  1  6  0  0  0
  6  2  1  0  0  0  0
  7 11  1  0  0  0  0
  7 10  1  0  0  0  0
  8 10  2  0  0  0  0
  9 12  1  0  0  0  0
  9  8  1  0  0  0  0
 12  7  2  0  0  0  0
 14 13  1  6  0  0  0
 14 24  1  0  0  0  0
 15 14  1  0  0  0  0
 16 19  1  0  0  0  0
 17 23  2  0  0  0  0
 18 20  1  0  0  0  0
 19 22  2  0  0  0  0
 20 17  1  0  0  0  0
 20 16  2  0  0  0  0
 21 17  1  0  0  0  0
 23 15  1  0  0  0  0
 23 22  1  0  0  0  0
 24 25  1  0  0  0  0
 25 26  1  0  0  0  0
 27 29  2  0  0  0  0
 28 26  1  0  0  0  0
 29 30  1  0  0  0  0
 29 28  1  0  0  0  0
 31 35  1  0  0  0  0
 32 39  1  0  0  0  0
 34 42  1  1  0  0  0
 34 35  1  0  0  0  0
 34 36  1  0  0  0  0
 35 33  1  0  0  0  0
 36 32  1  6  0  0  0
 36 37  1  0  0  0  0
 37 35  1  6  0  0  0
 37 40  1  0  0  0  0
 39 38  1  0  0  0  0
 40 30  1  1  0  0  0
 40 38  1  0  0  0  0
 41 42  1  0  0  0  0
 44 43  1  0  0  0  0
 45 44  1  0  0  0  0
 46 48  1  0  0  0  0
 46 45  1  0  0  0  0
 47 46  1  0  0  0  0
 49 50  1  0  0  0  0
 49 60  1  0  0  0  0
 51 59  1  0  0  0  0
 52 56  1  0  0  0  0
 53 62  1  6  0  0  0
 53 57  1  0  0  0  0
 53 58  1  0  0  0  0
 54 52  2  0  0  0  0
 54 55  1  0  0  0  0
 55 51  2  0  0  0  0
 56 59  2  0  0  0  0
 57 50  1  6  0  0  0
 57 55  1  0  0  0  0
 58 51  1  0  0  0  0
 58 46  1  1  0  0  0
 60 54  1  0  0  0  0
 61 62  2  0  0  0  0
 63 64  1  0  0  0  0
 64 62  1  0  0  0  0
 65 52  1  0  0  0  0
 65 66  1  0  0  0  0
 66 70  1  0  0  0  0
 67 69  1  0  0  0  0
 68 70  1  0  0  0  0
 68 67  1  0  0  0  0
 70 69  1  0  0  0  0
M  END
>  <MODEL>
8

>  <REMARK>
 VINA RESULT:      -5.8      3.520      6.451
  Name = 
  20 active torsions:
  status: ('A' for Active; 'I' for Inactive)
    1  A    between atoms: C_1  and  N_57
    2  A    between atoms: C_1  and  C_63
    3  A    between atoms: O_6  and  C_40
    4  A    between atoms: O_8  and  O_13
    5  A    between atoms: O_8  and  C_53
    6  A    between atoms: O_13  and  C_23
    7  A    between atoms: N_21  and  C_49
    8  A    between atoms: N_24  and  O_44
    9  A    between atoms: S_25  and  C_39
   10  A    between atoms: S_25  and  C_61
   11  A    between atoms: C_27  and  C_58
   12  A    between atoms: C_28  and  O_34
   13  A    between atoms: C_28  and  O_44
   14  A    between atoms: O_34  and  C_61
   15  A    between atoms: C_43  and  C_58
   16  A    between atoms: C_49  and  C_69
   17  A    between atoms: C_51  and  N_57
   18  A    between atoms: C_51  and  C_69
   19  A    between atoms: C_61  and  C_66
   20  A    between atoms: N_64  and  C_65
                            x       y       z     vdW  Elec       q    Type
                         _______ _______ _______ _____ _____    ______ ____

>  <TORSDO>
F 20

$$$$
=
 OpenBabel11072409433D

 70 78  0  0  1  0  0  0  0  0999 V2000
  193.0150  172.1590  143.0000 O   0  0  0  0  0  0  0  0  0  0  0  0
  193.9020  172.5460  142.2590 C   0  0  0  0  0  0  0  0  0  0  0  0
  194.1500  173.9670  141.9230 C   0  0  2  0  0  0  0  0  0  0  0  0
  195.4220  172.6580  140.5230 C   0  0  0  0  0  2  0  0  0  0  0  0
  195.1820  173.9830  140.9500 O   0  0  0  0  0  0  0  0  0  0  0  0
  194.7690  171.6610  141.4710 C   0  0  2  0  0  3  0  0  0  0  0  0
  194.6740  176.1000  144.7810 C   0  0  0  0  0  0  0  0  0  0  0  0
  195.5210  174.3150  144.0130 C   0  0  0  0  0  3  0  0  0  0  0  0
  194.5680  174.6910  143.1330 N   0  0  0  0  0  0  0  0  0  0  0  0
  195.6180  175.1800  145.0460 N   0  0  0  0  0  0  0  0  0  0  0  0
  194.4000  177.2130  145.6220 N   0  0  0  0  0  1  0  0  0  0  0  0
  194.0090  175.8190  143.6120 C   0  0  0  0  0  3  0  0  0  0  0  0
  194.1760  170.6890  139.2360 C   0  0  0  0  0  1  0  0  0  0  0  0
  194.0120  170.5140  140.7470 C   0  0  1  0  0  0  0  0  0  0  0  0
  194.7630  168.8730  141.2010 S   0  0  0  0  0  0  0  0  0  0  0  0
  194.1710  169.1000  145.7630 C   0  0  0  0  0  3  0  0  0  0  0  0
  195.5920  169.3960  143.8210 C   0  0  0  0  0  0  0  0  0  0  0  0
  196.7120  169.9680  146.2550 Cl  0  0  0  0  0  0  0  0  0  0  0  0
  193.1310  168.6660  144.9360 C   0  0  0  0  0  3  0  0  0  0  0  0
  195.4010  169.4620  145.2070 C   0  0  0  0  0  0  0  0  0  0  0  0
  196.8050  169.7110  143.3000 F   0  0  0  0  0  0  0  0  0  0  0  0
  193.3180  168.6010  143.5540 C   0  0  0  0  0  3  0  0  0  0  0  0
  194.5390  168.9850  142.9870 C   0  0  0  0  0  0  0  0  0  0  0  0
  192.6200  170.5990  141.0360 O   0  0  0  0  0  0  0  0  0  0  0  0
  191.8240  169.8610  140.1270 C   0  0  0  0  0  2  0  0  0  0  0  0
  190.6570  170.5520  139.7800 O   0  0  0  0  0  0  0  0  0  0  0  0
  190.3350  170.5230  136.2140 N   0  0  0  0  0  2  0  0  0  0  0  0
  190.3370  170.1390  138.5270 N   0  0  0  0  0  2  0  0  0  0  0  0
  190.4120  171.0170  137.4040 C   0  0  0  0  0  0  0  0  0  0  0  0
  190.4880  172.4360  137.6060 N   0  0  0  0  0  2  0  0  0  0  0  0
  193.1890  172.7710  135.5150 C   0  0  0  0  0  1  0  0  0  0  0  0
  190.6980  175.5200  134.7420 C   0  0  0  0  0  2  0  0  0  0  0  0
  194.1270  174.0930  137.4470 C   0  0  0  0  0  1  0  0  0  0  0  0
  193.1000  175.2880  135.3890 C   0  0  1  0  0  3  0  0  0  0  0  0
  193.1010  174.0640  136.3180 C   0  0  0  0  0  0  0  0  0  0  0  0
  191.7080  175.6610  135.8860 C   0  0  2  0  0  3  0  0  0  0  0  0
  191.7130  174.4490  136.8310 C   0  0  1  0  0  3  0  0  0  0  0  0
  189.2430  174.1540  136.3690 C   0  0  0  0  0  2  0  0  0  0  0  0
  189.2850  175.2320  135.2710 C   0  0  0  0  0  2  0  0  0  0  0  0
  190.5820  173.4380  136.5450 C   0  0  2  0  0  3  0  0  0  0  0  0
  193.4170  177.4810  135.4640 C   0  0  0  0  0  1  0  0  0  0  0  0
  194.0160  176.2670  135.7930 O   0  0  0  0  0  0  0  0  0  0  0  0
  192.8710  174.5790  141.3290 C   0  0  0  0  0  2  0  0  0  0  0  0
  191.6130  173.8100  141.7000 C   0  0  0  0  0  2  0  0  0  0  0  0
  190.5810  173.9840  140.6760 N   0  0  0  0  0  2  0  0  0  0  0  0
  189.2270  174.1110  141.2430 C   0  0  0  0  0  0  0  0  0  0  0  0
  188.9870  173.1470  142.4030 C   0  0  0  0  0  1  0  0  0  0  0  0
  188.2370  173.7150  140.1620 C   0  0  0  0  0  1  0  0  0  0  0  0
  186.0840  178.0230  144.0090 O   0  0  0  0  0  0  0  0  0  0  0  0
  185.6500  176.9360  143.2080 C   0  0  0  0  0  2  0  0  0  0  0  0
  189.1140  175.7850  143.1710 C   0  0  0  0  0  0  0  0  0  0  0  0
  189.0970  177.1550  145.5760 C   0  0  0  0  0  0  0  0  0  0  0  0
  187.4510  176.0020  141.4660 C   0  0  2  0  0  3  0  0  0  0  0  0
  187.8900  176.8200  144.9430 C   0  0  0  0  0  0  0  0  0  0  0  0
  187.9260  176.0550  143.7880 C   0  0  0  0  0  0  0  0  0  0  0  0
  190.3080  176.7640  144.9630 C   0  0  0  0  0  3  0  0  0  0  0  0
  186.7850  175.9450  142.8610 C   0  0  1  0  0  3  0  0  0  0  0  0
  188.9240  175.5570  141.7040 C   0  0  2  0  0  3  0  0  0  0  0  0
  190.2960  176.1280  143.7550 N   0  0  0  0  0  0  0  0  0  0  0  0
  186.5870  177.5070  145.2250 C   0  0  0  0  0  2  0  0  0  0  0  0
  188.1080  178.2760  141.2710 O   0  0  0  0  0  0  0  0  0  0  0  0
  187.4120  177.3700  140.8350 C   0  0  0  0  0  0  0  0  0  0  0  0
  185.1140  177.9400  140.1380 C   0  0  0  0  0  1  0  0  0  0  0  0
  186.5160  177.6180  139.6670 C   0  0  0  0  0  2  0  0  0  0  0  0
  189.0870  177.9090  146.7540 O   0  0  0  0  0  0  0  0  0  0  0  0
  189.5120  177.4010  147.9310 O   0  0  0  0  0  0  0  0  0  0  0  0
  191.9250  177.0740  149.7770 C   0  0  0  0  0  2  0  0  0  0  0  0
  191.7250  176.6200  148.3420 C   0  0  0  0  0  2  0  0  0  0  0  0
  191.0470  178.2820  149.5140 C   0  0  0  0  0  2  0  0  0  0  0  0
  190.8400  177.8230  148.0810 C   0  0  0  0  0  3  0  0  0  0  0  0
  2  1  2  0  0  0  0
  3 43  1  6  0  0  0
  3  2  1  0  0  0  0
  3  9  1  0  0  0  0
  4  5  1  0  0  0  0
  4  6  1  0  0  0  0
  5  3  1  0  0  0  0
  6 14  1  6  0  0  0
  6  2  1  0  0  0  0
  7 10  1  0  0  0  0
  7 11  1  0  0  0  0
  8 10  2  0  0  0  0
  9 12  1  0  0  0  0
  9  8  1  0  0  0  0
 12  7  2  0  0  0  0
 14 13  1  6  0  0  0
 14 24  1  0  0  0  0
 14 15  1  0  0  0  0
 15 23  1  0  0  0  0
 17 20  2  0  0  0  0
 19 16  2  0  0  0  0
 20 16  1  0  0  0  0
 20 18  1  0  0  0  0
 21 17  1  0  0  0  0
 22 19  1  0  0  0  0
 23 22  2  0  0  0  0
 23 17  1  0  0  0  0
 25 24  1  0  0  0  0
 26 25  1  0  0  0  0
 27 29  2  0  0  0  0
 28 26  1  0  0  0  0
 29 30  1  0  0  0  0
 29 28  1  0  0  0  0
 31 35  1  0  0  0  0
 32 39  1  0  0  0  0
 34 42  1  1  0  0  0
 34 36  1  0  0  0  0
 34 35  1  0  0  0  0
 35 33  1  0  0  0  0
 36 32  1  6  0  0  0
 36 37  1  0  0  0  0
 37 35  1  6  0  0  0
 38 40  1  0  0  0  0
 39 38  1  0  0  0  0
 40 37  1  0  0  0  0
 40 30  1  1  0  0  0
 41 42  1  0  0  0  0
 43 44  1  0  0  0  0
 45 46  1  0  0  0  0
 45 44  1  0  0  0  0
 46 47  1  0  0  0  0
 48 46  1  0  0  0  0
 49 60  1  0  0  0  0
 50 49  1  0  0  0  0
 51 59  2  0  0  0  0
 51 55  1  0  0  0  0
 52 65  1  0  0  0  0
 53 62  1  1  0  0  0
 53 58  1  0  0  0  0
 53 57  1  0  0  0  0
 54 60  1  0  0  0  0
 54 52  1  0  0  0  0
 55 54  2  0  0  0  0
 56 52  2  0  0  0  0
 57 50  1  6  0  0  0
 57 55  1  0  0  0  0
 58 46  1  1  0  0  0
 58 51  1  0  0  0  0
 59 56  1  0  0  0  0
 62 61  2  0  0  0  0
 64 63  1  0  0  0  0
 64 62  1  0  0  0  0
 65 66  1  0  0  0  0
 66 70  1  0  0  0  0
 68 67  1  0  0  0  0
 69 67  1  0  0  0  0
 70 68  1  0  0  0  0
 70 69  1  0  0  0  0
M  END
>  <MODEL>
9

>  <REMARK>
 VINA RESULT:      -5.7      3.621      8.822
  Name = 
  20 active torsions:
  status: ('A' for Active; 'I' for Inactive)
    1  A    between atoms: C_1  and  N_57
    2  A    between atoms: C_1  and  C_63
    3  A    between atoms: O_6  and  C_40
    4  A    between atoms: O_8  and  O_13
    5  A    between atoms: O_8  and  C_53
    6  A    between atoms: O_13  and  C_23
    7  A    between atoms: N_21  and  C_49
    8  A    between atoms: N_24  and  O_44
    9  A    between atoms: S_25  and  C_39
   10  A    between atoms: S_25  and  C_61
   11  A    between atoms: C_27  and  C_58
   12  A    between atoms: C_28  and  O_34
   13  A    between atoms: C_28  and  O_44
   14  A    between atoms: O_34  and  C_61
   15  A    between atoms: C_43  and  C_58
   16  A    between atoms: C_49  and  C_69
   17  A    between atoms: C_51  and  N_57
   18  A    between atoms: C_51  and  C_69
   19  A    between atoms: C_61  and  C_66
   20  A    between atoms: N_64  and  C_65
                            x       y       z     vdW  Elec       q    Type
                         _______ _______ _______ _____ _____    ______ ____

>  <TORSDO>
F 20

$$$$
