=
 OpenBabel11062422343D

 59 65  0  0  1  0  0  0  0  0999 V2000
  187.3920  177.7480  140.8770 C   0  0  0  0  0  1  0  0  0  0  0  0
  188.1190  176.8930  141.9040 C   0  0  1  0  0  3  0  0  0  0  0  0
  186.0980  176.3790  143.0120 O   0  0  0  0  0  0  0  0  0  0  0  0
  187.2600  176.7330  143.1350 C   0  0  0  0  0  0  0  0  0  0  0  0
  187.7880  177.0230  144.5100 C   0  0  0  0  0  2  0  0  0  0  0  0
  187.0240  176.3630  145.4760 O   0  0  0  0  0  0  0  0  0  0  0  0
  188.2200  177.4610  147.1770 C   0  0  0  0  0  0  0  0  0  0  0  0
  189.5740  177.7090  147.2130 O   0  0  0  0  0  0  0  0  0  0  0  0
  189.2520  175.6820  146.0740 C   0  0  1  0  0  3  0  0  0  0  0  0
  189.4370  174.1940  146.3500 C   0  0  0  0  0  1  0  0  0  0  0  0
  187.8850  176.1620  146.5620 C   0  0  2  0  0  3  0  0  0  0  0  0
  190.3220  176.6210  146.6980 C   0  0  2  0  0  0  0  0  0  0  0  0
  187.3670  178.2680  147.6280 O   0  0  0  0  0  0  0  0  0  0  0  0
  191.0750  175.9750  147.8650 C   0  0  0  0  0  1  0  0  0  0  0  0
  191.2820  177.1060  145.5840 C   0  0  2  0  0  3  0  0  0  0  0  0
  190.8540  178.4620  143.6790 O   0  0  0  0  0  0  0  0  0  0  0  0
  190.6040  177.4290  144.2810 C   0  0  0  0  0  3  0  0  0  0  0  0
  192.5700  176.2980  145.3690 C   0  0  2  0  0  3  0  0  0  0  0  0
  193.7240  177.1630  145.1580 N   0  0  0  0  0  2  0  0  0  0  0  0
  194.5160  177.1200  146.3750 C   0  0  0  0  0  1  0  0  0  0  0  0
  192.3990  175.3210  144.2120 C   0  0  0  0  0  2  0  0  0  0  0  0
  193.3120  174.1440  144.3460 C   0  0  0  0  0  0  0  0  0  0  0  0
  194.3210  174.5230  142.1890 N   0  0  0  0  0  2  0  0  0  0  0  0
  194.1580  172.2120  145.6570 C   0  0  0  0  0  2  0  0  0  0  0  0
  195.1070  172.5660  143.3550 C   0  0  0  0  0  2  0  0  0  0  0  0
  193.2490  173.3880  145.4480 C   0  0  0  0  0  3  0  0  0  0  0  0
  194.2280  173.7750  143.2400 C   0  0  0  0  0  0  0  0  0  0  0  0
  194.4960  171.5450  144.3240 C   0  0  1  0  0  3  0  0  0  0  0  0
  195.3910  170.3240  144.5360 C   0  0  0  0  0  3  0  0  0  0  0  0
  194.8960  169.4850  145.7000 C   0  0  0  0  0  1  0  0  0  0  0  0
  195.5140  169.4600  143.2900 C   0  0  0  0  0  1  0  0  0  0  0  0
  188.4850  175.5490  141.2810 C   0  0  0  0  0  2  0  0  0  0  0  0
  190.1150  173.7100  141.5110 C   0  0  0  0  0  0  0  0  0  0  0  0
  188.3440  173.9100  143.0240 O   0  0  0  0  0  0  0  0  0  0  0  0
  189.2560  174.6620  142.2530 C   0  0  2  0  0  3  0  0  0  0  0  0
  189.7100  172.3270  141.8370 C   0  0  2  0  0  3  0  0  0  0  0  0
  188.4190  172.5620  142.5970 C   0  0  2  0  0  3  0  0  0  0  0  0
  187.2260  172.2300  141.7150 C   0  0  0  0  0  1  0  0  0  0  0  0
  191.0350  174.1210  140.6090 C   0  0  0  0  0  3  0  0  0  0  0  0
  190.0640  172.5970  136.6510 C   0  0  1  0  0  3  0  0  0  0  0  0
  191.9160  173.3270  139.6680 C   0  0  2  0  0  3  0  0  0  0  0  0
  193.0220  174.0950  139.1000 C   0  0  0  0  0  2  0  0  0  0  0  0
  190.4030  170.5770  138.6970 O   0  0  0  0  0  0  0  0  0  0  0  0
  189.6790  171.1450  136.4110 C   0  0  0  0  0  2  0  0  0  0  0  0
  191.7970  173.8020  138.2020 C   0  0  2  0  0  0  0  0  0  0  0  0
  190.5480  170.2970  137.3300 C   0  0  1  0  0  0  0  0  0  0  0  0
  189.0090  173.2500  137.2910 O   0  0  0  0  0  1  0  0  0  0  0  0
  191.5490  171.0970  138.0490 C   0  0  1  0  0  3  0  0  0  0  0  0
  191.2770  172.5290  137.5870 C   0  0  1  0  0  0  0  0  0  0  0  0
  190.9000  168.8540  137.0270 C   0  0  0  0  0  1  0  0  0  0  0  0
  192.5150  173.1130  137.0880 N   0  0  0  0  0  0  0  0  0  0  0  0
  192.3380  173.9550  135.9050 C   0  0  0  0  0  2  0  0  0  0  0  0
  192.4170  175.4250  136.2920 C   0  0  0  0  0  2  0  0  0  0  0  0
  191.7850  176.3140  135.2270 C   0  0  0  0  0  2  0  0  0  0  0  0
  192.5690  177.5390  135.0440 C   0  0  0  0  0  0  0  0  0  0  0  0
  193.2140  178.5430  134.8890 C   0  0  0  0  0  3  0  0  0  0  0  0
  190.6900  171.6390  142.7490 C   0  0  0  0  0  0  0  0  0  0  0  0
  191.7410  170.7140  142.2230 C   0  0  0  0  0  1  0  0  0  0  0  0
  190.6580  171.8770  143.9450 O   0  0  0  0  0  0  0  0  0  0  0  0
  2  1  1  6  0  0  0
  2  4  1  0  0  0  0
  3  4  2  0  0  0  0
  4  5  1  0  0  0  0
  5  6  1  0  0  0  0
  7  8  1  0  0  0  0
  7 13  2  0  0  0  0
  9 10  1  1  0  0  0
  9 11  1  0  0  0  0
  9 12  1  0  0  0  0
 11  6  1  6  0  0  0
 11  7  1  0  0  0  0
 12  8  1  0  0  0  0
 12 14  1  1  0  0  0
 15 17  1  6  0  0  0
 15 12  1  0  0  0  0
 16 17  2  0  0  0  0
 18 21  1  6  0  0  0
 18 15  1  0  0  0  0
 19 18  1  0  0  0  0
 19 20  1  0  0  0  0
 21 22  1  0  0  0  0
 22 26  2  0  0  0  0
 23 27  2  0  0  0  0
 25 28  1  0  0  0  0
 26 24  1  0  0  0  0
 27 25  1  0  0  0  0
 27 22  1  0  0  0  0
 28 29  1  1  0  0  0
 28 24  1  0  0  0  0
 29 30  1  0  0  0  0
 31 29  1  0  0  0  0
 32  2  1  0  0  0  0
 33 36  1  0  0  0  0
 33 35  1  0  0  0  0
 35 32  1  6  0  0  0
 35 34  1  0  0  0  0
 36 37  1  0  0  0  0
 36 57  1  1  0  0  0
 37 38  1  6  0  0  0
 37 34  1  0  0  0  0
 39 33  2  0  0  0  0
 40 47  1  1  0  0  0
 40 49  1  0  0  0  0
 41 39  1  1  0  0  0
 42 41  1  0  0  0  0
 44 40  1  0  0  0  0
 44 46  1  0  0  0  0
 45 42  1  6  0  0  0
 45 41  1  0  0  0  0
 46 50  1  6  0  0  0
 46 48  1  0  0  0  0
 46 43  1  0  0  0  0
 48 43  1  1  0  0  0
 49 51  1  6  0  0  0
 49 48  1  0  0  0  0
 49 45  1  0  0  0  0
 51 45  1  0  0  0  0
 52 53  1  0  0  0  0
 52 51  1  0  0  0  0
 54 53  1  0  0  0  0
 55 54  1  0  0  0  0
 56 55  3  0  0  0  0
 57 59  2  0  0  0  0
 58 57  1  0  0  0  0
M  END
>  <MODEL>
1

>  <REMARK>
 VINA RESULT:      -6.5      0.000      0.000
  Name = 
  19 active torsions:
  status: ('A' for Active; 'I' for Inactive)
    1  A    between atoms: C_4  and  C_13
    2  A    between atoms: C_4  and  C_34
    3  A    between atoms: C_6  and  C_57
    4  A    between atoms: C_8  and  C_27
    5  A    between atoms: C_8  and  C_29
    6  A    between atoms: C_8  and  C_42
    7  A    between atoms: C_9  and  C_25
    8  A    between atoms: C_9  and  C_29
    9  A    between atoms: C_11  and  C_34
   10  A    between atoms: N_12  and  C_29
   11  A    between atoms: C_13  and  N_59
   12  A    between atoms: C_14  and  C_56
   13  A    between atoms: C_21  and  C_45
   14  A    between atoms: C_26  and  O_38
   15  A    between atoms: C_32  and  O_38
   16  A    between atoms: C_32  and  C_55
   17  A    between atoms: C_35  and  C_40
   18  A    between atoms: C_35  and  C_51
   19  A    between atoms: C_51  and  C_55
                            x       y       z     vdW  Elec       q    Type
                         _______ _______ _______ _____ _____    ______ ____

>  <TORSDO>
F 19

$$$$
=
 OpenBabel11062422343D

 59 65  0  0  1  0  0  0  0  0999 V2000
  188.2750  172.2520  140.6950 C   0  0  0  0  0  1  0  0  0  0  0  0
  188.8330  173.5990  140.2610 C   0  0  1  0  0  3  0  0  0  0  0  0
  187.8430  175.4440  141.3540 O   0  0  0  0  0  0  0  0  0  0  0  0
  188.7150  174.5890  141.3940 C   0  0  0  0  0  0  0  0  0  0  0  0
  189.6600  174.5720  142.5600 C   0  0  0  0  0  2  0  0  0  0  0  0
  189.0840  173.9080  143.6470 O   0  0  0  0  0  0  0  0  0  0  0  0
  190.1670  173.9810  145.7330 C   0  0  0  0  0  0  0  0  0  0  0  0
  191.3470  174.6230  146.0340 O   0  0  0  0  0  0  0  0  0  0  0  0
  191.4840  173.8890  143.8080 C   0  0  1  0  0  3  0  0  0  0  0  0
  192.1900  172.7870  143.0270 C   0  0  0  0  0  1  0  0  0  0  0  0
  190.1580  173.3900  144.3810 C   0  0  2  0  0  3  0  0  0  0  0  0
  192.2920  174.5070  144.9840 C   0  0  2  0  0  0  0  0  0  0  0  0
  189.2030  173.9130  146.5390 O   0  0  0  0  0  0  0  0  0  0  0  0
  193.4250  173.5980  145.4700 C   0  0  0  0  0  1  0  0  0  0  0  0
  192.8070  175.9050  144.5650 C   0  0  2  0  0  3  0  0  0  0  0  0
  194.5220  177.0730  145.7260 O   0  0  0  0  0  0  0  0  0  0  0  0
  193.3500  176.7300  145.7000 C   0  0  0  0  0  3  0  0  0  0  0  0
  191.9040  176.7360  143.6410 C   0  0  2  0  0  3  0  0  0  0  0  0
  192.6130  177.1840  142.4490 N   0  0  0  0  0  2  0  0  0  0  0  0
  193.5680  176.1440  142.1060 C   0  0  0  0  0  1  0  0  0  0  0  0
  191.3070  177.9150  144.3980 C   0  0  0  0  0  2  0  0  0  0  0  0
  189.8480  177.7200  144.6620 C   0  0  0  0  0  0  0  0  0  0  0  0
  189.2430  178.2000  142.3770 N   0  0  0  0  0  2  0  0  0  0  0  0
  187.9950  177.1690  146.2220 C   0  0  0  0  0  2  0  0  0  0  0  0
  187.3890  177.7890  143.8600 C   0  0  0  0  0  2  0  0  0  0  0  0
  189.4410  177.4080  145.8980 C   0  0  0  0  0  3  0  0  0  0  0  0
  188.8550  177.9370  143.5820 C   0  0  0  0  0  0  0  0  0  0  0  0
  187.0930  178.0390  145.3460 C   0  0  1  0  0  3  0  0  0  0  0  0
  185.6210  177.8250  145.6980 C   0  0  0  0  0  3  0  0  0  0  0  0
  185.2990  178.4120  147.0600 C   0  0  0  0  0  1  0  0  0  0  0  0
  184.6760  178.3970  144.6510 C   0  0  0  0  0  1  0  0  0  0  0  0
  190.2760  173.4280  139.7960 C   0  0  0  0  0  2  0  0  0  0  0  0
  191.8570  172.0240  138.5230 C   0  0  0  0  0  0  0  0  0  0  0  0
  189.7830  172.5880  137.6060 O   0  0  0  0  0  0  0  0  0  0  0  0
  190.4260  172.2660  138.8200 C   0  0  2  0  0  3  0  0  0  0  0  0
  192.0970  172.2110  137.0770 C   0  0  2  0  0  3  0  0  0  0  0  0
  190.7820  172.8170  136.6290 C   0  0  2  0  0  3  0  0  0  0  0  0
  190.9470  174.3100  136.3960 C   0  0  0  0  0  1  0  0  0  0  0  0
  192.7650  171.7820  139.4960 C   0  0  0  0  0  3  0  0  0  0  0  0
  195.7600  174.8940  138.9710 C   0  0  1  0  0  3  0  0  0  0  0  0
  194.2700  171.6330  139.4260 C   0  0  2  0  0  3  0  0  0  0  0  0
  194.8880  171.2520  140.6940 C   0  0  0  0  0  2  0  0  0  0  0  0
  195.4600  173.0850  136.7300 O   0  0  0  0  0  0  0  0  0  0  0  0
  196.4160  175.1720  137.6260 C   0  0  0  0  0  2  0  0  0  0  0  0
  195.0120  172.7230  140.2320 C   0  0  2  0  0  0  0  0  0  0  0  0
  196.6310  173.8260  136.9500 C   0  0  1  0  0  0  0  0  0  0  0  0
  194.4420  175.3530  138.9410 O   0  0  0  0  0  1  0  0  0  0  0  0
  196.2740  172.6970  137.8220 C   0  0  1  0  0  3  0  0  0  0  0  0
  195.7750  173.3660  139.1020 C   0  0  1  0  0  0  0  0  0  0  0  0
  197.7160  173.5890  135.9180 C   0  0  0  0  0  1  0  0  0  0  0  0
  196.5020  172.8200  140.2400 N   0  0  0  0  0  0  0  0  0  0  0  0
  196.8420  173.8140  141.2590 C   0  0  0  0  0  2  0  0  0  0  0  0
  196.0430  173.5550  142.5300 C   0  0  0  0  0  2  0  0  0  0  0  0
  196.6720  174.2490  143.7310 C   0  0  0  0  0  2  0  0  0  0  0  0
  196.8790  175.6740  143.4560 C   0  0  0  0  0  0  0  0  0  0  0  0
  197.0460  176.8450  143.2320 C   0  0  0  0  0  3  0  0  0  0  0  0
  192.3000  170.9060  136.3540 C   0  0  0  0  0  0  0  0  0  0  0  0
  193.4120  170.7140  135.3720 C   0  0  0  0  0  1  0  0  0  0  0  0
  191.5680  169.9650  136.6080 O   0  0  0  0  0  0  0  0  0  0  0  0
  2  1  1  1  0  0  0
  2  4  1  0  0  0  0
  3  4  2  0  0  0  0
  4  5  1  0  0  0  0
  5  6  1  0  0  0  0
  7  8  1  0  0  0  0
  7 13  2  0  0  0  0
  9 10  1  1  0  0  0
  9 11  1  0  0  0  0
  9 12  1  0  0  0  0
 11  6  1  6  0  0  0
 11  7  1  0  0  0  0
 12 14  1  1  0  0  0
 12  8  1  0  0  0  0
 15 12  1  0  0  0  0
 15 17  1  1  0  0  0
 17 16  2  0  0  0  0
 18 21  1  1  0  0  0
 18 15  1  0  0  0  0
 19 18  1  0  0  0  0
 20 19  1  0  0  0  0
 21 22  1  0  0  0  0
 22 26  2  0  0  0  0
 23 27  2  0  0  0  0
 25 28  1  0  0  0  0
 26 24  1  0  0  0  0
 27 25  1  0  0  0  0
 27 22  1  0  0  0  0
 28 29  1  6  0  0  0
 28 24  1  0  0  0  0
 29 30  1  0  0  0  0
 31 29  1  0  0  0  0
 32  2  1  0  0  0  0
 33 35  1  0  0  0  0
 33 39  2  0  0  0  0
 34 35  1  0  0  0  0
 35 32  1  1  0  0  0
 36 57  1  6  0  0  0
 36 33  1  0  0  0  0
 37 38  1  1  0  0  0
 37 36  1  0  0  0  0
 37 34  1  0  0  0  0
 40 47  1  6  0  0  0
 40 49  1  0  0  0  0
 41 39  1  1  0  0  0
 41 45  1  0  0  0  0
 41 42  1  0  0  0  0
 43 46  1  0  0  0  0
 44 40  1  0  0  0  0
 45 51  1  0  0  0  0
 45 42  1  1  0  0  0
 46 50  1  6  0  0  0
 46 44  1  0  0  0  0
 46 48  1  0  0  0  0
 48 43  1  6  0  0  0
 48 49  1  0  0  0  0
 49 45  1  0  0  0  0
 49 51  1  1  0  0  0
 51 52  1  0  0  0  0
 52 53  1  0  0  0  0
 53 54  1  0  0  0  0
 55 54  1  0  0  0  0
 56 55  3  0  0  0  0
 57 59  2  0  0  0  0
 58 57  1  0  0  0  0
M  END
>  <MODEL>
2

>  <REMARK>
 VINA RESULT:      -6.3      2.715      6.330
  Name = 
  19 active torsions:
  status: ('A' for Active; 'I' for Inactive)
    1  A    between atoms: C_4  and  C_13
    2  A    between atoms: C_4  and  C_34
    3  A    between atoms: C_6  and  C_57
    4  A    between atoms: C_8  and  C_27
    5  A    between atoms: C_8  and  C_29
    6  A    between atoms: C_8  and  C_42
    7  A    between atoms: C_9  and  C_25
    8  A    between atoms: C_9  and  C_29
    9  A    between atoms: C_11  and  C_34
   10  A    between atoms: N_12  and  C_29
   11  A    between atoms: C_13  and  N_59
   12  A    between atoms: C_14  and  C_56
   13  A    between atoms: C_21  and  C_45
   14  A    between atoms: C_26  and  O_38
   15  A    between atoms: C_32  and  O_38
   16  A    between atoms: C_32  and  C_55
   17  A    between atoms: C_35  and  C_40
   18  A    between atoms: C_35  and  C_51
   19  A    between atoms: C_51  and  C_55
                            x       y       z     vdW  Elec       q    Type
                         _______ _______ _______ _____ _____    ______ ____

>  <TORSDO>
F 19

$$$$
=
 OpenBabel11062422343D

 59 65  0  0  1  0  0  0  0  0999 V2000
  196.2520  176.3230  141.4640 C   0  0  0  0  0  1  0  0  0  0  0  0
  196.1330  174.8590  141.0700 C   0  0  1  0  0  3  0  0  0  0  0  0
  197.2500  175.2470  139.0260 O   0  0  0  0  0  0  0  0  0  0  0  0
  196.2980  174.7160  139.5770 C   0  0  0  0  0  0  0  0  0  0  0  0
  195.3050  173.9610  138.7400 C   0  0  0  0  0  2  0  0  0  0  0  0
  194.0060  174.1790  139.2070 O   0  0  0  0  0  0  0  0  0  0  0  0
  192.0870  173.9060  137.8760 C   0  0  0  0  0  0  0  0  0  0  0  0
  190.8540  173.4450  138.2810 O   0  0  0  0  0  0  0  0  0  0  0  0
  192.4820  172.3550  139.5750 C   0  0  1  0  0  3  0  0  0  0  0  0
  193.1150  170.9700  139.6550 C   0  0  0  0  0  1  0  0  0  0  0  0
  193.2090  173.2300  138.5540 C   0  0  2  0  0  3  0  0  0  0  0  0
  190.9700  172.3840  139.2140 C   0  0  2  0  0  0  0  0  0  0  0  0
  192.2260  174.8120  137.0140 O   0  0  0  0  0  0  0  0  0  0  0  0
  190.4950  171.1000  138.5280 C   0  0  0  0  0  1  0  0  0  0  0  0
  190.1510  172.6990  140.4900 C   0  0  2  0  0  3  0  0  0  0  0  0
  189.5030  171.6880  142.5410 O   0  0  0  0  0  0  0  0  0  0  0  0
  190.1810  171.6120  141.5290 C   0  0  0  0  0  3  0  0  0  0  0  0
  188.7330  173.2560  140.2920 C   0  0  2  0  0  3  0  0  0  0  0  0
  188.0500  172.6160  139.1750 N   0  0  0  0  0  2  0  0  0  0  0  0
  187.8820  173.6270  138.1440 C   0  0  0  0  0  1  0  0  0  0  0  0
  188.7750  174.7690  140.1140 C   0  0  0  0  0  2  0  0  0  0  0  0
  187.8440  175.4610  141.0570 C   0  0  0  0  0  0  0  0  0  0  0  0
  187.0260  176.9560  139.3510 N   0  0  0  0  0  2  0  0  0  0  0  0
  186.8710  175.7100  143.3290 C   0  0  0  0  0  2  0  0  0  0  0  0
  186.1260  177.3310  141.5540 C   0  0  0  0  0  2  0  0  0  0  0  0
  187.8050  175.0780  142.3380 C   0  0  0  0  0  3  0  0  0  0  0  0
  187.0220  176.6060  140.5960 C   0  0  0  0  0  0  0  0  0  0  0  0
  186.6430  177.1850  142.9920 C   0  0  1  0  0  3  0  0  0  0  0  0
  185.7210  177.8420  144.0200 C   0  0  0  0  0  3  0  0  0  0  0  0
  184.3650  178.1500  143.4130 C   0  0  0  0  0  1  0  0  0  0  0  0
  185.5480  177.0020  145.2770 C   0  0  0  0  0  1  0  0  0  0  0  0
  197.1630  174.0380  141.8410 C   0  0  0  0  0  2  0  0  0  0  0  0
  195.2790  173.0500  143.0940 C   0  0  0  0  0  0  0  0  0  0  0  0
  197.4430  172.2080  143.3630 O   0  0  0  0  0  0  0  0  0  0  0  0
  196.5600  172.7570  142.4090 C   0  0  2  0  0  3  0  0  0  0  0  0
  195.3860  172.6710  144.5180 C   0  0  2  0  0  3  0  0  0  0  0  0
  196.8710  172.3920  144.6450 C   0  0  2  0  0  3  0  0  0  0  0  0
  197.5590  173.5420  145.3610 C   0  0  0  0  0  1  0  0  0  0  0  0
  194.2530  173.6720  142.4700 C   0  0  0  0  0  3  0  0  0  0  0  0
  193.5250  176.9360  145.2530 C   0  0  1  0  0  3  0  0  0  0  0  0
  192.9270  174.1680  143.0070 C   0  0  2  0  0  3  0  0  0  0  0  0
  192.0940  174.8350  142.0080 C   0  0  0  0  0  2  0  0  0  0  0  0
  192.9720  174.2890  146.2900 O   0  0  0  0  0  0  0  0  0  0  0  0
  193.2500  176.6980  146.7310 C   0  0  0  0  0  2  0  0  0  0  0  0
  192.8420  175.7110  143.0410 C   0  0  2  0  0  0  0  0  0  0  0  0
  192.3890  175.4470  146.8270 C   0  0  1  0  0  0  0  0  0  0  0  0
  194.8750  176.6910  144.9940 O   0  0  0  0  0  1  0  0  0  0  0  0
  191.9880  174.9400  145.5060 C   0  0  1  0  0  3  0  0  0  0  0  0
  192.6600  175.9000  144.5250 C   0  0  1  0  0  0  0  0  0  0  0  0
  191.4470  175.1850  147.9850 C   0  0  0  0  0  1  0  0  0  0  0  0
  191.6570  176.4230  143.6070 N   0  0  0  0  0  0  0  0  0  0  0  0
  191.8340  177.8380  143.2780 C   0  0  0  0  0  2  0  0  0  0  0  0
  190.7800  178.6770  143.9890 C   0  0  0  0  0  2  0  0  0  0  0  0
  189.4860  177.8960  144.1790 C   0  0  0  0  0  2  0  0  0  0  0  0
  189.2280  177.6610  145.6020 C   0  0  0  0  0  0  0  0  0  0  0  0
  189.0170  177.4640  146.7710 C   0  0  0  0  0  3  0  0  0  0  0  0
  194.6270  171.4100  144.8370 C   0  0  0  0  0  0  0  0  0  0  0  0
  193.8430  170.6770  143.7950 C   0  0  0  0  0  1  0  0  0  0  0  0
  194.6900  170.9460  145.9640 O   0  0  0  0  0  0  0  0  0  0  0  0
  2  1  1  6  0  0  0
  2 32  1  0  0  0  0
  3  4  2  0  0  0  0
  4  2  1  0  0  0  0
  5  6  1  0  0  0  0
  5  4  1  0  0  0  0
  7  8  1  0  0  0  0
  7 11  1  0  0  0  0
  8 12  1  0  0  0  0
  9 10  1  6  0  0  0
 11  6  1  1  0  0  0
 11  9  1  0  0  0  0
 12 14  1  6  0  0  0
 12  9  1  0  0  0  0
 12 15  1  0  0  0  0
 13  7  2  0  0  0  0
 15 17  1  6  0  0  0
 17 16  2  0  0  0  0
 18 21  1  6  0  0  0
 18 15  1  0  0  0  0
 19 18  1  0  0  0  0
 20 19  1  0  0  0  0
 21 22  1  0  0  0  0
 22 26  2  0  0  0  0
 23 27  2  0  0  0  0
 25 28  1  0  0  0  0
 26 24  1  0  0  0  0
 27 22  1  0  0  0  0
 27 25  1  0  0  0  0
 28 24  1  0  0  0  0
 28 29  1  1  0  0  0
 29 31  1  0  0  0  0
 30 29  1  0  0  0  0
 33 36  1  0  0  0  0
 34 37  1  0  0  0  0
 35 32  1  1  0  0  0
 35 33  1  0  0  0  0
 35 34  1  0  0  0  0
 36 37  1  0  0  0  0
 36 57  1  6  0  0  0
 37 38  1  6  0  0  0
 39 33  2  0  0  0  0
 40 47  1  1  0  0  0
 40 44  1  0  0  0  0
 41 39  1  6  0  0  0
 41 45  1  0  0  0  0
 42 41  1  0  0  0  0
 43 46  1  0  0  0  0
 44 46  1  0  0  0  0
 45 42  1  6  0  0  0
 45 51  1  0  0  0  0
 45 49  1  0  0  0  0
 46 50  1  1  0  0  0
 48 43  1  6  0  0  0
 48 46  1  0  0  0  0
 49 51  1  6  0  0  0
 49 40  1  0  0  0  0
 49 48  1  0  0  0  0
 52 51  1  0  0  0  0
 52 53  1  0  0  0  0
 53 54  1  0  0  0  0
 54 55  1  0  0  0  0
 55 56  3  0  0  0  0
 57 59  2  0  0  0  0
 58 57  1  0  0  0  0
M  END
>  <MODEL>
3

>  <REMARK>
 VINA RESULT:      -6.1      2.783      9.024
  Name = 
  19 active torsions:
  status: ('A' for Active; 'I' for Inactive)
    1  A    between atoms: C_4  and  C_13
    2  A    between atoms: C_4  and  C_34
    3  A    between atoms: C_6  and  C_57
    4  A    between atoms: C_8  and  C_27
    5  A    between atoms: C_8  and  C_29
    6  A    between atoms: C_8  and  C_42
    7  A    between atoms: C_9  and  C_25
    8  A    between atoms: C_9  and  C_29
    9  A    between atoms: C_11  and  C_34
   10  A    between atoms: N_12  and  C_29
   11  A    between atoms: C_13  and  N_59
   12  A    between atoms: C_14  and  C_56
   13  A    between atoms: C_21  and  C_45
   14  A    between atoms: C_26  and  O_38
   15  A    between atoms: C_32  and  O_38
   16  A    between atoms: C_32  and  C_55
   17  A    between atoms: C_35  and  C_40
   18  A    between atoms: C_35  and  C_51
   19  A    between atoms: C_51  and  C_55
                            x       y       z     vdW  Elec       q    Type
                         _______ _______ _______ _____ _____    ______ ____

>  <TORSDO>
F 19

$$$$
=
 OpenBabel11062422343D

 59 65  0  0  1  0  0  0  0  0999 V2000
  194.2620  176.1640  141.1980 C   0  0  0  0  0  1  0  0  0  0  0  0
  195.6810  175.6450  141.0230 C   0  0  1  0  0  3  0  0  0  0  0  0
  197.3710  174.7880  142.4330 O   0  0  0  0  0  0  0  0  0  0  0  0
  196.2000  175.1250  142.3410 C   0  0  0  0  0  0  0  0  0  0  0  0
  195.3100  174.9830  143.5420 C   0  0  0  0  0  2  0  0  0  0  0  0
  196.0570  174.6110  144.6640 O   0  0  0  0  0  0  0  0  0  0  0  0
  194.3040  173.3900  145.6480 C   0  0  0  0  0  0  0  0  0  0  0  0
  192.9580  173.6760  145.5890 O   0  0  0  0  0  0  0  0  0  0  0  0
  194.1200  175.7160  145.5660 C   0  0  1  0  0  3  0  0  0  0  0  0
  194.4020  176.8610  146.5310 C   0  0  0  0  0  1  0  0  0  0  0  0
  195.1490  174.5970  145.7300 C   0  0  2  0  0  3  0  0  0  0  0  0
  192.7110  175.0680  145.6820 C   0  0  2  0  0  0  0  0  0  0  0  0
  194.7530  172.2150  145.6320 O   0  0  0  0  0  0  0  0  0  0  0  0
  192.0410  175.3380  147.0330 C   0  0  0  0  0  1  0  0  0  0  0  0
  191.8380  175.5410  144.4950 C   0  0  2  0  0  3  0  0  0  0  0  0
  191.9270  177.4870  143.1340 O   0  0  0  0  0  0  0  0  0  0  0  0
  191.8600  177.0260  144.2620 C   0  0  0  0  0  3  0  0  0  0  0  0
  190.4130  174.9730  144.4040 C   0  0  2  0  0  3  0  0  0  0  0  0
  190.4070  173.5990  143.9180 N   0  0  0  0  0  2  0  0  0  0  0  0
  190.1420  173.6540  142.4900 C   0  0  0  0  0  1  0  0  0  0  0  0
  189.5380  175.8650  143.5330 C   0  0  0  0  0  2  0  0  0  0  0  0
  188.2490  176.2040  144.2110 C   0  0  0  0  0  0  0  0  0  0  0  0
  186.9860  176.0560  142.1620 N   0  0  0  0  0  2  0  0  0  0  0  0
  186.9830  176.7690  146.2720 C   0  0  0  0  0  2  0  0  0  0  0  0
  185.7160  176.7210  144.0990 C   0  0  0  0  0  2  0  0  0  0  0  0
  188.2460  176.4530  145.5260 C   0  0  0  0  0  3  0  0  0  0  0  0
  186.9980  176.3330  143.4250 C   0  0  0  0  0  0  0  0  0  0  0  0
  185.9990  177.5230  145.3770 C   0  0  1  0  0  3  0  0  0  0  0  0
  184.7260  177.8790  146.1440 C   0  0  0  0  0  3  0  0  0  0  0  0
  185.0530  178.3460  147.5500 C   0  0  0  0  0  1  0  0  0  0  0  0
  183.8840  178.9290  145.4330 C   0  0  0  0  0  1  0  0  0  0  0  0
  195.7020  174.5740  139.9360 C   0  0  0  0  0  2  0  0  0  0  0  0
  194.2620  174.2150  137.9630 C   0  0  0  0  0  0  0  0  0  0  0  0
  196.3640  175.2080  137.7220 O   0  0  0  0  0  0  0  0  0  0  0  0
  195.2530  175.1240  138.5870 C   0  0  2  0  0  3  0  0  0  0  0  0
  194.7910  173.7220  136.6750 C   0  0  2  0  0  3  0  0  0  0  0  0
  196.2290  174.2010  136.7360 C   0  0  2  0  0  3  0  0  0  0  0  0
  197.1540  173.0370  137.0510 C   0  0  0  0  0  1  0  0  0  0  0  0
  193.1210  173.8530  138.5910 C   0  0  0  0  0  3  0  0  0  0  0  0
  193.4370  169.5230  138.3140 C   0  0  1  0  0  3  0  0  0  0  0  0
  192.0500  172.8580  138.1950 C   0  0  2  0  0  3  0  0  0  0  0  0
  190.9780  172.7160  139.1790 C   0  0  0  0  0  2  0  0  0  0  0  0
  193.1180  170.8970  135.7850 O   0  0  0  0  0  0  0  0  0  0  0  0
  193.6250  168.8050  136.9850 C   0  0  0  0  0  2  0  0  0  0  0  0
  192.0480  171.6010  139.0950 C   0  0  2  0  0  0  0  0  0  0  0  0
  192.7810  169.5460  135.9570 C   0  0  1  0  0  0  0  0  0  0  0  0
  194.6280  170.1660  138.6580 O   0  0  0  0  0  1  0  0  0  0  0  0
  191.9690  170.6110  136.5620 C   0  0  1  0  0  3  0  0  0  0  0  0
  192.3440  170.5630  138.0430 C   0  0  1  0  0  0  0  0  0  0  0  0
  192.2350  168.8800  134.7100 C   0  0  0  0  0  1  0  0  0  0  0  0
  191.1300  170.4510  138.8400 N   0  0  0  0  0  0  0  0  0  0  0  0
  191.2590  169.5610  139.9940 C   0  0  0  0  0  2  0  0  0  0  0  0
  190.7360  170.2500  141.2470 C   0  0  0  0  0  2  0  0  0  0  0  0
  191.6980  170.0780  142.4170 C   0  0  0  0  0  2  0  0  0  0  0  0
  192.7790  171.0650  142.3470 C   0  0  0  0  0  0  0  0  0  0  0  0
  193.6690  171.8740  142.2940 C   0  0  0  0  0  3  0  0  0  0  0  0
  194.1170  174.3640  135.4920 C   0  0  0  0  0  0  0  0  0  0  0  0
  194.8710  175.2110  134.5170 C   0  0  0  0  0  1  0  0  0  0  0  0
  192.9310  174.1510  135.2950 O   0  0  0  0  0  0  0  0  0  0  0  0
  2  1  1  1  0  0  0
  2  4  1  0  0  0  0
  4  3  2  0  0  0  0
  4  5  1  0  0  0  0
  5  6  1  0  0  0  0
  7 11  1  0  0  0  0
  8  7  1  0  0  0  0
  8 12  1  0  0  0  0
  9 12  1  0  0  0  0
  9 11  1  0  0  0  0
  9 10  1  1  0  0  0
 11  6  1  6  0  0  0
 12 14  1  1  0  0  0
 13  7  2  0  0  0  0
 15 17  1  1  0  0  0
 15 12  1  0  0  0  0
 16 17  2  0  0  0  0
 18 21  1  6  0  0  0
 18 15  1  0  0  0  0
 19 18  1  0  0  0  0
 20 19  1  0  0  0  0
 21 22  1  0  0  0  0
 22 26  2  0  0  0  0
 23 27  2  0  0  0  0
 25 28  1  0  0  0  0
 26 24  1  0  0  0  0
 27 25  1  0  0  0  0
 27 22  1  0  0  0  0
 28 29  1  1  0  0  0
 28 24  1  0  0  0  0
 29 30  1  0  0  0  0
 31 29  1  0  0  0  0
 32  2  1  0  0  0  0
 33 35  1  0  0  0  0
 33 39  2  0  0  0  0
 34 35  1  0  0  0  0
 35 32  1  1  0  0  0
 36 57  1  6  0  0  0
 36 37  1  0  0  0  0
 36 33  1  0  0  0  0
 37 38  1  1  0  0  0
 37 34  1  0  0  0  0
 40 47  1  6  0  0  0
 41 39  1  1  0  0  0
 41 45  1  0  0  0  0
 41 42  1  0  0  0  0
 43 46  1  0  0  0  0
 44 40  1  0  0  0  0
 45 42  1  1  0  0  0
 46 50  1  6  0  0  0
 46 48  1  0  0  0  0
 46 44  1  0  0  0  0
 48 43  1  6  0  0  0
 48 49  1  0  0  0  0
 49 40  1  0  0  0  0
 49 51  1  1  0  0  0
 49 45  1  0  0  0  0
 51 45  1  0  0  0  0
 51 52  1  0  0  0  0
 52 53  1  0  0  0  0
 53 54  1  0  0  0  0
 55 54  1  0  0  0  0
 56 55  3  0  0  0  0
 58 57  1  0  0  0  0
 59 57  2  0  0  0  0
M  END
>  <MODEL>
4

>  <REMARK>
 VINA RESULT:      -5.7      3.068      7.370
  Name = 
  19 active torsions:
  status: ('A' for Active; 'I' for Inactive)
    1  A    between atoms: C_4  and  C_13
    2  A    between atoms: C_4  and  C_34
    3  A    between atoms: C_6  and  C_57
    4  A    between atoms: C_8  and  C_27
    5  A    between atoms: C_8  and  C_29
    6  A    between atoms: C_8  and  C_42
    7  A    between atoms: C_9  and  C_25
    8  A    between atoms: C_9  and  C_29
    9  A    between atoms: C_11  and  C_34
   10  A    between atoms: N_12  and  C_29
   11  A    between atoms: C_13  and  N_59
   12  A    between atoms: C_14  and  C_56
   13  A    between atoms: C_21  and  C_45
   14  A    between atoms: C_26  and  O_38
   15  A    between atoms: C_32  and  O_38
   16  A    between atoms: C_32  and  C_55
   17  A    between atoms: C_35  and  C_40
   18  A    between atoms: C_35  and  C_51
   19  A    between atoms: C_51  and  C_55
                            x       y       z     vdW  Elec       q    Type
                         _______ _______ _______ _____ _____    ______ ____

>  <TORSDO>
F 19

$$$$
=
 OpenBabel11062422343D

 59 65  0  0  1  0  0  0  0  0999 V2000
  191.1040  172.1680  143.6570 C   0  0  0  0  0  1  0  0  0  0  0  0
  191.5840  173.2820  142.7390 C   0  0  1  0  0  3  0  0  0  0  0  0
  193.5990  174.4640  143.0820 O   0  0  0  0  0  0  0  0  0  0  0  0
  193.0880  173.3890  142.8100 C   0  0  0  0  0  0  0  0  0  0  0  0
  193.9780  172.2140  142.5260 C   0  0  0  0  0  2  0  0  0  0  0  0
  194.6570  172.3940  141.3170 O   0  0  0  0  0  0  0  0  0  0  0  0
  195.8020  171.1590  139.6770 C   0  0  0  0  0  0  0  0  0  0  0  0
  195.2860  170.6610  138.5010 O   0  0  0  0  0  0  0  0  0  0  0  0
  193.5710  170.6240  140.1030 C   0  0  1  0  0  3  0  0  0  0  0  0
  192.8460  169.5870  140.9540 C   0  0  0  0  0  1  0  0  0  0  0  0
  194.8440  171.1080  140.7980 C   0  0  2  0  0  3  0  0  0  0  0  0
  193.9700  170.1630  138.6730 C   0  0  2  0  0  0  0  0  0  0  0  0
  196.9740  171.6090  139.7710 O   0  0  0  0  0  0  0  0  0  0  0  0
  194.0220  168.6390  138.5310 C   0  0  0  0  0  1  0  0  0  0  0  0
  193.0110  170.8120  137.6460 C   0  0  2  0  0  3  0  0  0  0  0  0
  192.7400  170.3160  135.3370 O   0  0  0  0  0  0  0  0  0  0  0  0
  193.4800  170.7220  136.2190 C   0  0  0  0  0  3  0  0  0  0  0  0
  192.4700  172.2100  137.9790 C   0  0  2  0  0  3  0  0  0  0  0  0
  191.0230  172.2830  137.8220 N   0  0  0  0  0  2  0  0  0  0  0  0
  190.7410  173.4610  137.0190 C   0  0  0  0  0  1  0  0  0  0  0  0
  193.1660  173.2670  137.1300 C   0  0  0  0  0  2  0  0  0  0  0  0
  194.1190  174.0850  137.9420 C   0  0  0  0  0  0  0  0  0  0  0  0
  195.9460  173.7000  136.4160 N   0  0  0  0  0  2  0  0  0  0  0  0
  194.5910  175.5100  139.9210 C   0  0  0  0  0  2  0  0  0  0  0  0
  196.5040  174.9910  138.3720 C   0  0  0  0  0  2  0  0  0  0  0  0
  193.6940  174.6520  139.0770 C   0  0  0  0  0  3  0  0  0  0  0  0
  195.5380  174.2110  137.5310 C   0  0  0  0  0  0  0  0  0  0  0  0
  196.0400  175.0280  139.8350 C   0  0  1  0  0  3  0  0  0  0  0  0
  196.9500  175.8760  140.7220 C   0  0  0  0  0  3  0  0  0  0  0  0
  196.1350  176.7450  141.6610 C   0  0  0  0  0  1  0  0  0  0  0  0
  197.9410  175.0400  141.5190 C   0  0  0  0  0  1  0  0  0  0  0  0
  191.0940  173.0190  141.3180 C   0  0  0  0  0  2  0  0  0  0  0  0
  189.6720  174.9110  142.0210 C   0  0  0  0  0  0  0  0  0  0  0  0
  188.7700  173.1680  140.7520 O   0  0  0  0  0  0  0  0  0  0  0  0
  189.9380  173.9380  140.9360 C   0  0  2  0  0  3  0  0  0  0  0  0
  188.2940  174.7250  142.5210 C   0  0  2  0  0  3  0  0  0  0  0  0
  187.8970  173.4330  141.8350 C   0  0  2  0  0  3  0  0  0  0  0  0
  187.9360  172.2820  142.8270 C   0  0  0  0  0  1  0  0  0  0  0  0
  190.6310  175.7360  142.5000 C   0  0  0  0  0  3  0  0  0  0  0  0
  189.6580  174.9180  146.6600 C   0  0  1  0  0  3  0  0  0  0  0  0
  190.6080  176.7030  143.6650 C   0  0  2  0  0  3  0  0  0  0  0  0
  191.9300  177.1780  144.0680 C   0  0  0  0  0  2  0  0  0  0  0  0
  187.7320  176.5530  145.2460 O   0  0  0  0  0  0  0  0  0  0  0  0
  188.2960  175.2430  147.2560 C   0  0  0  0  0  2  0  0  0  0  0  0
  191.2390  176.1050  144.9430 C   0  0  2  0  0  0  0  0  0  0  0  0
  187.8470  176.5630  146.6450 C   0  0  1  0  0  0  0  0  0  0  0  0
  189.5350  173.8140  145.8130 O   0  0  0  0  0  1  0  0  0  0  0  0
  188.8830  177.1670  145.7950 C   0  0  1  0  0  3  0  0  0  0  0  0
  190.0330  176.1600  145.8450 C   0  0  1  0  0  0  0  0  0  0  0  0
  186.8830  177.5040  147.3380 C   0  0  0  0  0  1  0  0  0  0  0  0
  191.2540  176.8500  146.2380 N   0  0  0  0  0  0  0  0  0  0  0  0
  192.1050  176.0780  147.1440 C   0  0  0  0  0  2  0  0  0  0  0  0
  193.1470  175.3010  146.3490 C   0  0  0  0  0  2  0  0  0  0  0  0
  194.5340  175.9120  146.5070 C   0  0  0  0  0  2  0  0  0  0  0  0
  195.5240  175.1490  145.7410 C   0  0  0  0  0  0  0  0  0  0  0  0
  196.3340  174.5200  145.1120 C   0  0  0  0  0  3  0  0  0  0  0  0
  187.3650  175.8200  142.0690 C   0  0  0  0  0  0  0  0  0  0  0  0
  187.6190  176.6050  140.8210 C   0  0  0  0  0  1  0  0  0  0  0  0
  186.3520  176.0430  142.7100 O   0  0  0  0  0  0  0  0  0  0  0  0
  2  4  1  0  0  0  0
  2  1  1  1  0  0  0
  4  3  2  0  0  0  0
  5  4  1  0  0  0  0
  6  5  1  0  0  0  0
  7 13  2  0  0  0  0
  7 11  1  0  0  0  0
  8 12  1  0  0  0  0
  8  7  1  0  0  0  0
  9 11  1  0  0  0  0
  9 10  1  1  0  0  0
 11  6  1  6  0  0  0
 12 14  1  6  0  0  0
 12  9  1  0  0  0  0
 15 17  1  6  0  0  0
 15 18  1  0  0  0  0
 15 12  1  0  0  0  0
 16 17  2  0  0  0  0
 18 21  1  6  0  0  0
 19 18  1  0  0  0  0
 20 19  1  0  0  0  0
 21 22  1  0  0  0  0
 22 26  2  0  0  0  0
 23 27  2  0  0  0  0
 25 28  1  0  0  0  0
 26 24  1  0  0  0  0
 27 22  1  0  0  0  0
 27 25  1  0  0  0  0
 28 24  1  0  0  0  0
 28 29  1  1  0  0  0
 29 31  1  0  0  0  0
 29 30  1  0  0  0  0
 32  2  1  0  0  0  0
 33 39  2  0  0  0  0
 33 36  1  0  0  0  0
 34 35  1  0  0  0  0
 34 37  1  0  0  0  0
 35 32  1  1  0  0  0
 35 33  1  0  0  0  0
 36 57  1  6  0  0  0
 37 36  1  0  0  0  0
 37 38  1  1  0  0  0
 40 47  1  6  0  0  0
 40 44  1  0  0  0  0
 41 39  1  6  0  0  0
 41 42  1  0  0  0  0
 41 45  1  0  0  0  0
 43 46  1  0  0  0  0
 45 42  1  6  0  0  0
 45 49  1  0  0  0  0
 45 51  1  0  0  0  0
 46 44  1  0  0  0  0
 46 50  1  1  0  0  0
 48 43  1  6  0  0  0
 48 49  1  0  0  0  0
 48 46  1  0  0  0  0
 49 51  1  1  0  0  0
 49 40  1  0  0  0  0
 51 52  1  0  0  0  0
 53 54  1  0  0  0  0
 53 52  1  0  0  0  0
 55 54  1  0  0  0  0
 56 55  3  0  0  0  0
 57 59  2  0  0  0  0
 58 57  1  0  0  0  0
M  END
>  <MODEL>
5

>  <REMARK>
 VINA RESULT:      -5.7      2.530      8.641
  Name = 
  19 active torsions:
  status: ('A' for Active; 'I' for Inactive)
    1  A    between atoms: C_4  and  C_13
    2  A    between atoms: C_4  and  C_34
    3  A    between atoms: C_6  and  C_57
    4  A    between atoms: C_8  and  C_27
    5  A    between atoms: C_8  and  C_29
    6  A    between atoms: C_8  and  C_42
    7  A    between atoms: C_9  and  C_25
    8  A    between atoms: C_9  and  C_29
    9  A    between atoms: C_11  and  C_34
   10  A    between atoms: N_12  and  C_29
   11  A    between atoms: C_13  and  N_59
   12  A    between atoms: C_14  and  C_56
   13  A    between atoms: C_21  and  C_45
   14  A    between atoms: C_26  and  O_38
   15  A    between atoms: C_32  and  O_38
   16  A    between atoms: C_32  and  C_55
   17  A    between atoms: C_35  and  C_40
   18  A    between atoms: C_35  and  C_51
   19  A    between atoms: C_51  and  C_55
                            x       y       z     vdW  Elec       q    Type
                         _______ _______ _______ _____ _____    ______ ____

>  <TORSDO>
F 19

$$$$
=
 OpenBabel11062422343D

 59 65  0  0  1  0  0  0  0  0999 V2000
  195.5610  176.3640  141.8210 C   0  0  0  0  0  1  0  0  0  0  0  0
  194.6220  175.2560  141.3720 C   0  0  1  0  0  3  0  0  0  0  0  0
  196.1290  173.8880  142.5690 O   0  0  0  0  0  0  0  0  0  0  0  0
  195.1040  173.9300  141.9060 C   0  0  0  0  0  0  0  0  0  0  0  0
  194.3720  172.6490  141.6220 C   0  0  0  0  0  2  0  0  0  0  0  0
  194.0140  172.5800  140.2730 O   0  0  0  0  0  0  0  0  0  0  0  0
  193.8640  170.7260  138.8340 C   0  0  0  0  0  0  0  0  0  0  0  0
  192.8210  170.4110  137.9910 O   0  0  0  0  0  0  0  0  0  0  0  0
  191.9160  171.4720  139.8800 C   0  0  1  0  0  3  0  0  0  0  0  0
  191.1330  171.0760  141.1270 C   0  0  0  0  0  1  0  0  0  0  0  0
  193.4200  171.3230  140.1080 C   0  0  2  0  0  3  0  0  0  0  0  0
  191.5640  170.6860  138.5860 C   0  0  2  0  0  0  0  0  0  0  0  0
  195.0690  170.5200  138.5330 O   0  0  0  0  0  0  0  0  0  0  0  0
  190.8760  169.3470  138.8700 C   0  0  0  0  0  1  0  0  0  0  0  0
  190.7160  171.5900  137.6580 C   0  0  2  0  0  3  0  0  0  0  0  0
  189.6240  170.8170  135.6930 O   0  0  0  0  0  0  0  0  0  0  0  0
  190.6760  171.1400  136.2230 C   0  0  0  0  0  3  0  0  0  0  0  0
  190.9320  173.1070  137.7720 C   0  0  2  0  0  3  0  0  0  0  0  0
  189.6930  173.8090  138.0800 N   0  0  0  0  0  2  0  0  0  0  0  0
  189.0840  174.1750  136.8120 C   0  0  0  0  0  1  0  0  0  0  0  0
  191.5680  173.6510  136.4990 C   0  0  0  0  0  2  0  0  0  0  0  0
  193.0270  173.9240  136.6840 C   0  0  0  0  0  0  0  0  0  0  0  0
  193.6620  172.4110  134.9170 N   0  0  0  0  0  2  0  0  0  0  0  0
  194.8640  175.1160  137.8560 C   0  0  0  0  0  2  0  0  0  0  0  0
  195.4980  173.4430  136.0870 C   0  0  0  0  0  2  0  0  0  0  0  0
  193.4180  174.7760  137.6390 C   0  0  0  0  0  3  0  0  0  0  0  0
  194.0340  173.2060  135.8660 C   0  0  0  0  0  0  0  0  0  0  0  0
  195.7570  173.9200  137.5230 C   0  0  1  0  0  3  0  0  0  0  0  0
  197.2270  174.2500  137.7780 C   0  0  0  0  0  3  0  0  0  0  0  0
  197.9200  174.6680  136.4940 C   0  0  0  0  0  1  0  0  0  0  0  0
  197.4140  175.3240  138.8400 C   0  0  0  0  0  1  0  0  0  0  0  0
  193.2010  175.5760  141.8280 C   0  0  0  0  0  2  0  0  0  0  0  0
  191.3620  174.9130  143.3360 C   0  0  0  0  0  0  0  0  0  0  0  0
  193.4910  175.3490  144.1960 O   0  0  0  0  0  0  0  0  0  0  0  0
  192.8190  174.8000  143.0840 C   0  0  2  0  0  3  0  0  0  0  0  0
  191.1390  175.5580  144.6460 C   0  0  2  0  0  3  0  0  0  0  0  0
  192.5380  176.0290  144.9930 C   0  0  2  0  0  3  0  0  0  0  0  0
  192.6540  177.5290  144.7740 C   0  0  0  0  0  1  0  0  0  0  0  0
  190.4410  174.5570  142.4120 C   0  0  0  0  0  3  0  0  0  0  0  0
  188.0770  178.0970  143.3110 C   0  0  1  0  0  3  0  0  0  0  0  0
  188.9340  174.7020  142.4150 C   0  0  2  0  0  3  0  0  0  0  0  0
  188.3290  174.6360  141.0870 C   0  0  0  0  0  2  0  0  0  0  0  0
  187.8920  175.9660  145.2630 O   0  0  0  0  0  0  0  0  0  0  0  0
  187.4110  178.3070  144.6630 C   0  0  0  0  0  2  0  0  0  0  0  0
  188.4640  176.0210  141.7610 C   0  0  2  0  0  0  0  0  0  0  0  0
  186.9010  176.9490  145.1230 C   0  0  1  0  0  0  0  0  0  0  0  0
  189.4560  178.2760  143.4480 O   0  0  0  0  0  1  0  0  0  0  0  0
  187.0830  175.9070  144.1020 C   0  0  1  0  0  3  0  0  0  0  0  0
  187.7750  176.6370  142.9520 C   0  0  1  0  0  0  0  0  0  0  0  0
  185.7330  176.7900  146.0760 C   0  0  0  0  0  1  0  0  0  0  0  0
  187.0240  176.4140  141.7240 N   0  0  0  0  0  0  0  0  0  0  0  0
  186.9420  177.5890  140.8570 C   0  0  0  0  0  2  0  0  0  0  0  0
  185.7520  177.4640  139.9140 C   0  0  0  0  0  2  0  0  0  0  0  0
  184.6110  178.3800  140.3370 C   0  0  0  0  0  2  0  0  0  0  0  0
  184.3830  178.2900  141.7820 C   0  0  0  0  0  0  0  0  0  0  0  0
  184.1930  178.2200  142.9680 C   0  0  0  0  0  3  0  0  0  0  0  0
  190.6810  174.5840  145.6980 C   0  0  0  0  0  0  0  0  0  0  0  0
  190.7200  174.9200  147.1550 C   0  0  0  0  0  1  0  0  0  0  0  0
  190.2230  173.5070  145.3520 O   0  0  0  0  0  0  0  0  0  0  0  0
  2  1  1  1  0  0  0
  2 32  1  0  0  0  0
  2  4  1  0  0  0  0
  4  3  2  0  0  0  0
  5  4  1  0  0  0  0
  6  5  1  0  0  0  0
  7 11  1  0  0  0  0
  8 12  1  0  0  0  0
  8  7  1  0  0  0  0
  9 11  1  0  0  0  0
  9 10  1  1  0  0  0
 11  6  1  6  0  0  0
 12 14  1  1  0  0  0
 12  9  1  0  0  0  0
 13  7  2  0  0  0  0
 15 17  1  6  0  0  0
 15 18  1  0  0  0  0
 15 12  1  0  0  0  0
 16 17  2  0  0  0  0
 18 21  1  6  0  0  0
 18 19  1  0  0  0  0
 20 19  1  0  0  0  0
 21 22  1  0  0  0  0
 22 26  2  0  0  0  0
 23 27  2  0  0  0  0
 25 28  1  0  0  0  0
 26 24  1  0  0  0  0
 27 25  1  0  0  0  0
 27 22  1  0  0  0  0
 28 29  1  6  0  0  0
 28 24  1  0  0  0  0
 29 31  1  0  0  0  0
 30 29  1  0  0  0  0
 33 36  1  0  0  0  0
 34 37  1  0  0  0  0
 35 32  1  6  0  0  0
 35 33  1  0  0  0  0
 35 34  1  0  0  0  0
 36 37  1  0  0  0  0
 36 57  1  1  0  0  0
 37 38  1  6  0  0  0
 39 33  2  0  0  0  0
 40 47  1  1  0  0  0
 40 44  1  0  0  0  0
 41 39  1  6  0  0  0
 42 41  1  0  0  0  0
 44 46  1  0  0  0  0
 45 42  1  6  0  0  0
 45 41  1  0  0  0  0
 45 49  1  0  0  0  0
 46 43  1  0  0  0  0
 46 50  1  1  0  0  0
 48 46  1  0  0  0  0
 48 43  1  1  0  0  0
 49 51  1  6  0  0  0
 49 40  1  0  0  0  0
 49 48  1  0  0  0  0
 51 45  1  0  0  0  0
 52 51  1  0  0  0  0
 53 54  1  0  0  0  0
 53 52  1  0  0  0  0
 54 55  1  0  0  0  0
 55 56  3  0  0  0  0
 57 58  1  0  0  0  0
 59 57  2  0  0  0  0
M  END
>  <MODEL>
6

>  <REMARK>
 VINA RESULT:      -5.6      2.648      8.573
  Name = 
  19 active torsions:
  status: ('A' for Active; 'I' for Inactive)
    1  A    between atoms: C_4  and  C_13
    2  A    between atoms: C_4  and  C_34
    3  A    between atoms: C_6  and  C_57
    4  A    between atoms: C_8  and  C_27
    5  A    between atoms: C_8  and  C_29
    6  A    between atoms: C_8  and  C_42
    7  A    between atoms: C_9  and  C_25
    8  A    between atoms: C_9  and  C_29
    9  A    between atoms: C_11  and  C_34
   10  A    between atoms: N_12  and  C_29
   11  A    between atoms: C_13  and  N_59
   12  A    between atoms: C_14  and  C_56
   13  A    between atoms: C_21  and  C_45
   14  A    between atoms: C_26  and  O_38
   15  A    between atoms: C_32  and  O_38
   16  A    between atoms: C_32  and  C_55
   17  A    between atoms: C_35  and  C_40
   18  A    between atoms: C_35  and  C_51
   19  A    between atoms: C_51  and  C_55
                            x       y       z     vdW  Elec       q    Type
                         _______ _______ _______ _____ _____    ______ ____

>  <TORSDO>
F 19

$$$$
=
 OpenBabel11062422343D

 59 65  0  0  1  0  0  0  0  0999 V2000
  187.5200  172.3450  141.1870 C   0  0  0  0  0  1  0  0  0  0  0  0
  188.5810  173.1410  140.4420 C   0  0  1  0  0  3  0  0  0  0  0  0
  188.2870  175.4370  140.9130 O   0  0  0  0  0  0  0  0  0  0  0  0
  188.8880  174.4120  141.1960 C   0  0  0  0  0  0  0  0  0  0  0  0
  189.9360  174.4600  142.2700 C   0  0  0  0  0  2  0  0  0  0  0  0
  189.3600  174.2420  143.5250 O   0  0  0  0  0  0  0  0  0  0  0  0
  190.3170  173.7790  145.6230 C   0  0  0  0  0  0  0  0  0  0  0  0
  191.5950  174.0800  146.0370 O   0  0  0  0  0  0  0  0  0  0  0  0
  191.6790  173.6390  143.7330 C   0  0  1  0  0  3  0  0  0  0  0  0
  192.1550  172.5160  142.8180 C   0  0  0  0  0  1  0  0  0  0  0  0
  190.2450  173.3930  144.2010 C   0  0  2  0  0  3  0  0  0  0  0  0
  192.5430  173.8860  145.0020 C   0  0  2  0  0  0  0  0  0  0  0  0
  189.3210  173.8320  146.3900 O   0  0  0  0  0  0  0  0  0  0  0  0
  193.4100  172.6800  145.3770 C   0  0  0  0  0  1  0  0  0  0  0  0
  193.3870  175.1680  144.7970 C   0  0  2  0  0  3  0  0  0  0  0  0
  195.0230  175.5170  146.4870 O   0  0  0  0  0  0  0  0  0  0  0  0
  193.9040  175.7780  146.0710 C   0  0  0  0  0  3  0  0  0  0  0  0
  192.8230  176.2330  143.8460 C   0  0  2  0  0  3  0  0  0  0  0  0
  193.8100  176.6590  142.8620 N   0  0  0  0  0  2  0  0  0  0  0  0
  193.5760  175.8780  141.6590 C   0  0  0  0  0  1  0  0  0  0  0  0
  192.2880  177.4220  144.6350 C   0  0  0  0  0  2  0  0  0  0  0  0
  190.8190  177.6070  144.4250 C   0  0  0  0  0  0  0  0  0  0  0  0
  190.3060  177.1590  146.7380 N   0  0  0  0  0  2  0  0  0  0  0  0
  188.9050  178.1270  142.9300 C   0  0  0  0  0  2  0  0  0  0  0  0
  188.3930  177.5390  145.3220 C   0  0  0  0  0  2  0  0  0  0  0  0
  190.3630  177.8980  143.2010 C   0  0  0  0  0  3  0  0  0  0  0  0
  189.8700  177.4020  145.5450 C   0  0  0  0  0  0  0  0  0  0  0  0
  188.0410  177.2660  143.8540 C   0  0  1  0  0  3  0  0  0  0  0  0
  186.5560  177.4680  143.5550 C   0  0  0  0  0  3  0  0  0  0  0  0
  185.7640  177.6410  144.8390 C   0  0  0  0  0  1  0  0  0  0  0  0
  186.2960  178.6430  142.6240 C   0  0  0  0  0  1  0  0  0  0  0  0
  189.8220  172.2770  140.2440 C   0  0  0  0  0  2  0  0  0  0  0  0
  191.0950  170.9320  138.6110 C   0  0  0  0  0  0  0  0  0  0  0  0
  189.3540  172.3190  137.8940 O   0  0  0  0  0  0  0  0  0  0  0  0
  189.7570  171.4730  138.9500 C   0  0  2  0  0  3  0  0  0  0  0  0
  191.5250  171.4710  137.3040 C   0  0  2  0  0  3  0  0  0  0  0  0
  190.4750  172.5360  137.0560 C   0  0  2  0  0  3  0  0  0  0  0  0
  191.0570  173.9150  137.3150 C   0  0  0  0  0  1  0  0  0  0  0  0
  191.7970  170.1580  139.4680 C   0  0  0  0  0  3  0  0  0  0  0  0
  195.5550  172.3040  139.9130 C   0  0  1  0  0  3  0  0  0  0  0  0
  193.2060  169.6110  139.3740 C   0  0  2  0  0  3  0  0  0  0  0  0
  193.5770  168.7330  140.4830 C   0  0  0  0  0  2  0  0  0  0  0  0
  194.9920  171.3530  137.2360 O   0  0  0  0  0  0  0  0  0  0  0  0
  196.3850  172.7460  138.7160 C   0  0  0  0  0  2  0  0  0  0  0  0
  194.1350  170.1760  140.4730 C   0  0  2  0  0  0  0  0  0  0  0  0
  196.2930  171.6370  137.6770 C   0  0  1  0  0  0  0  0  0  0  0  0
  194.4180  173.1100  140.0030 O   0  0  0  0  0  1  0  0  0  0  0  0
  195.5650  170.4620  138.1760 C   0  0  1  0  0  3  0  0  0  0  0  0
  195.1460  170.8620  139.5910 C   0  0  1  0  0  0  0  0  0  0  0  0
  197.3660  171.3970  136.6340 C   0  0  0  0  0  1  0  0  0  0  0  0
  195.5890  169.8380  140.5270 N   0  0  0  0  0  0  0  0  0  0  0  0
  196.0860  170.3700  141.7960 C   0  0  0  0  0  2  0  0  0  0  0  0
  196.2920  169.2380  142.7940 C   0  0  0  0  0  2  0  0  0  0  0  0
  195.4220  169.4230  144.0310 C   0  0  0  0  0  2  0  0  0  0  0  0
  196.1760  170.0870  145.0980 C   0  0  0  0  0  0  0  0  0  0  0  0
  196.7970  170.6290  145.9750 C   0  0  0  0  0  3  0  0  0  0  0  0
  191.4460  170.4470  136.2040 C   0  0  0  0  0  0  0  0  0  0  0  0
  192.5200  169.4260  135.9990 C   0  0  0  0  0  1  0  0  0  0  0  0
  190.4580  170.4170  135.4890 O   0  0  0  0  0  0  0  0  0  0  0  0
  2  1  1  1  0  0  0
  2  4  1  0  0  0  0
  3  4  2  0  0  0  0
  4  5  1  0  0  0  0
  5  6  1  0  0  0  0
  7  8  1  0  0  0  0
  7 13  2  0  0  0  0
  9 10  1  1  0  0  0
  9 11  1  0  0  0  0
  9 12  1  0  0  0  0
 11  6  1  6  0  0  0
 11  7  1  0  0  0  0
 12 14  1  1  0  0  0
 12  8  1  0  0  0  0
 15 12  1  0  0  0  0
 15 17  1  1  0  0  0
 17 16  2  0  0  0  0
 18 21  1  1  0  0  0
 18 15  1  0  0  0  0
 19 18  1  0  0  0  0
 20 19  1  0  0  0  0
 22 21  1  0  0  0  0
 22 27  1  0  0  0  0
 24 26  1  0  0  0  0
 24 28  1  0  0  0  0
 25 27  1  0  0  0  0
 26 22  2  0  0  0  0
 27 23  2  0  0  0  0
 28 29  1  1  0  0  0
 28 25  1  0  0  0  0
 29 30  1  0  0  0  0
 31 29  1  0  0  0  0
 32  2  1  0  0  0  0
 33 35  1  0  0  0  0
 33 39  2  0  0  0  0
 34 35  1  0  0  0  0
 35 32  1  1  0  0  0
 36 57  1  6  0  0  0
 36 33  1  0  0  0  0
 37 36  1  0  0  0  0
 37 38  1  1  0  0  0
 37 34  1  0  0  0  0
 40 47  1  6  0  0  0
 41 39  1  1  0  0  0
 41 45  1  0  0  0  0
 41 42  1  0  0  0  0
 43 46  1  0  0  0  0
 44 40  1  0  0  0  0
 45 42  1  1  0  0  0
 45 51  1  0  0  0  0
 46 50  1  6  0  0  0
 46 48  1  0  0  0  0
 46 44  1  0  0  0  0
 48 43  1  6  0  0  0
 48 49  1  0  0  0  0
 49 40  1  0  0  0  0
 49 45  1  0  0  0  0
 49 51  1  1  0  0  0
 51 52  1  0  0  0  0
 52 53  1  0  0  0  0
 53 54  1  0  0  0  0
 54 55  1  0  0  0  0
 55 56  3  0  0  0  0
 58 57  1  0  0  0  0
 59 57  2  0  0  0  0
M  END
>  <MODEL>
7

>  <REMARK>
 VINA RESULT:      -5.6      2.552      6.577
  Name = 
  19 active torsions:
  status: ('A' for Active; 'I' for Inactive)
    1  A    between atoms: C_4  and  C_13
    2  A    between atoms: C_4  and  C_34
    3  A    between atoms: C_6  and  C_57
    4  A    between atoms: C_8  and  C_27
    5  A    between atoms: C_8  and  C_29
    6  A    between atoms: C_8  and  C_42
    7  A    between atoms: C_9  and  C_25
    8  A    between atoms: C_9  and  C_29
    9  A    between atoms: C_11  and  C_34
   10  A    between atoms: N_12  and  C_29
   11  A    between atoms: C_13  and  N_59
   12  A    between atoms: C_14  and  C_56
   13  A    between atoms: C_21  and  C_45
   14  A    between atoms: C_26  and  O_38
   15  A    between atoms: C_32  and  O_38
   16  A    between atoms: C_32  and  C_55
   17  A    between atoms: C_35  and  C_40
   18  A    between atoms: C_35  and  C_51
   19  A    between atoms: C_51  and  C_55
                            x       y       z     vdW  Elec       q    Type
                         _______ _______ _______ _____ _____    ______ ____

>  <TORSDO>
F 19

$$$$
=
 OpenBabel11062422343D

 59 65  0  0  1  0  0  0  0  0999 V2000
  194.7810  172.8550  141.0290 C   0  0  0  0  0  1  0  0  0  0  0  0
  195.2030  174.3150  140.9550 C   0  0  1  0  0  3  0  0  0  0  0  0
  196.4050  175.3140  139.1850 O   0  0  0  0  0  0  0  0  0  0  0  0
  195.3890  174.7200  139.5140 C   0  0  0  0  0  0  0  0  0  0  0  0
  194.3460  174.4380  138.4720 C   0  0  0  0  0  2  0  0  0  0  0  0
  194.3790  175.4130  137.4700 O   0  0  0  0  0  0  0  0  0  0  0  0
  192.5490  174.8790  136.0930 C   0  0  0  0  0  0  0  0  0  0  0  0
  191.9090  173.6640  135.9970 O   0  0  0  0  0  0  0  0  0  0  0  0
  194.1720  173.2420  136.4550 C   0  0  1  0  0  3  0  0  0  0  0  0
  195.4000  172.7460  135.7000 C   0  0  0  0  0  1  0  0  0  0  0  0
  194.0050  174.7530  136.2930 C   0  0  2  0  0  3  0  0  0  0  0  0
  192.8230  172.5820  136.0540 C   0  0  2  0  0  0  0  0  0  0  0  0
  191.9400  175.9780  136.0170 O   0  0  0  0  0  0  0  0  0  0  0  0
  192.8670  171.9290  134.6700 C   0  0  0  0  0  1  0  0  0  0  0  0
  192.4020  171.5800  137.1570 C   0  0  2  0  0  3  0  0  0  0  0  0
  193.2630  169.3840  137.4540 O   0  0  0  0  0  0  0  0  0  0  0  0
  193.4680  170.5860  137.5290 C   0  0  0  0  0  3  0  0  0  0  0  0
  191.0280  170.9110  137.0080 C   0  0  2  0  0  3  0  0  0  0  0  0
  190.5970  170.8630  135.6160 N   0  0  0  0  0  2  0  0  0  0  0  0
  189.3100  171.5340  135.5460 C   0  0  0  0  0  1  0  0  0  0  0  0
  189.9940  171.6170  137.8760 C   0  0  0  0  0  2  0  0  0  0  0  0
  190.4840  171.8000  139.2770 C   0  0  0  0  0  0  0  0  0  0  0  0
  190.5930  169.4260  139.6840 N   0  0  0  0  0  2  0  0  0  0  0  0
  191.1700  173.2910  141.1420 C   0  0  0  0  0  2  0  0  0  0  0  0
  191.1590  170.8120  141.5710 C   0  0  0  0  0  2  0  0  0  0  0  0
  190.6520  173.0380  139.7560 C   0  0  0  0  0  3  0  0  0  0  0  0
  190.7160  170.6250  140.1510 C   0  0  0  0  0  0  0  0  0  0  0  0
  190.7200  172.1850  142.0980 C   0  0  1  0  0  3  0  0  0  0  0  0
  191.2140  172.4580  143.5180 C   0  0  0  0  0  3  0  0  0  0  0  0
  190.0920  172.2860  144.5250 C   0  0  0  0  0  1  0  0  0  0  0  0
  192.3980  171.5840  143.9080 C   0  0  0  0  0  1  0  0  0  0  0  0
  194.1680  175.1820  141.6660 C   0  0  0  0  0  2  0  0  0  0  0  0
  193.1450  175.7810  143.8310 C   0  0  0  0  0  0  0  0  0  0  0  0
  195.3080  174.8970  143.7550 O   0  0  0  0  0  0  0  0  0  0  0  0
  194.0390  174.8210  143.1420 C   0  0  2  0  0  3  0  0  0  0  0  0
  193.8970  176.4720  144.8990 C   0  0  2  0  0  3  0  0  0  0  0  0
  195.3170  176.0330  144.6010 C   0  0  2  0  0  3  0  0  0  0  0  0
  196.0870  177.1650  143.9410 C   0  0  0  0  0  1  0  0  0  0  0  0
  191.8790  176.0140  143.4160 C   0  0  0  0  0  3  0  0  0  0  0  0
  187.5530  175.5860  143.5870 C   0  0  1  0  0  3  0  0  0  0  0  0
  190.8550  177.0230  143.8910 C   0  0  2  0  0  3  0  0  0  0  0  0
  190.8870  177.2680  145.3320 C   0  0  0  0  0  2  0  0  0  0  0  0
  188.5250  177.4750  141.6190 O   0  0  0  0  0  0  0  0  0  0  0  0
  186.6350  176.1820  142.5300 C   0  0  0  0  0  2  0  0  0  0  0  0
  189.7530  176.3820  144.7650 C   0  0  2  0  0  0  0  0  0  0  0  0
  187.2230  177.5310  142.1400 C   0  0  1  0  0  0  0  0  0  0  0  0
  188.2190  174.4840  143.0450 O   0  0  0  0  0  1  0  0  0  0  0  0
  188.3840  177.8950  142.9650 C   0  0  1  0  0  3  0  0  0  0  0  0
  188.5590  176.6990  143.9010 C   0  0  1  0  0  0  0  0  0  0  0  0
  186.3840  178.6640  141.5860 C   0  0  0  0  0  1  0  0  0  0  0  0
  188.5940  177.1730  145.2780 N   0  0  0  0  0  0  0  0  0  0  0  0
  187.8910  176.3030  146.2220 C   0  0  0  0  0  2  0  0  0  0  0  0
  186.8320  177.0960  146.9760 C   0  0  0  0  0  2  0  0  0  0  0  0
  185.4340  176.7920  146.4510 C   0  0  0  0  0  2  0  0  0  0  0  0
  184.9670  177.8690  145.5730 C   0  0  0  0  0  0  0  0  0  0  0  0
  184.5810  178.7550  144.8550 C   0  0  0  0  0  3  0  0  0  0  0  0
  193.5190  175.9890  146.2740 C   0  0  0  0  0  0  0  0  0  0  0  0
  193.0100  174.6030  146.5110 C   0  0  0  0  0  1  0  0  0  0  0  0
  193.6760  176.7320  147.2290 O   0  0  0  0  0  0  0  0  0  0  0  0
  2  1  1  6  0  0  0
  2 32  1  0  0  0  0
  3  4  2  0  0  0  0
  4  2  1  0  0  0  0
  5  4  1  0  0  0  0
  6  5  1  0  0  0  0
  7 11  1  0  0  0  0
  8 12  1  0  0  0  0
  8  7  1  0  0  0  0
  9 10  1  6  0  0  0
 11  9  1  0  0  0  0
 11  6  1  1  0  0  0
 12 14  1  6  0  0  0
 12  9  1  0  0  0  0
 12 15  1  0  0  0  0
 13  7  2  0  0  0  0
 15 17  1  6  0  0  0
 16 17  2  0  0  0  0
 18 15  1  0  0  0  0
 18 21  1  1  0  0  0
 19 18  1  0  0  0  0
 20 19  1  0  0  0  0
 21 22  1  0  0  0  0
 22 26  2  0  0  0  0
 22 27  1  0  0  0  0
 23 27  2  0  0  0  0
 24 28  1  0  0  0  0
 25 28  1  0  0  0  0
 26 24  1  0  0  0  0
 27 25  1  0  0  0  0
 28 29  1  1  0  0  0
 29 31  1  0  0  0  0
 29 30  1  0  0  0  0
 33 36  1  0  0  0  0
 34 37  1  0  0  0  0
 35 32  1  6  0  0  0
 35 34  1  0  0  0  0
 35 33  1  0  0  0  0
 36 57  1  1  0  0  0
 37 38  1  6  0  0  0
 37 36  1  0  0  0  0
 39 33  2  0  0  0  0
 40 47  1  6  0  0  0
 40 49  1  0  0  0  0
 41 39  1  1  0  0  0
 41 45  1  0  0  0  0
 41 42  1  0  0  0  0
 43 46  1  0  0  0  0
 44 40  1  0  0  0  0
 45 51  1  0  0  0  0
 45 42  1  1  0  0  0
 46 50  1  6  0  0  0
 46 44  1  0  0  0  0
 46 48  1  0  0  0  0
 48 43  1  6  0  0  0
 48 49  1  0  0  0  0
 49 45  1  0  0  0  0
 49 51  1  1  0  0  0
 51 52  1  0  0  0  0
 52 53  1  0  0  0  0
 54 53  1  0  0  0  0
 55 54  1  0  0  0  0
 56 55  3  0  0  0  0
 57 58  1  0  0  0  0
 57 59  2  0  0  0  0
M  END
>  <MODEL>
8

>  <REMARK>
 VINA RESULT:      -5.5      2.609      9.165
  Name = 
  19 active torsions:
  status: ('A' for Active; 'I' for Inactive)
    1  A    between atoms: C_4  and  C_13
    2  A    between atoms: C_4  and  C_34
    3  A    between atoms: C_6  and  C_57
    4  A    between atoms: C_8  and  C_27
    5  A    between atoms: C_8  and  C_29
    6  A    between atoms: C_8  and  C_42
    7  A    between atoms: C_9  and  C_25
    8  A    between atoms: C_9  and  C_29
    9  A    between atoms: C_11  and  C_34
   10  A    between atoms: N_12  and  C_29
   11  A    between atoms: C_13  and  N_59
   12  A    between atoms: C_14  and  C_56
   13  A    between atoms: C_21  and  C_45
   14  A    between atoms: C_26  and  O_38
   15  A    between atoms: C_32  and  O_38
   16  A    between atoms: C_32  and  C_55
   17  A    between atoms: C_35  and  C_40
   18  A    between atoms: C_35  and  C_51
   19  A    between atoms: C_51  and  C_55
                            x       y       z     vdW  Elec       q    Type
                         _______ _______ _______ _____ _____    ______ ____

>  <TORSDO>
F 19

$$$$
=
 OpenBabel11062422343D

 59 65  0  0  1  0  0  0  0  0999 V2000
  192.8040  171.8920  143.6460 C   0  0  0  0  0  1  0  0  0  0  0  0
  192.8140  172.3350  142.1910 C   0  0  1  0  0  3  0  0  0  0  0  0
  190.5560  171.6440  142.1700 O   0  0  0  0  0  0  0  0  0  0  0  0
  191.4040  172.3550  141.6530 C   0  0  0  0  0  0  0  0  0  0  0  0
  191.0170  173.2070  140.4790 C   0  0  0  0  0  2  0  0  0  0  0  0
  189.9460  172.6310  139.7880 O   0  0  0  0  0  0  0  0  0  0  0  0
  190.6160  170.8570  138.3970 C   0  0  0  0  0  0  0  0  0  0  0  0
  191.9050  170.4870  138.0850 O   0  0  0  0  0  0  0  0  0  0  0  0
  191.8830  172.8170  138.3740 C   0  0  1  0  0  3  0  0  0  0  0  0
  191.9430  174.0610  137.4950 C   0  0  0  0  0  1  0  0  0  0  0  0
  190.4450  172.3180  138.5180 C   0  0  2  0  0  3  0  0  0  0  0  0
  192.7450  171.6140  137.8980 C   0  0  2  0  0  0  0  0  0  0  0  0
  189.6880  170.0230  138.5590 O   0  0  0  0  0  0  0  0  0  0  0  0
  193.1050  171.6900  136.4120 C   0  0  0  0  0  1  0  0  0  0  0  0
  194.0010  171.5040  138.7960 C   0  0  2  0  0  3  0  0  0  0  0  0
  195.3610  173.4470  138.6480 O   0  0  0  0  0  0  0  0  0  0  0  0
  195.1850  172.2890  138.3040 C   0  0  0  0  0  3  0  0  0  0  0  0
  194.4070  170.0980  139.2630 C   0  0  2  0  0  3  0  0  0  0  0  0
  193.4790  169.5660  140.2530 N   0  0  0  0  0  2  0  0  0  0  0  0
  193.0870  168.2420  139.8010 C   0  0  0  0  0  1  0  0  0  0  0  0
  195.8330  170.1050  139.7990 C   0  0  0  0  0  2  0  0  0  0  0  0
  195.8610  170.2190  141.2900 C   0  0  0  0  0  0  0  0  0  0  0  0
  197.0120  172.3370  141.2320 N   0  0  0  0  0  2  0  0  0  0  0  0
  195.2980  169.3080  143.5310 C   0  0  0  0  0  2  0  0  0  0  0  0
  196.6020  171.4570  143.4370 C   0  0  0  0  0  2  0  0  0  0  0  0
  195.3300  169.2400  142.0320 C   0  0  0  0  0  3  0  0  0  0  0  0
  196.5320  171.3690  141.9420 C   0  0  0  0  0  0  0  0  0  0  0  0
  196.5190  170.0590  144.0650 C   0  0  1  0  0  3  0  0  0  0  0  0
  196.5090  170.0980  145.5930 C   0  0  0  0  0  3  0  0  0  0  0  0
  196.8090  171.4970  146.1010 C   0  0  0  0  0  1  0  0  0  0  0  0
  195.1990  169.6010  146.1860 C   0  0  0  0  0  1  0  0  0  0  0  0
  193.4900  173.6980  142.0770 C   0  0  0  0  0  2  0  0  0  0  0  0
  193.3290  175.3650  143.8910 C   0  0  0  0  0  0  0  0  0  0  0  0
  195.4120  174.5220  143.2470 O   0  0  0  0  0  0  0  0  0  0  0  0
  194.0580  174.1650  143.4130 C   0  0  2  0  0  3  0  0  0  0  0  0
  194.2730  176.4950  144.0150 C   0  0  2  0  0  3  0  0  0  0  0  0
  195.5080  175.9320  143.3400 C   0  0  2  0  0  3  0  0  0  0  0  0
  195.6650  176.5340  141.9530 C   0  0  0  0  0  1  0  0  0  0  0  0
  191.9870  175.3740  144.0580 C   0  0  0  0  0  3  0  0  0  0  0  0
  187.6500  175.4720  143.7300 C   0  0  1  0  0  3  0  0  0  0  0  0
  191.0460  176.5060  144.4120 C   0  0  2  0  0  3  0  0  0  0  0  0
  190.9420  176.7640  145.8470 C   0  0  0  0  0  2  0  0  0  0  0  0
  189.0620  177.2040  141.8880 O   0  0  0  0  0  0  0  0  0  0  0  0
  186.9380  176.1600  142.5740 C   0  0  0  0  0  2  0  0  0  0  0  0
  189.7810  176.0140  145.1530 C   0  0  2  0  0  0  0  0  0  0  0  0
  187.7260  177.4230  142.2550 C   0  0  1  0  0  0  0  0  0  0  0  0
  188.2360  174.2910  143.2680 O   0  0  0  0  0  1  0  0  0  0  0  0
  188.8200  177.6560  143.2080 C   0  0  1  0  0  3  0  0  0  0  0  0
  188.7410  176.4600  144.1580 C   0  0  1  0  0  0  0  0  0  0  0  0
  187.0980  178.6410  141.6090 C   0  0  0  0  0  1  0  0  0  0  0  0
  188.6760  176.9450  145.5300 N   0  0  0  0  0  0  0  0  0  0  0  0
  187.7700  176.1790  146.3860 C   0  0  0  0  0  2  0  0  0  0  0  0
  186.7800  177.1130  147.0690 C   0  0  0  0  0  2  0  0  0  0  0  0
  185.3710  176.9250  146.5210 C   0  0  0  0  0  2  0  0  0  0  0  0
  185.1070  177.8760  145.4370 C   0  0  0  0  0  0  0  0  0  0  0  0
  184.8870  178.6540  144.5450 C   0  0  0  0  0  3  0  0  0  0  0  0
  194.6060  176.8110  145.4490 C   0  0  0  0  0  0  0  0  0  0  0  0
  194.5790  175.7620  146.5150 C   0  0  0  0  0  1  0  0  0  0  0  0
  194.9530  177.9430  145.7430 O   0  0  0  0  0  0  0  0  0  0  0  0
  2  1  1  1  0  0  0
  4  3  2  0  0  0  0
  4  2  1  0  0  0  0
  5  4  1  0  0  0  0
  6  5  1  0  0  0  0
  7 11  1  0  0  0  0
  7 13  2  0  0  0  0
  8  7  1  0  0  0  0
  9 10  1  6  0  0  0
  9 11  1  0  0  0  0
 11  6  1  1  0  0  0
 12 14  1  6  0  0  0
 12  8  1  0  0  0  0
 12  9  1  0  0  0  0
 12 15  1  0  0  0  0
 15 17  1  6  0  0  0
 15 18  1  0  0  0  0
 17 16  2  0  0  0  0
 18 21  1  1  0  0  0
 18 19  1  0  0  0  0
 20 19  1  0  0  0  0
 21 22  1  0  0  0  0
 22 27  1  0  0  0  0
 22 26  2  0  0  0  0
 23 27  2  0  0  0  0
 24 28  1  0  0  0  0
 25 28  1  0  0  0  0
 26 24  1  0  0  0  0
 27 25  1  0  0  0  0
 28 29  1  1  0  0  0
 29 30  1  0  0  0  0
 29 31  1  0  0  0  0
 32  2  1  0  0  0  0
 33 36  1  0  0  0  0
 33 39  2  0  0  0  0
 34 37  1  0  0  0  0
 34 35  1  0  0  0  0
 35 32  1  6  0  0  0
 35 33  1  0  0  0  0
 36 57  1  1  0  0  0
 37 38  1  6  0  0  0
 37 36  1  0  0  0  0
 40 47  1  6  0  0  0
 40 49  1  0  0  0  0
 41 39  1  1  0  0  0
 41 45  1  0  0  0  0
 41 42  1  0  0  0  0
 43 46  1  0  0  0  0
 44 40  1  0  0  0  0
 45 51  1  0  0  0  0
 45 42  1  1  0  0  0
 46 50  1  6  0  0  0
 46 44  1  0  0  0  0
 46 48  1  0  0  0  0
 48 43  1  6  0  0  0
 48 49  1  0  0  0  0
 49 45  1  0  0  0  0
 49 51  1  1  0  0  0
 51 52  1  0  0  0  0
 52 53  1  0  0  0  0
 54 53  1  0  0  0  0
 55 54  1  0  0  0  0
 56 55  3  0  0  0  0
 57 59  2  0  0  0  0
 57 58  1  0  0  0  0
M  END
>  <MODEL>
9

>  <REMARK>
 VINA RESULT:      -5.4      2.416      8.279
  Name = 
  19 active torsions:
  status: ('A' for Active; 'I' for Inactive)
    1  A    between atoms: C_4  and  C_13
    2  A    between atoms: C_4  and  C_34
    3  A    between atoms: C_6  and  C_57
    4  A    between atoms: C_8  and  C_27
    5  A    between atoms: C_8  and  C_29
    6  A    between atoms: C_8  and  C_42
    7  A    between atoms: C_9  and  C_25
    8  A    between atoms: C_9  and  C_29
    9  A    between atoms: C_11  and  C_34
   10  A    between atoms: N_12  and  C_29
   11  A    between atoms: C_13  and  N_59
   12  A    between atoms: C_14  and  C_56
   13  A    between atoms: C_21  and  C_45
   14  A    between atoms: C_26  and  O_38
   15  A    between atoms: C_32  and  O_38
   16  A    between atoms: C_32  and  C_55
   17  A    between atoms: C_35  and  C_40
   18  A    between atoms: C_35  and  C_51
   19  A    between atoms: C_51  and  C_55
                            x       y       z     vdW  Elec       q    Type
                         _______ _______ _______ _____ _____    ______ ____

>  <TORSDO>
F 19

$$$$
