=
 OpenBabel11062421433D

 41 44  0  0  1  0  0  0  0  0999 V2000
  188.6750  176.8000  142.9550 N   0  0  0  0  0  0  0  0  0  0  0  0
  188.6330  174.5020  142.0710 C   0  0  2  0  0  3  0  0  0  0  0  0
  188.9190  174.6680  140.7160 O   0  0  0  0  0  1  0  0  0  0  0  0
  191.2160  174.2750  143.4930 C   0  0  0  0  0  0  0  0  0  0  0  0
  190.5690  175.4520  143.4760 C   0  0  0  0  0  3  0  0  0  0  0  0
  190.6440  173.0480  142.8260 C   0  0  0  0  0  2  0  0  0  0  0  0
  189.2450  175.6310  142.8550 C   0  0  0  0  0  0  0  0  0  0  0  0
  188.4450  172.2160  142.6140 O   0  0  0  0  0  0  0  0  0  0  0  0
  189.1780  173.1870  142.5350 C   0  0  0  0  0  0  0  0  0  0  0  0
  196.3360  174.1430  143.4130 C   0  0  0  0  0  2  0  0  0  0  0  0
  193.7380  174.4450  143.5290 C   0  0  0  0  0  0  0  0  0  0  0  0
  195.0460  173.3040  145.4710 C   0  0  0  0  0  2  0  0  0  0  0  0
  195.0370  175.2820  141.6090 C   0  0  0  0  0  2  0  0  0  0  0  0
  192.5590  174.1340  144.0930 C   0  0  0  0  0  3  0  0  0  0  0  0
  195.0520  174.1980  144.2480 C   0  0  1  0  0  0  0  0  0  0  0  0
  195.2740  174.8030  145.6320 C   0  0  1  0  0  3  0  0  0  0  0  0
  193.7930  174.9550  142.2290 O   0  0  0  0  0  0  0  0  0  0  0  0
  196.0990  174.2040  141.8770 C   0  0  2  0  0  0  0  0  0  0  0  0
  195.6000  172.8770  141.3120 C   0  0  0  0  0  0  0  0  0  0  0  0
  195.0260  172.8260  140.2340 O   0  0  0  0  0  0  0  0  0  0  0  0
  195.8080  171.6150  142.0880 C   0  0  0  0  0  2  0  0  0  0  0  0
  194.5750  171.0370  142.3950 O   0  0  0  0  0  1  0  0  0  0  0  0
  197.2810  174.6180  141.2110 O   0  0  0  0  0  0  0  0  0  0  0  0
  197.0060  175.6930  140.3420 C   0  0  0  0  0  2  0  0  0  0  0  0
  197.8800  175.5830  139.1110 C   0  0  0  0  0  1  0  0  0  0  0  0
  194.1150  175.3960  146.1460 O   0  0  0  0  0  0  0  0  0  0  0  0
  194.6010  177.4570  145.7400 C   0  0  0  0  0  1  0  0  0  0  0  0
  194.5330  176.4910  146.7490 O   0  0  0  0  0  0  0  0  0  0  0  0
  187.3880  177.1940  142.4560 C   0  0  0  0  0  0  0  0  0  0  0  0
  187.2390  177.5860  141.2660 O   0  0  0  0  0  0  0  0  0  0  0  0
  186.1910  177.0330  143.3490 C   0  0  1  0  0  3  0  0  0  0  0  0
  187.4080  177.7580  145.2130 N   0  0  0  0  0  2  0  0  0  0  0  0
  186.5800  176.7200  144.7370 N   0  0  0  0  0  0  0  0  0  0  0  0
  185.7270  177.4150  146.8630 C   0  0  1  0  0  3  0  0  0  0  0  0
  185.3760  176.7390  145.5670 C   0  0  0  0  0  2  0  0  0  0  0  0
  187.1350  177.8960  146.6350 C   0  0  0  0  0  2  0  0  0  0  0  0
  184.8030  178.6040  147.0720 C   0  0  0  0  0  2  0  0  0  0  0  0
  183.7370  178.5380  146.1750 O   0  0  0  0  0  1  0  0  0  0  0  0
  185.3480  178.2720  143.2550 C   0  0  0  0  0  0  0  0  0  0  0  0
  185.8970  179.4940  143.6110 O   0  0  0  0  0  1  0  0  0  0  0  0
  184.1410  178.2050  142.9070 O   0  0  0  0  0  0  0  0  0  0  0  0
  2  3  1  6  0  0  0
  2  9  1  0  0  0  0
  2  7  1  0  0  0  0
  4 14  1  0  0  0  0
  5  4  2  0  0  0  0
  6  4  1  0  0  0  0
  7  1  2  0  0  0  0
  7  5  1  0  0  0  0
  9  8  2  0  0  0  0
  9  6  1  0  0  0  0
 11 14  2  0  0  0  0
 11 15  1  0  0  0  0
 12 16  1  0  0  0  0
 13 18  1  0  0  0  0
 13 17  1  0  0  0  0
 15 10  1  6  0  0  0
 15 12  1  0  0  0  0
 15 16  1  0  0  0  0
 16 26  1  1  0  0  0
 17 11  1  0  0  0  0
 18 23  1  6  0  0  0
 18 10  1  0  0  0  0
 19 18  1  0  0  0  0
 19 21  1  0  0  0  0
 20 19  2  0  0  0  0
 21 22  1  0  0  0  0
 24 23  1  0  0  0  0
 25 24  1  0  0  0  0
 26 28  1  0  0  0  0
 27 28  1  0  0  0  0
 29  1  1  0  0  0  0
 30 29  2  0  0  0  0
 31 29  1  6  0  0  0
 31 33  1  0  0  0  0
 32 36  1  0  0  0  0
 33 32  1  0  0  0  0
 33 35  1  0  0  0  0
 34 37  1  6  0  0  0
 35 34  1  0  0  0  0
 36 34  1  0  0  0  0
 38 37  1  0  0  0  0
 39 31  1  0  0  0  0
 39 40  1  0  0  0  0
 41 39  2  0  0  0  0
M  END
>  <MODEL>
1

>  <REMARK>
 VINA RESULT:      -6.5      0.000      0.000
  Name = 
  12 active torsions:
  status: ('A' for Active; 'I' for Inactive)
    1  A    between atoms: C_2  and  C_9
    2  A    between atoms: C_2  and  C_13
    3  A    between atoms: C_2  and  N_27
    4  A    between atoms: C_7  and  C_31
    5  A    between atoms: O_8  and  C_34
    6  A    between atoms: O_8  and  C_39
    7  A    between atoms: O_10  and  O_18
    8  A    between atoms: O_10  and  C_30
    9  A    between atoms: N_11  and  C_13
   10  A    between atoms: C_15  and  C_16
   11  A    between atoms: C_16  and  C_39
   12  A    between atoms: C_17  and  C_21
                            x       y       z     vdW  Elec       q    Type
                         _______ _______ _______ _____ _____    ______ ____

>  <TORSDO>
F 12

$$$$
=
 OpenBabel11062421433D

 41 44  0  0  1  0  0  0  0  0999 V2000
  188.1850  176.5020  145.1060 N   0  0  0  0  0  0  0  0  0  0  0  0
  189.4870  176.0400  147.1450 C   0  0  2  0  0  3  0  0  0  0  0  0
  188.9480  174.8400  147.6110 O   0  0  0  0  0  1  0  0  0  0  0  0
  191.6200  175.3550  145.2140 C   0  0  0  0  0  0  0  0  0  0  0  0
  190.4020  175.6990  144.7630 C   0  0  0  0  0  3  0  0  0  0  0  0
  191.9410  175.3360  146.6880 C   0  0  0  0  0  2  0  0  0  0  0  0
  189.3070  176.1240  145.6530 C   0  0  0  0  0  0  0  0  0  0  0  0
  191.3000  176.7230  148.4880 O   0  0  0  0  0  0  0  0  0  0  0  0
  190.9390  176.1030  147.5020 C   0  0  0  0  0  0  0  0  0  0  0  0
  193.4590  173.1290  140.9830 C   0  0  0  0  0  2  0  0  0  0  0  0
  192.5480  174.4830  143.0300 C   0  0  0  0  0  0  0  0  0  0  0  0
  195.0190  173.6670  142.9530 C   0  0  0  0  0  2  0  0  0  0  0  0
  191.1160  173.9890  141.0860 C   0  0  0  0  0  2  0  0  0  0  0  0
  192.6880  174.8980  144.3000 C   0  0  0  0  0  3  0  0  0  0  0  0
  193.7330  173.9910  142.2210 C   0  0  1  0  0  0  0  0  0  0  0  0
  194.9520  174.8950  142.0510 C   0  0  1  0  0  3  0  0  0  0  0  0
  191.2860  174.4370  142.4310 O   0  0  0  0  0  0  0  0  0  0  0  0
  191.9650  172.7410  140.7980 C   0  0  2  0  0  0  0  0  0  0  0  0
  191.5310  171.6270  141.7460 C   0  0  0  0  0  0  0  0  0  0  0  0
  192.3520  170.9930  142.3920 O   0  0  0  0  0  0  0  0  0  0  0  0
  190.0790  171.2970  141.8870 C   0  0  0  0  0  2  0  0  0  0  0  0
  189.6400  171.6200  143.1720 O   0  0  0  0  0  1  0  0  0  0  0  0
  191.7140  172.3760  139.4490 O   0  0  0  0  0  0  0  0  0  0  0  0
  191.0370  173.4130  138.7760 C   0  0  0  0  0  2  0  0  0  0  0  0
  191.7310  173.6990  137.4620 C   0  0  0  0  0  1  0  0  0  0  0  0
  194.8740  176.0480  142.8420 O   0  0  0  0  0  0  0  0  0  0  0  0
  196.2250  176.7880  141.3340 C   0  0  0  0  0  1  0  0  0  0  0  0
  196.0500  176.6280  142.7120 O   0  0  0  0  0  0  0  0  0  0  0  0
  187.0030  176.9770  145.7670 C   0  0  0  0  0  0  0  0  0  0  0  0
  186.5390  176.3900  146.7830 O   0  0  0  0  0  0  0  0  0  0  0  0
  186.3800  178.2580  145.2900 C   0  0  1  0  0  3  0  0  0  0  0  0
  186.2980  178.9820  143.0660 N   0  0  0  0  0  2  0  0  0  0  0  0
  185.7100  178.0910  143.9870 N   0  0  0  0  0  0  0  0  0  0  0  0
  186.2640  176.8450  142.0200 C   0  0  1  0  0  3  0  0  0  0  0  0
  185.9930  176.7430  143.4950 C   0  0  0  0  0  2  0  0  0  0  0  0
  186.2640  178.3280  141.7670 C   0  0  0  0  0  2  0  0  0  0  0  0
  187.6410  176.2700  141.7250 C   0  0  0  0  0  2  0  0  0  0  0  0
  187.6600  174.9090  142.0300 O   0  0  0  0  0  1  0  0  0  0  0  0
  185.4480  178.7660  146.3530 C   0  0  0  0  0  0  0  0  0  0  0  0
  184.0850  178.5560  146.2160 O   0  0  0  0  0  0  0  0  0  0  0  0
  185.8860  179.4220  147.3330 O   0  0  0  0  0  1  0  0  0  0  0  0
  1  7  2  0  0  0  0
  1 29  1  0  0  0  0
  2  9  1  0  0  0  0
  2  3  1  6  0  0  0
  4  6  1  0  0  0  0
  5  4  2  0  0  0  0
  5  7  1  0  0  0  0
  6  9  1  0  0  0  0
  7  2  1  0  0  0  0
  9  8  2  0  0  0  0
 11 14  2  0  0  0  0
 13 17  1  0  0  0  0
 14  4  1  0  0  0  0
 15 10  1  6  0  0  0
 15 12  1  0  0  0  0
 15 11  1  0  0  0  0
 16 15  1  0  0  0  0
 16 26  1  1  0  0  0
 16 12  1  0  0  0  0
 17 11  1  0  0  0  0
 18 23  1  6  0  0  0
 18 10  1  0  0  0  0
 18 13  1  0  0  0  0
 18 19  1  0  0  0  0
 19 21  1  0  0  0  0
 19 20  2  0  0  0  0
 21 22  1  0  0  0  0
 24 23  1  0  0  0  0
 25 24  1  0  0  0  0
 27 28  1  0  0  0  0
 28 26  1  0  0  0  0
 29 30  2  0  0  0  0
 31 29  1  1  0  0  0
 31 39  1  0  0  0  0
 32 33  1  0  0  0  0
 33 31  1  0  0  0  0
 34 37  1  1  0  0  0
 34 35  1  0  0  0  0
 35 33  1  0  0  0  0
 36 34  1  0  0  0  0
 36 32  1  0  0  0  0
 37 38  1  0  0  0  0
 39 41  1  0  0  0  0
 40 39  2  0  0  0  0
M  END
>  <MODEL>
2

>  <REMARK>
 VINA RESULT:      -6.3      2.477      4.473
  Name = 
  12 active torsions:
  status: ('A' for Active; 'I' for Inactive)
    1  A    between atoms: C_2  and  C_9
    2  A    between atoms: C_2  and  C_13
    3  A    between atoms: C_2  and  N_27
    4  A    between atoms: C_7  and  C_31
    5  A    between atoms: O_8  and  C_34
    6  A    between atoms: O_8  and  C_39
    7  A    between atoms: O_10  and  O_18
    8  A    between atoms: O_10  and  C_30
    9  A    between atoms: N_11  and  C_13
   10  A    between atoms: C_15  and  C_16
   11  A    between atoms: C_16  and  C_39
   12  A    between atoms: C_17  and  C_21
                            x       y       z     vdW  Elec       q    Type
                         _______ _______ _______ _____ _____    ______ ____

>  <TORSDO>
F 12

$$$$
=
 OpenBabel11062421433D

 41 44  0  0  1  0  0  0  0  0999 V2000
  188.8720  176.5390  144.9870 N   0  0  0  0  0  0  0  0  0  0  0  0
  189.9950  176.2780  147.1630 C   0  0  2  0  0  3  0  0  0  0  0  0
  189.6130  175.0020  147.5760 O   0  0  0  0  0  1  0  0  0  0  0  0
  192.4140  175.9720  145.4880 C   0  0  0  0  0  0  0  0  0  0  0  0
  191.2140  176.1150  144.9020 C   0  0  0  0  0  3  0  0  0  0  0  0
  192.5670  175.9930  146.9890 C   0  0  0  0  0  2  0  0  0  0  0  0
  189.9720  176.3460  145.6590 C   0  0  0  0  0  0  0  0  0  0  0  0
  191.5090  177.2380  148.6930 O   0  0  0  0  0  0  0  0  0  0  0  0
  191.3690  176.5760  147.6790 C   0  0  0  0  0  0  0  0  0  0  0  0
  195.8630  172.9910  143.1530 C   0  0  0  0  0  2  0  0  0  0  0  0
  193.9960  174.5480  144.1250 C   0  0  0  0  0  0  0  0  0  0  0  0
  196.3690  175.4740  143.5820 C   0  0  0  0  0  2  0  0  0  0  0  0
  193.5530  172.1730  143.6360 C   0  0  0  0  0  2  0  0  0  0  0  0
  193.6380  175.7060  144.7040 C   0  0  0  0  0  3  0  0  0  0  0  0
  195.3150  174.4030  143.3880 C   0  0  1  0  0  0  0  0  0  0  0  0
  195.6440  175.3610  142.2450 C   0  0  1  0  0  3  0  0  0  0  0  0
  193.1850  173.4160  144.2360 O   0  0  0  0  0  0  0  0  0  0  0  0
  195.0440  171.8670  143.8480 C   0  0  2  0  0  0  0  0  0  0  0  0
  195.3170  171.7910  145.3470 C   0  0  0  0  0  0  0  0  0  0  0  0
  194.4230  171.5350  146.1400 O   0  0  0  0  0  0  0  0  0  0  0  0
  196.7000  172.0390  145.8630 C   0  0  0  0  0  2  0  0  0  0  0  0
  196.7740  173.3120  146.4300 O   0  0  0  0  0  1  0  0  0  0  0  0
  195.2990  170.6160  143.2290 O   0  0  0  0  0  0  0  0  0  0  0  0
  196.2470  170.7610  142.1970 C   0  0  0  0  0  2  0  0  0  0  0  0
  197.2590  169.6380  142.2790 C   0  0  0  0  0  1  0  0  0  0  0  0
  194.7100  176.3990  142.1350 O   0  0  0  0  0  0  0  0  0  0  0  0
  194.8170  175.6470  140.1180 C   0  0  0  0  0  1  0  0  0  0  0  0
  194.8090  176.8130  140.8890 O   0  0  0  0  0  0  0  0  0  0  0  0
  187.5610  176.8070  145.5070 C   0  0  0  0  0  0  0  0  0  0  0  0
  187.0050  176.0190  146.3210 O   0  0  0  0  0  0  0  0  0  0  0  0
  186.8970  178.1050  145.1450 C   0  0  1  0  0  3  0  0  0  0  0  0
  186.8030  178.7940  142.9110 N   0  0  0  0  0  2  0  0  0  0  0  0
  186.1490  178.0050  143.8790 N   0  0  0  0  0  0  0  0  0  0  0  0
  186.4390  176.6620  141.9180 C   0  0  1  0  0  3  0  0  0  0  0  0
  186.2280  176.6230  143.4060 C   0  0  0  0  0  2  0  0  0  0  0  0
  186.6210  178.1280  141.6310 C   0  0  0  0  0  2  0  0  0  0  0  0
  187.7130  175.9050  141.5740 C   0  0  0  0  0  2  0  0  0  0  0  0
  187.7710  174.7210  142.3080 O   0  0  0  0  0  1  0  0  0  0  0  0
  186.0280  178.5380  146.2920 C   0  0  0  0  0  0  0  0  0  0  0  0
  184.6730  178.7340  146.0790 O   0  0  0  0  0  0  0  0  0  0  0  0
  186.5260  178.7740  147.4230 O   0  0  0  0  0  1  0  0  0  0  0  0
  1 29  1  0  0  0  0
  1  7  2  0  0  0  0
  2  3  1  6  0  0  0
  2  9  1  0  0  0  0
  4  6  1  0  0  0  0
  5  4  2  0  0  0  0
  5  7  1  0  0  0  0
  6  9  1  0  0  0  0
  7  2  1  0  0  0  0
  9  8  2  0  0  0  0
 10 18  1  0  0  0  0
 11 17  1  0  0  0  0
 11 14  2  0  0  0  0
 13 18  1  0  0  0  0
 13 17  1  0  0  0  0
 14  4  1  0  0  0  0
 15 10  1  6  0  0  0
 15 12  1  0  0  0  0
 15 11  1  0  0  0  0
 16 26  1  1  0  0  0
 16 15  1  0  0  0  0
 16 12  1  0  0  0  0
 18 23  1  6  0  0  0
 18 19  1  0  0  0  0
 19 21  1  0  0  0  0
 19 20  2  0  0  0  0
 21 22  1  0  0  0  0
 24 25  1  0  0  0  0
 24 23  1  0  0  0  0
 27 28  1  0  0  0  0
 28 26  1  0  0  0  0
 29 30  2  0  0  0  0
 31 29  1  1  0  0  0
 31 39  1  0  0  0  0
 32 33  1  0  0  0  0
 33 31  1  0  0  0  0
 34 37  1  1  0  0  0
 34 35  1  0  0  0  0
 35 33  1  0  0  0  0
 36 34  1  0  0  0  0
 36 32  1  0  0  0  0
 37 38  1  0  0  0  0
 39 41  1  0  0  0  0
 40 39  2  0  0  0  0
M  END
>  <MODEL>
3

>  <REMARK>
 VINA RESULT:      -6.3      2.305      4.510
  Name = 
  12 active torsions:
  status: ('A' for Active; 'I' for Inactive)
    1  A    between atoms: C_2  and  C_9
    2  A    between atoms: C_2  and  C_13
    3  A    between atoms: C_2  and  N_27
    4  A    between atoms: C_7  and  C_31
    5  A    between atoms: O_8  and  C_34
    6  A    between atoms: O_8  and  C_39
    7  A    between atoms: O_10  and  O_18
    8  A    between atoms: O_10  and  C_30
    9  A    between atoms: N_11  and  C_13
   10  A    between atoms: C_15  and  C_16
   11  A    between atoms: C_16  and  C_39
   12  A    between atoms: C_17  and  C_21
                            x       y       z     vdW  Elec       q    Type
                         _______ _______ _______ _____ _____    ______ ____

>  <TORSDO>
F 12

$$$$
=
 OpenBabel11062421433D

 41 44  0  0  1  0  0  0  0  0999 V2000
  189.3720  176.6050  144.3170 N   0  0  0  0  0  0  0  0  0  0  0  0
  190.0170  175.3790  146.3540 C   0  0  2  0  0  3  0  0  0  0  0  0
  189.5260  174.0930  146.1300 O   0  0  0  0  0  1  0  0  0  0  0  0
  192.7200  175.5080  145.1600 C   0  0  0  0  0  0  0  0  0  0  0  0
  191.6710  176.0010  144.4810 C   0  0  0  0  0  3  0  0  0  0  0  0
  192.5620  174.9120  146.5370 C   0  0  0  0  0  2  0  0  0  0  0  0
  190.3060  176.0430  145.0340 C   0  0  0  0  0  0  0  0  0  0  0  0
  191.2080  175.4810  148.3850 O   0  0  0  0  0  0  0  0  0  0  0  0
  191.2620  175.2970  147.1810 C   0  0  0  0  0  0  0  0  0  0  0  0
  196.8470  173.1340  143.2710 C   0  0  0  0  0  2  0  0  0  0  0  0
  194.6650  174.3800  144.0030 C   0  0  0  0  0  0  0  0  0  0  0  0
  196.9460  175.6290  143.8760 C   0  0  0  0  0  2  0  0  0  0  0  0
  194.6220  172.0030  143.3530 C   0  0  0  0  0  2  0  0  0  0  0  0
  194.0720  175.4460  144.5660 C   0  0  0  0  0  3  0  0  0  0  0  0
  196.0860  174.4480  143.4760 C   0  0  1  0  0  0  0  0  0  0  0  0
  196.4510  175.5080  142.4380 C   0  0  1  0  0  3  0  0  0  0  0  0
  194.0050  173.1500  143.9390 O   0  0  0  0  0  0  0  0  0  0  0  0
  196.0920  171.8750  143.7840 C   0  0  2  0  0  0  0  0  0  0  0  0
  196.1460  171.7420  145.3020 C   0  0  0  0  0  0  0  0  0  0  0  0
  196.9250  172.4080  145.9670 O   0  0  0  0  0  0  0  0  0  0  0  0
  195.2360  170.7780  145.9950 C   0  0  0  0  0  2  0  0  0  0  0  0
  195.9610  169.6670  146.4290 O   0  0  0  0  0  1  0  0  0  0  0  0
  196.6010  170.7060  143.1610 O   0  0  0  0  0  0  0  0  0  0  0  0
  197.3340  171.0430  142.0040 C   0  0  0  0  0  2  0  0  0  0  0  0
  196.7340  170.3420  140.8040 C   0  0  0  0  0  1  0  0  0  0  0  0
  195.4130  176.4240  142.2270 O   0  0  0  0  0  0  0  0  0  0  0  0
  195.1780  175.6770  140.2190 C   0  0  0  0  0  1  0  0  0  0  0  0
  195.5430  176.7980  140.9700 O   0  0  0  0  0  0  0  0  0  0  0  0
  187.9900  176.7830  144.6610 C   0  0  0  0  0  0  0  0  0  0  0  0
  187.6460  177.2030  145.8000 O   0  0  0  0  0  0  0  0  0  0  0  0
  186.9520  176.5570  143.5980 C   0  0  1  0  0  3  0  0  0  0  0  0
  184.9860  177.5250  142.7760 N   0  0  0  0  0  2  0  0  0  0  0  0
  186.3020  177.8160  143.1900 N   0  0  0  0  0  0  0  0  0  0  0  0
  184.8320  179.3310  144.3190 C   0  0  1  0  0  3  0  0  0  0  0  0
  186.1840  178.6760  144.3680 C   0  0  0  0  0  2  0  0  0  0  0  0
  184.1660  178.6700  143.1420 C   0  0  0  0  0  2  0  0  0  0  0  0
  184.0720  179.0020  145.5950 C   0  0  0  0  0  2  0  0  0  0  0  0
  184.5230  177.7890  146.1140 O   0  0  0  0  0  1  0  0  0  0  0  0
  187.5910  175.8410  142.4430 C   0  0  0  0  0  0  0  0  0  0  0  0
  188.0630  176.5750  141.3670 O   0  0  0  0  0  0  0  0  0  0  0  0
  187.6550  174.5840  142.4210 O   0  0  0  0  0  1  0  0  0  0  0  0
  1 29  1  0  0  0  0
  1  7  2  0  0  0  0
  2  3  1  6  0  0  0
  2  9  1  0  0  0  0
  4  6  1  0  0  0  0
  5  7  1  0  0  0  0
  5  4  2  0  0  0  0
  6  9  1  0  0  0  0
  7  2  1  0  0  0  0
  9  8  2  0  0  0  0
 10 18  1  0  0  0  0
 11 14  2  0  0  0  0
 13 18  1  0  0  0  0
 13 17  1  0  0  0  0
 14  4  1  0  0  0  0
 15 10  1  6  0  0  0
 15 12  1  0  0  0  0
 15 11  1  0  0  0  0
 16 26  1  1  0  0  0
 16 15  1  0  0  0  0
 16 12  1  0  0  0  0
 17 11  1  0  0  0  0
 18 23  1  6  0  0  0
 18 19  1  0  0  0  0
 19 20  2  0  0  0  0
 19 21  1  0  0  0  0
 21 22  1  0  0  0  0
 24 23  1  0  0  0  0
 25 24  1  0  0  0  0
 27 28  1  0  0  0  0
 28 26  1  0  0  0  0
 29 30  2  0  0  0  0
 31 39  1  6  0  0  0
 31 29  1  0  0  0  0
 32 36  1  0  0  0  0
 32 33  1  0  0  0  0
 33 31  1  0  0  0  0
 33 35  1  0  0  0  0
 34 35  1  0  0  0  0
 34 37  1  1  0  0  0
 36 34  1  0  0  0  0
 37 38  1  0  0  0  0
 40 39  2  0  0  0  0
 41 39  1  0  0  0  0
M  END
>  <MODEL>
4

>  <REMARK>
 VINA RESULT:      -6.2      2.274      3.908
  Name = 
  12 active torsions:
  status: ('A' for Active; 'I' for Inactive)
    1  A    between atoms: C_2  and  C_9
    2  A    between atoms: C_2  and  C_13
    3  A    between atoms: C_2  and  N_27
    4  A    between atoms: C_7  and  C_31
    5  A    between atoms: O_8  and  C_34
    6  A    between atoms: O_8  and  C_39
    7  A    between atoms: O_10  and  O_18
    8  A    between atoms: O_10  and  C_30
    9  A    between atoms: N_11  and  C_13
   10  A    between atoms: C_15  and  C_16
   11  A    between atoms: C_16  and  C_39
   12  A    between atoms: C_17  and  C_21
                            x       y       z     vdW  Elec       q    Type
                         _______ _______ _______ _____ _____    ______ ____

>  <TORSDO>
F 12

$$$$
=
 OpenBabel11062421433D

 41 44  0  0  1  0  0  0  0  0999 V2000
  187.9650  176.3820  145.0940 N   0  0  0  0  0  0  0  0  0  0  0  0
  189.5600  176.0230  146.9350 C   0  0  2  0  0  3  0  0  0  0  0  0
  189.1000  174.8540  147.5420 O   0  0  0  0  0  1  0  0  0  0  0  0
  191.3780  175.2190  144.7450 C   0  0  0  0  0  0  0  0  0  0  0  0
  190.1050  175.5460  144.4650 C   0  0  0  0  0  3  0  0  0  0  0  0
  191.9180  175.2780  146.1520 C   0  0  0  0  0  2  0  0  0  0  0  0
  189.1570  176.0270  145.4850 C   0  0  0  0  0  0  0  0  0  0  0  0
  191.5540  176.7650  147.9490 O   0  0  0  0  0  0  0  0  0  0  0  0
  191.0500  176.0940  147.0640 C   0  0  0  0  0  0  0  0  0  0  0  0
  195.5120  172.7210  143.0420 C   0  0  0  0  0  2  0  0  0  0  0  0
  193.2700  173.7930  143.8630 C   0  0  0  0  0  0  0  0  0  0  0  0
  194.1860  174.2620  141.4710 C   0  0  0  0  0  2  0  0  0  0  0  0
  194.5550  172.2590  145.3020 C   0  0  0  0  0  2  0  0  0  0  0  0
  192.2960  174.7050  143.7070 C   0  0  0  0  0  3  0  0  0  0  0  0
  194.1760  173.3940  142.7120 C   0  0  1  0  0  0  0  0  0  0  0  0
  193.5570  172.8740  141.4170 C   0  0  1  0  0  3  0  0  0  0  0  0
  193.5180  173.2230  145.1140 O   0  0  0  0  0  0  0  0  0  0  0  0
  195.8390  172.6650  144.5610 C   0  0  2  0  0  0  0  0  0  0  0  0
  196.3110  174.0100  145.1050 C   0  0  0  0  0  0  0  0  0  0  0  0
  196.2440  174.2670  146.2970 O   0  0  0  0  0  0  0  0  0  0  0  0
  196.8610  175.0370  144.1660 C   0  0  0  0  0  2  0  0  0  0  0  0
  195.9970  176.1310  144.0990 O   0  0  0  0  0  1  0  0  0  0  0  0
  196.8000  171.6540  144.8230 O   0  0  0  0  0  0  0  0  0  0  0  0
  196.2170  170.5960  145.5490 C   0  0  0  0  0  2  0  0  0  0  0  0
  197.3040  169.6720  146.0550 C   0  0  0  0  0  1  0  0  0  0  0  0
  192.1620  172.9970  141.4060 O   0  0  0  0  0  0  0  0  0  0  0  0
  190.9830  173.4010  139.6480 C   0  0  0  0  0  1  0  0  0  0  0  0
  191.7810  172.4390  140.2750 O   0  0  0  0  0  0  0  0  0  0  0  0
  186.8960  176.9010  145.8980 C   0  0  0  0  0  0  0  0  0  0  0  0
  186.4990  176.2950  146.9320 O   0  0  0  0  0  0  0  0  0  0  0  0
  186.3200  178.2440  145.5470 C   0  0  1  0  0  3  0  0  0  0  0  0
  185.9580  179.1800  143.4330 N   0  0  0  0  0  2  0  0  0  0  0  0
  185.5010  178.1870  144.3230 N   0  0  0  0  0  0  0  0  0  0  0  0
  185.8320  177.1550  142.1880 C   0  0  1  0  0  3  0  0  0  0  0  0
  185.7430  176.9020  143.6670 C   0  0  0  0  0  2  0  0  0  0  0  0
  185.7790  178.6560  142.0880 C   0  0  0  0  0  2  0  0  0  0  0  0
  187.1720  176.6510  141.6750 C   0  0  0  0  0  2  0  0  0  0  0  0
  188.1370  177.6480  141.8130 O   0  0  0  0  0  1  0  0  0  0  0  0
  185.5500  178.7620  146.7290 C   0  0  0  0  0  0  0  0  0  0  0  0
  184.1810  178.5600  146.7870 O   0  0  0  0  0  0  0  0  0  0  0  0
  186.1260  179.4190  147.6340 O   0  0  0  0  0  1  0  0  0  0  0  0
  1  7  2  0  0  0  0
  1 29  1  0  0  0  0
  2  9  1  0  0  0  0
  2  3  1  6  0  0  0
  4  6  1  0  0  0  0
  5  4  2  0  0  0  0
  5  7  1  0  0  0  0
  6  9  1  0  0  0  0
  7  2  1  0  0  0  0
  9  8  2  0  0  0  0
 10 18  1  0  0  0  0
 11 17  1  0  0  0  0
 14 11  2  0  0  0  0
 14  4  1  0  0  0  0
 15 12  1  6  0  0  0
 15 10  1  0  0  0  0
 15 11  1  0  0  0  0
 16 26  1  1  0  0  0
 16 12  1  0  0  0  0
 16 15  1  0  0  0  0
 17 13  1  0  0  0  0
 18 23  1  1  0  0  0
 18 19  1  0  0  0  0
 18 13  1  0  0  0  0
 19 20  2  0  0  0  0
 21 19  1  0  0  0  0
 22 21  1  0  0  0  0
 23 24  1  0  0  0  0
 24 25  1  0  0  0  0
 27 28  1  0  0  0  0
 28 26  1  0  0  0  0
 29 30  2  0  0  0  0
 31 29  1  1  0  0  0
 31 39  1  0  0  0  0
 32 33  1  0  0  0  0
 33 31  1  0  0  0  0
 34 37  1  1  0  0  0
 34 35  1  0  0  0  0
 35 33  1  0  0  0  0
 36 34  1  0  0  0  0
 36 32  1  0  0  0  0
 37 38  1  0  0  0  0
 39 40  2  0  0  0  0
 39 41  1  0  0  0  0
M  END
>  <MODEL>
5

>  <REMARK>
 VINA RESULT:      -6.2      2.353      4.852
  Name = 
  12 active torsions:
  status: ('A' for Active; 'I' for Inactive)
    1  A    between atoms: C_2  and  C_9
    2  A    between atoms: C_2  and  C_13
    3  A    between atoms: C_2  and  N_27
    4  A    between atoms: C_7  and  C_31
    5  A    between atoms: O_8  and  C_34
    6  A    between atoms: O_8  and  C_39
    7  A    between atoms: O_10  and  O_18
    8  A    between atoms: O_10  and  C_30
    9  A    between atoms: N_11  and  C_13
   10  A    between atoms: C_15  and  C_16
   11  A    between atoms: C_16  and  C_39
   12  A    between atoms: C_17  and  C_21
                            x       y       z     vdW  Elec       q    Type
                         _______ _______ _______ _____ _____    ______ ____

>  <TORSDO>
F 12

$$$$
=
 OpenBabel11062421433D

 41 44  0  0  1  0  0  0  0  0999 V2000
  182.7620  178.0690  142.0380 N   0  0  0  0  0  0  0  0  0  0  0  0
  184.7780  178.0660  140.6230 C   0  0  2  0  0  3  0  0  0  0  0  0
  185.0160  179.4210  140.3910 O   0  0  0  0  0  1  0  0  0  0  0  0
  186.1340  177.3580  143.1550 C   0  0  0  0  0  0  0  0  0  0  0  0
  184.8160  177.6150  143.1580 C   0  0  0  0  0  3  0  0  0  0  0  0
  186.9440  177.3930  141.8820 C   0  0  0  0  0  2  0  0  0  0  0  0
  184.0510  177.9020  141.9310 C   0  0  0  0  0  0  0  0  0  0  0  0
  186.4740  176.7390  139.6630 O   0  0  0  0  0  0  0  0  0  0  0  0
  186.0830  177.3320  140.6550 C   0  0  0  0  0  0  0  0  0  0  0  0
  190.3610  176.7790  145.9900 C   0  0  0  0  0  2  0  0  0  0  0  0
  188.1920  177.3070  144.6230 C   0  0  0  0  0  0  0  0  0  0  0  0
  188.0680  176.0830  146.9180 C   0  0  0  0  0  2  0  0  0  0  0  0
  190.4130  178.0030  143.8130 C   0  0  0  0  0  2  0  0  0  0  0  0
  186.8810  177.1080  144.4060 C   0  0  0  0  0  3  0  0  0  0  0  0
  188.8390  176.9570  145.9500 C   0  0  1  0  0  0  0  0  0  0  0  0
  188.2820  177.5590  147.2380 C   0  0  1  0  0  3  0  0  0  0  0  0
  189.0160  177.7930  143.6050 O   0  0  0  0  0  0  0  0  0  0  0  0
  191.0450  176.8400  144.5950 C   0  0  2  0  0  0  0  0  0  0  0  0
  190.8530  175.5540  143.7960 C   0  0  0  0  0  0  0  0  0  0  0  0
  191.2020  175.4800  142.6270 O   0  0  0  0  0  0  0  0  0  0  0  0
  190.2220  174.3640  144.4460 C   0  0  0  0  0  2  0  0  0  0  0  0
  191.2090  173.5290  144.9710 O   0  0  0  0  0  1  0  0  0  0  0  0
  192.4250  177.1410  144.7350 O   0  0  0  0  0  0  0  0  0  0  0  0
  193.0250  176.2760  145.6710 C   0  0  0  0  0  2  0  0  0  0  0  0
  194.1540  176.9980  146.3750 C   0  0  0  0  0  1  0  0  0  0  0  0
  187.0870  178.2580  147.0250 O   0  0  0  0  0  0  0  0  0  0  0  0
  185.1030  178.5810  147.8020 C   0  0  0  0  0  1  0  0  0  0  0  0
  186.2790  177.8460  147.9810 O   0  0  0  0  0  0  0  0  0  0  0  0
  181.8220  178.3300  140.9860 C   0  0  0  0  0  0  0  0  0  0  0  0
  181.9020  177.7400  139.8730 O   0  0  0  0  0  0  0  0  0  0  0  0
  180.6650  179.2470  141.2680 C   0  0  1  0  0  3  0  0  0  0  0  0
  178.6010  179.0540  140.1830 N   0  0  0  0  0  2  0  0  0  0  0  0
  179.9070  179.5660  140.0450 N   0  0  0  0  0  0  0  0  0  0  0  0
  178.3740  181.3190  139.4880 C   0  0  1  0  0  3  0  0  0  0  0  0
  179.7720  181.0190  139.9520 C   0  0  0  0  0  2  0  0  0  0  0  0
  177.7130  179.9670  139.4800 C   0  0  0  0  0  2  0  0  0  0  0  0
  177.6940  182.2210  140.5060 C   0  0  0  0  0  2  0  0  0  0  0  0
  178.1970  183.5180  140.3990 O   0  0  0  0  0  1  0  0  0  0  0  0
  179.8050  178.6260  142.3310 C   0  0  0  0  0  0  0  0  0  0  0  0
  179.3690  177.3200  142.1730 O   0  0  0  0  0  0  0  0  0  0  0  0
  179.4360  179.2930  143.3320 O   0  0  0  0  0  1  0  0  0  0  0  0
  2  3  1  1  0  0  0
  2  9  1  0  0  0  0
  2  7  1  0  0  0  0
  4  5  2  0  0  0  0
  4 14  1  0  0  0  0
  6  4  1  0  0  0  0
  7  1  2  0  0  0  0
  7  5  1  0  0  0  0
  8  9  2  0  0  0  0
  9  6  1  0  0  0  0
 11 15  1  0  0  0  0
 12 16  1  0  0  0  0
 13 18  1  0  0  0  0
 14 11  2  0  0  0  0
 15 10  1  6  0  0  0
 15 12  1  0  0  0  0
 15 16  1  0  0  0  0
 16 26  1  6  0  0  0
 17 13  1  0  0  0  0
 17 11  1  0  0  0  0
 18 19  1  6  0  0  0
 18 23  1  0  0  0  0
 18 10  1  0  0  0  0
 19 21  1  0  0  0  0
 20 19  2  0  0  0  0
 21 22  1  0  0  0  0
 23 24  1  0  0  0  0
 24 25  1  0  0  0  0
 26 28  1  0  0  0  0
 27 28  1  0  0  0  0
 29  1  1  0  0  0  0
 30 29  2  0  0  0  0
 31 29  1  6  0  0  0
 31 39  1  0  0  0  0
 33 32  1  0  0  0  0
 33 31  1  0  0  0  0
 34 35  1  0  0  0  0
 34 37  1  1  0  0  0
 35 33  1  0  0  0  0
 36 34  1  0  0  0  0
 36 32  1  0  0  0  0
 38 37  1  0  0  0  0
 39 41  1  0  0  0  0
 40 39  2  0  0  0  0
M  END
>  <MODEL>
6

>  <REMARK>
 VINA RESULT:      -6.1      4.436      7.255
  Name = 
  12 active torsions:
  status: ('A' for Active; 'I' for Inactive)
    1  A    between atoms: C_2  and  C_9
    2  A    between atoms: C_2  and  C_13
    3  A    between atoms: C_2  and  N_27
    4  A    between atoms: C_7  and  C_31
    5  A    between atoms: O_8  and  C_34
    6  A    between atoms: O_8  and  C_39
    7  A    between atoms: O_10  and  O_18
    8  A    between atoms: O_10  and  C_30
    9  A    between atoms: N_11  and  C_13
   10  A    between atoms: C_15  and  C_16
   11  A    between atoms: C_16  and  C_39
   12  A    between atoms: C_17  and  C_21
                            x       y       z     vdW  Elec       q    Type
                         _______ _______ _______ _____ _____    ______ ____

>  <TORSDO>
F 12

$$$$
=
 OpenBabel11062421433D

 41 44  0  0  1  0  0  0  0  0999 V2000
  190.0780  173.5350  138.7210 N   0  0  0  0  0  0  0  0  0  0  0  0
  190.7900  171.9470  140.4640 C   0  0  2  0  0  3  0  0  0  0  0  0
  192.1790  171.9260  140.3370 O   0  0  0  0  0  1  0  0  0  0  0  0
  190.1090  174.1740  142.2870 C   0  0  0  0  0  0  0  0  0  0  0  0
  190.0150  174.3510  140.9590 C   0  0  0  0  0  3  0  0  0  0  0  0
  190.5280  172.8520  142.8800 C   0  0  0  0  0  2  0  0  0  0  0  0
  190.2640  173.2740  139.9860 C   0  0  0  0  0  0  0  0  0  0  0  0
  190.0920  170.6120  142.2760 O   0  0  0  0  0  0  0  0  0  0  0  0
  190.4200  171.7240  141.8970 C   0  0  0  0  0  0  0  0  0  0  0  0
  187.3940  177.9210  144.4840 C   0  0  0  0  0  2  0  0  0  0  0  0
  188.7170  175.8630  143.5520 C   0  0  0  0  0  0  0  0  0  0  0  0
  189.9280  177.7540  144.8710 C   0  0  0  0  0  2  0  0  0  0  0  0
  186.2760  176.0490  143.2640 C   0  0  0  0  0  2  0  0  0  0  0  0
  189.8870  175.2840  143.2380 C   0  0  0  0  0  3  0  0  0  0  0  0
  188.6440  177.0350  144.5140 C   0  0  1  0  0  0  0  0  0  0  0  0
  189.2300  176.8900  145.9170 C   0  0  1  0  0  3  0  0  0  0  0  0
  187.5290  175.4390  142.9510 O   0  0  0  0  0  0  0  0  0  0  0  0
  186.4000  177.5800  143.3380 C   0  0  2  0  0  0  0  0  0  0  0  0
  186.8750  178.0960  141.9830 C   0  0  0  0  0  0  0  0  0  0  0  0
  187.9530  178.6580  141.8640 O   0  0  0  0  0  0  0  0  0  0  0  0
  186.0070  177.9200  140.7770 C   0  0  0  0  0  2  0  0  0  0  0  0
  186.7210  177.2690  139.7690 O   0  0  0  0  0  1  0  0  0  0  0  0
  185.1070  178.0820  143.6400 O   0  0  0  0  0  0  0  0  0  0  0  0
  185.1700  178.9880  144.7170 C   0  0  0  0  0  2  0  0  0  0  0  0
  184.0680  178.6750  145.7060 C   0  0  0  0  0  1  0  0  0  0  0  0
  189.9380  175.6930  146.0760 O   0  0  0  0  0  0  0  0  0  0  0  0
  191.1950  175.8290  147.8220 C   0  0  0  0  0  1  0  0  0  0  0  0
  189.9230  175.4600  147.3730 O   0  0  0  0  0  0  0  0  0  0  0  0
  190.2320  172.6420  137.6090 C   0  0  0  0  0  0  0  0  0  0  0  0
  189.3210  171.8280  137.2910 O   0  0  0  0  0  0  0  0  0  0  0  0
  191.4630  172.7620  136.7560 C   0  0  1  0  0  3  0  0  0  0  0  0
  193.7420  173.2540  136.9550 N   0  0  0  0  0  2  0  0  0  0  0  0
  192.4560  173.6750  137.3510 N   0  0  0  0  0  0  0  0  0  0  0  0
  193.6200  175.5890  136.5070 C   0  0  1  0  0  3  0  0  0  0  0  0
  192.2610  175.0050  136.7750 C   0  0  0  0  0  2  0  0  0  0  0  0
  194.5560  174.4530  136.8240 C   0  0  0  0  0  2  0  0  0  0  0  0
  193.7260  175.9510  135.0340 C   0  0  0  0  0  2  0  0  0  0  0  0
  192.8740  177.0160  134.7470 O   0  0  0  0  0  1  0  0  0  0  0  0
  192.0190  171.3870  136.5160 C   0  0  0  0  0  0  0  0  0  0  0  0
  192.1990  170.9470  135.2140 O   0  0  0  0  0  0  0  0  0  0  0  0
  192.2730  170.6180  137.4780 O   0  0  0  0  0  1  0  0  0  0  0  0
  1  7  2  0  0  0  0
  2  3  1  1  0  0  0
  2  9  1  0  0  0  0
  4  6  1  0  0  0  0
  4 14  1  0  0  0  0
  5  4  2  0  0  0  0
  7  2  1  0  0  0  0
  7  5  1  0  0  0  0
  9  8  2  0  0  0  0
  9  6  1  0  0  0  0
 11 15  1  0  0  0  0
 12 16  1  0  0  0  0
 13 18  1  0  0  0  0
 14 11  2  0  0  0  0
 15 10  1  6  0  0  0
 15 12  1  0  0  0  0
 15 16  1  0  0  0  0
 16 26  1  6  0  0  0
 17 13  1  0  0  0  0
 17 11  1  0  0  0  0
 18 19  1  6  0  0  0
 18 23  1  0  0  0  0
 18 10  1  0  0  0  0
 20 19  2  0  0  0  0
 21 19  1  0  0  0  0
 22 21  1  0  0  0  0
 23 24  1  0  0  0  0
 24 25  1  0  0  0  0
 26 28  1  0  0  0  0
 28 27  1  0  0  0  0
 29  1  1  0  0  0  0
 30 29  2  0  0  0  0
 31 39  1  1  0  0  0
 31 33  1  0  0  0  0
 31 29  1  0  0  0  0
 32 33  1  0  0  0  0
 34 37  1  6  0  0  0
 34 35  1  0  0  0  0
 34 36  1  0  0  0  0
 35 33  1  0  0  0  0
 36 32  1  0  0  0  0
 38 37  1  0  0  0  0
 39 41  1  0  0  0  0
 40 39  2  0  0  0  0
M  END
>  <MODEL>
7

>  <REMARK>
 VINA RESULT:      -6.1      3.951      9.207
  Name = 
  12 active torsions:
  status: ('A' for Active; 'I' for Inactive)
    1  A    between atoms: C_2  and  C_9
    2  A    between atoms: C_2  and  C_13
    3  A    between atoms: C_2  and  N_27
    4  A    between atoms: C_7  and  C_31
    5  A    between atoms: O_8  and  C_34
    6  A    between atoms: O_8  and  C_39
    7  A    between atoms: O_10  and  O_18
    8  A    between atoms: O_10  and  C_30
    9  A    between atoms: N_11  and  C_13
   10  A    between atoms: C_15  and  C_16
   11  A    between atoms: C_16  and  C_39
   12  A    between atoms: C_17  and  C_21
                            x       y       z     vdW  Elec       q    Type
                         _______ _______ _______ _____ _____    ______ ____

>  <TORSDO>
F 12

$$$$
=
 OpenBabel11062421433D

 41 44  0  0  1  0  0  0  0  0999 V2000
  188.1460  176.3550  142.8450 N   0  0  0  0  0  0  0  0  0  0  0  0
  188.4690  174.3520  141.4490 C   0  0  2  0  0  3  0  0  0  0  0  0
  188.1490  174.7950  140.1650 O   0  0  0  0  0  1  0  0  0  0  0  0
  191.3360  174.9310  141.8880 C   0  0  0  0  0  0  0  0  0  0  0  0
  190.4070  175.7660  142.3820 C   0  0  0  0  0  3  0  0  0  0  0  0
  190.9540  173.6800  141.1350 C   0  0  0  0  0  2  0  0  0  0  0  0
  188.9600  175.5130  142.2710 C   0  0  0  0  0  0  0  0  0  0  0  0
  189.2080  172.1150  141.4050 O   0  0  0  0  0  0  0  0  0  0  0  0
  189.5220  173.2920  141.3590 C   0  0  0  0  0  0  0  0  0  0  0  0
  195.9410  174.8720  144.1310 C   0  0  0  0  0  2  0  0  0  0  0  0
  193.6620  174.7070  142.8530 C   0  0  0  0  0  0  0  0  0  0  0  0
  195.4950  176.4040  142.1170 C   0  0  0  0  0  2  0  0  0  0  0  0
  194.1710  173.2240  144.7540 C   0  0  0  0  0  2  0  0  0  0  0  0
  192.7810  175.2290  141.9830 C   0  0  0  0  0  3  0  0  0  0  0  0
  195.1150  175.1450  142.8690 C   0  0  1  0  0  0  0  0  0  0  0  0
  195.9430  175.0440  141.5900 C   0  0  1  0  0  3  0  0  0  0  0  0
  193.2510  173.7810  143.8150 O   0  0  0  0  0  0  0  0  0  0  0  0
  195.1170  174.2960  145.3170 C   0  0  2  0  0  0  0  0  0  0  0  0
  194.2830  175.3630  146.0190 C   0  0  0  0  0  0  0  0  0  0  0  0
  193.3090  175.0610  146.6930 O   0  0  0  0  0  0  0  0  0  0  0  0
  194.6530  176.8060  145.8780 C   0  0  0  0  0  2  0  0  0  0  0  0
  193.6990  177.4690  145.1050 O   0  0  0  0  0  1  0  0  0  0  0  0
  195.9740  173.6430  146.2410 O   0  0  0  0  0  0  0  0  0  0  0  0
  196.9340  172.8680  145.5600 C   0  0  0  0  0  2  0  0  0  0  0  0
  196.8640  171.4360  146.0450 C   0  0  0  0  0  1  0  0  0  0  0  0
  195.1640  174.6990  140.4780 O   0  0  0  0  0  0  0  0  0  0  0  0
  196.8770  174.5270  139.1810 C   0  0  0  0  0  1  0  0  0  0  0  0
  195.7440  175.2980  139.4580 O   0  0  0  0  0  0  0  0  0  0  0  0
  186.7130  176.2960  142.8910 C   0  0  0  0  0  0  0  0  0  0  0  0
  186.1130  175.3790  143.5170 O   0  0  0  0  0  0  0  0  0  0  0  0
  185.9280  177.4130  142.2620 C   0  0  1  0  0  3  0  0  0  0  0  0
  184.4020  178.4830  143.6770 N   0  0  0  0  0  2  0  0  0  0  0  0
  185.7260  178.5360  143.1960 N   0  0  0  0  0  0  0  0  0  0  0  0
  185.8110  178.7050  145.5820 C   0  0  1  0  0  3  0  0  0  0  0  0
  186.5940  178.3320  144.3550 C   0  0  0  0  0  2  0  0  0  0  0  0
  184.4310  178.9740  145.0460 C   0  0  0  0  0  2  0  0  0  0  0  0
  185.7740  177.5170  146.5310 C   0  0  0  0  0  2  0  0  0  0  0  0
  186.9340  176.7570  146.3810 O   0  0  0  0  0  1  0  0  0  0  0  0
  186.6190  177.8360  140.9970 C   0  0  0  0  0  0  0  0  0  0  0  0
  186.0660  177.4910  139.7740 O   0  0  0  0  0  0  0  0  0  0  0  0
  187.7160  178.4510  141.0380 O   0  0  0  0  0  1  0  0  0  0  0  0
  1 29  1  0  0  0  0
  2  3  1  6  0  0  0
  2  7  1  0  0  0  0
  4 14  1  0  0  0  0
  4  5  2  0  0  0  0
  6  9  1  0  0  0  0
  6  4  1  0  0  0  0
  7  5  1  0  0  0  0
  7  1  2  0  0  0  0
  9  8  2  0  0  0  0
  9  2  1  0  0  0  0
 10 18  1  0  0  0  0
 11 15  1  0  0  0  0
 11 17  1  0  0  0  0
 13 18  1  0  0  0  0
 14 11  2  0  0  0  0
 15 12  1  1  0  0  0
 15 10  1  0  0  0  0
 16 26  1  6  0  0  0
 16 12  1  0  0  0  0
 16 15  1  0  0  0  0
 17 13  1  0  0  0  0
 18 19  1  1  0  0  0
 18 23  1  0  0  0  0
 19 20  2  0  0  0  0
 21 19  1  0  0  0  0
 22 21  1  0  0  0  0
 24 25  1  0  0  0  0
 24 23  1  0  0  0  0
 27 28  1  0  0  0  0
 28 26  1  0  0  0  0
 29 30  2  0  0  0  0
 31 39  1  6  0  0  0
 31 29  1  0  0  0  0
 31 33  1  0  0  0  0
 32 36  1  0  0  0  0
 33 32  1  0  0  0  0
 33 35  1  0  0  0  0
 34 37  1  1  0  0  0
 35 34  1  0  0  0  0
 36 34  1  0  0  0  0
 38 37  1  0  0  0  0
 39 41  1  0  0  0  0
 40 39  2  0  0  0  0
M  END
>  <MODEL>
8

>  <REMARK>
 VINA RESULT:      -6.0      1.819      3.986
  Name = 
  12 active torsions:
  status: ('A' for Active; 'I' for Inactive)
    1  A    between atoms: C_2  and  C_9
    2  A    between atoms: C_2  and  C_13
    3  A    between atoms: C_2  and  N_27
    4  A    between atoms: C_7  and  C_31
    5  A    between atoms: O_8  and  C_34
    6  A    between atoms: O_8  and  C_39
    7  A    between atoms: O_10  and  O_18
    8  A    between atoms: O_10  and  C_30
    9  A    between atoms: N_11  and  C_13
   10  A    between atoms: C_15  and  C_16
   11  A    between atoms: C_16  and  C_39
   12  A    between atoms: C_17  and  C_21
                            x       y       z     vdW  Elec       q    Type
                         _______ _______ _______ _____ _____    ______ ____

>  <TORSDO>
F 12

$$$$
=
 OpenBabel11062421433D

 41 44  0  0  1  0  0  0  0  0999 V2000
  191.5610  173.3000  139.4440 N   0  0  0  0  0  0  0  0  0  0  0  0
  192.0800  171.9310  141.4240 C   0  0  2  0  0  3  0  0  0  0  0  0
  193.4640  172.0470  141.5470 O   0  0  0  0  0  1  0  0  0  0  0  0
  190.8730  174.2020  142.8850 C   0  0  0  0  0  0  0  0  0  0  0  0
  191.0110  174.2690  141.5500 C   0  0  0  0  0  3  0  0  0  0  0  0
  191.2940  172.9790  143.6620 C   0  0  0  0  0  2  0  0  0  0  0  0
  191.5320  173.1550  140.7400 C   0  0  0  0  0  0  0  0  0  0  0  0
  191.1820  170.6670  143.2000 O   0  0  0  0  0  0  0  0  0  0  0  0
  191.4720  171.7760  142.7840 C   0  0  0  0  0  0  0  0  0  0  0  0
  187.4910  177.8250  144.1780 C   0  0  0  0  0  2  0  0  0  0  0  0
  189.1290  175.8390  143.7030 C   0  0  0  0  0  0  0  0  0  0  0  0
  189.9000  177.9190  145.0670 C   0  0  0  0  0  2  0  0  0  0  0  0
  186.7900  175.7790  142.9280 C   0  0  0  0  0  2  0  0  0  0  0  0
  190.3800  175.3490  143.6750 C   0  0  0  0  0  3  0  0  0  0  0  0
  188.7730  177.0620  144.5280 C   0  0  1  0  0  0  0  0  0  0  0  0
  189.0730  177.0690  146.0260 C   0  0  1  0  0  3  0  0  0  0  0  0
  188.1230  175.2670  142.9200 O   0  0  0  0  0  0  0  0  0  0  0  0
  186.7790  177.3160  142.8930 C   0  0  2  0  0  0  0  0  0  0  0  0
  187.4770  177.7790  141.6180 C   0  0  0  0  0  0  0  0  0  0  0  0
  188.3620  178.6210  141.6540 O   0  0  0  0  0  0  0  0  0  0  0  0
  187.0720  177.2020  140.2990 C   0  0  0  0  0  2  0  0  0  0  0  0
  185.9700  177.8940  139.7950 O   0  0  0  0  0  1  0  0  0  0  0  0
  185.4180  177.7170  142.8920 O   0  0  0  0  0  0  0  0  0  0  0  0
  185.2820  179.0040  143.4490 C   0  0  0  0  0  2  0  0  0  0  0  0
  184.0670  179.0390  144.3510 C   0  0  0  0  0  1  0  0  0  0  0  0
  189.8230  175.9550  146.4230 O   0  0  0  0  0  0  0  0  0  0  0  0
  191.5560  175.3630  147.5610 C   0  0  0  0  0  1  0  0  0  0  0  0
  190.6750  176.4210  147.3140 O   0  0  0  0  0  0  0  0  0  0  0  0
  191.9980  172.3480  138.4640 C   0  0  0  0  0  0  0  0  0  0  0  0
  193.2250  172.1580  138.2360 O   0  0  0  0  0  0  0  0  0  0  0  0
  190.9660  171.4970  137.7790 C   0  0  1  0  0  3  0  0  0  0  0  0
  189.8040  171.1810  135.7730 N   0  0  0  0  0  2  0  0  0  0  0  0
  191.0220  171.6400  136.3130 N   0  0  0  0  0  0  0  0  0  0  0  0
  190.2140  173.3170  134.8070 C   0  0  1  0  0  3  0  0  0  0  0  0
  191.1040  173.0650  135.9920 C   0  0  0  0  0  2  0  0  0  0  0  0
  189.5300  171.9930  134.5970 C   0  0  0  0  0  2  0  0  0  0  0  0
  189.1860  174.3770  135.1720 C   0  0  0  0  0  2  0  0  0  0  0  0
  188.9830  174.3840  136.5520 O   0  0  0  0  0  1  0  0  0  0  0  0
  191.1420  170.0740  138.2240 C   0  0  0  0  0  0  0  0  0  0  0  0
  190.5120  169.6420  139.3800 O   0  0  0  0  0  1  0  0  0  0  0  0
  191.8940  169.2890  137.5890 O   0  0  0  0  0  0  0  0  0  0  0  0
  1  7  2  0  0  0  0
  2  3  1  1  0  0  0
  2  9  1  0  0  0  0
  4  6  1  0  0  0  0
  4 14  1  0  0  0  0
  5  4  2  0  0  0  0
  7  2  1  0  0  0  0
  7  5  1  0  0  0  0
  9  8  2  0  0  0  0
  9  6  1  0  0  0  0
 11 15  1  0  0  0  0
 12 16  1  0  0  0  0
 14 11  2  0  0  0  0
 15 10  1  6  0  0  0
 15 12  1  0  0  0  0
 15 16  1  0  0  0  0
 16 26  1  6  0  0  0
 17 13  1  0  0  0  0
 17 11  1  0  0  0  0
 18 19  1  6  0  0  0
 18 13  1  0  0  0  0
 18 10  1  0  0  0  0
 19 20  2  0  0  0  0
 21 19  1  0  0  0  0
 22 21  1  0  0  0  0
 23 18  1  0  0  0  0
 23 24  1  0  0  0  0
 24 25  1  0  0  0  0
 26 28  1  0  0  0  0
 28 27  1  0  0  0  0
 29  1  1  0  0  0  0
 30 29  2  0  0  0  0
 31 39  1  6  0  0  0
 31 29  1  0  0  0  0
 32 33  1  0  0  0  0
 33 31  1  0  0  0  0
 34 37  1  1  0  0  0
 34 35  1  0  0  0  0
 35 33  1  0  0  0  0
 36 34  1  0  0  0  0
 36 32  1  0  0  0  0
 37 38  1  0  0  0  0
 39 40  1  0  0  0  0
 41 39  2  0  0  0  0
M  END
>  <MODEL>
9

>  <REMARK>
 VINA RESULT:      -6.0      4.101      8.984
  Name = 
  12 active torsions:
  status: ('A' for Active; 'I' for Inactive)
    1  A    between atoms: C_2  and  C_9
    2  A    between atoms: C_2  and  C_13
    3  A    between atoms: C_2  and  N_27
    4  A    between atoms: C_7  and  C_31
    5  A    between atoms: O_8  and  C_34
    6  A    between atoms: O_8  and  C_39
    7  A    between atoms: O_10  and  O_18
    8  A    between atoms: O_10  and  C_30
    9  A    between atoms: N_11  and  C_13
   10  A    between atoms: C_15  and  C_16
   11  A    between atoms: C_16  and  C_39
   12  A    between atoms: C_17  and  C_21
                            x       y       z     vdW  Elec       q    Type
                         _______ _______ _______ _____ _____    ______ ____

>  <TORSDO>
F 12

$$$$
