=
 OpenBabel11062418163D

 49 56  0  0  1  0  0  0  0  0999 V2000
  196.0430  174.6650  142.0180 O   0  0  0  0  0  0  0  0  0  0  0  0
  195.7880  174.4080  140.6600 C   0  0  1  0  0  3  0  0  0  0  0  0
  196.8140  174.8570  138.4920 C   0  0  2  0  0  3  0  0  0  0  0  0
  197.0870  174.2680  139.8630 C   0  0  2  0  0  0  0  0  0  0  0  0
  196.9390  173.3560  138.6600 C   0  0  0  0  0  2  0  0  0  0  0  0
  197.7380  175.5770  139.4500 C   0  0  0  0  0  2  0  0  0  0  0  0
  194.9250  173.1440  140.4770 C   0  0  1  0  0  3  0  0  0  0  0  0
  194.9400  172.2690  141.7030 C   0  0  0  0  0  0  0  0  0  0  0  0
  195.8510  171.4090  141.8600 O   0  0  0  0  0  0  0  0  0  0  0  0
  193.6390  171.4110  143.6050 C   0  0  0  0  0  1  0  0  0  0  0  0
  193.9420  172.4310  142.6630 O   0  0  0  0  0  0  0  0  0  0  0  0
  193.1760  174.7780  140.3700 O   0  0  0  0  0  1  0  0  0  0  0  0
  193.5120  173.4790  139.9740 C   0  0  1  0  0  3  0  0  0  0  0  0
  189.7090  172.1280  139.6890 C   0  0  0  0  0  2  0  0  0  0  0  0
  192.0800  170.8060  139.5910 C   0  0  1  0  0  3  0  0  0  0  0  0
  193.5410  172.0000  137.9950 O   0  0  0  0  0  0  0  0  0  0  0  0
  192.3280  171.2790  138.1400 C   0  0  2  0  0  3  0  0  0  0  0  0
  190.2910  173.4440  139.1930 C   0  0  0  0  0  2  0  0  0  0  0  0
  190.8030  171.2590  140.2990 C   0  0  2  0  0  0  0  0  0  0  0  0
  192.2500  174.1110  137.7730 C   0  0  0  0  0  2  0  0  0  0  0  0
  190.8680  169.8880  139.6650 C   0  0  0  0  0  2  0  0  0  0  0  0
  193.4120  173.3440  138.4420 C   0  0  1  0  0  3  0  0  0  0  0  0
  190.9400  173.3310  137.8110 C   0  0  1  0  0  3  0  0  0  0  0  0
  191.1810  171.9010  137.3420 C   0  0  0  0  0  2  0  0  0  0  0  0
  190.8330  171.1740  141.6890 O   0  0  0  0  0  1  0  0  0  0  0  0
  195.8410  176.0370  142.1840 C   0  0  0  0  0  2  0  0  0  0  0  0
  196.0240  176.4160  143.6360 C   0  0  0  0  0  2  0  0  0  0  0  0
  195.4380  175.0510  144.6750 S   0  0  0  0  0  0  0  0  0  0  0  0
  194.0230  175.9850  145.2650 C   0  0  0  0  0  0  0  0  0  0  0  0
  194.1830  176.8220  146.2820 C   0  0  0  0  0  2  0  0  0  0  0  0
  192.6430  175.8240  144.6850 C   0  0  0  0  0  2  0  0  0  0  0  0
  190.8310  176.8550  143.1400 C   0  0  2  0  0  3  0  0  0  0  0  0
  192.2730  176.9070  143.6720 C   0  0  1  0  0  3  0  0  0  0  0  0
  191.2050  177.7890  144.2830 C   0  0  0  0  0  2  0  0  0  0  0  0
  189.8340  174.8860  145.8390 N   0  0  0  0  0  0  0  0  0  0  0  0
  186.4050  177.0450  146.6000 C   0  0  0  0  0  3  0  0  0  0  0  0
  190.0850  175.6720  143.5940 N   0  0  0  0  0  0  0  0  0  0  0  0
  187.5630  176.3280  146.3130 C   0  0  0  0  0  0  0  0  0  0  0  0
  189.2330  174.8330  147.0510 C   0  0  0  0  0  3  0  0  0  0  0  0
  187.4830  177.1510  144.0120 C   0  0  0  0  0  0  0  0  0  0  0  0
  189.3440  175.6470  144.8240 C   0  0  0  0  0  0  0  0  0  0  0  0
  187.9120  177.2060  142.5870 C   0  0  0  0  0  1  0  0  0  0  0  0
  188.1470  176.3870  145.0170 C   0  0  0  0  0  0  0  0  0  0  0  0
  185.7950  177.8230  145.6180 C   0  0  0  0  0  0  0  0  0  0  0  0
  188.1130  175.5560  147.2830 N   0  0  0  0  0  0  0  0  0  0  0  0
  186.3230  177.8640  144.3320 C   0  0  0  0  0  3  0  0  0  0  0  0
  184.5610  178.5870  145.9360 C   0  0  0  0  0  1  0  0  0  0  0  0
  190.2020  174.4340  142.8370 C   0  0  0  0  0  2  0  0  0  0  0  0
  188.9610  173.8000  142.7680 O   0  0  0  0  0  1  0  0  0  0  0  0
  1 26  1  0  0  0  0
  2  1  1  1  0  0  0
  3  5  1  6  0  0  0
  3  6  1  0  0  0  0
  3  4  1  0  0  0  0
  4  2  1  1  0  0  0
  5  4  1  0  0  0  0
  6  4  1  0  0  0  0
  7  2  1  0  0  0  0
  7  8  1  1  0  0  0
  8  9  2  0  0  0  0
  8 11  1  0  0  0  0
 11 10  1  0  0  0  0
 13 12  1  6  0  0  0
 13  7  1  0  0  0  0
 14 19  1  0  0  0  0
 15 21  1  6  0  0  0
 15 19  1  0  0  0  0
 16 17  1  0  0  0  0
 16 22  1  0  0  0  0
 17 24  1  1  0  0  0
 17 15  1  0  0  0  0
 18 14  1  0  0  0  0
 19 25  1  1  0  0  0
 20 23  1  0  0  0  0
 20 22  1  0  0  0  0
 21 19  1  0  0  0  0
 22 13  1  1  0  0  0
 23 24  1  1  0  0  0
 23 18  1  0  0  0  0
 26 27  1  0  0  0  0
 27 28  1  0  0  0  0
 28 29  1  0  0  0  0
 29 30  2  0  0  0  0
 31 29  1  0  0  0  0
 32 37  1  1  0  0  0
 32 33  1  0  0  0  0
 32 34  1  0  0  0  0
 33 34  1  0  0  0  0
 33 31  1  1  0  0  0
 35 39  1  0  0  0  0
 37 41  1  0  0  0  0
 38 36  1  0  0  0  0
 38 45  1  0  0  0  0
 39 45  2  0  0  0  0
 40 46  2  0  0  0  0
 40 43  1  0  0  0  0
 41 43  1  0  0  0  0
 41 35  2  0  0  0  0
 42 40  1  0  0  0  0
 43 38  2  0  0  0  0
 44 47  1  0  0  0  0
 44 36  2  0  0  0  0
 46 44  1  0  0  0  0
 48 37  1  0  0  0  0
 49 48  1  0  0  0  0
M  END
>  <MODEL>
1

>  <REMARK>
 VINA RESULT:      -6.3      0.000      0.000
  Name = 
  15 active torsions:
  status: ('A' for Active; 'I' for Inactive)
    1  A    between atoms: C_5  and  N_12
    2  A    between atoms: C_6  and  O_25
    3  A    between atoms: C_6  and  C_29
    4  A    between atoms: C_6  and  C_46
    5  A    between atoms: C_11  and  C_31
    6  A    between atoms: N_12  and  C_38
    7  A    between atoms: C_14  and  C_46
    8  A    between atoms: C_14  and  O_47
    9  A    between atoms: C_15  and  C_31
   10  A    between atoms: C_15  and  S_45
   11  A    between atoms: C_17  and  O_25
   12  A    between atoms: C_17  and  C_48
   13  A    between atoms: C_36  and  C_39
   14  A    between atoms: C_39  and  C_46
   15  A    between atoms: S_45  and  C_48
                            x       y       z     vdW  Elec       q    Type
                         _______ _______ _______ _____ _____    ______ ____

>  <TORSDO>
F 15

$$$$
=
 OpenBabel11062418163D

 49 56  0  0  1  0  0  0  0  0999 V2000
  192.7970  172.9450  142.3380 O   0  0  0  0  0  0  0  0  0  0  0  0
  192.9330  171.5640  142.1200 C   0  0  1  0  0  3  0  0  0  0  0  0
  193.9840  169.7310  143.3410 C   0  0  2  0  0  3  0  0  0  0  0  0
  192.8950  170.7830  143.4350 C   0  0  2  0  0  0  0  0  0  0  0  0
  192.5280  169.3250  143.2390 C   0  0  0  0  0  2  0  0  0  0  0  0
  194.1440  170.8960  144.2920 C   0  0  0  0  0  2  0  0  0  0  0  0
  191.8440  171.0330  141.1660 C   0  0  1  0  0  3  0  0  0  0  0  0
  190.7510  172.0440  140.9410 C   0  0  0  0  0  0  0  0  0  0  0  0
  190.9250  173.0000  140.1330 O   0  0  0  0  0  0  0  0  0  0  0  0
  189.5050  171.7780  143.0430 C   0  0  0  0  0  1  0  0  0  0  0  0
  189.5460  171.9040  141.6280 O   0  0  0  0  0  0  0  0  0  0  0  0
  193.8330  170.6040  139.9010 O   0  0  0  0  0  1  0  0  0  0  0  0
  192.4410  170.4670  139.8680 C   0  0  1  0  0  3  0  0  0  0  0  0
  192.1830  170.4100  135.8310 C   0  0  0  0  0  2  0  0  0  0  0  0
  190.2560  170.5930  137.7360 C   0  0  1  0  0  3  0  0  0  0  0  0
  190.6680  168.8120  139.3970 O   0  0  0  0  0  0  0  0  0  0  0  0
  190.3580  169.0800  138.0400 C   0  0  2  0  0  3  0  0  0  0  0  0
  193.1650  169.6740  136.7320 C   0  0  0  0  0  2  0  0  0  0  0  0
  191.1730  171.1880  136.6670 C   0  0  2  0  0  0  0  0  0  0  0  0
  192.9750  168.1720  138.7340 C   0  0  0  0  0  2  0  0  0  0  0  0
  189.7450  170.8310  136.3210 C   0  0  0  0  0  2  0  0  0  0  0  0
  192.0540  168.9890  139.6660 C   0  0  1  0  0  3  0  0  0  0  0  0
  192.6170  168.3470  137.2620 C   0  0  1  0  0  3  0  0  0  0  0  0
  191.1150  168.1660  137.0760 C   0  0  0  0  0  2  0  0  0  0  0  0
  191.3470  172.5680  136.7340 O   0  0  0  0  0  1  0  0  0  0  0  0
  194.0050  173.5110  141.9240 C   0  0  0  0  0  2  0  0  0  0  0  0
  193.8260  174.9910  141.6730 C   0  0  0  0  0  2  0  0  0  0  0  0
  194.9880  175.9060  142.7210 S   0  0  0  0  0  0  0  0  0  0  0  0
  193.7100  176.3650  143.8970 C   0  0  0  0  0  0  0  0  0  0  0  0
  194.0650  176.7420  145.1190 C   0  0  0  0  0  2  0  0  0  0  0  0
  192.2420  176.2940  143.5700 C   0  0  0  0  0  2  0  0  0  0  0  0
  190.1410  177.6610  142.9000 C   0  0  2  0  0  3  0  0  0  0  0  0
  191.6740  177.5990  143.0130 C   0  0  1  0  0  3  0  0  0  0  0  0
  190.8580  178.2680  144.0980 C   0  0  0  0  0  2  0  0  0  0  0  0
  189.6980  175.1000  145.2230 N   0  0  0  0  0  0  0  0  0  0  0  0
  186.5670  176.9380  147.1780 C   0  0  0  0  0  3  0  0  0  0  0  0
  189.4810  176.3870  143.2190 N   0  0  0  0  0  0  0  0  0  0  0  0
  187.6180  176.3360  146.4920 C   0  0  0  0  0  0  0  0  0  0  0  0
  189.3690  174.7550  146.4910 C   0  0  0  0  0  3  0  0  0  0  0  0
  187.0670  177.6630  144.5140 C   0  0  0  0  0  0  0  0  0  0  0  0
  189.0210  176.0610  144.5400 C   0  0  0  0  0  0  0  0  0  0  0  0
  187.1810  178.0550  143.0820 C   0  0  0  0  0  1  0  0  0  0  0  0
  187.9120  176.7060  145.1500 C   0  0  0  0  0  0  0  0  0  0  0  0
  185.7790  177.9040  146.5550 C   0  0  0  0  0  0  0  0  0  0  0  0
  188.3440  175.3760  147.1180 N   0  0  0  0  0  0  0  0  0  0  0  0
  186.0200  178.2530  145.2300 C   0  0  0  0  0  3  0  0  0  0  0  0
  184.6620  178.5430  147.2970 C   0  0  0  0  0  1  0  0  0  0  0  0
  189.4020  175.3590  142.1910 C   0  0  0  0  0  2  0  0  0  0  0  0
  188.0810  174.9320  142.0470 O   0  0  0  0  0  1  0  0  0  0  0  0
  2  1  1  1  0  0  0
  3  5  1  1  0  0  0
  3  4  1  0  0  0  0
  3  6  1  0  0  0  0
  4  2  1  6  0  0  0
  4  6  1  0  0  0  0
  5  4  1  0  0  0  0
  7  8  1  6  0  0  0
  7  2  1  0  0  0  0
  8 11  1  0  0  0  0
  9  8  2  0  0  0  0
 11 10  1  0  0  0  0
 13 12  1  1  0  0  0
 13  7  1  0  0  0  0
 14 19  1  0  0  0  0
 14 18  1  0  0  0  0
 15 21  1  6  0  0  0
 15 17  1  0  0  0  0
 16 22  1  0  0  0  0
 17 24  1  6  0  0  0
 17 16  1  0  0  0  0
 19 25  1  1  0  0  0
 19 15  1  0  0  0  0
 20 22  1  0  0  0  0
 21 19  1  0  0  0  0
 22 13  1  6  0  0  0
 23 18  1  1  0  0  0
 23 20  1  0  0  0  0
 24 23  1  0  0  0  0
 26  1  1  0  0  0  0
 27 26  1  0  0  0  0
 27 28  1  0  0  0  0
 28 29  1  0  0  0  0
 29 30  2  0  0  0  0
 31 29  1  0  0  0  0
 32 33  1  0  0  0  0
 32 37  1  1  0  0  0
 32 34  1  0  0  0  0
 33 31  1  1  0  0  0
 33 34  1  0  0  0  0
 35 39  1  0  0  0  0
 37 41  1  0  0  0  0
 38 45  1  0  0  0  0
 38 36  2  0  0  0  0
 39 45  2  0  0  0  0
 40 43  2  0  0  0  0
 40 46  1  0  0  0  0
 41 43  1  0  0  0  0
 41 35  2  0  0  0  0
 42 40  1  0  0  0  0
 43 38  1  0  0  0  0
 44 36  1  0  0  0  0
 44 47  1  0  0  0  0
 46 44  2  0  0  0  0
 48 37  1  0  0  0  0
 49 48  1  0  0  0  0
M  END
>  <MODEL>
2

>  <REMARK>
 VINA RESULT:      -6.2      2.049      3.685
  Name = 
  15 active torsions:
  status: ('A' for Active; 'I' for Inactive)
    1  A    between atoms: C_5  and  N_12
    2  A    between atoms: C_6  and  O_25
    3  A    between atoms: C_6  and  C_29
    4  A    between atoms: C_6  and  C_46
    5  A    between atoms: C_11  and  C_31
    6  A    between atoms: N_12  and  C_38
    7  A    between atoms: C_14  and  C_46
    8  A    between atoms: C_14  and  O_47
    9  A    between atoms: C_15  and  C_31
   10  A    between atoms: C_15  and  S_45
   11  A    between atoms: C_17  and  O_25
   12  A    between atoms: C_17  and  C_48
   13  A    between atoms: C_36  and  C_39
   14  A    between atoms: C_39  and  C_46
   15  A    between atoms: S_45  and  C_48
                            x       y       z     vdW  Elec       q    Type
                         _______ _______ _______ _____ _____    ______ ____

>  <TORSDO>
F 15

$$$$
=
 OpenBabel11062418163D

 49 56  0  0  1  0  0  0  0  0999 V2000
  193.2810  173.2380  139.9450 O   0  0  0  0  0  0  0  0  0  0  0  0
  194.6770  173.0880  139.8970 C   0  0  1  0  0  3  0  0  0  0  0  0
  196.2870  172.4780  138.1670 C   0  0  2  0  0  3  0  0  0  0  0  0
  195.2400  173.5110  138.5380 C   0  0  2  0  0  0  0  0  0  0  0  0
  196.7130  173.8670  138.6010 C   0  0  0  0  0  2  0  0  0  0  0  0
  194.9850  172.5390  137.4000 C   0  0  0  0  0  2  0  0  0  0  0  0
  195.3700  173.8850  141.0200 C   0  0  1  0  0  3  0  0  0  0  0  0
  194.6630  175.1830  141.3080 C   0  0  0  0  0  0  0  0  0  0  0  0
  193.6030  175.1920  141.9940 O   0  0  0  0  0  0  0  0  0  0  0  0
  196.4180  176.9050  141.3150 C   0  0  0  0  0  1  0  0  0  0  0  0
  195.2000  176.3710  140.8140 O   0  0  0  0  0  0  0  0  0  0  0  0
  195.8850  171.7090  141.8790 O   0  0  0  0  0  1  0  0  0  0  0  0
  195.6180  173.0250  142.2700 C   0  0  1  0  0  3  0  0  0  0  0  0
  194.5910  171.4910  145.8700 C   0  0  0  0  0  2  0  0  0  0  0  0
  194.2430  173.9760  144.8280 C   0  0  1  0  0  3  0  0  0  0  0  0
  196.4100  174.7100  143.8940 O   0  0  0  0  0  0  0  0  0  0  0  0
  195.7280  174.3310  145.0780 C   0  0  2  0  0  3  0  0  0  0  0  0
  195.8120  171.1790  145.0150 C   0  0  0  0  0  2  0  0  0  0  0  0
  193.7500  172.5820  145.2170 C   0  0  2  0  0  0  0  0  0  0  0  0
  197.6050  172.5320  143.8960 C   0  0  0  0  0  2  0  0  0  0  0  0
  193.5080  173.7530  146.1430 C   0  0  0  0  0  2  0  0  0  0  0  0
  196.7810  173.5790  143.1150 C   0  0  1  0  0  3  0  0  0  0  0  0
  196.9640  172.1640  145.2290 C   0  0  1  0  0  3  0  0  0  0  0  0
  196.5770  173.4340  145.9790 C   0  0  0  0  0  2  0  0  0  0  0  0
  192.5700  172.1760  144.5980 O   0  0  0  0  0  1  0  0  0  0  0  0
  192.7680  171.9440  140.0540 C   0  0  0  0  0  2  0  0  0  0  0  0
  191.3520  171.9010  139.5270 C   0  0  0  0  0  2  0  0  0  0  0  0
  190.2120  171.7340  140.9270 S   0  0  0  0  0  0  0  0  0  0  0  0
  189.6440  173.4310  140.7870 C   0  0  0  0  0  0  0  0  0  0  0  0
  188.6470  173.7100  139.9560 C   0  0  0  0  0  2  0  0  0  0  0  0
  190.2830  174.5670  141.5400 C   0  0  0  0  0  2  0  0  0  0  0  0
  190.2250  175.4060  143.9950 C   0  0  2  0  0  3  0  0  0  0  0  0
  190.5340  174.2600  143.0160 C   0  0  1  0  0  3  0  0  0  0  0  0
  189.2090  174.2990  143.7460 C   0  0  0  0  0  2  0  0  0  0  0  0
  188.1920  176.9980  141.6520 N   0  0  0  0  0  0  0  0  0  0  0  0
  185.1730  177.8470  144.3280 C   0  0  0  0  0  3  0  0  0  0  0  0
  189.8700  176.6650  143.3240 N   0  0  0  0  0  0  0  0  0  0  0  0
  186.2130  177.5580  143.4500 C   0  0  0  0  0  0  0  0  0  0  0  0
  186.9340  177.2570  141.2230 C   0  0  0  0  0  3  0  0  0  0  0  0
  187.7590  177.4450  145.3410 C   0  0  0  0  0  0  0  0  0  0  0  0
  188.5190  177.0020  142.9730 C   0  0  0  0  0  0  0  0  0  0  0  0
  189.1000  177.3440  145.9780 C   0  0  0  0  0  1  0  0  0  0  0  0
  187.5280  177.3200  143.9390 C   0  0  0  0  0  0  0  0  0  0  0  0
  185.4070  177.9210  145.7000 C   0  0  0  0  0  0  0  0  0  0  0  0
  185.9560  177.5250  142.1180 N   0  0  0  0  0  0  0  0  0  0  0  0
  186.6920  177.7350  146.1990 C   0  0  0  0  0  3  0  0  0  0  0  0
  184.2900  178.2280  146.6290 C   0  0  0  0  0  1  0  0  0  0  0  0
  190.9360  177.5520  142.8830 C   0  0  0  0  0  2  0  0  0  0  0  0
  191.1090  178.5840  143.8050 O   0  0  0  0  0  1  0  0  0  0  0  0
  1 26  1  0  0  0  0
  2  1  1  6  0  0  0
  2  7  1  0  0  0  0
  3  6  1  6  0  0  0
  3  4  1  0  0  0  0
  3  5  1  0  0  0  0
  4  5  1  0  0  0  0
  4  2  1  1  0  0  0
  6  4  1  0  0  0  0
  7  8  1  1  0  0  0
  7 13  1  0  0  0  0
  8  9  2  0  0  0  0
 11  8  1  0  0  0  0
 11 10  1  0  0  0  0
 13 12  1  6  0  0  0
 15 17  1  0  0  0  0
 15 19  1  0  0  0  0
 15 21  1  1  0  0  0
 16 17  1  0  0  0  0
 17 24  1  6  0  0  0
 18 23  1  0  0  0  0
 18 14  1  0  0  0  0
 19 25  1  6  0  0  0
 19 14  1  0  0  0  0
 19 21  1  0  0  0  0
 22 13  1  1  0  0  0
 22 16  1  0  0  0  0
 22 20  1  0  0  0  0
 23 20  1  6  0  0  0
 23 24  1  0  0  0  0
 27 26  1  0  0  0  0
 27 28  1  0  0  0  0
 29 28  1  0  0  0  0
 29 31  1  0  0  0  0
 30 29  2  0  0  0  0
 32 37  1  6  0  0  0
 33 31  1  6  0  0  0
 33 34  1  0  0  0  0
 33 32  1  0  0  0  0
 34 32  1  0  0  0  0
 35 41  1  0  0  0  0
 36 44  2  0  0  0  0
 38 43  1  0  0  0  0
 38 36  1  0  0  0  0
 39 35  2  0  0  0  0
 39 45  1  0  0  0  0
 40 42  1  0  0  0  0
 40 46  2  0  0  0  0
 41 37  1  0  0  0  0
 41 43  2  0  0  0  0
 43 40  1  0  0  0  0
 44 46  1  0  0  0  0
 44 47  1  0  0  0  0
 45 38  2  0  0  0  0
 48 37  1  0  0  0  0
 48 49  1  0  0  0  0
M  END
>  <MODEL>
3

>  <REMARK>
 VINA RESULT:      -6.1      2.284      5.315
  Name = 
  15 active torsions:
  status: ('A' for Active; 'I' for Inactive)
    1  A    between atoms: C_5  and  N_12
    2  A    between atoms: C_6  and  O_25
    3  A    between atoms: C_6  and  C_29
    4  A    between atoms: C_6  and  C_46
    5  A    between atoms: C_11  and  C_31
    6  A    between atoms: N_12  and  C_38
    7  A    between atoms: C_14  and  C_46
    8  A    between atoms: C_14  and  O_47
    9  A    between atoms: C_15  and  C_31
   10  A    between atoms: C_15  and  S_45
   11  A    between atoms: C_17  and  O_25
   12  A    between atoms: C_17  and  C_48
   13  A    between atoms: C_36  and  C_39
   14  A    between atoms: C_39  and  C_46
   15  A    between atoms: S_45  and  C_48
                            x       y       z     vdW  Elec       q    Type
                         _______ _______ _______ _____ _____    ______ ____

>  <TORSDO>
F 15

$$$$
=
 OpenBabel11062418163D

 49 56  0  0  1  0  0  0  0  0999 V2000
  193.3460  171.8290  138.9300 O   0  0  0  0  0  0  0  0  0  0  0  0
  193.5690  171.2140  140.1730 C   0  0  1  0  0  3  0  0  0  0  0  0
  193.3960  168.9370  141.0320 C   0  0  2  0  0  3  0  0  0  0  0  0
  194.1130  169.7940  140.0060 C   0  0  2  0  0  0  0  0  0  0  0  0
  194.8530  169.3020  141.2360 C   0  0  0  0  0  2  0  0  0  0  0  0
  193.0950  168.7590  139.5610 C   0  0  0  0  0  2  0  0  0  0  0  0
  194.5330  172.0420  141.0480 C   0  0  1  0  0  3  0  0  0  0  0  0
  195.3040  173.0500  140.2370 C   0  0  0  0  0  0  0  0  0  0  0  0
  194.8620  174.2240  140.0920 O   0  0  0  0  0  0  0  0  0  0  0  0
  197.7620  172.9910  140.2580 C   0  0  0  0  0  1  0  0  0  0  0  0
  196.5140  172.6700  139.6580 O   0  0  0  0  0  0  0  0  0  0  0  0
  192.4600  172.3510  142.2080 O   0  0  0  0  0  1  0  0  0  0  0  0
  193.8260  172.6440  142.2730 C   0  0  1  0  0  3  0  0  0  0  0  0
  193.3400  175.9280  144.5850 C   0  0  0  0  0  2  0  0  0  0  0  0
  195.5220  174.9800  143.2740 C   0  0  1  0  0  3  0  0  0  0  0  0
  195.7470  172.5820  143.8260 O   0  0  0  0  0  0  0  0  0  0  0  0
  195.7490  173.8970  144.3550 C   0  0  2  0  0  3  0  0  0  0  0  0
  192.6880  174.5600  144.7260 C   0  0  0  0  0  2  0  0  0  0  0  0
  194.3330  175.9280  143.4270 C   0  0  2  0  0  0  0  0  0  0  0  0
  193.5090  172.1900  144.8280 C   0  0  0  0  0  2  0  0  0  0  0  0
  195.7120  176.3760  143.8540 C   0  0  0  0  0  2  0  0  0  0  0  0
  194.4260  172.1110  143.5880 C   0  0  1  0  0  3  0  0  0  0  0  0
  193.5520  173.5590  145.4980 C   0  0  1  0  0  3  0  0  0  0  0  0
  195.0020  173.9910  145.6860 C   0  0  0  0  0  2  0  0  0  0  0  0
  193.9320  176.5710  142.2590 O   0  0  0  0  0  1  0  0  0  0  0  0
  191.9690  172.0460  138.8600 C   0  0  0  0  0  2  0  0  0  0  0  0
  191.6820  173.5230  138.7150 C   0  0  0  0  0  2  0  0  0  0  0  0
  190.1750  173.7320  137.7290 S   0  0  0  0  0  0  0  0  0  0  0  0
  189.1010  173.4710  139.1440 C   0  0  0  0  0  0  0  0  0  0  0  0
  188.2140  172.4840  139.1060 C   0  0  0  0  0  2  0  0  0  0  0  0
  189.1300  174.3570  140.3610 C   0  0  0  0  0  2  0  0  0  0  0  0
  188.9790  174.4510  142.9500 C   0  0  2  0  0  3  0  0  0  0  0  0
  189.0920  173.5880  141.6810 C   0  0  1  0  0  3  0  0  0  0  0  0
  187.7430  173.8140  142.3280 C   0  0  0  0  0  2  0  0  0  0  0  0
  187.6350  177.2080  141.2910 N   0  0  0  0  0  0  0  0  0  0  0  0
  184.9900  178.1730  144.3030 C   0  0  0  0  0  3  0  0  0  0  0  0
  189.0700  175.8940  142.6820 N   0  0  0  0  0  0  0  0  0  0  0  0
  185.9010  177.8300  143.3080 C   0  0  0  0  0  0  0  0  0  0  0  0
  186.5410  177.9650  141.0410 C   0  0  0  0  0  3  0  0  0  0  0  0
  187.2780  176.6950  144.9800 C   0  0  0  0  0  0  0  0  0  0  0  0
  187.9120  176.7290  142.5340 C   0  0  0  0  0  0  0  0  0  0  0  0
  188.4970  175.9940  145.4670 C   0  0  0  0  0  1  0  0  0  0  0  0
  187.0540  177.0570  143.6180 C   0  0  0  0  0  0  0  0  0  0  0  0
  185.2010  177.7720  145.6210 C   0  0  0  0  0  0  0  0  0  0  0  0
  185.6810  178.2630  142.0410 N   0  0  0  0  0  0  0  0  0  0  0  0
  186.3420  177.0510  145.9570 C   0  0  0  0  0  3  0  0  0  0  0  0
  184.2210  178.1400  146.6750 C   0  0  0  0  0  1  0  0  0  0  0  0
  190.3780  176.4820  142.4310 C   0  0  0  0  0  2  0  0  0  0  0  0
  190.4930  177.6940  143.1110 O   0  0  0  0  0  1  0  0  0  0  0  0
  2  1  1  6  0  0  0
  2  7  1  0  0  0  0
  3  6  1  6  0  0  0
  3  5  1  0  0  0  0
  4  2  1  6  0  0  0
  4  3  1  0  0  0  0
  4  5  1  0  0  0  0
  6  4  1  0  0  0  0
  7  8  1  6  0  0  0
  7 13  1  0  0  0  0
  9  8  2  0  0  0  0
 11  8  1  0  0  0  0
 11 10  1  0  0  0  0
 13 12  1  6  0  0  0
 14 18  1  0  0  0  0
 15 19  1  0  0  0  0
 15 21  1  1  0  0  0
 15 17  1  0  0  0  0
 16 17  1  0  0  0  0
 17 24  1  1  0  0  0
 19 25  1  6  0  0  0
 19 21  1  0  0  0  0
 19 14  1  0  0  0  0
 20 23  1  0  0  0  0
 22 13  1  6  0  0  0
 22 16  1  0  0  0  0
 22 20  1  0  0  0  0
 23 18  1  6  0  0  0
 23 24  1  0  0  0  0
 26  1  1  0  0  0  0
 27 26  1  0  0  0  0
 28 27  1  0  0  0  0
 28 29  1  0  0  0  0
 29 31  1  0  0  0  0
 30 29  2  0  0  0  0
 32 37  1  6  0  0  0
 33 31  1  6  0  0  0
 33 34  1  0  0  0  0
 33 32  1  0  0  0  0
 34 32  1  0  0  0  0
 35 41  1  0  0  0  0
 36 44  2  0  0  0  0
 38 43  1  0  0  0  0
 38 36  1  0  0  0  0
 39 35  2  0  0  0  0
 39 45  1  0  0  0  0
 40 42  1  0  0  0  0
 40 46  2  0  0  0  0
 41 37  1  0  0  0  0
 41 43  2  0  0  0  0
 43 40  1  0  0  0  0
 44 46  1  0  0  0  0
 44 47  1  0  0  0  0
 45 38  2  0  0  0  0
 48 37  1  0  0  0  0
 48 49  1  0  0  0  0
M  END
>  <MODEL>
4

>  <REMARK>
 VINA RESULT:      -6.1      2.315      5.666
  Name = 
  15 active torsions:
  status: ('A' for Active; 'I' for Inactive)
    1  A    between atoms: C_5  and  N_12
    2  A    between atoms: C_6  and  O_25
    3  A    between atoms: C_6  and  C_29
    4  A    between atoms: C_6  and  C_46
    5  A    between atoms: C_11  and  C_31
    6  A    between atoms: N_12  and  C_38
    7  A    between atoms: C_14  and  C_46
    8  A    between atoms: C_14  and  O_47
    9  A    between atoms: C_15  and  C_31
   10  A    between atoms: C_15  and  S_45
   11  A    between atoms: C_17  and  O_25
   12  A    between atoms: C_17  and  C_48
   13  A    between atoms: C_36  and  C_39
   14  A    between atoms: C_39  and  C_46
   15  A    between atoms: S_45  and  C_48
                            x       y       z     vdW  Elec       q    Type
                         _______ _______ _______ _____ _____    ______ ____

>  <TORSDO>
F 15

$$$$
=
 OpenBabel11062418163D

 49 56  0  0  1  0  0  0  0  0999 V2000
  195.8390  173.7860  139.2250 O   0  0  0  0  0  0  0  0  0  0  0  0
  195.2270  173.9430  137.9710 C   0  0  1  0  0  3  0  0  0  0  0  0
  195.8310  175.2630  136.0100 C   0  0  2  0  0  3  0  0  0  0  0  0
  196.2640  174.0800  136.8540 C   0  0  2  0  0  0  0  0  0  0  0  0
  195.6720  173.8540  135.4760 C   0  0  0  0  0  2  0  0  0  0  0  0
  197.0700  175.3660  136.8720 C   0  0  0  0  0  2  0  0  0  0  0  0
  194.2740  172.7710  137.6570 C   0  0  1  0  0  3  0  0  0  0  0  0
  194.5290  171.5850  138.5490 C   0  0  0  0  0  0  0  0  0  0  0  0
  195.4250  170.7460  138.2520 O   0  0  0  0  0  0  0  0  0  0  0  0
  194.2250  170.6480  140.8020 C   0  0  0  0  0  1  0  0  0  0  0  0
  193.7690  171.4330  139.7080 O   0  0  0  0  0  0  0  0  0  0  0  0
  192.7050  174.5210  138.1220 O   0  0  0  0  0  1  0  0  0  0  0  0
  192.8030  173.2170  137.6250 C   0  0  1  0  0  3  0  0  0  0  0  0
  188.9560  172.3620  138.5390 C   0  0  0  0  0  2  0  0  0  0  0  0
  190.9930  170.7570  137.7290 C   0  0  1  0  0  3  0  0  0  0  0  0
  192.0340  171.8070  135.7480 O   0  0  0  0  0  0  0  0  0  0  0  0
  190.8420  171.2400  136.2660 C   0  0  2  0  0  3  0  0  0  0  0  0
  189.5220  173.6090  137.8750 C   0  0  0  0  0  2  0  0  0  0  0  0
  190.0640  171.3440  138.7910 C   0  0  2  0  0  0  0  0  0  0  0  0
  191.0200  174.0680  135.9140 C   0  0  0  0  0  2  0  0  0  0  0  0
  189.7540  169.9960  138.1810 C   0  0  0  0  0  2  0  0  0  0  0  0
  192.2220  173.1420  136.2000 C   0  0  1  0  0  3  0  0  0  0  0  0
  189.6960  173.4580  136.3610 C   0  0  1  0  0  3  0  0  0  0  0  0
  189.5960  172.0230  135.8550 C   0  0  0  0  0  2  0  0  0  0  0  0
  190.5070  171.2140  140.1050 O   0  0  0  0  0  1  0  0  0  0  0  0
  195.3700  174.8450  140.0060 C   0  0  0  0  0  2  0  0  0  0  0  0
  195.1100  174.3720  141.4180 C   0  0  0  0  0  2  0  0  0  0  0  0
  193.3240  174.4150  141.7290 S   0  0  0  0  0  0  0  0  0  0  0  0
  193.4850  175.6530  143.0200 C   0  0  0  0  0  0  0  0  0  0  0  0
  194.6990  176.0310  143.4020 C   0  0  0  0  0  2  0  0  0  0  0  0
  192.2970  176.2500  143.7260 C   0  0  0  0  0  2  0  0  0  0  0  0
  190.1890  177.4730  142.8350 C   0  0  2  0  0  3  0  0  0  0  0  0
  191.7160  177.4750  143.0220 C   0  0  1  0  0  3  0  0  0  0  0  0
  190.8300  178.2150  144.0010 C   0  0  0  0  0  2  0  0  0  0  0  0
  189.6270  175.1810  145.4000 N   0  0  0  0  0  0  0  0  0  0  0  0
  186.2470  177.0670  146.8210 C   0  0  0  0  0  3  0  0  0  0  0  0
  189.5550  176.2120  143.2440 N   0  0  0  0  0  0  0  0  0  0  0  0
  187.3840  176.4450  146.3120 C   0  0  0  0  0  0  0  0  0  0  0  0
  189.1900  174.9690  146.6650 C   0  0  0  0  0  3  0  0  0  0  0  0
  186.9750  177.5020  144.1460 C   0  0  0  0  0  0  0  0  0  0  0  0
  188.9810  176.0190  144.5460 C   0  0  0  0  0  0  0  0  0  0  0  0
  187.2120  177.7300  142.6940 C   0  0  0  0  0  1  0  0  0  0  0  0
  187.7920  176.6720  144.9680 C   0  0  0  0  0  0  0  0  0  0  0  0
  185.4850  177.9120  146.0150 C   0  0  0  0  0  0  0  0  0  0  0  0
  188.0840  175.6050  147.1140 N   0  0  0  0  0  0  0  0  0  0  0  0
  185.8400  178.1160  144.6860 C   0  0  0  0  0  3  0  0  0  0  0  0
  184.2750  178.5730  146.5680 C   0  0  0  0  0  1  0  0  0  0  0  0
  189.6190  175.0680  142.3450 C   0  0  0  0  0  2  0  0  0  0  0  0
  188.6080  175.1590  141.3880 O   0  0  0  0  0  1  0  0  0  0  0  0
  1 26  1  0  0  0  0
  2  1  1  1  0  0  0
  3  5  1  6  0  0  0
  3  4  1  0  0  0  0
  3  6  1  0  0  0  0
  4  6  1  0  0  0  0
  4  2  1  1  0  0  0
  5  4  1  0  0  0  0
  7  2  1  0  0  0  0
  7  8  1  1  0  0  0
  8 11  1  0  0  0  0
  9  8  2  0  0  0  0
 11 10  1  0  0  0  0
 13  7  1  0  0  0  0
 13 12  1  6  0  0  0
 14 19  1  0  0  0  0
 15 21  1  6  0  0  0
 15 19  1  0  0  0  0
 16 22  1  0  0  0  0
 16 17  1  0  0  0  0
 17 24  1  1  0  0  0
 17 15  1  0  0  0  0
 18 14  1  0  0  0  0
 19 25  1  1  0  0  0
 20 22  1  0  0  0  0
 20 23  1  0  0  0  0
 21 19  1  0  0  0  0
 22 13  1  1  0  0  0
 23 24  1  1  0  0  0
 23 18  1  0  0  0  0
 26 27  1  0  0  0  0
 27 28  1  0  0  0  0
 28 29  1  0  0  0  0
 29 30  2  0  0  0  0
 29 31  1  0  0  0  0
 32 33  1  0  0  0  0
 32 37  1  1  0  0  0
 32 34  1  0  0  0  0
 33 31  1  1  0  0  0
 33 34  1  0  0  0  0
 35 39  1  0  0  0  0
 37 41  1  0  0  0  0
 38 36  1  0  0  0  0
 38 45  1  0  0  0  0
 39 45  2  0  0  0  0
 40 46  2  0  0  0  0
 40 43  1  0  0  0  0
 41 43  1  0  0  0  0
 41 35  2  0  0  0  0
 42 40  1  0  0  0  0
 43 38  2  0  0  0  0
 44 47  1  0  0  0  0
 44 36  2  0  0  0  0
 46 44  1  0  0  0  0
 48 37  1  0  0  0  0
 49 48  1  0  0  0  0
M  END
>  <MODEL>
5

>  <REMARK>
 VINA RESULT:      -6.0      1.706      2.134
  Name = 
  15 active torsions:
  status: ('A' for Active; 'I' for Inactive)
    1  A    between atoms: C_5  and  N_12
    2  A    between atoms: C_6  and  O_25
    3  A    between atoms: C_6  and  C_29
    4  A    between atoms: C_6  and  C_46
    5  A    between atoms: C_11  and  C_31
    6  A    between atoms: N_12  and  C_38
    7  A    between atoms: C_14  and  C_46
    8  A    between atoms: C_14  and  O_47
    9  A    between atoms: C_15  and  C_31
   10  A    between atoms: C_15  and  S_45
   11  A    between atoms: C_17  and  O_25
   12  A    between atoms: C_17  and  C_48
   13  A    between atoms: C_36  and  C_39
   14  A    between atoms: C_39  and  C_46
   15  A    between atoms: S_45  and  C_48
                            x       y       z     vdW  Elec       q    Type
                         _______ _______ _______ _____ _____    ______ ____

>  <TORSDO>
F 15

$$$$
=
 OpenBabel11062418163D

 49 56  0  0  1  0  0  0  0  0999 V2000
  193.9930  172.5480  144.9590 O   0  0  0  0  0  0  0  0  0  0  0  0
  195.2680  172.7750  144.4150 C   0  0  1  0  0  3  0  0  0  0  0  0
  197.5740  173.2360  145.0660 C   0  0  2  0  0  3  0  0  0  0  0  0
  196.3740  172.3650  145.3890 C   0  0  2  0  0  0  0  0  0  0  0  0
  197.5790  171.7690  144.6880 C   0  0  0  0  0  2  0  0  0  0  0  0
  196.8170  173.4470  146.3590 C   0  0  0  0  0  2  0  0  0  0  0  0
  195.4510  172.0330  143.0750 C   0  0  1  0  0  3  0  0  0  0  0  0
  194.4150  170.9570  142.8820 C   0  0  0  0  0  0  0  0  0  0  0  0
  194.5890  169.8090  143.3800 O   0  0  0  0  0  0  0  0  0  0  0  0
  192.4100  170.2240  141.6630 C   0  0  0  0  0  1  0  0  0  0  0  0
  193.2620  171.2500  142.1560 O   0  0  0  0  0  0  0  0  0  0  0  0
  195.6540  174.3140  142.3710 O   0  0  0  0  0  1  0  0  0  0  0  0
  195.5630  173.0040  141.8890 C   0  0  1  0  0  3  0  0  0  0  0  0
  194.5140  175.0480  138.5590 C   0  0  0  0  0  2  0  0  0  0  0  0
  194.3140  172.4080  139.1650 C   0  0  1  0  0  3  0  0  0  0  0  0
  196.5050  171.6690  140.0360 O   0  0  0  0  0  0  0  0  0  0  0  0
  195.8250  172.1950  138.9090 C   0  0  2  0  0  3  0  0  0  0  0  0
  195.6900  175.2910  139.4940 C   0  0  0  0  0  2  0  0  0  0  0  0
  193.7340  173.8130  138.9950 C   0  0  2  0  0  0  0  0  0  0  0  0
  197.5470  173.8880  140.4340 C   0  0  0  0  0  2  0  0  0  0  0  0
  193.5940  172.8000  137.8810 C   0  0  0  0  0  2  0  0  0  0  0  0
  196.7800  172.6740  141.0030 C   0  0  1  0  0  3  0  0  0  0  0  0
  196.9120  174.4320  139.1590 C   0  0  1  0  0  3  0  0  0  0  0  0
  196.6290  173.2830  138.1970 C   0  0  0  0  0  2  0  0  0  0  0  0
  192.5160  174.0330  139.6330 O   0  0  0  0  0  1  0  0  0  0  0  0
  193.3390  173.7800  144.9090 C   0  0  0  0  0  2  0  0  0  0  0  0
  193.1130  174.3040  146.3090 C   0  0  0  0  0  2  0  0  0  0  0  0
  193.2570  176.1120  146.2870 S   0  0  0  0  0  0  0  0  0  0  0  0
  191.5670  176.3460  146.8480 C   0  0  0  0  0  0  0  0  0  0  0  0
  191.1920  175.8110  148.0030 C   0  0  0  0  0  2  0  0  0  0  0  0
  190.5370  177.0870  146.0380 C   0  0  0  0  0  2  0  0  0  0  0  0
  190.0690  176.8460  143.4970 C   0  0  2  0  0  3  0  0  0  0  0  0
  190.9830  177.3900  144.6080 C   0  0  1  0  0  3  0  0  0  0  0  0
  189.9490  178.2900  143.9650 C   0  0  0  0  0  2  0  0  0  0  0  0
  187.3140  176.5680  145.6160 N   0  0  0  0  0  0  0  0  0  0  0  0
  184.6010  177.9780  142.8500 C   0  0  0  0  0  3  0  0  0  0  0  0
  188.9830  175.9930  144.0020 N   0  0  0  0  0  0  0  0  0  0  0  0
  185.5380  177.4940  143.7600 C   0  0  0  0  0  0  0  0  0  0  0  0
  186.1210  177.0750  146.0070 C   0  0  0  0  0  3  0  0  0  0  0  0
  186.9860  176.8450  141.9000 C   0  0  0  0  0  0  0  0  0  0  0  0
  187.6750  176.5020  144.3060 C   0  0  0  0  0  0  0  0  0  0  0  0
  188.1680  176.1840  141.2830 C   0  0  0  0  0  1  0  0  0  0  0  0
  186.7680  176.9420  143.3060 C   0  0  0  0  0  0  0  0  0  0  0  0
  184.8510  177.9170  141.4800 C   0  0  0  0  0  0  0  0  0  0  0  0
  185.2480  177.5410  145.0840 N   0  0  0  0  0  0  0  0  0  0  0  0
  186.0280  177.3430  141.0100 C   0  0  0  0  0  3  0  0  0  0  0  0
  183.8460  178.4380  140.5190 C   0  0  0  0  0  1  0  0  0  0  0  0
  189.2730  174.6040  144.3290 C   0  0  0  0  0  2  0  0  0  0  0  0
  190.1470  174.0660  143.3840 O   0  0  0  0  0  1  0  0  0  0  0  0
  2  1  1  1  0  0  0
  3  5  1  1  0  0  0
  3  4  1  0  0  0  0
  3  6  1  0  0  0  0
  4  2  1  6  0  0  0
  4  6  1  0  0  0  0
  5  4  1  0  0  0  0
  7  8  1  6  0  0  0
  7  2  1  0  0  0  0
  8  9  2  0  0  0  0
 10 11  1  0  0  0  0
 11  8  1  0  0  0  0
 13 12  1  1  0  0  0
 13  7  1  0  0  0  0
 14 19  1  0  0  0  0
 14 18  1  0  0  0  0
 15 21  1  6  0  0  0
 16 22  1  0  0  0  0
 17 24  1  1  0  0  0
 17 15  1  0  0  0  0
 17 16  1  0  0  0  0
 19 15  1  0  0  0  0
 19 25  1  1  0  0  0
 20 22  1  0  0  0  0
 21 19  1  0  0  0  0
 22 13  1  6  0  0  0
 23 24  1  6  0  0  0
 23 18  1  0  0  0  0
 23 20  1  0  0  0  0
 26  1  1  0  0  0  0
 26 27  1  0  0  0  0
 28 27  1  0  0  0  0
 28 29  1  0  0  0  0
 29 30  2  0  0  0  0
 31 29  1  0  0  0  0
 32 34  1  0  0  0  0
 32 37  1  1  0  0  0
 32 33  1  0  0  0  0
 33 31  1  1  0  0  0
 34 33  1  0  0  0  0
 35 39  1  0  0  0  0
 36 38  1  0  0  0  0
 37 41  1  0  0  0  0
 37 48  1  0  0  0  0
 38 45  1  0  0  0  0
 40 43  1  0  0  0  0
 41 35  2  0  0  0  0
 42 40  1  0  0  0  0
 43 38  2  0  0  0  0
 43 41  1  0  0  0  0
 44 36  2  0  0  0  0
 45 39  2  0  0  0  0
 46 44  1  0  0  0  0
 46 40  2  0  0  0  0
 47 44  1  0  0  0  0
 49 48  1  0  0  0  0
M  END
>  <MODEL>
6

>  <REMARK>
 VINA RESULT:      -5.8      2.130      3.953
  Name = 
  15 active torsions:
  status: ('A' for Active; 'I' for Inactive)
    1  A    between atoms: C_5  and  N_12
    2  A    between atoms: C_6  and  O_25
    3  A    between atoms: C_6  and  C_29
    4  A    between atoms: C_6  and  C_46
    5  A    between atoms: C_11  and  C_31
    6  A    between atoms: N_12  and  C_38
    7  A    between atoms: C_14  and  C_46
    8  A    between atoms: C_14  and  O_47
    9  A    between atoms: C_15  and  C_31
   10  A    between atoms: C_15  and  S_45
   11  A    between atoms: C_17  and  O_25
   12  A    between atoms: C_17  and  C_48
   13  A    between atoms: C_36  and  C_39
   14  A    between atoms: C_39  and  C_46
   15  A    between atoms: S_45  and  C_48
                            x       y       z     vdW  Elec       q    Type
                         _______ _______ _______ _____ _____    ______ ____

>  <TORSDO>
F 15

$$$$
=
 OpenBabel11062418163D

 49 56  0  0  1  0  0  0  0  0999 V2000
  193.8710  172.6330  139.9020 O   0  0  0  0  0  0  0  0  0  0  0  0
  194.9890  172.2530  140.6620 C   0  0  1  0  0  3  0  0  0  0  0  0
  195.7850  170.0200  141.2390 C   0  0  2  0  0  3  0  0  0  0  0  0
  195.6570  171.0010  140.0900 C   0  0  2  0  0  0  0  0  0  0  0  0
  197.0150  170.7280  140.7070 C   0  0  0  0  0  2  0  0  0  0  0  0
  194.8070  169.7430  140.1190 C   0  0  0  0  0  2  0  0  0  0  0  0
  196.0200  173.3960  140.7610 C   0  0  1  0  0  3  0  0  0  0  0  0
  195.6330  174.5780  139.9110 C   0  0  0  0  0  0  0  0  0  0  0  0
  194.6330  175.2850  140.2210 O   0  0  0  0  0  0  0  0  0  0  0  0
  195.8000  175.2990  137.5670 C   0  0  0  0  0  1  0  0  0  0  0  0
  196.3990  174.8830  138.7870 O   0  0  0  0  0  0  0  0  0  0  0  0
  197.5890  174.3880  142.2760 O   0  0  0  0  0  1  0  0  0  0  0  0
  196.3390  173.7600  142.2190 C   0  0  1  0  0  3  0  0  0  0  0  0
  196.8160  172.8350  146.1280 C   0  0  0  0  0  2  0  0  0  0  0  0
  194.9950  171.9770  144.3050 C   0  0  1  0  0  3  0  0  0  0  0  0
  194.0700  173.9690  143.1730 O   0  0  0  0  0  0  0  0  0  0  0  0
  194.2030  173.3010  144.4160 C   0  0  2  0  0  3  0  0  0  0  0  0
  197.0620  174.1640  145.4290 C   0  0  0  0  0  2  0  0  0  0  0  0
  196.2610  171.8100  145.1450 C   0  0  2  0  0  0  0  0  0  0  0  0
  195.7330  175.6590  143.9120 C   0  0  0  0  0  2  0  0  0  0  0  0
  194.9580  171.2080  145.6180 C   0  0  0  0  0  2  0  0  0  0  0  0
  195.2550  174.6730  142.8230 C   0  0  1  0  0  3  0  0  0  0  0  0
  195.7960  175.0150  145.2930 C   0  0  1  0  0  3  0  0  0  0  0  0
  194.4990  174.2630  145.5670 C   0  0  0  0  0  2  0  0  0  0  0  0
  197.1420  170.8260  144.7040 O   0  0  0  0  0  1  0  0  0  0  0  0
  192.7580  172.2790  140.6680 C   0  0  0  0  0  2  0  0  0  0  0  0
  191.5150  172.2820  139.8090 C   0  0  0  0  0  2  0  0  0  0  0  0
  190.0750  171.9630  140.8640 S   0  0  0  0  0  0  0  0  0  0  0  0
  189.7320  173.7120  141.0840 C   0  0  0  0  0  0  0  0  0  0  0  0
  188.7640  174.2730  140.3700 C   0  0  0  0  0  2  0  0  0  0  0  0
  190.5310  174.5850  142.0140 C   0  0  0  0  0  2  0  0  0  0  0  0
  190.5510  175.0710  144.5630 C   0  0  2  0  0  3  0  0  0  0  0  0
  190.6420  174.0310  143.4340 C   0  0  1  0  0  3  0  0  0  0  0  0
  189.3270  174.2670  144.1450 C   0  0  0  0  0  2  0  0  0  0  0  0
  189.0870  177.3660  142.3850 N   0  0  0  0  0  0  0  0  0  0  0  0
  186.0810  178.4510  144.9900 C   0  0  0  0  0  3  0  0  0  0  0  0
  190.5140  176.4570  144.0750 N   0  0  0  0  0  0  0  0  0  0  0  0
  187.1130  178.0740  144.1360 C   0  0  0  0  0  0  0  0  0  0  0  0
  187.9480  177.9420  141.9330 C   0  0  0  0  0  3  0  0  0  0  0  0
  188.4370  177.3760  146.0690 C   0  0  0  0  0  0  0  0  0  0  0  0
  189.2940  177.1170  143.7060 C   0  0  0  0  0  0  0  0  0  0  0  0
  189.6720  176.9060  146.7550 C   0  0  0  0  0  1  0  0  0  0  0  0
  188.3070  177.4990  144.6540 C   0  0  0  0  0  0  0  0  0  0  0  0
  186.2070  178.2820  146.3670 C   0  0  0  0  0  0  0  0  0  0  0  0
  186.9700  178.2820  142.8030 N   0  0  0  0  0  0  0  0  0  0  0  0
  187.3810  177.7610  146.9020 C   0  0  0  0  0  3  0  0  0  0  0  0
  185.0980  178.6850  147.2700 C   0  0  0  0  0  1  0  0  0  0  0  0
  191.7710  177.1520  143.8350 C   0  0  0  0  0  2  0  0  0  0  0  0
  192.5600  177.1190  144.9850 O   0  0  0  0  0  1  0  0  0  0  0  0
  1 26  1  0  0  0  0
  2  1  1  6  0  0  0
  2  7  1  0  0  0  0
  3  6  1  6  0  0  0
  4  6  1  0  0  0  0
  4  2  1  1  0  0  0
  4  5  1  0  0  0  0
  4  3  1  0  0  0  0
  5  3  1  0  0  0  0
  7  8  1  6  0  0  0
  7 13  1  0  0  0  0
  8  9  2  0  0  0  0
 10 11  1  0  0  0  0
 11  8  1  0  0  0  0
 13 12  1  6  0  0  0
 15 17  1  0  0  0  0
 15 19  1  0  0  0  0
 15 21  1  1  0  0  0
 16 17  1  0  0  0  0
 17 24  1  1  0  0  0
 18 14  1  0  0  0  0
 19 25  1  6  0  0  0
 19 21  1  0  0  0  0
 19 14  1  0  0  0  0
 22 13  1  1  0  0  0
 22 16  1  0  0  0  0
 22 20  1  0  0  0  0
 23 20  1  6  0  0  0
 23 18  1  0  0  0  0
 23 24  1  0  0  0  0
 27 26  1  0  0  0  0
 27 28  1  0  0  0  0
 28 29  1  0  0  0  0
 29 31  1  0  0  0  0
 30 29  2  0  0  0  0
 32 37  1  6  0  0  0
 33 31  1  6  0  0  0
 33 34  1  0  0  0  0
 33 32  1  0  0  0  0
 34 32  1  0  0  0  0
 35 41  1  0  0  0  0
 36 44  2  0  0  0  0
 38 43  1  0  0  0  0
 38 36  1  0  0  0  0
 39 35  2  0  0  0  0
 39 45  1  0  0  0  0
 40 42  1  0  0  0  0
 40 46  2  0  0  0  0
 41 37  1  0  0  0  0
 41 43  2  0  0  0  0
 43 40  1  0  0  0  0
 44 46  1  0  0  0  0
 44 47  1  0  0  0  0
 45 38  2  0  0  0  0
 48 37  1  0  0  0  0
 48 49  1  0  0  0  0
M  END
>  <MODEL>
7

>  <REMARK>
 VINA RESULT:      -5.7      2.338      5.387
  Name = 
  15 active torsions:
  status: ('A' for Active; 'I' for Inactive)
    1  A    between atoms: C_5  and  N_12
    2  A    between atoms: C_6  and  O_25
    3  A    between atoms: C_6  and  C_29
    4  A    between atoms: C_6  and  C_46
    5  A    between atoms: C_11  and  C_31
    6  A    between atoms: N_12  and  C_38
    7  A    between atoms: C_14  and  C_46
    8  A    between atoms: C_14  and  O_47
    9  A    between atoms: C_15  and  C_31
   10  A    between atoms: C_15  and  S_45
   11  A    between atoms: C_17  and  O_25
   12  A    between atoms: C_17  and  C_48
   13  A    between atoms: C_36  and  C_39
   14  A    between atoms: C_39  and  C_46
   15  A    between atoms: S_45  and  C_48
                            x       y       z     vdW  Elec       q    Type
                         _______ _______ _______ _____ _____    ______ ____

>  <TORSDO>
F 15

$$$$
=
 OpenBabel11062418163D

 49 56  0  0  1  0  0  0  0  0999 V2000
  193.3430  173.2990  140.0340 O   0  0  0  0  0  0  0  0  0  0  0  0
  192.7540  172.1450  140.5780 C   0  0  1  0  0  3  0  0  0  0  0  0
  190.3470  171.7450  140.5910 C   0  0  2  0  0  3  0  0  0  0  0  0
  191.5860  171.6540  139.7200 C   0  0  2  0  0  0  0  0  0  0  0  0
  190.9480  170.3920  140.2680 C   0  0  0  0  0  2  0  0  0  0  0  0
  190.5190  172.6930  139.4250 C   0  0  0  0  0  2  0  0  0  0  0  0
  193.7870  171.0120  140.7490 C   0  0  1  0  0  3  0  0  0  0  0  0
  194.9900  171.2080  139.8650 C   0  0  0  0  0  0  0  0  0  0  0  0
  194.9500  170.8650  138.6510 O   0  0  0  0  0  0  0  0  0  0  0  0
  196.7720  172.9010  139.7990 C   0  0  0  0  0  1  0  0  0  0  0  0
  196.1410  171.7810  140.4060 O   0  0  0  0  0  0  0  0  0  0  0  0
  193.0660  171.1800  143.0280 O   0  0  0  0  0  1  0  0  0  0  0  0
  194.1370  170.7700  142.2260 C   0  0  1  0  0  3  0  0  0  0  0  0
  195.8170  171.1290  145.8890 C   0  0  0  0  0  2  0  0  0  0  0  0
  196.9430  170.8770  143.4300 C   0  0  1  0  0  3  0  0  0  0  0  0
  195.8410  168.9820  142.2890 O   0  0  0  0  0  0  0  0  0  0  0  0
  196.6340  169.3610  143.4010 C   0  0  2  0  0  3  0  0  0  0  0  0
  194.5300  170.4170  145.4980 C   0  0  0  0  0  2  0  0  0  0  0  0
  196.5120  171.6870  144.6520 C   0  0  2  0  0  0  0  0  0  0  0  0
  193.8860  168.6920  143.7930 C   0  0  0  0  0  2  0  0  0  0  0  0
  197.9410  171.2080  144.5310 C   0  0  0  0  0  2  0  0  0  0  0  0
  194.4670  169.2880  142.4930 C   0  0  1  0  0  3  0  0  0  0  0  0
  194.7580  168.9850  145.0090 C   0  0  1  0  0  3  0  0  0  0  0  0
  196.2110  168.6530  144.6880 C   0  0  0  0  0  2  0  0  0  0  0  0
  196.4230  173.0630  144.4510 O   0  0  0  0  0  1  0  0  0  0  0  0
  193.0440  174.3290  140.9280 C   0  0  0  0  0  2  0  0  0  0  0  0
  194.0740  174.3700  142.0340 C   0  0  0  0  0  2  0  0  0  0  0  0
  194.6850  176.0690  142.2010 S   0  0  0  0  0  0  0  0  0  0  0  0
  193.8880  176.2970  143.7940 C   0  0  0  0  0  0  0  0  0  0  0  0
  194.6370  176.3310  144.8900 C   0  0  0  0  0  2  0  0  0  0  0  0
  192.3950  176.4040  143.9480 C   0  0  0  0  0  2  0  0  0  0  0  0
  190.2620  177.4760  142.9290 C   0  0  2  0  0  3  0  0  0  0  0  0
  191.7790  177.5660  143.1700 C   0  0  1  0  0  3  0  0  0  0  0  0
  190.8190  178.2990  144.0830 C   0  0  0  0  0  2  0  0  0  0  0  0
  189.8060  175.2200  145.5480 N   0  0  0  0  0  0  0  0  0  0  0  0
  186.3720  177.0120  146.9590 C   0  0  0  0  0  3  0  0  0  0  0  0
  189.6780  176.2010  143.3700 N   0  0  0  0  0  0  0  0  0  0  0  0
  187.5260  176.4210  146.4540 C   0  0  0  0  0  0  0  0  0  0  0  0
  189.3890  175.0200  146.8200 C   0  0  0  0  0  3  0  0  0  0  0  0
  187.0600  177.4150  144.2690 C   0  0  0  0  0  0  0  0  0  0  0  0
  189.1230  176.0150  144.6810 C   0  0  0  0  0  0  0  0  0  0  0  0
  187.2770  177.6200  142.8110 C   0  0  0  0  0  1  0  0  0  0  0  0
  187.9140  176.6330  145.1010 C   0  0  0  0  0  0  0  0  0  0  0  0
  185.5720  177.8110  146.1430 C   0  0  0  0  0  0  0  0  0  0  0  0
  188.2640  175.6240  147.2670 N   0  0  0  0  0  0  0  0  0  0  0  0
  185.9080  177.9990  144.8060 C   0  0  0  0  0  3  0  0  0  0  0  0
  184.3440  178.4390  146.6930 C   0  0  0  0  0  1  0  0  0  0  0  0
  189.7760  175.0420  142.4950 C   0  0  0  0  0  2  0  0  0  0  0  0
  188.5410  174.3970  142.4200 O   0  0  0  0  0  1  0  0  0  0  0  0
  1 26  1  0  0  0  0
  2  1  1  6  0  0  0
  2  7  1  0  0  0  0
  3  6  1  6  0  0  0
  4  5  1  0  0  0  0
  4  2  1  1  0  0  0
  4  3  1  0  0  0  0
  5  3  1  0  0  0  0
  6  4  1  0  0  0  0
  7  8  1  6  0  0  0
  7 13  1  0  0  0  0
  8 11  1  0  0  0  0
  9  8  2  0  0  0  0
 10 11  1  0  0  0  0
 13 12  1  1  0  0  0
 15 21  1  1  0  0  0
 15 19  1  0  0  0  0
 16 22  1  0  0  0  0
 16 17  1  0  0  0  0
 17 15  1  0  0  0  0
 17 24  1  1  0  0  0
 18 14  1  0  0  0  0
 19 25  1  6  0  0  0
 19 14  1  0  0  0  0
 21 19  1  0  0  0  0
 22 13  1  1  0  0  0
 22 20  1  0  0  0  0
 23 20  1  6  0  0  0
 23 18  1  0  0  0  0
 24 23  1  0  0  0  0
 26 27  1  0  0  0  0
 27 28  1  0  0  0  0
 28 29  1  0  0  0  0
 29 31  1  0  0  0  0
 29 30  2  0  0  0  0
 32 33  1  0  0  0  0
 32 37  1  1  0  0  0
 32 34  1  0  0  0  0
 33 31  1  1  0  0  0
 33 34  1  0  0  0  0
 35 39  1  0  0  0  0
 37 41  1  0  0  0  0
 38 36  1  0  0  0  0
 38 45  1  0  0  0  0
 39 45  2  0  0  0  0
 40 46  2  0  0  0  0
 40 43  1  0  0  0  0
 41 43  1  0  0  0  0
 41 35  2  0  0  0  0
 42 40  1  0  0  0  0
 43 38  2  0  0  0  0
 44 47  1  0  0  0  0
 44 36  2  0  0  0  0
 46 44  1  0  0  0  0
 48 37  1  0  0  0  0
 49 48  1  0  0  0  0
M  END
>  <MODEL>
8

>  <REMARK>
 VINA RESULT:      -5.7      1.869      4.683
  Name = 
  15 active torsions:
  status: ('A' for Active; 'I' for Inactive)
    1  A    between atoms: C_5  and  N_12
    2  A    between atoms: C_6  and  O_25
    3  A    between atoms: C_6  and  C_29
    4  A    between atoms: C_6  and  C_46
    5  A    between atoms: C_11  and  C_31
    6  A    between atoms: N_12  and  C_38
    7  A    between atoms: C_14  and  C_46
    8  A    between atoms: C_14  and  O_47
    9  A    between atoms: C_15  and  C_31
   10  A    between atoms: C_15  and  S_45
   11  A    between atoms: C_17  and  O_25
   12  A    between atoms: C_17  and  C_48
   13  A    between atoms: C_36  and  C_39
   14  A    between atoms: C_39  and  C_46
   15  A    between atoms: S_45  and  C_48
                            x       y       z     vdW  Elec       q    Type
                         _______ _______ _______ _____ _____    ______ ____

>  <TORSDO>
F 15

$$$$
=
 OpenBabel11062418163D

 49 56  0  0  1  0  0  0  0  0999 V2000
  192.0000  172.7280  141.6430 O   0  0  0  0  0  0  0  0  0  0  0  0
  191.9660  171.4620  141.0340 C   0  0  1  0  0  3  0  0  0  0  0  0
  192.3980  169.3640  142.2030 C   0  0  2  0  0  3  0  0  0  0  0  0
  191.3330  170.4150  141.9530 C   0  0  2  0  0  0  0  0  0  0  0  0
  191.2230  169.0520  141.2980 C   0  0  0  0  0  2  0  0  0  0  0  0
  191.9730  170.2860  143.3240 C   0  0  0  0  0  2  0  0  0  0  0  0
  191.2110  171.5010  139.6900 C   0  0  1  0  0  3  0  0  0  0  0  0
  190.5290  172.8260  139.4660 C   0  0  0  0  0  0  0  0  0  0  0  0
  191.1460  173.7720  138.9010 O   0  0  0  0  0  0  0  0  0  0  0  0
  188.1140  172.6940  139.0240 C   0  0  0  0  0  1  0  0  0  0  0  0
  189.2080  172.9860  139.8830 O   0  0  0  0  0  0  0  0  0  0  0  0
  193.4110  170.8850  138.9690 O   0  0  0  0  0  1  0  0  0  0  0  0
  192.0980  171.0560  138.5170 C   0  0  1  0  0  3  0  0  0  0  0  0
  193.1710  171.7380  134.6770 C   0  0  0  0  0  2  0  0  0  0  0  0
  190.7780  172.0100  135.9310 C   0  0  1  0  0  3  0  0  0  0  0  0
  190.3470  169.9260  137.1890 O   0  0  0  0  0  0  0  0  0  0  0  0
  190.5430  170.4810  135.8990 C   0  0  2  0  0  3  0  0  0  0  0  0
  193.6800  170.6670  135.6310 C   0  0  0  0  0  2  0  0  0  0  0  0
  192.0740  172.5630  135.3390 C   0  0  2  0  0  0  0  0  0  0  0  0
  192.6190  168.9250  137.0940 C   0  0  0  0  0  2  0  0  0  0  0  0
  190.8020  172.5870  134.5230 C   0  0  0  0  0  2  0  0  0  0  0  0
  191.5780  169.7520  137.8800 C   0  0  1  0  0  3  0  0  0  0  0  0
  192.7930  169.4190  135.6620 C   0  0  1  0  0  3  0  0  0  0  0  0
  191.4260  169.6010  135.0130 C   0  0  0  0  0  2  0  0  0  0  0  0
  192.4240  173.8410  135.7670 O   0  0  0  0  0  1  0  0  0  0  0  0
  193.3540  173.0400  141.7840 C   0  0  0  0  0  2  0  0  0  0  0  0
  193.5840  173.7710  143.0870 C   0  0  0  0  0  2  0  0  0  0  0  0
  194.3830  175.3600  142.7320 S   0  0  0  0  0  0  0  0  0  0  0  0
  193.6860  176.1420  144.1900 C   0  0  0  0  0  0  0  0  0  0  0  0
  194.4890  176.4600  145.1970 C   0  0  0  0  0  2  0  0  0  0  0  0
  192.2120  176.4120  144.3410 C   0  0  0  0  0  2  0  0  0  0  0  0
  190.2220  177.4930  143.0750 C   0  0  2  0  0  3  0  0  0  0  0  0
  191.7060  177.5630  143.4720 C   0  0  1  0  0  3  0  0  0  0  0  0
  190.6720  178.3380  144.2590 C   0  0  0  0  0  2  0  0  0  0  0  0
  189.5050  175.2870  145.6780 N   0  0  0  0  0  0  0  0  0  0  0  0
  186.0320  177.2000  146.8110 C   0  0  0  0  0  3  0  0  0  0  0  0
  189.5670  176.2420  143.4870 N   0  0  0  0  0  0  0  0  0  0  0  0
  187.2020  176.5680  146.3990 C   0  0  0  0  0  0  0  0  0  0  0  0
  188.9890  175.1170  146.9190 C   0  0  0  0  0  3  0  0  0  0  0  0
  186.9290  177.5460  144.1750 C   0  0  0  0  0  0  0  0  0  0  0  0
  188.9120  176.0910  144.7550 C   0  0  0  0  0  0  0  0  0  0  0  0
  187.2590  177.7250  142.7340 C   0  0  0  0  0  1  0  0  0  0  0  0
  187.6950  176.7510  145.0770 C   0  0  0  0  0  0  0  0  0  0  0  0
  185.3200  178.0110  145.9290 C   0  0  0  0  0  0  0  0  0  0  0  0
  187.8530  175.7610  147.2740 N   0  0  0  0  0  0  0  0  0  0  0  0
  185.7590  178.1710  144.6190 C   0  0  0  0  0  3  0  0  0  0  0  0
  184.0740  178.6830  146.3800 C   0  0  0  0  0  1  0  0  0  0  0  0
  189.6940  175.0690  142.6340 C   0  0  0  0  0  2  0  0  0  0  0  0
  188.4820  174.3790  142.5930 O   0  0  0  0  0  1  0  0  0  0  0  0
  1 26  1  0  0  0  0
  2  1  1  1  0  0  0
  3  5  1  1  0  0  0
  3  6  1  0  0  0  0
  4  2  1  6  0  0  0
  4  3  1  0  0  0  0
  4  6  1  0  0  0  0
  5  4  1  0  0  0  0
  7  8  1  6  0  0  0
  7  2  1  0  0  0  0
  8 11  1  0  0  0  0
  9  8  2  0  0  0  0
 10 11  1  0  0  0  0
 13 12  1  1  0  0  0
 13  7  1  0  0  0  0
 14 19  1  0  0  0  0
 14 18  1  0  0  0  0
 15 21  1  6  0  0  0
 16 22  1  0  0  0  0
 17 24  1  1  0  0  0
 17 15  1  0  0  0  0
 17 16  1  0  0  0  0
 18 23  1  0  0  0  0
 19 25  1  1  0  0  0
 19 15  1  0  0  0  0
 20 22  1  0  0  0  0
 21 19  1  0  0  0  0
 22 13  1  6  0  0  0
 23 24  1  1  0  0  0
 23 20  1  0  0  0  0
 26 27  1  0  0  0  0
 28 27  1  0  0  0  0
 28 29  1  0  0  0  0
 29 31  1  0  0  0  0
 29 30  2  0  0  0  0
 32 33  1  0  0  0  0
 32 37  1  1  0  0  0
 32 34  1  0  0  0  0
 33 34  1  0  0  0  0
 33 31  1  1  0  0  0
 35 39  1  0  0  0  0
 37 41  1  0  0  0  0
 38 36  1  0  0  0  0
 38 45  1  0  0  0  0
 39 45  2  0  0  0  0
 40 46  2  0  0  0  0
 40 43  1  0  0  0  0
 41 43  1  0  0  0  0
 41 35  2  0  0  0  0
 42 40  1  0  0  0  0
 43 38  2  0  0  0  0
 44 47  1  0  0  0  0
 44 36  2  0  0  0  0
 46 44  1  0  0  0  0
 48 37  1  0  0  0  0
 49 48  1  0  0  0  0
M  END
>  <MODEL>
9

>  <REMARK>
 VINA RESULT:      -5.7      2.173      4.097
  Name = 
  15 active torsions:
  status: ('A' for Active; 'I' for Inactive)
    1  A    between atoms: C_5  and  N_12
    2  A    between atoms: C_6  and  O_25
    3  A    between atoms: C_6  and  C_29
    4  A    between atoms: C_6  and  C_46
    5  A    between atoms: C_11  and  C_31
    6  A    between atoms: N_12  and  C_38
    7  A    between atoms: C_14  and  C_46
    8  A    between atoms: C_14  and  O_47
    9  A    between atoms: C_15  and  C_31
   10  A    between atoms: C_15  and  S_45
   11  A    between atoms: C_17  and  O_25
   12  A    between atoms: C_17  and  C_48
   13  A    between atoms: C_36  and  C_39
   14  A    between atoms: C_39  and  C_46
   15  A    between atoms: S_45  and  C_48
                            x       y       z     vdW  Elec       q    Type
                         _______ _______ _______ _____ _____    ______ ____

>  <TORSDO>
F 15

$$$$
