=
 OpenBabel11072409223D

 39 41  0  0  1  0  0  0  0  0999 V2000
  191.8770  174.1390  144.2510 N   0  0  0  0  0  0  0  0  0  0  0  0
  190.6000  173.4520  144.4970 C   0  0  1  0  0  3  0  0  0  0  0  0
  191.0010  174.5950  145.3460 C   0  0  2  0  0  3  0  0  0  0  0  0
  188.5290  175.5990  146.7270 C   0  0  0  0  0  2  0  0  0  0  0  0
  186.8410  178.6880  146.5580 F   0  0  0  0  0  0  0  0  0  0  0  0
  190.9170  176.6770  144.1600 O   0  0  0  0  0  0  0  0  0  0  0  0
  187.3250  176.4270  147.1330 C   0  0  0  0  0  2  0  0  0  0  0  0
  190.3590  175.9150  144.9960 C   0  0  0  0  0  0  0  0  0  0  0  0
  188.3790  177.4770  145.2120 C   0  0  0  0  0  2  0  0  0  0  0  0
  187.0840  177.4380  146.0120 C   0  0  2  0  0  0  0  0  0  0  0  0
  189.1390  176.3190  145.6290 N   0  0  0  0  0  0  0  0  0  0  0  0
  185.9080  176.9890  145.1200 C   0  0  2  0  0  3  0  0  0  0  0  0
  186.2720  177.0440  143.6400 C   0  0  0  0  0  2  0  0  0  0  0  0
  184.1840  178.7650  143.8180 S   0  0  0  0  0  0  0  0  0  0  0  0
  184.7080  177.8700  145.2680 C   0  0  0  0  0  0  0  0  0  0  0  0
  184.1070  177.9740  146.3250 O   0  0  0  0  0  0  0  0  0  0  0  0
  185.7970  178.3760  143.0750 C   0  0  2  0  0  3  0  0  0  0  0  0
  186.7170  178.0100  140.9130 O   0  0  0  0  0  0  0  0  0  0  0  0
  185.6990  178.3050  141.5900 C   0  0  0  0  0  0  0  0  0  0  0  0
  184.4830  178.5240  140.9500 O   0  0  0  0  0  1  0  0  0  0  0  0
  194.9800  173.1660  145.7940 O   0  0  0  0  0  0  0  0  0  0  0  0
  192.8730  173.3460  144.8360 N   0  0  0  0  0  2  0  0  0  0  0  0
  194.0990  173.9140  145.2950 C   0  0  0  0  0  0  0  0  0  0  0  0
  194.3560  175.3790  145.1860 C   0  0  0  0  0  2  0  0  0  0  0  0
  196.1480  176.0040  143.5330 C   0  0  0  0  0  0  0  0  0  0  0  0
  195.1710  176.1810  142.5050 N   0  0  0  0  0  2  0  0  0  0  0  0
  195.7500  175.6110  144.8450 N   0  0  0  0  0  2  0  0  0  0  0  0
  197.3690  176.1980  143.2870 O   0  0  0  0  0  0  0  0  0  0  0  0
  195.1020  175.5210  140.1770 C   0  0  0  0  0  1  0  0  0  0  0  0
  195.5330  176.5880  141.1590 C   0  0  0  0  0  2  0  0  0  0  0  0
  189.2050  172.8530  142.4720 C   0  0  0  0  0  0  0  0  0  0  0  0
  189.6600  173.8040  143.4390 N   0  0  0  0  0  2  0  0  0  0  0  0
  189.6240  171.6650  142.5030 O   0  0  0  0  0  0  0  0  0  0  0  0
  188.0320  174.7730  141.3800 C   0  0  0  0  0  1  0  0  0  0  0  0
  188.2560  173.2690  141.3920 C   0  0  1  0  0  3  0  0  0  0  0  0
  188.6640  172.7450  140.0120 C   0  0  0  0  0  2  0  0  0  0  0  0
  189.8950  173.4420  139.4440 C   0  0  0  0  0  2  0  0  0  0  0  0
  189.6950  173.7280  137.9690 C   0  0  0  0  0  2  0  0  0  0  0  0
  188.2720  174.1810  137.7280 C   0  0  0  0  0  1  0  0  0  0  0  0
  1  2  1  0  0  0  0
  1 22  1  0  0  0  0
  1  3  1  0  0  0  0
  2 32  1  6  0  0  0
  2  3  1  0  0  0  0
  3  8  1  6  0  0  0
  4  7  1  0  0  0  0
  6  8  2  0  0  0  0
  8 11  1  0  0  0  0
  9 11  1  0  0  0  0
  9 10  1  0  0  0  0
 10  5  1  1  0  0  0
 10  7  1  0  0  0  0
 11  4  1  0  0  0  0
 12 13  1  6  0  0  0
 12 15  1  0  0  0  0
 12 10  1  0  0  0  0
 14 15  1  0  0  0  0
 15 16  2  0  0  0  0
 17 19  1  6  0  0  0
 17 13  1  0  0  0  0
 17 14  1  0  0  0  0
 18 19  2  0  0  0  0
 20 19  1  0  0  0  0
 22 23  1  0  0  0  0
 23 21  2  0  0  0  0
 24 23  1  0  0  0  0
 25 27  1  0  0  0  0
 26 25  1  0  0  0  0
 27 24  1  0  0  0  0
 28 25  2  0  0  0  0
 29 30  1  0  0  0  0
 30 26  1  0  0  0  0
 31 33  2  0  0  0  0
 31 32  1  0  0  0  0
 35 34  1  6  0  0  0
 35 31  1  0  0  0  0
 36 35  1  0  0  0  0
 37 36  1  0  0  0  0
 38 37  1  0  0  0  0
 39 38  1  0  0  0  0
M  END
>  <MODEL>
1

>  <REMARK>
 VINA RESULT:      -7.0      0.000      0.000
  Name = 
  12 active torsions:
  status: ('A' for Active; 'I' for Inactive)
    1  A    between atoms: C_2  and  C_31
    2  A    between atoms: C_4  and  N_25
    3  A    between atoms: C_4  and  C_38
    4  A    between atoms: C_5  and  C_17
    5  A    between atoms: N_10  and  C_22
    6  A    between atoms: N_11  and  N_32
    7  A    between atoms: C_12  and  C_17
    8  A    between atoms: C_12  and  C_24
    9  A    between atoms: C_16  and  C_24
   10  A    between atoms: N_18  and  C_36
   11  A    between atoms: C_21  and  C_39
   12  A    between atoms: C_26  and  C_34
                            x       y       z     vdW  Elec       q    Type
                         _______ _______ _______ _____ _____    ______ ____

>  <TORSDO>
F 12

$$$$
=
 OpenBabel11072409223D

 39 41  0  0  1  0  0  0  0  0999 V2000
  191.8810  173.6280  144.2170 N   0  0  0  0  0  0  0  0  0  0  0  0
  190.5880  173.0460  144.6080 C   0  0  1  0  0  3  0  0  0  0  0  0
  191.1330  174.2040  145.3500 C   0  0  2  0  0  3  0  0  0  0  0  0
  188.7180  175.3520  146.7200 C   0  0  0  0  0  2  0  0  0  0  0  0
  187.1730  178.5100  146.4880 F   0  0  0  0  0  0  0  0  0  0  0  0
  191.1380  176.2610  144.1180 O   0  0  0  0  0  0  0  0  0  0  0  0
  187.5560  176.2430  147.1120 C   0  0  0  0  0  2  0  0  0  0  0  0
  190.5510  175.5440  144.9730 C   0  0  0  0  0  0  0  0  0  0  0  0
  188.6450  177.2000  145.1630 C   0  0  0  0  0  2  0  0  0  0  0  0
  187.3550  177.2390  145.9690 C   0  0  2  0  0  0  0  0  0  0  0  0
  189.3540  176.0180  145.6030 N   0  0  0  0  0  0  0  0  0  0  0  0
  186.1540  176.8230  145.0930 C   0  0  2  0  0  3  0  0  0  0  0  0
  186.4680  176.9640  143.6070 C   0  0  0  0  0  2  0  0  0  0  0  0
  184.3680  178.6470  143.9490 S   0  0  0  0  0  0  0  0  0  0  0  0
  184.9510  177.6800  145.3290 C   0  0  0  0  0  0  0  0  0  0  0  0
  184.3840  177.7190  146.4090 O   0  0  0  0  0  0  0  0  0  0  0  0
  185.9590  178.3180  143.1330 C   0  0  2  0  0  3  0  0  0  0  0  0
  186.8180  178.1210  140.9230 O   0  0  0  0  0  0  0  0  0  0  0  0
  185.8120  178.3280  141.6490 C   0  0  0  0  0  0  0  0  0  0  0  0
  184.5660  178.5230  141.0630 O   0  0  0  0  0  1  0  0  0  0  0  0
  194.9900  171.8630  144.6360 O   0  0  0  0  0  0  0  0  0  0  0  0
  192.8700  172.8020  144.7660 N   0  0  0  0  0  2  0  0  0  0  0  0
  194.1340  172.6310  144.1250 C   0  0  0  0  0  0  0  0  0  0  0  0
  194.4540  173.3450  142.8550 C   0  0  0  0  0  2  0  0  0  0  0  0
  195.8120  175.2570  143.7680 C   0  0  0  0  0  0  0  0  0  0  0  0
  194.6630  175.7880  144.4300 N   0  0  0  0  0  2  0  0  0  0  0  0
  195.7110  174.0620  142.9960 N   0  0  0  0  0  2  0  0  0  0  0  0
  196.9250  175.8400  143.8640 O   0  0  0  0  0  0  0  0  0  0  0  0
  194.0500  176.7540  146.5640 C   0  0  0  0  0  1  0  0  0  0  0  0
  194.7250  176.9970  145.2320 C   0  0  0  0  0  2  0  0  0  0  0  0
  189.2420  172.5360  142.5270 C   0  0  0  0  0  0  0  0  0  0  0  0
  189.5850  173.4030  143.6110 N   0  0  0  0  0  2  0  0  0  0  0  0
  189.8190  171.4240  142.3950 O   0  0  0  0  0  0  0  0  0  0  0  0
  187.8320  174.4190  141.6760 C   0  0  0  0  0  1  0  0  0  0  0  0
  188.2210  172.9570  141.5170 C   0  0  1  0  0  3  0  0  0  0  0  0
  188.6430  172.6370  140.0800 C   0  0  0  0  0  2  0  0  0  0  0  0
  188.8990  173.8790  139.2360 C   0  0  0  0  0  2  0  0  0  0  0  0
  188.3930  173.6610  137.8240 C   0  0  0  0  0  2  0  0  0  0  0  0
  189.2970  172.6810  137.1070 C   0  0  0  0  0  1  0  0  0  0  0  0
  1  2  1  0  0  0  0
  1 22  1  0  0  0  0
  1  3  1  0  0  0  0
  2 32  1  6  0  0  0
  2  3  1  0  0  0  0
  3  8  1  6  0  0  0
  4  7  1  0  0  0  0
  6  8  2  0  0  0  0
  8 11  1  0  0  0  0
  9 11  1  0  0  0  0
  9 10  1  0  0  0  0
 10  5  1  1  0  0  0
 10  7  1  0  0  0  0
 11  4  1  0  0  0  0
 12 13  1  6  0  0  0
 12 15  1  0  0  0  0
 12 10  1  0  0  0  0
 14 15  1  0  0  0  0
 15 16  2  0  0  0  0
 17 19  1  6  0  0  0
 17 13  1  0  0  0  0
 17 14  1  0  0  0  0
 18 19  2  0  0  0  0
 20 19  1  0  0  0  0
 23 21  2  0  0  0  0
 23 22  1  0  0  0  0
 24 27  1  0  0  0  0
 24 23  1  0  0  0  0
 25 28  2  0  0  0  0
 25 26  1  0  0  0  0
 26 30  1  0  0  0  0
 27 25  1  0  0  0  0
 30 29  1  0  0  0  0
 31 32  1  0  0  0  0
 33 31  2  0  0  0  0
 35 34  1  6  0  0  0
 35 31  1  0  0  0  0
 36 35  1  0  0  0  0
 37 36  1  0  0  0  0
 38 37  1  0  0  0  0
 39 38  1  0  0  0  0
M  END
>  <MODEL>
2

>  <REMARK>
 VINA RESULT:      -6.9      1.054      1.584
  Name = 
  12 active torsions:
  status: ('A' for Active; 'I' for Inactive)
    1  A    between atoms: C_2  and  C_31
    2  A    between atoms: C_4  and  N_25
    3  A    between atoms: C_4  and  C_38
    4  A    between atoms: C_5  and  C_17
    5  A    between atoms: N_10  and  C_22
    6  A    between atoms: N_11  and  N_32
    7  A    between atoms: C_12  and  C_17
    8  A    between atoms: C_12  and  C_24
    9  A    between atoms: C_16  and  C_24
   10  A    between atoms: N_18  and  C_36
   11  A    between atoms: C_21  and  C_39
   12  A    between atoms: C_26  and  C_34
                            x       y       z     vdW  Elec       q    Type
                         _______ _______ _______ _____ _____    ______ ____

>  <TORSDO>
F 12

$$$$
=
 OpenBabel11072409223D

 39 41  0  0  1  0  0  0  0  0999 V2000
  190.1250  173.0990  141.2210 N   0  0  0  0  0  0  0  0  0  0  0  0
  190.5330  174.5110  141.2430 C   0  0  1  0  0  3  0  0  0  0  0  0
  189.2040  174.1320  140.7140 C   0  0  2  0  0  3  0  0  0  0  0  0
  187.6880  176.7190  140.8970 C   0  0  0  0  0  2  0  0  0  0  0  0
  184.7630  177.6010  142.6530 F   0  0  0  0  0  0  0  0  0  0  0  0
  187.6380  173.3540  142.3530 O   0  0  0  0  0  0  0  0  0  0  0  0
  186.7200  177.8110  141.3100 C   0  0  0  0  0  2  0  0  0  0  0  0
  188.0510  174.3270  141.6670 C   0  0  0  0  0  0  0  0  0  0  0  0
  186.4200  175.9060  142.7890 C   0  0  0  0  0  2  0  0  0  0  0  0
  186.1320  177.3950  142.6590 C   0  0  2  0  0  0  0  0  0  0  0  0
  187.4050  175.6020  141.7730 N   0  0  0  0  0  0  0  0  0  0  0  0
  186.8020  178.1800  143.8070 C   0  0  2  0  0  3  0  0  0  0  0  0
  187.1950  177.2620  144.9600 C   0  0  0  0  0  2  0  0  0  0  0  0
  185.4560  178.9900  146.1210 S   0  0  0  0  0  0  0  0  0  0  0  0
  185.8930  179.2050  144.4060 C   0  0  0  0  0  0  0  0  0  0  0  0
  185.4680  180.1510  143.7620 O   0  0  0  0  0  0  0  0  0  0  0  0
  186.0810  177.2870  145.9980 C   0  0  2  0  0  3  0  0  0  0  0  0
  185.9920  177.1440  148.3700 O   0  0  0  0  0  1  0  0  0  0  0  0
  186.5870  176.8060  147.3150 C   0  0  0  0  0  0  0  0  0  0  0  0
  187.6850  175.9550  147.3830 O   0  0  0  0  0  0  0  0  0  0  0  0
  191.6820  170.6710  139.0680 O   0  0  0  0  0  0  0  0  0  0  0  0
  190.7430  172.5250  140.1030 N   0  0  0  0  0  2  0  0  0  0  0  0
  191.1080  171.1460  140.0820 C   0  0  0  0  0  0  0  0  0  0  0  0
  190.8270  170.2590  141.2490 C   0  0  0  0  0  2  0  0  0  0  0  0
  192.7600  170.2970  142.8610 C   0  0  0  0  0  0  0  0  0  0  0  0
  192.2370  171.4640  143.4980 N   0  0  0  0  0  2  0  0  0  0  0  0
  192.0720  169.7080  141.7590 N   0  0  0  0  0  2  0  0  0  0  0  0
  193.8340  169.7790  143.2700 O   0  0  0  0  0  0  0  0  0  0  0  0
  193.8320  173.1730  144.1250 C   0  0  0  0  0  1  0  0  0  0  0  0
  192.9020  172.0900  144.6270 C   0  0  0  0  0  2  0  0  0  0  0  0
  191.5070  175.8660  143.1460 C   0  0  0  0  0  0  0  0  0  0  0  0
  190.5040  174.9930  142.6200 N   0  0  0  0  0  2  0  0  0  0  0  0
  192.4680  176.2400  142.4210 O   0  0  0  0  0  0  0  0  0  0  0  0
  190.6080  177.5750  144.7350 C   0  0  0  0  0  1  0  0  0  0  0  0
  191.4450  176.3160  144.5720 C   0  0  1  0  0  3  0  0  0  0  0  0
  190.9890  175.2060  145.5220 C   0  0  0  0  0  2  0  0  0  0  0  0
  191.8800  175.0580  146.7500 C   0  0  0  0  0  2  0  0  0  0  0  0
  191.1220  175.4680  147.9960 C   0  0  0  0  0  2  0  0  0  0  0  0
  191.4300  176.9120  148.3260 C   0  0  0  0  0  1  0  0  0  0  0  0
  1  2  1  0  0  0  0
  2 32  1  1  0  0  0
  3  1  1  0  0  0  0
  3  2  1  0  0  0  0
  3  8  1  1  0  0  0
  4  7  1  0  0  0  0
  4 11  1  0  0  0  0
  7 10  1  0  0  0  0
  8 11  1  0  0  0  0
  8  6  2  0  0  0  0
 10  5  1  1  0  0  0
 10  9  1  0  0  0  0
 10 12  1  0  0  0  0
 11  9  1  0  0  0  0
 12 15  1  0  0  0  0
 12 13  1  1  0  0  0
 13 17  1  0  0  0  0
 15 14  1  0  0  0  0
 16 15  2  0  0  0  0
 17 14  1  0  0  0  0
 17 19  1  1  0  0  0
 19 20  2  0  0  0  0
 19 18  1  0  0  0  0
 21 23  2  0  0  0  0
 22  1  1  0  0  0  0
 23 22  1  0  0  0  0
 23 24  1  0  0  0  0
 24 27  1  0  0  0  0
 25 28  2  0  0  0  0
 25 26  1  0  0  0  0
 26 30  1  0  0  0  0
 27 25  1  0  0  0  0
 29 30  1  0  0  0  0
 31 35  1  0  0  0  0
 32 31  1  0  0  0  0
 33 31  2  0  0  0  0
 35 34  1  6  0  0  0
 35 36  1  0  0  0  0
 36 37  1  0  0  0  0
 37 38  1  0  0  0  0
 38 39  1  0  0  0  0
M  END
>  <MODEL>
3

>  <REMARK>
 VINA RESULT:      -6.8      2.840      5.769
  Name = 
  12 active torsions:
  status: ('A' for Active; 'I' for Inactive)
    1  A    between atoms: C_2  and  C_31
    2  A    between atoms: C_4  and  N_25
    3  A    between atoms: C_4  and  C_38
    4  A    between atoms: C_5  and  C_17
    5  A    between atoms: N_10  and  C_22
    6  A    between atoms: N_11  and  N_32
    7  A    between atoms: C_12  and  C_17
    8  A    between atoms: C_12  and  C_24
    9  A    between atoms: C_16  and  C_24
   10  A    between atoms: N_18  and  C_36
   11  A    between atoms: C_21  and  C_39
   12  A    between atoms: C_26  and  C_34
                            x       y       z     vdW  Elec       q    Type
                         _______ _______ _______ _____ _____    ______ ____

>  <TORSDO>
F 12

$$$$
=
 OpenBabel11072409223D

 39 41  0  0  1  0  0  0  0  0999 V2000
  188.2810  176.8130  146.8790 N   0  0  0  0  0  0  0  0  0  0  0  0
  188.8130  177.0890  145.5360 C   0  0  1  0  0  3  0  0  0  0  0  0
  189.7160  177.1020  146.7070 C   0  0  2  0  0  3  0  0  0  0  0  0
  192.4210  176.7370  145.4500 C   0  0  0  0  0  2  0  0  0  0  0  0
  194.8640  174.2280  145.8360 F   0  0  0  0  0  0  0  0  0  0  0  0
  190.1280  174.9550  147.6910 O   0  0  0  0  0  0  0  0  0  0  0  0
  193.7490  176.1600  145.0000 C   0  0  0  0  0  2  0  0  0  0  0  0
  190.5360  175.8510  146.9030 C   0  0  0  0  0  0  0  0  0  0  0  0
  192.5320  174.4490  146.2230 C   0  0  0  0  0  2  0  0  0  0  0  0
  193.6840  174.6530  145.2490 C   0  0  2  0  0  0  0  0  0  0  0  0
  191.7880  175.6900  146.2230 N   0  0  0  0  0  0  0  0  0  0  0  0
  193.4210  173.8960  143.9310 C   0  0  2  0  0  3  0  0  0  0  0  0
  192.6200  172.6200  144.1660 C   0  0  0  0  0  2  0  0  0  0  0  0
  194.9280  171.6980  143.0790 S   0  0  0  0  0  0  0  0  0  0  0  0
  194.6850  173.4550  143.2620 C   0  0  0  0  0  0  0  0  0  0  0  0
  195.5140  174.2520  142.8540 O   0  0  0  0  0  0  0  0  0  0  0  0
  193.5930  171.4550  144.2880 C   0  0  2  0  0  3  0  0  0  0  0  0
  192.0440  170.0730  143.1260 O   0  0  0  0  0  0  0  0  0  0  0  0
  192.8880  170.1620  144.0540 C   0  0  0  0  0  0  0  0  0  0  0  0
  193.1850  169.0440  144.8270 O   0  0  0  0  0  1  0  0  0  0  0  0
  185.7910  179.3360  147.5010 O   0  0  0  0  0  0  0  0  0  0  0  0
  187.6810  177.9980  147.3200 N   0  0  0  0  0  2  0  0  0  0  0  0
  186.2910  178.2490  147.1110 C   0  0  0  0  0  0  0  0  0  0  0  0
  185.4240  177.2450  146.4290 C   0  0  0  0  0  2  0  0  0  0  0  0
  184.5770  178.3860  144.3520 C   0  0  0  0  0  0  0  0  0  0  0  0
  185.8360  178.1910  143.7040 N   0  0  0  0  0  2  0  0  0  0  0  0
  184.3750  177.9240  145.6860 N   0  0  0  0  0  2  0  0  0  0  0  0
  183.6350  178.9650  143.7470 O   0  0  0  0  0  0  0  0  0  0  0  0
  186.5590  177.4730  141.5080 C   0  0  0  0  0  1  0  0  0  0  0  0
  186.0800  178.6390  142.3440 C   0  0  0  0  0  2  0  0  0  0  0  0
  189.3660  175.7810  143.4420 C   0  0  0  0  0  0  0  0  0  0  0  0
  188.8520  175.8460  144.7740 N   0  0  0  0  0  2  0  0  0  0  0  0
  189.7980  176.8210  142.8750 O   0  0  0  0  0  0  0  0  0  0  0  0
  188.0010  174.1760  142.0950 C   0  0  0  0  0  1  0  0  0  0  0  0
  189.3650  174.4850  142.6930 C   0  0  1  0  0  3  0  0  0  0  0  0
  190.4750  174.4090  141.6410 C   0  0  0  0  0  2  0  0  0  0  0  0
  190.4560  173.1140  140.8370 C   0  0  0  0  0  2  0  0  0  0  0  0
  191.8730  172.6500  140.5670 C   0  0  0  0  0  2  0  0  0  0  0  0
  192.7070  173.8180  140.0880 C   0  0  0  0  0  1  0  0  0  0  0  0
  1 22  1  0  0  0  0
  2 32  1  6  0  0  0
  2  3  1  0  0  0  0
  2  1  1  0  0  0  0
  3  1  1  0  0  0  0
  3  8  1  6  0  0  0
  4 11  1  0  0  0  0
  7 10  1  0  0  0  0
  7  4  1  0  0  0  0
  8  6  2  0  0  0  0
 10  5  1  1  0  0  0
 10  9  1  0  0  0  0
 11  9  1  0  0  0  0
 11  8  1  0  0  0  0
 12 13  1  1  0  0  0
 12 10  1  0  0  0  0
 13 17  1  0  0  0  0
 14 15  1  0  0  0  0
 14 17  1  0  0  0  0
 15 12  1  0  0  0  0
 16 15  2  0  0  0  0
 17 19  1  6  0  0  0
 18 19  2  0  0  0  0
 19 20  1  0  0  0  0
 23 22  1  0  0  0  0
 23 21  2  0  0  0  0
 24 23  1  0  0  0  0
 25 27  1  0  0  0  0
 26 25  1  0  0  0  0
 27 24  1  0  0  0  0
 28 25  2  0  0  0  0
 29 30  1  0  0  0  0
 30 26  1  0  0  0  0
 31 32  1  0  0  0  0
 33 31  2  0  0  0  0
 35 34  1  6  0  0  0
 35 31  1  0  0  0  0
 36 35  1  0  0  0  0
 37 36  1  0  0  0  0
 38 37  1  0  0  0  0
 39 38  1  0  0  0  0
M  END
>  <MODEL>
4

>  <REMARK>
 VINA RESULT:      -6.7      3.493      8.129
  Name = 
  12 active torsions:
  status: ('A' for Active; 'I' for Inactive)
    1  A    between atoms: C_2  and  C_31
    2  A    between atoms: C_4  and  N_25
    3  A    between atoms: C_4  and  C_38
    4  A    between atoms: C_5  and  C_17
    5  A    between atoms: N_10  and  C_22
    6  A    between atoms: N_11  and  N_32
    7  A    between atoms: C_12  and  C_17
    8  A    between atoms: C_12  and  C_24
    9  A    between atoms: C_16  and  C_24
   10  A    between atoms: N_18  and  C_36
   11  A    between atoms: C_21  and  C_39
   12  A    between atoms: C_26  and  C_34
                            x       y       z     vdW  Elec       q    Type
                         _______ _______ _______ _____ _____    ______ ____

>  <TORSDO>
F 12

$$$$
=
 OpenBabel11072409223D

 39 41  0  0  1  0  0  0  0  0999 V2000
  190.8130  173.0020  141.7520 N   0  0  0  0  0  0  0  0  0  0  0  0
  190.9480  174.4290  141.4230 C   0  0  1  0  0  3  0  0  0  0  0  0
  189.7280  173.6910  141.0300 C   0  0  2  0  0  3  0  0  0  0  0  0
  188.0220  176.1610  140.9180 C   0  0  0  0  0  2  0  0  0  0  0  0
  184.9880  176.9870  142.5090 F   0  0  0  0  0  0  0  0  0  0  0  0
  188.1740  172.9600  142.7020 O   0  0  0  0  0  0  0  0  0  0  0  0
  186.9640  177.2110  141.1980 C   0  0  0  0  0  2  0  0  0  0  0  0
  188.5350  173.8900  141.9320 C   0  0  0  0  0  0  0  0  0  0  0  0
  186.7600  175.4440  142.8520 C   0  0  0  0  0  2  0  0  0  0  0  0
  186.3680  176.8870  142.5670 C   0  0  2  0  0  0  0  0  0  0  0  0
  187.7950  175.1170  141.8940 N   0  0  0  0  0  0  0  0  0  0  0  0
  186.9440  177.8280  143.6460 C   0  0  2  0  0  3  0  0  0  0  0  0
  187.2170  177.0880  144.9510 C   0  0  0  0  0  2  0  0  0  0  0  0
  185.4070  178.9700  145.6860 S   0  0  0  0  0  0  0  0  0  0  0  0
  186.0000  178.9320  144.0050 C   0  0  0  0  0  0  0  0  0  0  0  0
  185.6490  179.7750  143.1940 O   0  0  0  0  0  0  0  0  0  0  0  0
  186.0140  177.2660  145.8680 C   0  0  2  0  0  3  0  0  0  0  0  0
  187.1830  176.0360  147.5350 O   0  0  0  0  0  0  0  0  0  0  0  0
  186.3920  176.9800  147.2810 C   0  0  0  0  0  0  0  0  0  0  0  0
  185.9080  177.7730  148.3170 O   0  0  0  0  0  1  0  0  0  0  0  0
  193.5780  171.3970  140.0990 O   0  0  0  0  0  0  0  0  0  0  0  0
  191.5550  172.3020  140.7930 N   0  0  0  0  0  2  0  0  0  0  0  0
  192.9380  172.0080  140.9930 C   0  0  0  0  0  0  0  0  0  0  0  0
  193.6380  172.4230  142.2430 C   0  0  0  0  0  2  0  0  0  0  0  0
  195.5280  173.9980  142.7760 C   0  0  0  0  0  0  0  0  0  0  0  0
  194.9020  174.3700  144.0050 N   0  0  0  0  0  2  0  0  0  0  0  0
  194.9090  173.0460  141.9120 N   0  0  0  0  0  2  0  0  0  0  0  0
  196.6330  174.5070  142.4470 O   0  0  0  0  0  0  0  0  0  0  0  0
  194.5840  175.5430  146.0990 C   0  0  0  0  0  1  0  0  0  0  0  0
  195.5030  175.3290  144.9160 C   0  0  0  0  0  2  0  0  0  0  0  0
  191.7560  176.1950  143.0460 C   0  0  0  0  0  0  0  0  0  0  0  0
  190.7960  175.2160  142.6420 N   0  0  0  0  0  2  0  0  0  0  0  0
  192.7870  176.3990  142.3510 O   0  0  0  0  0  0  0  0  0  0  0  0
  190.9140  178.3140  144.0730 C   0  0  0  0  0  1  0  0  0  0  0  0
  191.5650  176.9610  144.3170 C   0  0  1  0  0  3  0  0  0  0  0  0
  190.8180  176.1570  145.3850 C   0  0  0  0  0  2  0  0  0  0  0  0
  190.4280  176.9880  146.6020 C   0  0  0  0  0  2  0  0  0  0  0  0
  191.3610  176.6860  147.7580 C   0  0  0  0  0  2  0  0  0  0  0  0
  191.3180  175.2070  148.0720 C   0  0  0  0  0  1  0  0  0  0  0  0
  2  1  1  0  0  0  0
  2 32  1  1  0  0  0
  3  2  1  0  0  0  0
  3  1  1  0  0  0  0
  3  8  1  1  0  0  0
  4  7  1  0  0  0  0
  4 11  1  0  0  0  0
  7 10  1  0  0  0  0
  8  6  2  0  0  0  0
 10  5  1  6  0  0  0
 10  9  1  0  0  0  0
 10 12  1  0  0  0  0
 11  8  1  0  0  0  0
 11  9  1  0  0  0  0
 12 15  1  0  0  0  0
 12 13  1  1  0  0  0
 13 17  1  0  0  0  0
 14 17  1  0  0  0  0
 15 14  1  0  0  0  0
 16 15  2  0  0  0  0
 17 19  1  1  0  0  0
 19 18  2  0  0  0  0
 19 20  1  0  0  0  0
 21 23  2  0  0  0  0
 22 23  1  0  0  0  0
 22  1  1  0  0  0  0
 23 24  1  0  0  0  0
 25 26  1  0  0  0  0
 26 30  1  0  0  0  0
 27 24  1  0  0  0  0
 27 25  1  0  0  0  0
 28 25  2  0  0  0  0
 30 29  1  0  0  0  0
 31 35  1  0  0  0  0
 32 31  1  0  0  0  0
 33 31  2  0  0  0  0
 35 34  1  6  0  0  0
 35 36  1  0  0  0  0
 36 37  1  0  0  0  0
 37 38  1  0  0  0  0
 38 39  1  0  0  0  0
M  END
>  <MODEL>
5

>  <REMARK>
 VINA RESULT:      -6.7      2.431      5.127
  Name = 
  12 active torsions:
  status: ('A' for Active; 'I' for Inactive)
    1  A    between atoms: C_2  and  C_31
    2  A    between atoms: C_4  and  N_25
    3  A    between atoms: C_4  and  C_38
    4  A    between atoms: C_5  and  C_17
    5  A    between atoms: N_10  and  C_22
    6  A    between atoms: N_11  and  N_32
    7  A    between atoms: C_12  and  C_17
    8  A    between atoms: C_12  and  C_24
    9  A    between atoms: C_16  and  C_24
   10  A    between atoms: N_18  and  C_36
   11  A    between atoms: C_21  and  C_39
   12  A    between atoms: C_26  and  C_34
                            x       y       z     vdW  Elec       q    Type
                         _______ _______ _______ _____ _____    ______ ____

>  <TORSDO>
F 12

$$$$
=
 OpenBabel11072409223D

 39 41  0  0  1  0  0  0  0  0999 V2000
  188.8550  175.9690  142.2500 N   0  0  0  0  0  0  0  0  0  0  0  0
  188.8060  175.3450  143.5810 C   0  0  1  0  0  3  0  0  0  0  0  0
  189.2230  174.5500  142.4050 C   0  0  2  0  0  3  0  0  0  0  0  0
  190.6130  171.9770  143.0940 C   0  0  0  0  0  2  0  0  0  0  0  0
  193.9350  170.9060  142.6070 F   0  0  0  0  0  0  0  0  0  0  0  0
  191.3990  175.2860  141.7210 O   0  0  0  0  0  0  0  0  0  0  0  0
  191.6670  170.9140  143.3360 C   0  0  0  0  0  2  0  0  0  0  0  0
  190.7120  174.3680  142.2450 C   0  0  0  0  0  0  0  0  0  0  0  0
  192.7790  172.9780  142.7000 C   0  0  0  0  0  2  0  0  0  0  0  0
  193.0200  171.6260  143.3560 C   0  0  2  0  0  0  0  0  0  0  0  0
  191.3430  173.1490  142.6560 N   0  0  0  0  0  0  0  0  0  0  0  0
  193.5150  171.8070  144.8060 C   0  0  2  0  0  3  0  0  0  0  0  0
  194.4360  173.0160  144.9390 C   0  0  0  0  0  2  0  0  0  0  0  0
  196.0240  170.9540  145.7030 S   0  0  0  0  0  0  0  0  0  0  0  0
  194.3200  170.6400  145.2850 C   0  0  0  0  0  0  0  0  0  0  0  0
  193.8400  169.5220  145.3940 O   0  0  0  0  0  0  0  0  0  0  0  0
  195.8780  172.5390  144.8250 C   0  0  2  0  0  3  0  0  0  0  0  0
  197.2180  174.4980  144.6730 O   0  0  0  0  0  0  0  0  0  0  0  0
  196.8070  173.5550  145.3960 C   0  0  0  0  0  0  0  0  0  0  0  0
  197.1910  173.4910  146.7320 O   0  0  0  0  0  1  0  0  0  0  0  0
  185.5670  177.1660  141.4080 O   0  0  0  0  0  0  0  0  0  0  0  0
  187.5380  175.9950  141.7750 N   0  0  0  0  0  2  0  0  0  0  0  0
  186.7550  177.1870  141.8230 C   0  0  0  0  0  0  0  0  0  0  0  0
  187.3200  178.4560  142.3670 C   0  0  0  0  0  2  0  0  0  0  0  0
  186.0710  179.0170  144.4790 C   0  0  0  0  0  0  0  0  0  0  0  0
  186.8770  178.1030  145.2260 N   0  0  0  0  0  2  0  0  0  0  0  0
  186.2860  179.1900  143.0800 N   0  0  0  0  0  2  0  0  0  0  0  0
  185.1660  179.6800  145.0540 O   0  0  0  0  0  0  0  0  0  0  0  0
  185.6960  176.7930  146.8840 C   0  0  0  0  0  1  0  0  0  0  0  0
  186.6960  177.9050  146.6530 C   0  0  0  0  0  2  0  0  0  0  0  0
  190.0120  175.6110  145.7900 C   0  0  0  0  0  0  0  0  0  0  0  0
  189.9180  175.8430  144.3820 N   0  0  0  0  0  2  0  0  0  0  0  0
  189.1110  174.9660  146.3890 O   0  0  0  0  0  0  0  0  0  0  0  0
  191.1530  175.6800  148.0140 C   0  0  0  0  0  1  0  0  0  0  0  0
  191.1630  176.1620  146.5720 C   0  0  1  0  0  3  0  0  0  0  0  0
  192.5130  175.9020  145.8970 C   0  0  0  0  0  2  0  0  0  0  0  0
  193.6880  176.5270  146.6400 C   0  0  0  0  0  2  0  0  0  0  0  0
  194.7970  176.8680  145.6650 C   0  0  0  0  0  2  0  0  0  0  0  0
  194.3520  176.5430  144.2560 C   0  0  0  0  0  1  0  0  0  0  0  0
  1  3  1  0  0  0  0
  1  2  1  0  0  0  0
  2 32  1  1  0  0  0
  3  8  1  1  0  0  0
  3  2  1  0  0  0  0
  4  7  1  0  0  0  0
  6  8  2  0  0  0  0
  7 10  1  0  0  0  0
  8 11  1  0  0  0  0
  9 10  1  0  0  0  0
 10  5  1  6  0  0  0
 10 12  1  0  0  0  0
 11  9  1  0  0  0  0
 11  4  1  0  0  0  0
 12 13  1  6  0  0  0
 12 15  1  0  0  0  0
 15 16  2  0  0  0  0
 15 14  1  0  0  0  0
 17 13  1  0  0  0  0
 17 19  1  1  0  0  0
 17 14  1  0  0  0  0
 18 19  2  0  0  0  0
 19 20  1  0  0  0  0
 21 23  2  0  0  0  0
 22 23  1  0  0  0  0
 22  1  1  0  0  0  0
 23 24  1  0  0  0  0
 24 27  1  0  0  0  0
 25 28  2  0  0  0  0
 25 26  1  0  0  0  0
 26 30  1  0  0  0  0
 27 25  1  0  0  0  0
 30 29  1  0  0  0  0
 31 33  2  0  0  0  0
 31 35  1  0  0  0  0
 32 31  1  0  0  0  0
 35 34  1  1  0  0  0
 36 35  1  0  0  0  0
 36 37  1  0  0  0  0
 38 37  1  0  0  0  0
 39 38  1  0  0  0  0
M  END
>  <MODEL>
6

>  <REMARK>
 VINA RESULT:      -6.6      3.892      9.122
  Name = 
  12 active torsions:
  status: ('A' for Active; 'I' for Inactive)
    1  A    between atoms: C_2  and  C_31
    2  A    between atoms: C_4  and  N_25
    3  A    between atoms: C_4  and  C_38
    4  A    between atoms: C_5  and  C_17
    5  A    between atoms: N_10  and  C_22
    6  A    between atoms: N_11  and  N_32
    7  A    between atoms: C_12  and  C_17
    8  A    between atoms: C_12  and  C_24
    9  A    between atoms: C_16  and  C_24
   10  A    between atoms: N_18  and  C_36
   11  A    between atoms: C_21  and  C_39
   12  A    between atoms: C_26  and  C_34
                            x       y       z     vdW  Elec       q    Type
                         _______ _______ _______ _____ _____    ______ ____

>  <TORSDO>
F 12

$$$$
=
 OpenBabel11072409223D

 39 41  0  0  1  0  0  0  0  0999 V2000
  192.4030  173.6490  142.3800 N   0  0  0  0  0  0  0  0  0  0  0  0
  192.4650  175.1180  142.3590 C   0  0  1  0  0  3  0  0  0  0  0  0
  191.2850  174.4190  141.8050 C   0  0  2  0  0  3  0  0  0  0  0  0
  188.8790  176.1720  141.3980 C   0  0  0  0  0  2  0  0  0  0  0  0
  185.7260  176.2240  142.9690 F   0  0  0  0  0  0  0  0  0  0  0  0
  190.0290  173.4960  143.6260 O   0  0  0  0  0  0  0  0  0  0  0  0
  187.5390  176.8620  141.5620 C   0  0  0  0  0  2  0  0  0  0  0  0
  190.0820  174.3640  142.7140 C   0  0  0  0  0  0  0  0  0  0  0  0
  187.8950  175.3940  143.4650 C   0  0  0  0  0  2  0  0  0  0  0  0
  187.0650  176.5770  142.9870 C   0  0  2  0  0  0  0  0  0  0  0  0
  188.9890  175.2710  142.5260 N   0  0  0  0  0  0  0  0  0  0  0  0
  187.2990  177.8050  143.8910 C   0  0  2  0  0  3  0  0  0  0  0  0
  187.4940  177.4010  145.3490 C   0  0  0  0  0  2  0  0  0  0  0  0
  185.2960  178.9880  145.4450 S   0  0  0  0  0  0  0  0  0  0  0  0
  186.1350  178.7460  143.8910 C   0  0  0  0  0  0  0  0  0  0  0  0
  185.7720  179.3280  142.8820 O   0  0  0  0  0  0  0  0  0  0  0  0
  186.1530  177.5080  146.0630 C   0  0  2  0  0  3  0  0  0  0  0  0
  186.0330  176.6030  148.2590 O   0  0  0  0  0  1  0  0  0  0  0  0
  186.3540  177.5830  147.5380 C   0  0  0  0  0  0  0  0  0  0  0  0
  186.9300  178.7090  148.1180 O   0  0  0  0  0  0  0  0  0  0  0  0
  193.6410  171.5880  139.7010 O   0  0  0  0  0  0  0  0  0  0  0  0
  193.1820  173.2040  141.3040 N   0  0  0  0  0  2  0  0  0  0  0  0
  192.9060  171.9660  140.6500 C   0  0  0  0  0  0  0  0  0  0  0  0
  191.7630  171.1090  141.0790 C   0  0  0  0  0  2  0  0  0  0  0  0
  190.0020  170.9900  139.2850 C   0  0  0  0  0  0  0  0  0  0  0  0
  189.3810  172.1770  139.7830 N   0  0  0  0  0  2  0  0  0  0  0  0
  191.1670  170.4660  139.9190 N   0  0  0  0  0  2  0  0  0  0  0  0
  189.5250  170.4000  138.2790 O   0  0  0  0  0  0  0  0  0  0  0  0
  188.5900  173.9730  138.3650 C   0  0  0  0  0  1  0  0  0  0  0  0
  188.1990  172.7470  139.1620 C   0  0  0  0  0  2  0  0  0  0  0  0
  193.2840  175.5290  144.7180 C   0  0  0  0  0  0  0  0  0  0  0  0
  192.2710  175.6220  143.7130 N   0  0  0  0  0  2  0  0  0  0  0  0
  194.3910  174.9870  144.4550 O   0  0  0  0  0  0  0  0  0  0  0  0
  194.1960  176.8610  146.6270 C   0  0  0  0  0  1  0  0  0  0  0  0
  193.0280  176.0420  146.1000 C   0  0  1  0  0  3  0  0  0  0  0  0
  191.7050  176.8040  146.2120 C   0  0  0  0  0  2  0  0  0  0  0  0
  190.7430  176.1980  147.2270 C   0  0  0  0  0  2  0  0  0  0  0  0
  190.1270  174.9310  146.6670 C   0  0  0  0  0  2  0  0  0  0  0  0
  188.9300  174.5370  147.5040 C   0  0  0  0  0  1  0  0  0  0  0  0
  2  1  1  0  0  0  0
  2 32  1  1  0  0  0
  3  2  1  0  0  0  0
  3  1  1  0  0  0  0
  3  8  1  1  0  0  0
  4  7  1  0  0  0  0
  4 11  1  0  0  0  0
  7 10  1  0  0  0  0
  8  6  2  0  0  0  0
 10  5  1  6  0  0  0
 10  9  1  0  0  0  0
 10 12  1  0  0  0  0
 11  8  1  0  0  0  0
 11  9  1  0  0  0  0
 12 13  1  1  0  0  0
 13 17  1  0  0  0  0
 14 17  1  0  0  0  0
 15 12  1  0  0  0  0
 15 14  1  0  0  0  0
 16 15  2  0  0  0  0
 17 19  1  1  0  0  0
 19 20  2  0  0  0  0
 19 18  1  0  0  0  0
 21 23  2  0  0  0  0
 22  1  1  0  0  0  0
 23 24  1  0  0  0  0
 23 22  1  0  0  0  0
 25 26  1  0  0  0  0
 25 27  1  0  0  0  0
 27 24  1  0  0  0  0
 28 25  2  0  0  0  0
 29 30  1  0  0  0  0
 30 26  1  0  0  0  0
 31 35  1  0  0  0  0
 32 31  1  0  0  0  0
 33 31  2  0  0  0  0
 35 36  1  0  0  0  0
 35 34  1  6  0  0  0
 36 37  1  0  0  0  0
 38 37  1  0  0  0  0
 38 39  1  0  0  0  0
M  END
>  <MODEL>
7

>  <REMARK>
 VINA RESULT:      -6.6      2.596      6.050
  Name = 
  12 active torsions:
  status: ('A' for Active; 'I' for Inactive)
    1  A    between atoms: C_2  and  C_31
    2  A    between atoms: C_4  and  N_25
    3  A    between atoms: C_4  and  C_38
    4  A    between atoms: C_5  and  C_17
    5  A    between atoms: N_10  and  C_22
    6  A    between atoms: N_11  and  N_32
    7  A    between atoms: C_12  and  C_17
    8  A    between atoms: C_12  and  C_24
    9  A    between atoms: C_16  and  C_24
   10  A    between atoms: N_18  and  C_36
   11  A    between atoms: C_21  and  C_39
   12  A    between atoms: C_26  and  C_34
                            x       y       z     vdW  Elec       q    Type
                         _______ _______ _______ _____ _____    ______ ____

>  <TORSDO>
F 12

$$$$
=
 OpenBabel11072409223D

 39 41  0  0  1  0  0  0  0  0999 V2000
  186.6180  176.5630  141.4330 N   0  0  0  0  0  0  0  0  0  0  0  0
  187.9110  176.3560  140.7640 C   0  0  1  0  0  3  0  0  0  0  0  0
  187.8070  177.3000  141.8980 C   0  0  2  0  0  3  0  0  0  0  0  0
  190.6290  177.6460  142.8700 C   0  0  0  0  0  2  0  0  0  0  0  0
  192.1460  176.9190  145.9660 F   0  0  0  0  0  0  0  0  0  0  0  0
  187.4450  176.2280  144.0120 O   0  0  0  0  0  0  0  0  0  0  0  0
  191.9030  177.5770  143.6890 C   0  0  0  0  0  2  0  0  0  0  0  0
  188.2750  176.7640  143.2280 C   0  0  0  0  0  0  0  0  0  0  0  0
  190.1990  176.2390  144.7890 C   0  0  0  0  0  2  0  0  0  0  0  0
  191.7020  176.4770  144.7310 C   0  0  2  0  0  0  0  0  0  0  0  0
  189.6490  176.8870  143.6180 N   0  0  0  0  0  0  0  0  0  0  0  0
  192.4390  175.1890  144.3080 C   0  0  2  0  0  3  0  0  0  0  0  0
  193.6560  174.9230  145.1880 C   0  0  0  0  0  2  0  0  0  0  0  0
  194.7360  175.1720  142.7130 S   0  0  0  0  0  0  0  0  0  0  0  0
  192.9670  175.2650  142.9110 C   0  0  0  0  0  0  0  0  0  0  0  0
  192.2300  175.3790  141.9440 O   0  0  0  0  0  0  0  0  0  0  0  0
  194.8860  175.4940  144.4960 C   0  0  2  0  0  3  0  0  0  0  0  0
  196.0900  174.3030  146.1660 O   0  0  0  0  0  1  0  0  0  0  0  0
  196.1260  174.8790  145.0490 C   0  0  0  0  0  0  0  0  0  0  0  0
  197.3120  174.9030  144.3220 O   0  0  0  0  0  0  0  0  0  0  0  0
  184.1310  178.9390  140.3730 O   0  0  0  0  0  0  0  0  0  0  0  0
  185.8890  177.4440  140.6240 N   0  0  0  0  0  2  0  0  0  0  0  0
  184.7750  178.1740  141.1370 C   0  0  0  0  0  0  0  0  0  0  0  0
  184.3590  178.0380  142.5630 C   0  0  0  0  0  2  0  0  0  0  0  0
  185.1780  178.9340  144.7670 C   0  0  0  0  0  0  0  0  0  0  0  0
  184.7420  177.7490  145.4370 N   0  0  0  0  0  2  0  0  0  0  0  0
  184.9890  179.0770  143.3610 N   0  0  0  0  0  2  0  0  0  0  0  0
  185.7340  179.8610  145.4150 O   0  0  0  0  0  0  0  0  0  0  0  0
  186.2460  176.8740  147.1210 C   0  0  0  0  0  1  0  0  0  0  0  0
  184.9220  177.5620  146.8660 C   0  0  0  0  0  2  0  0  0  0  0  0
  188.5530  173.9760  140.1900 C   0  0  0  0  0  0  0  0  0  0  0  0
  188.4330  175.0450  141.1330 N   0  0  0  0  0  2  0  0  0  0  0  0
  188.1910  174.1400  138.9940 O   0  0  0  0  0  0  0  0  0  0  0  0
  189.7670  171.9070  139.4860 C   0  0  0  0  0  1  0  0  0  0  0  0
  189.0750  172.6420  140.6230 C   0  0  1  0  0  3  0  0  0  0  0  0
  189.9660  172.7310  141.8650 C   0  0  0  0  0  2  0  0  0  0  0  0
  189.3480  172.0810  143.0980 C   0  0  0  0  0  2  0  0  0  0  0  0
  190.3360  172.1050  144.2470 C   0  0  0  0  0  2  0  0  0  0  0  0
  189.7180  172.8140  145.4320 C   0  0  0  0  0  1  0  0  0  0  0  0
  1  3  1  0  0  0  0
  2 32  1  1  0  0  0
  2  1  1  0  0  0  0
  2  3  1  0  0  0  0
  3  8  1  1  0  0  0
  4 11  1  0  0  0  0
  4  7  1  0  0  0  0
  7 10  1  0  0  0  0
  8 11  1  0  0  0  0
  8  6  2  0  0  0  0
 10  9  1  0  0  0  0
 10  5  1  1  0  0  0
 11  9  1  0  0  0  0
 12 10  1  0  0  0  0
 12 13  1  1  0  0  0
 14 15  1  0  0  0  0
 14 17  1  0  0  0  0
 15 12  1  0  0  0  0
 16 15  2  0  0  0  0
 17 19  1  1  0  0  0
 17 13  1  0  0  0  0
 19 18  1  0  0  0  0
 20 19  2  0  0  0  0
 21 23  2  0  0  0  0
 22 23  1  0  0  0  0
 22  1  1  0  0  0  0
 23 24  1  0  0  0  0
 24 27  1  0  0  0  0
 25 28  2  0  0  0  0
 25 26  1  0  0  0  0
 26 30  1  0  0  0  0
 27 25  1  0  0  0  0
 30 29  1  0  0  0  0
 31 35  1  0  0  0  0
 31 32  1  0  0  0  0
 33 31  2  0  0  0  0
 35 34  1  6  0  0  0
 35 36  1  0  0  0  0
 36 37  1  0  0  0  0
 37 38  1  0  0  0  0
 38 39  1  0  0  0  0
M  END
>  <MODEL>
8

>  <REMARK>
 VINA RESULT:      -6.5      3.249      8.290
  Name = 
  12 active torsions:
  status: ('A' for Active; 'I' for Inactive)
    1  A    between atoms: C_2  and  C_31
    2  A    between atoms: C_4  and  N_25
    3  A    between atoms: C_4  and  C_38
    4  A    between atoms: C_5  and  C_17
    5  A    between atoms: N_10  and  C_22
    6  A    between atoms: N_11  and  N_32
    7  A    between atoms: C_12  and  C_17
    8  A    between atoms: C_12  and  C_24
    9  A    between atoms: C_16  and  C_24
   10  A    between atoms: N_18  and  C_36
   11  A    between atoms: C_21  and  C_39
   12  A    between atoms: C_26  and  C_34
                            x       y       z     vdW  Elec       q    Type
                         _______ _______ _______ _____ _____    ______ ____

>  <TORSDO>
F 12

$$$$
=
 OpenBabel11072409223D

 39 41  0  0  1  0  0  0  0  0999 V2000
  187.8100  177.5260  145.7680 N   0  0  0  0  0  0  0  0  0  0  0  0
  188.2130  176.1370  146.0380 C   0  0  1  0  0  3  0  0  0  0  0  0
  187.4540  176.4620  144.8110 C   0  0  2  0  0  3  0  0  0  0  0  0
  187.7720  174.1910  142.8700 C   0  0  0  0  0  2  0  0  0  0  0  0
  189.2660  174.0240  139.6830 F   0  0  0  0  0  0  0  0  0  0  0  0
  188.7880  177.6950  143.2460 O   0  0  0  0  0  0  0  0  0  0  0  0
  188.1990  173.3300  141.6970 C   0  0  0  0  0  2  0  0  0  0  0  0
  188.2800  176.5830  143.5540 C   0  0  0  0  0  0  0  0  0  0  0  0
  189.3870  175.4460  141.5810 C   0  0  0  0  0  2  0  0  0  0  0  0
  189.4080  174.0160  141.0600 C   0  0  2  0  0  0  0  0  0  0  0  0
  188.4650  175.4500  142.6960 N   0  0  0  0  0  0  0  0  0  0  0  0
  190.7140  173.3070  141.4750 C   0  0  2  0  0  3  0  0  0  0  0  0
  191.8970  174.2700  141.4910 C   0  0  0  0  0  2  0  0  0  0  0  0
  192.6420  172.4210  139.6520 S   0  0  0  0  0  0  0  0  0  0  0  0
  191.1010  172.2180  140.5250 C   0  0  0  0  0  0  0  0  0  0  0  0
  190.4040  171.2310  140.3510 O   0  0  0  0  0  0  0  0  0  0  0  0
  192.6200  174.1680  140.1550 C   0  0  2  0  0  3  0  0  0  0  0  0
  194.5310  175.2850  139.2850 O   0  0  0  0  0  0  0  0  0  0  0  0
  194.0040  174.7090  140.2710 C   0  0  0  0  0  0  0  0  0  0  0  0
  194.7020  174.6160  141.4710 O   0  0  0  0  0  1  0  0  0  0  0  0
  184.5750  178.7410  146.7750 O   0  0  0  0  0  0  0  0  0  0  0  0
  186.6700  177.7660  146.5450 N   0  0  0  0  0  2  0  0  0  0  0  0
  185.5730  178.5260  146.0390 C   0  0  0  0  0  0  0  0  0  0  0  0
  185.5940  179.0760  144.6520 C   0  0  0  0  0  2  0  0  0  0  0  0
  184.2020  178.4780  142.6420 C   0  0  0  0  0  0  0  0  0  0  0  0
  185.3780  178.3120  141.8480 N   0  0  0  0  0  2  0  0  0  0  0  0
  184.3070  178.8540  144.0140 N   0  0  0  0  0  2  0  0  0  0  0  0
  183.0630  178.2920  142.1360 O   0  0  0  0  0  0  0  0  0  0  0  0
  186.6900  177.4950  139.9840 C   0  0  0  0  0  1  0  0  0  0  0  0
  185.3150  177.9230  140.4500 C   0  0  0  0  0  2  0  0  0  0  0  0
  190.3190  174.7460  145.8640 C   0  0  0  0  0  0  0  0  0  0  0  0
  189.6500  176.0090  145.8270 N   0  0  0  0  0  2  0  0  0  0  0  0
  189.6720  173.6900  146.0950 O   0  0  0  0  0  0  0  0  0  0  0  0
  192.2150  173.3730  144.9840 C   0  0  0  0  0  1  0  0  0  0  0  0
  191.8000  174.6700  145.6620 C   0  0  1  0  0  3  0  0  0  0  0  0
  192.3620  175.8940  144.9340 C   0  0  0  0  0  2  0  0  0  0  0  0
  193.2260  176.7810  145.8230 C   0  0  0  0  0  2  0  0  0  0  0  0
  194.5310  176.0810  146.1450 C   0  0  0  0  0  2  0  0  0  0  0  0
  195.2900  175.8090  144.8640 C   0  0  0  0  0  1  0  0  0  0  0  0
  1  2  1  0  0  0  0
  1 22  1  0  0  0  0
  2 32  1  6  0  0  0
  3  8  1  6  0  0  0
  3  1  1  0  0  0  0
  3  2  1  0  0  0  0
  6  8  2  0  0  0  0
  7  4  1  0  0  0  0
  9 11  1  0  0  0  0
 10  5  1  6  0  0  0
 10 12  1  0  0  0  0
 10  9  1  0  0  0  0
 10  7  1  0  0  0  0
 11  4  1  0  0  0  0
 11  8  1  0  0  0  0
 12 13  1  6  0  0  0
 14 17  1  0  0  0  0
 14 15  1  0  0  0  0
 15 12  1  0  0  0  0
 16 15  2  0  0  0  0
 17 19  1  1  0  0  0
 17 13  1  0  0  0  0
 18 19  2  0  0  0  0
 19 20  1  0  0  0  0
 23 22  1  0  0  0  0
 23 21  2  0  0  0  0
 24 23  1  0  0  0  0
 25 27  1  0  0  0  0
 26 25  1  0  0  0  0
 27 24  1  0  0  0  0
 28 25  2  0  0  0  0
 29 30  1  0  0  0  0
 30 26  1  0  0  0  0
 31 33  2  0  0  0  0
 32 31  1  0  0  0  0
 35 34  1  6  0  0  0
 35 31  1  0  0  0  0
 36 35  1  0  0  0  0
 36 37  1  0  0  0  0
 37 38  1  0  0  0  0
 39 38  1  0  0  0  0
M  END
>  <MODEL>
9

>  <REMARK>
 VINA RESULT:      -6.4      3.406      8.248
  Name = 
  12 active torsions:
  status: ('A' for Active; 'I' for Inactive)
    1  A    between atoms: C_2  and  C_31
    2  A    between atoms: C_4  and  N_25
    3  A    between atoms: C_4  and  C_38
    4  A    between atoms: C_5  and  C_17
    5  A    between atoms: N_10  and  C_22
    6  A    between atoms: N_11  and  N_32
    7  A    between atoms: C_12  and  C_17
    8  A    between atoms: C_12  and  C_24
    9  A    between atoms: C_16  and  C_24
   10  A    between atoms: N_18  and  C_36
   11  A    between atoms: C_21  and  C_39
   12  A    between atoms: C_26  and  C_34
                            x       y       z     vdW  Elec       q    Type
                         _______ _______ _______ _____ _____    ______ ____

>  <TORSDO>
F 12

$$$$
