=
 OpenBabel11062421033D

 38 42  0  0  1  0  0  0  0  0999 V2000
  190.5040  176.5120  147.4450 C   0  0  0  0  0  2  0  0  0  0  0  0
  193.6260  176.1560  146.6280 C   0  0  0  0  0  2  0  0  0  0  0  0
  191.0540  173.7650  145.2700 C   0  0  2  0  0  3  0  0  0  0  0  0
  188.9580  174.8260  146.3570 C   0  0  0  0  0  3  0  0  0  0  0  0
  194.2040  176.6720  143.7220 F   0  0  0  0  0  0  0  0  0  0  0  0
  194.4320  175.4470  144.3170 C   0  0  0  0  0  0  0  0  0  0  0  0
  192.5310  174.0830  145.4270 C   0  0  2  0  0  3  0  0  0  0  0  0
  190.3830  174.5370  146.1130 C   0  0  0  0  0  0  0  0  0  0  0  0
  194.8140  175.6790  145.7870 C   0  0  0  0  0  2  0  0  0  0  0  0
  192.4800  175.2330  146.3980 C   0  0  0  0  0  0  0  0  0  0  0  0
  191.2330  175.4280  146.7710 C   0  0  0  0  0  0  0  0  0  0  0  0
  193.1780  174.5700  144.1250 C   0  0  0  0  0  2  0  0  0  0  0  0
  189.0210  176.1520  147.1650 C   0  0  2  0  0  3  0  0  0  0  0  0
  195.4940  174.8410  143.6760 F   0  0  0  0  0  0  0  0  0  0  0  0
  191.7220  171.7810  143.4540 S   0  0  0  0  0  0  0  0  0  0  0  0
  190.4550  172.6240  144.4960 C   0  0  2  0  0  3  0  0  0  0  0  0
  190.3670  172.9630  143.0710 C   0  0  2  0  0  3  0  0  0  0  0  0
  189.1980  172.2090  142.4390 C   0  0  0  0  0  2  0  0  0  0  0  0
  188.2280  173.2180  141.8490 C   0  0  1  0  0  3  0  0  0  0  0  0
  188.9280  174.4840  141.5760 N   0  0  0  0  0  0  0  0  0  0  0  0
  188.6380  173.5310  140.4860 C   0  0  0  0  0  2  0  0  0  0  0  0
  187.2780  175.5250  143.0150 C   0  0  0  0  0  1  0  0  0  0  0  0
  187.9040  175.5330  141.6290 C   0  0  1  0  0  3  0  0  0  0  0  0
  188.4420  176.8100  141.3830 O   0  0  0  0  0  0  0  0  0  0  0  0
  188.5660  177.3900  142.6550 C   0  0  0  0  0  2  0  0  0  0  0  0
  189.9900  177.9080  142.8720 C   0  0  0  0  0  2  0  0  0  0  0  0
  190.7420  176.9930  143.6080 O   0  0  0  0  0  1  0  0  0  0  0  0
  188.3770  177.2540  146.3340 C   0  0  0  0  0  2  0  0  0  0  0  0
  187.3410  178.0180  147.1460 C   0  0  0  0  0  2  0  0  0  0  0  0
  185.9190  176.4640  145.9830 O   0  0  0  0  0  1  0  0  0  0  0  0
  185.9130  177.5810  146.8180 C   0  0  2  0  0  3  0  0  0  0  0  0
  185.0970  178.6990  146.1820 C   0  0  0  0  0  2  0  0  0  0  0  0
  184.5590  178.2650  144.9010 N   0  0  0  0  0  2  0  0  0  0  0  0
  185.6240  179.9260  143.6590 O   0  0  0  0  0  0  0  0  0  0  0  0
  184.8630  178.9230  143.6700 C   0  0  0  0  0  0  0  0  0  0  0  0
  185.1520  178.0690  141.2690 C   0  0  0  0  0  1  0  0  0  0  0  0
  183.0330  178.2980  142.3100 O   0  0  0  0  0  0  0  0  0  0  0  0
  184.2810  178.4370  142.4140 C   0  0  0  0  0  0  0  0  0  0  0  0
  3  7  1  0  0  0  0
  3  8  1  1  0  0  0
  4 13  1  0  0  0  0
  5  6  1  0  0  0  0
  6  9  1  0  0  0  0
  7 12  1  6  0  0  0
  7 10  1  0  0  0  0
  8  4  2  0  0  0  0
  8 11  1  0  0  0  0
  9  2  1  0  0  0  0
 10  2  1  0  0  0  0
 10 11  2  0  0  0  0
 11  1  1  0  0  0  0
 12  6  1  0  0  0  0
 13 28  1  6  0  0  0
 13  1  1  0  0  0  0
 14  6  1  0  0  0  0
 16 15  1  6  0  0  0
 16  3  1  0  0  0  0
 17 18  1  6  0  0  0
 17 15  1  0  0  0  0
 17 16  1  0  0  0  0
 19 18  1  1  0  0  0
 20 23  1  0  0  0  0
 20 19  1  0  0  0  0
 21 20  1  0  0  0  0
 21 19  1  0  0  0  0
 23 22  1  1  0  0  0
 24 23  1  0  0  0  0
 24 25  1  0  0  0  0
 25 26  1  0  0  0  0
 26 27  1  0  0  0  0
 28 29  1  0  0  0  0
 31 30  1  6  0  0  0
 31 29  1  0  0  0  0
 32 31  1  0  0  0  0
 33 32  1  0  0  0  0
 34 35  2  0  0  0  0
 35 33  1  0  0  0  0
 36 38  1  0  0  0  0
 37 38  2  0  0  0  0
 38 35  1  0  0  0  0
M  END
>  <MODEL>
1

>  <REMARK>
 VINA RESULT:      -7.1      0.000      0.000
  Name = 
  13 active torsions:
  status: ('A' for Active; 'I' for Inactive)
    1  A    between atoms: C_1  and  C_37
    2  A    between atoms: N_3  and  C_32
    3  A    between atoms: C_5  and  C_27
    4  A    between atoms: C_12  and  C_15
    5  A    between atoms: N_14  and  C_24
    6  A    between atoms: C_15  and  O_20
    7  A    between atoms: C_18  and  C_35
    8  A    between atoms: C_18  and  C_36
    9  A    between atoms: O_20  and  C_32
   10  A    between atoms: C_24  and  C_31
   11  A    between atoms: C_26  and  C_33
   12  A    between atoms: C_31  and  C_36
   13  A    between atoms: C_34  and  C_37
                            x       y       z     vdW  Elec       q    Type
                         _______ _______ _______ _____ _____    ______ ____

>  <TORSDO>
F 13

$$$$
=
 OpenBabel11062421033D

 38 42  0  0  1  0  0  0  0  0999 V2000
  186.8590  176.7480  140.4190 C   0  0  0  0  0  2  0  0  0  0  0  0
  188.3200  173.8520  140.2980 C   0  0  0  0  0  2  0  0  0  0  0  0
  189.3110  176.3370  142.9480 C   0  0  2  0  0  3  0  0  0  0  0  0
  187.6470  178.2190  142.3240 C   0  0  0  0  0  3  0  0  0  0  0  0
  187.7260  172.0750  142.6500 F   0  0  0  0  0  0  0  0  0  0  0  0
  189.0030  172.5030  142.3490 C   0  0  0  0  0  0  0  0  0  0  0  0
  189.6260  175.0150  142.2680 C   0  0  2  0  0  3  0  0  0  0  0  0
  188.4460  176.9870  142.1830 C   0  0  0  0  0  0  0  0  0  0  0  0
  189.1230  172.6580  140.8250 C   0  0  0  0  0  2  0  0  0  0  0  0
  188.6780  175.0560  141.0980 C   0  0  0  0  0  0  0  0  0  0  0  0
  188.0520  176.2130  141.0910 C   0  0  0  0  0  0  0  0  0  0  0  0
  189.2820  173.8000  143.1370 C   0  0  0  0  0  2  0  0  0  0  0  0
  186.5650  178.0410  141.2250 C   0  0  2  0  0  3  0  0  0  0  0  0
  189.8980  171.5370  142.7650 F   0  0  0  0  0  0  0  0  0  0  0  0
  191.2850  178.1650  143.6110 S   0  0  0  0  0  0  0  0  0  0  0  0
  190.0180  176.9310  144.1340 C   0  0  2  0  0  3  0  0  0  0  0  0
  191.3960  176.4310  144.2110 C   0  0  2  0  0  3  0  0  0  0  0  0
  191.8550  176.4250  145.6690 C   0  0  0  0  0  2  0  0  0  0  0  0
  193.2600  175.8530  145.7350 C   0  0  1  0  0  3  0  0  0  0  0  0
  194.2030  176.7630  145.0630 N   0  0  0  0  0  0  0  0  0  0  0  0
  194.0970  176.7380  146.5370 C   0  0  0  0  0  2  0  0  0  0  0  0
  194.7580  174.6360  144.0410 C   0  0  0  0  0  1  0  0  0  0  0  0
  195.3220  175.9270  144.6140 C   0  0  1  0  0  3  0  0  0  0  0  0
  196.0930  176.5640  143.6220 O   0  0  0  0  0  0  0  0  0  0  0  0
  195.4440  176.2500  142.4180 C   0  0  0  0  0  2  0  0  0  0  0  0
  196.3400  176.5860  141.2240 C   0  0  0  0  0  2  0  0  0  0  0  0
  196.9960  175.4470  140.7600 O   0  0  0  0  0  1  0  0  0  0  0  0
  185.2050  177.9220  141.9010 C   0  0  0  0  0  2  0  0  0  0  0  0
  185.3520  177.4960  143.3550 C   0  0  0  0  0  2  0  0  0  0  0  0
  184.7250  179.6860  144.1300 O   0  0  0  0  0  1  0  0  0  0  0  0
  184.4710  178.3250  144.2920 C   0  0  2  0  0  3  0  0  0  0  0  0
  184.6530  177.9340  145.7520 C   0  0  0  0  0  2  0  0  0  0  0  0
  185.9640  177.3340  145.9550 N   0  0  0  0  0  2  0  0  0  0  0  0
  186.4860  178.6130  147.8320 O   0  0  0  0  0  0  0  0  0  0  0  0
  186.8360  177.7170  147.0190 C   0  0  0  0  0  0  0  0  0  0  0  0
  188.2920  175.6060  147.0070 C   0  0  0  0  0  1  0  0  0  0  0  0
  189.1700  177.7770  147.3880 O   0  0  0  0  0  0  0  0  0  0  0  0
  188.1470  177.0760  147.1630 C   0  0  0  0  0  0  0  0  0  0  0  0
  1 11  1  0  0  0  0
  1 13  1  0  0  0  0
  2  9  1  0  0  0  0
  2 10  1  0  0  0  0
  3  8  1  6  0  0  0
  3 16  1  0  0  0  0
  6  5  1  0  0  0  0
  6 14  1  0  0  0  0
  6 12  1  0  0  0  0
  7  3  1  0  0  0  0
  7 12  1  1  0  0  0
  8  4  2  0  0  0  0
  9  6  1  0  0  0  0
 10  7  1  0  0  0  0
 11 10  2  0  0  0  0
 11  8  1  0  0  0  0
 13 28  1  1  0  0  0
 13  4  1  0  0  0  0
 15 17  1  0  0  0  0
 16 15  1  6  0  0  0
 16 17  1  0  0  0  0
 17 18  1  1  0  0  0
 19 18  1  6  0  0  0
 19 21  1  0  0  0  0
 20 19  1  0  0  0  0
 20 21  1  0  0  0  0
 23 22  1  6  0  0  0
 23 20  1  0  0  0  0
 24 23  1  0  0  0  0
 25 24  1  0  0  0  0
 26 25  1  0  0  0  0
 27 26  1  0  0  0  0
 28 29  1  0  0  0  0
 29 31  1  0  0  0  0
 31 30  1  1  0  0  0
 31 32  1  0  0  0  0
 32 33  1  0  0  0  0
 33 35  1  0  0  0  0
 35 38  1  0  0  0  0
 35 34  2  0  0  0  0
 36 38  1  0  0  0  0
 38 37  2  0  0  0  0
M  END
>  <MODEL>
2

>  <REMARK>
 VINA RESULT:      -7.0      3.074      6.202
  Name = 
  13 active torsions:
  status: ('A' for Active; 'I' for Inactive)
    1  A    between atoms: C_1  and  C_37
    2  A    between atoms: N_3  and  C_32
    3  A    between atoms: C_5  and  C_27
    4  A    between atoms: C_12  and  C_15
    5  A    between atoms: N_14  and  C_24
    6  A    between atoms: C_15  and  O_20
    7  A    between atoms: C_18  and  C_35
    8  A    between atoms: C_18  and  C_36
    9  A    between atoms: O_20  and  C_32
   10  A    between atoms: C_24  and  C_31
   11  A    between atoms: C_26  and  C_33
   12  A    between atoms: C_31  and  C_36
   13  A    between atoms: C_34  and  C_37
                            x       y       z     vdW  Elec       q    Type
                         _______ _______ _______ _____ _____    ______ ____

>  <TORSDO>
F 13

$$$$
=
 OpenBabel11062421033D

 38 42  0  0  1  0  0  0  0  0999 V2000
  188.1770  177.2930  144.4670 C   0  0  0  0  0  2  0  0  0  0  0  0
  188.5050  175.3290  141.9030 C   0  0  0  0  0  2  0  0  0  0  0  0
  190.8360  174.9750  144.8390 C   0  0  2  0  0  3  0  0  0  0  0  0
  189.8150  176.8200  146.3410 C   0  0  0  0  0  3  0  0  0  0  0  0
  187.8750  172.4440  142.4740 F   0  0  0  0  0  0  0  0  0  0  0  0
  189.1230  172.8610  142.0550 C   0  0  0  0  0  0  0  0  0  0  0  0
  190.5270  174.5650  143.4090 C   0  0  2  0  0  3  0  0  0  0  0  0
  190.0970  176.0380  145.1230 C   0  0  0  0  0  0  0  0  0  0  0  0
  188.9500  174.0800  141.1360 C   0  0  0  0  0  2  0  0  0  0  0  0
  189.4160  175.5220  143.0650 C   0  0  0  0  0  0  0  0  0  0  0  0
  189.2340  176.3510  144.0710 C   0  0  0  0  0  0  0  0  0  0  0  0
  189.9900  173.1330  143.3020 C   0  0  0  0  0  2  0  0  0  0  0  0
  188.5230  177.5890  145.9510 C   0  0  2  0  0  3  0  0  0  0  0  0
  189.7050  171.8410  141.3300 F   0  0  0  0  0  0  0  0  0  0  0  0
  193.3240  175.6650  145.8440 S   0  0  0  0  0  0  0  0  0  0  0  0
  191.9450  174.4490  145.7080 C   0  0  2  0  0  3  0  0  0  0  0  0
  193.1150  174.1070  144.8920 C   0  0  2  0  0  3  0  0  0  0  0  0
  193.9000  172.9860  145.5710 C   0  0  0  0  0  2  0  0  0  0  0  0
  195.0210  172.5450  144.6460 C   0  0  1  0  0  3  0  0  0  0  0  0
  195.8670  173.7000  144.3000 N   0  0  0  0  0  0  0  0  0  0  0  0
  196.2980  172.7270  145.3250 C   0  0  0  0  0  2  0  0  0  0  0  0
  195.3660  173.0010  142.0340 C   0  0  0  0  0  1  0  0  0  0  0  0
  196.4740  173.3830  143.0020 C   0  0  1  0  0  3  0  0  0  0  0  0
  197.1850  174.4760  142.4700 O   0  0  0  0  0  0  0  0  0  0  0  0
  196.2630  175.1160  141.6270 C   0  0  0  0  0  2  0  0  0  0  0  0
  196.3430  176.6350  141.8010 C   0  0  0  0  0  2  0  0  0  0  0  0
  196.7510  176.9640  143.0930 O   0  0  0  0  0  1  0  0  0  0  0  0
  187.3880  177.1090  146.8460 C   0  0  0  0  0  2  0  0  0  0  0  0
  186.4180  178.2400  147.1550 C   0  0  0  0  0  2  0  0  0  0  0  0
  184.8960  176.5620  146.3420 O   0  0  0  0  0  1  0  0  0  0  0  0
  184.9650  177.8460  146.8830 C   0  0  2  0  0  3  0  0  0  0  0  0
  184.2600  178.8340  145.9630 C   0  0  0  0  0  2  0  0  0  0  0  0
  184.2580  178.3370  144.5950 N   0  0  0  0  0  2  0  0  0  0  0  0
  185.6340  180.0240  143.7630 O   0  0  0  0  0  0  0  0  0  0  0  0
  184.9690  178.9790  143.5360 C   0  0  0  0  0  0  0  0  0  0  0  0
  186.1700  178.1700  141.4190 C   0  0  0  0  0  1  0  0  0  0  0  0
  183.8100  178.1400  141.6550 O   0  0  0  0  0  0  0  0  0  0  0  0
  184.9200  178.4290  142.1780 C   0  0  0  0  0  0  0  0  0  0  0  0
  1 13  1  0  0  0  0
  2 10  1  0  0  0  0
  3  8  1  6  0  0  0
  3 16  1  0  0  0  0
  6  5  1  0  0  0  0
  6 12  1  0  0  0  0
  7 12  1  1  0  0  0
  7  3  1  0  0  0  0
  8  4  2  0  0  0  0
  9  2  1  0  0  0  0
  9  6  1  0  0  0  0
 10  7  1  0  0  0  0
 10 11  2  0  0  0  0
 11  1  1  0  0  0  0
 11  8  1  0  0  0  0
 13  4  1  0  0  0  0
 13 28  1  1  0  0  0
 14  6  1  0  0  0  0
 16 15  1  1  0  0  0
 17 18  1  1  0  0  0
 17 16  1  0  0  0  0
 17 15  1  0  0  0  0
 19 21  1  0  0  0  0
 19 18  1  1  0  0  0
 20 19  1  0  0  0  0
 20 21  1  0  0  0  0
 23 22  1  6  0  0  0
 23 20  1  0  0  0  0
 24 23  1  0  0  0  0
 25 26  1  0  0  0  0
 25 24  1  0  0  0  0
 26 27  1  0  0  0  0
 28 29  1  0  0  0  0
 31 30  1  6  0  0  0
 31 29  1  0  0  0  0
 32 31  1  0  0  0  0
 33 32  1  0  0  0  0
 35 34  2  0  0  0  0
 35 33  1  0  0  0  0
 36 38  1  0  0  0  0
 37 38  2  0  0  0  0
 38 35  1  0  0  0  0
M  END
>  <MODEL>
3

>  <REMARK>
 VINA RESULT:      -6.9      3.122      5.116
  Name = 
  13 active torsions:
  status: ('A' for Active; 'I' for Inactive)
    1  A    between atoms: C_1  and  C_37
    2  A    between atoms: N_3  and  C_32
    3  A    between atoms: C_5  and  C_27
    4  A    between atoms: C_12  and  C_15
    5  A    between atoms: N_14  and  C_24
    6  A    between atoms: C_15  and  O_20
    7  A    between atoms: C_18  and  C_35
    8  A    between atoms: C_18  and  C_36
    9  A    between atoms: O_20  and  C_32
   10  A    between atoms: C_24  and  C_31
   11  A    between atoms: C_26  and  C_33
   12  A    between atoms: C_31  and  C_36
   13  A    between atoms: C_34  and  C_37
                            x       y       z     vdW  Elec       q    Type
                         _______ _______ _______ _____ _____    ______ ____

>  <TORSDO>
F 13

$$$$
=
 OpenBabel11062421033D

 38 42  0  0  1  0  0  0  0  0999 V2000
  188.0780  176.8340  144.8690 C   0  0  0  0  0  2  0  0  0  0  0  0
  190.5680  176.2880  146.8790 C   0  0  0  0  0  2  0  0  0  0  0  0
  190.2390  174.2660  143.7200 C   0  0  2  0  0  3  0  0  0  0  0  0
  188.1070  175.3980  142.7820 C   0  0  0  0  0  3  0  0  0  0  0  0
  193.2530  177.0220  145.7410 F   0  0  0  0  0  0  0  0  0  0  0  0
  192.9350  175.7320  146.1150 C   0  0  0  0  0  0  0  0  0  0  0  0
  190.9630  174.4390  145.0440 C   0  0  2  0  0  3  0  0  0  0  0  0
  189.1420  175.0110  143.7590 C   0  0  0  0  0  0  0  0  0  0  0  0
  191.9560  175.7910  147.2970 C   0  0  0  0  0  2  0  0  0  0  0  0
  190.1130  175.4930  145.7050 C   0  0  0  0  0  0  0  0  0  0  0  0
  189.0790  175.7590  144.9350 C   0  0  0  0  0  0  0  0  0  0  0  0
  192.3840  174.9880  144.8800 C   0  0  0  0  0  2  0  0  0  0  0  0
  187.4530  176.6310  143.4630 C   0  0  2  0  0  3  0  0  0  0  0  0
  194.0900  175.0990  146.5290 F   0  0  0  0  0  0  0  0  0  0  0  0
  189.4480  171.7850  142.7740 S   0  0  0  0  0  0  0  0  0  0  0  0
  190.5490  173.2590  142.6480 C   0  0  2  0  0  3  0  0  0  0  0  0
  191.2040  172.0810  143.2280 C   0  0  2  0  0  3  0  0  0  0  0  0
  192.1150  171.4380  142.1840 C   0  0  0  0  0  2  0  0  0  0  0  0
  193.4380  171.0850  142.8410 C   0  0  1  0  0  3  0  0  0  0  0  0
  193.8590  172.1760  143.7360 N   0  0  0  0  0  0  0  0  0  0  0  0
  193.2350  170.9520  144.2790 C   0  0  0  0  0  2  0  0  0  0  0  0
  195.8830  172.0540  142.4090 C   0  0  0  0  0  1  0  0  0  0  0  0
  195.3210  172.0890  143.8210 C   0  0  1  0  0  3  0  0  0  0  0  0
  195.8770  173.1890  144.5030 O   0  0  0  0  0  0  0  0  0  0  0  0
  195.7120  174.2680  143.6210 C   0  0  0  0  0  2  0  0  0  0  0  0
  196.6120  175.4360  144.0300 C   0  0  0  0  0  2  0  0  0  0  0  0
  195.8860  176.6250  144.0880 O   0  0  0  0  0  1  0  0  0  0  0  0
  187.7240  177.8580  142.6020 C   0  0  0  0  0  2  0  0  0  0  0  0
  186.4390  178.3890  141.9840 C   0  0  0  0  0  2  0  0  0  0  0  0
  184.0820  178.0010  142.2740 O   0  0  0  0  0  1  0  0  0  0  0  0
  185.2590  178.3150  142.9540 C   0  0  2  0  0  3  0  0  0  0  0  0
  185.0740  179.6070  143.7390 C   0  0  0  0  0  2  0  0  0  0  0  0
  185.7300  179.5080  145.0350 N   0  0  0  0  0  2  0  0  0  0  0  0
  183.9120  178.5200  146.1090 O   0  0  0  0  0  0  0  0  0  0  0  0
  185.0930  178.9500  146.1850 C   0  0  0  0  0  0  0  0  0  0  0  0
  186.2120  177.5790  148.0410 C   0  0  0  0  0  1  0  0  0  0  0  0
  186.1170  179.9480  148.0670 O   0  0  0  0  0  0  0  0  0  0  0  0
  185.8090  178.8860  147.4630 C   0  0  0  0  0  0  0  0  0  0  0  0
  1 11  1  0  0  0  0
  2  9  1  0  0  0  0
  3  8  1  1  0  0  0
  3  7  1  0  0  0  0
  4 13  1  0  0  0  0
  4  8  2  0  0  0  0
  5  6  1  0  0  0  0
  6 14  1  0  0  0  0
  6  9  1  0  0  0  0
  7 12  1  6  0  0  0
  7 10  1  0  0  0  0
  8 11  1  0  0  0  0
 10  2  1  0  0  0  0
 11 10  2  0  0  0  0
 12  6  1  0  0  0  0
 13 28  1  6  0  0  0
 13  1  1  0  0  0  0
 15 17  1  0  0  0  0
 16 15  1  1  0  0  0
 16 17  1  0  0  0  0
 16  3  1  0  0  0  0
 17 18  1  6  0  0  0
 19 18  1  6  0  0  0
 19 20  1  0  0  0  0
 19 21  1  0  0  0  0
 20 23  1  0  0  0  0
 20 21  1  0  0  0  0
 23 22  1  6  0  0  0
 23 24  1  0  0  0  0
 25 26  1  0  0  0  0
 25 24  1  0  0  0  0
 26 27  1  0  0  0  0
 29 28  1  0  0  0  0
 29 31  1  0  0  0  0
 31 30  1  6  0  0  0
 31 32  1  0  0  0  0
 32 33  1  0  0  0  0
 33 35  1  0  0  0  0
 34 35  2  0  0  0  0
 35 38  1  0  0  0  0
 38 36  1  0  0  0  0
 38 37  2  0  0  0  0
M  END
>  <MODEL>
4

>  <REMARK>
 VINA RESULT:      -6.7      2.550      4.711
  Name = 
  13 active torsions:
  status: ('A' for Active; 'I' for Inactive)
    1  A    between atoms: C_1  and  C_37
    2  A    between atoms: N_3  and  C_32
    3  A    between atoms: C_5  and  C_27
    4  A    between atoms: C_12  and  C_15
    5  A    between atoms: N_14  and  C_24
    6  A    between atoms: C_15  and  O_20
    7  A    between atoms: C_18  and  C_35
    8  A    between atoms: C_18  and  C_36
    9  A    between atoms: O_20  and  C_32
   10  A    between atoms: C_24  and  C_31
   11  A    between atoms: C_26  and  C_33
   12  A    between atoms: C_31  and  C_36
   13  A    between atoms: C_34  and  C_37
                            x       y       z     vdW  Elec       q    Type
                         _______ _______ _______ _____ _____    ______ ____

>  <TORSDO>
F 13

$$$$
=
 OpenBabel11062421033D

 38 42  0  0  1  0  0  0  0  0999 V2000
  188.4820  174.1180  143.2750 C   0  0  0  0  0  2  0  0  0  0  0  0
  189.4610  174.6720  146.3200 C   0  0  0  0  0  2  0  0  0  0  0  0
  191.8700  175.1520  143.4660 C   0  0  2  0  0  3  0  0  0  0  0  0
  190.2580  174.5710  141.5260 C   0  0  0  0  0  3  0  0  0  0  0  0
  190.0910  177.5540  146.9060 F   0  0  0  0  0  0  0  0  0  0  0  0
  191.0380  176.5540  147.0010 C   0  0  0  0  0  0  0  0  0  0  0  0
  191.6880  175.0800  144.9730 C   0  0  2  0  0  3  0  0  0  0  0  0
  190.7760  174.6580  142.9030 C   0  0  0  0  0  0  0  0  0  0  0  0
  190.3410  175.2550  147.4310 C   0  0  0  0  0  2  0  0  0  0  0  0
  190.2680  174.5860  145.0710 C   0  0  0  0  0  0  0  0  0  0  0  0
  189.8120  174.3410  143.8620 C   0  0  0  0  0  0  0  0  0  0  0  0
  191.7770  176.4530  145.6500 C   0  0  0  0  0  2  0  0  0  0  0  0
  188.7470  174.2900  141.7550 C   0  0  2  0  0  3  0  0  0  0  0  0
  191.9510  176.9080  147.9740 F   0  0  0  0  0  0  0  0  0  0  0  0
  193.8980  173.9700  141.9920 S   0  0  0  0  0  0  0  0  0  0  0  0
  193.1360  175.4810  142.7260 C   0  0  2  0  0  3  0  0  0  0  0  0
  194.3040  174.9900  143.4670 C   0  0  2  0  0  3  0  0  0  0  0  0
  195.5120  175.8730  143.1570 C   0  0  0  0  0  2  0  0  0  0  0  0
  196.6940  175.3880  143.9780 C   0  0  1  0  0  3  0  0  0  0  0  0
  196.8710  173.9380  143.7910 N   0  0  0  0  0  0  0  0  0  0  0  0
  197.7320  174.9020  143.0770 C   0  0  0  0  0  2  0  0  0  0  0  0
  196.6900  173.8350  146.2070 C   0  0  0  0  0  1  0  0  0  0  0  0
  197.5390  173.4520  145.0040 C   0  0  1  0  0  3  0  0  0  0  0  0
  197.7030  172.0530  144.9930 O   0  0  0  0  0  0  0  0  0  0  0  0
  196.7560  171.5810  145.9150 C   0  0  0  0  0  2  0  0  0  0  0  0
  196.1210  170.2820  145.4140 C   0  0  0  0  0  2  0  0  0  0  0  0
  195.2540  169.7540  146.3690 O   0  0  0  0  0  1  0  0  0  0  0  0
  187.9500  175.4770  141.2300 C   0  0  0  0  0  2  0  0  0  0  0  0
  187.2130  176.1840  142.3580 C   0  0  0  0  0  2  0  0  0  0  0  0
  188.5990  177.9810  141.5560 O   0  0  0  0  0  1  0  0  0  0  0  0
  187.7240  177.6090  142.5770 C   0  0  2  0  0  3  0  0  0  0  0  0
  188.4050  177.7780  143.9290 C   0  0  0  0  0  2  0  0  0  0  0  0
  187.5210  177.3380  144.9980 N   0  0  0  0  0  2  0  0  0  0  0  0
  186.1480  179.2200  144.9150 O   0  0  0  0  0  0  0  0  0  0  0  0
  186.4030  178.1070  145.4450 C   0  0  0  0  0  0  0  0  0  0  0  0
  186.1550  177.1400  147.8080 C   0  0  0  0  0  1  0  0  0  0  0  0
  184.3020  177.6030  146.4030 O   0  0  0  0  0  0  0  0  0  0  0  0
  185.5550  177.6080  146.5320 C   0  0  0  0  0  0  0  0  0  0  0  0
  1 11  1  0  0  0  0
  2  9  1  0  0  0  0
  3  8  1  6  0  0  0
  3  7  1  0  0  0  0
  4 13  1  0  0  0  0
  4  8  2  0  0  0  0
  5  6  1  0  0  0  0
  6  9  1  0  0  0  0
  6 14  1  0  0  0  0
  7 10  1  0  0  0  0
  7 12  1  1  0  0  0
  8 11  1  0  0  0  0
 10  2  1  0  0  0  0
 11 10  2  0  0  0  0
 12  6  1  0  0  0  0
 13 28  1  1  0  0  0
 13  1  1  0  0  0  0
 15 17  1  0  0  0  0
 16 15  1  6  0  0  0
 16  3  1  0  0  0  0
 16 17  1  0  0  0  0
 17 18  1  6  0  0  0
 19 18  1  6  0  0  0
 20 19  1  0  0  0  0
 20 23  1  0  0  0  0
 21 20  1  0  0  0  0
 21 19  1  0  0  0  0
 23 22  1  1  0  0  0
 24 23  1  0  0  0  0
 24 25  1  0  0  0  0
 26 25  1  0  0  0  0
 26 27  1  0  0  0  0
 28 29  1  0  0  0  0
 29 31  1  0  0  0  0
 31 30  1  6  0  0  0
 31 32  1  0  0  0  0
 32 33  1  0  0  0  0
 33 35  1  0  0  0  0
 34 35  2  0  0  0  0
 35 38  1  0  0  0  0
 37 38  2  0  0  0  0
 38 36  1  0  0  0  0
M  END
>  <MODEL>
5

>  <REMARK>
 VINA RESULT:      -6.6      3.358      6.176
  Name = 
  13 active torsions:
  status: ('A' for Active; 'I' for Inactive)
    1  A    between atoms: C_1  and  C_37
    2  A    between atoms: N_3  and  C_32
    3  A    between atoms: C_5  and  C_27
    4  A    between atoms: C_12  and  C_15
    5  A    between atoms: N_14  and  C_24
    6  A    between atoms: C_15  and  O_20
    7  A    between atoms: C_18  and  C_35
    8  A    between atoms: C_18  and  C_36
    9  A    between atoms: O_20  and  C_32
   10  A    between atoms: C_24  and  C_31
   11  A    between atoms: C_26  and  C_33
   12  A    between atoms: C_31  and  C_36
   13  A    between atoms: C_34  and  C_37
                            x       y       z     vdW  Elec       q    Type
                         _______ _______ _______ _____ _____    ______ ____

>  <TORSDO>
F 13

$$$$
=
 OpenBabel11062421033D

 38 42  0  0  1  0  0  0  0  0999 V2000
  192.7300  174.6630  141.7040 C   0  0  0  0  0  2  0  0  0  0  0  0
  193.7710  176.3860  144.2510 C   0  0  0  0  0  2  0  0  0  0  0  0
  190.0850  175.7600  143.7990 C   0  0  2  0  0  3  0  0  0  0  0  0
  190.2200  174.3210  141.6510 C   0  0  0  0  0  3  0  0  0  0  0  0
  193.3410  175.0410  146.9060 F   0  0  0  0  0  0  0  0  0  0  0  0
  192.7590  176.2510  146.5850 C   0  0  0  0  0  0  0  0  0  0  0  0
  191.1590  176.5140  144.5660 C   0  0  2  0  0  3  0  0  0  0  0  0
  190.6490  175.2510  142.7120 C   0  0  0  0  0  0  0  0  0  0  0  0
  193.7030  177.0160  145.6460 C   0  0  0  0  0  2  0  0  0  0  0  0
  192.3830  176.1900  143.7490 C   0  0  0  0  0  0  0  0  0  0  0  0
  192.0250  175.4890  142.6950 C   0  0  0  0  0  0  0  0  0  0  0  0
  191.3630  175.9780  145.9880 C   0  0  0  0  0  2  0  0  0  0  0  0
  191.5730  173.8760  141.0310 C   0  0  2  0  0  3  0  0  0  0  0  0
  192.6030  176.9820  147.7460 F   0  0  0  0  0  0  0  0  0  0  0  0
  187.7460  176.9960  142.9750 S   0  0  0  0  0  0  0  0  0  0  0  0
  188.6060  175.7810  144.0640 C   0  0  2  0  0  3  0  0  0  0  0  0
  188.2270  177.0210  144.7490 C   0  0  2  0  0  3  0  0  0  0  0  0
  186.9930  176.7680  145.6140 C   0  0  0  0  0  2  0  0  0  0  0  0
  186.1790  178.0480  145.6900 C   0  0  1  0  0  3  0  0  0  0  0  0
  184.8410  177.8240  145.1160 N   0  0  0  0  0  0  0  0  0  0  0  0
  185.0420  177.8380  146.5790 C   0  0  0  0  0  2  0  0  0  0  0  0
  185.5650  179.8880  144.0700 C   0  0  0  0  0  1  0  0  0  0  0  0
  184.3770  179.1350  144.6480 C   0  0  1  0  0  3  0  0  0  0  0  0
  183.3860  179.0210  143.6540 O   0  0  0  0  0  0  0  0  0  0  0  0
  183.9730  178.2190  142.6630 C   0  0  0  0  0  2  0  0  0  0  0  0
  183.1140  178.2170  141.3970 C   0  0  0  0  0  2  0  0  0  0  0  0
  183.9140  178.1790  140.2560 O   0  0  0  0  0  1  0  0  0  0  0  0
  191.7540  172.3850  141.2890 C   0  0  0  0  0  2  0  0  0  0  0  0
  190.7850  171.8920  142.3540 C   0  0  0  0  0  2  0  0  0  0  0  0
  191.4820  172.5250  144.5680 O   0  0  0  0  0  1  0  0  0  0  0  0
  191.5020  171.4830  143.6420 C   0  0  2  0  0  3  0  0  0  0  0  0
  192.9370  171.0410  143.3890 C   0  0  0  0  0  2  0  0  0  0  0  0
  193.8480  171.7530  144.2740 N   0  0  0  0  0  2  0  0  0  0  0  0
  195.6940  170.4160  143.7860 O   0  0  0  0  0  0  0  0  0  0  0  0
  195.2210  171.3900  144.4270 C   0  0  0  0  0  0  0  0  0  0  0  0
  195.9840  173.6260  145.4260 C   0  0  0  0  0  1  0  0  0  0  0  0
  196.8960  171.5390  146.0880 O   0  0  0  0  0  0  0  0  0  0  0  0
  196.0830  172.1470  145.3410 C   0  0  0  0  0  0  0  0  0  0  0  0
  1 11  1  0  0  0  0
  2  9  1  0  0  0  0
  3  8  1  6  0  0  0
  3 16  1  0  0  0  0
  3  7  1  0  0  0  0
  4  8  2  0  0  0  0
  6  5  1  0  0  0  0
  6 14  1  0  0  0  0
  7 12  1  1  0  0  0
  9  6  1  0  0  0  0
 10  2  1  0  0  0  0
 10  7  1  0  0  0  0
 11  8  1  0  0  0  0
 11 10  2  0  0  0  0
 12  6  1  0  0  0  0
 13 28  1  1  0  0  0
 13  4  1  0  0  0  0
 13  1  1  0  0  0  0
 15 17  1  0  0  0  0
 16 15  1  6  0  0  0
 16 17  1  0  0  0  0
 17 18  1  1  0  0  0
 19 18  1  6  0  0  0
 19 21  1  0  0  0  0
 20 19  1  0  0  0  0
 20 21  1  0  0  0  0
 23 22  1  6  0  0  0
 23 20  1  0  0  0  0
 24 23  1  0  0  0  0
 25 24  1  0  0  0  0
 26 25  1  0  0  0  0
 27 26  1  0  0  0  0
 28 29  1  0  0  0  0
 29 31  1  0  0  0  0
 31 30  1  1  0  0  0
 32 31  1  0  0  0  0
 32 33  1  0  0  0  0
 33 35  1  0  0  0  0
 34 35  2  0  0  0  0
 35 38  1  0  0  0  0
 38 36  1  0  0  0  0
 38 37  2  0  0  0  0
M  END
>  <MODEL>
6

>  <REMARK>
 VINA RESULT:      -6.5      3.252      7.601
  Name = 
  13 active torsions:
  status: ('A' for Active; 'I' for Inactive)
    1  A    between atoms: C_1  and  C_37
    2  A    between atoms: N_3  and  C_32
    3  A    between atoms: C_5  and  C_27
    4  A    between atoms: C_12  and  C_15
    5  A    between atoms: N_14  and  C_24
    6  A    between atoms: C_15  and  O_20
    7  A    between atoms: C_18  and  C_35
    8  A    between atoms: C_18  and  C_36
    9  A    between atoms: O_20  and  C_32
   10  A    between atoms: C_24  and  C_31
   11  A    between atoms: C_26  and  C_33
   12  A    between atoms: C_31  and  C_36
   13  A    between atoms: C_34  and  C_37
                            x       y       z     vdW  Elec       q    Type
                         _______ _______ _______ _____ _____    ______ ____

>  <TORSDO>
F 13

$$$$
=
 OpenBabel11062421033D

 38 42  0  0  1  0  0  0  0  0999 V2000
  189.6640  176.2390  142.0780 C   0  0  0  0  0  2  0  0  0  0  0  0
  192.5950  176.4220  143.4610 C   0  0  0  0  0  2  0  0  0  0  0  0
  189.5110  177.0600  145.5260 C   0  0  2  0  0  3  0  0  0  0  0  0
  187.7440  176.6430  143.6810 C   0  0  0  0  0  3  0  0  0  0  0  0
  193.1260  174.2840  145.5090 F   0  0  0  0  0  0  0  0  0  0  0  0
  193.1190  175.6280  145.8250 C   0  0  0  0  0  0  0  0  0  0  0  0
  191.0290  177.1140  145.4630 C   0  0  2  0  0  3  0  0  0  0  0  0
  189.0620  176.9050  144.2880 C   0  0  0  0  0  0  0  0  0  0  0  0
  193.6130  176.4220  144.6070 C   0  0  0  0  0  2  0  0  0  0  0  0
  191.2700  176.8320  144.0030 C   0  0  0  0  0  0  0  0  0  0  0  0
  190.1130  176.7470  143.3830 C   0  0  0  0  0  0  0  0  0  0  0  0
  191.6990  176.0120  146.2920 C   0  0  0  0  0  2  0  0  0  0  0  0
  188.1260  176.1400  142.2620 C   0  0  2  0  0  3  0  0  0  0  0  0
  193.9950  175.8360  146.8720 F   0  0  0  0  0  0  0  0  0  0  0  0
  187.9370  175.8350  147.4490 S   0  0  0  0  0  0  0  0  0  0  0  0
  188.6470  177.3710  146.7160 C   0  0  2  0  0  3  0  0  0  0  0  0
  187.2320  177.1600  146.3880 C   0  0  2  0  0  3  0  0  0  0  0  0
  186.3690  178.0890  147.2410 C   0  0  0  0  0  2  0  0  0  0  0  0
  185.4060  178.8320  146.3310 C   0  0  1  0  0  3  0  0  0  0  0  0
  184.8550  177.9090  145.3250 N   0  0  0  0  0  0  0  0  0  0  0  0
  184.0650  178.2900  146.5130 C   0  0  0  0  0  2  0  0  0  0  0  0
  185.5650  179.7910  143.9730 C   0  0  0  0  0  1  0  0  0  0  0  0
  184.4860  178.7390  144.1730 C   0  0  1  0  0  3  0  0  0  0  0  0
  184.3670  177.9810  142.9920 O   0  0  0  0  0  0  0  0  0  0  0  0
  185.1850  178.6450  142.0650 C   0  0  0  0  0  2  0  0  0  0  0  0
  184.7910  178.2660  140.6350 C   0  0  0  0  0  2  0  0  0  0  0  0
  185.8500  177.6380  139.9810 O   0  0  0  0  0  1  0  0  0  0  0  0
  187.6900  174.6860  142.1320 C   0  0  0  0  0  2  0  0  0  0  0  0
  188.8600  173.7400  142.3660 C   0  0  0  0  0  2  0  0  0  0  0  0
  190.3180  172.2500  141.1640 O   0  0  0  0  0  1  0  0  0  0  0  0
  189.0030  172.7110  141.2440 C   0  0  2  0  0  3  0  0  0  0  0  0
  188.5640  173.2610  139.8940 C   0  0  0  0  0  2  0  0  0  0  0  0
  188.7570  172.2620  138.8540 N   0  0  0  0  0  2  0  0  0  0  0  0
  190.1050  173.6160  137.5180 O   0  0  0  0  0  0  0  0  0  0  0  0
  189.5440  172.5010  137.6860 C   0  0  0  0  0  0  0  0  0  0  0  0
  189.4330  171.7410  135.2390 C   0  0  0  0  0  1  0  0  0  0  0  0
  190.0780  170.3000  137.0090 O   0  0  0  0  0  0  0  0  0  0  0  0
  189.6940  171.4520  136.6730 C   0  0  0  0  0  0  0  0  0  0  0  0
  1 13  1  0  0  0  0
  1 11  1  0  0  0  0
  2 10  1  0  0  0  0
  2  9  1  0  0  0  0
  3  8  1  6  0  0  0
  3 16  1  0  0  0  0
  4  8  2  0  0  0  0
  5  6  1  0  0  0  0
  6 12  1  0  0  0  0
  6 14  1  0  0  0  0
  7  3  1  0  0  0  0
  7 12  1  1  0  0  0
  9  6  1  0  0  0  0
 10  7  1  0  0  0  0
 11 10  2  0  0  0  0
 11  8  1  0  0  0  0
 13 28  1  1  0  0  0
 13  4  1  0  0  0  0
 16 15  1  1  0  0  0
 17 16  1  0  0  0  0
 17 18  1  1  0  0  0
 17 15  1  0  0  0  0
 19 21  1  0  0  0  0
 19 18  1  1  0  0  0
 20 19  1  0  0  0  0
 20 21  1  0  0  0  0
 23 22  1  6  0  0  0
 23 20  1  0  0  0  0
 24 23  1  0  0  0  0
 25 24  1  0  0  0  0
 26 25  1  0  0  0  0
 27 26  1  0  0  0  0
 28 29  1  0  0  0  0
 31 30  1  6  0  0  0
 31 29  1  0  0  0  0
 32 31  1  0  0  0  0
 33 32  1  0  0  0  0
 34 35  2  0  0  0  0
 35 33  1  0  0  0  0
 36 38  1  0  0  0  0
 38 37  2  0  0  0  0
 38 35  1  0  0  0  0
M  END
>  <MODEL>
7

>  <REMARK>
 VINA RESULT:      -6.5      2.846      6.494
  Name = 
  13 active torsions:
  status: ('A' for Active; 'I' for Inactive)
    1  A    between atoms: C_1  and  C_37
    2  A    between atoms: N_3  and  C_32
    3  A    between atoms: C_5  and  C_27
    4  A    between atoms: C_12  and  C_15
    5  A    between atoms: N_14  and  C_24
    6  A    between atoms: C_15  and  O_20
    7  A    between atoms: C_18  and  C_35
    8  A    between atoms: C_18  and  C_36
    9  A    between atoms: O_20  and  C_32
   10  A    between atoms: C_24  and  C_31
   11  A    between atoms: C_26  and  C_33
   12  A    between atoms: C_31  and  C_36
   13  A    between atoms: C_34  and  C_37
                            x       y       z     vdW  Elec       q    Type
                         _______ _______ _______ _____ _____    ______ ____

>  <TORSDO>
F 13

$$$$
=
 OpenBabel11062421033D

 38 42  0  0  1  0  0  0  0  0999 V2000
  190.2840  174.5220  145.9550 C   0  0  0  0  0  2  0  0  0  0  0  0
  190.5820  172.7710  143.2390 C   0  0  0  0  0  2  0  0  0  0  0  0
  188.0890  175.5890  143.3810 C   0  0  2  0  0  3  0  0  0  0  0  0
  188.5920  176.4000  145.7870 C   0  0  0  0  0  3  0  0  0  0  0  0
  191.6900  174.3040  140.9010 F   0  0  0  0  0  0  0  0  0  0  0  0
  190.4320  173.7360  140.8850 C   0  0  0  0  0  0  0  0  0  0  0  0
  188.6060  174.3920  142.6010 C   0  0  2  0  0  3  0  0  0  0  0  0
  188.5820  175.5140  144.6100 C   0  0  0  0  0  0  0  0  0  0  0  0
  190.4580  172.4620  141.7430 C   0  0  0  0  0  2  0  0  0  0  0  0
  189.5430  173.7730  143.6050 C   0  0  0  0  0  0  0  0  0  0  0  0
  189.4670  174.4410  144.7360 C   0  0  0  0  0  0  0  0  0  0  0  0
  189.4130  174.7930  141.3600 C   0  0  0  0  0  2  0  0  0  0  0  0
  189.7460  175.8070  146.6410 C   0  0  2  0  0  3  0  0  0  0  0  0
  190.1260  173.3860  139.5850 F   0  0  0  0  0  0  0  0  0  0  0  0
  187.4080  177.2850  141.2980 S   0  0  0  0  0  0  0  0  0  0  0  0
  187.0220  176.5550  142.9470 C   0  0  2  0  0  3  0  0  0  0  0  0
  187.5220  177.9330  143.0140 C   0  0  2  0  0  3  0  0  0  0  0  0
  186.3560  178.8850  143.2770 C   0  0  0  0  0  2  0  0  0  0  0  0
  185.3220  178.1690  144.1280 C   0  0  1  0  0  3  0  0  0  0  0  0
  184.9160  179.0290  145.2510 N   0  0  0  0  0  0  0  0  0  0  0  0
  184.0600  178.8950  144.0550 C   0  0  0  0  0  2  0  0  0  0  0  0
  185.1880  176.7950  146.1520 C   0  0  0  0  0  1  0  0  0  0  0  0
  184.4630  178.1220  146.3120 C   0  0  1  0  0  3  0  0  0  0  0  0
  184.7330  178.6340  147.5960 O   0  0  0  0  0  0  0  0  0  0  0  0
  185.9780  178.0830  147.9390 C   0  0  0  0  0  2  0  0  0  0  0  0
  186.9340  179.1790  148.4180 C   0  0  0  0  0  2  0  0  0  0  0  0
  186.3140  180.4270  148.3830 O   0  0  0  0  0  1  0  0  0  0  0  0
  190.8610  176.8410  146.7310 C   0  0  0  0  0  2  0  0  0  0  0  0
  192.1990  176.1800  147.0270 C   0  0  0  0  0  2  0  0  0  0  0  0
  192.8900  177.0430  144.8890 O   0  0  0  0  0  1  0  0  0  0  0  0
  193.3320  176.7660  146.1830 C   0  0  2  0  0  3  0  0  0  0  0  0
  194.5480  175.8500  146.1310 C   0  0  0  0  0  2  0  0  0  0  0  0
  194.6540  175.2270  144.8200 N   0  0  0  0  0  2  0  0  0  0  0  0
  193.6600  173.2200  145.4660 O   0  0  0  0  0  0  0  0  0  0  0  0
  194.1880  173.9040  144.5500 C   0  0  0  0  0  0  0  0  0  0  0  0
  194.1470  171.8780  142.9780 C   0  0  0  0  0  1  0  0  0  0  0  0
  194.5830  174.0850  142.2260 O   0  0  0  0  0  0  0  0  0  0  0  0
  194.3320  173.3340  143.2070 C   0  0  0  0  0  0  0  0  0  0  0  0
  1 13  1  0  0  0  0
  2 10  1  0  0  0  0
  3  8  1  1  0  0  0
  4 13  1  0  0  0  0
  6  5  1  0  0  0  0
  6 12  1  0  0  0  0
  6  9  1  0  0  0  0
  7 12  1  6  0  0  0
  7  3  1  0  0  0  0
  7 10  1  0  0  0  0
  8 11  1  0  0  0  0
  8  4  2  0  0  0  0
  9  2  1  0  0  0  0
 10 11  2  0  0  0  0
 11  1  1  0  0  0  0
 13 28  1  6  0  0  0
 14  6  1  0  0  0  0
 15 17  1  0  0  0  0
 16 15  1  6  0  0  0
 16 17  1  0  0  0  0
 16  3  1  0  0  0  0
 17 18  1  6  0  0  0
 19 18  1  6  0  0  0
 19 20  1  0  0  0  0
 20 23  1  0  0  0  0
 21 19  1  0  0  0  0
 21 20  1  0  0  0  0
 23 22  1  6  0  0  0
 23 24  1  0  0  0  0
 24 25  1  0  0  0  0
 25 26  1  0  0  0  0
 27 26  1  0  0  0  0
 28 29  1  0  0  0  0
 31 30  1  6  0  0  0
 31 29  1  0  0  0  0
 32 31  1  0  0  0  0
 33 32  1  0  0  0  0
 35 33  1  0  0  0  0
 35 34  2  0  0  0  0
 36 38  1  0  0  0  0
 37 38  2  0  0  0  0
 38 35  1  0  0  0  0
M  END
>  <MODEL>
8

>  <REMARK>
 VINA RESULT:      -6.5      2.827      6.918
  Name = 
  13 active torsions:
  status: ('A' for Active; 'I' for Inactive)
    1  A    between atoms: C_1  and  C_37
    2  A    between atoms: N_3  and  C_32
    3  A    between atoms: C_5  and  C_27
    4  A    between atoms: C_12  and  C_15
    5  A    between atoms: N_14  and  C_24
    6  A    between atoms: C_15  and  O_20
    7  A    between atoms: C_18  and  C_35
    8  A    between atoms: C_18  and  C_36
    9  A    between atoms: O_20  and  C_32
   10  A    between atoms: C_24  and  C_31
   11  A    between atoms: C_26  and  C_33
   12  A    between atoms: C_31  and  C_36
   13  A    between atoms: C_34  and  C_37
                            x       y       z     vdW  Elec       q    Type
                         _______ _______ _______ _____ _____    ______ ____

>  <TORSDO>
F 13

$$$$
=
 OpenBabel11062421033D

 38 42  0  0  1  0  0  0  0  0999 V2000
  190.3540  175.4620  147.2980 C   0  0  0  0  0  2  0  0  0  0  0  0
  193.5720  175.5890  146.8870 C   0  0  0  0  0  2  0  0  0  0  0  0
  191.3450  174.7770  143.9610 C   0  0  2  0  0  3  0  0  0  0  0  0
  189.0650  174.9630  145.1750 C   0  0  0  0  0  3  0  0  0  0  0  0
  194.5000  177.8480  145.1330 F   0  0  0  0  0  0  0  0  0  0  0  0
  194.7180  176.5230  144.8120 C   0  0  0  0  0  0  0  0  0  0  0  0
  192.7670  174.8510  144.4900 C   0  0  2  0  0  3  0  0  0  0  0  0
  190.5240  174.8410  145.0010 C   0  0  0  0  0  0  0  0  0  0  0  0
  194.8870  175.7240  146.1130 C   0  0  0  0  0  2  0  0  0  0  0  0
  192.5210  175.0900  145.9560 C   0  0  0  0  0  0  0  0  0  0  0  0
  191.2270  175.0490  146.1890 C   0  0  0  0  0  0  0  0  0  0  0  0
  193.5530  176.0390  143.9240 C   0  0  0  0  0  2  0  0  0  0  0  0
  188.9440  175.4370  146.6490 C   0  0  2  0  0  3  0  0  0  0  0  0
  195.8880  176.4360  144.0860 F   0  0  0  0  0  0  0  0  0  0  0  0
  190.3630  172.6910  142.4240 S   0  0  0  0  0  0  0  0  0  0  0  0
  190.9200  174.4430  142.5580 C   0  0  2  0  0  3  0  0  0  0  0  0
  191.9040  173.5590  141.9240 C   0  0  2  0  0  3  0  0  0  0  0  0
  191.8920  173.7850  140.4130 C   0  0  0  0  0  2  0  0  0  0  0  0
  190.6260  173.1750  139.8380 C   0  0  1  0  0  3  0  0  0  0  0  0
  190.3210  173.7920  138.5360 N   0  0  0  0  0  0  0  0  0  0  0  0
  190.9560  172.4600  138.6110 C   0  0  0  0  0  2  0  0  0  0  0  0
  188.1830  174.1440  139.6220 C   0  0  0  0  0  1  0  0  0  0  0  0
  188.8700  173.6610  138.3560 C   0  0  1  0  0  3  0  0  0  0  0  0
  188.4020  174.4220  137.2670 O   0  0  0  0  0  0  0  0  0  0  0  0
  187.4450  175.2830  137.8270 C   0  0  0  0  0  2  0  0  0  0  0  0
  186.7000  176.0430  136.7270 C   0  0  0  0  0  2  0  0  0  0  0  0
  187.5540  176.3440  135.6680 O   0  0  0  0  0  1  0  0  0  0  0  0
  188.3540  176.8420  146.6570 C   0  0  0  0  0  2  0  0  0  0  0  0
  186.8530  176.8070  146.4090 C   0  0  0  0  0  2  0  0  0  0  0  0
  185.1380  178.2160  147.3380 O   0  0  0  0  0  1  0  0  0  0  0  0
  186.2260  178.2010  146.4660 C   0  0  2  0  0  3  0  0  0  0  0  0
  185.7950  178.6960  145.0920 C   0  0  0  0  0  2  0  0  0  0  0  0
  186.7660  178.2990  144.0840 N   0  0  0  0  0  2  0  0  0  0  0  0
  185.3450  178.6670  142.2730 O   0  0  0  0  0  0  0  0  0  0  0  0
  186.4790  178.3080  142.6840 C   0  0  0  0  0  0  0  0  0  0  0  0
  188.9410  177.8970  142.0920 C   0  0  0  0  0  1  0  0  0  0  0  0
  187.1640  177.4850  140.5770 O   0  0  0  0  0  0  0  0  0  0  0  0
  187.5030  177.8890  141.7210 C   0  0  0  0  0  0  0  0  0  0  0  0
  3  7  1  0  0  0  0
  3  8  1  1  0  0  0
  4 13  1  0  0  0  0
  6  5  1  0  0  0  0
  6  9  1  0  0  0  0
  7 12  1  6  0  0  0
  7 10  1  0  0  0  0
  8  4  2  0  0  0  0
  8 11  1  0  0  0  0
  9  2  1  0  0  0  0
 10 11  2  0  0  0  0
 10  2  1  0  0  0  0
 11  1  1  0  0  0  0
 12  6  1  0  0  0  0
 13 28  1  6  0  0  0
 13  1  1  0  0  0  0
 14  6  1  0  0  0  0
 16 15  1  1  0  0  0
 16  3  1  0  0  0  0
 17 18  1  6  0  0  0
 17 15  1  0  0  0  0
 17 16  1  0  0  0  0
 19 18  1  6  0  0  0
 20 21  1  0  0  0  0
 20 19  1  0  0  0  0
 21 19  1  0  0  0  0
 23 20  1  0  0  0  0
 23 22  1  1  0  0  0
 24 25  1  0  0  0  0
 24 23  1  0  0  0  0
 26 25  1  0  0  0  0
 27 26  1  0  0  0  0
 29 31  1  0  0  0  0
 29 28  1  0  0  0  0
 31 30  1  1  0  0  0
 32 31  1  0  0  0  0
 33 32  1  0  0  0  0
 34 35  2  0  0  0  0
 35 33  1  0  0  0  0
 37 38  2  0  0  0  0
 38 36  1  0  0  0  0
 38 35  1  0  0  0  0
M  END
>  <MODEL>
9

>  <REMARK>
 VINA RESULT:      -6.5      2.242      3.069
  Name = 
  13 active torsions:
  status: ('A' for Active; 'I' for Inactive)
    1  A    between atoms: C_1  and  C_37
    2  A    between atoms: N_3  and  C_32
    3  A    between atoms: C_5  and  C_27
    4  A    between atoms: C_12  and  C_15
    5  A    between atoms: N_14  and  C_24
    6  A    between atoms: C_15  and  O_20
    7  A    between atoms: C_18  and  C_35
    8  A    between atoms: C_18  and  C_36
    9  A    between atoms: O_20  and  C_32
   10  A    between atoms: C_24  and  C_31
   11  A    between atoms: C_26  and  C_33
   12  A    between atoms: C_31  and  C_36
   13  A    between atoms: C_34  and  C_37
                            x       y       z     vdW  Elec       q    Type
                         _______ _______ _______ _____ _____    ______ ____

>  <TORSDO>
F 13

$$$$
