=
 OpenBabel11062419563D

 28 30  0  0  0  0  0  0  0  0999 V2000
  188.0760  175.9900  147.1240 N   0  0  0  0  0  2  0  0  0  0  0  0
  189.4530  176.0650  146.7520 C   0  0  0  0  0  0  0  0  0  0  0  0
  191.2170  176.9120  145.3170 C   0  0  0  0  0  3  0  0  0  0  0  0
  192.1670  176.1840  146.0500 C   0  0  0  0  0  0  0  0  0  0  0  0
  191.7530  175.4000  147.1300 C   0  0  0  0  0  3  0  0  0  0  0  0
  189.8650  176.8510  145.6670 C   0  0  0  0  0  3  0  0  0  0  0  0
  190.4020  175.3410  147.4810 C   0  0  0  0  0  3  0  0  0  0  0  0
  193.5220  176.2270  145.7200 O   0  0  0  0  0  0  0  0  0  0  0  0
  194.4050  175.2700  146.1740 N   0  0  0  0  0  0  0  0  0  0  0  0
  197.1310  174.9090  143.8320 C   0  0  0  0  0  2  0  0  0  0  0  0
  195.4930  174.9970  145.5280 C   0  0  0  0  0  0  0  0  0  0  0  0
  196.4510  173.9770  145.9950 C   0  0  0  0  0  2  0  0  0  0  0  0
  197.6230  174.1120  145.0380 C   0  0  0  0  0  2  0  0  0  0  0  0
  195.8920  175.6690  144.2720 C   0  0  0  0  0  2  0  0  0  0  0  0
  187.0590  176.3620  146.2340 N   0  0  0  0  0  2  0  0  0  0  0  0
  186.2660  177.5310  146.4510 C   0  0  0  0  0  0  0  0  0  0  0  0
  186.4910  178.2710  147.4870 N   0  0  0  0  0  2  0  0  0  0  0  0
  186.5650  177.6060  143.3990 C   0  0  0  0  0  3  0  0  0  0  0  0
  183.9610  178.2900  146.0120 O   0  0  0  0  0  1  0  0  0  0  0  0
  184.3520  178.3390  143.2550 N   0  0  0  0  0  0  0  0  0  0  0  0
  186.1780  177.8210  142.1460 C   0  0  0  0  0  0  0  0  0  0  0  0
  185.2040  177.9290  145.4980 C   0  0  0  0  0  0  0  0  0  0  0  0
  185.3730  177.9580  144.1670 C   0  0  0  0  0  0  0  0  0  0  0  0
  184.8210  178.2550  142.0790 N   0  0  0  0  0  0  0  0  0  0  0  0
  186.3440  177.9320  139.7970 F   0  0  0  0  0  0  0  0  0  0  0  0
  188.2110  178.2340  141.0190 F   0  0  0  0  0  0  0  0  0  0  0  0
  187.2820  176.1850  140.8700 F   0  0  0  0  0  0  0  0  0  0  0  0
  187.0170  177.5400  140.9410 C   0  0  0  0  0  0  0  0  0  0  0  0
  2  1  1  0  0  0  0
  2  7  1  0  0  0  0
  3  6  1  0  0  0  0
  3  4  2  0  0  0  0
  4  5  1  0  0  0  0
  5  7  2  0  0  0  0
  6  2  2  0  0  0  0
  8  4  1  0  0  0  0
  8  9  1  0  0  0  0
 10 14  1  0  0  0  0
 10 13  1  0  0  0  0
 11 12  1  0  0  0  0
 11  9  2  0  0  0  0
 13 12  1  0  0  0  0
 14 11  1  0  0  0  0
 15 16  1  0  0  0  0
 15  1  1  0  0  0  0
 16 17  2  0  0  0  0
 18 23  1  0  0  0  0
 20 23  1  0  0  0  0
 21 18  2  0  0  0  0
 22 19  1  0  0  0  0
 22 16  1  0  0  0  0
 23 22  2  0  0  0  0
 24 21  1  0  0  0  0
 24 20  2  0  0  0  0
 25 28  1  0  0  0  0
 27 28  1  0  0  0  0
 28 26  1  0  0  0  0
 28 21  1  0  0  0  0
M  END
>  <MODEL>
1

>  <REMARK>
 VINA RESULT:      -7.6      0.000      0.000
  Name = 
  6 active torsions:
  status: ('A' for Active; 'I' for Inactive)
    1  A    between atoms: C_1  and  N_5
    2  A    between atoms: N_2  and  O_21
    3  A    between atoms: N_5  and  N_10
    4  A    between atoms: C_12  and  C_19
    5  A    between atoms: C_15  and  O_21
    6  A    between atoms: C_18  and  C_28
                            x       y       z     vdW  Elec       q    Type
                         _______ _______ _______ _____ _____    ______ ____

>  <TORSDO>
F 6

$$$$
=
 OpenBabel11062419563D

 28 30  0  0  1  0  0  0  0  0999 V2000
  188.6810  175.7180  142.2200 N   0  0  0  0  0  2  0  0  0  0  0  0
  189.9500  175.9360  142.8380 C   0  0  0  0  0  0  0  0  0  0  0  0
  192.0910  175.1140  143.6280 C   0  0  0  0  0  3  0  0  0  0  0  0
  192.4320  176.4040  144.0610 C   0  0  0  0  0  0  0  0  0  0  0  0
  191.5270  177.4540  143.8800 C   0  0  0  0  0  3  0  0  0  0  0  0
  190.8550  174.8810  143.0190 C   0  0  0  0  0  3  0  0  0  0  0  0
  190.2910  177.2220  143.2700 C   0  0  0  0  0  3  0  0  0  0  0  0
  193.6590  176.6610  144.6720 O   0  0  0  0  0  0  0  0  0  0  0  0
  194.8510  176.3330  144.0610 N   0  0  0  0  0  0  0  0  0  0  0  0
  196.6770  173.9900  146.1150 C   0  0  0  0  0  2  0  0  0  0  0  0
  195.6600  175.4680  144.5830 C   0  0  0  0  0  0  0  0  0  0  0  0
  196.9410  175.1030  143.9480 C   0  0  0  0  0  2  0  0  0  0  0  0
  197.4630  173.9650  144.8060 C   0  0  0  0  0  2  0  0  0  0  0  0
  195.3930  174.7580  145.8530 C   0  0  0  0  0  2  0  0  0  0  0  0
  187.4920  176.1570  142.8180 N   0  0  0  0  0  2  0  0  0  0  0  0
  186.7650  177.2760  142.3050 C   0  0  0  0  0  0  0  0  0  0  0  0
  187.2060  177.8980  141.2600 N   0  0  0  0  0  2  0  0  0  0  0  0
  186.4170  178.0090  145.2630 C   0  0  0  0  0  3  0  0  0  0  0  0
  184.3710  177.8370  142.1230 O   0  0  0  0  0  1  0  0  0  0  0  0
  184.1660  178.4590  144.8300 N   0  0  0  0  0  0  0  0  0  0  0  0
  185.7540  178.3910  146.3490 C   0  0  2  0  0  3  0  0  0  0  0  0
  185.5000  177.7240  142.9310 C   0  0  2  0  0  3  0  0  0  0  0  0
  185.3810  178.0290  144.2320 C   0  0  0  0  0  0  0  0  0  0  0  0
  184.3850  178.6730  146.0610 N   0  0  0  0  0  0  0  0  0  0  0  0
  187.7330  178.3310  147.6290 F   0  0  0  0  0  0  0  0  0  0  0  0
  186.2050  179.9200  148.0910 F   0  0  0  0  0  0  0  0  0  0  0  0
  185.7850  177.7670  148.6150 F   0  0  0  0  0  0  0  0  0  0  0  0
  186.3780  178.6070  147.6900 C   0  0  0  0  0  0  0  0  0  0  0  0
  1 15  1  0  0  0  0
  1  2  1  0  0  0  0
  2  6  2  0  0  0  0
  2  7  1  0  0  0  0
  3  4  2  0  0  0  0
  4  8  1  0  0  0  0
  5  4  1  0  0  0  0
  6  3  1  0  0  0  0
  7  5  2  0  0  0  0
  9 11  2  0  0  0  0
  9  8  1  0  0  0  0
 11 14  1  0  0  0  0
 12 11  1  0  0  0  0
 12 13  1  0  0  0  0
 13 10  1  0  0  0  0
 14 10  1  0  0  0  0
 16 15  1  0  0  0  0
 16 22  1  0  0  0  0
 17 16  2  0  0  0  0
 18 21  1  0  0  0  0
 20 24  2  0  0  0  0
 21 28  1  6  0  0  0
 22 19  1  6  0  0  0
 22 23  1  0  0  0  0
 23 20  1  0  0  0  0
 23 18  2  0  0  0  0
 24 21  1  0  0  0  0
 25 28  1  0  0  0  0
 28 26  1  0  0  0  0
 28 27  1  0  0  0  0
M  END
>  <MODEL>
2

>  <REMARK>
 VINA RESULT:      -7.5      3.209      4.169
  Name = 
  6 active torsions:
  status: ('A' for Active; 'I' for Inactive)
    1  A    between atoms: C_1  and  N_5
    2  A    between atoms: N_2  and  O_21
    3  A    between atoms: N_5  and  N_10
    4  A    between atoms: C_12  and  C_19
    5  A    between atoms: C_15  and  O_21
    6  A    between atoms: C_18  and  C_28
                            x       y       z     vdW  Elec       q    Type
                         _______ _______ _______ _____ _____    ______ ____

>  <TORSDO>
F 6

$$$$
=
 OpenBabel11062419563D

 28 30  0  0  1  0  0  0  0  0999 V2000
  187.9400  175.1440  141.8850 N   0  0  0  0  0  2  0  0  0  0  0  0
  189.0670  174.7090  142.6450 C   0  0  0  0  0  0  0  0  0  0  0  0
  191.0950  175.1860  143.8890 C   0  0  0  0  0  3  0  0  0  0  0  0
  191.2740  173.8160  144.1310 C   0  0  0  0  0  0  0  0  0  0  0  0
  190.3470  172.8990  143.6270 C   0  0  0  0  0  3  0  0  0  0  0  0
  189.9960  175.6300  143.1490 C   0  0  0  0  0  3  0  0  0  0  0  0
  189.2470  173.3440  142.8870 C   0  0  0  0  0  3  0  0  0  0  0  0
  192.3620  173.3470  144.8670 O   0  0  0  0  0  0  0  0  0  0  0  0
  193.3760  174.1900  145.2700 N   0  0  0  0  0  0  0  0  0  0  0  0
  196.3960  172.2920  145.8360 C   0  0  0  0  0  2  0  0  0  0  0  0
  194.5730  173.7490  145.4860 C   0  0  0  0  0  0  0  0  0  0  0  0
  195.6730  174.6320  145.9190 C   0  0  0  0  0  2  0  0  0  0  0  0
  196.8970  173.7340  145.8900 C   0  0  0  0  0  2  0  0  0  0  0  0
  194.9670  172.3320  145.3240 C   0  0  0  0  0  2  0  0  0  0  0  0
  186.8170  175.7110  142.5030 N   0  0  0  0  0  2  0  0  0  0  0  0
  186.4800  177.0880  142.3250 C   0  0  0  0  0  0  0  0  0  0  0  0
  187.2210  177.8330  141.5710 N   0  0  0  0  0  2  0  0  0  0  0  0
  186.2800  177.9240  145.2690 C   0  0  0  0  0  3  0  0  0  0  0  0
  184.1510  177.8840  142.1810 O   0  0  0  0  0  1  0  0  0  0  0  0
  184.0760  178.5880  144.8740 N   0  0  0  0  0  0  0  0  0  0  0  0
  185.6860  178.3970  146.3590 C   0  0  2  0  0  3  0  0  0  0  0  0
  185.2810  177.6770  142.9670 C   0  0  2  0  0  3  0  0  0  0  0  0
  185.2270  178.0240  144.2620 C   0  0  0  0  0  0  0  0  0  0  0  0
  184.3460  178.8090  146.0940 N   0  0  0  0  0  0  0  0  0  0  0  0
  187.7050  178.2690  147.5690 F   0  0  0  0  0  0  0  0  0  0  0  0
  186.2390  179.8940  148.1000 F   0  0  0  0  0  0  0  0  0  0  0  0
  185.7780  177.7480  148.6160 F   0  0  0  0  0  0  0  0  0  0  0  0
  186.3620  178.5820  147.6800 C   0  0  0  0  0  0  0  0  0  0  0  0
  1 15  1  0  0  0  0
  1  2  1  0  0  0  0
  2  7  2  0  0  0  0
  2  6  1  0  0  0  0
  3  4  1  0  0  0  0
  4  8  1  0  0  0  0
  5  4  2  0  0  0  0
  6  3  2  0  0  0  0
  7  5  1  0  0  0  0
  8  9  1  0  0  0  0
  9 11  2  0  0  0  0
 10 13  1  0  0  0  0
 11 12  1  0  0  0  0
 13 12  1  0  0  0  0
 14 11  1  0  0  0  0
 14 10  1  0  0  0  0
 16 15  1  0  0  0  0
 16 22  1  0  0  0  0
 17 16  2  0  0  0  0
 18 21  1  0  0  0  0
 20 24  2  0  0  0  0
 21 28  1  6  0  0  0
 22 19  1  6  0  0  0
 22 23  1  0  0  0  0
 23 20  1  0  0  0  0
 23 18  2  0  0  0  0
 24 21  1  0  0  0  0
 25 28  1  0  0  0  0
 28 26  1  0  0  0  0
 28 27  1  0  0  0  0
M  END
>  <MODEL>
3

>  <REMARK>
 VINA RESULT:      -7.5      3.452      4.312
  Name = 
  6 active torsions:
  status: ('A' for Active; 'I' for Inactive)
    1  A    between atoms: C_1  and  N_5
    2  A    between atoms: N_2  and  O_21
    3  A    between atoms: N_5  and  N_10
    4  A    between atoms: C_12  and  C_19
    5  A    between atoms: C_15  and  O_21
    6  A    between atoms: C_18  and  C_28
                            x       y       z     vdW  Elec       q    Type
                         _______ _______ _______ _____ _____    ______ ____

>  <TORSDO>
F 6

$$$$
=
 OpenBabel11062419563D

 28 30  0  0  0  0  0  0  0  0999 V2000
  186.7520  177.2890  145.5770 N   0  0  0  0  0  2  0  0  0  0  0  0
  188.0230  176.8200  146.0260 C   0  0  0  0  0  0  0  0  0  0  0  0
  189.3780  175.2460  147.2810 C   0  0  0  0  0  3  0  0  0  0  0  0
  190.5400  175.9310  146.8930 C   0  0  0  0  0  0  0  0  0  0  0  0
  190.4350  177.0590  146.0740 C   0  0  0  0  0  3  0  0  0  0  0  0
  188.1250  175.6900  146.8490 C   0  0  0  0  0  3  0  0  0  0  0  0
  189.1830  177.5010  145.6410 C   0  0  0  0  0  3  0  0  0  0  0  0
  191.8020  175.5080  147.3110 O   0  0  0  0  0  0  0  0  0  0  0  0
  192.5640  174.6490  146.5480 N   0  0  0  0  0  0  0  0  0  0  0  0
  195.2340  176.4750  144.9430 C   0  0  0  0  0  2  0  0  0  0  0  0
  193.6130  175.0610  145.9140 C   0  0  0  0  0  0  0  0  0  0  0  0
  194.4420  174.1600  145.0900 C   0  0  0  0  0  2  0  0  0  0  0  0
  195.6240  175.0210  144.6820 C   0  0  0  0  0  2  0  0  0  0  0  0
  194.0930  176.4610  145.9450 C   0  0  0  0  0  2  0  0  0  0  0  0
  186.3420  177.1260  144.2470 N   0  0  0  0  0  2  0  0  0  0  0  0
  185.9790  178.2440  143.4330 C   0  0  0  0  0  0  0  0  0  0  0  0
  186.0340  179.4370  143.9280 N   0  0  0  0  0  2  0  0  0  0  0  0
  183.0960  178.4220  142.4010 C   0  0  0  0  0  3  0  0  0  0  0  0
  186.5520  177.8080  141.0750 O   0  0  0  0  0  1  0  0  0  0  0  0
  183.8950  177.9720  140.2530 N   0  0  0  0  0  0  0  0  0  0  0  0
  182.1260  178.3730  141.4940 C   0  0  0  0  0  0  0  0  0  0  0  0
  185.5640  178.0670  142.0220 C   0  0  0  0  0  0  0  0  0  0  0  0
  184.2900  178.1430  141.6070 C   0  0  0  0  0  0  0  0  0  0  0  0
  182.6360  178.1110  140.1880 N   0  0  0  0  0  0  0  0  0  0  0  0
  180.1490  179.4210  140.7510 F   0  0  0  0  0  0  0  0  0  0  0  0
  179.9740  177.4840  141.8860 F   0  0  0  0  0  0  0  0  0  0  0  0
  180.5850  179.3690  142.9630 F   0  0  0  0  0  0  0  0  0  0  0  0
  180.6870  178.6640  141.7770 C   0  0  0  0  0  0  0  0  0  0  0  0
  1  2  1  0  0  0  0
  2  6  1  0  0  0  0
  4  3  1  0  0  0  0
  4  8  1  0  0  0  0
  5  4  2  0  0  0  0
  6  3  2  0  0  0  0
  7  2  2  0  0  0  0
  7  5  1  0  0  0  0
  9  8  1  0  0  0  0
 10 14  1  0  0  0  0
 11 14  1  0  0  0  0
 11  9  2  0  0  0  0
 12 11  1  0  0  0  0
 13 10  1  0  0  0  0
 13 12  1  0  0  0  0
 15  1  1  0  0  0  0
 16 17  2  0  0  0  0
 16 15  1  0  0  0  0
 19 22  1  0  0  0  0
 20 23  1  0  0  0  0
 21 28  1  0  0  0  0
 21 18  2  0  0  0  0
 22 16  1  0  0  0  0
 23 22  2  0  0  0  0
 23 18  1  0  0  0  0
 24 20  2  0  0  0  0
 24 21  1  0  0  0  0
 25 28  1  0  0  0  0
 28 26  1  0  0  0  0
 28 27  1  0  0  0  0
M  END
>  <MODEL>
4

>  <REMARK>
 VINA RESULT:      -7.3      3.135      3.881
  Name = 
  6 active torsions:
  status: ('A' for Active; 'I' for Inactive)
    1  A    between atoms: C_1  and  N_5
    2  A    between atoms: N_2  and  O_21
    3  A    between atoms: N_5  and  N_10
    4  A    between atoms: C_12  and  C_19
    5  A    between atoms: C_15  and  O_21
    6  A    between atoms: C_18  and  C_28
                            x       y       z     vdW  Elec       q    Type
                         _______ _______ _______ _____ _____    ______ ____

>  <TORSDO>
F 6

$$$$
=
 OpenBabel11062419563D

 28 30  0  0  1  0  0  0  0  0999 V2000
  190.6760  175.5370  146.3630 N   0  0  0  0  0  2  0  0  0  0  0  0
  192.0870  175.3750  146.2110 C   0  0  0  0  0  0  0  0  0  0  0  0
  194.3520  176.2160  146.4320 C   0  0  0  0  0  3  0  0  0  0  0  0
  194.8520  175.0220  145.8920 C   0  0  0  0  0  0  0  0  0  0  0  0
  193.9650  174.0100  145.5140 C   0  0  0  0  0  3  0  0  0  0  0  0
  192.9740  176.3910  146.5900 C   0  0  0  0  0  3  0  0  0  0  0  0
  192.5880  174.1850  145.6730 C   0  0  0  0  0  3  0  0  0  0  0  0
  196.2230  174.8230  145.7240 O   0  0  0  0  0  0  0  0  0  0  0  0
  196.7340  174.2620  144.5720 N   0  0  0  0  0  0  0  0  0  0  0  0
  196.5950  176.6620  141.8760 C   0  0  0  0  0  2  0  0  0  0  0  0
  196.8370  174.9460  143.4790 C   0  0  0  0  0  0  0  0  0  0  0  0
  197.3780  174.3670  142.2340 C   0  0  0  0  0  2  0  0  0  0  0  0
  197.4590  175.5500  141.2860 C   0  0  0  0  0  2  0  0  0  0  0  0
  196.4310  176.3640  143.3560 C   0  0  0  0  0  2  0  0  0  0  0  0
  189.9680  176.4990  145.6290 N   0  0  0  0  0  2  0  0  0  0  0  0
  189.2810  176.1620  144.4220 C   0  0  0  0  0  0  0  0  0  0  0  0
  189.3040  174.9420  143.9940 N   0  0  0  0  0  2  0  0  0  0  0  0
  186.6230  177.4110  145.3060 C   0  0  0  0  0  3  0  0  0  0  0  0
  189.0460  177.6220  142.4490 O   0  0  0  0  0  1  0  0  0  0  0  0
  186.6260  178.6740  143.3410 N   0  0  0  0  0  0  0  0  0  0  0  0
  185.5520  178.1900  145.1980 C   0  0  2  0  0  3  0  0  0  0  0  0
  188.5200  177.1790  143.6600 C   0  0  2  0  0  3  0  0  0  0  0  0
  187.3540  177.6980  144.0740 C   0  0  0  0  0  0  0  0  0  0  0  0
  185.5800  178.9630  143.9990 N   0  0  0  0  0  0  0  0  0  0  0  0
  184.9800  179.0890  147.3010 F   0  0  0  0  0  0  0  0  0  0  0  0
  183.3800  178.9530  145.7220 F   0  0  0  0  0  0  0  0  0  0  0  0
  184.1440  177.0790  146.7160 F   0  0  0  0  0  0  0  0  0  0  0  0
  184.4970  178.3310  146.2480 C   0  0  0  0  0  0  0  0  0  0  0  0
  2  1  1  0  0  0  0
  2  6  1  0  0  0  0
  3  6  2  0  0  0  0
  4  3  1  0  0  0  0
  5  7  1  0  0  0  0
  5  4  2  0  0  0  0
  7  2  2  0  0  0  0
  8  4  1  0  0  0  0
  9  8  1  0  0  0  0
 10 14  1  0  0  0  0
 11  9  2  0  0  0  0
 12 11  1  0  0  0  0
 13 10  1  0  0  0  0
 13 12  1  0  0  0  0
 14 11  1  0  0  0  0
 15  1  1  0  0  0  0
 16 15  1  0  0  0  0
 17 16  2  0  0  0  0
 20 24  2  0  0  0  0
 20 23  1  0  0  0  0
 21 18  1  0  0  0  0
 21 28  1  1  0  0  0
 22 19  1  1  0  0  0
 22 23  1  0  0  0  0
 22 16  1  0  0  0  0
 23 18  2  0  0  0  0
 24 21  1  0  0  0  0
 26 28  1  0  0  0  0
 28 27  1  0  0  0  0
 28 25  1  0  0  0  0
M  END
>  <MODEL>
5

>  <REMARK>
 VINA RESULT:      -7.3      3.134      4.015
  Name = 
  6 active torsions:
  status: ('A' for Active; 'I' for Inactive)
    1  A    between atoms: C_1  and  N_5
    2  A    between atoms: N_2  and  O_21
    3  A    between atoms: N_5  and  N_10
    4  A    between atoms: C_12  and  C_19
    5  A    between atoms: C_15  and  O_21
    6  A    between atoms: C_18  and  C_28
                            x       y       z     vdW  Elec       q    Type
                         _______ _______ _______ _____ _____    ______ ____

>  <TORSDO>
F 6

$$$$
=
 OpenBabel11062419563D

 28 30  0  0  1  0  0  0  0  0999 V2000
  187.8920  177.8800  142.6010 N   0  0  0  0  0  2  0  0  0  0  0  0
  186.5340  178.0150  142.1790 C   0  0  0  0  0  0  0  0  0  0  0  0
  184.1870  178.3700  142.6760 C   0  0  0  0  0  3  0  0  0  0  0  0
  183.8780  178.2710  141.3110 C   0  0  0  0  0  0  0  0  0  0  0  0
  184.9020  178.0450  140.3870 C   0  0  0  0  0  3  0  0  0  0  0  0
  185.5090  178.2410  143.1080 C   0  0  0  0  0  3  0  0  0  0  0  0
  186.2250  177.9180  140.8180 C   0  0  0  0  0  3  0  0  0  0  0  0
  182.5650  178.3950  140.8550 O   0  0  0  0  0  0  0  0  0  0  0  0
  181.5130  178.5710  141.7290 N   0  0  0  0  0  0  0  0  0  0  0  0
  178.3870  178.0060  140.0100 C   0  0  0  0  0  2  0  0  0  0  0  0
  180.2890  178.3740  141.3570 C   0  0  0  0  0  0  0  0  0  0  0  0
  179.1470  178.5580  142.2740 C   0  0  0  0  0  2  0  0  0  0  0  0
  177.9540  178.0690  141.4730 C   0  0  0  0  0  2  0  0  0  0  0  0
  179.9040  177.9470  139.9930 C   0  0  0  0  0  2  0  0  0  0  0  0
  188.2180  177.6390  143.9430 N   0  0  0  0  0  2  0  0  0  0  0  0
  188.5740  176.3330  144.4030 C   0  0  0  0  0  0  0  0  0  0  0  0
  188.6040  175.3480  143.5660 N   0  0  0  0  0  2  0  0  0  0  0  0
  191.4240  176.3820  145.5350 C   0  0  0  0  0  3  0  0  0  0  0  0
  187.9100  175.8230  146.7220 O   0  0  0  0  0  1  0  0  0  0  0  0
  190.5400  175.8740  147.6360 N   0  0  0  0  0  0  0  0  0  0  0  0
  192.3620  176.2680  146.4700 C   0  0  2  0  0  3  0  0  0  0  0  0
  188.9360  176.0880  145.8190 C   0  0  2  0  0  3  0  0  0  0  0  0
  190.1960  176.1090  146.2780 C   0  0  0  0  0  0  0  0  0  0  0  0
  191.8000  175.9710  147.7480 N   0  0  0  0  0  0  0  0  0  0  0  0
  194.2500  177.5390  147.0850 F   0  0  0  0  0  0  0  0  0  0  0  0
  194.5500  175.3830  146.5080 F   0  0  0  0  0  0  0  0  0  0  0  0
  194.0200  176.9070  144.9330 F   0  0  0  0  0  0  0  0  0  0  0  0
  193.8170  176.5260  146.2470 C   0  0  0  0  0  0  0  0  0  0  0  0
  1 15  1  0  0  0  0
  2  1  1  0  0  0  0
  2  6  1  0  0  0  0
  3  6  2  0  0  0  0
  4  3  1  0  0  0  0
  5  7  1  0  0  0  0
  5  4  2  0  0  0  0
  7  2  2  0  0  0  0
  8  4  1  0  0  0  0
  8  9  1  0  0  0  0
 10 13  1  0  0  0  0
 11  9  2  0  0  0  0
 11 12  1  0  0  0  0
 13 12  1  0  0  0  0
 14 10  1  0  0  0  0
 14 11  1  0  0  0  0
 15 16  1  0  0  0  0
 16 22  1  0  0  0  0
 17 16  2  0  0  0  0
 18 23  2  0  0  0  0
 18 21  1  0  0  0  0
 20 24  2  0  0  0  0
 21 28  1  1  0  0  0
 21 24  1  0  0  0  0
 22 23  1  0  0  0  0
 22 19  1  1  0  0  0
 23 20  1  0  0  0  0
 27 28  1  0  0  0  0
 28 26  1  0  0  0  0
 28 25  1  0  0  0  0
M  END
>  <MODEL>
6

>  <REMARK>
 VINA RESULT:      -7.2      4.563     10.531
  Name = 
  6 active torsions:
  status: ('A' for Active; 'I' for Inactive)
    1  A    between atoms: C_1  and  N_5
    2  A    between atoms: N_2  and  O_21
    3  A    between atoms: N_5  and  N_10
    4  A    between atoms: C_12  and  C_19
    5  A    between atoms: C_15  and  O_21
    6  A    between atoms: C_18  and  C_28
                            x       y       z     vdW  Elec       q    Type
                         _______ _______ _______ _____ _____    ______ ____

>  <TORSDO>
F 6

$$$$
=
 OpenBabel11062419563D

 28 30  0  0  1  0  0  0  0  0999 V2000
  191.2100  176.7870  145.8300 N   0  0  0  0  0  2  0  0  0  0  0  0
  192.5390  176.3770  145.5050 C   0  0  0  0  0  0  0  0  0  0  0  0
  194.2230  175.7450  143.8770 C   0  0  0  0  0  3  0  0  0  0  0  0
  195.1590  175.5680  144.9080 C   0  0  0  0  0  0  0  0  0  0  0  0
  194.7770  175.7970  146.2330 C   0  0  0  0  0  3  0  0  0  0  0  0
  192.9180  176.1470  144.1760 C   0  0  0  0  0  3  0  0  0  0  0  0
  193.4730  176.2000  146.5310 C   0  0  0  0  0  3  0  0  0  0  0  0
  196.4670  175.1660  144.6360 O   0  0  0  0  0  0  0  0  0  0  0  0
  196.7350  174.1000  143.8040 N   0  0  0  0  0  0  0  0  0  0  0  0
  197.1900  171.1000  145.7630 C   0  0  0  0  0  2  0  0  0  0  0  0
  196.8870  172.9030  144.2700 C   0  0  0  0  0  0  0  0  0  0  0  0
  197.1770  171.7470  143.3990 C   0  0  0  0  0  2  0  0  0  0  0  0
  197.1120  170.5560  144.3380 C   0  0  0  0  0  2  0  0  0  0  0  0
  196.7880  172.5630  145.7070 C   0  0  0  0  0  2  0  0  0  0  0  0
  190.1990  176.8200  144.8590 N   0  0  0  0  0  2  0  0  0  0  0  0
  189.2850  175.7340  144.6940 C   0  0  0  0  0  0  0  0  0  0  0  0
  189.3830  174.6960  145.4590 N   0  0  0  0  0  2  0  0  0  0  0  0
  186.8090  177.5400  144.8270 C   0  0  0  0  0  3  0  0  0  0  0  0
  188.3180  174.9550  142.5640 O   0  0  0  0  0  1  0  0  0  0  0  0
  186.1000  176.6240  142.7980 N   0  0  0  0  0  0  0  0  0  0  0  0
  185.6470  178.0390  144.4190 C   0  0  2  0  0  3  0  0  0  0  0  0
  188.2070  175.7820  143.6790 C   0  0  2  0  0  3  0  0  0  0  0  0
  187.1320  176.5800  143.7740 C   0  0  0  0  0  0  0  0  0  0  0  0
  185.2390  177.4770  143.1730 N   0  0  0  0  0  0  0  0  0  0  0  0
  185.6150  179.5510  146.2270 F   0  0  0  0  0  0  0  0  0  0  0  0
  184.7300  180.2090  144.2640 F   0  0  0  0  0  0  0  0  0  0  0  0
  183.6670  178.6660  145.5180 F   0  0  0  0  0  0  0  0  0  0  0  0
  184.9040  179.1330  145.1160 C   0  0  0  0  0  0  0  0  0  0  0  0
  2  1  1  0  0  0  0
  2  7  1  0  0  0  0
  3  6  1  0  0  0  0
  3  4  2  0  0  0  0
  4  5  1  0  0  0  0
  5  7  2  0  0  0  0
  6  2  2  0  0  0  0
  8  4  1  0  0  0  0
  9 11  2  0  0  0  0
  9  8  1  0  0  0  0
 11 14  1  0  0  0  0
 12 11  1  0  0  0  0
 12 13  1  0  0  0  0
 13 10  1  0  0  0  0
 14 10  1  0  0  0  0
 15  1  1  0  0  0  0
 16 15  1  0  0  0  0
 16 17  2  0  0  0  0
 20 24  2  0  0  0  0
 20 23  1  0  0  0  0
 21 18  1  0  0  0  0
 21 28  1  6  0  0  0
 22 19  1  6  0  0  0
 22 23  1  0  0  0  0
 22 16  1  0  0  0  0
 23 18  2  0  0  0  0
 24 21  1  0  0  0  0
 26 28  1  0  0  0  0
 28 27  1  0  0  0  0
 28 25  1  0  0  0  0
M  END
>  <MODEL>
7

>  <REMARK>
 VINA RESULT:      -7.0      3.054      3.947
  Name = 
  6 active torsions:
  status: ('A' for Active; 'I' for Inactive)
    1  A    between atoms: C_1  and  N_5
    2  A    between atoms: N_2  and  O_21
    3  A    between atoms: N_5  and  N_10
    4  A    between atoms: C_12  and  C_19
    5  A    between atoms: C_15  and  O_21
    6  A    between atoms: C_18  and  C_28
                            x       y       z     vdW  Elec       q    Type
                         _______ _______ _______ _____ _____    ______ ____

>  <TORSDO>
F 6

$$$$
=
 OpenBabel11062419563D

 28 30  0  0  0  0  0  0  0  0999 V2000
  188.9590  175.0570  147.3190 N   0  0  0  0  0  2  0  0  0  0  0  0
  190.0680  174.6950  146.4960 C   0  0  0  0  0  0  0  0  0  0  0  0
  190.9920  173.5390  144.5740 C   0  0  0  0  0  3  0  0  0  0  0  0
  192.2740  174.0010  144.9070 C   0  0  0  0  0  0  0  0  0  0  0  0
  192.4450  174.8090  146.0340 C   0  0  0  0  0  3  0  0  0  0  0  0
  189.8940  173.8840  145.3670 C   0  0  0  0  0  3  0  0  0  0  0  0
  191.3470  175.1560  146.8260 C   0  0  0  0  0  3  0  0  0  0  0  0
  193.3860  173.6700  144.1320 O   0  0  0  0  0  0  0  0  0  0  0  0
  194.6360  174.1810  144.4090 N   0  0  0  0  0  0  0  0  0  0  0  0
  195.6570  176.4210  141.7660 C   0  0  0  0  0  2  0  0  0  0  0  0
  195.1970  175.0500  143.6300 C   0  0  0  0  0  0  0  0  0  0  0  0
  196.5340  175.6090  143.9060 C   0  0  0  0  0  2  0  0  0  0  0  0
  196.7090  176.6790  142.8430 C   0  0  0  0  0  2  0  0  0  0  0  0
  194.5680  175.5720  142.3970 C   0  0  0  0  0  2  0  0  0  0  0  0
  187.9000  175.8280  146.8190 N   0  0  0  0  0  2  0  0  0  0  0  0
  187.9540  177.2560  146.8100 C   0  0  0  0  0  0  0  0  0  0  0  0
  189.0040  177.8580  147.2670 N   0  0  0  0  0  2  0  0  0  0  0  0
  187.3520  177.6550  143.8290 C   0  0  0  0  0  3  0  0  0  0  0  0
  185.9810  178.6920  147.1630 O   0  0  0  0  0  1  0  0  0  0  0  0
  185.5410  179.0010  144.4300 N   0  0  0  0  0  0  0  0  0  0  0  0
  186.7030  178.1390  142.7750 C   0  0  0  0  0  0  0  0  0  0  0  0
  186.8390  178.0650  146.2640 C   0  0  0  0  0  0  0  0  0  0  0  0
  186.6110  178.2250  144.9510 C   0  0  0  0  0  0  0  0  0  0  0  0
  185.5930  178.9460  143.1640 N   0  0  0  0  0  0  0  0  0  0  0  0
  188.3020  178.2150  141.0450 F   0  0  0  0  0  0  0  0  0  0  0  0
  186.9340  176.4300  141.1620 F   0  0  0  0  0  0  0  0  0  0  0  0
  186.1210  178.4320  140.5170 F   0  0  0  0  0  0  0  0  0  0  0  0
  187.0200  177.7970  141.3550 C   0  0  0  0  0  0  0  0  0  0  0  0
  2  7  1  0  0  0  0
  2  1  1  0  0  0  0
  3  4  2  0  0  0  0
  3  6  1  0  0  0  0
  4  5  1  0  0  0  0
  5  7  2  0  0  0  0
  6  2  2  0  0  0  0
  8  9  1  0  0  0  0
  8  4  1  0  0  0  0
 10 14  1  0  0  0  0
 10 13  1  0  0  0  0
 11 12  1  0  0  0  0
 11  9  2  0  0  0  0
 13 12  1  0  0  0  0
 14 11  1  0  0  0  0
 15  1  1  0  0  0  0
 16 15  1  0  0  0  0
 16 17  2  0  0  0  0
 18 23  1  0  0  0  0
 20 23  1  0  0  0  0
 21 24  1  0  0  0  0
 21 18  2  0  0  0  0
 22 16  1  0  0  0  0
 22 19  1  0  0  0  0
 23 22  2  0  0  0  0
 24 20  2  0  0  0  0
 25 28  1  0  0  0  0
 26 28  1  0  0  0  0
 27 28  1  0  0  0  0
 28 21  1  0  0  0  0
M  END
>  <MODEL>
8

>  <REMARK>
 VINA RESULT:      -7.0      1.733      2.163
  Name = 
  6 active torsions:
  status: ('A' for Active; 'I' for Inactive)
    1  A    between atoms: C_1  and  N_5
    2  A    between atoms: N_2  and  O_21
    3  A    between atoms: N_5  and  N_10
    4  A    between atoms: C_12  and  C_19
    5  A    between atoms: C_15  and  O_21
    6  A    between atoms: C_18  and  C_28
                            x       y       z     vdW  Elec       q    Type
                         _______ _______ _______ _____ _____    ______ ____

>  <TORSDO>
F 6

$$$$
=
 OpenBabel11062419563D

 28 30  0  0  0  0  0  0  0  0999 V2000
  192.2120  175.1060  146.8290 N   0  0  0  0  0  2  0  0  0  0  0  0
  191.1350  175.5830  146.0210 C   0  0  0  0  0  0  0  0  0  0  0  0
  189.8570  177.4050  145.0550 C   0  0  0  0  0  3  0  0  0  0  0  0
  189.0050  176.4810  144.4300 C   0  0  0  0  0  0  0  0  0  0  0  0
  189.2240  175.1120  144.6060 C   0  0  0  0  0  3  0  0  0  0  0  0
  190.9170  176.9570  145.8480 C   0  0  0  0  0  3  0  0  0  0  0  0
  190.2850  174.6640  145.3970 C   0  0  0  0  0  3  0  0  0  0  0  0
  187.9390  176.9040  143.6350 O   0  0  0  0  0  0  0  0  0  0  0  0
  187.2390  178.0560  143.9210 N   0  0  0  0  0  0  0  0  0  0  0  0
  184.6740  177.3570  146.3660 C   0  0  0  0  0  2  0  0  0  0  0  0
  186.2980  178.0700  144.8090 C   0  0  0  0  0  0  0  0  0  0  0  0
  185.5340  179.2910  145.1310 C   0  0  0  0  0  2  0  0  0  0  0  0
  184.6730  178.8830  146.3120 C   0  0  0  0  0  2  0  0  0  0  0  0
  185.8910  176.8820  145.5920 C   0  0  0  0  0  2  0  0  0  0  0  0
  193.3580  174.5370  146.2560 N   0  0  0  0  0  2  0  0  0  0  0  0
  194.5680  175.2830  146.1070 C   0  0  0  0  0  0  0  0  0  0  0  0
  194.6160  176.5090  146.5150 N   0  0  0  0  0  2  0  0  0  0  0  0
  195.4630  175.5850  143.1890 C   0  0  0  0  0  3  0  0  0  0  0  0
  196.5980  173.9030  146.3440 O   0  0  0  0  0  1  0  0  0  0  0  0
  197.3030  174.2290  143.6690 N   0  0  0  0  0  0  0  0  0  0  0  0
  196.2370  175.3790  142.1290 C   0  0  0  0  0  0  0  0  0  0  0  0
  195.7820  174.6710  145.5170 C   0  0  0  0  0  0  0  0  0  0  0  0
  196.1380  174.8170  144.2320 C   0  0  0  0  0  0  0  0  0  0  0  0
  197.3610  174.5610  142.4460 N   0  0  0  0  0  0  0  0  0  0  0  0
  195.3200  175.1510  139.9690 F   0  0  0  0  0  0  0  0  0  0  0  0
  195.3130  177.1890  140.9260 F   0  0  0  0  0  0  0  0  0  0  0  0
  197.2520  176.2860  140.2130 F   0  0  0  0  0  0  0  0  0  0  0  0
  196.0260  176.0120  140.7900 C   0  0  0  0  0  0  0  0  0  0  0  0
  2  1  1  0  0  0  0
  3  6  2  0  0  0  0
  4  5  2  0  0  0  0
  4  3  1  0  0  0  0
  5  7  1  0  0  0  0
  6  2  1  0  0  0  0
  7  2  2  0  0  0  0
  8  9  1  0  0  0  0
  8  4  1  0  0  0  0
  9 11  2  0  0  0  0
 11 12  1  0  0  0  0
 11 14  1  0  0  0  0
 12 13  1  0  0  0  0
 13 10  1  0  0  0  0
 14 10  1  0  0  0  0
 15  1  1  0  0  0  0
 16 15  1  0  0  0  0
 16 17  2  0  0  0  0
 18 23  1  0  0  0  0
 20 23  1  0  0  0  0
 21 24  1  0  0  0  0
 21 18  2  0  0  0  0
 22 16  1  0  0  0  0
 22 19  1  0  0  0  0
 23 22  2  0  0  0  0
 24 20  2  0  0  0  0
 25 28  1  0  0  0  0
 27 28  1  0  0  0  0
 28 26  1  0  0  0  0
 28 21  1  0  0  0  0
M  END
>  <MODEL>
9

>  <REMARK>
 VINA RESULT:      -6.9      3.489      9.151
  Name = 
  6 active torsions:
  status: ('A' for Active; 'I' for Inactive)
    1  A    between atoms: C_1  and  N_5
    2  A    between atoms: N_2  and  O_21
    3  A    between atoms: N_5  and  N_10
    4  A    between atoms: C_12  and  C_19
    5  A    between atoms: C_15  and  O_21
    6  A    between atoms: C_18  and  C_28
                            x       y       z     vdW  Elec       q    Type
                         _______ _______ _______ _____ _____    ______ ____

>  <TORSDO>
F 6

$$$$
