=
 OpenBabel11062419073D

 32 36  0  0  1  0  0  0  0  0999 V2000
  195.6760  176.5240  143.8990 N   0  0  0  0  0  0  0  0  0  0  0  0
  193.4700  176.3780  144.8010 C   0  0  0  0  0  0  0  0  0  0  0  0
  191.1170  176.5210  145.6720 C   0  0  1  0  0  3  0  0  0  0  0  0
  192.5620  176.5910  145.8850 N   0  0  0  0  0  2  0  0  0  0  0  0
  195.2520  176.0250  142.7060 C   0  0  0  0  0  3  0  0  0  0  0  0
  193.9110  175.6750  142.5280 C   0  0  0  0  0  3  0  0  0  0  0  0
  193.0110  175.8450  143.5860 C   0  0  0  0  0  0  0  0  0  0  0  0
  194.8210  176.7040  144.9410 C   0  0  0  0  0  3  0  0  0  0  0  0
  191.5920  175.4480  143.4620 C   0  0  0  0  0  0  0  0  0  0  0  0
  190.7560  175.3720  144.7130 C   0  0  0  0  0  2  0  0  0  0  0  0
  191.1010  175.1360  142.2970 N   0  0  0  0  0  0  0  0  0  0  0  0
  189.4020  173.4250  142.8290 C   0  0  0  0  0  2  0  0  0  0  0  0
  188.2320  173.1060  140.5890 C   0  0  0  0  0  2  0  0  0  0  0  0
  188.5180  172.8530  139.1120 C   0  0  0  0  0  2  0  0  0  0  0  0
  190.3850  171.3540  140.0950 C   0  0  0  0  0  2  0  0  0  0  0  0
  189.7270  174.6980  142.0560 C   0  0  2  0  0  0  0  0  0  0  0  0
  189.5480  173.3710  141.3170 C   0  0  0  0  0  0  0  0  0  0  0  0
  190.7950  172.6050  140.8660 C   0  0  0  0  0  2  0  0  0  0  0  0
  189.4980  171.6880  138.8850 C   0  0  0  0  0  2  0  0  0  0  0  0
  185.9230  178.9770  142.7080 O   0  0  0  0  0  1  0  0  0  0  0  0
  189.1810  177.2360  142.0240 C   0  0  0  0  0  2  0  0  0  0  0  0
  188.6430  175.8000  142.0510 C   0  0  2  0  0  3  0  0  0  0  0  0
  186.4850  176.5720  143.0450 C   0  0  0  0  0  2  0  0  0  0  0  0
  188.0750  178.2480  142.1120 C   0  0  0  0  0  3  0  0  0  0  0  0
  186.8710  177.9680  142.6250 C   0  0  0  0  0  0  0  0  0  0  0  0
  187.6860  175.6460  143.2280 C   0  0  0  0  0  2  0  0  0  0  0  0
  191.3820  176.6520  148.0260 C   0  0  0  0  0  1  0  0  0  0  0  0
  190.4090  176.4670  146.9600 N   0  0  0  0  0  0  0  0  0  0  0  0
  189.4260  177.5410  147.0680 C   0  0  0  0  0  2  0  0  0  0  0  0
  188.0660  177.0230  146.7480 C   0  0  0  0  0  0  0  0  0  0  0  0
  187.0840  177.8890  146.2860 O   0  0  0  0  0  0  0  0  0  0  0  0
  187.8140  175.7960  146.8710 O   0  0  0  0  0  1  0  0  0  0  0  0
  1  8  1  0  0  0  0
  2  8  2  0  0  0  0
  2  4  1  0  0  0  0
  3  4  1  0  0  0  0
  3 28  1  1  0  0  0
  5  1  2  0  0  0  0
  6  5  1  0  0  0  0
  6  7  2  0  0  0  0
  7  2  1  0  0  0  0
  9  7  1  0  0  0  0
  9 10  1  0  0  0  0
 10  3  1  0  0  0  0
 11  9  2  0  0  0  0
 13 17  1  0  0  0  0
 14 13  1  0  0  0  0
 15 18  1  0  0  0  0
 16 11  1  1  0  0  0
 16 12  1  0  0  0  0
 17 16  1  0  0  0  0
 17 12  1  0  0  0  0
 18 17  1  0  0  0  0
 19 14  1  0  0  0  0
 19 15  1  0  0  0  0
 21 24  1  0  0  0  0
 22 21  1  1  0  0  0
 22 16  1  0  0  0  0
 22 26  1  0  0  0  0
 23 26  1  0  0  0  0
 24 25  2  0  0  0  0
 25 20  1  0  0  0  0
 25 23  1  0  0  0  0
 28 29  1  0  0  0  0
 28 27  1  0  0  0  0
 30 32  1  0  0  0  0
 30 29  1  0  0  0  0
 31 30  2  0  0  0  0
M  END
>  <MODEL>
1

>  <REMARK>
 VINA RESULT:      -7.2      0.000      0.000
  Name = 
  5 active torsions:
  status: ('A' for Active; 'I' for Inactive)
    1  A    between atoms: C_3  and  N_15
    2  A    between atoms: C_4  and  C_20
    3  A    between atoms: N_15  and  C_20
    4  A    between atoms: C_19  and  C_24
    5  A    between atoms: C_19  and  N_32
                            x       y       z     vdW  Elec       q    Type
                         _______ _______ _______ _____ _____    ______ ____

>  <TORSDO>
F 5

$$$$
=
 OpenBabel11062419073D

 32 36  0  0  1  0  0  0  0  0999 V2000
  189.2570  172.1590  139.3990 N   0  0  0  0  0  0  0  0  0  0  0  0
  188.6280  174.2120  140.4430 C   0  0  0  0  0  0  0  0  0  0  0  0
  187.7690  176.2060  141.7110 C   0  0  1  0  0  3  0  0  0  0  0  0
  187.7340  175.3240  140.5440 N   0  0  0  0  0  2  0  0  0  0  0  0
  190.3090  172.0160  140.2490 C   0  0  0  0  0  3  0  0  0  0  0  0
  190.5600  172.9830  141.2260 C   0  0  0  0  0  3  0  0  0  0  0  0
  189.7180  174.0960  141.3220 C   0  0  0  0  0  0  0  0  0  0  0  0
  188.4200  173.2280  139.4740 C   0  0  0  0  0  3  0  0  0  0  0  0
  189.9670  175.1690  142.3080 C   0  0  0  0  0  0  0  0  0  0  0  0
  189.2180  176.4670  142.1610 C   0  0  0  0  0  2  0  0  0  0  0  0
  190.8460  174.9950  143.2530 N   0  0  0  0  0  0  0  0  0  0  0  0
  191.8920  177.1990  143.6370 C   0  0  0  0  0  2  0  0  0  0  0  0
  193.1420  176.8330  145.8260 C   0  0  0  0  0  2  0  0  0  0  0  0
  194.1120  175.8720  146.5070 C   0  0  0  0  0  2  0  0  0  0  0  0
  195.1240  175.7690  144.1270 C   0  0  0  0  0  2  0  0  0  0  0  0
  191.2000  175.9930  144.2620 C   0  0  2  0  0  0  0  0  0  0  0  0
  192.6930  176.2330  144.4950 C   0  0  0  0  0  0  0  0  0  0  0  0
  193.7060  175.4180  143.6880 C   0  0  0  0  0  2  0  0  0  0  0  0
  195.3340  175.5390  145.6320 C   0  0  0  0  0  2  0  0  0  0  0  0
  186.7350  176.9620  147.7720 O   0  0  0  0  0  1  0  0  0  0  0  0
  189.2960  175.0790  145.7710 C   0  0  0  0  0  2  0  0  0  0  0  0
  190.1360  176.2880  145.3430 C   0  0  2  0  0  3  0  0  0  0  0  0
  188.3490  177.8620  146.1000 C   0  0  0  0  0  2  0  0  0  0  0  0
  188.2270  175.4610  146.7540 C   0  0  0  0  0  3  0  0  0  0  0  0
  187.7560  176.7080  146.8670 C   0  0  0  0  0  0  0  0  0  0  0  0
  189.2060  177.4170  144.9150 C   0  0  0  0  0  2  0  0  0  0  0  0
  186.8190  177.5680  140.0170 C   0  0  0  0  0  1  0  0  0  0  0  0
  186.9930  177.4280  141.4550 N   0  0  0  0  0  0  0  0  0  0  0  0
  185.6640  177.3460  142.0550 C   0  0  0  0  0  2  0  0  0  0  0  0
  185.6450  178.0740  143.3540 C   0  0  0  0  0  0  0  0  0  0  0  0
  186.0180  179.4100  143.4080 O   0  0  0  0  0  0  0  0  0  0  0  0
  185.2650  177.4860  144.4000 O   0  0  0  0  0  1  0  0  0  0  0  0
  1  8  2  0  0  0  0
  1  5  1  0  0  0  0
  2  4  1  0  0  0  0
  2  7  2  0  0  0  0
  3 28  1  6  0  0  0
  3 10  1  0  0  0  0
  4  3  1  0  0  0  0
  5  6  2  0  0  0  0
  6  7  1  0  0  0  0
  7  9  1  0  0  0  0
  8  2  1  0  0  0  0
  9 11  2  0  0  0  0
 10  9  1  0  0  0  0
 12 16  1  0  0  0  0
 12 17  1  0  0  0  0
 13 14  1  0  0  0  0
 15 19  1  0  0  0  0
 16 11  1  6  0  0  0
 16 17  1  0  0  0  0
 16 22  1  0  0  0  0
 17 13  1  0  0  0  0
 18 15  1  0  0  0  0
 18 17  1  0  0  0  0
 19 14  1  0  0  0  0
 21 24  1  0  0  0  0
 22 26  1  6  0  0  0
 22 21  1  0  0  0  0
 23 25  1  0  0  0  0
 24 25  2  0  0  0  0
 25 20  1  0  0  0  0
 26 23  1  0  0  0  0
 27 28  1  0  0  0  0
 28 29  1  0  0  0  0
 29 30  1  0  0  0  0
 30 31  2  0  0  0  0
 30 32  1  0  0  0  0
M  END
>  <MODEL>
2

>  <REMARK>
 VINA RESULT:      -7.1      1.862      5.958
  Name = 
  5 active torsions:
  status: ('A' for Active; 'I' for Inactive)
    1  A    between atoms: C_3  and  N_15
    2  A    between atoms: C_4  and  C_20
    3  A    between atoms: N_15  and  C_20
    4  A    between atoms: C_19  and  C_24
    5  A    between atoms: C_19  and  N_32
                            x       y       z     vdW  Elec       q    Type
                         _______ _______ _______ _____ _____    ______ ____

>  <TORSDO>
F 5

$$$$
=
 OpenBabel11062419073D

 32 36  0  0  1  0  0  0  0  0999 V2000
  188.9710  171.9380  138.9650 N   0  0  0  0  0  0  0  0  0  0  0  0
  188.9070  173.8260  140.4240 C   0  0  0  0  0  0  0  0  0  0  0  0
  188.6320  175.6570  142.1240 C   0  0  1  0  0  3  0  0  0  0  0  0
  188.2850  175.0450  140.8420 N   0  0  0  0  0  2  0  0  0  0  0  0
  190.0540  171.4350  139.6160 C   0  0  0  0  0  3  0  0  0  0  0  0
  190.6080  172.1260  140.6960 C   0  0  0  0  0  3  0  0  0  0  0  0
  190.0360  173.3380  141.1020 C   0  0  0  0  0  0  0  0  0  0  0  0
  188.3920  173.1090  139.3420 C   0  0  0  0  0  3  0  0  0  0  0  0
  190.6110  174.1290  142.2100 C   0  0  0  0  0  0  0  0  0  0  0  0
  190.1420  175.5480  142.3970 C   0  0  0  0  0  2  0  0  0  0  0  0
  191.5300  173.6110  142.9730 N   0  0  0  0  0  0  0  0  0  0  0  0
  192.3770  173.3940  145.2830 C   0  0  0  0  0  2  0  0  0  0  0  0
  191.7760  175.6520  146.2970 C   0  0  0  0  0  2  0  0  0  0  0  0
  190.6110  176.6250  146.4520 C   0  0  0  0  0  2  0  0  0  0  0  0
  189.2700  174.4260  146.7020 C   0  0  0  0  0  2  0  0  0  0  0  0
  192.1950  174.3060  144.0750 C   0  0  2  0  0  0  0  0  0  0  0  0
  191.3690  174.5310  145.3440 C   0  0  0  0  0  0  0  0  0  0  0  0
  189.9200  174.0400  145.3760 C   0  0  0  0  0  2  0  0  0  0  0  0
  189.3250  175.9410  146.9500 C   0  0  0  0  0  2  0  0  0  0  0  0
  197.0070  177.0420  142.4780 O   0  0  0  0  0  1  0  0  0  0  0  0
  193.7030  175.2780  142.1990 C   0  0  0  0  0  2  0  0  0  0  0  0
  193.3940  175.2060  143.6990 C   0  0  2  0  0  3  0  0  0  0  0  0
  195.7390  175.8570  144.2660 C   0  0  0  0  0  2  0  0  0  0  0  0
  194.9320  176.0950  141.9210 C   0  0  0  0  0  3  0  0  0  0  0  0
  195.8830  176.3120  142.8360 C   0  0  0  0  0  0  0  0  0  0  0  0
  194.6550  174.7950  144.4500 C   0  0  0  0  0  2  0  0  0  0  0  0
  189.2360  177.9440  142.3030 C   0  0  0  0  0  1  0  0  0  0  0  0
  188.1090  177.0300  142.1960 N   0  0  0  0  0  0  0  0  0  0  0  0
  187.3700  177.3790  140.9870 C   0  0  0  0  0  2  0  0  0  0  0  0
  185.9550  177.6990  141.3270 C   0  0  0  0  0  0  0  0  0  0  0  0
  185.1740  178.4250  140.4380 O   0  0  0  0  0  0  0  0  0  0  0  0
  185.4590  177.2880  142.4080 O   0  0  0  0  0  1  0  0  0  0  0  0
  1  8  2  0  0  0  0
  1  5  1  0  0  0  0
  2  4  1  0  0  0  0
  2  7  2  0  0  0  0
  3 28  1  6  0  0  0
  3 10  1  0  0  0  0
  4  3  1  0  0  0  0
  5  6  2  0  0  0  0
  6  7  1  0  0  0  0
  7  9  1  0  0  0  0
  8  2  1  0  0  0  0
  9 10  1  0  0  0  0
  9 11  2  0  0  0  0
 12 17  1  0  0  0  0
 13 14  1  0  0  0  0
 14 19  1  0  0  0  0
 15 19  1  0  0  0  0
 16 11  1  6  0  0  0
 16 12  1  0  0  0  0
 16 17  1  0  0  0  0
 17 18  1  0  0  0  0
 17 13  1  0  0  0  0
 18 15  1  0  0  0  0
 20 25  1  0  0  0  0
 22 21  1  6  0  0  0
 22 16  1  0  0  0  0
 22 26  1  0  0  0  0
 23 26  1  0  0  0  0
 24 21  1  0  0  0  0
 24 25  2  0  0  0  0
 25 23  1  0  0  0  0
 28 27  1  0  0  0  0
 29 30  1  0  0  0  0
 29 28  1  0  0  0  0
 30 32  1  0  0  0  0
 31 30  2  0  0  0  0
M  END
>  <MODEL>
3

>  <REMARK>
 VINA RESULT:      -6.7      2.558      6.607
  Name = 
  5 active torsions:
  status: ('A' for Active; 'I' for Inactive)
    1  A    between atoms: C_3  and  N_15
    2  A    between atoms: C_4  and  C_20
    3  A    between atoms: N_15  and  C_20
    4  A    between atoms: C_19  and  C_24
    5  A    between atoms: C_19  and  N_32
                            x       y       z     vdW  Elec       q    Type
                         _______ _______ _______ _____ _____    ______ ____

>  <TORSDO>
F 5

$$$$
=
 OpenBabel11062419073D

 32 36  0  0  1  0  0  0  0  0999 V2000
  186.6730  176.6140  138.5070 N   0  0  0  0  0  0  0  0  0  0  0  0
  187.8780  175.3350  140.1230 C   0  0  0  0  0  0  0  0  0  0  0  0
  189.3970  174.1360  141.7270 C   0  0  1  0  0  3  0  0  0  0  0  0
  188.6930  174.2050  140.4470 N   0  0  0  0  0  2  0  0  0  0  0  0
  186.3360  177.5380  139.4460 C   0  0  0  0  0  3  0  0  0  0  0  0
  186.7560  177.3800  140.7690 C   0  0  0  0  0  3  0  0  0  0  0  0
  187.5280  176.2650  141.1160 C   0  0  0  0  0  0  0  0  0  0  0  0
  187.4260  175.5250  138.8160 C   0  0  0  0  0  3  0  0  0  0  0  0
  187.9600  176.0300  142.5100 C   0  0  0  0  0  0  0  0  0  0  0  0
  188.5190  174.6780  142.8700 C   0  0  0  0  0  2  0  0  0  0  0  0
  187.8180  176.9660  143.4040 N   0  0  0  0  0  0  0  0  0  0  0  0
  187.4540  175.6660  145.4720 C   0  0  0  0  0  2  0  0  0  0  0  0
  187.4430  177.4810  147.2590 C   0  0  0  0  0  2  0  0  0  0  0  0
  186.8170  178.8320  147.5920 C   0  0  0  0  0  2  0  0  0  0  0  0
  184.7400  177.7400  146.5010 C   0  0  0  0  0  2  0  0  0  0  0  0
  188.1760  176.8380  144.8160 C   0  0  2  0  0  0  0  0  0  0  0  0
  187.0620  177.0900  145.8330 C   0  0  0  0  0  0  0  0  0  0  0  0
  185.6700  177.4710  145.3220 C   0  0  0  0  0  2  0  0  0  0  0  0
  185.2860  178.8370  147.4270 C   0  0  0  0  0  2  0  0  0  0  0  0
  193.8720  176.9240  145.6820 O   0  0  0  0  0  1  0  0  0  0  0  0
  190.5570  177.4810  144.0060 C   0  0  0  0  0  2  0  0  0  0  0  0
  189.6710  177.0140  145.1670 C   0  0  2  0  0  3  0  0  0  0  0  0
  191.6430  176.0250  146.3400 C   0  0  0  0  0  2  0  0  0  0  0  0
  192.0060  177.5420  144.3980 C   0  0  0  0  0  3  0  0  0  0  0  0
  192.5120  176.8420  145.4180 C   0  0  0  0  0  0  0  0  0  0  0  0
  190.2580  175.7390  145.7610 C   0  0  0  0  0  2  0  0  0  0  0  0
  189.9340  172.0730  140.6870 C   0  0  0  0  0  1  0  0  0  0  0  0
  189.9090  172.7780  141.9600 N   0  0  0  0  0  0  0  0  0  0  0  0
  191.2750  172.8080  142.4750 C   0  0  0  0  0  2  0  0  0  0  0  0
  191.2710  172.5860  143.9470 C   0  0  0  0  0  0  0  0  0  0  0  0
  190.1990  171.9400  144.5490 O   0  0  0  0  0  0  0  0  0  0  0  0
  192.2510  172.9590  144.6440 O   0  0  0  0  0  1  0  0  0  0  0  0
  1  8  2  0  0  0  0
  1  5  1  0  0  0  0
  2  4  1  0  0  0  0
  2  7  2  0  0  0  0
  3 28  1  1  0  0  0
  3 10  1  0  0  0  0
  4  3  1  0  0  0  0
  5  6  2  0  0  0  0
  6  7  1  0  0  0  0
  7  9  1  0  0  0  0
  8  2  1  0  0  0  0
  9 10  1  0  0  0  0
  9 11  2  0  0  0  0
 12 17  1  0  0  0  0
 13 14  1  0  0  0  0
 15 19  1  0  0  0  0
 16 11  1  6  0  0  0
 16 22  1  0  0  0  0
 16 12  1  0  0  0  0
 16 17  1  0  0  0  0
 17 13  1  0  0  0  0
 18 17  1  0  0  0  0
 18 15  1  0  0  0  0
 19 14  1  0  0  0  0
 21 24  1  0  0  0  0
 22 21  1  6  0  0  0
 22 26  1  0  0  0  0
 24 25  2  0  0  0  0
 25 20  1  0  0  0  0
 25 23  1  0  0  0  0
 26 23  1  0  0  0  0
 27 28  1  0  0  0  0
 28 29  1  0  0  0  0
 29 30  1  0  0  0  0
 30 31  2  0  0  0  0
 30 32  1  0  0  0  0
M  END
>  <MODEL>
4

>  <REMARK>
 VINA RESULT:      -6.5      3.249      7.107
  Name = 
  5 active torsions:
  status: ('A' for Active; 'I' for Inactive)
    1  A    between atoms: C_3  and  N_15
    2  A    between atoms: C_4  and  C_20
    3  A    between atoms: N_15  and  C_20
    4  A    between atoms: C_19  and  C_24
    5  A    between atoms: C_19  and  N_32
                            x       y       z     vdW  Elec       q    Type
                         _______ _______ _______ _____ _____    ______ ____

>  <TORSDO>
F 5

$$$$
=
 OpenBabel11062419073D

 32 36  0  0  1  0  0  0  0  0999 V2000
  191.4140  169.0520  142.1020 N   0  0  0  0  0  0  0  0  0  0  0  0
  190.6930  171.3270  142.0180 C   0  0  0  0  0  0  0  0  0  0  0  0
  189.6920  173.6310  142.0970 C   0  0  1  0  0  3  0  0  0  0  0  0
  189.8800  172.3440  141.4280 N   0  0  0  0  0  2  0  0  0  0  0  0
  192.2190  169.3160  143.1670 C   0  0  0  0  0  3  0  0  0  0  0  0
  192.2930  170.6100  143.6870 C   0  0  0  0  0  3  0  0  0  0  0  0
  191.5290  171.6290  143.1050 C   0  0  0  0  0  0  0  0  0  0  0  0
  190.6580  170.0220  141.5210 C   0  0  0  0  0  3  0  0  0  0  0  0
  191.6060  173.0240  143.5910 C   0  0  0  0  0  0  0  0  0  0  0  0
  191.0040  174.1130  142.7420 C   0  0  0  0  0  2  0  0  0  0  0  0
  192.2170  173.2920  144.7080 N   0  0  0  0  0  0  0  0  0  0  0  0
  192.2750  174.6180  146.7910 C   0  0  0  0  0  2  0  0  0  0  0  0
  191.0880  176.7640  146.1030 C   0  0  0  0  0  2  0  0  0  0  0  0
  189.8220  177.2660  145.4150 C   0  0  0  0  0  2  0  0  0  0  0  0
  188.7690  175.2670  146.6770 C   0  0  0  0  0  2  0  0  0  0  0  0
  192.3860  174.6320  145.2700 C   0  0  2  0  0  0  0  0  0  0  0  0
  191.1660  175.2450  145.9610 C   0  0  0  0  0  0  0  0  0  0  0  0
  189.8640  174.4430  146.0060 C   0  0  0  0  0  2  0  0  0  0  0  0
  188.5430  176.6120  145.9680 C   0  0  0  0  0  2  0  0  0  0  0  0
  197.0620  177.3860  143.3360 O   0  0  0  0  0  1  0  0  0  0  0  0
  194.3390  174.8090  143.5710 C   0  0  0  0  0  2  0  0  0  0  0  0
  193.5150  175.4960  144.6660 C   0  0  2  0  0  3  0  0  0  0  0  0
  195.3890  177.0750  145.1560 C   0  0  0  0  0  2  0  0  0  0  0  0
  195.4720  175.6750  143.0970 C   0  0  0  0  0  3  0  0  0  0  0  0
  195.9870  176.6660  143.8340 C   0  0  0  0  0  0  0  0  0  0  0  0
  194.4560  176.0180  145.7460 C   0  0  0  0  0  2  0  0  0  0  0  0
  188.6300  173.8950  139.9930 C   0  0  0  0  0  1  0  0  0  0  0  0
  189.0850  174.6050  141.1780 N   0  0  0  0  0  0  0  0  0  0  0  0
  187.9220  175.2480  141.7820 C   0  0  0  0  0  2  0  0  0  0  0  0
  187.8870  176.6910  141.4130 C   0  0  0  0  0  0  0  0  0  0  0  0
  188.8140  177.5690  141.9590 O   0  0  0  0  0  1  0  0  0  0  0  0
  187.0360  177.1100  140.5860 O   0  0  0  0  0  0  0  0  0  0  0  0
  1  5  1  0  0  0  0
  2  7  2  0  0  0  0
  3 28  1  6  0  0  0
  3 10  1  0  0  0  0
  4  2  1  0  0  0  0
  4  3  1  0  0  0  0
  5  6  2  0  0  0  0
  7  9  1  0  0  0  0
  7  6  1  0  0  0  0
  8  2  1  0  0  0  0
  8  1  2  0  0  0  0
  9 11  2  0  0  0  0
 10  9  1  0  0  0  0
 14 19  1  0  0  0  0
 14 13  1  0  0  0  0
 16 11  1  6  0  0  0
 16 17  1  0  0  0  0
 16 12  1  0  0  0  0
 17 18  1  0  0  0  0
 17 13  1  0  0  0  0
 17 12  1  0  0  0  0
 18 15  1  0  0  0  0
 19 15  1  0  0  0  0
 20 25  1  0  0  0  0
 22 21  1  6  0  0  0
 22 16  1  0  0  0  0
 22 26  1  0  0  0  0
 23 26  1  0  0  0  0
 24 21  1  0  0  0  0
 24 25  2  0  0  0  0
 25 23  1  0  0  0  0
 27 28  1  0  0  0  0
 28 29  1  0  0  0  0
 30 29  1  0  0  0  0
 30 31  1  0  0  0  0
 32 30  2  0  0  0  0
M  END
>  <MODEL>
5

>  <REMARK>
 VINA RESULT:      -6.4      2.905      6.755
  Name = 
  5 active torsions:
  status: ('A' for Active; 'I' for Inactive)
    1  A    between atoms: C_3  and  N_15
    2  A    between atoms: C_4  and  C_20
    3  A    between atoms: N_15  and  C_20
    4  A    between atoms: C_19  and  C_24
    5  A    between atoms: C_19  and  N_32
                            x       y       z     vdW  Elec       q    Type
                         _______ _______ _______ _____ _____    ______ ____

>  <TORSDO>
F 5

$$$$
=
 OpenBabel11062419073D

 32 36  0  0  1  0  0  0  0  0999 V2000
  184.9220  178.5030  147.5150 N   0  0  0  0  0  0  0  0  0  0  0  0
  186.1250  178.1720  145.4800 C   0  0  0  0  0  0  0  0  0  0  0  0
  187.5670  178.0620  143.4240 C   0  0  1  0  0  3  0  0  0  0  0  0
  186.3620  178.5230  144.1140 N   0  0  0  0  0  2  0  0  0  0  0  0
  185.6690  177.5550  148.1450 C   0  0  0  0  0  3  0  0  0  0  0  0
  186.6700  176.8740  147.4490 C   0  0  0  0  0  3  0  0  0  0  0  0
  186.8980  177.1770  146.1010 C   0  0  0  0  0  0  0  0  0  0  0  0
  185.1270  178.8210  146.2090 C   0  0  0  0  0  3  0  0  0  0  0  0
  187.9150  176.4540  145.3090 C   0  0  0  0  0  0  0  0  0  0  0  0
  187.9030  176.6110  143.8110 C   0  0  0  0  0  2  0  0  0  0  0  0
  188.7690  175.6710  145.9030 N   0  0  0  0  0  0  0  0  0  0  0  0
  190.5570  173.9940  146.2030 C   0  0  0  0  0  2  0  0  0  0  0  0
  192.3460  174.8130  144.5860 C   0  0  0  0  0  2  0  0  0  0  0  0
  193.1190  176.0660  144.1870 C   0  0  0  0  0  2  0  0  0  0  0  0
  193.0460  176.4940  146.7380 C   0  0  0  0  0  2  0  0  0  0  0  0
  189.7950  174.8810  145.2240 C   0  0  2  0  0  0  0  0  0  0  0  0
  191.2500  175.1940  145.5780 C   0  0  0  0  0  0  0  0  0  0  0  0
  191.5390  176.3070  146.5880 C   0  0  0  0  0  2  0  0  0  0  0  0
  193.7250  176.8030  145.3950 C   0  0  0  0  0  2  0  0  0  0  0  0
  189.0010  172.3200  140.1240 O   0  0  0  0  0  1  0  0  0  0  0  0
  189.5300  172.7120  143.8220 C   0  0  0  0  0  2  0  0  0  0  0  0
  189.3920  174.2380  143.8780 C   0  0  2  0  0  3  0  0  0  0  0  0
  189.5550  174.3950  141.3890 C   0  0  0  0  0  2  0  0  0  0  0  0
  189.2080  172.1710  142.4580 C   0  0  0  0  0  3  0  0  0  0  0  0
  189.2720  172.9140  141.3480 C   0  0  0  0  0  0  0  0  0  0  0  0
  190.1620  174.8530  142.7140 C   0  0  0  0  0  2  0  0  0  0  0  0
  188.7810  178.4530  141.4250 C   0  0  0  0  0  1  0  0  0  0  0  0
  187.4460  178.2810  141.9750 N   0  0  0  0  0  0  0  0  0  0  0  0
  186.8410  177.1280  141.3140 C   0  0  0  0  0  2  0  0  0  0  0  0
  186.0160  177.5770  140.1580 C   0  0  0  0  0  0  0  0  0  0  0  0
  185.0040  178.5100  140.3480 O   0  0  0  0  0  1  0  0  0  0  0  0
  186.2520  177.1330  139.0050 O   0  0  0  0  0  0  0  0  0  0  0  0
  1  5  1  0  0  0  0
  2  7  2  0  0  0  0
  2  8  1  0  0  0  0
  3 28  1  6  0  0  0
  3 10  1  0  0  0  0
  3  4  1  0  0  0  0
  4  2  1  0  0  0  0
  6  5  2  0  0  0  0
  7  6  1  0  0  0  0
  8  1  2  0  0  0  0
  9 11  2  0  0  0  0
  9  7  1  0  0  0  0
 10  9  1  0  0  0  0
 13 17  1  0  0  0  0
 14 13  1  0  0  0  0
 14 19  1  0  0  0  0
 16 17  1  0  0  0  0
 16 11  1  1  0  0  0
 16 12  1  0  0  0  0
 17 12  1  0  0  0  0
 17 18  1  0  0  0  0
 18 15  1  0  0  0  0
 19 15  1  0  0  0  0
 20 25  1  0  0  0  0
 21 22  1  0  0  0  0
 22 26  1  6  0  0  0
 22 16  1  0  0  0  0
 23 26  1  0  0  0  0
 24 21  1  0  0  0  0
 25 23  1  0  0  0  0
 25 24  2  0  0  0  0
 27 28  1  0  0  0  0
 29 28  1  0  0  0  0
 30 31  1  0  0  0  0
 30 29  1  0  0  0  0
 32 30  2  0  0  0  0
M  END
>  <MODEL>
6

>  <REMARK>
 VINA RESULT:      -6.4      2.845      6.782
  Name = 
  5 active torsions:
  status: ('A' for Active; 'I' for Inactive)
    1  A    between atoms: C_3  and  N_15
    2  A    between atoms: C_4  and  C_20
    3  A    between atoms: N_15  and  C_20
    4  A    between atoms: C_19  and  C_24
    5  A    between atoms: C_19  and  N_32
                            x       y       z     vdW  Elec       q    Type
                         _______ _______ _______ _____ _____    ______ ____

>  <TORSDO>
F 5

$$$$
=
 OpenBabel11062419073D

 32 36  0  0  1  0  0  0  0  0999 V2000
  188.7160  173.4680  139.1790 N   0  0  0  0  0  0  0  0  0  0  0  0
  189.9440  173.0520  141.1840 C   0  0  0  0  0  0  0  0  0  0  0  0
  191.4670  172.7700  143.1630 C   0  0  1  0  0  3  0  0  0  0  0  0
  190.9070  172.2780  141.9050 N   0  0  0  0  0  2  0  0  0  0  0  0
  188.1200  174.5570  139.7360 C   0  0  0  0  0  3  0  0  0  0  0  0
  188.4150  174.9230  141.0510 C   0  0  0  0  0  3  0  0  0  0  0  0
  189.3290  174.1610  141.7880 C   0  0  0  0  0  0  0  0  0  0  0  0
  189.6130  172.7140  139.8700 C   0  0  0  0  0  3  0  0  0  0  0  0
  189.6410  174.4800  143.1970 C   0  0  0  0  0  0  0  0  0  0  0  0
  190.3880  173.4600  144.0160 C   0  0  0  0  0  2  0  0  0  0  0  0
  189.2380  175.6050  143.7150 N   0  0  0  0  0  0  0  0  0  0  0  0
  188.8530  175.0150  146.0820 C   0  0  0  0  0  2  0  0  0  0  0  0
  188.3740  177.2830  147.1370 C   0  0  0  0  0  2  0  0  0  0  0  0
  187.5190  178.5340  146.9550 C   0  0  0  0  0  2  0  0  0  0  0  0
  185.7610  176.7910  146.2000 C   0  0  0  0  0  2  0  0  0  0  0  0
  189.4570  176.0140  145.1020 C   0  0  2  0  0  0  0  0  0  0  0  0
  188.2130  176.3830  145.9130 C   0  0  0  0  0  0  0  0  0  0  0  0
  186.8440  176.3200  145.2330 C   0  0  0  0  0  2  0  0  0  0  0  0
  186.0320  178.2110  146.7210 C   0  0  0  0  0  2  0  0  0  0  0  0
  194.9440  177.3900  146.1960 O   0  0  0  0  0  1  0  0  0  0  0  0
  191.8020  176.7270  144.2480 C   0  0  0  0  0  2  0  0  0  0  0  0
  190.8610  176.5610  145.4470 C   0  0  2  0  0  3  0  0  0  0  0  0
  192.8010  176.4150  147.0140 C   0  0  0  0  0  2  0  0  0  0  0  0
  193.1720  177.1740  144.6710 C   0  0  0  0  0  3  0  0  0  0  0  0
  193.6490  176.9850  145.9060 C   0  0  0  0  0  0  0  0  0  0  0  0
  191.5470  175.7050  146.5060 C   0  0  0  0  0  2  0  0  0  0  0  0
  191.8900  170.4360  143.1930 C   0  0  0  0  0  1  0  0  0  0  0  0
  192.1840  171.6940  143.8630 N   0  0  0  0  0  0  0  0  0  0  0  0
  193.6290  171.8970  143.8090 C   0  0  0  0  0  2  0  0  0  0  0  0
  194.1670  172.1060  145.1810 C   0  0  0  0  0  0  0  0  0  0  0  0
  194.1290  173.3690  145.7570 O   0  0  0  0  0  0  0  0  0  0  0  0
  194.6320  171.1330  145.8310 O   0  0  0  0  0  1  0  0  0  0  0  0
  1  5  2  0  0  0  0
  1  8  1  0  0  0  0
  2  7  1  0  0  0  0
  2  4  1  0  0  0  0
  3 28  1  1  0  0  0
  3 10  1  0  0  0  0
  4  3  1  0  0  0  0
  5  6  1  0  0  0  0
  6  7  2  0  0  0  0
  7  9  1  0  0  0  0
  8  2  2  0  0  0  0
  9 11  2  0  0  0  0
  9 10  1  0  0  0  0
 14 13  1  0  0  0  0
 15 19  1  0  0  0  0
 16 11  1  6  0  0  0
 16 22  1  0  0  0  0
 16 17  1  0  0  0  0
 16 12  1  0  0  0  0
 17 12  1  0  0  0  0
 17 13  1  0  0  0  0
 18 17  1  0  0  0  0
 18 15  1  0  0  0  0
 19 14  1  0  0  0  0
 21 24  1  0  0  0  0
 22 21  1  6  0  0  0
 22 26  1  0  0  0  0
 24 25  2  0  0  0  0
 25 20  1  0  0  0  0
 25 23  1  0  0  0  0
 26 23  1  0  0  0  0
 27 28  1  0  0  0  0
 29 28  1  0  0  0  0
 29 30  1  0  0  0  0
 30 31  2  0  0  0  0
 30 32  1  0  0  0  0
M  END
>  <MODEL>
7

>  <REMARK>
 VINA RESULT:      -6.1      3.354      6.837
  Name = 
  5 active torsions:
  status: ('A' for Active; 'I' for Inactive)
    1  A    between atoms: C_3  and  N_15
    2  A    between atoms: C_4  and  C_20
    3  A    between atoms: N_15  and  C_20
    4  A    between atoms: C_19  and  C_24
    5  A    between atoms: C_19  and  N_32
                            x       y       z     vdW  Elec       q    Type
                         _______ _______ _______ _____ _____    ______ ____

>  <TORSDO>
F 5

$$$$
=
 OpenBabel11062419073D

 32 36  0  0  1  0  0  0  0  0999 V2000
  196.7440  176.3570  141.4180 N   0  0  0  0  0  0  0  0  0  0  0  0
  195.0300  176.1270  143.0640 C   0  0  0  0  0  0  0  0  0  0  0  0
  193.1590  176.1800  144.7410 C   0  0  1  0  0  3  0  0  0  0  0  0
  194.5780  176.2980  144.4100 N   0  0  0  0  0  2  0  0  0  0  0  0
  195.9240  175.8570  140.4530 C   0  0  0  0  0  3  0  0  0  0  0  0
  194.6230  175.4640  140.7720 C   0  0  0  0  0  3  0  0  0  0  0  0
  194.1700  175.5920  142.0900 C   0  0  0  0  0  0  0  0  0  0  0  0
  196.3270  176.4970  142.7050 C   0  0  0  0  0  3  0  0  0  0  0  0
  192.8170  175.1480  142.4880 C   0  0  0  0  0  0  0  0  0  0  0  0
  192.5020  175.0310  143.9560 C   0  0  0  0  0  2  0  0  0  0  0  0
  191.9410  174.8320  141.5780 N   0  0  0  0  0  0  0  0  0  0  0  0
  190.6050  172.9810  142.5210 C   0  0  0  0  0  2  0  0  0  0  0  0
  188.6370  172.8560  140.9090 C   0  0  0  0  0  2  0  0  0  0  0  0
  188.3080  172.7880  139.4210 C   0  0  0  0  0  2  0  0  0  0  0  0
  190.4190  171.2910  139.3850 C   0  0  0  0  0  2  0  0  0  0  0  0
  190.5870  174.3500  141.8500 C   0  0  2  0  0  0  0  0  0  0  0  0
  190.1330  173.1080  141.0810 C   0  0  0  0  0  0  0  0  0  0  0  0
  191.0980  172.4670  140.0810 C   0  0  0  0  0  2  0  0  0  0  0  0
  189.1200  171.7110  138.6790 C   0  0  0  0  0  2  0  0  0  0  0  0
  187.3490  178.3220  144.4830 O   0  0  0  0  0  1  0  0  0  0  0  0
  190.0540  176.8430  142.3380 C   0  0  0  0  0  2  0  0  0  0  0  0
  189.5870  175.3850  142.4130 C   0  0  2  0  0  3  0  0  0  0  0  0
  188.0190  175.9300  144.2810 C   0  0  0  0  0  2  0  0  0  0  0  0
  189.0730  177.7790  142.9850 C   0  0  0  0  0  3  0  0  0  0  0  0
  188.1880  177.3810  143.9050 C   0  0  0  0  0  0  0  0  0  0  0  0
  189.1980  175.0580  143.8510 C   0  0  0  0  0  2  0  0  0  0  0  0
  194.0280  176.8630  146.8400 C   0  0  0  0  0  1  0  0  0  0  0  0
  192.9760  176.0900  146.1980 N   0  0  0  0  0  0  0  0  0  0  0  0
  191.6960  176.6600  146.6070 C   0  0  0  0  0  2  0  0  0  0  0  0
  191.4510  176.3810  148.0500 C   0  0  0  0  0  0  0  0  0  0  0  0
  191.4550  177.4230  148.9680 O   0  0  0  0  0  1  0  0  0  0  0  0
  191.2150  175.2060  148.4340 O   0  0  0  0  0  0  0  0  0  0  0  0
  1  8  1  0  0  0  0
  2  4  1  0  0  0  0
  3 28  1  1  0  0  0
  4  3  1  0  0  0  0
  5  6  1  0  0  0  0
  5  1  2  0  0  0  0
  6  7  2  0  0  0  0
  7  9  1  0  0  0  0
  7  2  1  0  0  0  0
  8  2  2  0  0  0  0
  9 10  1  0  0  0  0
 10  3  1  0  0  0  0
 11  9  2  0  0  0  0
 13 17  1  0  0  0  0
 14 13  1  0  0  0  0
 15 18  1  0  0  0  0
 16 11  1  6  0  0  0
 16 22  1  0  0  0  0
 16 12  1  0  0  0  0
 17 16  1  0  0  0  0
 17 12  1  0  0  0  0
 18 17  1  0  0  0  0
 19 15  1  0  0  0  0
 19 14  1  0  0  0  0
 21 24  1  0  0  0  0
 22 21  1  1  0  0  0
 22 26  1  0  0  0  0
 24 25  2  0  0  0  0
 25 23  1  0  0  0  0
 25 20  1  0  0  0  0
 26 23  1  0  0  0  0
 28 29  1  0  0  0  0
 28 27  1  0  0  0  0
 29 30  1  0  0  0  0
 30 32  2  0  0  0  0
 30 31  1  0  0  0  0
M  END
>  <MODEL>
8

>  <REMARK>
 VINA RESULT:      -6.0      1.620      2.195
  Name = 
  5 active torsions:
  status: ('A' for Active; 'I' for Inactive)
    1  A    between atoms: C_3  and  N_15
    2  A    between atoms: C_4  and  C_20
    3  A    between atoms: N_15  and  C_20
    4  A    between atoms: C_19  and  C_24
    5  A    between atoms: C_19  and  N_32
                            x       y       z     vdW  Elec       q    Type
                         _______ _______ _______ _____ _____    ______ ____

>  <TORSDO>
F 5

$$$$
=
 OpenBabel11062419073D

 32 36  0  0  1  0  0  0  0  0999 V2000
  190.1540  176.8900  147.2160 N   0  0  0  0  0  0  0  0  0  0  0  0
  190.8450  175.9130  145.1510 C   0  0  0  0  0  0  0  0  0  0  0  0
  191.6360  175.1710  142.8830 C   0  0  1  0  0  3  0  0  0  0  0  0
  190.5600  175.5590  143.7950 N   0  0  0  0  0  2  0  0  0  0  0  0
  191.3760  176.6580  147.7680 C   0  0  0  0  0  3  0  0  0  0  0  0
  192.3760  176.0300  147.0220 C   0  0  0  0  0  3  0  0  0  0  0  0
  192.1090  175.6460  145.7030 C   0  0  0  0  0  0  0  0  0  0  0  0
  189.8700  176.5320  145.9360 C   0  0  0  0  0  3  0  0  0  0  0  0
  193.1180  174.9390  144.8860 C   0  0  0  0  0  0  0  0  0  0  0  0
  192.6760  174.2910  143.6010 C   0  0  0  0  0  2  0  0  0  0  0  0
  194.3490  174.8530  145.3010 N   0  0  0  0  0  0  0  0  0  0  0  0
  196.7200  174.9560  144.6170 C   0  0  0  0  0  2  0  0  0  0  0  0
  196.6580  173.9330  142.2860 C   0  0  0  0  0  2  0  0  0  0  0  0
  195.9160  174.0240  140.9550 C   0  0  0  0  0  2  0  0  0  0  0  0
  195.9360  176.5490  141.5230 C   0  0  0  0  0  2  0  0  0  0  0  0
  195.4240  174.1530  144.5990 C   0  0  2  0  0  0  0  0  0  0  0  0
  195.9460  174.8060  143.3170 C   0  0  0  0  0  0  0  0  0  0  0  0
  195.3120  176.1170  142.8470 C   0  0  0  0  0  2  0  0  0  0  0  0
  195.7930  175.4700  140.4390 C   0  0  0  0  0  2  0  0  0  0  0  0
  195.9210  168.6690  146.2940 O   0  0  0  0  0  1  0  0  0  0  0  0
  194.3500  172.0070  145.5890 C   0  0  0  0  0  2  0  0  0  0  0  0
  195.5460  172.6350  144.8630 C   0  0  2  0  0  3  0  0  0  0  0  0
  197.0460  170.7920  145.6320 C   0  0  0  0  0  2  0  0  0  0  0  0
  194.5800  170.5540  145.8900 C   0  0  0  0  0  3  0  0  0  0  0  0
  195.8000  170.0110  145.9660 C   0  0  0  0  0  0  0  0  0  0  0  0
  196.8240  172.3030  145.6250 C   0  0  0  0  0  2  0  0  0  0  0  0
  192.0840  173.6730  141.0990 C   0  0  0  0  0  1  0  0  0  0  0  0
  191.0830  174.5670  141.6620 N   0  0  0  0  0  0  0  0  0  0  0  0
  189.8950  173.7700  141.9560 C   0  0  0  0  0  2  0  0  0  0  0  0
  188.8190  174.0750  140.9720 C   0  0  0  0  0  0  0  0  0  0  0  0
  188.3450  173.0780  140.1310 O   0  0  0  0  0  0  0  0  0  0  0  0
  188.3210  175.2300  140.9210 O   0  0  0  0  0  1  0  0  0  0  0  0
  1  5  1  0  0  0  0
  2  7  2  0  0  0  0
  2  8  1  0  0  0  0
  3 28  1  6  0  0  0
  3 10  1  0  0  0  0
  3  4  1  0  0  0  0
  4  2  1  0  0  0  0
  6  5  2  0  0  0  0
  7  6  1  0  0  0  0
  8  1  2  0  0  0  0
  9 11  2  0  0  0  0
  9  7  1  0  0  0  0
 10  9  1  0  0  0  0
 13 17  1  0  0  0  0
 14 13  1  0  0  0  0
 15 18  1  0  0  0  0
 16 12  1  0  0  0  0
 16 22  1  0  0  0  0
 16 11  1  1  0  0  0
 17 16  1  0  0  0  0
 17 12  1  0  0  0  0
 18 17  1  0  0  0  0
 19 14  1  0  0  0  0
 19 15  1  0  0  0  0
 21 24  1  0  0  0  0
 22 21  1  1  0  0  0
 22 26  1  0  0  0  0
 23 25  1  0  0  0  0
 24 25  2  0  0  0  0
 25 20  1  0  0  0  0
 26 23  1  0  0  0  0
 27 28  1  0  0  0  0
 28 29  1  0  0  0  0
 30 29  1  0  0  0  0
 31 30  2  0  0  0  0
 32 30  1  0  0  0  0
M  END
>  <MODEL>
9

>  <REMARK>
 VINA RESULT:      -6.0      3.682      7.437
  Name = 
  5 active torsions:
  status: ('A' for Active; 'I' for Inactive)
    1  A    between atoms: C_3  and  N_15
    2  A    between atoms: C_4  and  C_20
    3  A    between atoms: N_15  and  C_20
    4  A    between atoms: C_19  and  C_24
    5  A    between atoms: C_19  and  N_32
                            x       y       z     vdW  Elec       q    Type
                         _______ _______ _______ _____ _____    ______ ____

>  <TORSDO>
F 5

$$$$
