=
 OpenBabel11062420523D

 50 52  0  0  1  0  0  0  0  0999 V2000
  189.1760  174.1480  140.3320 C   0  0  1  0  0  3  0  0  0  0  0  0
  189.2120  173.7820  138.8780 C   0  0  0  0  0  0  0  0  0  0  0  0
  188.1310  173.7050  138.2350 O   0  0  0  0  0  0  0  0  0  0  0  0
  190.4450  173.5410  138.2080 N   0  0  0  0  0  1  0  0  0  0  0  0
  188.1030  175.1650  140.6180 C   0  0  0  0  0  3  0  0  0  0  0  0
  187.8450  175.6270  141.8500 C   0  0  0  0  0  3  0  0  0  0  0  0
  188.6430  175.2000  143.0550 C   0  0  0  0  0  2  0  0  0  0  0  0
  191.4410  176.1530  147.4750 N   0  0  0  0  0  2  0  0  0  0  0  0
  189.3270  176.3740  143.7510 C   0  0  2  0  0  3  0  0  0  0  0  0
  192.7600  175.9010  146.9870 C   0  0  0  0  0  0  0  0  0  0  0  0
  192.9180  176.3990  144.2880 O   0  0  0  0  0  0  0  0  0  0  0  0
  190.3690  175.1710  147.3910 C   0  0  0  0  0  2  0  0  0  0  0  0
  193.6200  177.0540  146.5850 C   0  0  0  0  0  2  0  0  0  0  0  0
  193.8180  177.1640  145.0520 C   0  0  0  0  0  2  0  0  0  0  0  0
  190.8000  176.3820  143.2900 C   0  0  2  0  0  3  0  0  0  0  0  0
  193.1760  174.7200  146.8490 O   0  0  0  0  0  0  0  0  0  0  0  0
  190.1390  174.0470  145.3530 O   0  0  0  0  0  0  0  0  0  0  0  0
  191.6960  177.0780  144.3070 C   0  0  2  0  0  3  0  0  0  0  0  0
  189.2080  176.2460  145.2930 C   0  0  2  0  0  3  0  0  0  0  0  0
  189.8870  175.0650  145.9770 C   0  0  0  0  0  0  0  0  0  0  0  0
  191.3740  177.7650  143.0040 C   0  0  0  0  0  2  0  0  0  0  0  0
  186.7120  176.7440  145.4070 N   0  0  0  0  0  2  0  0  0  0  0  0
  188.0230  176.8920  145.9770 C   0  0  0  0  0  0  0  0  0  0  0  0
  188.1670  177.4400  147.1010 O   0  0  0  0  0  0  0  0  0  0  0  0
  185.4780  176.8350  146.1850 C   0  0  0  0  0  2  0  0  0  0  0  0
  184.9580  178.2370  146.2300 C   0  0  0  0  0  0  0  0  0  0  0  0
  184.0660  178.7020  145.2180 N   0  0  0  0  0  1  0  0  0  0  0  0
  185.2770  179.0020  147.1770 O   0  0  0  0  0  0  0  0  0  0  0  0
  188.9330  172.9020  141.1720 C   0  0  0  0  0  2  0  0  0  0  0  0
  190.2330  172.1590  141.4530 C   0  0  2  0  0  3  0  0  0  0  0  0
  188.9270  171.7750  143.4710 N   0  0  0  0  0  1  0  0  0  0  0  0
  190.0900  171.3370  142.7220 C   0  0  0  0  0  2  0  0  0  0  0  0
  191.3630  173.1630  141.6270 C   0  0  0  0  0  2  0  0  0  0  0  0
  192.6930  172.5460  141.2420 C   0  0  0  0  0  2  0  0  0  0  0  0
  193.5460  172.4440  142.4130 N   0  0  0  0  0  2  0  0  0  0  0  0
  195.2250  172.9530  140.4260 O   0  0  0  0  0  0  0  0  0  0  0  0
  195.1840  172.7860  141.9200 S   0  0  0  0  0  0  0  0  0  0  0  0
  196.0860  171.6500  142.3080 O   0  0  0  0  0  0  0  0  0  0  0  0
  195.7020  174.3030  142.7380 C   0  0  1  0  0  3  0  0  0  0  0  0
  194.1710  175.8720  141.2420 C   0  0  0  0  0  1  0  0  0  0  0  0
  196.4280  176.7770  141.9900 C   0  0  0  0  0  2  0  0  0  0  0  0
  196.5470  175.8050  140.9740 O   0  0  0  0  0  0  0  0  0  0  0  0
  195.5100  175.6160  141.9080 C   0  0  1  0  0  0  0  0  0  0  0  0
  195.4750  174.2660  144.1370 O   0  0  0  0  0  0  0  0  0  0  0  0
  196.6600  174.4790  144.8590 C   0  0  0  0  0  2  0  0  0  0  0  0
  197.0220  173.3140  145.7720 C   0  0  0  0  0  2  0  0  0  0  0  0
  197.5410  170.4340  145.3500 N   0  0  0  0  0  1  0  0  0  0  0  0
  196.2530  170.9010  145.7580 C   0  0  0  0  0  0  0  0  0  0  0  0
  195.9670  172.3030  145.7780 N   0  0  0  0  0  2  0  0  0  0  0  0
  195.3640  170.0760  146.0840 O   0  0  0  0  0  0  0  0  0  0  0  0
  1  5  1  6  0  0  0
  1 29  1  0  0  0  0
  2  1  1  0  0  0  0
  3  2  2  0  0  0  0
  4  2  1  0  0  0  0
  5  6  2  0  0  0  0
  6  7  1  0  0  0  0
  9  7  1  6  0  0  0
  9 19  1  0  0  0  0
 10  8  1  0  0  0  0
 11 18  1  0  0  0  0
 11 14  1  0  0  0  0
 12  8  1  0  0  0  0
 13 10  1  0  0  0  0
 14 13  1  0  0  0  0
 15 21  1  6  0  0  0
 15  9  1  0  0  0  0
 15 18  1  0  0  0  0
 16 10  2  0  0  0  0
 17 20  2  0  0  0  0
 18 21  1  6  0  0  0
 19 23  1  6  0  0  0
 19 20  1  0  0  0  0
 20 12  1  0  0  0  0
 22 23  1  0  0  0  0
 22 25  1  0  0  0  0
 23 24  2  0  0  0  0
 25 26  1  0  0  0  0
 26 28  2  0  0  0  0
 27 26  1  0  0  0  0
 30 29  1  1  0  0  0
 30 33  1  0  0  0  0
 30 32  1  0  0  0  0
 32 31  1  0  0  0  0
 34 33  1  0  0  0  0
 34 35  1  0  0  0  0
 36 37  2  0  0  0  0
 37 38  2  0  0  0  0
 37 35  1  0  0  0  0
 37 39  1  0  0  0  0
 39 44  1  1  0  0  0
 42 43  1  0  0  0  0
 42 41  1  0  0  0  0
 43 40  1  6  0  0  0
 43 41  1  0  0  0  0
 43 39  1  0  0  0  0
 44 45  1  0  0  0  0
 45 46  1  0  0  0  0
 46 49  1  0  0  0  0
 47 48  1  0  0  0  0
 48 49  1  0  0  0  0
 48 50  2  0  0  0  0
M  END
>  <MODEL>
1

>  <REMARK>
 VINA RESULT:      -5.9      0.000      0.000
  Name = 
  20 active torsions:
  status: ('A' for Active; 'I' for Inactive)
    1  A    between atoms: C_1  and  C_9
    2  A    between atoms: C_2  and  C_13
    3  A    between atoms: C_2  and  C_34
    4  A    between atoms: N_3  and  C_20
    5  A    between atoms: C_4  and  C_6
    6  A    between atoms: C_4  and  N_10
    7  A    between atoms: C_6  and  C_37
    8  A    between atoms: C_8  and  C_20
    9  A    between atoms: C_9  and  C_11
   10  A    between atoms: C_9  and  C_21
   11  A    between atoms: N_10  and  S_35
   12  A    between atoms: O_12  and  C_31
   13  A    between atoms: O_12  and  C_32
   14  A    between atoms: C_21  and  C_37
   15  A    between atoms: N_25  and  C_48
   16  A    between atoms: C_28  and  C_37
   17  A    between atoms: C_31  and  C_33
   18  A    between atoms: C_31  and  S_35
   19  A    between atoms: C_32  and  C_48
   20  A    between atoms: C_36  and  C_45
                            x       y       z     vdW  Elec       q    Type
                         _______ _______ _______ _____ _____    ______ ____

>  <TORSDO>
F 20

$$$$
=
 OpenBabel11062420523D

 50 52  0  0  1  0  0  0  0  0999 V2000
  189.9220  173.4990  141.7470 C   0  0  1  0  0  3  0  0  0  0  0  0
  189.8500  172.3590  142.7190 C   0  0  0  0  0  0  0  0  0  0  0  0
  189.9970  171.1810  142.2970 O   0  0  0  0  0  0  0  0  0  0  0  0
  189.6400  172.5850  144.1090 N   0  0  0  0  0  1  0  0  0  0  0  0
  190.5470  173.0760  140.4460 C   0  0  0  0  0  3  0  0  0  0  0  0
  191.7860  173.4370  140.0800 C   0  0  0  0  0  3  0  0  0  0  0  0
  192.6810  174.2630  140.9680 C   0  0  0  0  0  2  0  0  0  0  0  0
  197.8770  173.8500  139.9190 N   0  0  0  0  0  2  0  0  0  0  0  0
  193.7570  175.0090  140.1840 C   0  0  2  0  0  3  0  0  0  0  0  0
  197.8240  173.0460  138.7400 C   0  0  0  0  0  0  0  0  0  0  0  0
  195.4630  173.4420  137.3880 O   0  0  0  0  0  0  0  0  0  0  0  0
  197.2700  173.4430  141.1780 C   0  0  0  0  0  2  0  0  0  0  0  0
  197.9390  173.7030  137.4050 C   0  0  0  0  0  2  0  0  0  0  0  0
  196.6050  173.7260  136.6170 C   0  0  0  0  0  2  0  0  0  0  0  0
  193.8260  174.3690  138.7820 C   0  0  2  0  0  3  0  0  0  0  0  0
  197.6320  171.8030  138.8220 O   0  0  0  0  0  0  0  0  0  0  0  0
  195.1120  172.5510  141.0580 O   0  0  0  0  0  0  0  0  0  0  0  0
  195.1880  174.5910  138.1360 C   0  0  2  0  0  3  0  0  0  0  0  0
  195.1240  174.9360  140.9160 C   0  0  2  0  0  3  0  0  0  0  0  0
  195.7800  173.5720  141.0900 C   0  0  0  0  0  0  0  0  0  0  0  0
  193.9920  175.3590  137.6330 C   0  0  0  0  0  2  0  0  0  0  0  0
  194.8320  176.0580  143.1850 N   0  0  0  0  0  2  0  0  0  0  0  0
  195.4710  176.0330  141.8990 C   0  0  0  0  0  0  0  0  0  0  0  0
  196.4040  176.8370  141.6400 O   0  0  0  0  0  0  0  0  0  0  0  0
  195.4180  176.6860  144.3670 C   0  0  0  0  0  2  0  0  0  0  0  0
  194.3760  177.0290  145.3830 C   0  0  0  0  0  0  0  0  0  0  0  0
  193.0020  177.0910  145.0040 N   0  0  0  0  0  1  0  0  0  0  0  0
  194.7000  177.2300  146.5830 O   0  0  0  0  0  0  0  0  0  0  0  0
  188.5250  174.0450  141.4870 C   0  0  0  0  0  2  0  0  0  0  0  0
  188.3010  175.3670  142.2100 C   0  0  2  0  0  3  0  0  0  0  0  0
  187.9870  177.6180  141.3380 N   0  0  0  0  0  1  0  0  0  0  0  0
  187.4350  176.2770  141.3550 C   0  0  0  0  0  2  0  0  0  0  0  0
  189.6420  176.0400  142.4630 C   0  0  0  0  0  2  0  0  0  0  0  0
  189.8830  176.2110  143.9500 C   0  0  0  0  0  2  0  0  0  0  0  0
  189.3230  177.4750  144.3960 N   0  0  0  0  0  2  0  0  0  0  0  0
  188.8160  177.6870  146.9890 O   0  0  0  0  0  0  0  0  0  0  0  0
  188.2300  177.1460  145.7150 S   0  0  0  0  0  0  0  0  0  0  0  0
  188.0300  175.6650  145.8610 O   0  0  0  0  0  0  0  0  0  0  0  0
  186.6640  177.9550  145.3490 C   0  0  1  0  0  3  0  0  0  0  0  0
  185.9980  179.4030  147.4710 C   0  0  0  0  0  1  0  0  0  0  0  0
  184.4140  177.5460  146.7540 C   0  0  0  0  0  2  0  0  0  0  0  0
  185.5810  177.0490  147.3710 O   0  0  0  0  0  0  0  0  0  0  0  0
  185.7300  178.2040  146.5790 C   0  0  1  0  0  0  0  0  0  0  0  0
  186.7780  178.8970  144.2960 O   0  0  0  0  0  0  0  0  0  0  0  0
  185.5320  179.1650  143.7060 C   0  0  0  0  0  2  0  0  0  0  0  0
  184.8520  177.9190  143.1520 C   0  0  0  0  0  2  0  0  0  0  0  0
  184.5180  178.2130  140.2290 N   0  0  0  0  0  1  0  0  0  0  0  0
  183.3890  178.2080  141.1060 C   0  0  0  0  0  0  0  0  0  0  0  0
  183.5760  178.2510  142.5240 N   0  0  0  0  0  2  0  0  0  0  0  0
  182.2280  178.1820  140.6270 O   0  0  0  0  0  0  0  0  0  0  0  0
  1  5  1  6  0  0  0
  1  2  1  0  0  0  0
  2  4  1  0  0  0  0
  3  2  2  0  0  0  0
  6  5  2  0  0  0  0
  6  7  1  0  0  0  0
  8 12  1  0  0  0  0
  9 19  1  0  0  0  0
  9  7  1  1  0  0  0
 10 16  2  0  0  0  0
 10  8  1  0  0  0  0
 11 18  1  0  0  0  0
 13 10  1  0  0  0  0
 14 11  1  0  0  0  0
 14 13  1  0  0  0  0
 15 21  1  6  0  0  0
 15  9  1  0  0  0  0
 17 20  2  0  0  0  0
 18 21  1  6  0  0  0
 18 15  1  0  0  0  0
 19 20  1  0  0  0  0
 19 23  1  1  0  0  0
 20 12  1  0  0  0  0
 22 25  1  0  0  0  0
 23 22  1  0  0  0  0
 24 23  2  0  0  0  0
 25 26  1  0  0  0  0
 26 28  2  0  0  0  0
 27 26  1  0  0  0  0
 29  1  1  0  0  0  0
 29 30  1  0  0  0  0
 30 32  1  6  0  0  0
 30 33  1  0  0  0  0
 31 32  1  0  0  0  0
 33 34  1  0  0  0  0
 34 35  1  0  0  0  0
 35 37  1  0  0  0  0
 37 38  2  0  0  0  0
 37 36  2  0  0  0  0
 39 44  1  1  0  0  0
 39 37  1  0  0  0  0
 39 43  1  0  0  0  0
 41 42  1  0  0  0  0
 43 41  1  0  0  0  0
 43 42  1  0  0  0  0
 43 40  1  1  0  0  0
 45 44  1  0  0  0  0
 46 45  1  0  0  0  0
 47 48  1  0  0  0  0
 48 49  1  0  0  0  0
 49 46  1  0  0  0  0
 50 48  2  0  0  0  0
M  END
>  <MODEL>
2

>  <REMARK>
 VINA RESULT:      -5.8      3.220      9.219
  Name = 
  20 active torsions:
  status: ('A' for Active; 'I' for Inactive)
    1  A    between atoms: C_1  and  C_9
    2  A    between atoms: C_2  and  C_13
    3  A    between atoms: C_2  and  C_34
    4  A    between atoms: N_3  and  C_20
    5  A    between atoms: C_4  and  C_6
    6  A    between atoms: C_4  and  N_10
    7  A    between atoms: C_6  and  C_37
    8  A    between atoms: C_8  and  C_20
    9  A    between atoms: C_9  and  C_11
   10  A    between atoms: C_9  and  C_21
   11  A    between atoms: N_10  and  S_35
   12  A    between atoms: O_12  and  C_31
   13  A    between atoms: O_12  and  C_32
   14  A    between atoms: C_21  and  C_37
   15  A    between atoms: N_25  and  C_48
   16  A    between atoms: C_28  and  C_37
   17  A    between atoms: C_31  and  C_33
   18  A    between atoms: C_31  and  S_35
   19  A    between atoms: C_32  and  C_48
   20  A    between atoms: C_36  and  C_45
                            x       y       z     vdW  Elec       q    Type
                         _______ _______ _______ _____ _____    ______ ____

>  <TORSDO>
F 20

$$$$
=
 OpenBabel11062420523D

 50 52  0  0  1  0  0  0  0  0999 V2000
  190.8600  172.7170  139.8210 C   0  0  1  0  0  3  0  0  0  0  0  0
  190.9420  172.5360  138.3340 C   0  0  0  0  0  0  0  0  0  0  0  0
  191.8990  173.0570  137.7020 O   0  0  0  0  0  0  0  0  0  0  0  0
  189.9710  171.7690  137.6280 N   0  0  0  0  0  1  0  0  0  0  0  0
  191.3460  174.0790  140.2380 C   0  0  0  0  0  3  0  0  0  0  0  0
  192.3240  174.2600  141.1380 C   0  0  0  0  0  3  0  0  0  0  0  0
  193.0570  173.1090  141.7760 C   0  0  0  0  0  2  0  0  0  0  0  0
  195.3310  175.3400  146.0340 N   0  0  0  0  0  2  0  0  0  0  0  0
  192.9140  173.0930  143.2950 C   0  0  2  0  0  3  0  0  0  0  0  0
  194.5320  176.5190  146.1470 C   0  0  0  0  0  0  0  0  0  0  0  0
  192.0140  176.0980  145.1240 O   0  0  0  0  0  0  0  0  0  0  0  0
  196.0530  174.9910  144.8200 C   0  0  0  0  0  2  0  0  0  0  0  0
  193.4120  176.5480  147.1340 C   0  0  0  0  0  2  0  0  0  0  0  0
  192.0110  176.4940  146.4740 C   0  0  0  0  0  2  0  0  0  0  0  0
  191.9760  174.2570  143.6770 C   0  0  2  0  0  3  0  0  0  0  0  0
  194.7340  177.5040  145.3880 O   0  0  0  0  0  0  0  0  0  0  0  0
  194.8850  175.2190  142.8060 O   0  0  0  0  0  0  0  0  0  0  0  0
  192.2140  174.7140  145.1110 C   0  0  2  0  0  3  0  0  0  0  0  0
  194.3000  173.2230  143.9820 C   0  0  2  0  0  3  0  0  0  0  0  0
  195.0930  174.5080  143.7770 C   0  0  0  0  0  0  0  0  0  0  0  0
  190.9670  173.9350  144.7750 C   0  0  0  0  0  2  0  0  0  0  0  0
  194.8680  171.3420  145.6040 N   0  0  0  0  0  2  0  0  0  0  0  0
  195.0550  171.9550  144.3180 C   0  0  0  0  0  0  0  0  0  0  0  0
  195.7380  171.3770  143.4330 O   0  0  0  0  0  0  0  0  0  0  0  0
  195.0870  169.9190  145.8600 C   0  0  0  0  0  2  0  0  0  0  0  0
  196.4220  169.6720  146.4870 C   0  0  0  0  0  0  0  0  0  0  0  0
  196.5070  169.0200  147.7530 N   0  0  0  0  0  1  0  0  0  0  0  0
  197.4770  170.0060  145.8880 O   0  0  0  0  0  0  0  0  0  0  0  0
  189.4240  172.5240  140.2860 C   0  0  0  0  0  2  0  0  0  0  0  0
  189.2160  173.0790  141.6890 C   0  0  2  0  0  3  0  0  0  0  0  0
  190.0850  171.0380  142.6920 N   0  0  0  0  0  1  0  0  0  0  0  0
  188.9490  171.9390  142.6570 C   0  0  0  0  0  2  0  0  0  0  0  0
  188.0250  174.0280  141.6880 C   0  0  0  0  0  2  0  0  0  0  0  0
  188.3790  175.3320  142.3750 C   0  0  0  0  0  2  0  0  0  0  0  0
  187.2050  175.8710  143.0390 N   0  0  0  0  0  2  0  0  0  0  0  0
  187.4790  178.4250  142.3810 O   0  0  0  0  0  0  0  0  0  0  0  0
  187.5760  177.4950  143.5590 S   0  0  0  0  0  0  0  0  0  0  0  0
  188.9710  177.5520  144.1110 O   0  0  0  0  0  0  0  0  0  0  0  0
  186.3830  177.9550  144.8260 C   0  0  1  0  0  3  0  0  0  0  0  0
  187.6780  176.3530  146.5000 C   0  0  0  0  0  1  0  0  0  0  0  0
  186.5450  178.4160  147.4650 C   0  0  0  0  0  2  0  0  0  0  0  0
  185.6210  177.4120  147.1070 O   0  0  0  0  0  0  0  0  0  0  0  0
  186.7590  177.5420  146.2880 C   0  0  1  0  0  0  0  0  0  0  0  0
  185.7430  179.1870  144.5400 O   0  0  0  0  0  0  0  0  0  0  0  0
  184.3760  179.0100  144.2760 C   0  0  0  0  0  2  0  0  0  0  0  0
  184.1100  178.2730  142.9680 C   0  0  0  0  0  2  0  0  0  0  0  0
  183.3430  177.9520  140.1310 N   0  0  0  0  0  1  0  0  0  0  0  0
  182.3630  178.2230  141.1360 C   0  0  0  0  0  0  0  0  0  0  0  0
  182.7680  178.5580  142.4670 N   0  0  0  0  0  2  0  0  0  0  0  0
  181.1420  178.1830  140.8440 O   0  0  0  0  0  0  0  0  0  0  0  0
  1  5  1  6  0  0  0
  1 29  1  0  0  0  0
  2  1  1  0  0  0  0
  3  2  2  0  0  0  0
  4  2  1  0  0  0  0
  5  6  2  0  0  0  0
  6  7  1  0  0  0  0
  8 10  1  0  0  0  0
  9  7  1  6  0  0  0
  9 15  1  0  0  0  0
  9 19  1  0  0  0  0
 10 13  1  0  0  0  0
 11 14  1  0  0  0  0
 12  8  1  0  0  0  0
 14 13  1  0  0  0  0
 15 21  1  1  0  0  0
 15 18  1  0  0  0  0
 16 10  2  0  0  0  0
 17 20  2  0  0  0  0
 18 21  1  1  0  0  0
 18 11  1  0  0  0  0
 19 23  1  6  0  0  0
 20 19  1  0  0  0  0
 20 12  1  0  0  0  0
 22 25  1  0  0  0  0
 23 22  1  0  0  0  0
 24 23  2  0  0  0  0
 25 26  1  0  0  0  0
 26 27  1  0  0  0  0
 28 26  2  0  0  0  0
 30 29  1  6  0  0  0
 30 32  1  0  0  0  0
 32 31  1  0  0  0  0
 33 30  1  0  0  0  0
 33 34  1  0  0  0  0
 34 35  1  0  0  0  0
 35 37  1  0  0  0  0
 36 37  2  0  0  0  0
 37 38  2  0  0  0  0
 37 39  1  0  0  0  0
 39 44  1  1  0  0  0
 39 43  1  0  0  0  0
 42 41  1  0  0  0  0
 43 40  1  1  0  0  0
 43 42  1  0  0  0  0
 43 41  1  0  0  0  0
 45 44  1  0  0  0  0
 46 45  1  0  0  0  0
 47 48  1  0  0  0  0
 48 49  1  0  0  0  0
 49 46  1  0  0  0  0
 50 48  2  0  0  0  0
M  END
>  <MODEL>
3

>  <REMARK>
 VINA RESULT:      -5.6      2.839      8.861
  Name = 
  20 active torsions:
  status: ('A' for Active; 'I' for Inactive)
    1  A    between atoms: C_1  and  C_9
    2  A    between atoms: C_2  and  C_13
    3  A    between atoms: C_2  and  C_34
    4  A    between atoms: N_3  and  C_20
    5  A    between atoms: C_4  and  C_6
    6  A    between atoms: C_4  and  N_10
    7  A    between atoms: C_6  and  C_37
    8  A    between atoms: C_8  and  C_20
    9  A    between atoms: C_9  and  C_11
   10  A    between atoms: C_9  and  C_21
   11  A    between atoms: N_10  and  S_35
   12  A    between atoms: O_12  and  C_31
   13  A    between atoms: O_12  and  C_32
   14  A    between atoms: C_21  and  C_37
   15  A    between atoms: N_25  and  C_48
   16  A    between atoms: C_28  and  C_37
   17  A    between atoms: C_31  and  C_33
   18  A    between atoms: C_31  and  S_35
   19  A    between atoms: C_32  and  C_48
   20  A    between atoms: C_36  and  C_45
                            x       y       z     vdW  Elec       q    Type
                         _______ _______ _______ _____ _____    ______ ____

>  <TORSDO>
F 20

$$$$
=
 OpenBabel11062420523D

 50 52  0  0  1  0  0  0  0  0999 V2000
  188.6160  176.2710  145.2560 C   0  0  1  0  0  3  0  0  0  0  0  0
  188.1270  175.8840  146.6200 C   0  0  0  0  0  0  0  0  0  0  0  0
  188.7470  174.9990  147.2680 O   0  0  0  0  0  0  0  0  0  0  0  0
  186.9900  176.5120  147.2030 N   0  0  0  0  0  1  0  0  0  0  0  0
  187.5070  176.2260  144.2400 C   0  0  0  0  0  3  0  0  0  0  0  0
  187.6920  175.8130  142.9770 C   0  0  0  0  0  3  0  0  0  0  0  0
  189.0220  175.3100  142.4780 C   0  0  0  0  0  2  0  0  0  0  0  0
  192.2180  171.5510  140.4970 N   0  0  0  0  0  2  0  0  0  0  0  0
  189.0620  173.7910  142.3450 C   0  0  2  0  0  3  0  0  0  0  0  0
  193.0330  171.2970  141.6420 C   0  0  0  0  0  0  0  0  0  0  0  0
  191.6610  171.8370  143.9630 O   0  0  0  0  0  0  0  0  0  0  0  0
  192.0690  172.8770  139.9150 C   0  0  0  0  0  2  0  0  0  0  0  0
  192.7260  170.1200  142.5080 C   0  0  0  0  0  2  0  0  0  0  0  0
  192.1230  170.5110  143.8810 C   0  0  0  0  0  2  0  0  0  0  0  0
  189.8330  173.2460  143.5660 C   0  0  2  0  0  3  0  0  0  0  0  0
  193.9690  172.0830  141.9490 O   0  0  0  0  0  0  0  0  0  0  0  0
  191.7160  174.6410  141.4090 O   0  0  0  0  0  0  0  0  0  0  0  0
  190.4450  171.8820  143.2730 C   0  0  2  0  0  3  0  0  0  0  0  0
  189.7320  173.3710  141.0090 C   0  0  2  0  0  3  0  0  0  0  0  0
  191.1990  173.7230  140.7930 C   0  0  0  0  0  0  0  0  0  0  0  0
  189.2460  171.9810  144.1830 C   0  0  0  0  0  2  0  0  0  0  0  0
  188.5370  174.3030  138.9620 N   0  0  0  0  0  2  0  0  0  0  0  0
  188.8500  173.1760  139.7950 C   0  0  0  0  0  0  0  0  0  0  0  0
  188.5050  172.0160  139.4490 O   0  0  0  0  0  0  0  0  0  0  0  0
  188.1770  174.1890  137.5490 C   0  0  0  0  0  2  0  0  0  0  0  0
  189.3360  174.5070  136.6590 C   0  0  0  0  0  0  0  0  0  0  0  0
  189.1280  175.2260  135.4440 N   0  0  0  0  0  1  0  0  0  0  0  0
  190.5030  174.1730  136.9920 O   0  0  0  0  0  0  0  0  0  0  0  0
  189.2110  177.6720  145.2990 C   0  0  0  0  0  2  0  0  0  0  0  0
  190.7060  177.6490  145.0110 C   0  0  2  0  0  3  0  0  0  0  0  0
  191.6200  177.7280  142.7560 N   0  0  0  0  0  1  0  0  0  0  0  0
  191.0080  178.5220  143.8040 C   0  0  0  0  0  2  0  0  0  0  0  0
  191.1460  176.2210  144.7230 C   0  0  0  0  0  2  0  0  0  0  0  0
  192.4510  175.9100  145.4290 C   0  0  0  0  0  2  0  0  0  0  0  0
  193.3930  175.3290  144.4880 N   0  0  0  0  0  2  0  0  0  0  0  0
  195.0030  175.5770  146.5790 O   0  0  0  0  0  0  0  0  0  0  0  0
  195.0060  175.6390  145.0770 S   0  0  0  0  0  0  0  0  0  0  0  0
  195.4570  177.0040  144.6460 O   0  0  0  0  0  0  0  0  0  0  0  0
  196.0940  174.3770  144.3960 C   0  0  1  0  0  3  0  0  0  0  0  0
  194.7950  172.3620  145.5340 C   0  0  0  0  0  1  0  0  0  0  0  0
  197.3180  172.1610  145.2850 C   0  0  0  0  0  2  0  0  0  0  0  0
  196.9490  173.0660  146.3020 O   0  0  0  0  0  0  0  0  0  0  0  0
  196.1150  173.0170  145.1680 C   0  0  1  0  0  0  0  0  0  0  0  0
  196.1640  174.4330  142.9810 O   0  0  0  0  0  0  0  0  0  0  0  0
  197.3770  174.9890  142.5460 C   0  0  0  0  0  2  0  0  0  0  0  0
  197.8120  174.4800  141.1770 C   0  0  0  0  0  2  0  0  0  0  0  0
  195.6900  175.1310  139.2230 N   0  0  0  0  0  1  0  0  0  0  0  0
  195.9740  173.7760  139.5830 C   0  0  0  0  0  0  0  0  0  0  0  0
  196.8700  173.4890  140.6610 N   0  0  0  0  0  2  0  0  0  0  0  0
  195.4200  172.8360  138.9620 O   0  0  0  0  0  0  0  0  0  0  0  0
  1  5  1  6  0  0  0
  1 29  1  0  0  0  0
  1  2  1  0  0  0  0
  2  4  1  0  0  0  0
  2  3  2  0  0  0  0
  6  5  2  0  0  0  0
  7  6  1  0  0  0  0
  8 10  1  0  0  0  0
  9  7  1  1  0  0  0
  9 15  1  0  0  0  0
 10 16  2  0  0  0  0
 10 13  1  0  0  0  0
 12  8  1  0  0  0  0
 12 20  1  0  0  0  0
 13 14  1  0  0  0  0
 14 11  1  0  0  0  0
 15 21  1  1  0  0  0
 18 15  1  0  0  0  0
 18 11  1  0  0  0  0
 18 21  1  1  0  0  0
 19 23  1  6  0  0  0
 19  9  1  0  0  0  0
 20 19  1  0  0  0  0
 20 17  2  0  0  0  0
 22 23  1  0  0  0  0
 24 23  2  0  0  0  0
 25 22  1  0  0  0  0
 26 28  2  0  0  0  0
 26 25  1  0  0  0  0
 27 26  1  0  0  0  0
 30 32  1  6  0  0  0
 30 29  1  0  0  0  0
 31 32  1  0  0  0  0
 33 30  1  0  0  0  0
 33 34  1  0  0  0  0
 35 37  1  0  0  0  0
 35 34  1  0  0  0  0
 37 36  2  0  0  0  0
 38 37  2  0  0  0  0
 39 44  1  6  0  0  0
 39 37  1  0  0  0  0
 39 43  1  0  0  0  0
 41 42  1  0  0  0  0
 43 41  1  0  0  0  0
 43 40  1  1  0  0  0
 43 42  1  0  0  0  0
 45 44  1  0  0  0  0
 46 45  1  0  0  0  0
 47 48  1  0  0  0  0
 48 49  1  0  0  0  0
 49 46  1  0  0  0  0
 50 48  2  0  0  0  0
M  END
>  <MODEL>
4

>  <REMARK>
 VINA RESULT:      -5.6      2.484      6.621
  Name = 
  20 active torsions:
  status: ('A' for Active; 'I' for Inactive)
    1  A    between atoms: C_1  and  C_9
    2  A    between atoms: C_2  and  C_13
    3  A    between atoms: C_2  and  C_34
    4  A    between atoms: N_3  and  C_20
    5  A    between atoms: C_4  and  C_6
    6  A    between atoms: C_4  and  N_10
    7  A    between atoms: C_6  and  C_37
    8  A    between atoms: C_8  and  C_20
    9  A    between atoms: C_9  and  C_11
   10  A    between atoms: C_9  and  C_21
   11  A    between atoms: N_10  and  S_35
   12  A    between atoms: O_12  and  C_31
   13  A    between atoms: O_12  and  C_32
   14  A    between atoms: C_21  and  C_37
   15  A    between atoms: N_25  and  C_48
   16  A    between atoms: C_28  and  C_37
   17  A    between atoms: C_31  and  C_33
   18  A    between atoms: C_31  and  S_35
   19  A    between atoms: C_32  and  C_48
   20  A    between atoms: C_36  and  C_45
                            x       y       z     vdW  Elec       q    Type
                         _______ _______ _______ _____ _____    ______ ____

>  <TORSDO>
F 20

$$$$
=
 OpenBabel11062420523D

 50 52  0  0  1  0  0  0  0  0999 V2000
  190.4780  172.9280  139.6890 C   0  0  1  0  0  3  0  0  0  0  0  0
  191.2210  173.1190  138.4010 C   0  0  0  0  0  0  0  0  0  0  0  0
  192.0510  174.0610  138.3030 O   0  0  0  0  0  0  0  0  0  0  0  0
  191.0220  172.2420  137.2960 N   0  0  0  0  0  1  0  0  0  0  0  0
  189.2160  173.7490  139.7250 C   0  0  0  0  0  3  0  0  0  0  0  0
  188.7070  174.2550  140.8580 C   0  0  0  0  0  3  0  0  0  0  0  0
  189.3830  174.0840  142.1930 C   0  0  0  0  0  2  0  0  0  0  0  0
  190.7690  176.5920  146.6720 N   0  0  0  0  0  2  0  0  0  0  0  0
  190.1580  175.3270  142.6210 C   0  0  2  0  0  3  0  0  0  0  0  0
  192.0100  175.9400  146.9430 C   0  0  0  0  0  0  0  0  0  0  0  0
  193.1800  175.0560  144.6160 O   0  0  0  0  0  0  0  0  0  0  0  0
  189.5180  175.8670  146.5040 C   0  0  0  0  0  2  0  0  0  0  0  0
  193.2860  176.6130  146.5560 C   0  0  0  0  0  2  0  0  0  0  0  0
  193.9890  175.9460  145.3470 C   0  0  0  0  0  2  0  0  0  0  0  0
  191.6140  174.8890  142.8830 C   0  0  2  0  0  3  0  0  0  0  0  0
  192.0300  174.7880  147.4530 O   0  0  0  0  0  0  0  0  0  0  0  0
  189.5910  173.9560  145.1580 O   0  0  0  0  0  0  0  0  0  0  0  0
  192.3160  175.8400  143.8440 C   0  0  2  0  0  3  0  0  0  0  0  0
  189.5180  175.9720  143.8790 C   0  0  2  0  0  3  0  0  0  0  0  0
  189.5070  175.1730  145.1760 C   0  0  0  0  0  0  0  0  0  0  0  0
  192.6770  175.8610  142.3800 C   0  0  0  0  0  2  0  0  0  0  0  0
  187.1800  176.8890  144.3080 N   0  0  0  0  0  2  0  0  0  0  0  0
  188.4630  177.0390  143.6800 C   0  0  0  0  0  0  0  0  0  0  0  0
  188.7530  178.1050  143.0780 O   0  0  0  0  0  0  0  0  0  0  0  0
  186.3060  178.0130  144.6400 C   0  0  0  0  0  2  0  0  0  0  0  0
  185.0820  178.0320  143.7810 C   0  0  0  0  0  0  0  0  0  0  0  0
  184.0130  178.9280  144.0790 N   0  0  0  0  0  1  0  0  0  0  0  0
  185.0030  177.2830  142.7730 O   0  0  0  0  0  0  0  0  0  0  0  0
  190.1340  171.4570  139.8740 C   0  0  0  0  0  2  0  0  0  0  0  0
  191.1750  170.7460  140.7300 C   0  0  2  0  0  3  0  0  0  0  0  0
  190.5680  169.0900  139.0510 N   0  0  0  0  0  1  0  0  0  0  0  0
  191.4980  169.3920  140.1220 C   0  0  0  0  0  2  0  0  0  0  0  0
  190.6280  170.5500  142.1360 C   0  0  0  0  0  2  0  0  0  0  0  0
  191.5080  171.2470  143.1550 C   0  0  0  0  0  2  0  0  0  0  0  0
  192.8030  171.5410  142.5670 N   0  0  0  0  0  2  0  0  0  0  0  0
  194.1900  169.2850  142.4590 O   0  0  0  0  0  0  0  0  0  0  0  0
  193.9870  170.5020  143.3180 S   0  0  0  0  0  0  0  0  0  0  0  0
  193.5060  170.0690  144.6720 O   0  0  0  0  0  0  0  0  0  0  0  0
  195.5210  171.4320  143.4670 C   0  0  1  0  0  3  0  0  0  0  0  0
  196.8480  169.9860  145.2540 C   0  0  0  0  0  1  0  0  0  0  0  0
  196.6690  172.4920  145.6490 C   0  0  0  0  0  2  0  0  0  0  0  0
  195.4550  171.8190  145.9010 O   0  0  0  0  0  0  0  0  0  0  0  0
  196.2460  171.3190  144.8490 C   0  0  1  0  0  0  0  0  0  0  0  0
  196.2430  171.4780  142.2480 O   0  0  0  0  0  0  0  0  0  0  0  0
  196.8620  172.7250  142.0610 C   0  0  0  0  0  2  0  0  0  0  0  0
  195.9090  173.8990  142.2500 C   0  0  0  0  0  2  0  0  0  0  0  0
  196.1320  176.6930  141.3070 N   0  0  0  0  0  1  0  0  0  0  0  0
  196.4680  176.3370  142.6500 C   0  0  0  0  0  0  0  0  0  0  0  0
  196.5330  174.9610  143.0370 N   0  0  0  0  0  2  0  0  0  0  0  0
  196.7240  177.2360  143.4880 O   0  0  0  0  0  0  0  0  0  0  0  0
  1  5  1  6  0  0  0
  1 29  1  0  0  0  0
  2  1  1  0  0  0  0
  3  2  2  0  0  0  0
  4  2  1  0  0  0  0
  5  6  2  0  0  0  0
  6  7  1  0  0  0  0
  8 10  1  0  0  0  0
  9  7  1  1  0  0  0
  9 15  1  0  0  0  0
  9 19  1  0  0  0  0
 10 16  2  0  0  0  0
 11 14  1  0  0  0  0
 12  8  1  0  0  0  0
 13 10  1  0  0  0  0
 14 13  1  0  0  0  0
 15 21  1  6  0  0  0
 15 18  1  0  0  0  0
 17 20  2  0  0  0  0
 18 21  1  6  0  0  0
 18 11  1  0  0  0  0
 19 23  1  6  0  0  0
 19 20  1  0  0  0  0
 20 12  1  0  0  0  0
 22 25  1  0  0  0  0
 23 22  1  0  0  0  0
 24 23  2  0  0  0  0
 26 27  1  0  0  0  0
 26 25  1  0  0  0  0
 28 26  2  0  0  0  0
 30 29  1  6  0  0  0
 30 33  1  0  0  0  0
 31 32  1  0  0  0  0
 32 30  1  0  0  0  0
 33 34  1  0  0  0  0
 35 34  1  0  0  0  0
 35 37  1  0  0  0  0
 36 37  2  0  0  0  0
 37 39  1  0  0  0  0
 37 38  2  0  0  0  0
 39 44  1  6  0  0  0
 39 43  1  0  0  0  0
 41 42  1  0  0  0  0
 43 40  1  1  0  0  0
 43 41  1  0  0  0  0
 43 42  1  0  0  0  0
 45 44  1  0  0  0  0
 45 46  1  0  0  0  0
 46 49  1  0  0  0  0
 47 48  1  0  0  0  0
 48 49  1  0  0  0  0
 48 50  2  0  0  0  0
M  END
>  <MODEL>
5

>  <REMARK>
 VINA RESULT:      -5.6      2.178      3.481
  Name = 
  20 active torsions:
  status: ('A' for Active; 'I' for Inactive)
    1  A    between atoms: C_1  and  C_9
    2  A    between atoms: C_2  and  C_13
    3  A    between atoms: C_2  and  C_34
    4  A    between atoms: N_3  and  C_20
    5  A    between atoms: C_4  and  C_6
    6  A    between atoms: C_4  and  N_10
    7  A    between atoms: C_6  and  C_37
    8  A    between atoms: C_8  and  C_20
    9  A    between atoms: C_9  and  C_11
   10  A    between atoms: C_9  and  C_21
   11  A    between atoms: N_10  and  S_35
   12  A    between atoms: O_12  and  C_31
   13  A    between atoms: O_12  and  C_32
   14  A    between atoms: C_21  and  C_37
   15  A    between atoms: N_25  and  C_48
   16  A    between atoms: C_28  and  C_37
   17  A    between atoms: C_31  and  C_33
   18  A    between atoms: C_31  and  S_35
   19  A    between atoms: C_32  and  C_48
   20  A    between atoms: C_36  and  C_45
                            x       y       z     vdW  Elec       q    Type
                         _______ _______ _______ _____ _____    ______ ____

>  <TORSDO>
F 20

$$$$
=
 OpenBabel11062420523D

 50 52  0  0  1  0  0  0  0  0999 V2000
  191.0450  172.4130  139.7700 C   0  0  1  0  0  3  0  0  0  0  0  0
  191.5230  171.0550  140.1880 C   0  0  0  0  0  0  0  0  0  0  0  0
  192.2800  170.4050  139.4170 O   0  0  0  0  0  0  0  0  0  0  0  0
  191.1560  170.4960  141.4450 N   0  0  0  0  0  1  0  0  0  0  0  0
  192.0110  173.0710  138.8220 C   0  0  0  0  0  3  0  0  0  0  0  0
  192.9560  173.9330  139.2250 C   0  0  0  0  0  3  0  0  0  0  0  0
  193.1640  174.2830  140.6750 C   0  0  0  0  0  2  0  0  0  0  0  0
  196.5600  175.2900  144.6400 N   0  0  0  0  0  2  0  0  0  0  0  0
  194.4780  173.7390  141.2270 C   0  0  2  0  0  3  0  0  0  0  0  0
  195.9940  174.4670  145.6610 C   0  0  0  0  0  0  0  0  0  0  0  0
  194.6640  172.3240  144.5660 O   0  0  0  0  0  0  0  0  0  0  0  0
  195.8000  176.3180  143.9440 C   0  0  0  0  0  2  0  0  0  0  0  0
  196.5890  173.1240  145.9270 C   0  0  0  0  0  2  0  0  0  0  0  0
  195.6960  171.9520  145.4470 C   0  0  0  0  0  2  0  0  0  0  0  0
  194.1220  172.7100  142.3210 C   0  0  2  0  0  3  0  0  0  0  0  0
  194.9730  174.8460  146.2950 O   0  0  0  0  0  0  0  0  0  0  0  0
  193.6530  175.7270  143.2300 O   0  0  0  0  0  0  0  0  0  0  0  0
  195.2600  172.5460  143.3210 C   0  0  2  0  0  3  0  0  0  0  0  0
  195.3600  174.8880  141.7850 C   0  0  2  0  0  3  0  0  0  0  0  0
  194.8470  175.6810  142.9800 C   0  0  0  0  0  0  0  0  0  0  0  0
  194.9830  171.4510  142.3220 C   0  0  0  0  0  2  0  0  0  0  0  0
  197.0660  174.7500  139.8970 N   0  0  0  0  0  2  0  0  0  0  0  0
  196.3490  175.5500  140.8500 C   0  0  0  0  0  0  0  0  0  0  0  0
  196.4440  176.8050  140.8220 O   0  0  0  0  0  0  0  0  0  0  0  0
  197.6090  175.2750  138.6460 C   0  0  0  0  0  2  0  0  0  0  0  0
  196.7850  174.8560  137.4700 C   0  0  0  0  0  0  0  0  0  0  0  0
  196.0790  173.6170  137.4960 N   0  0  0  0  0  1  0  0  0  0  0  0
  196.6820  175.6090  136.4660 O   0  0  0  0  0  0  0  0  0  0  0  0
  189.6790  172.2990  139.1080 C   0  0  0  0  0  2  0  0  0  0  0  0
  188.6410  173.1530  139.8250 C   0  0  2  0  0  3  0  0  0  0  0  0
  188.8260  174.1600  137.6160 N   0  0  0  0  0  1  0  0  0  0  0  0
  188.1380  174.2400  138.8910 C   0  0  0  0  0  2  0  0  0  0  0  0
  189.2720  173.7950  141.0520 C   0  0  0  0  0  2  0  0  0  0  0  0
  188.2740  174.6880  141.7630 C   0  0  0  0  0  2  0  0  0  0  0  0
  188.8560  176.0010  141.9790 N   0  0  0  0  0  2  0  0  0  0  0  0
  186.2610  176.3690  142.3750 O   0  0  0  0  0  0  0  0  0  0  0  0
  187.5810  177.0810  142.4800 S   0  0  0  0  0  0  0  0  0  0  0  0
  187.5540  178.2920  141.5930 O   0  0  0  0  0  0  0  0  0  0  0  0
  187.9040  177.5630  144.1840 C   0  0  1  0  0  3  0  0  0  0  0  0
  185.8070  179.0780  144.7770 C   0  0  0  0  0  1  0  0  0  0  0  0
  186.0020  176.8170  145.9260 C   0  0  0  0  0  2  0  0  0  0  0  0
  186.9180  177.7610  146.4360 O   0  0  0  0  0  0  0  0  0  0  0  0
  186.6350  177.8380  145.0590 C   0  0  1  0  0  0  0  0  0  0  0  0
  189.0510  176.9230  144.7170 O   0  0  0  0  0  0  0  0  0  0  0  0
  190.2050  177.7060  144.5450 C   0  0  0  0  0  2  0  0  0  0  0  0
  191.4110  177.1680  145.3050 C   0  0  0  0  0  2  0  0  0  0  0  0
  191.2800  176.9800  148.2530 N   0  0  0  0  0  1  0  0  0  0  0  0
  190.8390  175.9030  147.4230 C   0  0  0  0  0  0  0  0  0  0  0  0
  191.0790  175.9330  146.0120 N   0  0  0  0  0  2  0  0  0  0  0  0
  190.2540  174.9180  147.9370 O   0  0  0  0  0  0  0  0  0  0  0  0
  1  5  1  6  0  0  0
  1  2  1  0  0  0  0
  2  4  1  0  0  0  0
  3  2  2  0  0  0  0
  5  6  2  0  0  0  0
  6  7  1  0  0  0  0
  8 10  1  0  0  0  0
  9  7  1  1  0  0  0
  9 19  1  0  0  0  0
  9 15  1  0  0  0  0
 10 13  1  0  0  0  0
 10 16  2  0  0  0  0
 11 14  1  0  0  0  0
 12  8  1  0  0  0  0
 14 13  1  0  0  0  0
 15 21  1  6  0  0  0
 15 18  1  0  0  0  0
 18 21  1  6  0  0  0
 18 11  1  0  0  0  0
 19 23  1  6  0  0  0
 19 20  1  0  0  0  0
 20 17  2  0  0  0  0
 20 12  1  0  0  0  0
 22 23  1  0  0  0  0
 24 23  2  0  0  0  0
 25 22  1  0  0  0  0
 26 27  1  0  0  0  0
 26 25  1  0  0  0  0
 28 26  2  0  0  0  0
 29  1  1  0  0  0  0
 29 30  1  0  0  0  0
 30 32  1  6  0  0  0
 30 33  1  0  0  0  0
 31 32  1  0  0  0  0
 33 34  1  0  0  0  0
 34 35  1  0  0  0  0
 35 37  1  0  0  0  0
 36 37  2  0  0  0  0
 37 39  1  0  0  0  0
 38 37  2  0  0  0  0
 39 44  1  1  0  0  0
 39 43  1  0  0  0  0
 41 42  1  0  0  0  0
 43 40  1  6  0  0  0
 43 41  1  0  0  0  0
 43 42  1  0  0  0  0
 45 44  1  0  0  0  0
 45 46  1  0  0  0  0
 46 49  1  0  0  0  0
 48 50  2  0  0  0  0
 48 47  1  0  0  0  0
 49 48  1  0  0  0  0
M  END
>  <MODEL>
6

>  <REMARK>
 VINA RESULT:      -5.4      2.877      7.977
  Name = 
  20 active torsions:
  status: ('A' for Active; 'I' for Inactive)
    1  A    between atoms: C_1  and  C_9
    2  A    between atoms: C_2  and  C_13
    3  A    between atoms: C_2  and  C_34
    4  A    between atoms: N_3  and  C_20
    5  A    between atoms: C_4  and  C_6
    6  A    between atoms: C_4  and  N_10
    7  A    between atoms: C_6  and  C_37
    8  A    between atoms: C_8  and  C_20
    9  A    between atoms: C_9  and  C_11
   10  A    between atoms: C_9  and  C_21
   11  A    between atoms: N_10  and  S_35
   12  A    between atoms: O_12  and  C_31
   13  A    between atoms: O_12  and  C_32
   14  A    between atoms: C_21  and  C_37
   15  A    between atoms: N_25  and  C_48
   16  A    between atoms: C_28  and  C_37
   17  A    between atoms: C_31  and  C_33
   18  A    between atoms: C_31  and  S_35
   19  A    between atoms: C_32  and  C_48
   20  A    between atoms: C_36  and  C_45
                            x       y       z     vdW  Elec       q    Type
                         _______ _______ _______ _____ _____    ______ ____

>  <TORSDO>
F 20

$$$$
=
 OpenBabel11062420523D

 50 52  0  0  1  0  0  0  0  0999 V2000
  189.6890  173.5050  141.9780 C   0  0  1  0  0  3  0  0  0  0  0  0
  191.1720  173.4950  142.2010 C   0  0  0  0  0  0  0  0  0  0  0  0
  191.8840  174.3750  141.6460 O   0  0  0  0  0  0  0  0  0  0  0  0
  191.7870  172.5260  143.0440 N   0  0  0  0  0  1  0  0  0  0  0  0
  189.2520  174.7360  141.2300 C   0  0  0  0  0  3  0  0  0  0  0  0
  188.5070  175.7020  141.7880 C   0  0  0  0  0  3  0  0  0  0  0  0
  188.0820  175.6600  143.2330 C   0  0  0  0  0  2  0  0  0  0  0  0
  190.9960  175.8450  147.6770 N   0  0  0  0  0  2  0  0  0  0  0  0
  188.8080  176.6950  144.0870 C   0  0  2  0  0  3  0  0  0  0  0  0
  192.2970  175.6480  147.1230 C   0  0  0  0  0  0  0  0  0  0  0  0
  192.4090  176.5640  144.5320 O   0  0  0  0  0  0  0  0  0  0  0  0
  189.9000  174.9110  147.4650 C   0  0  0  0  0  2  0  0  0  0  0  0
  193.1750  176.8320  146.8850 C   0  0  0  0  0  2  0  0  0  0  0  0
  193.3430  177.1800  145.3850 C   0  0  0  0  0  2  0  0  0  0  0  0
  190.2700  176.7470  143.5970 C   0  0  2  0  0  3  0  0  0  0  0  0
  192.6820  174.4950  146.7890 O   0  0  0  0  0  0  0  0  0  0  0  0
  189.5990  174.1280  145.2820 O   0  0  0  0  0  0  0  0  0  0  0  0
  191.2040  177.2550  144.6890 C   0  0  2  0  0  3  0  0  0  0  0  0
  188.7190  176.3270  145.5930 C   0  0  2  0  0  3  0  0  0  0  0  0
  189.3840  175.0400  146.0650 C   0  0  0  0  0  0  0  0  0  0  0  0
  190.8710  178.1460  143.5180 C   0  0  0  0  0  2  0  0  0  0  0  0
  187.3600  178.3010  146.4590 N   0  0  0  0  0  2  0  0  0  0  0  0
  187.5640  176.8800  146.4000 C   0  0  0  0  0  0  0  0  0  0  0  0
  186.7180  176.0970  146.9040 O   0  0  0  0  0  0  0  0  0  0  0  0
  186.0640  178.9210  146.7240 C   0  0  0  0  0  2  0  0  0  0  0  0
  185.2060  178.9490  145.4990 C   0  0  0  0  0  0  0  0  0  0  0  0
  185.7920  179.1950  144.2210 N   0  0  0  0  0  1  0  0  0  0  0  0
  183.9710  178.7220  145.5830 O   0  0  0  0  0  0  0  0  0  0  0  0
  189.2760  172.2630  141.2000 C   0  0  0  0  0  2  0  0  0  0  0  0
  189.5190  172.4370  139.7060 C   0  0  2  0  0  3  0  0  0  0  0  0
  188.3600  173.5990  137.9080 N   0  0  0  0  0  1  0  0  0  0  0  0
  188.1950  172.6510  138.9940 C   0  0  0  0  0  2  0  0  0  0  0  0
  190.1940  171.1900  139.1540 C   0  0  0  0  0  2  0  0  0  0  0  0
  191.2940  171.5630  138.1790 C   0  0  0  0  0  2  0  0  0  0  0  0
  192.1020  172.6330  138.7370 N   0  0  0  0  0  2  0  0  0  0  0  0
  193.7310  171.6530  136.8900 O   0  0  0  0  0  0  0  0  0  0  0  0
  193.7430  172.4140  138.1870 S   0  0  0  0  0  0  0  0  0  0  0  0
  194.5270  171.6350  139.2020 O   0  0  0  0  0  0  0  0  0  0  0  0
  194.4700  174.0440  137.9530 C   0  0  1  0  0  3  0  0  0  0  0  0
  194.9300  174.9680  135.5080 C   0  0  0  0  0  1  0  0  0  0  0  0
  192.5640  175.1540  136.4230 C   0  0  0  0  0  2  0  0  0  0  0  0
  193.4450  176.0820  137.0160 O   0  0  0  0  0  0  0  0  0  0  0  0
  193.9840  174.8240  136.6860 C   0  0  1  0  0  0  0  0  0  0  0  0
  194.7210  174.7030  139.1830 O   0  0  0  0  0  0  0  0  0  0  0  0
  195.9980  175.2870  139.2050 C   0  0  0  0  0  2  0  0  0  0  0  0
  196.7480  175.0360  140.5070 C   0  0  0  0  0  2  0  0  0  0  0  0
  195.2480  175.1770  143.0520 N   0  0  0  0  0  1  0  0  0  0  0  0
  196.1580  176.2120  142.6710 C   0  0  0  0  0  0  0  0  0  0  0  0
  196.7320  176.2220  141.3610 N   0  0  0  0  0  2  0  0  0  0  0  0
  196.4390  177.1260  143.4850 O   0  0  0  0  0  0  0  0  0  0  0  0
  1 29  1  6  0  0  0
  1  2  1  0  0  0  0
  2  4  1  0  0  0  0
  3  2  2  0  0  0  0
  5  6  2  0  0  0  0
  5  1  1  0  0  0  0
  6  7  1  0  0  0  0
  9  7  1  6  0  0  0
  9 19  1  0  0  0  0
 10  8  1  0  0  0  0
 11 18  1  0  0  0  0
 11 14  1  0  0  0  0
 12  8  1  0  0  0  0
 13 10  1  0  0  0  0
 14 13  1  0  0  0  0
 15 21  1  6  0  0  0
 15  9  1  0  0  0  0
 15 18  1  0  0  0  0
 16 10  2  0  0  0  0
 17 20  2  0  0  0  0
 18 21  1  6  0  0  0
 19 20  1  0  0  0  0
 19 23  1  6  0  0  0
 20 12  1  0  0  0  0
 22 25  1  0  0  0  0
 23 22  1  0  0  0  0
 23 24  2  0  0  0  0
 26 28  2  0  0  0  0
 26 25  1  0  0  0  0
 27 26  1  0  0  0  0
 30 32  1  6  0  0  0
 30 29  1  0  0  0  0
 31 32  1  0  0  0  0
 33 30  1  0  0  0  0
 34 35  1  0  0  0  0
 34 33  1  0  0  0  0
 36 37  2  0  0  0  0
 37 35  1  0  0  0  0
 37 38  2  0  0  0  0
 39 37  1  0  0  0  0
 39 44  1  1  0  0  0
 41 43  1  0  0  0  0
 41 42  1  0  0  0  0
 43 40  1  6  0  0  0
 43 42  1  0  0  0  0
 43 39  1  0  0  0  0
 44 45  1  0  0  0  0
 45 46  1  0  0  0  0
 46 49  1  0  0  0  0
 48 47  1  0  0  0  0
 48 50  2  0  0  0  0
 49 48  1  0  0  0  0
M  END
>  <MODEL>
7

>  <REMARK>
 VINA RESULT:      -5.3      2.403      3.632
  Name = 
  20 active torsions:
  status: ('A' for Active; 'I' for Inactive)
    1  A    between atoms: C_1  and  C_9
    2  A    between atoms: C_2  and  C_13
    3  A    between atoms: C_2  and  C_34
    4  A    between atoms: N_3  and  C_20
    5  A    between atoms: C_4  and  C_6
    6  A    between atoms: C_4  and  N_10
    7  A    between atoms: C_6  and  C_37
    8  A    between atoms: C_8  and  C_20
    9  A    between atoms: C_9  and  C_11
   10  A    between atoms: C_9  and  C_21
   11  A    between atoms: N_10  and  S_35
   12  A    between atoms: O_12  and  C_31
   13  A    between atoms: O_12  and  C_32
   14  A    between atoms: C_21  and  C_37
   15  A    between atoms: N_25  and  C_48
   16  A    between atoms: C_28  and  C_37
   17  A    between atoms: C_31  and  C_33
   18  A    between atoms: C_31  and  S_35
   19  A    between atoms: C_32  and  C_48
   20  A    between atoms: C_36  and  C_45
                            x       y       z     vdW  Elec       q    Type
                         _______ _______ _______ _____ _____    ______ ____

>  <TORSDO>
F 20

$$$$
=
 OpenBabel11062420523D

 50 52  0  0  1  0  0  0  0  0999 V2000
  189.0920  173.5610  140.8500 C   0  0  1  0  0  3  0  0  0  0  0  0
  188.3040  172.6930  141.7860 C   0  0  0  0  0  0  0  0  0  0  0  0
  187.0560  172.6020  141.6380 O   0  0  0  0  0  0  0  0  0  0  0  0
  188.9430  171.9540  142.8220 N   0  0  0  0  0  1  0  0  0  0  0  0
  188.4220  174.8930  140.6400 C   0  0  0  0  0  3  0  0  0  0  0  0
  188.0600  175.6950  141.6520 C   0  0  0  0  0  3  0  0  0  0  0  0
  188.3370  175.3520  143.0920 C   0  0  0  0  0  2  0  0  0  0  0  0
  191.1870  176.0120  147.5330 N   0  0  0  0  0  2  0  0  0  0  0  0
  189.0720  176.4670  143.8300 C   0  0  2  0  0  3  0  0  0  0  0  0
  192.4920  175.7230  147.0290 C   0  0  0  0  0  0  0  0  0  0  0  0
  192.6630  176.3190  144.3500 O   0  0  0  0  0  0  0  0  0  0  0  0
  190.0740  175.0810  147.4160 C   0  0  0  0  0  2  0  0  0  0  0  0
  193.3990  176.8530  146.6680 C   0  0  0  0  0  2  0  0  0  0  0  0
  193.5970  177.0140  145.1390 C   0  0  0  0  0  2  0  0  0  0  0  0
  190.5430  176.4310  143.3630 C   0  0  2  0  0  3  0  0  0  0  0  0
  192.8560  174.5310  146.8430 O   0  0  0  0  0  0  0  0  0  0  0  0
  189.7890  174.0470  145.3370 O   0  0  0  0  0  0  0  0  0  0  0  0
  191.4710  177.0480  144.4020 C   0  0  2  0  0  3  0  0  0  0  0  0
  188.9530  176.2850  145.3670 C   0  0  2  0  0  3  0  0  0  0  0  0
  189.5820  175.0510  146.0010 C   0  0  0  0  0  0  0  0  0  0  0  0
  191.1750  177.7980  143.1270 C   0  0  0  0  0  2  0  0  0  0  0  0
  187.2270  178.1520  145.5310 N   0  0  0  0  0  2  0  0  0  0  0  0
  187.7990  176.9540  146.0810 C   0  0  0  0  0  0  0  0  0  0  0  0
  187.2630  176.3930  147.0720 O   0  0  0  0  0  0  0  0  0  0  0  0
  185.8530  178.5810  145.7840 C   0  0  0  0  0  2  0  0  0  0  0  0
  185.0720  178.7020  144.5140 C   0  0  0  0  0  0  0  0  0  0  0  0
  185.0140  177.6060  143.6030 N   0  0  0  0  0  1  0  0  0  0  0  0
  184.4340  179.7580  144.2590 O   0  0  0  0  0  0  0  0  0  0  0  0
  190.4930  173.7780  141.4030 C   0  0  0  0  0  2  0  0  0  0  0  0
  191.5570  173.3150  140.4150 C   0  0  2  0  0  3  0  0  0  0  0  0
  191.7640  172.0110  138.3700 N   0  0  0  0  0  1  0  0  0  0  0  0
  191.0360  172.1310  139.6190 C   0  0  0  0  0  2  0  0  0  0  0  0
  192.8080  172.9000  141.1760 C   0  0  0  0  0  2  0  0  0  0  0  0
  192.5460  171.6570  142.0020 C   0  0  0  0  0  2  0  0  0  0  0  0
  193.7920  170.9470  142.2310 N   0  0  0  0  0  2  0  0  0  0  0  0
  194.1120  169.8520  144.6240 O   0  0  0  0  0  0  0  0  0  0  0  0
  194.2400  171.1660  143.9030 S   0  0  0  0  0  0  0  0  0  0  0  0
  193.3310  172.1680  144.5520 O   0  0  0  0  0  0  0  0  0  0  0  0
  195.9430  171.7450  143.9470 C   0  0  1  0  0  3  0  0  0  0  0  0
  196.8010  172.9730  146.1380 C   0  0  0  0  0  1  0  0  0  0  0  0
  196.8630  170.4300  146.0980 C   0  0  0  0  0  2  0  0  0  0  0  0
  197.8710  171.0060  145.2960 O   0  0  0  0  0  0  0  0  0  0  0  0
  196.6390  171.6870  145.3470 C   0  0  1  0  0  0  0  0  0  0  0  0
  196.6450  171.4450  142.7520 O   0  0  0  0  0  0  0  0  0  0  0  0
  196.6320  172.5290  141.8590 C   0  0  0  0  0  2  0  0  0  0  0  0
  196.8480  173.8720  142.5460 C   0  0  0  0  0  2  0  0  0  0  0  0
  197.1850  176.7430  143.1670 N   0  0  0  0  0  1  0  0  0  0  0  0
  196.3760  176.3140  142.0690 C   0  0  0  0  0  0  0  0  0  0  0  0
  196.0740  174.9260  141.8950 N   0  0  0  0  0  2  0  0  0  0  0  0
  195.9140  177.1610  141.2650 O   0  0  0  0  0  0  0  0  0  0  0  0
  1  5  1  1  0  0  0
  1 29  1  0  0  0  0
  1  2  1  0  0  0  0
  2  4  1  0  0  0  0
  3  2  2  0  0  0  0
  5  6  2  0  0  0  0
  6  7  1  0  0  0  0
  9  7  1  6  0  0  0
  9 19  1  0  0  0  0
 10  8  1  0  0  0  0
 11 18  1  0  0  0  0
 11 14  1  0  0  0  0
 12  8  1  0  0  0  0
 13 10  1  0  0  0  0
 14 13  1  0  0  0  0
 15 21  1  6  0  0  0
 15  9  1  0  0  0  0
 15 18  1  0  0  0  0
 16 10  2  0  0  0  0
 17 20  2  0  0  0  0
 18 21  1  6  0  0  0
 19 20  1  0  0  0  0
 19 23  1  6  0  0  0
 20 12  1  0  0  0  0
 22 25  1  0  0  0  0
 22 23  1  0  0  0  0
 23 24  2  0  0  0  0
 26 25  1  0  0  0  0
 27 26  1  0  0  0  0
 28 26  2  0  0  0  0
 30 32  1  1  0  0  0
 30 33  1  0  0  0  0
 30 29  1  0  0  0  0
 31 32  1  0  0  0  0
 33 34  1  0  0  0  0
 34 35  1  0  0  0  0
 35 37  1  0  0  0  0
 37 39  1  0  0  0  0
 37 38  2  0  0  0  0
 37 36  2  0  0  0  0
 39 44  1  6  0  0  0
 39 43  1  0  0  0  0
 42 43  1  0  0  0  0
 42 41  1  0  0  0  0
 43 41  1  0  0  0  0
 43 40  1  1  0  0  0
 45 46  1  0  0  0  0
 45 44  1  0  0  0  0
 48 47  1  0  0  0  0
 49 48  1  0  0  0  0
 49 46  1  0  0  0  0
 50 48  2  0  0  0  0
M  END
>  <MODEL>
8

>  <REMARK>
 VINA RESULT:      -5.3      1.735      3.407
  Name = 
  20 active torsions:
  status: ('A' for Active; 'I' for Inactive)
    1  A    between atoms: C_1  and  C_9
    2  A    between atoms: C_2  and  C_13
    3  A    between atoms: C_2  and  C_34
    4  A    between atoms: N_3  and  C_20
    5  A    between atoms: C_4  and  C_6
    6  A    between atoms: C_4  and  N_10
    7  A    between atoms: C_6  and  C_37
    8  A    between atoms: C_8  and  C_20
    9  A    between atoms: C_9  and  C_11
   10  A    between atoms: C_9  and  C_21
   11  A    between atoms: N_10  and  S_35
   12  A    between atoms: O_12  and  C_31
   13  A    between atoms: O_12  and  C_32
   14  A    between atoms: C_21  and  C_37
   15  A    between atoms: N_25  and  C_48
   16  A    between atoms: C_28  and  C_37
   17  A    between atoms: C_31  and  C_33
   18  A    between atoms: C_31  and  S_35
   19  A    between atoms: C_32  and  C_48
   20  A    between atoms: C_36  and  C_45
                            x       y       z     vdW  Elec       q    Type
                         _______ _______ _______ _____ _____    ______ ____

>  <TORSDO>
F 20

$$$$
=
 OpenBabel11062420523D

 50 52  0  0  1  0  0  0  0  0999 V2000
  190.6690  172.4500  139.9440 C   0  0  1  0  0  3  0  0  0  0  0  0
  189.5090  171.9220  139.1540 C   0  0  0  0  0  0  0  0  0  0  0  0
  189.5930  170.7830  138.6230 O   0  0  0  0  0  0  0  0  0  0  0  0
  188.3070  172.6740  139.0130 N   0  0  0  0  0  1  0  0  0  0  0  0
  190.7230  171.8410  141.3190 C   0  0  0  0  0  3  0  0  0  0  0  0
  190.1820  172.4270  142.3980 C   0  0  0  0  0  3  0  0  0  0  0  0
  189.4290  173.7290  142.3170 C   0  0  0  0  0  2  0  0  0  0  0  0
  190.7380  176.7690  146.4780 N   0  0  0  0  0  2  0  0  0  0  0  0
  190.3110  174.9360  142.6250 C   0  0  2  0  0  3  0  0  0  0  0  0
  191.8670  176.0410  146.9660 C   0  0  0  0  0  0  0  0  0  0  0  0
  193.1070  174.6750  144.9270 O   0  0  0  0  0  0  0  0  0  0  0  0
  189.4270  176.1620  146.2990 C   0  0  0  0  0  2  0  0  0  0  0  0
  193.2410  176.5040  146.6100 C   0  0  0  0  0  2  0  0  0  0  0  0
  193.9540  175.5800  145.5910 C   0  0  0  0  0  2  0  0  0  0  0  0
  191.6780  174.3950  143.0930 C   0  0  2  0  0  3  0  0  0  0  0  0
  191.7070  174.9920  147.6450 O   0  0  0  0  0  0  0  0  0  0  0  0
  189.3790  174.0610  145.2730 O   0  0  0  0  0  0  0  0  0  0  0  0
  192.4080  175.4100  143.9640 C   0  0  2  0  0  3  0  0  0  0  0  0
  189.6520  175.8400  143.7010 C   0  0  2  0  0  3  0  0  0  0  0  0
  189.4410  175.2680  145.0980 C   0  0  0  0  0  0  0  0  0  0  0  0
  192.8860  175.1550  142.5570 C   0  0  0  0  0  2  0  0  0  0  0  0
  187.4220  177.0690  143.7710 N   0  0  0  0  0  2  0  0  0  0  0  0
  188.7520  176.9660  143.2400 C   0  0  0  0  0  0  0  0  0  0  0  0
  189.2110  177.8740  142.4980 O   0  0  0  0  0  0  0  0  0  0  0  0
  186.6730  178.3230  143.8380 C   0  0  0  0  0  2  0  0  0  0  0  0
  185.6340  178.4010  142.7650 C   0  0  0  0  0  0  0  0  0  0  0  0
  184.2490  178.3510  143.1060 N   0  0  0  0  0  1  0  0  0  0  0  0
  185.9730  178.5450  141.5610 O   0  0  0  0  0  0  0  0  0  0  0  0
  191.9690  172.1600  139.2070 C   0  0  0  0  0  2  0  0  0  0  0  0
  193.0500  173.1720  139.5680 C   0  0  2  0  0  3  0  0  0  0  0  0
  194.2930  175.0670  138.6800 N   0  0  0  0  0  1  0  0  0  0  0  0
  193.0910  174.2720  138.5220 C   0  0  0  0  0  2  0  0  0  0  0  0
  194.4010  172.4740  139.6190 C   0  0  0  0  0  2  0  0  0  0  0  0
  194.7250  172.0340  141.0340 C   0  0  0  0  0  2  0  0  0  0  0  0
  196.0190  171.3770  141.0600 N   0  0  0  0  0  2  0  0  0  0  0  0
  197.3790  169.6130  142.4970 O   0  0  0  0  0  0  0  0  0  0  0  0
  196.0030  170.2030  142.3500 S   0  0  0  0  0  0  0  0  0  0  0  0
  195.0320  169.1040  142.0340 O   0  0  0  0  0  0  0  0  0  0  0  0
  195.5170  171.0510  143.8620 C   0  0  1  0  0  3  0  0  0  0  0  0
  192.9430  170.6640  144.3860 C   0  0  0  0  0  1  0  0  0  0  0  0
  194.6330  169.1610  145.5510 C   0  0  0  0  0  2  0  0  0  0  0  0
  194.6180  170.4670  146.0830 O   0  0  0  0  0  0  0  0  0  0  0  0
  194.3950  170.3490  144.6980 C   0  0  1  0  0  0  0  0  0  0  0  0
  196.6050  171.7120  144.4830 O   0  0  0  0  0  0  0  0  0  0  0  0
  196.3280  173.0710  144.7000 C   0  0  0  0  0  2  0  0  0  0  0  0
  196.6000  173.9400  143.4780 C   0  0  0  0  0  2  0  0  0  0  0  0
  196.7210  176.2560  141.6430 N   0  0  0  0  0  1  0  0  0  0  0  0
  197.0270  176.3960  143.0330 C   0  0  0  0  0  0  0  0  0  0  0  0
  197.1440  175.2390  143.8660 N   0  0  0  0  0  2  0  0  0  0  0  0
  197.2090  177.5400  143.5190 O   0  0  0  0  0  0  0  0  0  0  0  0
  1 29  1  6  0  0  0
  1  5  1  0  0  0  0
  2  1  1  0  0  0  0
  3  2  2  0  0  0  0
  4  2  1  0  0  0  0
  5  6  2  0  0  0  0
  7  6  1  0  0  0  0
  8 10  1  0  0  0  0
  9  7  1  1  0  0  0
  9 15  1  0  0  0  0
  9 19  1  0  0  0  0
 10 16  2  0  0  0  0
 11 14  1  0  0  0  0
 12  8  1  0  0  0  0
 13 10  1  0  0  0  0
 14 13  1  0  0  0  0
 15 21  1  6  0  0  0
 15 18  1  0  0  0  0
 18 21  1  6  0  0  0
 18 11  1  0  0  0  0
 19 23  1  6  0  0  0
 19 20  1  0  0  0  0
 20 17  2  0  0  0  0
 20 12  1  0  0  0  0
 22 25  1  0  0  0  0
 23 22  1  0  0  0  0
 24 23  2  0  0  0  0
 26 27  1  0  0  0  0
 26 25  1  0  0  0  0
 28 26  2  0  0  0  0
 29 30  1  0  0  0  0
 30 32  1  6  0  0  0
 30 33  1  0  0  0  0
 32 31  1  0  0  0  0
 33 34  1  0  0  0  0
 34 35  1  0  0  0  0
 35 37  1  0  0  0  0
 37 36  2  0  0  0  0
 37 39  1  0  0  0  0
 38 37  2  0  0  0  0
 39 44  1  1  0  0  0
 39 43  1  0  0  0  0
 41 42  1  0  0  0  0
 43 40  1  6  0  0  0
 43 41  1  0  0  0  0
 43 42  1  0  0  0  0
 44 45  1  0  0  0  0
 46 49  1  0  0  0  0
 46 45  1  0  0  0  0
 47 48  1  0  0  0  0
 48 50  2  0  0  0  0
 48 49  1  0  0  0  0
M  END
>  <MODEL>
9

>  <REMARK>
 VINA RESULT:      -5.2      2.443      3.962
  Name = 
  20 active torsions:
  status: ('A' for Active; 'I' for Inactive)
    1  A    between atoms: C_1  and  C_9
    2  A    between atoms: C_2  and  C_13
    3  A    between atoms: C_2  and  C_34
    4  A    between atoms: N_3  and  C_20
    5  A    between atoms: C_4  and  C_6
    6  A    between atoms: C_4  and  N_10
    7  A    between atoms: C_6  and  C_37
    8  A    between atoms: C_8  and  C_20
    9  A    between atoms: C_9  and  C_11
   10  A    between atoms: C_9  and  C_21
   11  A    between atoms: N_10  and  S_35
   12  A    between atoms: O_12  and  C_31
   13  A    between atoms: O_12  and  C_32
   14  A    between atoms: C_21  and  C_37
   15  A    between atoms: N_25  and  C_48
   16  A    between atoms: C_28  and  C_37
   17  A    between atoms: C_31  and  C_33
   18  A    between atoms: C_31  and  S_35
   19  A    between atoms: C_32  and  C_48
   20  A    between atoms: C_36  and  C_45
                            x       y       z     vdW  Elec       q    Type
                         _______ _______ _______ _____ _____    ______ ____

>  <TORSDO>
F 20

$$$$
