=
 OpenBabel11062421543D

 37 40  0  0  1  0  0  0  0  0999 V2000
  191.4230  174.7930  146.7370 N   0  0  0  0  0  0  0  0  0  0  0  0
  190.4170  176.9840  147.1060 C   0  0  0  0  0  0  0  0  0  0  0  0
  190.4320  174.9020  145.8010 C   0  0  0  0  0  0  0  0  0  0  0  0
  191.4570  175.9540  147.6630 C   0  0  0  0  0  2  0  0  0  0  0  0
  190.2330  173.8840  144.8300 N   0  0  0  0  0  2  0  0  0  0  0  0
  189.8670  176.3610  145.8090 C   0  0  1  0  0  3  0  0  0  0  0  0
  189.8540  177.9550  147.6310 O   0  0  0  0  0  0  0  0  0  0  0  0
  187.3450  176.8060  146.3150 C   0  0  0  0  0  3  0  0  0  0  0  0
  184.7240  176.9060  146.9040 C   0  0  0  0  0  1  0  0  0  0  0  0
  188.1040  177.7160  144.2630 C   0  0  0  0  0  0  0  0  0  0  0  0
  188.4360  176.8420  145.3850 C   0  0  0  0  0  0  0  0  0  0  0  0
  185.9570  177.1710  146.0720 C   0  0  0  0  0  0  0  0  0  0  0  0
  185.7780  178.0060  144.9500 C   0  0  0  0  0  3  0  0  0  0  0  0
  186.8410  178.3050  144.1320 C   0  0  0  0  0  3  0  0  0  0  0  0
  189.2160  177.6930  142.8850 S   0  0  0  0  0  0  0  0  0  0  0  0
  188.0400  176.8350  141.8780 C   0  0  1  0  0  3  0  0  0  0  0  0
  184.8480  178.4180  140.4320 C   0  0  0  0  0  1  0  0  0  0  0  0
  185.9530  177.3810  140.9430 C   0  0  1  0  0  3  0  0  0  0  0  0
  186.8120  177.0860  139.9300 O   0  0  0  0  0  0  0  0  0  0  0  0
  187.3600  177.8220  140.9860 C   0  0  2  0  0  3  0  0  0  0  0  0
  188.7500  174.4170  141.1810 C   0  0  0  0  0  0  0  0  0  0  0  0
  187.8810  173.8470  141.9020 N   0  0  0  0  0  2  0  0  0  0  0  0
  189.5870  173.6130  140.2560 C   0  0  0  0  0  1  0  0  0  0  0  0
  188.8950  175.8700  141.3020 N   0  0  0  0  0  2  0  0  0  0  0  0
  191.3060  173.4460  143.8030 C   0  0  1  0  0  3  0  0  0  0  0  0
  193.3350  174.8310  143.6610 C   0  0  0  0  0  3  0  0  0  0  0  0
  194.7730  172.8070  145.5410 C   0  0  0  0  0  3  0  0  0  0  0  0
  192.8100  173.6280  144.1380 C   0  0  1  0  0  3  0  0  0  0  0  0
  193.5830  172.6280  144.9060 C   0  0  0  0  0  3  0  0  0  0  0  0
  195.6650  174.0250  145.6420 C   0  0  0  0  0  0  0  0  0  0  0  0
  195.6290  175.1060  144.8440 C   0  0  0  0  0  3  0  0  0  0  0  0
  194.7360  175.2630  143.6290 C   0  0  0  0  0  0  0  0  0  0  0  0
  196.6580  173.9830  146.6050 F   0  0  0  0  0  0  0  0  0  0  0  0
  196.4570  176.5720  143.1150 C   0  0  0  0  0  1  0  0  0  0  0  0
  195.1410  176.2750  142.6640 O   0  0  0  0  0  0  0  0  0  0  0  0
  190.5210  171.1950  142.7640 C   0  0  0  0  0  3  0  0  0  0  0  0
  190.9540  172.1280  143.2830 C   0  0  0  0  0  0  0  0  0  0  0  0
  1  4  1  0  0  0  0
  2  7  2  0  0  0  0
  2  4  1  0  0  0  0
  3  6  1  0  0  0  0
  3  1  2  0  0  0  0
  5  3  1  0  0  0  0
  6 11  1  1  0  0  0
  6  2  1  0  0  0  0
 10 11  1  0  0  0  0
 11  8  2  0  0  0  0
 12  8  1  0  0  0  0
 12  9  1  0  0  0  0
 13 12  2  0  0  0  0
 14 10  2  0  0  0  0
 14 13  1  0  0  0  0
 15 10  1  0  0  0  0
 16 24  1  6  0  0  0
 16 15  1  0  0  0  0
 18 17  1  6  0  0  0
 18 20  1  0  0  0  0
 19 18  1  0  0  0  0
 19 20  1  0  0  0  0
 20 16  1  1  0  0  0
 21 24  1  0  0  0  0
 21 22  2  0  0  0  0
 23 21  1  0  0  0  0
 25 37  1  1  0  0  0
 25  5  1  0  0  0  0
 26 28  1  0  0  0  0
 27 30  1  0  0  0  0
 28 25  1  1  0  0  0
 28 29  1  0  0  0  0
 29 27  2  0  0  0  0
 30 33  1  0  0  0  0
 31 30  2  0  0  0  0
 32 26  2  0  0  0  0
 32 31  1  0  0  0  0
 35 34  1  0  0  0  0
 35 32  1  0  0  0  0
 36 37  3  0  0  0  0
M  END
>  <MODEL>
1

>  <REMARK>
 VINA RESULT:      -7.4      0.000      0.000
  Name = 
  9 active torsions:
  status: ('A' for Active; 'I' for Inactive)
    1  A    between atoms: C_5  and  C_12
    2  A    between atoms: C_5  and  C_17
    3  A    between atoms: C_5  and  N_31
    4  A    between atoms: S_11  and  C_19
    5  A    between atoms: S_11  and  C_22
    6  A    between atoms: C_20  and  C_35
    7  A    between atoms: C_22  and  C_28
    8  A    between atoms: C_22  and  N_32
    9  A    between atoms: O_25  and  C_27
                            x       y       z     vdW  Elec       q    Type
                         _______ _______ _______ _____ _____    ______ ____

>  <TORSDO>
F 9

$$$$
=
 OpenBabel11062421543D

 37 40  0  0  1  0  0  0  0  0999 V2000
  190.2870  177.5690  147.2080 N   0  0  0  0  0  0  0  0  0  0  0  0
  191.4940  175.4520  147.0950 C   0  0  0  0  0  0  0  0  0  0  0  0
  189.9840  177.0400  145.9840 C   0  0  0  0  0  0  0  0  0  0  0  0
  191.2780  176.7480  147.9490 C   0  0  0  0  0  2  0  0  0  0  0  0
  189.0610  177.6870  145.1190 N   0  0  0  0  0  2  0  0  0  0  0  0
  190.5340  175.5770  145.8970 C   0  0  1  0  0  3  0  0  0  0  0  0
  192.3940  174.6010  147.0990 O   0  0  0  0  0  0  0  0  0  0  0  0
  190.1480  173.6890  144.1360 C   0  0  0  0  0  3  0  0  0  0  0  0
  189.7720  171.5140  142.6030 C   0  0  0  0  0  1  0  0  0  0  0  0
  191.8570  175.2270  143.5620 C   0  0  0  0  0  0  0  0  0  0  0  0
  190.9500  174.7790  144.6140 C   0  0  0  0  0  0  0  0  0  0  0  0
  190.4130  172.8240  142.9960 C   0  0  0  0  0  0  0  0  0  0  0  0
  191.3170  173.3740  142.0650 C   0  0  0  0  0  3  0  0  0  0  0  0
  191.9510  174.5640  142.3330 C   0  0  0  0  0  3  0  0  0  0  0  0
  193.1050  176.3910  144.0350 S   0  0  0  0  0  0  0  0  0  0  0  0
  194.3890  175.3700  143.3710 C   0  0  1  0  0  3  0  0  0  0  0  0
  195.9050  175.4820  139.8390 C   0  0  0  0  0  1  0  0  0  0  0  0
  195.5140  175.0570  141.3300 C   0  0  1  0  0  3  0  0  0  0  0  0
  196.3800  175.6260  142.2130 O   0  0  0  0  0  0  0  0  0  0  0  0
  195.0670  176.1090  142.2640 C   0  0  2  0  0  3  0  0  0  0  0  0
  195.5220  173.8420  145.1650 C   0  0  0  0  0  0  0  0  0  0  0  0
  194.9680  172.7810  144.7570 N   0  0  0  0  0  2  0  0  0  0  0  0
  196.5520  173.7740  146.2330 C   0  0  0  0  0  1  0  0  0  0  0  0
  195.1090  175.1100  144.5590 N   0  0  0  0  0  2  0  0  0  0  0  0
  187.5820  177.9680  145.4860 C   0  0  1  0  0  3  0  0  0  0  0  0
  186.9780  177.7980  143.1070 C   0  0  0  0  0  3  0  0  0  0  0  0
  184.1440  178.8800  143.8130 C   0  0  0  0  0  3  0  0  0  0  0  0
  186.5500  178.2420  144.3600 C   0  0  1  0  0  3  0  0  0  0  0  0
  185.2440  178.8860  144.6150 C   0  0  0  0  0  3  0  0  0  0  0  0
  183.9180  178.2610  142.4520 C   0  0  0  0  0  0  0  0  0  0  0  0
  184.8700  177.8610  141.5920 C   0  0  0  0  0  3  0  0  0  0  0  0
  186.3620  178.0400  141.7980 C   0  0  0  0  0  0  0  0  0  0  0  0
  182.6040  178.1700  142.0270 F   0  0  0  0  0  0  0  0  0  0  0  0
  186.2500  177.4490  139.6580 C   0  0  0  0  0  1  0  0  0  0  0  0
  187.1880  177.9520  140.6030 O   0  0  0  0  0  0  0  0  0  0  0  0
  186.6630  176.3820  147.3300 C   0  0  0  0  0  3  0  0  0  0  0  0
  187.1490  176.9970  146.4860 C   0  0  0  0  0  0  0  0  0  0  0  0
  1  4  1  0  0  0  0
  2  7  2  0  0  0  0
  2  4  1  0  0  0  0
  3  1  2  0  0  0  0
  5 25  1  0  0  0  0
  5  3  1  0  0  0  0
  6 11  1  6  0  0  0
  6  3  1  0  0  0  0
  6  2  1  0  0  0  0
  8 11  1  0  0  0  0
  9 12  1  0  0  0  0
 10 15  1  0  0  0  0
 10 11  2  0  0  0  0
 12  8  2  0  0  0  0
 13 14  2  0  0  0  0
 13 12  1  0  0  0  0
 14 10  1  0  0  0  0
 16 15  1  1  0  0  0
 16 24  1  0  0  0  0
 18 17  1  6  0  0  0
 18 19  1  0  0  0  0
 18 20  1  0  0  0  0
 19 20  1  0  0  0  0
 20 16  1  1  0  0  0
 21 23  1  0  0  0  0
 22 21  2  0  0  0  0
 24 21  1  0  0  0  0
 25 37  1  6  0  0  0
 26 28  1  0  0  0  0
 27 29  2  0  0  0  0
 28 29  1  0  0  0  0
 28 25  1  1  0  0  0
 30 27  1  0  0  0  0
 31 32  1  0  0  0  0
 31 30  2  0  0  0  0
 32 26  2  0  0  0  0
 33 30  1  0  0  0  0
 34 35  1  0  0  0  0
 35 32  1  0  0  0  0
 37 36  3  0  0  0  0
M  END
>  <MODEL>
2

>  <REMARK>
 VINA RESULT:      -7.4      3.299      7.997
  Name = 
  9 active torsions:
  status: ('A' for Active; 'I' for Inactive)
    1  A    between atoms: C_5  and  C_12
    2  A    between atoms: C_5  and  C_17
    3  A    between atoms: C_5  and  N_31
    4  A    between atoms: S_11  and  C_19
    5  A    between atoms: S_11  and  C_22
    6  A    between atoms: C_20  and  C_35
    7  A    between atoms: C_22  and  C_28
    8  A    between atoms: C_22  and  N_32
    9  A    between atoms: O_25  and  C_27
                            x       y       z     vdW  Elec       q    Type
                         _______ _______ _______ _____ _____    ______ ____

>  <TORSDO>
F 9

$$$$
=
 OpenBabel11062421543D

 37 40  0  0  1  0  0  0  0  0999 V2000
  189.4880  174.2200  141.4040 N   0  0  0  0  0  0  0  0  0  0  0  0
  191.9240  174.2530  141.2740 C   0  0  0  0  0  0  0  0  0  0  0  0
  189.9130  174.7090  142.6090 C   0  0  0  0  0  0  0  0  0  0  0  0
  190.6180  173.8090  140.5320 C   0  0  0  0  0  2  0  0  0  0  0  0
  188.9790  175.1460  143.5870 N   0  0  0  0  0  2  0  0  0  0  0  0
  191.4540  174.9760  142.5500 C   0  0  1  0  0  3  0  0  0  0  0  0
  193.1070  173.9100  141.1400 O   0  0  0  0  0  0  0  0  0  0  0  0
  193.0190  176.2130  144.2330 C   0  0  0  0  0  3  0  0  0  0  0  0
  194.8080  177.6090  145.6730 C   0  0  0  0  0  1  0  0  0  0  0  0
  192.6860  173.9170  144.7150 C   0  0  0  0  0  0  0  0  0  0  0  0
  192.4770  174.9810  143.7370 C   0  0  0  0  0  0  0  0  0  0  0  0
  194.0040  176.3890  145.2900 C   0  0  0  0  0  0  0  0  0  0  0  0
  194.1130  175.2810  146.1540 C   0  0  0  0  0  3  0  0  0  0  0  0
  193.4190  174.1240  145.8900 C   0  0  0  0  0  3  0  0  0  0  0  0
  192.3180  172.2690  144.1830 S   0  0  0  0  0  0  0  0  0  0  0  0
  193.9650  171.7270  144.5340 C   0  0  1  0  0  3  0  0  0  0  0  0
  194.7320  168.9520  147.0820 C   0  0  0  0  0  1  0  0  0  0  0  0
  194.8380  170.2170  146.1110 C   0  0  1  0  0  3  0  0  0  0  0  0
  195.2320  169.8160  144.8730 O   0  0  0  0  0  0  0  0  0  0  0  0
  193.9200  170.2950  144.9590 C   0  0  2  0  0  3  0  0  0  0  0  0
  195.8380  172.7470  143.0210 C   0  0  0  0  0  0  0  0  0  0  0  0
  196.3790  173.4000  143.9590 N   0  0  0  0  0  2  0  0  0  0  0  0
  196.4790  172.7060  141.6820 C   0  0  0  0  0  1  0  0  0  0  0  0
  194.5780  172.0540  143.3040 N   0  0  0  0  0  2  0  0  0  0  0  0
  187.9580  176.2880  143.3580 C   0  0  1  0  0  3  0  0  0  0  0  0
  185.9230  177.2840  144.3180 C   0  0  0  0  0  3  0  0  0  0  0  0
  187.3550  177.3910  147.0820 C   0  0  0  0  0  3  0  0  0  0  0  0
  187.2520  176.9420  144.5760 C   0  0  0  0  0  0  0  0  0  0  0  0
  187.9310  177.1510  145.8730 C   0  0  0  0  0  3  0  0  0  0  0  0
  185.9010  177.5410  147.4720 C   0  0  0  0  0  0  0  0  0  0  0  0
  184.8760  177.7960  146.6390 C   0  0  0  0  0  3  0  0  0  0  0  0
  185.0080  178.0700  145.1540 C   0  0  2  0  0  3  0  0  0  0  0  0
  185.6160  177.4810  148.8240 F   0  0  0  0  0  0  0  0  0  0  0  0
  184.0780  178.3910  143.1610 C   0  0  0  0  0  1  0  0  0  0  0  0
  183.8810  178.7420  144.5250 O   0  0  0  0  0  0  0  0  0  0  0  0
  188.7850  178.1090  141.6950 C   0  0  0  0  0  3  0  0  0  0  0  0
  188.5130  177.2350  142.3960 C   0  0  0  0  0  0  0  0  0  0  0  0
  1  3  2  0  0  0  0
  2  6  1  0  0  0  0
  3  5  1  0  0  0  0
  4  2  1  0  0  0  0
  4  1  1  0  0  0  0
  6  3  1  0  0  0  0
  6 11  1  1  0  0  0
  7  2  2  0  0  0  0
  8 12  1  0  0  0  0
 10 14  2  0  0  0  0
 11  8  2  0  0  0  0
 11 10  1  0  0  0  0
 12  9  1  0  0  0  0
 12 13  2  0  0  0  0
 14 13  1  0  0  0  0
 15 16  1  0  0  0  0
 15 10  1  0  0  0  0
 16 24  1  6  0  0  0
 18 17  1  1  0  0  0
 19 20  1  0  0  0  0
 19 18  1  0  0  0  0
 20 16  1  6  0  0  0
 20 18  1  0  0  0  0
 21 24  1  0  0  0  0
 21 22  2  0  0  0  0
 23 21  1  0  0  0  0
 25 37  1  1  0  0  0
 25  5  1  0  0  0  0
 25 28  1  0  0  0  0
 26 28  2  0  0  0  0
 26 32  1  0  0  0  0
 27 30  1  0  0  0  0
 28 29  1  0  0  0  0
 29 27  2  0  0  0  0
 30 33  1  0  0  0  0
 31 30  2  0  0  0  0
 32 35  1  6  0  0  0
 32 31  1  0  0  0  0
 34 35  1  0  0  0  0
 36 37  3  0  0  0  0
M  END
>  <MODEL>
3

>  <REMARK>
 VINA RESULT:      -7.2      3.475      8.617
  Name = 
  9 active torsions:
  status: ('A' for Active; 'I' for Inactive)
    1  A    between atoms: C_5  and  C_12
    2  A    between atoms: C_5  and  C_17
    3  A    between atoms: C_5  and  N_31
    4  A    between atoms: S_11  and  C_19
    5  A    between atoms: S_11  and  C_22
    6  A    between atoms: C_20  and  C_35
    7  A    between atoms: C_22  and  C_28
    8  A    between atoms: C_22  and  N_32
    9  A    between atoms: O_25  and  C_27
                            x       y       z     vdW  Elec       q    Type
                         _______ _______ _______ _____ _____    ______ ____

>  <TORSDO>
F 9

$$$$
=
 OpenBabel11062421543D

 37 40  0  0  1  0  0  0  0  0999 V2000
  189.8280  173.5060  145.5990 N   0  0  0  0  0  0  0  0  0  0  0  0
  190.8680  172.1780  143.8360 C   0  0  0  0  0  0  0  0  0  0  0  0
  191.1470  173.8680  145.5970 C   0  0  0  0  0  0  0  0  0  0  0  0
  189.5420  172.4090  144.6380 C   0  0  0  0  0  2  0  0  0  0  0  0
  191.6190  174.8960  146.4570 N   0  0  0  0  0  2  0  0  0  0  0  0
  191.8600  173.2340  144.3570 C   0  0  1  0  0  3  0  0  0  0  0  0
  191.2600  171.2270  143.1450 O   0  0  0  0  0  0  0  0  0  0  0  0
  193.9950  171.9150  145.0750 C   0  0  0  0  0  3  0  0  0  0  0  0
  196.1560  170.7210  146.1370 C   0  0  0  0  0  1  0  0  0  0  0  0
  194.2060  173.0670  143.0150 C   0  0  0  0  0  0  0  0  0  0  0  0
  193.3760  172.8690  144.2010 C   0  0  0  0  0  0  0  0  0  0  0  0
  195.3890  171.4990  145.0930 C   0  0  0  0  0  0  0  0  0  0  0  0
  196.0760  171.7620  143.8910 C   0  0  0  0  0  3  0  0  0  0  0  0
  195.4610  172.4630  142.8800 C   0  0  0  0  0  3  0  0  0  0  0  0
  193.7440  174.3950  141.9380 S   0  0  0  0  0  0  0  0  0  0  0  0
  195.1890  175.3210  142.3670 C   0  0  1  0  0  3  0  0  0  0  0  0
  197.8090  175.6670  139.5750 C   0  0  0  0  0  1  0  0  0  0  0  0
  197.0870  175.4930  140.9900 C   0  0  1  0  0  3  0  0  0  0  0  0
  196.8430  176.7150  141.5360 O   0  0  0  0  0  0  0  0  0  0  0  0
  195.7090  175.9980  141.1400 C   0  0  2  0  0  3  0  0  0  0  0  0
  195.0180  176.2070  144.8220 C   0  0  0  0  0  0  0  0  0  0  0  0
  195.7400  175.2900  145.3090 N   0  0  0  0  0  2  0  0  0  0  0  0
  194.5660  177.3280  145.6830 C   0  0  0  0  0  1  0  0  0  0  0  0
  194.6510  176.1130  143.4060 N   0  0  0  0  0  2  0  0  0  0  0  0
  191.1040  176.3560  146.4250 C   0  0  1  0  0  3  0  0  0  0  0  0
  188.6990  176.8490  146.6010 C   0  0  0  0  0  3  0  0  0  0  0  0
  188.6560  177.4160  143.5380 C   0  0  0  0  0  3  0  0  0  0  0  0
  189.7640  176.6830  145.7130 C   0  0  0  0  0  0  0  0  0  0  0  0
  189.6550  176.8200  144.2440 C   0  0  0  0  0  3  0  0  0  0  0  0
  187.3780  178.0780  144.0020 C   0  0  0  0  0  0  0  0  0  0  0  0
  186.7940  177.9270  145.2030 C   0  0  0  0  0  3  0  0  0  0  0  0
  187.2710  176.9860  146.2930 C   0  0  2  0  0  3  0  0  0  0  0  0
  186.7120  178.8540  143.0690 F   0  0  0  0  0  0  0  0  0  0  0  0
  185.8960  177.9300  147.7610 C   0  0  0  0  0  1  0  0  0  0  0  0
  186.2940  176.6400  147.3130 O   0  0  0  0  0  0  0  0  0  0  0  0
  191.5610  177.4040  148.7610 C   0  0  0  0  0  3  0  0  0  0  0  0
  191.2410  176.9360  147.7580 C   0  0  0  0  0  0  0  0  0  0  0  0
  2  6  1  0  0  0  0
  2  4  1  0  0  0  0
  3  1  2  0  0  0  0
  3  5  1  0  0  0  0
  4  1  1  0  0  0  0
  6 11  1  1  0  0  0
  6  3  1  0  0  0  0
  7  2  2  0  0  0  0
  8 12  1  0  0  0  0
 10 11  1  0  0  0  0
 11  8  2  0  0  0  0
 12  9  1  0  0  0  0
 13 12  2  0  0  0  0
 14 10  2  0  0  0  0
 14 13  1  0  0  0  0
 15 10  1  0  0  0  0
 16 15  1  6  0  0  0
 16 24  1  0  0  0  0
 18 17  1  6  0  0  0
 18 20  1  0  0  0  0
 18 19  1  0  0  0  0
 20 19  1  0  0  0  0
 20 16  1  1  0  0  0
 21 22  2  0  0  0  0
 21 23  1  0  0  0  0
 24 21  1  0  0  0  0
 25  5  1  0  0  0  0
 25 37  1  1  0  0  0
 27 30  1  0  0  0  0
 27 29  2  0  0  0  0
 28 25  1  0  0  0  0
 28 26  2  0  0  0  0
 29 28  1  0  0  0  0
 30 31  2  0  0  0  0
 31 32  1  0  0  0  0
 32 26  1  0  0  0  0
 32 35  1  1  0  0  0
 33 30  1  0  0  0  0
 35 34  1  0  0  0  0
 37 36  3  0  0  0  0
M  END
>  <MODEL>
4

>  <REMARK>
 VINA RESULT:      -7.2      3.267      8.339
  Name = 
  9 active torsions:
  status: ('A' for Active; 'I' for Inactive)
    1  A    between atoms: C_5  and  C_12
    2  A    between atoms: C_5  and  C_17
    3  A    between atoms: C_5  and  N_31
    4  A    between atoms: S_11  and  C_19
    5  A    between atoms: S_11  and  C_22
    6  A    between atoms: C_20  and  C_35
    7  A    between atoms: C_22  and  C_28
    8  A    between atoms: C_22  and  N_32
    9  A    between atoms: O_25  and  C_27
                            x       y       z     vdW  Elec       q    Type
                         _______ _______ _______ _____ _____    ______ ____

>  <TORSDO>
F 9

$$$$
=
 OpenBabel11062421543D

 37 40  0  0  1  0  0  0  0  0999 V2000
  188.2070  175.0400  142.9830 N   0  0  0  0  0  0  0  0  0  0  0  0
  189.6880  174.1580  141.2570 C   0  0  0  0  0  0  0  0  0  0  0  0
  189.4080  174.8300  143.6030 C   0  0  0  0  0  0  0  0  0  0  0  0
  188.2120  174.5780  141.5710 C   0  0  0  0  0  2  0  0  0  0  0  0
  189.5980  175.1970  144.9630 N   0  0  0  0  0  2  0  0  0  0  0  0
  190.4920  174.4710  142.5330 C   0  0  1  0  0  3  0  0  0  0  0  0
  190.1730  173.4560  140.3590 O   0  0  0  0  0  0  0  0  0  0  0  0
  191.7330  172.2850  143.2350 C   0  0  0  0  0  3  0  0  0  0  0  0
  192.8700  170.0890  144.2890 C   0  0  0  0  0  1  0  0  0  0  0  0
  193.0930  173.8580  142.0990 C   0  0  0  0  0  0  0  0  0  0  0  0
  191.7970  173.6260  142.7310 C   0  0  0  0  0  0  0  0  0  0  0  0
  192.8440  171.3870  143.5170 C   0  0  0  0  0  0  0  0  0  0  0  0
  194.0370  171.7350  142.8530 C   0  0  0  0  0  3  0  0  0  0  0  0
  194.1120  172.8990  142.1240 C   0  0  0  0  0  3  0  0  0  0  0  0
  193.4640  175.5290  141.6430 S   0  0  0  0  0  0  0  0  0  0  0  0
  194.9420  175.5260  142.6150 C   0  0  1  0  0  3  0  0  0  0  0  0
  197.9410  175.6170  140.2100 C   0  0  0  0  0  1  0  0  0  0  0  0
  196.9240  175.2350  141.3830 C   0  0  1  0  0  3  0  0  0  0  0  0
  197.2160  175.9560  142.4990 O   0  0  0  0  0  0  0  0  0  0  0  0
  196.0040  176.2770  141.8790 C   0  0  2  0  0  3  0  0  0  0  0  0
  194.8630  175.9010  145.2020 C   0  0  0  0  0  0  0  0  0  0  0  0
  195.6440  174.9420  145.4650 N   0  0  0  0  0  2  0  0  0  0  0  0
  194.4130  176.8080  146.2880 C   0  0  0  0  0  1  0  0  0  0  0  0
  194.4280  176.0700  143.8130 N   0  0  0  0  0  2  0  0  0  0  0  0
  189.4490  176.6440  145.4980 C   0  0  1  0  0  3  0  0  0  0  0  0
  187.4950  177.7710  144.5150 C   0  0  0  0  0  3  0  0  0  0  0  0
  186.0060  177.4200  147.2280 C   0  0  0  0  0  3  0  0  0  0  0  0
  188.0330  177.2480  145.6930 C   0  0  1  0  0  3  0  0  0  0  0  0
  187.3340  177.2390  146.9960 C   0  0  0  0  0  3  0  0  0  0  0  0
  184.8660  177.7010  146.2740 C   0  0  0  0  0  0  0  0  0  0  0  0
  184.9770  178.1620  145.0160 C   0  0  0  0  0  3  0  0  0  0  0  0
  186.2760  178.5700  144.3480 C   0  0  0  0  0  0  0  0  0  0  0  0
  183.5870  177.5360  146.7760 F   0  0  0  0  0  0  0  0  0  0  0  0
  185.6310  178.5250  142.2220 C   0  0  0  0  0  1  0  0  0  0  0  0
  186.1530  179.4340  143.1840 O   0  0  0  0  0  0  0  0  0  0  0  0
  190.9110  176.8520  147.6380 C   0  0  0  0  0  3  0  0  0  0  0  0
  190.3490  176.8240  146.6330 C   0  0  0  0  0  0  0  0  0  0  0  0
  1  3  2  0  0  0  0
  2  4  1  0  0  0  0
  2  6  1  0  0  0  0
  3  5  1  0  0  0  0
  4  1  1  0  0  0  0
  5 25  1  0  0  0  0
  6 11  1  1  0  0  0
  6  3  1  0  0  0  0
  7  2  2  0  0  0  0
  8 12  1  0  0  0  0
 10 14  2  0  0  0  0
 10 11  1  0  0  0  0
 11  8  2  0  0  0  0
 12  9  1  0  0  0  0
 13 12  2  0  0  0  0
 14 13  1  0  0  0  0
 15 10  1  0  0  0  0
 16 15  1  6  0  0  0
 16 24  1  0  0  0  0
 18 17  1  6  0  0  0
 18 20  1  0  0  0  0
 18 19  1  0  0  0  0
 20 19  1  0  0  0  0
 20 16  1  1  0  0  0
 21 22  2  0  0  0  0
 21 23  1  0  0  0  0
 24 21  1  0  0  0  0
 25 37  1  1  0  0  0
 26 28  1  0  0  0  0
 28 25  1  6  0  0  0
 28 29  1  0  0  0  0
 29 27  2  0  0  0  0
 30 33  1  0  0  0  0
 30 27  1  0  0  0  0
 31 30  2  0  0  0  0
 32 26  2  0  0  0  0
 32 31  1  0  0  0  0
 34 35  1  0  0  0  0
 35 32  1  0  0  0  0
 37 36  3  0  0  0  0
M  END
>  <MODEL>
5

>  <REMARK>
 VINA RESULT:      -7.2      3.172      8.440
  Name = 
  9 active torsions:
  status: ('A' for Active; 'I' for Inactive)
    1  A    between atoms: C_5  and  C_12
    2  A    between atoms: C_5  and  C_17
    3  A    between atoms: C_5  and  N_31
    4  A    between atoms: S_11  and  C_19
    5  A    between atoms: S_11  and  C_22
    6  A    between atoms: C_20  and  C_35
    7  A    between atoms: C_22  and  C_28
    8  A    between atoms: C_22  and  N_32
    9  A    between atoms: O_25  and  C_27
                            x       y       z     vdW  Elec       q    Type
                         _______ _______ _______ _____ _____    ______ ____

>  <TORSDO>
F 9

$$$$
=
 OpenBabel11062421543D

 37 40  0  0  1  0  0  0  0  0999 V2000
  189.2830  173.2760  144.3900 N   0  0  0  0  0  0  0  0  0  0  0  0
  190.4570  171.6720  142.9750 C   0  0  0  0  0  0  0  0  0  0  0  0
  189.6560  173.9750  143.2750 C   0  0  0  0  0  0  0  0  0  0  0  0
  189.7960  171.8810  144.3800 C   0  0  0  0  0  2  0  0  0  0  0  0
  189.2690  175.3310  143.1050 N   0  0  0  0  0  2  0  0  0  0  0  0
  190.2250  172.9850  142.2050 C   0  0  1  0  0  3  0  0  0  0  0  0
  191.2640  170.8280  142.5600 O   0  0  0  0  0  0  0  0  0  0  0  0
  190.8570  173.2740  139.6880 C   0  0  0  0  0  3  0  0  0  0  0  0
  191.4040  173.2230  137.0580 C   0  0  0  0  0  1  0  0  0  0  0  0
  192.5310  173.9920  141.2030 C   0  0  0  0  0  0  0  0  0  0  0  0
  191.2580  173.2890  141.0660 C   0  0  0  0  0  0  0  0  0  0  0  0
  191.6920  173.4890  138.5160 C   0  0  0  0  0  0  0  0  0  0  0  0
  192.8970  174.1650  138.7950 C   0  0  0  0  0  3  0  0  0  0  0  0
  193.2470  174.4520  140.0930 C   0  0  0  0  0  3  0  0  0  0  0  0
  193.3200  173.8970  142.7860 S   0  0  0  0  0  0  0  0  0  0  0  0
  193.5080  175.6550  142.8610 C   0  0  1  0  0  3  0  0  0  0  0  0
  190.8660  178.2590  143.8700 C   0  0  0  0  0  1  0  0  0  0  0  0
  192.1870  177.5440  143.3250 C   0  0  1  0  0  3  0  0  0  0  0  0
  193.0770  177.3850  144.3410 O   0  0  0  0  0  0  0  0  0  0  0  0
  192.5210  176.2020  143.8400 C   0  0  2  0  0  3  0  0  0  0  0  0
  195.9840  176.4050  142.4820 C   0  0  0  0  0  0  0  0  0  0  0  0
  195.7890  176.7940  141.2940 N   0  0  0  0  0  2  0  0  0  0  0  0
  197.2990  176.6410  143.1300 C   0  0  0  0  0  1  0  0  0  0  0  0
  194.8850  175.7230  143.1700 N   0  0  0  0  0  2  0  0  0  0  0  0
  187.7970  175.8120  143.0490 C   0  0  1  0  0  3  0  0  0  0  0  0
  185.8870  177.0170  144.0250 C   0  0  0  0  0  3  0  0  0  0  0  0
  187.4590  177.2090  146.7070 C   0  0  0  0  0  3  0  0  0  0  0  0
  187.2000  176.5980  144.2470 C   0  0  0  0  0  0  0  0  0  0  0  0
  187.9550  176.8450  145.4940 C   0  0  0  0  0  3  0  0  0  0  0  0
  186.0390  177.4910  147.1490 C   0  0  0  0  0  0  0  0  0  0  0  0
  184.9950  177.7620  146.3470 C   0  0  0  0  0  3  0  0  0  0  0  0
  185.0710  177.9230  144.8410 C   0  0  2  0  0  3  0  0  0  0  0  0
  185.8190  177.5450  148.5140 F   0  0  0  0  0  0  0  0  0  0  0  0
  184.2610  178.4430  142.8380 C   0  0  0  0  0  1  0  0  0  0  0  0
  183.9640  178.6310  144.2170 O   0  0  0  0  0  0  0  0  0  0  0  0
  187.1740  176.9750  140.8090 C   0  0  0  0  0  3  0  0  0  0  0  0
  187.5430  176.4090  141.7420 C   0  0  0  0  0  0  0  0  0  0  0  0
  2  4  1  0  0  0  0
  3  1  2  0  0  0  0
  4  1  1  0  0  0  0
  5  3  1  0  0  0  0
  6 11  1  1  0  0  0
  6  2  1  0  0  0  0
  6  3  1  0  0  0  0
  7  2  2  0  0  0  0
  8 11  1  0  0  0  0
  9 12  1  0  0  0  0
 10 15  1  0  0  0  0
 11 10  2  0  0  0  0
 12 13  1  0  0  0  0
 12  8  2  0  0  0  0
 13 14  2  0  0  0  0
 14 10  1  0  0  0  0
 16 15  1  1  0  0  0
 16 24  1  0  0  0  0
 18 20  1  0  0  0  0
 18 17  1  1  0  0  0
 18 19  1  0  0  0  0
 20 16  1  6  0  0  0
 20 19  1  0  0  0  0
 21 23  1  0  0  0  0
 21 24  1  0  0  0  0
 22 21  2  0  0  0  0
 25 37  1  6  0  0  0
 25  5  1  0  0  0  0
 25 28  1  0  0  0  0
 26 28  2  0  0  0  0
 26 32  1  0  0  0  0
 27 30  1  0  0  0  0
 28 29  1  0  0  0  0
 29 27  2  0  0  0  0
 30 33  1  0  0  0  0
 31 30  2  0  0  0  0
 32 35  1  6  0  0  0
 32 31  1  0  0  0  0
 34 35  1  0  0  0  0
 36 37  3  0  0  0  0
M  END
>  <MODEL>
6

>  <REMARK>
 VINA RESULT:      -7.1      3.427      7.990
  Name = 
  9 active torsions:
  status: ('A' for Active; 'I' for Inactive)
    1  A    between atoms: C_5  and  C_12
    2  A    between atoms: C_5  and  C_17
    3  A    between atoms: C_5  and  N_31
    4  A    between atoms: S_11  and  C_19
    5  A    between atoms: S_11  and  C_22
    6  A    between atoms: C_20  and  C_35
    7  A    between atoms: C_22  and  C_28
    8  A    between atoms: C_22  and  N_32
    9  A    between atoms: O_25  and  C_27
                            x       y       z     vdW  Elec       q    Type
                         _______ _______ _______ _____ _____    ______ ____

>  <TORSDO>
F 9

$$$$
=
 OpenBabel11062421543D

 37 40  0  0  1  0  0  0  0  0999 V2000
  190.7380  177.4110  143.4100 N   0  0  0  0  0  0  0  0  0  0  0  0
  192.8940  176.3330  143.0300 C   0  0  0  0  0  0  0  0  0  0  0  0
  190.6020  176.1380  143.8920 C   0  0  0  0  0  0  0  0  0  0  0  0
  192.0580  177.6320  142.7640 C   0  0  0  0  0  2  0  0  0  0  0  0
  189.4040  175.7300  144.5370 N   0  0  0  0  0  2  0  0  0  0  0  0
  191.9970  175.4300  143.8960 C   0  0  1  0  0  3  0  0  0  0  0  0
  193.9130  175.8820  142.4880 O   0  0  0  0  0  0  0  0  0  0  0  0
  193.1060  173.2430  144.7930 C   0  0  0  0  0  3  0  0  0  0  0  0
  194.5650  171.1650  145.6740 C   0  0  0  0  0  1  0  0  0  0  0  0
  191.5400  172.8990  143.0480 C   0  0  0  0  0  0  0  0  0  0  0  0
  192.2970  173.8940  143.8030 C   0  0  0  0  0  0  0  0  0  0  0  0
  193.5130  171.8460  144.8300 C   0  0  0  0  0  0  0  0  0  0  0  0
  192.7050  170.9990  144.0470 C   0  0  0  0  0  3  0  0  0  0  0  0
  191.7200  171.5250  143.2460 C   0  0  0  0  0  3  0  0  0  0  0  0
  190.6790  173.4810  141.6140 S   0  0  0  0  0  0  0  0  0  0  0  0
  191.6290  172.4330  140.5500 C   0  0  1  0  0  3  0  0  0  0  0  0
  190.0680  169.5920  138.4820 C   0  0  0  0  0  1  0  0  0  0  0  0
  191.0870  170.5280  139.2820 C   0  0  1  0  0  3  0  0  0  0  0  0
  191.6070  171.4650  138.4450 O   0  0  0  0  0  0  0  0  0  0  0  0
  190.7520  171.9570  139.4370 C   0  0  2  0  0  3  0  0  0  0  0  0
  194.1410  173.1360  140.3670 C   0  0  0  0  0  0  0  0  0  0  0  0
  194.5650  172.1740  141.0690 N   0  0  0  0  0  2  0  0  0  0  0  0
  195.1060  174.0450  139.6980 C   0  0  0  0  0  1  0  0  0  0  0  0
  192.6910  173.3150  140.2510 N   0  0  0  0  0  2  0  0  0  0  0  0
  188.8390  176.3950  145.8170 C   0  0  1  0  0  3  0  0  0  0  0  0
  187.2040  177.5750  144.4060 C   0  0  0  0  0  3  0  0  0  0  0  0
  185.5930  178.2850  146.9740 C   0  0  0  0  0  3  0  0  0  0  0  0
  187.5810  177.2990  145.7220 C   0  0  1  0  0  3  0  0  0  0  0  0
  186.8580  177.7870  146.9160 C   0  0  0  0  0  3  0  0  0  0  0  0
  184.5700  178.5150  145.8830 C   0  0  0  0  0  0  0  0  0  0  0  0
  184.8160  178.5810  144.5640 C   0  0  0  0  0  3  0  0  0  0  0  0
  186.1920  178.5230  143.9290 C   0  0  0  0  0  0  0  0  0  0  0  0
  183.2710  178.7520  146.2970 F   0  0  0  0  0  0  0  0  0  0  0  0
  187.3500  178.2420  142.0530 C   0  0  0  0  0  1  0  0  0  0  0  0
  186.2930  179.0410  142.5730 O   0  0  0  0  0  0  0  0  0  0  0  0
  188.9410  174.5410  147.6380 C   0  0  0  0  0  3  0  0  0  0  0  0
  188.7960  175.4030  146.8870 C   0  0  0  0  0  0  0  0  0  0  0  0
  1  3  2  0  0  0  0
  2  6  1  0  0  0  0
  3  6  1  0  0  0  0
  3  5  1  0  0  0  0
  4  2  1  0  0  0  0
  4  1  1  0  0  0  0
  5 25  1  0  0  0  0
  6 11  1  6  0  0  0
  7  2  2  0  0  0  0
  8 12  1  0  0  0  0
 10 14  2  0  0  0  0
 10 11  1  0  0  0  0
 11  8  2  0  0  0  0
 12  9  1  0  0  0  0
 13 12  2  0  0  0  0
 14 13  1  0  0  0  0
 15 10  1  0  0  0  0
 16 24  1  6  0  0  0
 16 15  1  0  0  0  0
 18 17  1  6  0  0  0
 18 20  1  0  0  0  0
 19 18  1  0  0  0  0
 19 20  1  0  0  0  0
 20 16  1  1  0  0  0
 21 22  2  0  0  0  0
 23 21  1  0  0  0  0
 24 21  1  0  0  0  0
 25 37  1  1  0  0  0
 26 28  1  0  0  0  0
 28 25  1  6  0  0  0
 28 29  1  0  0  0  0
 29 27  2  0  0  0  0
 30 33  1  0  0  0  0
 30 27  1  0  0  0  0
 31 30  2  0  0  0  0
 32 26  2  0  0  0  0
 32 31  1  0  0  0  0
 34 35  1  0  0  0  0
 35 32  1  0  0  0  0
 37 36  3  0  0  0  0
M  END
>  <MODEL>
7

>  <REMARK>
 VINA RESULT:      -7.1      3.627      7.723
  Name = 
  9 active torsions:
  status: ('A' for Active; 'I' for Inactive)
    1  A    between atoms: C_5  and  C_12
    2  A    between atoms: C_5  and  C_17
    3  A    between atoms: C_5  and  N_31
    4  A    between atoms: S_11  and  C_19
    5  A    between atoms: S_11  and  C_22
    6  A    between atoms: C_20  and  C_35
    7  A    between atoms: C_22  and  C_28
    8  A    between atoms: C_22  and  N_32
    9  A    between atoms: O_25  and  C_27
                            x       y       z     vdW  Elec       q    Type
                         _______ _______ _______ _____ _____    ______ ____

>  <TORSDO>
F 9

$$$$
=
 OpenBabel11062421543D

 37 40  0  0  1  0  0  0  0  0999 V2000
  192.3990  176.7800  146.5560 N   0  0  0  0  0  0  0  0  0  0  0  0
  193.6560  174.8450  145.7630 C   0  0  0  0  0  0  0  0  0  0  0  0
  191.6300  176.2210  145.5730 C   0  0  0  0  0  0  0  0  0  0  0  0
  193.7100  176.0960  146.7050 C   0  0  0  0  0  2  0  0  0  0  0  0
  190.3420  176.7430  145.2730 N   0  0  0  0  0  2  0  0  0  0  0  0
  192.2430  174.8460  145.1490 C   0  0  1  0  0  3  0  0  0  0  0  0
  194.5480  174.1230  145.2970 O   0  0  0  0  0  0  0  0  0  0  0  0
  191.2740  172.9590  143.6280 C   0  0  0  0  0  3  0  0  0  0  0  0
  190.4410  170.7820  142.2890 C   0  0  0  0  0  1  0  0  0  0  0  0
  192.4090  174.6750  142.4510 C   0  0  0  0  0  0  0  0  0  0  0  0
  192.1090  174.1170  143.7680 C   0  0  0  0  0  0  0  0  0  0  0  0
  191.0750  172.1450  142.4370 C   0  0  0  0  0  0  0  0  0  0  0  0
  191.4170  172.8020  141.2380 C   0  0  0  0  0  3  0  0  0  0  0  0
  192.0000  174.0460  141.2700 C   0  0  0  0  0  3  0  0  0  0  0  0
  193.6320  175.9540  142.3940 S   0  0  0  0  0  0  0  0  0  0  0  0
  194.6780  174.9850  141.3460 C   0  0  1  0  0  3  0  0  0  0  0  0
  194.6910  175.2610  137.5110 C   0  0  0  0  0  1  0  0  0  0  0  0
  194.8700  174.7490  139.0150 C   0  0  1  0  0  3  0  0  0  0  0  0
  196.0700  175.1630  139.5030 O   0  0  0  0  0  0  0  0  0  0  0  0
  194.9470  175.7530  140.0930 C   0  0  2  0  0  3  0  0  0  0  0  0
  196.4330  173.5070  142.6000 C   0  0  0  0  0  0  0  0  0  0  0  0
  195.8800  172.4120  142.2910 N   0  0  0  0  0  2  0  0  0  0  0  0
  197.7390  173.5020  143.3060 C   0  0  0  0  0  1  0  0  0  0  0  0
  195.7430  174.7490  142.2440 N   0  0  0  0  0  2  0  0  0  0  0  0
  189.1800  176.8210  146.2940 C   0  0  1  0  0  3  0  0  0  0  0  0
  187.6290  177.5730  144.5380 C   0  0  0  0  0  3  0  0  0  0  0  0
  185.6790  178.5460  146.7640 C   0  0  0  0  0  3  0  0  0  0  0  0
  187.8720  177.5650  145.9130 C   0  0  1  0  0  3  0  0  0  0  0  0
  186.9790  178.1740  146.9220 C   0  0  0  0  0  3  0  0  0  0  0  0
  184.7740  178.4830  145.5530 C   0  0  0  0  0  0  0  0  0  0  0  0
  185.1640  178.3470  144.2740 C   0  0  0  0  0  3  0  0  0  0  0  0
  186.6050  178.3210  143.8000 C   0  0  0  0  0  0  0  0  0  0  0  0
  183.4210  178.6560  145.7860 F   0  0  0  0  0  0  0  0  0  0  0  0
  188.0680  177.9650  142.1660 C   0  0  0  0  0  1  0  0  0  0  0  0
  186.8190  178.6070  142.3900 O   0  0  0  0  0  0  0  0  0  0  0  0
  188.9440  174.5370  147.5140 C   0  0  0  0  0  3  0  0  0  0  0  0
  188.9800  175.5020  146.8850 C   0  0  0  0  0  0  0  0  0  0  0  0
  1  4  1  0  0  0  0
  2  4  1  0  0  0  0
  3  1  2  0  0  0  0
  5  3  1  0  0  0  0
  5 25  1  0  0  0  0
  6 11  1  6  0  0  0
  6  3  1  0  0  0  0
  6  2  1  0  0  0  0
  7  2  2  0  0  0  0
  8 11  1  0  0  0  0
  9 12  1  0  0  0  0
 10 11  2  0  0  0  0
 12  8  2  0  0  0  0
 13 14  2  0  0  0  0
 13 12  1  0  0  0  0
 14 10  1  0  0  0  0
 15 10  1  0  0  0  0
 16 24  1  1  0  0  0
 16 15  1  0  0  0  0
 18 17  1  6  0  0  0
 18 19  1  0  0  0  0
 18 20  1  0  0  0  0
 19 20  1  0  0  0  0
 20 16  1  1  0  0  0
 21 23  1  0  0  0  0
 22 21  2  0  0  0  0
 24 21  1  0  0  0  0
 25 37  1  6  0  0  0
 26 28  1  0  0  0  0
 27 29  2  0  0  0  0
 28 25  1  1  0  0  0
 28 29  1  0  0  0  0
 30 33  1  0  0  0  0
 30 27  1  0  0  0  0
 31 30  2  0  0  0  0
 32 31  1  0  0  0  0
 32 26  2  0  0  0  0
 34 35  1  0  0  0  0
 35 32  1  0  0  0  0
 37 36  3  0  0  0  0
M  END
>  <MODEL>
8

>  <REMARK>
 VINA RESULT:      -7.1      3.628      7.695
  Name = 
  9 active torsions:
  status: ('A' for Active; 'I' for Inactive)
    1  A    between atoms: C_5  and  C_12
    2  A    between atoms: C_5  and  C_17
    3  A    between atoms: C_5  and  N_31
    4  A    between atoms: S_11  and  C_19
    5  A    between atoms: S_11  and  C_22
    6  A    between atoms: C_20  and  C_35
    7  A    between atoms: C_22  and  C_28
    8  A    between atoms: C_22  and  N_32
    9  A    between atoms: O_25  and  C_27
                            x       y       z     vdW  Elec       q    Type
                         _______ _______ _______ _____ _____    ______ ____

>  <TORSDO>
F 9

$$$$
=
 OpenBabel11062421543D

 37 40  0  0  1  0  0  0  0  0999 V2000
  188.0520  173.9600  141.7510 N   0  0  0  0  0  0  0  0  0  0  0  0
  189.6630  172.4660  140.6900 C   0  0  0  0  0  0  0  0  0  0  0  0
  189.2070  174.0970  142.4700 C   0  0  0  0  0  0  0  0  0  0  0  0
  188.1630  172.9200  140.6960 C   0  0  0  0  0  2  0  0  0  0  0  0
  189.2950  175.0370  143.5330 N   0  0  0  0  0  2  0  0  0  0  0  0
  190.3690  173.3460  141.7390 C   0  0  1  0  0  3  0  0  0  0  0  0
  190.2190  171.4590  140.2300 O   0  0  0  0  0  0  0  0  0  0  0  0
  191.6940  171.3650  142.8040 C   0  0  0  0  0  3  0  0  0  0  0  0
  192.8040  169.3290  144.1630 C   0  0  0  0  0  1  0  0  0  0  0  0
  193.0290  173.2370  142.2320 C   0  0  0  0  0  0  0  0  0  0  0  0
  191.6660  172.7320  142.3700 C   0  0  0  0  0  0  0  0  0  0  0  0
  192.7930  170.6590  143.4450 C   0  0  0  0  0  0  0  0  0  0  0  0
  194.0500  171.2630  143.2430 C   0  0  0  0  0  3  0  0  0  0  0  0
  194.1430  172.4740  142.6000 C   0  0  0  0  0  3  0  0  0  0  0  0
  193.2040  174.9780  141.9540 S   0  0  0  0  0  0  0  0  0  0  0  0
  194.2480  175.1570  143.3710 C   0  0  1  0  0  3  0  0  0  0  0  0
  197.9260  176.1800  142.9130 C   0  0  0  0  0  1  0  0  0  0  0  0
  196.5640  175.5530  143.4670 C   0  0  1  0  0  3  0  0  0  0  0  0
  195.9430  176.4470  144.2830 O   0  0  0  0  0  0  0  0  0  0  0  0
  195.2900  176.1850  143.0730 C   0  0  2  0  0  3  0  0  0  0  0  0
  192.9640  174.7900  145.6190 C   0  0  0  0  0  0  0  0  0  0  0  0
  193.4470  173.6390  145.8230 N   0  0  0  0  0  2  0  0  0  0  0  0
  192.1170  175.4310  146.6570 C   0  0  0  0  0  1  0  0  0  0  0  0
  193.2640  175.4450  144.3430 N   0  0  0  0  0  2  0  0  0  0  0  0
  189.0920  176.5630  143.3580 C   0  0  1  0  0  3  0  0  0  0  0  0
  186.8220  177.3730  142.8630 C   0  0  0  0  0  3  0  0  0  0  0  0
  186.4150  177.9020  145.9060 C   0  0  0  0  0  3  0  0  0  0  0  0
  187.7840  177.2260  143.8650 C   0  0  1  0  0  3  0  0  0  0  0  0
  187.5900  177.6320  145.2740 C   0  0  0  0  0  3  0  0  0  0  0  0
  184.9930  177.9000  145.3910 C   0  0  0  0  0  0  0  0  0  0  0  0
  184.6140  177.9500  144.1020 C   0  0  0  0  0  3  0  0  0  0  0  0
  185.5530  178.1080  142.9220 C   0  0  0  0  0  0  0  0  0  0  0  0
  183.9920  177.9240  146.3460 F   0  0  0  0  0  0  0  0  0  0  0  0
  185.8340  178.0130  140.7190 C   0  0  0  0  0  1  0  0  0  0  0  0
  184.9500  178.5750  141.6830 O   0  0  0  0  0  0  0  0  0  0  0  0
  191.2350  177.9320  143.9010 C   0  0  0  0  0  3  0  0  0  0  0  0
  190.3160  177.2520  143.7520 C   0  0  0  0  0  0  0  0  0  0  0  0
  1  3  2  0  0  0  0
  2  4  1  0  0  0  0
  2  6  1  0  0  0  0
  3  5  1  0  0  0  0
  4  1  1  0  0  0  0
  6 11  1  1  0  0  0
  6  3  1  0  0  0  0
  7  2  2  0  0  0  0
  8 12  1  0  0  0  0
 10 11  1  0  0  0  0
 10 14  2  0  0  0  0
 11  8  2  0  0  0  0
 12  9  1  0  0  0  0
 13 12  2  0  0  0  0
 14 13  1  0  0  0  0
 15 10  1  0  0  0  0
 16 15  1  6  0  0  0
 16 24  1  0  0  0  0
 18 17  1  6  0  0  0
 18 19  1  0  0  0  0
 20 16  1  1  0  0  0
 20 18  1  0  0  0  0
 20 19  1  0  0  0  0
 21 22  2  0  0  0  0
 21 23  1  0  0  0  0
 24 21  1  0  0  0  0
 25  5  1  0  0  0  0
 25 37  1  1  0  0  0
 26 32  2  0  0  0  0
 26 28  1  0  0  0  0
 28 25  1  1  0  0  0
 28 29  1  0  0  0  0
 29 27  2  0  0  0  0
 30 27  1  0  0  0  0
 30 33  1  0  0  0  0
 31 30  2  0  0  0  0
 32 31  1  0  0  0  0
 34 35  1  0  0  0  0
 35 32  1  0  0  0  0
 37 36  3  0  0  0  0
M  END
>  <MODEL>
9

>  <REMARK>
 VINA RESULT:      -7.1      3.103      8.521
  Name = 
  9 active torsions:
  status: ('A' for Active; 'I' for Inactive)
    1  A    between atoms: C_5  and  C_12
    2  A    between atoms: C_5  and  C_17
    3  A    between atoms: C_5  and  N_31
    4  A    between atoms: S_11  and  C_19
    5  A    between atoms: S_11  and  C_22
    6  A    between atoms: C_20  and  C_35
    7  A    between atoms: C_22  and  C_28
    8  A    between atoms: C_22  and  N_32
    9  A    between atoms: O_25  and  C_27
                            x       y       z     vdW  Elec       q    Type
                         _______ _______ _______ _____ _____    ______ ____

>  <TORSDO>
F 9

$$$$
