=
 OpenBabel11062421593D

 35 38  0  0  1  0  0  0  0  0999 V2000
  189.2770  175.4910  144.7940 C   0  0  1  0  0  3  0  0  0  0  0  0
  193.6400  171.5830  143.5320 O   0  0  0  0  0  1  0  0  0  0  0  0
  192.1740  173.5710  141.4900 C   0  0  0  0  0  2  0  0  0  0  0  0
  192.3980  173.2170  144.7440 C   0  0  0  0  0  2  0  0  0  0  0  0
  196.4770  174.2570  144.1750 N   0  0  0  0  0  0  0  0  0  0  0  0
  188.0050  174.8020  142.5750 C   0  0  0  0  0  2  0  0  0  0  0  0
  196.5640  173.0570  143.3560 C   0  0  0  0  0  2  0  0  0  0  0  0
  195.4260  174.7750  143.2830 C   0  0  2  0  0  3  0  0  0  0  0  0
  189.7700  173.3160  140.8980 C   0  0  0  0  0  2  0  0  0  0  0  0
  190.4840  174.7490  142.8270 C   0  0  0  0  0  3  0  0  0  0  0  0
  194.2190  173.8650  142.9890 C   0  0  1  0  0  0  0  0  0  0  0  0
  195.5530  173.5670  142.3500 C   0  0  2  0  0  3  0  0  0  0  0  0
  193.7250  172.8680  144.0690 C   0  0  2  0  0  3  0  0  0  0  0  0
  191.2080  174.8040  146.3040 C   0  0  0  0  0  2  0  0  0  0  0  0
  188.5360  174.0630  140.3690 C   0  0  0  0  0  2  0  0  0  0  0  0
  189.8360  174.4270  145.7420 C   0  0  0  0  0  2  0  0  0  0  0  0
  190.8220  174.2760  141.4380 C   0  0  1  0  0  3  0  0  0  0  0  0
  189.2810  175.0210  143.3530 C   0  0  0  0  0  0  0  0  0  0  0  0
  193.2400  174.5250  142.0170 C   0  0  0  0  0  2  0  0  0  0  0  0
  188.1660  175.2220  141.1890 N   0  0  0  0  0  2  0  0  0  0  0  0
  192.3570  174.6320  145.3090 C   0  0  0  0  0  2  0  0  0  0  0  0
  195.5750  175.1180  146.1570 O   0  0  0  0  0  1  0  0  0  0  0  0
  195.9720  173.9440  145.5130 C   0  0  2  0  0  3  0  0  0  0  0  0
  197.0600  173.2800  146.3380 C   0  0  0  0  0  1  0  0  0  0  0  0
  187.8430  175.8670  146.6910 O   0  0  0  0  0  1  0  0  0  0  0  0
  187.9600  176.0900  145.3170 C   0  0  1  0  0  3  0  0  0  0  0  0
  188.5930  178.1600  144.3010 O   0  0  0  0  0  0  0  0  0  0  0  0
  187.7400  177.5450  144.9960 C   0  0  0  0  0  0  0  0  0  0  0  0
  186.6260  178.2210  145.5040 O   0  0  0  0  0  0  0  0  0  0  0  0
  185.2880  177.8090  145.2440 C   0  0  1  0  0  3  0  0  0  0  0  0
  184.5080  177.7050  146.5440 C   0  0  0  0  0  1  0  0  0  0  0  0
  185.3470  180.1000  144.1430 C   0  0  0  0  0  1  0  0  0  0  0  0
  184.5970  178.7810  144.2860 C   0  0  1  0  0  3  0  0  0  0  0  0
  185.2420  177.1140  142.6660 O   0  0  0  0  0  1  0  0  0  0  0  0
  184.3330  178.1430  142.9260 C   0  0  0  0  0  2  0  0  0  0  0  0
  1 26  1  1  0  0  0
  1 16  1  0  0  0  0
  3 19  1  0  0  0  0
  4 21  1  0  0  0  0
  5 23  1  0  0  0  0
  6 18  1  0  0  0  0
  7  5  1  0  0  0  0
  8  5  1  1  0  0  0
 10 18  2  0  0  0  0
 11 19  1  6  0  0  0
 11  8  1  0  0  0  0
 11 13  1  0  0  0  0
 12 11  1  0  0  0  0
 12  8  1  0  0  0  0
 12  7  1  1  0  0  0
 13  2  1  6  0  0  0
 13  4  1  0  0  0  0
 15  9  1  0  0  0  0
 15 20  1  0  0  0  0
 16 14  1  0  0  0  0
 17  9  1  1  0  0  0
 17  3  1  0  0  0  0
 17 10  1  0  0  0  0
 18  1  1  0  0  0  0
 20  6  1  0  0  0  0
 21 14  1  0  0  0  0
 23 22  1  0  0  0  0
 23 24  1  1  0  0  0
 26 25  1  1  0  0  0
 27 28  2  0  0  0  0
 28 26  1  0  0  0  0
 28 29  1  0  0  0  0
 30 29  1  0  0  0  0
 30 31  1  1  0  0  0
 33 32  1  6  0  0  0
 33 30  1  0  0  0  0
 34 35  1  0  0  0  0
 35 33  1  0  0  0  0
M  END
>  <MODEL>
1

>  <REMARK>
 VINA RESULT:      -7.4      0.000      0.000
  Name = 
  7 active torsions:
  status: ('A' for Active; 'I' for Inactive)
    1  A    between atoms: C_3  and  C_23
    2  A    between atoms: C_4  and  C_8
    3  A    between atoms: C_4  and  C_16
    4  A    between atoms: N_11  and  C_29
    5  A    between atoms: C_14  and  O_22
    6  A    between atoms: C_14  and  C_23
    7  A    between atoms: C_16  and  O_22
                            x       y       z     vdW  Elec       q    Type
                         _______ _______ _______ _____ _____    ______ ____

>  <TORSDO>
F 7

$$$$
=
 OpenBabel11062421593D

 35 38  0  0  1  0  0  0  0  0999 V2000
  192.0970  175.7690  143.8400 C   0  0  1  0  0  3  0  0  0  0  0  0
  187.5510  178.2330  140.8120 O   0  0  0  0  0  1  0  0  0  0  0  0
  188.2440  175.1140  141.0610 C   0  0  0  0  0  2  0  0  0  0  0  0
  189.1360  177.8920  142.5600 C   0  0  0  0  0  2  0  0  0  0  0  0
  185.1090  177.9870  143.9090 N   0  0  0  0  0  0  0  0  0  0  0  0
  192.5390  174.0970  141.8340 C   0  0  0  0  0  2  0  0  0  0  0  0
  184.7450  178.0630  142.5020 C   0  0  0  0  0  2  0  0  0  0  0  0
  185.7970  176.7110  143.6490 C   0  0  2  0  0  3  0  0  0  0  0  0
  190.3050  174.1370  140.0620 C   0  0  0  0  0  2  0  0  0  0  0  0
  190.2920  175.0070  142.4130 C   0  0  0  0  0  3  0  0  0  0  0  0
  186.8300  176.6700  142.5070 C   0  0  1  0  0  0  0  0  0  0  0  0
  185.3570  176.7150  142.1820 C   0  0  2  0  0  3  0  0  0  0  0  0
  187.6570  177.9380  142.1710 C   0  0  2  0  0  3  0  0  0  0  0  0
  190.7900  177.8620  144.4650 C   0  0  0  0  0  2  0  0  0  0  0  0
  191.2890  172.9610  140.1480 C   0  0  0  0  0  2  0  0  0  0  0  0
  191.8890  177.2650  143.5850 C   0  0  0  0  0  2  0  0  0  0  0  0
  189.5010  174.2980  141.3460 C   0  0  1  0  0  3  0  0  0  0  0  0
  191.6030  174.9250  142.6820 C   0  0  0  0  0  0  0  0  0  0  0  0
  187.4230  175.2710  142.3350 C   0  0  0  0  0  2  0  0  0  0  0  0
  191.9180  172.8300  141.4670 N   0  0  0  0  0  2  0  0  0  0  0  0
  189.3710  177.5100  144.0160 C   0  0  0  0  0  2  0  0  0  0  0  0
  186.5300  178.8460  145.5600 O   0  0  0  0  0  1  0  0  0  0  0  0
  186.0370  179.0600  144.2700 C   0  0  2  0  0  3  0  0  0  0  0  0
  185.3220  180.3990  144.2380 C   0  0  0  0  0  1  0  0  0  0  0  0
  194.3870  176.4970  143.9910 O   0  0  0  0  0  1  0  0  0  0  0  0
  193.5150  175.4680  144.3540 C   0  0  1  0  0  3  0  0  0  0  0  0
  194.6120  175.6130  146.4740 O   0  0  0  0  0  0  0  0  0  0  0  0
  193.6200  175.1790  145.8280 C   0  0  0  0  0  0  0  0  0  0  0  0
  192.6540  174.3950  146.4660 O   0  0  0  0  0  0  0  0  0  0  0  0
  191.5770  174.9520  147.2130 C   0  0  1  0  0  3  0  0  0  0  0  0
  191.8280  176.4280  147.4770 C   0  0  0  0  0  1  0  0  0  0  0  0
  190.1990  173.4680  145.6760 C   0  0  0  0  0  1  0  0  0  0  0  0
  190.2500  174.7640  146.4760 C   0  0  1  0  0  3  0  0  0  0  0  0
  188.1710  175.8720  146.9940 O   0  0  0  0  0  1  0  0  0  0  0  0
  189.0570  174.8790  147.4190 C   0  0  0  0  0  2  0  0  0  0  0  0
  1 26  1  6  0  0  0
  3 17  1  0  0  0  0
  3 19  1  0  0  0  0
  4 21  1  0  0  0  0
  5 23  1  0  0  0  0
  6 18  1  0  0  0  0
  7  5  1  0  0  0  0
  8  5  1  6  0  0  0
  9 15  1  0  0  0  0
 10 18  2  0  0  0  0
 11 19  1  6  0  0  0
 11  8  1  0  0  0  0
 12  7  1  6  0  0  0
 12 11  1  0  0  0  0
 12  8  1  0  0  0  0
 13  2  1  6  0  0  0
 13 11  1  0  0  0  0
 13  4  1  0  0  0  0
 15 20  1  0  0  0  0
 16  1  1  0  0  0  0
 16 14  1  0  0  0  0
 17  9  1  6  0  0  0
 17 10  1  0  0  0  0
 18  1  1  0  0  0  0
 20  6  1  0  0  0  0
 21 14  1  0  0  0  0
 23 24  1  1  0  0  0
 23 22  1  0  0  0  0
 26 25  1  1  0  0  0
 26 28  1  0  0  0  0
 28 29  1  0  0  0  0
 28 27  2  0  0  0  0
 29 30  1  0  0  0  0
 30 31  1  6  0  0  0
 33 32  1  1  0  0  0
 33 30  1  0  0  0  0
 33 35  1  0  0  0  0
 34 35  1  0  0  0  0
M  END
>  <MODEL>
2

>  <REMARK>
 VINA RESULT:      -7.2      2.377      7.358
  Name = 
  7 active torsions:
  status: ('A' for Active; 'I' for Inactive)
    1  A    between atoms: C_3  and  C_23
    2  A    between atoms: C_4  and  C_8
    3  A    between atoms: C_4  and  C_16
    4  A    between atoms: N_11  and  C_29
    5  A    between atoms: C_14  and  O_22
    6  A    between atoms: C_14  and  C_23
    7  A    between atoms: C_16  and  O_22
                            x       y       z     vdW  Elec       q    Type
                         _______ _______ _______ _____ _____    ______ ____

>  <TORSDO>
F 7

$$$$
=
 OpenBabel11062421593D

 35 38  0  0  1  0  0  0  0  0999 V2000
  189.8790  175.4210  145.8100 C   0  0  1  0  0  3  0  0  0  0  0  0
  187.1240  172.3140  141.4910 O   0  0  0  0  0  1  0  0  0  0  0  0
  187.1310  175.4950  141.8820 C   0  0  0  0  0  2  0  0  0  0  0  0
  188.8130  172.9350  143.0550 C   0  0  0  0  0  2  0  0  0  0  0  0
  190.2390  172.5560  139.0710 N   0  0  0  0  0  0  0  0  0  0  0  0
  187.7490  176.9740  146.0660 C   0  0  0  0  0  2  0  0  0  0  0  0
  188.8480  172.3400  138.7010 C   0  0  0  0  0  2  0  0  0  0  0  0
  189.8740  173.8690  139.6300 C   0  0  2  0  0  3  0  0  0  0  0  0
  186.0250  176.5870  143.8260 C   0  0  0  0  0  2  0  0  0  0  0  0
  188.4340  175.8980  143.9240 C   0  0  0  0  0  3  0  0  0  0  0  0
  188.7130  173.9230  140.6410 C   0  0  1  0  0  0  0  0  0  0  0  0
  188.4190  173.7130  139.1760 C   0  0  2  0  0  3  0  0  0  0  0  0
  188.4560  172.7190  141.5830 C   0  0  2  0  0  3  0  0  0  0  0  0
  190.6810  173.2650  144.7190 C   0  0  0  0  0  2  0  0  0  0  0  0
  186.0080  177.8560  144.6930 C   0  0  0  0  0  2  0  0  0  0  0  0
  189.7390  173.8980  145.7450 C   0  0  0  0  0  2  0  0  0  0  0  0
  187.3320  176.4470  143.0560 C   0  0  1  0  0  3  0  0  0  0  0  0
  188.6720  176.1250  145.2230 C   0  0  0  0  0  0  0  0  0  0  0  0
  188.4280  175.3560  141.0940 C   0  0  0  0  0  2  0  0  0  0  0  0
  187.3020  178.1450  145.3210 N   0  0  0  0  0  2  0  0  0  0  0  0
  190.2330  173.4450  143.2680 C   0  0  0  0  0  2  0  0  0  0  0  0
  191.9380  171.9390  140.5590 O   0  0  0  0  0  1  0  0  0  0  0  0
  190.6610  171.6060  140.1020 C   0  0  2  0  0  3  0  0  0  0  0  0
  190.6980  170.2000  139.5320 C   0  0  0  0  0  1  0  0  0  0  0  0
  190.1130  174.8980  148.1490 O   0  0  0  0  0  1  0  0  0  0  0  0
  190.3440  175.8950  147.1980 C   0  0  1  0  0  3  0  0  0  0  0  0
  192.0920  177.2150  148.1580 O   0  0  0  0  0  0  0  0  0  0  0  0
  191.7690  176.3780  147.2720 C   0  0  0  0  0  0  0  0  0  0  0  0
  192.7130  175.9440  146.3370 O   0  0  0  0  0  0  0  0  0  0  0  0
  193.2020  176.7760  145.2900 C   0  0  1  0  0  3  0  0  0  0  0  0
  194.6610  177.1260  145.5340 C   0  0  0  0  0  1  0  0  0  0  0  0
  191.9920  176.7680  143.0540 C   0  0  0  0  0  1  0  0  0  0  0  0
  193.0410  176.0930  143.9320 C   0  0  1  0  0  3  0  0  0  0  0  0
  194.2510  176.3330  141.8590 O   0  0  0  0  0  1  0  0  0  0  0  0
  194.3730  175.9630  143.2010 C   0  0  0  0  0  2  0  0  0  0  0  0
  1 26  1  1  0  0  0
  4 21  1  0  0  0  0
  5 23  1  0  0  0  0
  7  5  1  0  0  0  0
  8  5  1  1  0  0  0
  8 11  1  0  0  0  0
  9 15  1  0  0  0  0
 10 18  2  0  0  0  0
 11 19  1  1  0  0  0
 11 13  1  0  0  0  0
 12  7  1  1  0  0  0
 12  8  1  0  0  0  0
 12 11  1  0  0  0  0
 13  2  1  1  0  0  0
 13  4  1  0  0  0  0
 14 16  1  0  0  0  0
 15 20  1  0  0  0  0
 16  1  1  0  0  0  0
 17  3  1  6  0  0  0
 17  9  1  0  0  0  0
 17 10  1  0  0  0  0
 18  1  1  0  0  0  0
 18  6  1  0  0  0  0
 19  3  1  0  0  0  0
 20  6  1  0  0  0  0
 21 14  1  0  0  0  0
 23 24  1  6  0  0  0
 23 22  1  0  0  0  0
 26 28  1  0  0  0  0
 26 25  1  1  0  0  0
 28 27  2  0  0  0  0
 29 28  1  0  0  0  0
 30 31  1  1  0  0  0
 30 29  1  0  0  0  0
 33 32  1  6  0  0  0
 33 30  1  0  0  0  0
 34 35  1  0  0  0  0
 35 33  1  0  0  0  0
M  END
>  <MODEL>
3

>  <REMARK>
 VINA RESULT:      -7.1      3.050      6.376
  Name = 
  7 active torsions:
  status: ('A' for Active; 'I' for Inactive)
    1  A    between atoms: C_3  and  C_23
    2  A    between atoms: C_4  and  C_8
    3  A    between atoms: C_4  and  C_16
    4  A    between atoms: N_11  and  C_29
    5  A    between atoms: C_14  and  O_22
    6  A    between atoms: C_14  and  C_23
    7  A    between atoms: C_16  and  O_22
                            x       y       z     vdW  Elec       q    Type
                         _______ _______ _______ _____ _____    ______ ____

>  <TORSDO>
F 7

$$$$
=
 OpenBabel11062421593D

 35 38  0  0  1  0  0  0  0  0999 V2000
  188.4170  175.8170  142.3450 C   0  0  1  0  0  3  0  0  0  0  0  0
  193.2900  173.0700  144.4920 O   0  0  0  0  0  1  0  0  0  0  0  0
  192.4010  173.3120  141.4230 C   0  0  0  0  0  2  0  0  0  0  0  0
  191.5750  174.7110  144.2720 C   0  0  0  0  0  2  0  0  0  0  0  0
  195.5030  176.3270  144.1580 N   0  0  0  0  0  0  0  0  0  0  0  0
  188.0120  173.8080  140.6660 C   0  0  0  0  0  2  0  0  0  0  0  0
  195.9620  174.9460  144.1900 C   0  0  0  0  0  2  0  0  0  0  0  0
  194.7590  176.0380  142.9200 C   0  0  2  0  0  3  0  0  0  0  0  0
  190.3570  172.1900  140.5490 C   0  0  0  0  0  2  0  0  0  0  0  0
  190.2650  174.5250  141.4560 C   0  0  0  0  0  3  0  0  0  0  0  0
  193.8040  174.8300  142.9190 C   0  0  1  0  0  0  0  0  0  0  0  0
  195.2950  174.6040  142.8740 C   0  0  2  0  0  3  0  0  0  0  0  0
  193.0760  174.4230  144.2260 C   0  0  2  0  0  3  0  0  0  0  0  0
  189.8000  176.5020  144.3700 C   0  0  0  0  0  2  0  0  0  0  0  0
  189.3030  172.2260  139.4320 C   0  0  0  0  0  2  0  0  0  0  0  0
  188.7280  175.5580  143.8210 C   0  0  0  0  0  2  0  0  0  0  0  0
  191.0820  173.5230  140.6850 C   0  0  1  0  0  3  0  0  0  0  0  0
  188.9370  174.7060  141.4540 C   0  0  0  0  0  0  0  0  0  0  0  0
  193.1430  174.6370  141.5540 C   0  0  0  0  0  2  0  0  0  0  0  0
  188.5810  173.5010  139.3600 N   0  0  0  0  0  2  0  0  0  0  0  0
  191.2220  176.1540  143.9290 C   0  0  0  0  0  2  0  0  0  0  0  0
  194.8320  177.9140  145.7440 O   0  0  0  0  0  1  0  0  0  0  0  0
  194.6170  176.6110  145.2890 C   0  0  2  0  0  3  0  0  0  0  0  0
  194.8990  175.6460  146.4260 C   0  0  0  0  0  1  0  0  0  0  0  0
  186.1410  175.6670  143.1160 O   0  0  0  0  0  1  0  0  0  0  0  0
  186.9530  176.2390  142.1340 C   0  0  1  0  0  3  0  0  0  0  0  0
  186.5420  178.2560  140.9170 O   0  0  0  0  0  0  0  0  0  0  0  0
  186.7140  177.7230  142.0470 C   0  0  0  0  0  0  0  0  0  0  0  0
  186.7340  178.5120  143.2010 O   0  0  0  0  0  0  0  0  0  0  0  0
  185.5710  179.1480  143.7220 C   0  0  1  0  0  3  0  0  0  0  0  0
  184.3190  178.5040  143.1490 C   0  0  0  0  0  1  0  0  0  0  0  0
  184.1600  178.8100  145.8100 C   0  0  0  0  0  1  0  0  0  0  0  0
  185.5520  179.0790  145.2490 C   0  0  1  0  0  3  0  0  0  0  0  0
  185.9480  176.8810  146.1610 O   0  0  0  0  0  1  0  0  0  0  0  0
  186.5680  178.0750  145.7840 C   0  0  0  0  0  2  0  0  0  0  0  0
  1 26  1  1  0  0  0
  1 16  1  0  0  0  0
  3 19  1  0  0  0  0
  5  7  1  0  0  0  0
  5 23  1  0  0  0  0
  6 18  1  0  0  0  0
  8  5  1  1  0  0  0
 11 19  1  6  0  0  0
 11  8  1  0  0  0  0
 11 13  1  0  0  0  0
 12 11  1  0  0  0  0
 12  8  1  0  0  0  0
 12  7  1  1  0  0  0
 13  4  1  0  0  0  0
 13  2  1  6  0  0  0
 15  9  1  0  0  0  0
 16 14  1  0  0  0  0
 17  9  1  1  0  0  0
 17  3  1  0  0  0  0
 17 10  1  0  0  0  0
 18 10  2  0  0  0  0
 18  1  1  0  0  0  0
 20 15  1  0  0  0  0
 20  6  1  0  0  0  0
 21  4  1  0  0  0  0
 21 14  1  0  0  0  0
 23 22  1  0  0  0  0
 23 24  1  1  0  0  0
 26 25  1  1  0  0  0
 27 28  2  0  0  0  0
 28 26  1  0  0  0  0
 28 29  1  0  0  0  0
 29 30  1  0  0  0  0
 30 31  1  6  0  0  0
 30 33  1  0  0  0  0
 33 35  1  0  0  0  0
 33 32  1  6  0  0  0
 35 34  1  0  0  0  0
M  END
>  <MODEL>
4

>  <REMARK>
 VINA RESULT:      -7.0      1.642      2.459
  Name = 
  7 active torsions:
  status: ('A' for Active; 'I' for Inactive)
    1  A    between atoms: C_3  and  C_23
    2  A    between atoms: C_4  and  C_8
    3  A    between atoms: C_4  and  C_16
    4  A    between atoms: N_11  and  C_29
    5  A    between atoms: C_14  and  O_22
    6  A    between atoms: C_14  and  C_23
    7  A    between atoms: C_16  and  O_22
                            x       y       z     vdW  Elec       q    Type
                         _______ _______ _______ _____ _____    ______ ____

>  <TORSDO>
F 7

$$$$
=
 OpenBabel11062421593D

 35 38  0  0  1  0  0  0  0  0999 V2000
  189.8550  176.9690  143.3380 C   0  0  1  0  0  3  0  0  0  0  0  0
  195.0050  176.5140  146.3660 O   0  0  0  0  0  1  0  0  0  0  0  0
  192.3980  174.6810  146.6990 C   0  0  0  0  0  2  0  0  0  0  0  0
  193.5260  176.8690  144.5300 C   0  0  0  0  0  2  0  0  0  0  0  0
  196.5270  173.9610  143.7620 N   0  0  0  0  0  0  0  0  0  0  0  0
  188.4930  176.5710  145.5750 C   0  0  0  0  0  2  0  0  0  0  0  0
  196.9070  174.1320  145.1560 C   0  0  0  0  0  2  0  0  0  0  0  0
  195.1750  173.5680  144.1910 C   0  0  2  0  0  3  0  0  0  0  0  0
  190.2550  175.5840  147.5890 C   0  0  0  0  0  2  0  0  0  0  0  0
  190.7480  175.6040  145.1300 C   0  0  0  0  0  3  0  0  0  0  0  0
  194.4270  174.5010  145.1620 C   0  0  1  0  0  0  0  0  0  0  0  0
  195.5650  173.6520  145.6700 C   0  0  2  0  0  3  0  0  0  0  0  0
  194.6720  176.0310  145.1000 C   0  0  2  0  0  3  0  0  0  0  0  0
  192.1970  177.4490  142.4650 C   0  0  0  0  0  2  0  0  0  0  0  0
  188.7350  175.3670  147.6210 C   0  0  0  0  0  2  0  0  0  0  0  0
  191.0180  177.9640  143.2920 C   0  0  0  0  0  2  0  0  0  0  0  0
  190.9070  174.8490  146.4240 C   0  0  1  0  0  3  0  0  0  0  0  0
  189.7070  176.3360  144.7070 C   0  0  0  0  0  0  0  0  0  0  0  0
  193.0600  173.9350  145.5460 C   0  0  0  0  0  2  0  0  0  0  0  0
  188.1240  175.3540  146.2870 N   0  0  0  0  0  2  0  0  0  0  0  0
  193.0360  176.3830  143.1710 C   0  0  0  0  0  2  0  0  0  0  0  0
  196.1380  175.0560  141.7290 O   0  0  0  0  0  1  0  0  0  0  0  0
  196.5390  175.2430  143.0540 C   0  0  2  0  0  3  0  0  0  0  0  0
  197.9390  175.8290  143.0610 C   0  0  0  0  0  1  0  0  0  0  0  0
  188.9020  178.3360  141.5990 O   0  0  0  0  0  1  0  0  0  0  0  0
  188.5780  177.5530  142.7090 C   0  0  1  0  0  3  0  0  0  0  0  0
  187.8210  175.5430  141.6570 O   0  0  0  0  0  0  0  0  0  0  0  0
  187.5140  176.5470  142.3560 C   0  0  0  0  0  0  0  0  0  0  0  0
  186.1890  176.7480  142.7550 O   0  0  0  0  0  0  0  0  0  0  0  0
  185.5860  178.0370  142.8070 C   0  0  1  0  0  3  0  0  0  0  0  0
  184.1370  177.9590  142.3560 C   0  0  0  0  0  1  0  0  0  0  0  0
  185.3520  180.1100  144.2600 C   0  0  0  0  0  1  0  0  0  0  0  0
  185.6730  178.6210  144.2180 C   0  0  1  0  0  3  0  0  0  0  0  0
  183.9670  178.6930  145.9210 O   0  0  0  0  0  1  0  0  0  0  0  0
  184.8130  177.8410  145.2070 C   0  0  0  0  0  2  0  0  0  0  0  0
  1 26  1  1  0  0  0
  1 18  1  0  0  0  0
  4 13  1  0  0  0  0
  5  7  1  0  0  0  0
  6 20  1  0  0  0  0
  8  5  1  6  0  0  0
  8 11  1  0  0  0  0
  8 12  1  0  0  0  0
  9 15  1  0  0  0  0
 11 19  1  1  0  0  0
 11 12  1  0  0  0  0
 12  7  1  6  0  0  0
 13 11  1  0  0  0  0
 13  2  1  1  0  0  0
 14 21  1  0  0  0  0
 14 16  1  0  0  0  0
 16  1  1  0  0  0  0
 17 10  1  6  0  0  0
 17  3  1  0  0  0  0
 17  9  1  0  0  0  0
 18 10  2  0  0  0  0
 18  6  1  0  0  0  0
 19  3  1  0  0  0  0
 20 15  1  0  0  0  0
 21  4  1  0  0  0  0
 22 23  1  0  0  0  0
 23 24  1  6  0  0  0
 23  5  1  0  0  0  0
 26 25  1  6  0  0  0
 27 28  2  0  0  0  0
 28 26  1  0  0  0  0
 28 29  1  0  0  0  0
 29 30  1  0  0  0  0
 30 31  1  1  0  0  0
 30 33  1  0  0  0  0
 33 32  1  6  0  0  0
 33 35  1  0  0  0  0
 35 34  1  0  0  0  0
M  END
>  <MODEL>
5

>  <REMARK>
 VINA RESULT:      -7.0      2.278      3.872
  Name = 
  7 active torsions:
  status: ('A' for Active; 'I' for Inactive)
    1  A    between atoms: C_3  and  C_23
    2  A    between atoms: C_4  and  C_8
    3  A    between atoms: C_4  and  C_16
    4  A    between atoms: N_11  and  C_29
    5  A    between atoms: C_14  and  O_22
    6  A    between atoms: C_14  and  C_23
    7  A    between atoms: C_16  and  O_22
                            x       y       z     vdW  Elec       q    Type
                         _______ _______ _______ _____ _____    ______ ____

>  <TORSDO>
F 7

$$$$
=
 OpenBabel11062421593D

 35 38  0  0  1  0  0  0  0  0999 V2000
  190.2930  174.3380  142.9340 C   0  0  1  0  0  3  0  0  0  0  0  0
  185.2520  176.2750  145.5300 O   0  0  0  0  0  1  0  0  0  0  0  0
  188.2530  177.1440  146.2450 C   0  0  0  0  0  2  0  0  0  0  0  0
  186.7350  175.5600  143.8060 C   0  0  0  0  0  2  0  0  0  0  0  0
  184.9140  179.3200  143.0320 N   0  0  0  0  0  0  0  0  0  0  0  0
  191.4560  174.1540  145.3080 C   0  0  0  0  0  2  0  0  0  0  0  0
  184.3490  179.2060  144.3680 C   0  0  0  0  0  2  0  0  0  0  0  0
  186.2660  179.2300  143.6100 C   0  0  2  0  0  3  0  0  0  0  0  0
  189.8860  175.5490  147.2370 C   0  0  0  0  0  2  0  0  0  0  0  0
  189.6870  175.8220  144.7530 C   0  0  0  0  0  3  0  0  0  0  0  0
  186.5670  178.0540  144.5580 C   0  0  1  0  0  0  0  0  0  0  0  0
  185.7080  179.1980  145.0360 C   0  0  2  0  0  3  0  0  0  0  0  0
  185.8580  176.6920  144.3440 C   0  0  2  0  0  3  0  0  0  0  0  0
  188.0310  174.6910  141.8220 C   0  0  0  0  0  2  0  0  0  0  0  0
  191.3840  175.2600  147.4210 C   0  0  0  0  0  2  0  0  0  0  0  0
  188.8870  173.7780  142.7020 C   0  0  0  0  0  2  0  0  0  0  0  0
  189.6340  176.5170  146.0880 C   0  0  1  0  0  3  0  0  0  0  0  0
  190.4820  174.8160  144.3600 C   0  0  0  0  0  0  0  0  0  0  0  0
  187.9930  178.1250  145.1070 C   0  0  0  0  0  2  0  0  0  0  0  0
  192.1100  175.1460  146.1510 N   0  0  0  0  0  2  0  0  0  0  0  0
  187.5010  175.9320  142.5420 C   0  0  0  0  0  2  0  0  0  0  0  0
  185.3190  178.1640  141.0360 O   0  0  0  0  0  1  0  0  0  0  0  0
  184.5750  178.1510  142.2180 C   0  0  2  0  0  3  0  0  0  0  0  0
  183.0990  178.1730  141.8650 C   0  0  0  0  0  1  0  0  0  0  0  0
  190.8280  172.5340  141.4320 O   0  0  0  0  0  1  0  0  0  0  0  0
  191.3810  173.4070  142.3720 C   0  0  1  0  0  3  0  0  0  0  0  0
  192.6670  174.2920  140.5600 O   0  0  0  0  0  0  0  0  0  0  0  0
  192.5930  174.0980  141.8040 C   0  0  0  0  0  0  0  0  0  0  0  0
  193.6490  174.4750  142.6400 O   0  0  0  0  0  0  0  0  0  0  0  0
  194.1300  175.8130  142.7200 C   0  0  1  0  0  3  0  0  0  0  0  0
  192.9700  176.7800  142.8920 C   0  0  0  0  0  1  0  0  0  0  0  0
  195.4040  174.6480  144.5860 C   0  0  0  0  0  1  0  0  0  0  0  0
  195.1240  175.9650  143.8720 C   0  0  1  0  0  3  0  0  0  0  0  0
  196.4600  176.7610  142.0290 O   0  0  0  0  0  1  0  0  0  0  0  0
  196.4160  176.6360  143.4200 C   0  0  0  0  0  2  0  0  0  0  0  0
  1 26  1  1  0  0  0
  1 18  1  0  0  0  0
  4 13  1  0  0  0  0
  5  7  1  0  0  0  0
  6 20  1  0  0  0  0
  8  5  1  6  0  0  0
  8 11  1  0  0  0  0
  8 12  1  0  0  0  0
  9 15  1  0  0  0  0
 11 12  1  0  0  0  0
 11 19  1  1  0  0  0
 12  7  1  6  0  0  0
 13 11  1  0  0  0  0
 13  2  1  1  0  0  0
 14 21  1  0  0  0  0
 14 16  1  0  0  0  0
 16  1  1  0  0  0  0
 17 10  1  6  0  0  0
 17  3  1  0  0  0  0
 17  9  1  0  0  0  0
 18 10  2  0  0  0  0
 18  6  1  0  0  0  0
 19  3  1  0  0  0  0
 20 15  1  0  0  0  0
 21  4  1  0  0  0  0
 22 23  1  0  0  0  0
 23 24  1  6  0  0  0
 23  5  1  0  0  0  0
 26 25  1  6  0  0  0
 27 28  2  0  0  0  0
 28 26  1  0  0  0  0
 28 29  1  0  0  0  0
 29 30  1  0  0  0  0
 30 31  1  1  0  0  0
 30 33  1  0  0  0  0
 33 32  1  6  0  0  0
 34 35  1  0  0  0  0
 35 33  1  0  0  0  0
M  END
>  <MODEL>
6

>  <REMARK>
 VINA RESULT:      -7.0      2.267      8.839
  Name = 
  7 active torsions:
  status: ('A' for Active; 'I' for Inactive)
    1  A    between atoms: C_3  and  C_23
    2  A    between atoms: C_4  and  C_8
    3  A    between atoms: C_4  and  C_16
    4  A    between atoms: N_11  and  C_29
    5  A    between atoms: C_14  and  O_22
    6  A    between atoms: C_14  and  C_23
    7  A    between atoms: C_16  and  O_22
                            x       y       z     vdW  Elec       q    Type
                         _______ _______ _______ _____ _____    ______ ____

>  <TORSDO>
F 7

$$$$
=
 OpenBabel11062421593D

 35 38  0  0  1  0  0  0  0  0999 V2000
  190.0790  174.1570  142.9350 C   0  0  1  0  0  3  0  0  0  0  0  0
  185.2350  176.4180  145.6410 O   0  0  0  0  0  1  0  0  0  0  0  0
  188.2980  177.1610  146.2200 C   0  0  0  0  0  2  0  0  0  0  0  0
  186.6180  175.5770  143.8910 C   0  0  0  0  0  2  0  0  0  0  0  0
  184.9510  179.3950  143.0580 N   0  0  0  0  0  0  0  0  0  0  0  0
  191.3180  173.9900  145.2700 C   0  0  0  0  0  2  0  0  0  0  0  0
  184.4300  179.3520  144.4160 C   0  0  0  0  0  2  0  0  0  0  0  0
  186.3170  179.2580  143.5900 C   0  0  2  0  0  3  0  0  0  0  0  0
  189.8900  175.5200  147.2070 C   0  0  0  0  0  2  0  0  0  0  0  0
  189.6120  175.7240  144.7230 C   0  0  0  0  0  3  0  0  0  0  0  0
  186.5970  178.0990  144.5650 C   0  0  1  0  0  0  0  0  0  0  0  0
  185.8120  179.2980  145.0360 C   0  0  2  0  0  3  0  0  0  0  0  0
  185.8160  176.7670  144.4220 C   0  0  2  0  0  3  0  0  0  0  0  0
  187.7960  174.5840  141.8920 C   0  0  0  0  0  2  0  0  0  0  0  0
  191.3770  175.1640  147.3470 C   0  0  0  0  0  2  0  0  0  0  0  0
  188.6400  173.6590  142.7710 C   0  0  0  0  0  2  0  0  0  0  0  0
  189.6410  176.4620  146.0360 C   0  0  1  0  0  3  0  0  0  0  0  0
  190.3430  174.6690  144.3370 C   0  0  0  0  0  0  0  0  0  0  0  0
  188.0430  178.1170  145.0610 C   0  0  0  0  0  2  0  0  0  0  0  0
  192.0500  174.9750  146.0560 N   0  0  0  0  0  2  0  0  0  0  0  0
  187.3530  175.8720  142.5890 C   0  0  0  0  0  2  0  0  0  0  0  0
  185.2110  178.1710  141.0790 O   0  0  0  0  0  1  0  0  0  0  0  0
  184.5270  178.2190  142.2960 C   0  0  2  0  0  3  0  0  0  0  0  0
  183.0370  178.2910  142.0140 C   0  0  0  0  0  1  0  0  0  0  0  0
  190.4850  171.9230  142.1300 O   0  0  0  0  0  1  0  0  0  0  0  0
  191.0990  173.1560  142.3650 C   0  0  1  0  0  3  0  0  0  0  0  0
  191.6820  173.0050  140.0510 O   0  0  0  0  0  0  0  0  0  0  0  0
  191.8430  173.6190  141.1400 C   0  0  0  0  0  0  0  0  0  0  0  0
  192.7420  174.6870  141.2200 O   0  0  0  0  0  0  0  0  0  0  0  0
  193.8510  174.6980  142.1140 C   0  0  1  0  0  3  0  0  0  0  0  0
  195.1180  174.2810  141.3860 C   0  0  0  0  0  1  0  0  0  0  0  0
  192.7050  176.8020  142.9630 C   0  0  0  0  0  1  0  0  0  0  0  0
  194.0290  176.0810  142.7420 C   0  0  1  0  0  3  0  0  0  0  0  0
  196.0710  176.6750  143.8790 O   0  0  0  0  0  1  0  0  0  0  0  0
  194.8470  176.0180  144.0270 C   0  0  0  0  0  2  0  0  0  0  0  0
  1 26  1  1  0  0  0
  1 18  1  0  0  0  0
  4 13  1  0  0  0  0
  5  7  1  0  0  0  0
  6 20  1  0  0  0  0
  8  5  1  6  0  0  0
  8 11  1  0  0  0  0
  8 12  1  0  0  0  0
  9 15  1  0  0  0  0
 11 12  1  0  0  0  0
 11 19  1  1  0  0  0
 12  7  1  6  0  0  0
 13 11  1  0  0  0  0
 13  2  1  1  0  0  0
 14 21  1  0  0  0  0
 14 16  1  0  0  0  0
 16  1  1  0  0  0  0
 17 10  1  6  0  0  0
 17  3  1  0  0  0  0
 17  9  1  0  0  0  0
 18 10  2  0  0  0  0
 18  6  1  0  0  0  0
 19  3  1  0  0  0  0
 20 15  1  0  0  0  0
 21  4  1  0  0  0  0
 22 23  1  0  0  0  0
 23 24  1  6  0  0  0
 23  5  1  0  0  0  0
 26 25  1  6  0  0  0
 27 28  2  0  0  0  0
 28 29  1  0  0  0  0
 28 26  1  0  0  0  0
 29 30  1  0  0  0  0
 30 31  1  6  0  0  0
 30 33  1  0  0  0  0
 33 32  1  1  0  0  0
 33 35  1  0  0  0  0
 34 35  1  0  0  0  0
M  END
>  <MODEL>
7

>  <REMARK>
 VINA RESULT:      -6.8      2.307      8.757
  Name = 
  7 active torsions:
  status: ('A' for Active; 'I' for Inactive)
    1  A    between atoms: C_3  and  C_23
    2  A    between atoms: C_4  and  C_8
    3  A    between atoms: C_4  and  C_16
    4  A    between atoms: N_11  and  C_29
    5  A    between atoms: C_14  and  O_22
    6  A    between atoms: C_14  and  C_23
    7  A    between atoms: C_16  and  O_22
                            x       y       z     vdW  Elec       q    Type
                         _______ _______ _______ _____ _____    ______ ____

>  <TORSDO>
F 7

$$$$
=
 OpenBabel11062421593D

 35 38  0  0  1  0  0  0  0  0999 V2000
  188.9720  175.3850  142.0570 C   0  0  1  0  0  3  0  0  0  0  0  0
  193.4900  171.8750  143.8390 O   0  0  0  0  0  1  0  0  0  0  0  0
  192.5540  172.4430  140.8270 C   0  0  0  0  0  2  0  0  0  0  0  0
  192.0060  173.7410  143.7900 C   0  0  0  0  0  2  0  0  0  0  0  0
  196.1110  174.8260  143.6320 N   0  0  0  0  0  0  0  0  0  0  0  0
  188.2520  173.5670  140.2700 C   0  0  0  0  0  2  0  0  0  0  0  0
  196.3810  173.3970  143.5580 C   0  0  0  0  0  2  0  0  0  0  0  0
  195.3000  174.7240  142.4070 C   0  0  2  0  0  3  0  0  0  0  0  0
  190.3540  171.6640  139.9610 C   0  0  0  0  0  2  0  0  0  0  0  0
  190.6030  173.9240  141.0190 C   0  0  0  0  0  3  0  0  0  0  0  0
  194.1910  173.6560  142.3640 C   0  0  1  0  0  0  0  0  0  0  0  0
  195.6360  173.2380  142.2480 C   0  0  2  0  0  3  0  0  0  0  0  0
  193.4530  173.2600  143.6690 C   0  0  2  0  0  3  0  0  0  0  0  0
  190.4920  175.7400  144.0680 C   0  0  0  0  0  2  0  0  0  0  0  0
  189.2820  171.9160  138.8890 C   0  0  0  0  0  2  0  0  0  0  0  0
  189.2880  174.9860  143.5010 C   0  0  0  0  0  2  0  0  0  0  0  0
  191.2550  172.8770  140.1540 C   0  0  1  0  0  3  0  0  0  0  0  0
  189.3120  174.2790  141.0780 C   0  0  0  0  0  0  0  0  0  0  0  0
  193.4710  173.6460  141.0150 C   0  0  0  0  0  2  0  0  0  0  0  0
  188.7370  173.2770  138.9260 N   0  0  0  0  0  2  0  0  0  0  0  0
  191.8410  175.2370  143.5530 C   0  0  0  0  0  2  0  0  0  0  0  0
  195.2730  176.5300  145.0020 O   0  0  0  0  0  1  0  0  0  0  0  0
  195.3040  175.1460  144.8110 C   0  0  2  0  0  3  0  0  0  0  0  0
  195.9050  174.4980  146.0450 C   0  0  0  0  0  1  0  0  0  0  0  0
  186.6560  175.3040  142.7100 O   0  0  0  0  0  1  0  0  0  0  0  0
  187.5730  176.0110  141.9280 C   0  0  1  0  0  3  0  0  0  0  0  0
  188.4920  178.2180  141.9800 O   0  0  0  0  0  0  0  0  0  0  0  0
  187.4950  177.4850  142.2240 C   0  0  0  0  0  0  0  0  0  0  0  0
  186.3480  178.0300  142.8100 O   0  0  0  0  0  0  0  0  0  0  0  0
  186.3540  178.6380  144.0980 C   0  0  1  0  0  3  0  0  0  0  0  0
  185.5080  179.9010  144.0870 C   0  0  0  0  0  1  0  0  0  0  0  0
  186.9670  176.9460  145.8930 C   0  0  0  0  0  1  0  0  0  0  0  0
  185.8410  177.6650  145.1600 C   0  0  1  0  0  3  0  0  0  0  0  0
  185.2260  178.0450  147.4610 O   0  0  0  0  0  1  0  0  0  0  0  0
  184.8890  178.3450  146.1390 C   0  0  0  0  0  2  0  0  0  0  0  0
  1 26  1  1  0  0  0
  1 16  1  0  0  0  0
  3 19  1  0  0  0  0
  5 23  1  0  0  0  0
  6 18  1  0  0  0  0
  7  5  1  0  0  0  0
  8  5  1  1  0  0  0
 10 18  2  0  0  0  0
 11 19  1  6  0  0  0
 11  8  1  0  0  0  0
 11 13  1  0  0  0  0
 12 11  1  0  0  0  0
 12  8  1  0  0  0  0
 12  7  1  1  0  0  0
 13  4  1  0  0  0  0
 13  2  1  6  0  0  0
 15 20  1  0  0  0  0
 15  9  1  0  0  0  0
 16 14  1  0  0  0  0
 17  9  1  1  0  0  0
 17  3  1  0  0  0  0
 17 10  1  0  0  0  0
 18  1  1  0  0  0  0
 20  6  1  0  0  0  0
 21  4  1  0  0  0  0
 21 14  1  0  0  0  0
 23 22  1  0  0  0  0
 23 24  1  1  0  0  0
 26 28  1  0  0  0  0
 26 25  1  1  0  0  0
 27 28  2  0  0  0  0
 28 29  1  0  0  0  0
 29 30  1  0  0  0  0
 30 31  1  6  0  0  0
 30 33  1  0  0  0  0
 33 32  1  1  0  0  0
 33 35  1  0  0  0  0
 35 34  1  0  0  0  0
M  END
>  <MODEL>
8

>  <REMARK>
 VINA RESULT:      -6.7      1.549      2.386
  Name = 
  7 active torsions:
  status: ('A' for Active; 'I' for Inactive)
    1  A    between atoms: C_3  and  C_23
    2  A    between atoms: C_4  and  C_8
    3  A    between atoms: C_4  and  C_16
    4  A    between atoms: N_11  and  C_29
    5  A    between atoms: C_14  and  O_22
    6  A    between atoms: C_14  and  C_23
    7  A    between atoms: C_16  and  O_22
                            x       y       z     vdW  Elec       q    Type
                         _______ _______ _______ _____ _____    ______ ____

>  <TORSDO>
F 7

$$$$
=
 OpenBabel11062421593D

 35 38  0  0  1  0  0  0  0  0999 V2000
  190.4120  174.4340  143.0280 C   0  0  1  0  0  3  0  0  0  0  0  0
  185.3210  176.3370  145.5510 O   0  0  0  0  0  1  0  0  0  0  0  0
  188.3070  177.1940  146.3360 C   0  0  0  0  0  2  0  0  0  0  0  0
  186.8380  175.6440  143.8460 C   0  0  0  0  0  2  0  0  0  0  0  0
  185.0330  179.4150  143.0890 N   0  0  0  0  0  0  0  0  0  0  0  0
  191.5280  174.2170  145.4200 C   0  0  0  0  0  2  0  0  0  0  0  0
  184.4410  179.2840  144.4120 C   0  0  0  0  0  2  0  0  0  0  0  0
  186.3730  179.3170  143.6920 C   0  0  2  0  0  3  0  0  0  0  0  0
  189.9220  175.5860  147.3380 C   0  0  0  0  0  2  0  0  0  0  0  0
  189.7710  175.8920  144.8540 C   0  0  0  0  0  3  0  0  0  0  0  0
  186.6560  178.1280  144.6290 C   0  0  1  0  0  0  0  0  0  0  0  0
  185.7870  179.2660  145.1060 C   0  0  2  0  0  3  0  0  0  0  0  0
  185.9510  176.7690  144.3830 C   0  0  2  0  0  3  0  0  0  0  0  0
  188.1710  174.8020  141.8770 C   0  0  0  0  0  2  0  0  0  0  0  0
  191.4150  175.2940  147.5460 C   0  0  0  0  0  2  0  0  0  0  0  0
  189.0110  173.8770  142.7600 C   0  0  0  0  0  2  0  0  0  0  0  0
  189.6920  176.5690  146.1970 C   0  0  1  0  0  3  0  0  0  0  0  0
  190.5730  174.8920  144.4630 C   0  0  0  0  0  0  0  0  0  0  0  0
  188.0700  178.1910  145.2070 C   0  0  0  0  0  2  0  0  0  0  0  0
  192.1660  175.1970  146.2900 N   0  0  0  0  0  2  0  0  0  0  0  0
  187.6280  176.0330  142.6030 C   0  0  0  0  0  2  0  0  0  0  0  0
  185.4800  178.2830  141.0880 O   0  0  0  0  0  1  0  0  0  0  0  0
  184.7090  178.2570  142.2530 C   0  0  2  0  0  3  0  0  0  0  0  0
  183.2420  178.2870  141.8660 C   0  0  0  0  0  1  0  0  0  0  0  0
  191.0550  172.1900  142.4370 O   0  0  0  0  0  1  0  0  0  0  0  0
  191.5100  173.5100  142.4730 C   0  0  1  0  0  3  0  0  0  0  0  0
  192.8410  174.9140  141.0680 O   0  0  0  0  0  0  0  0  0  0  0  0
  192.0790  173.9120  141.1380 C   0  0  0  0  0  0  0  0  0  0  0  0
  191.7270  173.2130  139.9790 O   0  0  0  0  0  0  0  0  0  0  0  0
  190.5430  173.4920  139.2390 C   0  0  1  0  0  3  0  0  0  0  0  0
  190.8720  173.6660  137.7660 C   0  0  0  0  0  1  0  0  0  0  0  0
  188.1900  172.6780  138.7240 C   0  0  0  0  0  1  0  0  0  0  0  0
  189.5100  172.3800  139.4250 C   0  0  1  0  0  3  0  0  0  0  0  0
  189.3440  170.4900  137.9350 O   0  0  0  0  0  1  0  0  0  0  0  0
  190.0620  171.0200  139.0110 C   0  0  0  0  0  2  0  0  0  0  0  0
  1 26  1  1  0  0  0
  1 18  1  0  0  0  0
  4 13  1  0  0  0  0
  5  7  1  0  0  0  0
  6 20  1  0  0  0  0
  8  5  1  6  0  0  0
  8 11  1  0  0  0  0
  8 12  1  0  0  0  0
  9 15  1  0  0  0  0
 11 12  1  0  0  0  0
 11 19  1  1  0  0  0
 12  7  1  6  0  0  0
 13 11  1  0  0  0  0
 13  2  1  1  0  0  0
 14 21  1  0  0  0  0
 14 16  1  0  0  0  0
 16  1  1  0  0  0  0
 17 10  1  6  0  0  0
 17  3  1  0  0  0  0
 17  9  1  0  0  0  0
 18 10  2  0  0  0  0
 18  6  1  0  0  0  0
 19  3  1  0  0  0  0
 20 15  1  0  0  0  0
 21  4  1  0  0  0  0
 22 23  1  0  0  0  0
 23 24  1  6  0  0  0
 23  5  1  0  0  0  0
 26 25  1  6  0  0  0
 27 28  2  0  0  0  0
 28 26  1  0  0  0  0
 29 28  1  0  0  0  0
 30 31  1  6  0  0  0
 30 33  1  0  0  0  0
 30 29  1  0  0  0  0
 33 32  1  6  0  0  0
 34 35  1  0  0  0  0
 35 33  1  0  0  0  0
M  END
>  <MODEL>
9

>  <REMARK>
 VINA RESULT:      -6.7      2.863      8.625
  Name = 
  7 active torsions:
  status: ('A' for Active; 'I' for Inactive)
    1  A    between atoms: C_3  and  C_23
    2  A    between atoms: C_4  and  C_8
    3  A    between atoms: C_4  and  C_16
    4  A    between atoms: N_11  and  C_29
    5  A    between atoms: C_14  and  O_22
    6  A    between atoms: C_14  and  C_23
    7  A    between atoms: C_16  and  O_22
                            x       y       z     vdW  Elec       q    Type
                         _______ _______ _______ _____ _____    ______ ____

>  <TORSDO>
F 7

$$$$
