=
 OpenBabel11062422493D

 46 51  0  0  1  0  0  0  0  0999 V2000
  189.1010  173.3360  140.9600 C   0  0  1  0  0  3  0  0  0  0  0  0
  190.4490  173.0980  141.5210 C   0  0  1  0  0  3  0  0  0  0  0  0
  189.6180  172.0350  141.1110 O   0  0  0  0  0  0  0  0  0  0  0  0
  188.1140  173.5950  142.0880 C   0  0  0  0  0  2  0  0  0  0  0  0
  187.6110  175.0410  142.1100 C   0  0  2  0  0  3  0  0  0  0  0  0
  187.9980  175.7110  140.8780 N   0  0  0  0  0  1  0  0  0  0  0  0
  188.0520  175.8510  143.3590 C   0  0  2  0  0  3  0  0  0  0  0  0
  185.8920  176.9720  142.9660 O   0  0  0  0  0  0  0  0  0  0  0  0
  187.1440  177.0680  143.6310 C   0  0  1  0  0  3  0  0  0  0  0  0
  185.5670  177.8060  145.1120 C   0  0  0  0  0  0  0  0  0  0  0  0
  184.7220  177.4760  146.3130 C   0  0  0  0  0  2  0  0  0  0  0  0
  186.9630  177.3200  145.1200 C   0  0  0  0  0  2  0  0  0  0  0  0
  184.9430  177.6470  143.7600 C   0  0  0  0  0  2  0  0  0  0  0  0
  185.1440  178.9230  146.0260 C   0  0  0  0  0  2  0  0  0  0  0  0
  190.3970  175.7140  144.3100 C   0  0  0  0  0  2  0  0  0  0  0  0
  189.5200  176.3080  143.2220 C   0  0  2  0  0  3  0  0  0  0  0  0
  191.5660  176.6640  144.4610 C   0  0  1  0  0  3  0  0  0  0  0  0
  189.6990  177.8070  143.3930 C   0  0  0  0  0  2  0  0  0  0  0  0
  191.1350  177.9880  143.8520 C   0  0  0  0  0  2  0  0  0  0  0  0
  191.8700  176.8450  145.8740 N   0  0  0  0  0  2  0  0  0  0  0  0
  193.1040  176.1290  146.1730 C   0  0  0  0  0  0  0  0  0  0  0  0
  194.2230  176.3830  145.1940 C   0  0  0  0  0  2  0  0  0  0  0  0
  194.2980  176.9380  146.6170 C   0  0  0  0  0  2  0  0  0  0  0  0
  193.0130  174.8090  146.6170 O   0  0  0  0  0  1  0  0  0  0  0  0
  191.4570  173.3320  140.4940 N   0  0  0  0  0  2  0  0  0  0  0  0
  192.6890  173.9660  142.4390 O   0  0  0  0  0  1  0  0  0  0  0  0
  193.9000  172.8790  139.2630 O   0  0  0  0  0  0  0  0  0  0  0  0
  193.9110  173.2190  140.4800 C   0  0  0  0  0  0  0  0  0  0  0  0
  192.6820  173.5780  141.1360 N   0  0  0  0  0  0  0  0  0  0  0  0
  195.2220  173.2500  141.2040 C   0  0  1  0  0  3  0  0  0  0  0  0
  195.5870  171.8640  141.7340 C   0  0  0  0  0  2  0  0  0  0  0  0
  196.7130  170.7590  145.1820 N   0  0  0  0  0  0  0  0  0  0  0  0
  195.9070  173.0820  143.8250 N   0  0  0  0  0  2  0  0  0  0  0  0
  195.4410  171.8170  143.2530 C   0  0  2  0  0  3  0  0  0  0  0  0
  196.8340  172.0650  145.8250 C   0  0  0  0  0  2  0  0  0  0  0  0
  196.3150  169.5720  143.2060 O   0  0  0  0  0  0  0  0  0  0  0  0
  196.2050  170.6550  143.8410 C   0  0  0  0  0  0  0  0  0  0  0  0
  195.7840  173.0260  145.2770 C   0  0  0  0  0  2  0  0  0  0  0  0
  197.2720  169.5950  145.8570 C   0  0  0  0  0  2  0  0  0  0  0  0
  196.5950  169.3950  147.2070 C   0  0  0  0  0  2  0  0  0  0  0  0
  195.2110  168.8660  147.0060 C   0  0  0  0  0  3  0  0  0  0  0  0
  194.5450  168.4980  147.9600 O   0  0  0  0  0  0  0  0  0  0  0  0
  196.2450  173.7440  140.3460 O   0  0  0  0  0  0  0  0  0  0  0  0
  196.4210  176.0680  140.9230 O   0  0  0  0  0  0  0  0  0  0  0  0
  196.3060  175.0720  139.9760 N   0  0  0  0  0  0  0  0  0  0  0  0
  196.2350  175.3800  138.7680 O   0  0  0  0  0  0  0  0  0  0  0  0
  1  3  1  0  0  0  0
  1  2  1  0  0  0  0
  1  4  1  1  0  0  0
  2 25  1  6  0  0  0
  3  2  1  0  0  0  0
  4  5  1  0  0  0  0
  5  6  1  6  0  0  0
  7  5  1  6  0  0  0
  8  9  1  0  0  0  0
  8 13  1  0  0  0  0
  9  7  1  1  0  0  0
  9 12  1  0  0  0  0
 10 12  1  0  0  0  0
 10 14  1  0  0  0  0
 10 11  1  0  0  0  0
 13 10  1  0  0  0  0
 14 11  1  0  0  0  0
 15 17  1  0  0  0  0
 16  7  1  1  0  0  0
 16 18  1  0  0  0  0
 16 15  1  0  0  0  0
 17 20  1  1  0  0  0
 18 19  1  0  0  0  0
 19 17  1  0  0  0  0
 20 21  1  0  0  0  0
 21 23  1  0  0  0  0
 21 24  1  0  0  0  0
 22 21  1  0  0  0  0
 22 23  1  0  0  0  0
 25 29  1  0  0  0  0
 27 28  2  0  0  0  0
 28 29  1  0  0  0  0
 28 30  1  0  0  0  0
 29 26  1  0  0  0  0
 30 31  1  6  0  0  0
 32 35  1  0  0  0  0
 32 39  1  0  0  0  0
 33 38  1  0  0  0  0
 34 31  1  6  0  0  0
 34 33  1  0  0  0  0
 34 37  1  0  0  0  0
 36 37  2  0  0  0  0
 37 32  1  0  0  0  0
 38 35  1  0  0  0  0
 39 40  1  0  0  0  0
 41 40  1  0  0  0  0
 41 42  2  0  0  0  0
 43 30  1  0  0  0  0
 45 43  1  0  0  0  0
 45 44  2  0  0  0  0
 46 45  2  0  0  0  0
M  END
>  <MODEL>
1

>  <REMARK>
 VINA RESULT:      -6.2      0.000      0.000
  Name = 
  17 active torsions:
  status: ('A' for Active; 'I' for Inactive)
    1  A    between atoms: C_1  and  C_43
    2  A    between atoms: C_4  and  C_12
    3  A    between atoms: C_4  and  C_13
    4  A    between atoms: C_4  and  C_16
    5  A    between atoms: C_5  and  N_38
    6  A    between atoms: C_6  and  C_45
    7  A    between atoms: N_7  and  O_9
    8  A    between atoms: O_9  and  C_42
    9  A    between atoms: C_13  and  C_45
   10  A    between atoms: C_14  and  C_25
   11  A    between atoms: C_14  and  C_42
   12  A    between atoms: N_15  and  C_36
   13  A    between atoms: C_17  and  N_30
   14  A    between atoms: C_20  and  N_38
   15  A    between atoms: C_27  and  C_42
   16  A    between atoms: N_30  and  N_41
   17  A    between atoms: C_36  and  C_43
                            x       y       z     vdW  Elec       q    Type
                         _______ _______ _______ _____ _____    ______ ____

>  <TORSDO>
F 17

$$$$
=
 OpenBabel11062422493D

 46 51  0  0  1  0  0  0  0  0999 V2000
  193.3520  171.6380  144.6500 C   0  0  1  0  0  3  0  0  0  0  0  0
  192.3020  171.7930  143.6200 C   0  0  1  0  0  3  0  0  0  0  0  0
  192.5460  170.5540  144.2480 O   0  0  0  0  0  0  0  0  0  0  0  0
  194.7110  171.5010  143.9810 C   0  0  0  0  0  2  0  0  0  0  0  0
  195.6720  172.6300  144.3610 C   0  0  2  0  0  3  0  0  0  0  0  0
  196.0340  172.5100  145.7660 N   0  0  0  0  0  1  0  0  0  0  0  0
  195.1480  174.0530  144.0300 C   0  0  2  0  0  3  0  0  0  0  0  0
  197.3950  174.3230  143.0550 O   0  0  0  0  0  0  0  0  0  0  0  0
  196.0600  174.8100  143.0440 C   0  0  1  0  0  3  0  0  0  0  0  0
  196.7460  174.7520  140.8640 C   0  0  0  0  0  0  0  0  0  0  0  0
  196.7050  174.0100  139.5550 C   0  0  0  0  0  2  0  0  0  0  0  0
  195.4870  174.8230  141.6350 C   0  0  0  0  0  2  0  0  0  0  0  0
  197.9210  174.5110  141.7610 C   0  0  0  0  0  2  0  0  0  0  0  0
  196.9030  175.5320  139.5870 C   0  0  0  0  0  2  0  0  0  0  0  0
  193.5340  174.8250  145.8250 C   0  0  0  0  0  2  0  0  0  0  0  0
  194.9650  174.8810  145.3200 C   0  0  2  0  0  3  0  0  0  0  0  0
  193.3350  176.0860  146.6390 C   0  0  1  0  0  3  0  0  0  0  0  0
  195.2190  176.3650  145.1210 C   0  0  0  0  0  2  0  0  0  0  0  0
  194.4230  177.0580  146.2140 C   0  0  0  0  0  2  0  0  0  0  0  0
  192.0250  176.6530  146.3500 N   0  0  0  0  0  2  0  0  0  0  0  0
  191.1960  176.5240  147.5420 C   0  0  0  0  0  0  0  0  0  0  0  0
  189.7210  176.3810  147.2610 C   0  0  0  0  0  2  0  0  0  0  0  0
  190.5280  175.1950  147.7950 C   0  0  0  0  0  2  0  0  0  0  0  0
  191.4990  177.3200  148.6480 O   0  0  0  0  0  1  0  0  0  0  0  0
  191.1160  172.3970  144.2140 N   0  0  0  0  0  2  0  0  0  0  0  0
  189.3230  171.9190  142.7120 O   0  0  0  0  0  1  0  0  0  0  0  0
  191.1260  174.9650  143.1670 O   0  0  0  0  0  0  0  0  0  0  0  0
  190.2410  174.1660  142.7510 C   0  0  0  0  0  0  0  0  0  0  0  0
  190.2600  172.7910  143.1730 N   0  0  0  0  0  0  0  0  0  0  0  0
  189.1970  174.6800  141.8090 C   0  0  1  0  0  3  0  0  0  0  0  0
  188.9950  176.1850  141.9840 C   0  0  0  0  0  2  0  0  0  0  0  0
  186.2760  178.2390  143.6460 N   0  0  0  0  0  0  0  0  0  0  0  0
  186.9290  177.1670  141.1340 N   0  0  0  0  0  2  0  0  0  0  0  0
  187.5320  176.4980  142.2880 C   0  0  2  0  0  3  0  0  0  0  0  0
  185.4950  178.6030  142.4660 C   0  0  0  0  0  2  0  0  0  0  0  0
  188.2050  177.2180  144.4850 O   0  0  0  0  0  0  0  0  0  0  0  0
  187.3990  177.3510  143.5260 C   0  0  0  0  0  0  0  0  0  0  0  0
  185.5370  177.4810  141.4350 C   0  0  0  0  0  2  0  0  0  0  0  0
  186.0000  178.9230  144.9030 C   0  0  0  0  0  2  0  0  0  0  0  0
  184.6050  178.5670  145.4000 C   0  0  0  0  0  2  0  0  0  0  0  0
  184.6880  178.0010  146.7810 C   0  0  0  0  0  3  0  0  0  0  0  0
  185.4350  178.4960  147.6090 O   0  0  0  0  0  0  0  0  0  0  0  0
  189.5530  174.3750  140.4650 O   0  0  0  0  0  0  0  0  0  0  0  0
  190.5120  172.3250  139.6670 O   0  0  0  0  0  0  0  0  0  0  0  0
  189.4100  173.1060  139.9430 N   0  0  0  0  0  0  0  0  0  0  0  0
  188.2680  172.6650  139.6960 O   0  0  0  0  0  0  0  0  0  0  0  0
  1  4  1  6  0  0  0
  2 25  1  1  0  0  0
  2  3  1  0  0  0  0
  2  1  1  0  0  0  0
  3  1  1  0  0  0  0
  4  5  1  0  0  0  0
  5  6  1  1  0  0  0
  7  5  1  1  0  0  0
  9  8  1  0  0  0  0
  9  7  1  1  0  0  0
 10 12  1  0  0  0  0
 10 13  1  0  0  0  0
 11 14  1  0  0  0  0
 11 10  1  0  0  0  0
 12  9  1  0  0  0  0
 13  8  1  0  0  0  0
 14 10  1  0  0  0  0
 15 17  1  0  0  0  0
 16  7  1  6  0  0  0
 16 15  1  0  0  0  0
 17 20  1  6  0  0  0
 18 16  1  0  0  0  0
 18 19  1  0  0  0  0
 19 17  1  0  0  0  0
 20 21  1  0  0  0  0
 21 23  1  0  0  0  0
 21 24  1  0  0  0  0
 22 21  1  0  0  0  0
 22 23  1  0  0  0  0
 26 29  1  0  0  0  0
 28 27  2  0  0  0  0
 28 29  1  0  0  0  0
 29 25  1  0  0  0  0
 30 31  1  6  0  0  0
 30 28  1  0  0  0  0
 32 39  1  0  0  0  0
 33 38  1  0  0  0  0
 33 34  1  0  0  0  0
 34 31  1  6  0  0  0
 34 37  1  0  0  0  0
 35 32  1  0  0  0  0
 37 32  1  0  0  0  0
 37 36  2  0  0  0  0
 38 35  1  0  0  0  0
 39 40  1  0  0  0  0
 40 41  1  0  0  0  0
 41 42  2  0  0  0  0
 43 30  1  0  0  0  0
 44 45  2  0  0  0  0
 45 43  1  0  0  0  0
 46 45  2  0  0  0  0
M  END
>  <MODEL>
2

>  <REMARK>
 VINA RESULT:      -6.0      2.588      8.990
  Name = 
  17 active torsions:
  status: ('A' for Active; 'I' for Inactive)
    1  A    between atoms: C_1  and  C_43
    2  A    between atoms: C_4  and  C_12
    3  A    between atoms: C_4  and  C_13
    4  A    between atoms: C_4  and  C_16
    5  A    between atoms: C_5  and  N_38
    6  A    between atoms: C_6  and  C_45
    7  A    between atoms: N_7  and  O_9
    8  A    between atoms: O_9  and  C_42
    9  A    between atoms: C_13  and  C_45
   10  A    between atoms: C_14  and  C_25
   11  A    between atoms: C_14  and  C_42
   12  A    between atoms: N_15  and  C_36
   13  A    between atoms: C_17  and  N_30
   14  A    between atoms: C_20  and  N_38
   15  A    between atoms: C_27  and  C_42
   16  A    between atoms: N_30  and  N_41
   17  A    between atoms: C_36  and  C_43
                            x       y       z     vdW  Elec       q    Type
                         _______ _______ _______ _____ _____    ______ ____

>  <TORSDO>
F 17

$$$$
=
 OpenBabel11062422493D

 46 51  0  0  1  0  0  0  0  0999 V2000
  190.2310  175.0070  142.3000 C   0  0  1  0  0  3  0  0  0  0  0  0
  189.0400  175.8140  142.6410 C   0  0  1  0  0  3  0  0  0  0  0  0
  190.2980  176.4090  142.4150 O   0  0  0  0  0  0  0  0  0  0  0  0
  190.8140  174.3920  143.5630 C   0  0  0  0  0  2  0  0  0  0  0  0
  191.3750  172.9870  143.3310 C   0  0  2  0  0  3  0  0  0  0  0  0
  190.7670  172.0580  144.2730 N   0  0  0  0  0  1  0  0  0  0  0  0
  192.9250  172.9030  143.3720 C   0  0  2  0  0  3  0  0  0  0  0  0
  193.9910  174.3250  145.0800 O   0  0  0  0  0  0  0  0  0  0  0  0
  193.5850  174.2520  143.7200 C   0  0  1  0  0  3  0  0  0  0  0  0
  195.6310  175.2720  143.7300 C   0  0  0  0  0  0  0  0  0  0  0  0
  197.1120  175.1160  143.5110 C   0  0  0  0  0  2  0  0  0  0  0  0
  194.7360  174.5800  142.7800 C   0  0  0  0  0  2  0  0  0  0  0  0
  195.1230  175.1640  145.1350 C   0  0  0  0  0  2  0  0  0  0  0  0
  196.4270  176.4720  143.2930 C   0  0  0  0  0  2  0  0  0  0  0  0
  192.3870  172.2510  140.9830 C   0  0  0  0  0  2  0  0  0  0  0  0
  193.4780  172.3750  142.0320 C   0  0  2  0  0  3  0  0  0  0  0  0
  192.8690  171.1970  140.0090 C   0  0  1  0  0  3  0  0  0  0  0  0
  194.0450  170.9680  142.1300 C   0  0  0  0  0  2  0  0  0  0  0  0
  193.9440  170.3980  140.7260 C   0  0  0  0  0  2  0  0  0  0  0  0
  191.7620  170.3230  139.6470 N   0  0  0  0  0  2  0  0  0  0  0  0
  191.1460  170.8420  138.4320 C   0  0  0  0  0  0  0  0  0  0  0  0
  190.2830  169.8470  137.6980 C   0  0  0  0  0  2  0  0  0  0  0  0
  189.6490  171.0340  138.4280 C   0  0  0  0  0  2  0  0  0  0  0  0
  191.9090  171.6670  137.6030 O   0  0  0  0  0  1  0  0  0  0  0  0
  188.2120  175.9940  141.4550 N   0  0  0  0  0  2  0  0  0  0  0  0
  186.3440  175.5190  142.8660 O   0  0  0  0  0  1  0  0  0  0  0  0
  186.7550  178.1440  140.4820 O   0  0  0  0  0  0  0  0  0  0  0  0
  186.2430  177.4620  141.4140 C   0  0  0  0  0  0  0  0  0  0  0  0
  186.9010  176.2700  141.8770 N   0  0  0  0  0  0  0  0  0  0  0  0
  184.9430  177.9170  142.0030 C   0  0  1  0  0  3  0  0  0  0  0  0
  185.1770  178.8980  143.1520 C   0  0  0  0  0  2  0  0  0  0  0  0
  186.6110  178.0980  146.5690 N   0  0  0  0  0  0  0  0  0  0  0  0
  184.1720  178.8110  145.3740 N   0  0  0  0  0  2  0  0  0  0  0  0
  185.1490  178.1690  144.4930 C   0  0  2  0  0  3  0  0  0  0  0  0
  185.4580  178.4370  147.3990 C   0  0  0  0  0  2  0  0  0  0  0  0
  187.5550  178.0860  144.4300 O   0  0  0  0  0  0  0  0  0  0  0  0
  186.5140  178.1510  145.1360 C   0  0  0  0  0  0  0  0  0  0  0  0
  184.1610  178.1230  146.6600 C   0  0  0  0  0  2  0  0  0  0  0  0
  187.8960  177.8730  147.2200 C   0  0  0  0  0  2  0  0  0  0  0  0
  188.2920  176.4070  147.1090 C   0  0  0  0  0  2  0  0  0  0  0  0
  189.7020  176.2980  146.6260 C   0  0  0  0  0  3  0  0  0  0  0  0
  190.2440  177.2440  146.0770 O   0  0  0  0  0  0  0  0  0  0  0  0
  184.1270  178.5080  140.9980 O   0  0  0  0  0  0  0  0  0  0  0  0
  182.3550  177.4810  139.7480 O   0  0  0  0  0  0  0  0  0  0  0  0
  182.7950  178.1770  140.8530 N   0  0  0  0  0  0  0  0  0  0  0  0
  181.9730  178.5310  141.7230 O   0  0  0  0  0  0  0  0  0  0  0  0
  1  3  1  0  0  0  0
  1  2  1  0  0  0  0
  1  4  1  1  0  0  0
  2 25  1  6  0  0  0
  3  2  1  0  0  0  0
  5  4  1  0  0  0  0
  5  6  1  1  0  0  0
  7  5  1  6  0  0  0
  8 13  1  0  0  0  0
  9  7  1  6  0  0  0
  9  8  1  0  0  0  0
 10 13  1  0  0  0  0
 11 10  1  0  0  0  0
 12  9  1  0  0  0  0
 12 10  1  0  0  0  0
 14 11  1  0  0  0  0
 14 10  1  0  0  0  0
 15 16  1  0  0  0  0
 16 18  1  0  0  0  0
 16  7  1  1  0  0  0
 17 20  1  1  0  0  0
 17 19  1  0  0  0  0
 17 15  1  0  0  0  0
 19 18  1  0  0  0  0
 21 20  1  0  0  0  0
 22 23  1  0  0  0  0
 22 21  1  0  0  0  0
 23 21  1  0  0  0  0
 24 21  1  0  0  0  0
 25 29  1  0  0  0  0
 27 28  2  0  0  0  0
 28 29  1  0  0  0  0
 28 30  1  0  0  0  0
 29 26  1  0  0  0  0
 30 31  1  1  0  0  0
 32 39  1  0  0  0  0
 32 35  1  0  0  0  0
 33 38  1  0  0  0  0
 34 31  1  6  0  0  0
 34 37  1  0  0  0  0
 34 33  1  0  0  0  0
 36 37  2  0  0  0  0
 37 32  1  0  0  0  0
 38 35  1  0  0  0  0
 40 39  1  0  0  0  0
 41 40  1  0  0  0  0
 42 41  2  0  0  0  0
 43 30  1  0  0  0  0
 44 45  2  0  0  0  0
 45 43  1  0  0  0  0
 45 46  2  0  0  0  0
M  END
>  <MODEL>
3

>  <REMARK>
 VINA RESULT:      -6.0      3.498      9.924
  Name = 
  17 active torsions:
  status: ('A' for Active; 'I' for Inactive)
    1  A    between atoms: C_1  and  C_43
    2  A    between atoms: C_4  and  C_12
    3  A    between atoms: C_4  and  C_13
    4  A    between atoms: C_4  and  C_16
    5  A    between atoms: C_5  and  N_38
    6  A    between atoms: C_6  and  C_45
    7  A    between atoms: N_7  and  O_9
    8  A    between atoms: O_9  and  C_42
    9  A    between atoms: C_13  and  C_45
   10  A    between atoms: C_14  and  C_25
   11  A    between atoms: C_14  and  C_42
   12  A    between atoms: N_15  and  C_36
   13  A    between atoms: C_17  and  N_30
   14  A    between atoms: C_20  and  N_38
   15  A    between atoms: C_27  and  C_42
   16  A    between atoms: N_30  and  N_41
   17  A    between atoms: C_36  and  C_43
                            x       y       z     vdW  Elec       q    Type
                         _______ _______ _______ _____ _____    ______ ____

>  <TORSDO>
F 17

$$$$
=
 OpenBabel11062422493D

 46 51  0  0  1  0  0  0  0  0999 V2000
  192.2580  176.4690  146.7910 C   0  0  1  0  0  3  0  0  0  0  0  0
  190.9510  176.1150  147.3860 C   0  0  1  0  0  3  0  0  0  0  0  0
  191.9790  176.7030  148.1510 O   0  0  0  0  0  0  0  0  0  0  0  0
  193.1280  175.2260  146.6850 C   0  0  0  0  0  2  0  0  0  0  0  0
  193.9730  175.2050  145.4090 C   0  0  2  0  0  3  0  0  0  0  0  0
  193.6020  176.3270  144.5590 N   0  0  0  0  0  1  0  0  0  0  0  0
  193.9210  173.8620  144.6310 C   0  0  2  0  0  3  0  0  0  0  0  0
  196.2620  173.7770  145.3960 O   0  0  0  0  0  0  0  0  0  0  0  0
  195.2910  173.1580  144.5640 C   0  0  1  0  0  3  0  0  0  0  0  0
  196.4630  171.4670  145.5590 C   0  0  0  0  0  0  0  0  0  0  0  0
  196.4890  170.4310  146.6510 C   0  0  0  0  0  2  0  0  0  0  0  0
  195.1790  171.6690  144.8570 C   0  0  0  0  0  2  0  0  0  0  0  0
  197.1510  172.7710  145.8250 C   0  0  0  0  0  2  0  0  0  0  0  0
  197.2610  170.2090  145.3440 C   0  0  0  0  0  2  0  0  0  0  0  0
  192.3830  172.9950  142.8130 C   0  0  0  0  0  2  0  0  0  0  0  0
  193.3700  174.0790  143.2050 C   0  0  2  0  0  3  0  0  0  0  0  0
  192.4100  172.9410  141.3000 C   0  0  1  0  0  3  0  0  0  0  0  0
  194.4410  173.9990  142.1300 C   0  0  0  0  0  2  0  0  0  0  0  0
  193.7040  173.6050  140.8620 C   0  0  0  0  0  2  0  0  0  0  0  0
  192.3910  171.5530  140.8600 N   0  0  0  0  0  2  0  0  0  0  0  0
  191.2720  171.3770  139.9440 C   0  0  0  0  0  0  0  0  0  0  0  0
  191.6680  171.2660  138.4930 C   0  0  0  0  0  2  0  0  0  0  0  0
  191.1350  170.0450  139.2460 C   0  0  0  0  0  2  0  0  0  0  0  0
  190.1080  172.1140  140.1710 O   0  0  0  0  0  1  0  0  0  0  0  0
  189.9660  177.1370  147.0540 N   0  0  0  0  0  2  0  0  0  0  0  0
  187.9660  175.9360  146.5470 O   0  0  0  0  0  1  0  0  0  0  0  0
  190.2730  177.5060  144.3220 O   0  0  0  0  0  0  0  0  0  0  0  0
  189.2310  176.9130  144.7210 C   0  0  0  0  0  0  0  0  0  0  0  0
  189.0750  176.5930  146.1140 N   0  0  0  0  0  0  0  0  0  0  0  0
  188.1850  176.5470  143.7130 C   0  0  1  0  0  3  0  0  0  0  0  0
  187.2550  177.7280  143.4360 C   0  0  0  0  0  2  0  0  0  0  0  0
  183.9610  178.1980  141.6190 N   0  0  0  0  0  0  0  0  0  0  0  0
  186.7040  177.9500  141.0690 N   0  0  0  0  0  2  0  0  0  0  0  0
  186.2540  177.3750  142.3390 C   0  0  2  0  0  3  0  0  0  0  0  0
  184.4640  178.4320  140.2670 C   0  0  0  0  0  2  0  0  0  0  0  0
  184.4750  177.8900  143.8790 O   0  0  0  0  0  0  0  0  0  0  0  0
  184.8680  177.8650  142.6820 C   0  0  0  0  0  0  0  0  0  0  0  0
  185.7360  177.6260  140.0270 C   0  0  0  0  0  2  0  0  0  0  0  0
  182.5580  178.4760  141.8980 C   0  0  0  0  0  2  0  0  0  0  0  0
  181.7080  178.1770  140.6690 C   0  0  0  0  0  2  0  0  0  0  0  0
  180.3700  178.8290  140.8070 C   0  0  0  0  0  3  0  0  0  0  0  0
  180.2240  180.0080  140.5240 O   0  0  0  0  0  0  0  0  0  0  0  0
  188.7990  176.1000  142.5080 O   0  0  0  0  0  0  0  0  0  0  0  0
  188.8630  173.7200  142.8040 O   0  0  0  0  0  0  0  0  0  0  0  0
  188.6030  174.8240  142.0220 N   0  0  0  0  0  0  0  0  0  0  0  0
  188.2060  174.6640  140.8490 O   0  0  0  0  0  0  0  0  0  0  0  0
  1  4  1  1  0  0  0
  1  2  1  0  0  0  0
  1  3  1  0  0  0  0
  2 25  1  6  0  0  0
  2  3  1  0  0  0  0
  5  6  1  6  0  0  0
  5  4  1  0  0  0  0
  7  5  1  6  0  0  0
  8 13  1  0  0  0  0
  9  7  1  1  0  0  0
  9 12  1  0  0  0  0
  9  8  1  0  0  0  0
 10 13  1  0  0  0  0
 10 11  1  0  0  0  0
 12 10  1  0  0  0  0
 14 10  1  0  0  0  0
 14 11  1  0  0  0  0
 15 16  1  0  0  0  0
 16  7  1  1  0  0  0
 17 20  1  1  0  0  0
 17 15  1  0  0  0  0
 18 16  1  0  0  0  0
 19 17  1  0  0  0  0
 19 18  1  0  0  0  0
 21 24  1  0  0  0  0
 21 20  1  0  0  0  0
 22 23  1  0  0  0  0
 22 21  1  0  0  0  0
 23 21  1  0  0  0  0
 27 28  2  0  0  0  0
 28 29  1  0  0  0  0
 29 26  1  0  0  0  0
 29 25  1  0  0  0  0
 30 31  1  6  0  0  0
 30 28  1  0  0  0  0
 32 39  1  0  0  0  0
 32 37  1  0  0  0  0
 33 34  1  0  0  0  0
 34 37  1  0  0  0  0
 34 31  1  1  0  0  0
 35 32  1  0  0  0  0
 37 36  2  0  0  0  0
 38 35  1  0  0  0  0
 38 33  1  0  0  0  0
 40 41  1  0  0  0  0
 40 39  1  0  0  0  0
 42 41  2  0  0  0  0
 43 30  1  0  0  0  0
 45 43  1  0  0  0  0
 45 44  2  0  0  0  0
 46 45  2  0  0  0  0
M  END
>  <MODEL>
4

>  <REMARK>
 VINA RESULT:      -5.8      2.996     10.676
  Name = 
  17 active torsions:
  status: ('A' for Active; 'I' for Inactive)
    1  A    between atoms: C_1  and  C_43
    2  A    between atoms: C_4  and  C_12
    3  A    between atoms: C_4  and  C_13
    4  A    between atoms: C_4  and  C_16
    5  A    between atoms: C_5  and  N_38
    6  A    between atoms: C_6  and  C_45
    7  A    between atoms: N_7  and  O_9
    8  A    between atoms: O_9  and  C_42
    9  A    between atoms: C_13  and  C_45
   10  A    between atoms: C_14  and  C_25
   11  A    between atoms: C_14  and  C_42
   12  A    between atoms: N_15  and  C_36
   13  A    between atoms: C_17  and  N_30
   14  A    between atoms: C_20  and  N_38
   15  A    between atoms: C_27  and  C_42
   16  A    between atoms: N_30  and  N_41
   17  A    between atoms: C_36  and  C_43
                            x       y       z     vdW  Elec       q    Type
                         _______ _______ _______ _____ _____    ______ ____

>  <TORSDO>
F 17

$$$$
=
 OpenBabel11062422493D

 46 51  0  0  1  0  0  0  0  0999 V2000
  194.1840  169.8900  143.7020 C   0  0  1  0  0  3  0  0  0  0  0  0
  193.3900  169.7520  142.4610 C   0  0  1  0  0  3  0  0  0  0  0  0
  194.1150  168.6700  143.0030 O   0  0  0  0  0  0  0  0  0  0  0  0
  195.5180  170.5500  143.3860 C   0  0  0  0  0  2  0  0  0  0  0  0
  195.8600  171.6830  144.3580 C   0  0  2  0  0  3  0  0  0  0  0  0
  195.6740  171.2250  145.7260 N   0  0  0  0  0  1  0  0  0  0  0  0
  195.0890  173.0050  144.0930 C   0  0  2  0  0  3  0  0  0  0  0  0
  197.1780  173.5160  142.8880 O   0  0  0  0  0  0  0  0  0  0  0  0
  195.8620  173.9710  143.1710 C   0  0  1  0  0  3  0  0  0  0  0  0
  196.2280  174.3920  140.9550 C   0  0  0  0  0  0  0  0  0  0  0  0
  195.9900  173.9460  139.5370 C   0  0  0  0  0  2  0  0  0  0  0  0
  195.0930  174.2740  141.8940 C   0  0  0  0  0  2  0  0  0  0  0  0
  197.5160  173.9850  141.6020 C   0  0  0  0  0  2  0  0  0  0  0  0
  196.2110  175.4280  139.8650 C   0  0  0  0  0  2  0  0  0  0  0  0
  193.2420  173.8350  145.6160 C   0  0  0  0  0  2  0  0  0  0  0  0
  194.7420  173.7090  145.4220 C   0  0  2  0  0  3  0  0  0  0  0  0
  193.0430  175.0180  146.5400 C   0  0  1  0  0  3  0  0  0  0  0  0
  195.2360  175.1450  145.4860 C   0  0  0  0  0  2  0  0  0  0  0  0
  194.3220  175.8380  146.4820 C   0  0  0  0  0  2  0  0  0  0  0  0
  191.9200  175.8190  146.0740 N   0  0  0  0  0  2  0  0  0  0  0  0
  190.8310  175.6840  147.0330 C   0  0  0  0  0  0  0  0  0  0  0  0
  189.7560  176.7340  146.9040 C   0  0  0  0  0  2  0  0  0  0  0  0
  189.4750  175.2830  146.5070 C   0  0  0  0  0  2  0  0  0  0  0  0
  191.1460  175.3380  148.3480 O   0  0  0  0  0  1  0  0  0  0  0  0
  191.9810  169.5900  142.7950 N   0  0  0  0  0  2  0  0  0  0  0  0
  190.9160  170.0040  140.6980 O   0  0  0  0  0  1  0  0  0  0  0  0
  190.9580  172.0260  143.6400 O   0  0  0  0  0  0  0  0  0  0  0  0
  190.6430  171.6260  142.4840 C   0  0  0  0  0  0  0  0  0  0  0  0
  191.2350  170.4280  141.9510 N   0  0  0  0  0  0  0  0  0  0  0  0
  189.6590  172.4310  141.6910 C   0  0  1  0  0  3  0  0  0  0  0  0
  188.8330  173.3370  142.6040 C   0  0  0  0  0  2  0  0  0  0  0  0
  188.1490  177.0440  143.0150 N   0  0  0  0  0  0  0  0  0  0  0  0
  190.3000  175.2390  143.0350 N   0  0  0  0  0  2  0  0  0  0  0  0
  189.1130  174.8060  142.2950 C   0  0  2  0  0  3  0  0  0  0  0  0
  189.4770  177.4880  143.4300 C   0  0  0  0  0  2  0  0  0  0  0  0
  186.7530  175.2380  142.5060 O   0  0  0  0  0  0  0  0  0  0  0  0
  187.9270  175.6740  142.6390 C   0  0  0  0  0  0  0  0  0  0  0  0
  190.5540  176.6480  142.7530 C   0  0  0  0  0  2  0  0  0  0  0  0
  187.0300  177.9670  143.1540 C   0  0  0  0  0  2  0  0  0  0  0  0
  186.8180  178.3200  144.6200 C   0  0  0  0  0  2  0  0  0  0  0  0
  186.3410  177.1160  145.3670 C   0  0  0  0  0  3  0  0  0  0  0  0
  186.0000  177.2080  146.5360 O   0  0  0  0  0  0  0  0  0  0  0  0
  190.3360  173.1990  140.7020 O   0  0  0  0  0  0  0  0  0  0  0  0
  188.8600  172.4700  138.9560 O   0  0  0  0  0  0  0  0  0  0  0  0
  190.0050  173.1180  139.3650 N   0  0  0  0  0  0  0  0  0  0  0  0
  190.7640  173.6190  138.5090 O   0  0  0  0  0  0  0  0  0  0  0  0
  1  4  1  6  0  0  0
  2 25  1  1  0  0  0
  2  3  1  0  0  0  0
  2  1  1  0  0  0  0
  3  1  1  0  0  0  0
  4  5  1  0  0  0  0
  5  6  1  1  0  0  0
  7  5  1  1  0  0  0
  8  9  1  0  0  0  0
  9  7  1  6  0  0  0
 10 13  1  0  0  0  0
 10 12  1  0  0  0  0
 11 14  1  0  0  0  0
 11 10  1  0  0  0  0
 12  9  1  0  0  0  0
 13  8  1  0  0  0  0
 14 10  1  0  0  0  0
 15 17  1  0  0  0  0
 16  7  1  6  0  0  0
 16 18  1  0  0  0  0
 16 15  1  0  0  0  0
 17 20  1  6  0  0  0
 18 19  1  0  0  0  0
 19 17  1  0  0  0  0
 20 21  1  0  0  0  0
 21 24  1  0  0  0  0
 22 21  1  0  0  0  0
 23 22  1  0  0  0  0
 23 21  1  0  0  0  0
 26 29  1  0  0  0  0
 28 27  2  0  0  0  0
 29 28  1  0  0  0  0
 29 25  1  0  0  0  0
 30 28  1  0  0  0  0
 30 31  1  1  0  0  0
 32 39  1  0  0  0  0
 32 35  1  0  0  0  0
 34 31  1  1  0  0  0
 34 37  1  0  0  0  0
 34 33  1  0  0  0  0
 36 37  2  0  0  0  0
 37 32  1  0  0  0  0
 38 33  1  0  0  0  0
 38 35  1  0  0  0  0
 39 40  1  0  0  0  0
 40 41  1  0  0  0  0
 41 42  2  0  0  0  0
 43 30  1  0  0  0  0
 44 45  2  0  0  0  0
 45 43  1  0  0  0  0
 46 45  2  0  0  0  0
M  END
>  <MODEL>
5

>  <REMARK>
 VINA RESULT:      -5.8      2.408      8.313
  Name = 
  17 active torsions:
  status: ('A' for Active; 'I' for Inactive)
    1  A    between atoms: C_1  and  C_43
    2  A    between atoms: C_4  and  C_12
    3  A    between atoms: C_4  and  C_13
    4  A    between atoms: C_4  and  C_16
    5  A    between atoms: C_5  and  N_38
    6  A    between atoms: C_6  and  C_45
    7  A    between atoms: N_7  and  O_9
    8  A    between atoms: O_9  and  C_42
    9  A    between atoms: C_13  and  C_45
   10  A    between atoms: C_14  and  C_25
   11  A    between atoms: C_14  and  C_42
   12  A    between atoms: N_15  and  C_36
   13  A    between atoms: C_17  and  N_30
   14  A    between atoms: C_20  and  N_38
   15  A    between atoms: C_27  and  C_42
   16  A    between atoms: N_30  and  N_41
   17  A    between atoms: C_36  and  C_43
                            x       y       z     vdW  Elec       q    Type
                         _______ _______ _______ _____ _____    ______ ____

>  <TORSDO>
F 17

$$$$
=
 OpenBabel11062422493D

 46 51  0  0  1  0  0  0  0  0999 V2000
  192.4970  176.5070  146.6670 C   0  0  1  0  0  3  0  0  0  0  0  0
  191.3130  176.0640  147.4340 C   0  0  1  0  0  3  0  0  0  0  0  0
  192.3670  176.7760  148.0430 O   0  0  0  0  0  0  0  0  0  0  0  0
  193.4610  175.3430  146.4940 C   0  0  0  0  0  2  0  0  0  0  0  0
  194.6590  175.6960  145.6080 C   0  0  2  0  0  3  0  0  0  0  0  0
  194.6120  177.1100  145.2660 N   0  0  0  0  0  1  0  0  0  0  0  0
  194.7990  174.8100  144.3410 C   0  0  2  0  0  3  0  0  0  0  0  0
  196.5140  173.7480  145.7570 O   0  0  0  0  0  0  0  0  0  0  0  0
  195.8040  173.6560  144.5290 C   0  0  1  0  0  3  0  0  0  0  0  0
  195.9270  171.5320  145.3660 C   0  0  0  0  0  0  0  0  0  0  0  0
  195.2110  170.4290  146.1000 C   0  0  0  0  0  2  0  0  0  0  0  0
  195.1430  172.2950  144.3720 C   0  0  0  0  0  2  0  0  0  0  0  0
  196.8170  172.4330  146.1660 C   0  0  0  0  0  2  0  0  0  0  0  0
  196.3240  170.1070  145.0930 C   0  0  0  0  0  2  0  0  0  0  0  0
  194.7970  175.0040  141.8140 C   0  0  0  0  0  2  0  0  0  0  0  0
  195.2000  175.6650  143.1200 C   0  0  2  0  0  3  0  0  0  0  0  0
  195.7390  175.5540  140.7650 C   0  0  1  0  0  3  0  0  0  0  0  0
  196.7030  175.8460  142.9830 C   0  0  0  0  0  2  0  0  0  0  0  0
  196.9400  176.1170  141.5070 C   0  0  0  0  0  2  0  0  0  0  0  0
  196.1650  174.4800  139.8790 N   0  0  0  0  0  2  0  0  0  0  0  0
  195.6030  174.7260  138.5560 C   0  0  0  0  0  0  0  0  0  0  0  0
  196.5810  175.2990  137.5620 C   0  0  0  0  0  2  0  0  0  0  0  0
  196.0800  173.8610  137.4160 C   0  0  0  0  0  2  0  0  0  0  0  0
  194.3150  175.2590  138.4730 O   0  0  0  0  0  1  0  0  0  0  0  0
  190.2020  176.9770  147.1950 N   0  0  0  0  0  2  0  0  0  0  0  0
  188.5600  175.3800  146.5220 O   0  0  0  0  0  1  0  0  0  0  0  0
  190.0490  178.0120  144.6270 O   0  0  0  0  0  0  0  0  0  0  0  0
  189.2680  177.0660  144.9250 C   0  0  0  0  0  0  0  0  0  0  0  0
  189.3830  176.4150  146.2030 N   0  0  0  0  0  0  0  0  0  0  0  0
  188.2440  176.6380  143.9190 C   0  0  1  0  0  3  0  0  0  0  0  0
  187.2550  177.7670  143.6320 C   0  0  0  0  0  2  0  0  0  0  0  0
  184.0530  178.1640  141.6410 N   0  0  0  0  0  0  0  0  0  0  0  0
  186.8200  177.9140  141.2350 N   0  0  0  0  0  2  0  0  0  0  0  0
  186.3110  177.3760  142.4980 C   0  0  2  0  0  3  0  0  0  0  0  0
  184.6210  178.3600  140.3090 C   0  0  0  0  0  2  0  0  0  0  0  0
  184.4560  177.9270  143.9320 O   0  0  0  0  0  0  0  0  0  0  0  0
  184.9080  177.8680  142.7570 C   0  0  0  0  0  0  0  0  0  0  0  0
  185.9060  177.5540  140.1570 C   0  0  0  0  0  2  0  0  0  0  0  0
  182.6360  178.4420  141.8420 C   0  0  0  0  0  2  0  0  0  0  0  0
  181.8250  177.9180  140.6650 C   0  0  0  0  0  2  0  0  0  0  0  0
  180.4060  178.3730  140.7830 C   0  0  0  0  0  3  0  0  0  0  0  0
  180.0400  179.4050  140.2450 O   0  0  0  0  0  0  0  0  0  0  0  0
  188.8810  176.2130  142.7190 O   0  0  0  0  0  0  0  0  0  0  0  0
  189.6780  174.4780  141.2650 O   0  0  0  0  0  0  0  0  0  0  0  0
  189.1810  174.8860  142.4840 N   0  0  0  0  0  0  0  0  0  0  0  0
  188.9780  174.0400  143.3790 O   0  0  0  0  0  0  0  0  0  0  0  0
  1  4  1  1  0  0  0
  1  2  1  0  0  0  0
  1  3  1  0  0  0  0
  2 25  1  6  0  0  0
  2  3  1  0  0  0  0
  5  6  1  6  0  0  0
  5  4  1  0  0  0  0
  7  5  1  1  0  0  0
  8 13  1  0  0  0  0
  9  7  1  1  0  0  0
  9  8  1  0  0  0  0
 10 11  1  0  0  0  0
 10 13  1  0  0  0  0
 12  9  1  0  0  0  0
 12 10  1  0  0  0  0
 14 10  1  0  0  0  0
 14 11  1  0  0  0  0
 15 16  1  0  0  0  0
 16  7  1  1  0  0  0
 17 20  1  6  0  0  0
 17 19  1  0  0  0  0
 17 15  1  0  0  0  0
 18 16  1  0  0  0  0
 19 18  1  0  0  0  0
 21 20  1  0  0  0  0
 22 21  1  0  0  0  0
 23 22  1  0  0  0  0
 23 21  1  0  0  0  0
 24 21  1  0  0  0  0
 27 28  2  0  0  0  0
 28 29  1  0  0  0  0
 29 26  1  0  0  0  0
 29 25  1  0  0  0  0
 30 31  1  6  0  0  0
 30 28  1  0  0  0  0
 32 39  1  0  0  0  0
 32 37  1  0  0  0  0
 33 34  1  0  0  0  0
 34 37  1  0  0  0  0
 34 31  1  1  0  0  0
 35 32  1  0  0  0  0
 37 36  2  0  0  0  0
 38 35  1  0  0  0  0
 38 33  1  0  0  0  0
 40 41  1  0  0  0  0
 40 39  1  0  0  0  0
 42 41  2  0  0  0  0
 43 30  1  0  0  0  0
 44 45  2  0  0  0  0
 45 43  1  0  0  0  0
 45 46  2  0  0  0  0
M  END
>  <MODEL>
6

>  <REMARK>
 VINA RESULT:      -5.8      2.901     10.652
  Name = 
  17 active torsions:
  status: ('A' for Active; 'I' for Inactive)
    1  A    between atoms: C_1  and  C_43
    2  A    between atoms: C_4  and  C_12
    3  A    between atoms: C_4  and  C_13
    4  A    between atoms: C_4  and  C_16
    5  A    between atoms: C_5  and  N_38
    6  A    between atoms: C_6  and  C_45
    7  A    between atoms: N_7  and  O_9
    8  A    between atoms: O_9  and  C_42
    9  A    between atoms: C_13  and  C_45
   10  A    between atoms: C_14  and  C_25
   11  A    between atoms: C_14  and  C_42
   12  A    between atoms: N_15  and  C_36
   13  A    between atoms: C_17  and  N_30
   14  A    between atoms: C_20  and  N_38
   15  A    between atoms: C_27  and  C_42
   16  A    between atoms: N_30  and  N_41
   17  A    between atoms: C_36  and  C_43
                            x       y       z     vdW  Elec       q    Type
                         _______ _______ _______ _____ _____    ______ ____

>  <TORSDO>
F 17

$$$$
=
 OpenBabel11062422493D

 46 51  0  0  1  0  0  0  0  0999 V2000
  188.3720  173.6210  140.8560 C   0  0  1  0  0  3  0  0  0  0  0  0
  189.5470  173.0880  141.5790 C   0  0  1  0  0  3  0  0  0  0  0  0
  188.3260  173.3430  142.2360 O   0  0  0  0  0  0  0  0  0  0  0  0
  188.5210  175.1240  140.6730 C   0  0  0  0  0  2  0  0  0  0  0  0
  187.3190  175.9050  141.2100 C   0  0  2  0  0  3  0  0  0  0  0  0
  187.0980  177.0860  140.3880 N   0  0  0  0  0  1  0  0  0  0  0  0
  187.4180  176.2730  142.7150 C   0  0  2  0  0  3  0  0  0  0  0  0
  185.2740  177.4760  142.5350 O   0  0  0  0  0  0  0  0  0  0  0  0
  186.5860  177.5190  143.0810 C   0  0  1  0  0  3  0  0  0  0  0  0
  185.1820  178.2970  144.7080 C   0  0  0  0  0  0  0  0  0  0  0  0
  184.4410  177.9840  145.9800 C   0  0  0  0  0  2  0  0  0  0  0  0
  186.5530  177.7600  144.5820 C   0  0  0  0  0  2  0  0  0  0  0  0
  184.4290  178.1760  143.4190 C   0  0  0  0  0  2  0  0  0  0  0  0
  184.8870  179.4180  145.6670 C   0  0  0  0  0  2  0  0  0  0  0  0
  189.1650  175.9420  144.5220 C   0  0  0  0  0  2  0  0  0  0  0  0
  188.8900  176.4820  143.1300 C   0  0  2  0  0  3  0  0  0  0  0  0
  190.3550  176.7220  145.0390 C   0  0  1  0  0  3  0  0  0  0  0  0
  189.2830  177.9470  143.2270 C   0  0  0  0  0  2  0  0  0  0  0  0
  190.4500  177.9840  144.1980 C   0  0  0  0  0  2  0  0  0  0  0  0
  190.1400  177.0730  146.4360 N   0  0  0  0  0  2  0  0  0  0  0  0
  190.7270  176.0290  147.2670 C   0  0  0  0  0  0  0  0  0  0  0  0
  192.1440  175.6670  146.9010 C   0  0  0  0  0  2  0  0  0  0  0  0
  191.8470  176.4180  148.2000 C   0  0  0  0  0  2  0  0  0  0  0  0
  189.9270  174.9430  147.6280 O   0  0  0  0  0  1  0  0  0  0  0  0
  189.6640  171.6550  141.3390 N   0  0  0  0  0  2  0  0  0  0  0  0
  191.8950  170.9970  140.8020 O   0  0  0  0  0  1  0  0  0  0  0  0
  190.4130  171.5210  144.0060 O   0  0  0  0  0  0  0  0  0  0  0  0
  191.3030  171.3070  143.1350 C   0  0  0  0  0  0  0  0  0  0  0  0
  190.9460  171.2490  141.7430 N   0  0  0  0  0  0  0  0  0  0  0  0
  192.7150  171.1020  143.5900 C   0  0  1  0  0  3  0  0  0  0  0  0
  193.1010  172.1270  144.6560 C   0  0  0  0  0  2  0  0  0  0  0  0
  195.5280  175.0290  144.4110 N   0  0  0  0  0  0  0  0  0  0  0  0
  195.3770  172.4370  145.4810 N   0  0  0  0  0  2  0  0  0  0  0  0
  194.4780  172.7160  144.3600 C   0  0  2  0  0  3  0  0  0  0  0  0
  196.5820  174.5360  145.2950 C   0  0  0  0  0  2  0  0  0  0  0  0
  193.3850  174.6990  143.5370 O   0  0  0  0  0  0  0  0  0  0  0  0
  194.3940  174.2010  144.1030 C   0  0  0  0  0  0  0  0  0  0  0  0
  196.6850  173.0180  145.2020 C   0  0  0  0  0  2  0  0  0  0  0  0
  195.5670  176.4240  143.9910 C   0  0  0  0  0  2  0  0  0  0  0  0
  196.7800  176.6730  143.1050 C   0  0  0  0  0  2  0  0  0  0  0  0
  196.4040  176.4950  141.6690 C   0  0  0  0  0  3  0  0  0  0  0  0
  195.2660  176.7260  141.2930 O   0  0  0  0  0  0  0  0  0  0  0  0
  192.8870  169.7780  144.0820 O   0  0  0  0  0  0  0  0  0  0  0  0
  195.2150  169.2640  143.8050 O   0  0  0  0  0  0  0  0  0  0  0  0
  194.0910  169.3430  144.5990 N   0  0  0  0  0  0  0  0  0  0  0  0
  194.1590  168.9950  145.7960 O   0  0  0  0  0  0  0  0  0  0  0  0
  1  4  1  1  0  0  0
  1  2  1  0  0  0  0
  1  3  1  0  0  0  0
  2 25  1  6  0  0  0
  2  3  1  0  0  0  0
  4  5  1  0  0  0  0
  5  6  1  6  0  0  0
  7  5  1  6  0  0  0
  8  9  1  0  0  0  0
  8 13  1  0  0  0  0
  9  7  1  1  0  0  0
  9 12  1  0  0  0  0
 10 14  1  0  0  0  0
 10 11  1  0  0  0  0
 12 10  1  0  0  0  0
 13 10  1  0  0  0  0
 14 11  1  0  0  0  0
 15 17  1  0  0  0  0
 16  7  1  1  0  0  0
 16 18  1  0  0  0  0
 16 15  1  0  0  0  0
 17 20  1  1  0  0  0
 18 19  1  0  0  0  0
 19 17  1  0  0  0  0
 20 21  1  0  0  0  0
 21 24  1  0  0  0  0
 21 23  1  0  0  0  0
 22 21  1  0  0  0  0
 22 23  1  0  0  0  0
 25 29  1  0  0  0  0
 26 29  1  0  0  0  0
 28 30  1  0  0  0  0
 28 27  2  0  0  0  0
 29 28  1  0  0  0  0
 30 43  1  0  0  0  0
 30 31  1  1  0  0  0
 32 35  1  0  0  0  0
 34 31  1  1  0  0  0
 34 33  1  0  0  0  0
 36 37  2  0  0  0  0
 37 34  1  0  0  0  0
 37 32  1  0  0  0  0
 38 35  1  0  0  0  0
 38 33  1  0  0  0  0
 39 32  1  0  0  0  0
 40 39  1  0  0  0  0
 41 40  1  0  0  0  0
 42 41  2  0  0  0  0
 43 45  1  0  0  0  0
 44 45  2  0  0  0  0
 45 46  2  0  0  0  0
M  END
>  <MODEL>
7

>  <REMARK>
 VINA RESULT:      -5.8      2.219      4.260
  Name = 
  17 active torsions:
  status: ('A' for Active; 'I' for Inactive)
    1  A    between atoms: C_1  and  C_43
    2  A    between atoms: C_4  and  C_12
    3  A    between atoms: C_4  and  C_13
    4  A    between atoms: C_4  and  C_16
    5  A    between atoms: C_5  and  N_38
    6  A    between atoms: C_6  and  C_45
    7  A    between atoms: N_7  and  O_9
    8  A    between atoms: O_9  and  C_42
    9  A    between atoms: C_13  and  C_45
   10  A    between atoms: C_14  and  C_25
   11  A    between atoms: C_14  and  C_42
   12  A    between atoms: N_15  and  C_36
   13  A    between atoms: C_17  and  N_30
   14  A    between atoms: C_20  and  N_38
   15  A    between atoms: C_27  and  C_42
   16  A    between atoms: N_30  and  N_41
   17  A    between atoms: C_36  and  C_43
                            x       y       z     vdW  Elec       q    Type
                         _______ _______ _______ _____ _____    ______ ____

>  <TORSDO>
F 17

$$$$
=
 OpenBabel11062422493D

 46 51  0  0  1  0  0  0  0  0999 V2000
  192.4230  176.6020  144.7330 C   0  0  1  0  0  3  0  0  0  0  0  0
  191.5960  177.1360  143.6290 C   0  0  1  0  0  3  0  0  0  0  0  0
  191.6180  175.7600  143.9400 O   0  0  0  0  0  0  0  0  0  0  0  0
  193.8650  176.4610  144.2720 C   0  0  0  0  0  2  0  0  0  0  0  0
  194.6070  175.3310  144.9910 C   0  0  2  0  0  3  0  0  0  0  0  0
  194.5110  175.5230  146.4300 N   0  0  0  0  0  1  0  0  0  0  0  0
  196.0810  175.1480  144.5400 C   0  0  2  0  0  3  0  0  0  0  0  0
  197.7350  175.9160  142.8820 O   0  0  0  0  0  0  0  0  0  0  0  0
  196.3500  175.7190  143.1330 C   0  0  1  0  0  3  0  0  0  0  0  0
  196.7200  175.0340  140.9840 C   0  0  0  0  0  0  0  0  0  0  0  0
  196.9290  173.8660  140.0580 C   0  0  0  0  0  2  0  0  0  0  0  0
  195.7030  174.8760  142.0450 C   0  0  0  0  0  2  0  0  0  0  0  0
  197.9400  175.7360  141.4990 C   0  0  0  0  0  2  0  0  0  0  0  0
  196.3060  175.1710  139.5450 C   0  0  0  0  0  2  0  0  0  0  0  0
  195.2860  172.7440  144.4210 C   0  0  0  0  0  2  0  0  0  0  0  0
  196.4850  173.6590  144.5910 C   0  0  2  0  0  3  0  0  0  0  0  0
  195.6630  171.4400  145.0880 C   0  0  1  0  0  3  0  0  0  0  0  0
  197.0690  173.2420  145.9300 C   0  0  0  0  0  2  0  0  0  0  0  0
  196.8170  171.7470  146.0280 C   0  0  0  0  0  2  0  0  0  0  0  0
  194.5290  170.9320  145.8470 N   0  0  0  0  0  2  0  0  0  0  0  0
  193.9750  169.7870  145.1350 C   0  0  0  0  0  0  0  0  0  0  0  0
  195.0050  168.9170  144.4590 C   0  0  0  0  0  2  0  0  0  0  0  0
  194.2500  168.4110  145.6900 C   0  0  0  0  0  2  0  0  0  0  0  0
  192.8010  169.9690  144.4010 O   0  0  0  0  0  1  0  0  0  0  0  0
  190.3750  177.7220  144.1680 N   0  0  0  0  0  2  0  0  0  0  0  0
  189.3400  178.1320  142.0560 O   0  0  0  0  0  1  0  0  0  0  0  0
  188.3950  175.8320  144.6170 O   0  0  0  0  0  0  0  0  0  0  0  0
  188.4060  176.4160  143.4970 C   0  0  0  0  0  0  0  0  0  0  0  0
  189.3370  177.4850  143.2520 N   0  0  0  0  0  0  0  0  0  0  0  0
  187.4260  175.9790  142.4520 C   0  0  1  0  0  3  0  0  0  0  0  0
  187.5820  174.4900  142.1440 C   0  0  0  0  0  2  0  0  0  0  0  0
  190.4760  172.3660  140.9230 N   0  0  0  0  0  0  0  0  0  0  0  0
  188.3720  173.9230  139.9050 N   0  0  0  0  0  2  0  0  0  0  0  0
  188.8070  174.2510  141.2640 C   0  0  2  0  0  3  0  0  0  0  0  0
  190.1800  172.3560  139.4920 C   0  0  0  0  0  2  0  0  0  0  0  0
  189.7810  172.9860  143.0680 O   0  0  0  0  0  0  0  0  0  0  0  0
  189.6780  173.1520  141.8230 C   0  0  0  0  0  0  0  0  0  0  0  0
  189.5440  173.6770  139.0720 C   0  0  0  0  0  2  0  0  0  0  0  0
  191.4790  171.4400  141.4330 C   0  0  0  0  0  2  0  0  0  0  0  0
  190.9190  170.0240  141.4640 C   0  0  0  0  0  2  0  0  0  0  0  0
  191.8270  169.1030  140.7150 C   0  0  0  0  0  3  0  0  0  0  0  0
  192.3630  169.4670  139.6810 O   0  0  0  0  0  0  0  0  0  0  0  0
  186.0970  176.2670  142.8720 O   0  0  0  0  0  0  0  0  0  0  0  0
  184.5100  177.9580  143.4920 O   0  0  0  0  0  0  0  0  0  0  0  0
  185.5210  177.5050  142.6720 N   0  0  0  0  0  0  0  0  0  0  0  0
  185.9040  178.2170  141.7210 O   0  0  0  0  0  0  0  0  0  0  0  0
  1  4  1  6  0  0  0
  2  3  1  0  0  0  0
  2 25  1  1  0  0  0
  2  1  1  0  0  0  0
  3  1  1  0  0  0  0
  4  5  1  0  0  0  0
  5  6  1  1  0  0  0
  7  5  1  6  0  0  0
  8  9  1  0  0  0  0
  9  7  1  1  0  0  0
 10 13  1  0  0  0  0
 10 12  1  0  0  0  0
 11 10  1  0  0  0  0
 12  9  1  0  0  0  0
 13  8  1  0  0  0  0
 14 11  1  0  0  0  0
 14 10  1  0  0  0  0
 15 16  1  0  0  0  0
 15 17  1  0  0  0  0
 16  7  1  1  0  0  0
 16 18  1  0  0  0  0
 17 20  1  1  0  0  0
 17 19  1  0  0  0  0
 18 19  1  0  0  0  0
 21 23  1  0  0  0  0
 21 20  1  0  0  0  0
 22 21  1  0  0  0  0
 22 23  1  0  0  0  0
 24 21  1  0  0  0  0
 26 29  1  0  0  0  0
 28 27  2  0  0  0  0
 29 28  1  0  0  0  0
 29 25  1  0  0  0  0
 30 31  1  1  0  0  0
 30 43  1  0  0  0  0
 30 28  1  0  0  0  0
 32 39  1  0  0  0  0
 32 37  1  0  0  0  0
 33 34  1  0  0  0  0
 34 37  1  0  0  0  0
 34 31  1  1  0  0  0
 35 32  1  0  0  0  0
 37 36  2  0  0  0  0
 38 35  1  0  0  0  0
 38 33  1  0  0  0  0
 39 40  1  0  0  0  0
 41 40  1  0  0  0  0
 42 41  2  0  0  0  0
 45 43  1  0  0  0  0
 45 44  2  0  0  0  0
 46 45  2  0  0  0  0
M  END
>  <MODEL>
8

>  <REMARK>
 VINA RESULT:      -5.8      2.653      8.681
  Name = 
  17 active torsions:
  status: ('A' for Active; 'I' for Inactive)
    1  A    between atoms: C_1  and  C_43
    2  A    between atoms: C_4  and  C_12
    3  A    between atoms: C_4  and  C_13
    4  A    between atoms: C_4  and  C_16
    5  A    between atoms: C_5  and  N_38
    6  A    between atoms: C_6  and  C_45
    7  A    between atoms: N_7  and  O_9
    8  A    between atoms: O_9  and  C_42
    9  A    between atoms: C_13  and  C_45
   10  A    between atoms: C_14  and  C_25
   11  A    between atoms: C_14  and  C_42
   12  A    between atoms: N_15  and  C_36
   13  A    between atoms: C_17  and  N_30
   14  A    between atoms: C_20  and  N_38
   15  A    between atoms: C_27  and  C_42
   16  A    between atoms: N_30  and  N_41
   17  A    between atoms: C_36  and  C_43
                            x       y       z     vdW  Elec       q    Type
                         _______ _______ _______ _____ _____    ______ ____

>  <TORSDO>
F 17

$$$$
=
 OpenBabel11062422493D

 46 51  0  0  1  0  0  0  0  0999 V2000
  188.6850  175.3470  142.9750 C   0  0  1  0  0  3  0  0  0  0  0  0
  188.8310  174.7800  141.6170 C   0  0  1  0  0  3  0  0  0  0  0  0
  189.9130  174.8290  142.5190 O   0  0  0  0  0  0  0  0  0  0  0  0
  188.7490  176.8650  142.9070 C   0  0  0  0  0  2  0  0  0  0  0  0
  188.8630  177.5130  144.2900 C   0  0  2  0  0  3  0  0  0  0  0  0
  190.0890  178.2950  144.3610 N   0  0  0  0  0  1  0  0  0  0  0  0
  188.7580  176.5140  145.4740 C   0  0  2  0  0  3  0  0  0  0  0  0
  187.6730  177.7460  147.3120 O   0  0  0  0  0  0  0  0  0  0  0  0
  187.4940  176.7360  146.3290 C   0  0  1  0  0  3  0  0  0  0  0  0
  185.5650  177.9610  146.3550 C   0  0  0  0  0  0  0  0  0  0  0  0
  184.7550  179.0410  145.6890 C   0  0  0  0  0  2  0  0  0  0  0  0
  186.2680  177.0080  145.4710 C   0  0  0  0  0  2  0  0  0  0  0  0
  186.4190  178.3550  147.5210 C   0  0  0  0  0  2  0  0  0  0  0  0
  184.0660  177.9220  146.4810 C   0  0  0  0  0  2  0  0  0  0  0  0
  191.2910  176.5010  145.5430 C   0  0  0  0  0  2  0  0  0  0  0  0
  190.0170  176.5880  146.3630 C   0  0  2  0  0  3  0  0  0  0  0  0
  192.3500  175.9650  146.4820 C   0  0  1  0  0  3  0  0  0  0  0  0
  190.1330  175.4260  147.3350 C   0  0  0  0  0  2  0  0  0  0  0  0
  191.6160  175.3050  147.6380 C   0  0  0  0  0  2  0  0  0  0  0  0
  193.1660  174.9780  145.7870 N   0  0  0  0  0  2  0  0  0  0  0  0
  194.5430  175.4550  145.7670 C   0  0  0  0  0  0  0  0  0  0  0  0
  194.8500  176.4210  144.6500 C   0  0  0  0  0  2  0  0  0  0  0  0
  194.7920  176.9050  146.1010 C   0  0  0  0  0  2  0  0  0  0  0  0
  195.5640  174.5410  146.0370 O   0  0  0  0  0  1  0  0  0  0  0  0
  188.2990  173.4240  141.5910 N   0  0  0  0  0  2  0  0  0  0  0  0
  189.6290  172.7430  139.7280 O   0  0  0  0  0  1  0  0  0  0  0  0
  189.6920  171.5530  143.0920 O   0  0  0  0  0  0  0  0  0  0  0  0
  190.0370  171.7130  141.8870 C   0  0  0  0  0  0  0  0  0  0  0  0
  189.2760  172.5840  141.0320 N   0  0  0  0  0  0  0  0  0  0  0  0
  191.2340  170.9690  141.3810 C   0  0  1  0  0  3  0  0  0  0  0  0
  192.2800  170.8010  142.4820 C   0  0  0  0  0  2  0  0  0  0  0  0
  195.6650  172.5090  142.4820 N   0  0  0  0  0  0  0  0  0  0  0  0
  194.5580  169.9310  142.3670 N   0  0  0  0  0  2  0  0  0  0  0  0
  193.6840  171.0190  141.9230 C   0  0  2  0  0  3  0  0  0  0  0  0
  196.5270  171.3340  142.5820 C   0  0  0  0  0  2  0  0  0  0  0  0
  193.4830  173.3500  142.4940 O   0  0  0  0  0  0  0  0  0  0  0  0
  194.2420  172.3550  142.3500 C   0  0  0  0  0  0  0  0  0  0  0  0
  195.9020  170.1530  141.8480 C   0  0  0  0  0  2  0  0  0  0  0  0
  196.2550  173.8250  142.6890 C   0  0  0  0  0  2  0  0  0  0  0  0
  196.6630  174.4340  141.3540 C   0  0  0  0  0  2  0  0  0  0  0  0
  195.9060  175.7010  141.1210 C   0  0  0  0  0  3  0  0  0  0  0  0
  196.4440  176.7840  141.2870 O   0  0  0  0  0  0  0  0  0  0  0  0
  190.8430  169.7010  140.8640 O   0  0  0  0  0  0  0  0  0  0  0  0
  190.3050  168.2870  139.0010 O   0  0  0  0  0  0  0  0  0  0  0  0
  190.9140  169.4110  139.5160 N   0  0  0  0  0  0  0  0  0  0  0  0
  191.5580  170.1630  138.7560 O   0  0  0  0  0  0  0  0  0  0  0  0
  1  4  1  6  0  0  0
  2 25  1  1  0  0  0
  2  3  1  0  0  0  0
  2  1  1  0  0  0  0
  3  1  1  0  0  0  0
  4  5  1  0  0  0  0
  5  6  1  6  0  0  0
  7  5  1  6  0  0  0
  8 13  1  0  0  0  0
  9  7  1  6  0  0  0
  9  8  1  0  0  0  0
 10 14  1  0  0  0  0
 10 13  1  0  0  0  0
 11 10  1  0  0  0  0
 11 14  1  0  0  0  0
 12  9  1  0  0  0  0
 12 10  1  0  0  0  0
 15 16  1  0  0  0  0
 15 17  1  0  0  0  0
 16  7  1  6  0  0  0
 16 18  1  0  0  0  0
 17 20  1  6  0  0  0
 17 19  1  0  0  0  0
 18 19  1  0  0  0  0
 21 20  1  0  0  0  0
 21 24  1  0  0  0  0
 21 23  1  0  0  0  0
 22 21  1  0  0  0  0
 22 23  1  0  0  0  0
 26 29  1  0  0  0  0
 28 27  2  0  0  0  0
 29 25  1  0  0  0  0
 29 28  1  0  0  0  0
 30 28  1  0  0  0  0
 30 31  1  1  0  0  0
 32 35  1  0  0  0  0
 32 39  1  0  0  0  0
 34 37  1  0  0  0  0
 34 33  1  0  0  0  0
 34 31  1  1  0  0  0
 37 32  1  0  0  0  0
 37 36  2  0  0  0  0
 38 33  1  0  0  0  0
 38 35  1  0  0  0  0
 40 39  1  0  0  0  0
 41 42  2  0  0  0  0
 41 40  1  0  0  0  0
 43 30  1  0  0  0  0
 44 45  2  0  0  0  0
 45 43  1  0  0  0  0
 46 45  2  0  0  0  0
M  END
>  <MODEL>
9

>  <REMARK>
 VINA RESULT:      -5.6      2.613      4.607
  Name = 
  17 active torsions:
  status: ('A' for Active; 'I' for Inactive)
    1  A    between atoms: C_1  and  C_43
    2  A    between atoms: C_4  and  C_12
    3  A    between atoms: C_4  and  C_13
    4  A    between atoms: C_4  and  C_16
    5  A    between atoms: C_5  and  N_38
    6  A    between atoms: C_6  and  C_45
    7  A    between atoms: N_7  and  O_9
    8  A    between atoms: O_9  and  C_42
    9  A    between atoms: C_13  and  C_45
   10  A    between atoms: C_14  and  C_25
   11  A    between atoms: C_14  and  C_42
   12  A    between atoms: N_15  and  C_36
   13  A    between atoms: C_17  and  N_30
   14  A    between atoms: C_20  and  N_38
   15  A    between atoms: C_27  and  C_42
   16  A    between atoms: N_30  and  N_41
   17  A    between atoms: C_36  and  C_43
                            x       y       z     vdW  Elec       q    Type
                         _______ _______ _______ _____ _____    ______ ____

>  <TORSDO>
F 17

$$$$
