=
 OpenBabel11062422463D

 29 34  0  0  1  0  0  0  0  0999 V2000
  185.0080  178.0160  143.8980 C   0  0  0  0  0  0  0  0  0  0  0  0
  187.4000  177.4820  145.2890 C   0  0  0  0  0  0  0  0  0  0  0  0
  183.7780  178.1630  140.5490 C   0  0  0  0  0  3  0  0  0  0  0  0
  187.3430  177.3460  143.8730 C   0  0  0  0  0  3  0  0  0  0  0  0
  182.6390  178.6860  142.9680 C   0  0  0  0  0  3  0  0  0  0  0  0
  185.9900  178.0160  147.2580 C   0  0  0  0  0  3  0  0  0  0  0  0
  184.6020  177.9530  141.7520 C   0  0  0  0  0  0  0  0  0  0  0  0
  184.5510  178.4300  147.4110 C   0  0  0  0  0  2  0  0  0  0  0  0
  186.1400  177.6250  143.2090 C   0  0  0  0  0  0  0  0  0  0  0  0
  186.2020  177.8660  145.9600 C   0  0  0  0  0  0  0  0  0  0  0  0
  185.0360  178.1340  145.2790 C   0  0  0  0  0  0  0  0  0  0  0  0
  184.0340  178.2180  142.9500 C   0  0  0  0  0  0  0  0  0  0  0  0
  185.8960  177.5810  141.8780 N   0  0  0  0  0  0  0  0  0  0  0  0
  184.0510  178.4640  146.0390 N   0  0  0  0  0  0  0  0  0  0  0  0
  182.1410  178.7220  141.1920 S   0  0  0  0  0  0  0  0  0  0  0  0
  190.5280  175.9890  144.5550 C   0  0  0  0  0  2  0  0  0  0  0  0
  191.6030  176.2270  146.9330 C   0  0  2  0  0  3  0  0  0  0  0  0
  190.7850  175.0360  147.3390 C   0  0  0  0  0  2  0  0  0  0  0  0
  191.3530  176.8440  145.5170 C   0  0  2  0  0  3  0  0  0  0  0  0
  188.4650  175.7510  146.6420 C   0  0  0  0  0  2  0  0  0  0  0  0
  188.6720  177.1250  146.0430 C   0  0  1  0  0  0  0  0  0  0  0  0
  189.5320  175.2180  147.1240 C   0  0  0  0  0  2  0  0  0  0  0  0
  189.9250  177.2860  145.0910 C   0  0  2  0  0  3  0  0  0  0  0  0
  193.0750  175.9130  147.1010 C   0  0  0  0  0  1  0  0  0  0  0  0
  188.8480  178.0390  147.0890 O   0  0  0  0  0  1  0  0  0  0  0  0
  187.0160  177.2060  140.6100 S   0  0  0  0  0  0  0  0  0  0  0  0
  186.3180  177.2730  139.2810 O   0  0  0  0  0  0  0  0  0  0  0  0
  188.1430  178.2000  140.6150 O   0  0  0  0  0  0  0  0  0  0  0  0
  187.6500  175.6170  140.8510 N   0  0  0  0  0  1  0  0  0  0  0  0
  1 11  1  0  0  0  0
  2 10  1  0  0  0  0
  2 21  1  0  0  0  0
  3 15  1  0  0  0  0
  3  7  2  0  0  0  0
  4  2  2  0  0  0  0
  6  8  1  0  0  0  0
  7 13  1  0  0  0  0
  7 12  1  0  0  0  0
  9  4  1  0  0  0  0
  9  1  2  0  0  0  0
 10  6  2  0  0  0  0
 11 10  1  0  0  0  0
 11 14  2  0  0  0  0
 12  5  2  0  0  0  0
 12  1  1  0  0  0  0
 13  9  1  0  0  0  0
 14  8  1  0  0  0  0
 15  5  1  0  0  0  0
 17 24  1  6  0  0  0
 17 18  1  0  0  0  0
 19 16  1  6  0  0  0
 19 17  1  0  0  0  0
 20 22  1  0  0  0  0
 21 20  1  0  0  0  0
 21 25  1  1  0  0  0
 22 18  1  0  0  0  0
 23 16  1  6  0  0  0
 23 19  1  0  0  0  0
 23 21  1  0  0  0  0
 26 28  2  0  0  0  0
 26 29  1  0  0  0  0
 26 13  1  0  0  0  0
 27 26  2  0  0  0  0
M  END
>  <MODEL>
1

>  <REMARK>
 VINA RESULT:      -8.9      0.000      0.000
  Name = 
  2 active torsions:
  status: ('A' for Active; 'I' for Inactive)
    1  A    between atoms: C_2  and  C_14
    2  A    between atoms: S_5  and  N_23
                            x       y       z     vdW  Elec       q    Type
                         _______ _______ _______ _____ _____    ______ ____

>  <TORSDO>
F 2

$$$$
=
 OpenBabel11062422463D

 29 34  0  0  1  0  0  0  0  0999 V2000
  188.8900  176.5030  145.5640 C   0  0  0  0  0  0  0  0  0  0  0  0
  191.4670  176.2500  144.4520 C   0  0  0  0  0  0  0  0  0  0  0  0
  185.6040  177.5330  144.6200 C   0  0  0  0  0  3  0  0  0  0  0  0
  190.3690  176.6570  143.6430 C   0  0  0  0  0  3  0  0  0  0  0  0
  186.6810  176.7060  146.9810 C   0  0  0  0  0  3  0  0  0  0  0  0
  192.0320  175.5210  146.7550 C   0  0  0  0  0  3  0  0  0  0  0  0
  187.0250  177.1460  144.6240 C   0  0  0  0  0  0  0  0  0  0  0  0
  191.2230  175.3750  148.0150 C   0  0  0  0  0  2  0  0  0  0  0  0
  189.1000  176.7800  144.2270 C   0  0  0  0  0  0  0  0  0  0  0  0
  191.1990  175.9540  145.8210 C   0  0  0  0  0  0  0  0  0  0  0  0
  189.9410  176.0860  146.3660 C   0  0  0  0  0  0  0  0  0  0  0  0
  187.5570  176.7400  145.7990 C   0  0  0  0  0  0  0  0  0  0  0  0
  187.9480  177.1760  143.6360 N   0  0  0  0  0  0  0  0  0  0  0  0
  189.8760  175.7740  147.6130 N   0  0  0  0  0  0  0  0  0  0  0  0
  185.0380  177.2640  146.3550 S   0  0  0  0  0  0  0  0  0  0  0  0
  194.0110  173.7850  144.5180 C   0  0  0  0  0  2  0  0  0  0  0  0
  195.6580  174.9280  142.8300 C   0  0  2  0  0  3  0  0  0  0  0  0
  196.0730  175.8250  143.9600 C   0  0  0  0  0  2  0  0  0  0  0  0
  194.4520  173.9580  143.0650 C   0  0  2  0  0  3  0  0  0  0  0  0
  193.8450  176.7160  144.7480 C   0  0  0  0  0  2  0  0  0  0  0  0
  192.8420  176.0460  143.8340 C   0  0  1  0  0  0  0  0  0  0  0  0
  195.0720  176.4420  144.4760 C   0  0  0  0  0  2  0  0  0  0  0  0
  193.0810  174.5090  143.5470 C   0  0  2  0  0  3  0  0  0  0  0  0
  196.8560  174.1430  142.3390 C   0  0  0  0  0  1  0  0  0  0  0  0
  192.8790  176.6920  142.5930 O   0  0  0  0  0  1  0  0  0  0  0  0
  187.7230  177.6850  141.9940 S   0  0  0  0  0  0  0  0  0  0  0  0
  186.4780  178.5200  141.8890 O   0  0  0  0  0  0  0  0  0  0  0  0
  188.8980  178.5100  141.5510 O   0  0  0  0  0  0  0  0  0  0  0  0
  187.5770  176.2970  140.9760 N   0  0  0  0  0  1  0  0  0  0  0  0
  1 12  1  0  0  0  0
  1 11  1  0  0  0  0
  2 10  1  0  0  0  0
  3  7  2  0  0  0  0
  3 15  1  0  0  0  0
  4  9  1  0  0  0  0
  4  2  2  0  0  0  0
  6  8  1  0  0  0  0
  7 12  1  0  0  0  0
  9  1  2  0  0  0  0
 10 11  1  0  0  0  0
 10  6  2  0  0  0  0
 11 14  2  0  0  0  0
 12  5  2  0  0  0  0
 13  9  1  0  0  0  0
 13  7  1  0  0  0  0
 14  8  1  0  0  0  0
 15  5  1  0  0  0  0
 17 24  1  1  0  0  0
 17 19  1  0  0  0  0
 17 18  1  0  0  0  0
 18 22  1  0  0  0  0
 19 23  1  0  0  0  0
 19 16  1  1  0  0  0
 21 25  1  6  0  0  0
 21  2  1  0  0  0  0
 21 20  1  0  0  0  0
 22 20  1  0  0  0  0
 23 21  1  0  0  0  0
 23 16  1  1  0  0  0
 26 13  1  0  0  0  0
 27 26  2  0  0  0  0
 28 26  2  0  0  0  0
 29 26  1  0  0  0  0
M  END
>  <MODEL>
2

>  <REMARK>
 VINA RESULT:      -7.9      3.169      4.984
  Name = 
  2 active torsions:
  status: ('A' for Active; 'I' for Inactive)
    1  A    between atoms: C_2  and  C_14
    2  A    between atoms: S_5  and  N_23
                            x       y       z     vdW  Elec       q    Type
                         _______ _______ _______ _____ _____    ______ ____

>  <TORSDO>
F 2

$$$$
=
 OpenBabel11062422463D

 29 34  0  0  1  0  0  0  0  0999 V2000
  191.8060  173.8290  144.9560 C   0  0  0  0  0  0  0  0  0  0  0  0
  189.6680  175.6380  144.6550 C   0  0  0  0  0  0  0  0  0  0  0  0
  192.9680  170.7330  143.6070 C   0  0  0  0  0  3  0  0  0  0  0  0
  189.7750  174.5000  143.8060 C   0  0  0  0  0  3  0  0  0  0  0  0
  193.8790  172.3420  145.6070 C   0  0  0  0  0  3  0  0  0  0  0  0
  190.8390  176.8210  146.4940 C   0  0  0  0  0  3  0  0  0  0  0  0
  192.2320  171.9830  143.8680 C   0  0  0  0  0  0  0  0  0  0  0  0
  192.0880  176.5220  147.2770 C   0  0  0  0  0  2  0  0  0  0  0  0
  190.8470  173.6150  143.9850 C   0  0  0  0  0  0  0  0  0  0  0  0
  190.6920  175.8300  145.6280 C   0  0  0  0  0  0  0  0  0  0  0  0
  191.7320  174.9410  145.7800 C   0  0  0  0  0  0  0  0  0  0  0  0
  192.6850  172.7760  144.8630 C   0  0  0  0  0  0  0  0  0  0  0  0
  191.1050  172.4740  143.3040 N   0  0  0  0  0  0  0  0  0  0  0  0
  192.5690  175.2680  146.7010 N   0  0  0  0  0  0  0  0  0  0  0  0
  194.3590  170.7460  144.8180 S   0  0  0  0  0  0  0  0  0  0  0  0
  186.6340  176.5370  146.2490 C   0  0  0  0  0  2  0  0  0  0  0  0
  185.9830  178.5320  144.6790 C   0  0  2  0  0  3  0  0  0  0  0  0
  185.5160  177.5020  143.6910 C   0  0  0  0  0  2  0  0  0  0  0  0
  186.7290  178.0350  145.9620 C   0  0  2  0  0  3  0  0  0  0  0  0
  187.5510  176.0190  143.4990 C   0  0  0  0  0  2  0  0  0  0  0  0
  188.5510  176.6500  144.4430 C   0  0  1  0  0  0  0  0  0  0  0  0
  186.4420  176.6630  143.3970 C   0  0  0  0  0  2  0  0  0  0  0  0
  187.9820  177.1240  145.8410 C   0  0  2  0  0  3  0  0  0  0  0  0
  184.8220  179.4190  145.0740 C   0  0  0  0  0  1  0  0  0  0  0  0
  189.0830  177.7870  143.8250 O   0  0  0  0  0  1  0  0  0  0  0  0
  190.1570  171.7600  142.0400 S   0  0  0  0  0  0  0  0  0  0  0  0
  190.3800  170.2740  142.0180 O   0  0  0  0  0  0  0  0  0  0  0  0
  188.6990  172.0280  142.2830 O   0  0  0  0  0  0  0  0  0  0  0  0
  190.6210  172.4370  140.5190 N   0  0  0  0  0  1  0  0  0  0  0  0
  1 11  1  0  0  0  0
  2 10  1  0  0  0  0
  3  7  2  0  0  0  0
  3 15  1  0  0  0  0
  4  9  1  0  0  0  0
  4  2  2  0  0  0  0
  6  8  1  0  0  0  0
  7 12  1  0  0  0  0
  9  1  2  0  0  0  0
 10 11  1  0  0  0  0
 10  6  2  0  0  0  0
 11 14  2  0  0  0  0
 12  1  1  0  0  0  0
 12  5  2  0  0  0  0
 13  7  1  0  0  0  0
 13  9  1  0  0  0  0
 14  8  1  0  0  0  0
 15  5  1  0  0  0  0
 17 24  1  1  0  0  0
 17 19  1  0  0  0  0
 18 17  1  0  0  0  0
 19 16  1  1  0  0  0
 20 21  1  0  0  0  0
 21 25  1  6  0  0  0
 21  2  1  0  0  0  0
 21 23  1  0  0  0  0
 22 20  1  0  0  0  0
 22 18  1  0  0  0  0
 23 19  1  0  0  0  0
 23 16  1  1  0  0  0
 26 28  2  0  0  0  0
 26 13  1  0  0  0  0
 27 26  2  0  0  0  0
 29 26  1  0  0  0  0
M  END
>  <MODEL>
3

>  <REMARK>
 VINA RESULT:      -7.7      4.156      7.497
  Name = 
  2 active torsions:
  status: ('A' for Active; 'I' for Inactive)
    1  A    between atoms: C_2  and  C_14
    2  A    between atoms: S_5  and  N_23
                            x       y       z     vdW  Elec       q    Type
                         _______ _______ _______ _____ _____    ______ ____

>  <TORSDO>
F 2

$$$$
=
 OpenBabel11062422463D

 29 34  0  0  1  0  0  0  0  0999 V2000
  187.1810  176.5220  143.4300 C   0  0  0  0  0  0  0  0  0  0  0  0
  189.4760  175.2040  144.3970 C   0  0  0  0  0  0  0  0  0  0  0  0
  184.5130  178.5760  144.6200 C   0  0  0  0  0  3  0  0  0  0  0  0
  188.6940  176.0200  145.2630 C   0  0  0  0  0  3  0  0  0  0  0  0
  185.0820  177.5030  142.1820 C   0  0  0  0  0  3  0  0  0  0  0  0
  189.6430  174.4600  142.0370 C   0  0  0  0  0  3  0  0  0  0  0  0
  185.7520  177.7900  144.4910 C   0  0  0  0  0  0  0  0  0  0  0  0
  188.7920  174.7020  140.8200 C   0  0  0  0  0  3  0  0  0  0  0  0
  187.5540  176.6570  144.7540 C   0  0  2  0  0  3  0  0  0  0  0  0
  189.0660  175.1120  143.0340 C   0  0  0  0  0  0  0  0  0  0  0  0
  187.9400  175.7490  142.5650 C   0  0  0  0  0  0  0  0  0  0  0  0
  186.0290  177.2560  143.2810 C   0  0  0  0  0  0  0  0  0  0  0  0
  186.6750  177.4440  145.4180 N   0  0  0  0  0  0  0  0  0  0  0  0
  187.7180  175.5620  141.3110 N   0  0  0  0  0  0  0  0  0  0  0  0
  183.7670  178.5560  142.9330 S   0  0  0  0  0  0  0  0  0  0  0  0
  192.8500  174.9260  143.3520 C   0  0  0  0  0  2  0  0  0  0  0  0
  193.7500  173.5710  145.4070 C   0  0  2  0  0  3  0  0  0  0  0  0
  193.1340  172.3550  144.7780 C   0  0  0  0  0  2  0  0  0  0  0  0
  193.4640  174.9640  144.7510 C   0  0  2  0  0  3  0  0  0  0  0  0
  190.7610  173.1290  144.3880 C   0  0  0  0  0  2  0  0  0  0  0  0
  190.7530  174.5510  144.9050 C   0  0  1  0  0  0  0  0  0  0  0  0
  191.8810  172.5150  144.5490 C   0  0  0  0  0  2  0  0  0  0  0  0
  192.0040  175.4380  144.5150 C   0  0  2  0  0  3  0  0  0  0  0  0
  195.2430  173.3690  145.5480 C   0  0  0  0  0  1  0  0  0  0  0  0
  190.7150  174.5110  146.3030 O   0  0  0  0  0  1  0  0  0  0  0  0
  186.6870  177.8540  147.1020 S   0  0  0  0  0  0  0  0  0  0  0  0
  186.0970  176.7270  147.9020 O   0  0  0  0  0  0  0  0  0  0  0  0
  188.1000  178.0850  147.5600 O   0  0  0  0  0  0  0  0  0  0  0  0
  185.7590  179.2900  147.3520 N   0  0  0  0  0  1  0  0  0  0  0  0
  1  9  1  0  0  0  0
  2 21  1  0  0  0  0
  2  4  2  0  0  0  0
  5 15  1  0  0  0  0
  5 12  2  0  0  0  0
  6 10  2  0  0  0  0
  7  3  2  0  0  0  0
  7 13  1  0  0  0  0
  8 14  2  0  0  0  0
  8  6  1  0  0  0  0
  9  4  1  1  0  0  0
  9 13  1  0  0  0  0
 10  2  1  0  0  0  0
 11 10  1  0  0  0  0
 11  1  2  0  0  0  0
 12  1  1  0  0  0  0
 12  7  1  0  0  0  0
 13 26  1  0  0  0  0
 14 11  1  0  0  0  0
 15  3  1  0  0  0  0
 17 24  1  6  0  0  0
 18 17  1  0  0  0  0
 19 16  1  6  0  0  0
 19 17  1  0  0  0  0
 20 22  1  0  0  0  0
 20 21  1  0  0  0  0
 21 25  1  1  0  0  0
 22 18  1  0  0  0  0
 23 16  1  6  0  0  0
 23 19  1  0  0  0  0
 23 21  1  0  0  0  0
 26 29  1  0  0  0  0
 26 28  2  0  0  0  0
 26 27  2  0  0  0  0
M  END
>  <MODEL>
4

>  <REMARK>
 VINA RESULT:      -7.7      2.818      4.795
  Name = 
  2 active torsions:
  status: ('A' for Active; 'I' for Inactive)
    1  A    between atoms: C_2  and  C_14
    2  A    between atoms: S_5  and  N_23
                            x       y       z     vdW  Elec       q    Type
                         _______ _______ _______ _____ _____    ______ ____

>  <TORSDO>
F 2

$$$$
=
 OpenBabel11062422463D

 29 34  0  0  1  0  0  0  0  0999 V2000
  191.2100  173.3570  143.8490 C   0  0  0  0  0  0  0  0  0  0  0  0
  189.6000  175.6620  143.6570 C   0  0  0  0  0  0  0  0  0  0  0  0
  194.3690  172.3420  145.1680 C   0  0  0  0  0  3  0  0  0  0  0  0
  190.8280  175.6970  144.3760 C   0  0  0  0  0  3  0  0  0  0  0  0
  192.4590  171.0430  143.7240 C   0  0  0  0  0  3  0  0  0  0  0  0
  188.1160  174.1210  142.4010 C   0  0  0  0  0  3  0  0  0  0  0  0
  193.1480  173.0900  144.8210 C   0  0  0  0  0  0  0  0  0  0  0  0
  188.2270  172.6710  142.0180 C   0  0  0  0  0  3  0  0  0  0  0  0
  191.6100  174.5360  144.4480 C   0  0  2  0  0  3  0  0  0  0  0  0
  189.2170  174.4180  143.0730 C   0  0  0  0  0  0  0  0  0  0  0  0
  190.0080  173.2950  143.1610 C   0  0  0  0  0  0  0  0  0  0  0  0
  192.2050  172.4430  144.1010 C   0  0  0  0  0  0  0  0  0  0  0  0
  192.8090  174.3780  145.0560 N   0  0  0  0  0  0  0  0  0  0  0  0
  189.5100  172.2590  142.5820 N   0  0  0  0  0  0  0  0  0  0  0  0
  194.1080  170.6600  144.4550 S   0  0  0  0  0  0  0  0  0  0  0  0
  186.1980  176.4160  144.2940 C   0  0  0  0  0  2  0  0  0  0  0  0
  186.3160  178.9970  143.8530 C   0  0  2  0  0  3  0  0  0  0  0  0
  186.2870  178.6710  142.3880 C   0  0  0  0  0  2  0  0  0  0  0  0
  186.4390  177.8110  144.8690 C   0  0  2  0  0  3  0  0  0  0  0  0
  188.1790  177.0080  142.1980 C   0  0  0  0  0  2  0  0  0  0  0  0
  188.7000  176.8880  143.6140 C   0  0  1  0  0  0  0  0  0  0  0  0
  187.2320  177.8670  142.0560 C   0  0  0  0  0  2  0  0  0  0  0  0
  187.6050  176.7910  144.7510 C   0  0  2  0  0  3  0  0  0  0  0  0
  185.1170  179.8510  144.2070 C   0  0  0  0  0  1  0  0  0  0  0  0
  189.4690  178.0220  143.8980 O   0  0  0  0  0  1  0  0  0  0  0  0
  193.7410  175.5820  145.8840 S   0  0  0  0  0  0  0  0  0  0  0  0
  192.9090  176.2120  146.9650 O   0  0  0  0  0  0  0  0  0  0  0  0
  194.9500  174.9470  146.5130 O   0  0  0  0  0  0  0  0  0  0  0  0
  194.2460  176.7940  144.7610 N   0  0  0  0  0  1  0  0  0  0  0  0
  1 12  1  0  0  0  0
  1  9  1  0  0  0  0
  2  4  2  0  0  0  0
  5 12  2  0  0  0  0
  5 15  1  0  0  0  0
  6 10  2  0  0  0  0
  7 13  1  0  0  0  0
  7  3  2  0  0  0  0
  8  6  1  0  0  0  0
  8 14  2  0  0  0  0
  9  4  1  6  0  0  0
  9 13  1  0  0  0  0
 10 11  1  0  0  0  0
 10  2  1  0  0  0  0
 11  1  2  0  0  0  0
 12  7  1  0  0  0  0
 13 26  1  0  0  0  0
 14 11  1  0  0  0  0
 15  3  1  0  0  0  0
 17 24  1  1  0  0  0
 17 19  1  0  0  0  0
 18 17  1  0  0  0  0
 19 16  1  6  0  0  0
 20 21  1  0  0  0  0
 21  2  1  0  0  0  0
 21 25  1  1  0  0  0
 21 23  1  0  0  0  0
 22 20  1  0  0  0  0
 22 18  1  0  0  0  0
 23 16  1  6  0  0  0
 23 19  1  0  0  0  0
 26 28  2  0  0  0  0
 26 27  2  0  0  0  0
 29 26  1  0  0  0  0
M  END
>  <MODEL>
5

>  <REMARK>
 VINA RESULT:      -7.5      4.339      8.037
  Name = 
  2 active torsions:
  status: ('A' for Active; 'I' for Inactive)
    1  A    between atoms: C_2  and  C_14
    2  A    between atoms: S_5  and  N_23
                            x       y       z     vdW  Elec       q    Type
                         _______ _______ _______ _____ _____    ______ ____

>  <TORSDO>
F 2

$$$$
=
 OpenBabel11062422463D

 29 34  0  0  1  0  0  0  0  0999 V2000
  188.9970  176.1380  145.6070 C   0  0  0  0  0  0  0  0  0  0  0  0
  191.5270  175.6450  144.4680 C   0  0  0  0  0  0  0  0  0  0  0  0
  185.7120  177.1340  144.6220 C   0  0  0  0  0  3  0  0  0  0  0  0
  190.4150  175.9720  143.6420 C   0  0  0  0  0  3  0  0  0  0  0  0
  186.8430  176.6100  147.0440 C   0  0  0  0  0  3  0  0  0  0  0  0
  192.1470  175.2270  146.8330 C   0  0  0  0  0  3  0  0  0  0  0  0
  187.1210  176.7040  144.6400 C   0  0  0  0  0  0  0  0  0  0  0  0
  191.3760  175.2860  148.1240 C   0  0  0  0  0  2  0  0  0  0  0  0
  189.1710  176.2170  144.2380 C   0  0  0  0  0  0  0  0  0  0  0  0
  191.2970  175.5530  145.8730 C   0  0  0  0  0  0  0  0  0  0  0  0
  190.0620  175.8020  146.4290 C   0  0  0  0  0  0  0  0  0  0  0  0
  187.6800  176.4490  145.8440 C   0  0  0  0  0  0  0  0  0  0  0  0
  188.0120  176.5650  143.6310 N   0  0  0  0  0  0  0  0  0  0  0  0
  190.0290  175.6700  147.7090 N   0  0  0  0  0  0  0  0  0  0  0  0
  185.1970  177.1290  146.3930 S   0  0  0  0  0  0  0  0  0  0  0  0
  194.8680  176.7990  144.7190 C   0  0  0  0  0  2  0  0  0  0  0  0
  195.9610  175.0880  143.0620 C   0  0  2  0  0  3  0  0  0  0  0  0
  195.4260  175.9410  141.9490 C   0  0  0  0  0  2  0  0  0  0  0  0
  195.5320  175.4360  144.5270 C   0  0  2  0  0  3  0  0  0  0  0  0
  192.9830  176.1110  142.5650 C   0  0  0  0  0  2  0  0  0  0  0  0
  192.8740  175.3120  143.8450 C   0  0  1  0  0  0  0  0  0  0  0  0
  194.1560  176.1060  142.0370 C   0  0  0  0  0  2  0  0  0  0  0  0
  194.0280  175.5370  144.9040 C   0  0  2  0  0  3  0  0  0  0  0  0
  197.4710  175.0260  142.9730 C   0  0  0  0  0  1  0  0  0  0  0  0
  192.8960  173.9510  143.5180 O   0  0  0  0  0  1  0  0  0  0  0  0
  187.7470  176.8460  141.9410 S   0  0  0  0  0  0  0  0  0  0  0  0
  188.2750  175.6850  141.1460 O   0  0  0  0  0  0  0  0  0  0  0  0
  186.2750  176.9870  141.6730 O   0  0  0  0  0  0  0  0  0  0  0  0
  188.5610  178.2930  141.4630 N   0  0  0  0  0  1  0  0  0  0  0  0
  1 12  1  0  0  0  0
  1 11  1  0  0  0  0
  2 10  1  0  0  0  0
  3  7  2  0  0  0  0
  3 15  1  0  0  0  0
  4  9  1  0  0  0  0
  4  2  2  0  0  0  0
  6  8  1  0  0  0  0
  7 12  1  0  0  0  0
  9  1  2  0  0  0  0
 10 11  1  0  0  0  0
 10  6  2  0  0  0  0
 11 14  2  0  0  0  0
 12  5  2  0  0  0  0
 13  9  1  0  0  0  0
 13  7  1  0  0  0  0
 14  8  1  0  0  0  0
 15  5  1  0  0  0  0
 17 24  1  1  0  0  0
 17 19  1  0  0  0  0
 18 22  1  0  0  0  0
 18 17  1  0  0  0  0
 19 16  1  6  0  0  0
 19 23  1  0  0  0  0
 20 21  1  0  0  0  0
 21 25  1  6  0  0  0
 21  2  1  0  0  0  0
 21 23  1  0  0  0  0
 22 20  1  0  0  0  0
 23 16  1  6  0  0  0
 26 13  1  0  0  0  0
 27 26  2  0  0  0  0
 28 26  2  0  0  0  0
 29 26  1  0  0  0  0
M  END
>  <MODEL>
6

>  <REMARK>
 VINA RESULT:      -7.5      3.397      5.237
  Name = 
  2 active torsions:
  status: ('A' for Active; 'I' for Inactive)
    1  A    between atoms: C_2  and  C_14
    2  A    between atoms: S_5  and  N_23
                            x       y       z     vdW  Elec       q    Type
                         _______ _______ _______ _____ _____    ______ ____

>  <TORSDO>
F 2

$$$$
=
 OpenBabel11062422463D

 29 34  0  0  1  0  0  0  0  0999 V2000
  191.6150  174.7790  142.3890 C   0  0  0  0  0  0  0  0  0  0  0  0
  189.5300  176.1520  143.6960 C   0  0  0  0  0  0  0  0  0  0  0  0
  192.0870  172.4000  139.7670 C   0  0  0  0  0  3  0  0  0  0  0  0
  189.2510  175.3020  142.5900 C   0  0  0  0  0  3  0  0  0  0  0  0
  193.8020  173.6140  141.5020 C   0  0  0  0  0  3  0  0  0  0  0  0
  191.4090  177.0510  145.0430 C   0  0  0  0  0  3  0  0  0  0  0  0
  191.5240  173.3780  140.7140 C   0  0  0  0  0  0  0  0  0  0  0  0
  192.8950  176.8200  145.0180 C   0  0  0  0  0  2  0  0  0  0  0  0
  190.3090  174.6270  141.9630 C   0  0  0  0  0  0  0  0  0  0  0  0
  190.8950  176.2950  144.0860 C   0  0  0  0  0  0  0  0  0  0  0  0
  191.9120  175.6180  143.4520 C   0  0  0  0  0  0  0  0  0  0  0  0
  192.3770  173.9750  141.5750 C   0  0  0  0  0  0  0  0  0  0  0  0
  190.2440  173.7620  140.9240 N   0  0  0  0  0  0  0  0  0  0  0  0
  193.0810  175.8650  143.9280 N   0  0  0  0  0  0  0  0  0  0  0  0
  193.8970  172.3870  140.1280 S   0  0  0  0  0  0  0  0  0  0  0  0
  187.6950  176.0400  146.7250 C   0  0  0  0  0  2  0  0  0  0  0  0
  186.2310  178.1790  146.3340 C   0  0  2  0  0  3  0  0  0  0  0  0
  185.3790  177.3370  145.4290 C   0  0  0  0  0  2  0  0  0  0  0  0
  187.5530  177.5530  146.8920 C   0  0  2  0  0  3  0  0  0  0  0  0
  187.1040  176.3680  143.8590 C   0  0  0  0  0  2  0  0  0  0  0  0
  188.4120  176.9460  144.3550 C   0  0  1  0  0  0  0  0  0  0  0  0
  186.0670  176.7880  144.4940 C   0  0  0  0  0  2  0  0  0  0  0  0
  188.6140  176.9600  145.9240 C   0  0  2  0  0  3  0  0  0  0  0  0
  185.3910  178.7040  147.4780 C   0  0  0  0  0  1  0  0  0  0  0  0
  188.4940  178.2770  143.9320 O   0  0  0  0  0  1  0  0  0  0  0  0
  188.8250  173.2100  140.0950 S   0  0  0  0  0  0  0  0  0  0  0  0
  189.1730  172.0400  139.2190 O   0  0  0  0  0  0  0  0  0  0  0  0
  187.7890  172.7760  141.0930 O   0  0  0  0  0  0  0  0  0  0  0  0
  188.1890  174.4910  139.1250 N   0  0  0  0  0  1  0  0  0  0  0  0
  1 11  1  0  0  0  0
  2 10  1  0  0  0  0
  2 21  1  0  0  0  0
  3 15  1  0  0  0  0
  3  7  2  0  0  0  0
  4  2  2  0  0  0  0
  5 12  2  0  0  0  0
  7 13  1  0  0  0  0
  7 12  1  0  0  0  0
  8  6  1  0  0  0  0
  9  1  2  0  0  0  0
  9  4  1  0  0  0  0
 10  6  2  0  0  0  0
 11 14  2  0  0  0  0
 11 10  1  0  0  0  0
 12  1  1  0  0  0  0
 13  9  1  0  0  0  0
 14  8  1  0  0  0  0
 15  5  1  0  0  0  0
 17 19  1  0  0  0  0
 17 24  1  1  0  0  0
 18 17  1  0  0  0  0
 19 16  1  1  0  0  0
 20 21  1  0  0  0  0
 20 22  1  0  0  0  0
 21 25  1  6  0  0  0
 21 23  1  0  0  0  0
 22 18  1  0  0  0  0
 23 16  1  1  0  0  0
 23 19  1  0  0  0  0
 26 13  1  0  0  0  0
 26 28  2  0  0  0  0
 27 26  2  0  0  0  0
 29 26  1  0  0  0  0
M  END
>  <MODEL>
7

>  <REMARK>
 VINA RESULT:      -7.4      3.514      6.762
  Name = 
  2 active torsions:
  status: ('A' for Active; 'I' for Inactive)
    1  A    between atoms: C_2  and  C_14
    2  A    between atoms: S_5  and  N_23
                            x       y       z     vdW  Elec       q    Type
                         _______ _______ _______ _____ _____    ______ ____

>  <TORSDO>
F 2

$$$$
=
 OpenBabel11062422463D

 29 34  0  0  1  0  0  0  0  0999 V2000
  189.1150  177.1600  145.8240 C   0  0  0  0  0  0  0  0  0  0  0  0
  191.6010  176.4320  144.7160 C   0  0  0  0  0  0  0  0  0  0  0  0
  185.8100  178.0180  144.7750 C   0  0  0  0  0  3  0  0  0  0  0  0
  190.4670  176.6240  143.8780 C   0  0  0  0  0  3  0  0  0  0  0  0
  187.0130  177.9160  147.2170 C   0  0  0  0  0  3  0  0  0  0  0  0
  192.2920  176.4320  147.0980 C   0  0  0  0  0  3  0  0  0  0  0  0
  187.2150  177.5750  144.8270 C   0  0  0  0  0  0  0  0  0  0  0  0
  191.5650  176.7320  148.3800 C   0  0  0  0  0  2  0  0  0  0  0  0
  189.2440  176.9920  144.4580 C   0  0  0  0  0  0  0  0  0  0  0  0
  191.4150  176.5950  146.1200 C   0  0  0  0  0  0  0  0  0  0  0  0
  190.2020  176.9590  146.6600 C   0  0  0  0  0  0  0  0  0  0  0  0
  187.8090  177.5300  146.0400 C   0  0  0  0  0  0  0  0  0  0  0  0
  188.0700  177.2450  143.8330 N   0  0  0  0  0  0  0  0  0  0  0  0
  190.2090  177.0580  147.9430 N   0  0  0  0  0  0  0  0  0  0  0  0
  185.3530  178.3370  146.5340 S   0  0  0  0  0  0  0  0  0  0  0  0
  192.7160  174.8960  141.7240 C   0  0  0  0  0  2  0  0  0  0  0  0
  195.2830  174.9020  142.2550 C   0  0  2  0  0  3  0  0  0  0  0  0
  195.0260  173.7110  143.1330 C   0  0  0  0  0  2  0  0  0  0  0  0
  194.0480  175.6410  141.6380 C   0  0  2  0  0  3  0  0  0  0  0  0
  193.1650  174.5610  144.6140 C   0  0  0  0  0  2  0  0  0  0  0  0
  192.9240  175.9710  144.1220 C   0  0  1  0  0  0  0  0  0  0  0  0
  194.1330  173.9540  144.0240 C   0  0  0  0  0  2  0  0  0  0  0  0
  192.9060  176.1650  142.5520 C   0  0  2  0  0  3  0  0  0  0  0  0
  196.2540  174.5230  141.1570 C   0  0  0  0  0  1  0  0  0  0  0  0
  193.9480  176.7900  144.6120 O   0  0  0  0  0  1  0  0  0  0  0  0
  187.7540  177.2250  142.1290 S   0  0  0  0  0  0  0  0  0  0  0  0
  186.2960  177.4930  141.8810 O   0  0  0  0  0  0  0  0  0  0  0  0
  188.5650  178.2910  141.4480 O   0  0  0  0  0  0  0  0  0  0  0  0
  188.1760  175.6790  141.4830 N   0  0  0  0  0  1  0  0  0  0  0  0
  1 12  1  0  0  0  0
  1 11  1  0  0  0  0
  2 10  1  0  0  0  0
  3  7  2  0  0  0  0
  3 15  1  0  0  0  0
  4  9  1  0  0  0  0
  4  2  2  0  0  0  0
  6  8  1  0  0  0  0
  7 12  1  0  0  0  0
  9  1  2  0  0  0  0
 10 11  1  0  0  0  0
 10  6  2  0  0  0  0
 11 14  2  0  0  0  0
 12  5  2  0  0  0  0
 13  9  1  0  0  0  0
 13  7  1  0  0  0  0
 14  8  1  0  0  0  0
 15  5  1  0  0  0  0
 17 24  1  6  0  0  0
 17 18  1  0  0  0  0
 18 22  1  0  0  0  0
 19 16  1  6  0  0  0
 19 17  1  0  0  0  0
 19 23  1  0  0  0  0
 21 25  1  1  0  0  0
 21 20  1  0  0  0  0
 21  2  1  0  0  0  0
 22 20  1  0  0  0  0
 23 16  1  6  0  0  0
 23 21  1  0  0  0  0
 26 13  1  0  0  0  0
 27 26  2  0  0  0  0
 28 26  2  0  0  0  0
 29 26  1  0  0  0  0
M  END
>  <MODEL>
8

>  <REMARK>
 VINA RESULT:      -7.3      3.316      4.956
  Name = 
  2 active torsions:
  status: ('A' for Active; 'I' for Inactive)
    1  A    between atoms: C_2  and  C_14
    2  A    between atoms: S_5  and  N_23
                            x       y       z     vdW  Elec       q    Type
                         _______ _______ _______ _____ _____    ______ ____

>  <TORSDO>
F 2

$$$$
=
 OpenBabel11062422463D

 29 34  0  0  1  0  0  0  0  0999 V2000
  191.0560  175.2030  145.0820 C   0  0  0  0  0  0  0  0  0  0  0  0
  188.4600  176.2460  144.7450 C   0  0  0  0  0  0  0  0  0  0  0  0
  193.3400  172.9960  143.4480 C   0  0  0  0  0  3  0  0  0  0  0  0
  189.0340  175.4040  143.7510 C   0  0  0  0  0  3  0  0  0  0  0  0
  193.4450  174.3650  145.8010 C   0  0  0  0  0  3  0  0  0  0  0  0
  188.9710  177.3370  146.9130 C   0  0  0  0  0  3  0  0  0  0  0  0
  192.1960  173.8590  143.7890 C   0  0  0  0  0  0  0  0  0  0  0  0
  190.1680  177.3040  147.8240 C   0  0  0  0  0  2  0  0  0  0  0  0
  190.3260  174.8960  143.9500 C   0  0  0  0  0  0  0  0  0  0  0  0
  189.2590  176.5530  145.8850 C   0  0  0  0  0  0  0  0  0  0  0  0
  190.5240  176.0370  146.0530 C   0  0  0  0  0  0  0  0  0  0  0  0
  192.2500  174.5330  144.9590 C   0  0  0  0  0  0  0  0  0  0  0  0
  191.0260  174.0660  143.1420 N   0  0  0  0  0  0  0  0  0  0  0  0
  191.1050  176.4190  147.1360 N   0  0  0  0  0  0  0  0  0  0  0  0
  194.5210  173.2080  144.8500 S   0  0  0  0  0  0  0  0  0  0  0  0
  186.6940  177.7930  142.0920 C   0  0  0  0  0  2  0  0  0  0  0  0
  184.4260  178.1750  143.3490 C   0  0  2  0  0  3  0  0  0  0  0  0
  185.0780  179.3540  144.0100 C   0  0  0  0  0  2  0  0  0  0  0  0
  185.3170  177.2420  142.4620 C   0  0  2  0  0  3  0  0  0  0  0  0
  187.1790  178.3140  144.9490 C   0  0  0  0  0  2  0  0  0  0  0  0
  187.0870  176.8630  144.5270 C   0  0  1  0  0  0  0  0  0  0  0  0
  186.1600  179.0260  144.6180 C   0  0  0  0  0  2  0  0  0  0  0  0
  186.6080  176.6020  143.0420 C   0  0  2  0  0  3  0  0  0  0  0  0
  183.2230  178.6390  142.5550 C   0  0  0  0  0  1  0  0  0  0  0  0
  186.1660  176.2210  145.3610 O   0  0  0  0  0  1  0  0  0  0  0  0
  190.5080  173.3610  141.6450 S   0  0  0  0  0  0  0  0  0  0  0  0
  189.2670  174.0560  141.1610 O   0  0  0  0  0  0  0  0  0  0  0  0
  191.5850  173.5150  140.6090 O   0  0  0  0  0  0  0  0  0  0  0  0
  190.1750  171.6820  141.8840 N   0  0  0  0  0  1  0  0  0  0  0  0
  1 11  1  0  0  0  0
  2 10  1  0  0  0  0
  3  7  2  0  0  0  0
  3 15  1  0  0  0  0
  4  9  1  0  0  0  0
  4  2  2  0  0  0  0
  6  8  1  0  0  0  0
  7 12  1  0  0  0  0
  9  1  2  0  0  0  0
 10 11  1  0  0  0  0
 10  6  2  0  0  0  0
 11 14  2  0  0  0  0
 12  1  1  0  0  0  0
 12  5  2  0  0  0  0
 13  7  1  0  0  0  0
 13  9  1  0  0  0  0
 14  8  1  0  0  0  0
 15  5  1  0  0  0  0
 17 24  1  6  0  0  0
 17 18  1  0  0  0  0
 18 22  1  0  0  0  0
 19 16  1  6  0  0  0
 19 23  1  0  0  0  0
 19 17  1  0  0  0  0
 21  2  1  0  0  0  0
 21 20  1  0  0  0  0
 21 25  1  1  0  0  0
 22 20  1  0  0  0  0
 23 16  1  6  0  0  0
 23 21  1  0  0  0  0
 26 29  1  0  0  0  0
 26 13  1  0  0  0  0
 27 26  2  0  0  0  0
 28 26  2  0  0  0  0
M  END
>  <MODEL>
9

>  <REMARK>
 VINA RESULT:      -7.2      3.462      6.963
  Name = 
  2 active torsions:
  status: ('A' for Active; 'I' for Inactive)
    1  A    between atoms: C_2  and  C_14
    2  A    between atoms: S_5  and  N_23
                            x       y       z     vdW  Elec       q    Type
                         _______ _______ _______ _____ _____    ______ ____

>  <TORSDO>
F 2

$$$$
