=
 OpenBabel11062423123D

 34 35  0  0  1  0  0  0  0  0999 V2000
  191.2990  176.1440  144.6040 O   0  0  0  0  0  1  0  0  0  0  0  0
  191.1750  174.8900  145.2260 C   0  0  1  0  0  0  0  0  0  0  0  0
  191.6530  173.8230  144.3290 N   0  0  0  0  0  2  0  0  0  0  0  0
  191.7600  174.3010  143.0090 N   0  0  0  0  0  2  0  0  0  0  0  0
  190.1380  172.3700  140.2640 C   0  0  0  0  0  0  0  0  0  0  0  0
  191.1160  172.8900  141.0370 C   0  0  0  0  0  0  0  0  0  0  0  0
  188.7220  172.8870  140.3980 C   0  0  2  0  0  3  0  0  0  0  0  0
  190.8150  173.9920  141.9800 C   0  0  0  0  0  0  0  0  0  0  0  0
  188.0160  172.7030  139.2070 O   0  0  0  0  0  1  0  0  0  0  0  0
  189.6480  174.6450  141.9030 C   0  0  0  0  0  3  0  0  0  0  0  0
  188.6980  174.3660  140.7760 C   0  0  0  0  0  2  0  0  0  0  0  0
  190.3900  171.1700  139.3970 C   0  0  0  0  0  2  0  0  0  0  0  0
  190.5170  171.5620  138.0640 O   0  0  0  0  0  1  0  0  0  0  0  0
  193.4140  172.9670  140.1440 C   0  0  0  0  0  1  0  0  0  0  0  0
  192.4230  172.3890  140.9990 O   0  0  0  0  0  0  0  0  0  0  0  0
  191.9730  174.8840  146.4560 N   0  0  0  0  0  2  0  0  0  0  0  0
  194.3040  175.5760  146.3090 C   0  0  0  0  0  1  0  0  0  0  0  0
  192.8750  176.0350  146.5070 C   0  0  0  0  0  2  0  0  0  0  0  0
  189.7140  174.6480  145.6480 C   0  0  0  0  0  2  0  0  0  0  0  0
  189.3400  175.3250  146.9640 C   0  0  0  0  0  2  0  0  0  0  0  0
  188.5960  176.6180  146.7060 C   0  0  0  0  0  2  0  0  0  0  0  0
  187.1140  176.4320  146.9660 C   0  0  0  0  0  2  0  0  0  0  0  0
  186.3130  176.8630  145.7410 C   0  0  2  0  0  3  0  0  0  0  0  0
  186.2280  179.1210  144.6210 C   0  0  0  0  0  2  0  0  0  0  0  0
  187.0880  177.8650  144.8650 C   0  0  2  0  0  3  0  0  0  0  0  0
  186.3980  176.9430  142.6030 C   0  0  0  0  0  2  0  0  0  0  0  0
  185.4460  178.1440  142.4050 C   0  0  1  0  0  0  0  0  0  0  0  0
  184.2110  177.7820  142.9570 O   0  0  0  0  0  1  0  0  0  0  0  0
  185.9350  179.4090  143.1410 C   0  0  0  0  0  2  0  0  0  0  0  0
  187.5710  177.2370  143.5460 C   0  0  0  0  0  2  0  0  0  0  0  0
  185.2390  178.3950  141.0250 O   0  0  0  0  0  0  0  0  0  0  0  0
  186.0640  177.5510  140.2550 C   0  0  0  0  0  1  0  0  0  0  0  0
  185.0480  177.4670  146.1920 C   0  0  0  0  0  0  0  0  0  0  0  0
  184.0440  177.9290  146.5490 N   0  0  0  0  0  0  0  0  0  0  0  0
  2  1  1  6  0  0  0
  2 19  1  0  0  0  0
  2 16  1  0  0  0  0
  3  2  1  0  0  0  0
  4  3  1  0  0  0  0
  5  7  1  0  0  0  0
  5  6  2  0  0  0  0
  6  8  1  0  0  0  0
  7  9  1  6  0  0  0
  7 11  1  0  0  0  0
  8  4  1  0  0  0  0
 10  8  2  0  0  0  0
 11 10  1  0  0  0  0
 12  5  1  0  0  0  0
 13 12  1  0  0  0  0
 14 15  1  0  0  0  0
 15  6  1  0  0  0  0
 16 18  1  0  0  0  0
 17 18  1  0  0  0  0
 19 20  1  0  0  0  0
 21 20  1  0  0  0  0
 21 22  1  0  0  0  0
 23 33  1  1  0  0  0
 23 22  1  0  0  0  0
 24 25  1  0  0  0  0
 25 23  1  6  0  0  0
 26 30  1  0  0  0  0
 27 26  1  0  0  0  0
 27 28  1  1  0  0  0
 27 29  1  0  0  0  0
 29 24  1  0  0  0  0
 30 25  1  0  0  0  0
 31 27  1  0  0  0  0
 32 31  1  0  0  0  0
 33 34  3  0  0  0  0
M  END
>  <MODEL>
1

>  <REMARK>
 VINA RESULT:      -6.0      0.000      0.000
  Name = 
  15 active torsions:
  status: ('A' for Active; 'I' for Inactive)
    1  A    between atoms: C_1  and  C_7
    2  A    between atoms: C_1  and  C_12
    3  A    between atoms: C_1  and  C_33
    4  A    between atoms: N_2  and  N_24
    5  A    between atoms: N_2  and  C_30
    6  A    between atoms: C_3  and  C_10
    7  A    between atoms: O_4  and  C_17
    8  A    between atoms: C_6  and  O_19
    9  A    between atoms: N_9  and  C_18
   10  A    between atoms: N_9  and  C_30
   11  A    between atoms: C_16  and  C_23
   12  A    between atoms: C_16  and  C_33
   13  A    between atoms: C_20  and  N_24
   14  A    between atoms: C_23  and  C_27
   15  A    between atoms: C_27  and  C_30
                            x       y       z     vdW  Elec       q    Type
                         _______ _______ _______ _____ _____    ______ ____

>  <TORSDO>
F 15

$$$$
=
 OpenBabel11062423123D

 34 35  0  0  1  0  0  0  0  0999 V2000
  192.3270  176.7770  144.5970 O   0  0  0  0  0  1  0  0  0  0  0  0
  191.3350  175.7850  144.5170 C   0  0  1  0  0  0  0  0  0  0  0  0
  191.7470  174.7190  143.5860 N   0  0  0  0  0  2  0  0  0  0  0  0
  191.3100  175.0120  142.2800 N   0  0  0  0  0  2  0  0  0  0  0  0
  190.1130  172.8000  139.5290 C   0  0  0  0  0  0  0  0  0  0  0  0
  190.1380  173.4330  140.7220 C   0  0  0  0  0  0  0  0  0  0  0  0
  191.3510  172.7940  138.6580 C   0  0  2  0  0  3  0  0  0  0  0  0
  191.3830  174.0800  141.1970 C   0  0  0  0  0  0  0  0  0  0  0  0
  191.3570  171.6760  137.8200 O   0  0  0  0  0  1  0  0  0  0  0  0
  192.5470  173.8380  140.5790 C   0  0  0  0  0  3  0  0  0  0  0  0
  192.6270  172.8040  139.4960 C   0  0  0  0  0  2  0  0  0  0  0  0
  188.8320  172.2500  138.9700 C   0  0  0  0  0  2  0  0  0  0  0  0
  188.1750  173.2320  138.2270 O   0  0  0  0  0  1  0  0  0  0  0  0
  188.7010  172.5400  142.5170 C   0  0  0  0  0  1  0  0  0  0  0  0
  188.9940  173.5280  141.5240 O   0  0  0  0  0  0  0  0  0  0  0  0
  191.1230  175.2100  145.8500 N   0  0  0  0  0  2  0  0  0  0  0  0
  189.1320  174.6240  147.1240 C   0  0  0  0  0  1  0  0  0  0  0  0
  189.9380  174.3520  145.8730 C   0  0  0  0  0  2  0  0  0  0  0  0
  189.9930  176.4080  144.0880 C   0  0  0  0  0  2  0  0  0  0  0  0
  190.0970  177.8860  143.7230 C   0  0  0  0  0  2  0  0  0  0  0  0
  189.3340  178.1760  142.4490 C   0  0  0  0  0  2  0  0  0  0  0  0
  188.3510  177.0580  142.1600 C   0  0  0  0  0  2  0  0  0  0  0  0
  186.9830  177.6430  141.8180 C   0  0  2  0  0  3  0  0  0  0  0  0
  184.5900  177.8800  142.5780 C   0  0  0  0  0  2  0  0  0  0  0  0
  185.8560  177.0020  142.6500 C   0  0  2  0  0  3  0  0  0  0  0  0
  186.4550  178.0390  144.8890 C   0  0  0  0  0  2  0  0  0  0  0  0
  185.2520  179.0000  144.7650 C   0  0  1  0  0  0  0  0  0  0  0  0
  185.7070  180.1390  144.0880 O   0  0  0  0  0  1  0  0  0  0  0  0
  184.0980  178.3950  143.9390 C   0  0  0  0  0  2  0  0  0  0  0  0
  186.2820  176.7330  144.1040 C   0  0  0  0  0  2  0  0  0  0  0  0
  184.8100  179.4140  146.0460 O   0  0  0  0  0  0  0  0  0  0  0  0
  184.4080  178.2930  146.8010 C   0  0  0  0  0  1  0  0  0  0  0  0
  186.7260  177.4360  140.3840 C   0  0  0  0  0  0  0  0  0  0  0  0
  186.5090  177.2660  139.2550 N   0  0  0  0  0  0  0  0  0  0  0  0
  2  1  1  1  0  0  0
  2 16  1  0  0  0  0
  3  2  1  0  0  0  0
  4  3  1  0  0  0  0
  5  6  2  0  0  0  0
  6  8  1  0  0  0  0
  6 15  1  0  0  0  0
  7  9  1  1  0  0  0
  7 11  1  0  0  0  0
  7  5  1  0  0  0  0
  8  4  1  0  0  0  0
 10  8  2  0  0  0  0
 11 10  1  0  0  0  0
 12  5  1  0  0  0  0
 13 12  1  0  0  0  0
 15 14  1  0  0  0  0
 16 18  1  0  0  0  0
 18 17  1  0  0  0  0
 19  2  1  0  0  0  0
 20 19  1  0  0  0  0
 21 20  1  0  0  0  0
 22 21  1  0  0  0  0
 23 33  1  6  0  0  0
 23 22  1  0  0  0  0
 24 25  1  0  0  0  0
 24 29  1  0  0  0  0
 25 23  1  6  0  0  0
 25 30  1  0  0  0  0
 27 28  1  6  0  0  0
 27 26  1  0  0  0  0
 27 31  1  0  0  0  0
 29 27  1  0  0  0  0
 30 26  1  0  0  0  0
 31 32  1  0  0  0  0
 34 33  3  0  0  0  0
M  END
>  <MODEL>
2

>  <REMARK>
 VINA RESULT:      -6.0      2.154      3.666
  Name = 
  15 active torsions:
  status: ('A' for Active; 'I' for Inactive)
    1  A    between atoms: C_1  and  C_7
    2  A    between atoms: C_1  and  C_12
    3  A    between atoms: C_1  and  C_33
    4  A    between atoms: N_2  and  N_24
    5  A    between atoms: N_2  and  C_30
    6  A    between atoms: C_3  and  C_10
    7  A    between atoms: O_4  and  C_17
    8  A    between atoms: C_6  and  O_19
    9  A    between atoms: N_9  and  C_18
   10  A    between atoms: N_9  and  C_30
   11  A    between atoms: C_16  and  C_23
   12  A    between atoms: C_16  and  C_33
   13  A    between atoms: C_20  and  N_24
   14  A    between atoms: C_23  and  C_27
   15  A    between atoms: C_27  and  C_30
                            x       y       z     vdW  Elec       q    Type
                         _______ _______ _______ _____ _____    ______ ____

>  <TORSDO>
F 15

$$$$
=
 OpenBabel11062423123D

 34 35  0  0  1  0  0  0  0  0999 V2000
  189.7780  174.7240  141.4350 O   0  0  0  0  0  1  0  0  0  0  0  0
  188.6400  173.9470  141.7080 C   0  0  1  0  0  0  0  0  0  0  0  0
  187.5090  174.8100  142.0960 N   0  0  0  0  0  2  0  0  0  0  0  0
  187.9620  176.1110  142.3840 N   0  0  0  0  0  2  0  0  0  0  0  0
  186.0540  178.6050  144.3930 C   0  0  0  0  0  0  0  0  0  0  0  0
  186.7150  178.0640  143.3460 C   0  0  0  0  0  0  0  0  0  0  0  0
  186.1330  177.9430  145.7520 C   0  0  2  0  0  3  0  0  0  0  0  0
  187.5470  176.8540  143.5350 C   0  0  0  0  0  0  0  0  0  0  0  0
  185.9260  178.8790  146.7680 O   0  0  0  0  0  1  0  0  0  0  0  0
  187.8540  176.4320  144.7680 C   0  0  0  0  0  3  0  0  0  0  0  0
  187.4800  177.2560  145.9650 C   0  0  0  0  0  2  0  0  0  0  0  0
  185.1040  179.7520  144.2010 C   0  0  0  0  0  2  0  0  0  0  0  0
  183.7890  179.2850  144.1810 O   0  0  0  0  0  1  0  0  0  0  0  0
  185.6300  178.1160  141.1320 C   0  0  0  0  0  1  0  0  0  0  0  0
  186.6070  178.6010  142.0580 O   0  0  0  0  0  0  0  0  0  0  0  0
  188.2800  173.1840  140.5090 N   0  0  0  0  0  2  0  0  0  0  0  0
  188.2320  174.0880  138.2480 C   0  0  0  0  0  1  0  0  0  0  0  0
  189.1090  173.5710  139.3680 C   0  0  0  0  0  2  0  0  0  0  0  0
  188.9520  172.9140  142.8090 C   0  0  0  0  0  2  0  0  0  0  0  0
  190.1030  173.3270  143.7220 C   0  0  0  0  0  2  0  0  0  0  0  0
  189.7300  173.1250  145.1750 C   0  0  0  0  0  2  0  0  0  0  0  0
  190.3140  174.2350  146.0260 C   0  0  0  0  0  2  0  0  0  0  0  0
  191.5850  174.7760  145.3780 C   0  0  2  0  0  3  0  0  0  0  0  0
  193.6460  175.8230  146.3850 C   0  0  0  0  0  2  0  0  0  0  0  0
  192.8310  174.5220  146.2470 C   0  0  2  0  0  3  0  0  0  0  0  0
  194.3820  173.7380  144.3960 C   0  0  0  0  0  2  0  0  0  0  0  0
  195.1300  175.0890  144.4520 C   0  0  1  0  0  0  0  0  0  0  0  0
  194.4740  175.9560  143.5700 O   0  0  0  0  0  1  0  0  0  0  0  0
  195.0850  175.7280  145.8560 C   0  0  0  0  0  2  0  0  0  0  0  0
  193.6900  173.3630  145.7130 C   0  0  0  0  0  2  0  0  0  0  0  0
  196.4620  174.9400  143.9930 O   0  0  0  0  0  0  0  0  0  0  0  0
  196.4660  174.3510  142.7120 C   0  0  0  0  0  1  0  0  0  0  0  0
  191.4210  176.2210  145.1490 C   0  0  0  0  0  0  0  0  0  0  0  0
  191.2990  177.3640  144.9810 N   0  0  0  0  0  0  0  0  0  0  0  0
  2  1  1  6  0  0  0
  2  3  1  0  0  0  0
  2 19  1  0  0  0  0
  3  4  1  0  0  0  0
  4  8  1  0  0  0  0
  5  7  1  0  0  0  0
  6  8  1  0  0  0  0
  6  5  2  0  0  0  0
  7 11  1  0  0  0  0
  7  9  1  1  0  0  0
  8 10  2  0  0  0  0
 10 11  1  0  0  0  0
 12  5  1  0  0  0  0
 13 12  1  0  0  0  0
 14 15  1  0  0  0  0
 15  6  1  0  0  0  0
 16  2  1  0  0  0  0
 17 18  1  0  0  0  0
 18 16  1  0  0  0  0
 19 20  1  0  0  0  0
 20 21  1  0  0  0  0
 21 22  1  0  0  0  0
 23 33  1  1  0  0  0
 23 22  1  0  0  0  0
 25 23  1  6  0  0  0
 25 24  1  0  0  0  0
 26 27  1  0  0  0  0
 26 30  1  0  0  0  0
 27 28  1  6  0  0  0
 27 29  1  0  0  0  0
 29 24  1  0  0  0  0
 30 25  1  0  0  0  0
 31 27  1  0  0  0  0
 32 31  1  0  0  0  0
 34 33  3  0  0  0  0
M  END
>  <MODEL>
3

>  <REMARK>
 VINA RESULT:      -5.9      2.510      7.896
  Name = 
  15 active torsions:
  status: ('A' for Active; 'I' for Inactive)
    1  A    between atoms: C_1  and  C_7
    2  A    between atoms: C_1  and  C_12
    3  A    between atoms: C_1  and  C_33
    4  A    between atoms: N_2  and  N_24
    5  A    between atoms: N_2  and  C_30
    6  A    between atoms: C_3  and  C_10
    7  A    between atoms: O_4  and  C_17
    8  A    between atoms: C_6  and  O_19
    9  A    between atoms: N_9  and  C_18
   10  A    between atoms: N_9  and  C_30
   11  A    between atoms: C_16  and  C_23
   12  A    between atoms: C_16  and  C_33
   13  A    between atoms: C_20  and  N_24
   14  A    between atoms: C_23  and  C_27
   15  A    between atoms: C_27  and  C_30
                            x       y       z     vdW  Elec       q    Type
                         _______ _______ _______ _____ _____    ______ ____

>  <TORSDO>
F 15

$$$$
=
 OpenBabel11062423123D

 34 35  0  0  1  0  0  0  0  0999 V2000
  190.8650  176.1270  144.9460 O   0  0  0  0  0  1  0  0  0  0  0  0
  190.5850  175.5580  146.2000 C   0  0  1  0  0  0  0  0  0  0  0  0
  189.5440  176.3360  146.8970 N   0  0  0  0  0  2  0  0  0  0  0  0
  188.2640  175.8830  146.5270 N   0  0  0  0  0  2  0  0  0  0  0  0
  185.4220  177.6000  144.8330 C   0  0  0  0  0  0  0  0  0  0  0  0
  186.6440  177.0520  145.0090 C   0  0  0  0  0  0  0  0  0  0  0  0
  184.5370  177.8610  146.0330 C   0  0  2  0  0  3  0  0  0  0  0  0
  187.1350  176.7500  146.3740 C   0  0  0  0  0  0  0  0  0  0  0  0
  183.6450  178.9040  145.7690 O   0  0  0  0  0  1  0  0  0  0  0  0
  186.4930  177.2350  147.4450 C   0  0  0  0  0  3  0  0  0  0  0  0
  185.3600  178.2020  147.2740 C   0  0  0  0  0  2  0  0  0  0  0  0
  184.8510  177.7950  143.4580 C   0  0  0  0  0  2  0  0  0  0  0  0
  185.2240  179.0440  142.9590 O   0  0  0  0  0  1  0  0  0  0  0  0
  188.3930  177.6680  143.3840 C   0  0  0  0  0  1  0  0  0  0  0  0
  187.4620  176.7240  143.9220 O   0  0  0  0  0  0  0  0  0  0  0  0
  190.1170  174.1820  146.0090 N   0  0  0  0  0  2  0  0  0  0  0  0
  190.0460  172.2640  144.5100 C   0  0  0  0  0  1  0  0  0  0  0  0
  190.7380  173.5710  144.8350 C   0  0  0  0  0  2  0  0  0  0  0  0
  191.8720  175.4720  147.0440 C   0  0  0  0  0  2  0  0  0  0  0  0
  192.9920  176.3770  146.5390 C   0  0  0  0  0  2  0  0  0  0  0  0
  194.2310  175.5670  146.2240 C   0  0  0  0  0  2  0  0  0  0  0  0
  194.2940  175.2600  144.7410 C   0  0  0  0  0  2  0  0  0  0  0  0
  195.2020  174.0580  144.4970 C   0  0  2  0  0  3  0  0  0  0  0  0
  196.6580  172.5070  145.8510 C   0  0  0  0  0  2  0  0  0  0  0  0
  195.2450  173.1100  145.7100 C   0  0  2  0  0  3  0  0  0  0  0  0
  194.4580  171.0070  144.5250 C   0  0  0  0  0  2  0  0  0  0  0  0
  195.8980  170.4480  144.5620 C   0  0  1  0  0  0  0  0  0  0  0  0
  196.5390  170.8920  143.4000 O   0  0  0  0  0  1  0  0  0  0  0  0
  196.7020  170.9730  145.7700 C   0  0  0  0  0  2  0  0  0  0  0  0
  194.1630  172.0190  145.6390 C   0  0  0  0  0  2  0  0  0  0  0  0
  195.8840  169.0310  144.5270 O   0  0  0  0  0  0  0  0  0  0  0  0
  195.0420  168.5330  145.5420 C   0  0  0  0  0  1  0  0  0  0  0  0
  196.5580  174.5430  144.1920 C   0  0  0  0  0  0  0  0  0  0  0  0
  197.6290  174.9320  143.9660 N   0  0  0  0  0  0  0  0  0  0  0  0
  2  1  1  6  0  0  0
  2  3  1  0  0  0  0
  2 19  1  0  0  0  0
  4  3  1  0  0  0  0
  5  6  2  0  0  0  0
  5  7  1  0  0  0  0
  6  8  1  0  0  0  0
  7  9  1  6  0  0  0
  7 11  1  0  0  0  0
  8  4  1  0  0  0  0
  8 10  2  0  0  0  0
 11 10  1  0  0  0  0
 12  5  1  0  0  0  0
 13 12  1  0  0  0  0
 14 15  1  0  0  0  0
 15  6  1  0  0  0  0
 16  2  1  0  0  0  0
 17 18  1  0  0  0  0
 18 16  1  0  0  0  0
 20 19  1  0  0  0  0
 21 20  1  0  0  0  0
 22 21  1  0  0  0  0
 23 33  1  1  0  0  0
 23 22  1  0  0  0  0
 25 23  1  6  0  0  0
 25 24  1  0  0  0  0
 26 27  1  0  0  0  0
 26 30  1  0  0  0  0
 27 28  1  6  0  0  0
 27 29  1  0  0  0  0
 29 24  1  0  0  0  0
 30 25  1  0  0  0  0
 31 27  1  0  0  0  0
 31 32  1  0  0  0  0
 34 33  3  0  0  0  0
M  END
>  <MODEL>
4

>  <REMARK>
 VINA RESULT:      -5.9      3.252      9.073
  Name = 
  15 active torsions:
  status: ('A' for Active; 'I' for Inactive)
    1  A    between atoms: C_1  and  C_7
    2  A    between atoms: C_1  and  C_12
    3  A    between atoms: C_1  and  C_33
    4  A    between atoms: N_2  and  N_24
    5  A    between atoms: N_2  and  C_30
    6  A    between atoms: C_3  and  C_10
    7  A    between atoms: O_4  and  C_17
    8  A    between atoms: C_6  and  O_19
    9  A    between atoms: N_9  and  C_18
   10  A    between atoms: N_9  and  C_30
   11  A    between atoms: C_16  and  C_23
   12  A    between atoms: C_16  and  C_33
   13  A    between atoms: C_20  and  N_24
   14  A    between atoms: C_23  and  C_27
   15  A    between atoms: C_27  and  C_30
                            x       y       z     vdW  Elec       q    Type
                         _______ _______ _______ _____ _____    ______ ____

>  <TORSDO>
F 15

$$$$
=
 OpenBabel11062423123D

 34 35  0  0  1  0  0  0  0  0999 V2000
  188.0020  172.2170  142.0070 O   0  0  0  0  0  1  0  0  0  0  0  0
  189.2280  172.7990  142.3710 C   0  0  1  0  0  0  0  0  0  0  0  0
  189.4530  172.6580  143.8210 N   0  0  0  0  0  2  0  0  0  0  0  0
  190.7110  173.1810  144.1760 N   0  0  0  0  0  0  0  0  0  0  0  0
  192.4730  175.5690  146.4310 C   0  0  0  0  0  0  0  0  0  0  0  0
  192.2860  174.5340  145.5840 C   0  0  0  0  0  0  0  0  0  0  0  0
  191.2750  176.2490  147.0590 C   0  0  2  0  0  3  0  0  0  0  0  0
  190.9200  174.0370  145.3030 C   0  0  0  0  0  0  0  0  0  0  0  0
  191.6250  176.8390  148.2760 O   0  0  0  0  0  1  0  0  0  0  0  0
  189.8890  174.4330  146.0620 C   0  0  0  0  0  2  0  0  0  0  0  0
  190.1270  175.2680  147.2850 C   0  0  0  0  0  2  0  0  0  0  0  0
  193.8330  176.1730  146.6310 C   0  0  0  0  0  2  0  0  0  0  0  0
  194.0190  177.2370  145.7470 O   0  0  0  0  0  1  0  0  0  0  0  0
  193.9460  172.7170  145.4160 C   0  0  0  0  0  1  0  0  0  0  0  0
  193.3610  173.9270  144.9240 O   0  0  0  0  0  0  0  0  0  0  0  0
  190.3120  172.1290  141.6450 N   0  0  0  0  0  2  0  0  0  0  0  0
  190.4700  171.8990  139.2250 C   0  0  0  0  0  1  0  0  0  0  0  0
  190.6310  172.8350  140.4040 C   0  0  0  0  0  2  0  0  0  0  0  0
  189.2620  174.2790  141.9450 C   0  0  0  0  0  2  0  0  0  0  0  0
  187.8860  174.9390  141.9270 C   0  0  0  0  0  2  0  0  0  0  0  0
  187.9310  176.2470  141.1680 C   0  0  0  0  0  2  0  0  0  0  0  0
  188.0160  177.4130  142.1340 C   0  0  0  0  0  2  0  0  0  0  0  0
  186.6240  177.9850  142.3830 C   0  0  2  0  0  3  0  0  0  0  0  0
  184.5240  177.8920  143.7760 C   0  0  0  0  0  2  0  0  0  0  0  0
  185.8410  177.1690  143.4280 C   0  0  2  0  0  3  0  0  0  0  0  0
  186.9310  178.1400  145.5040 C   0  0  0  0  0  2  0  0  0  0  0  0
  185.6520  178.9570  145.7930 C   0  0  1  0  0  0  0  0  0  0  0  0
  185.7860  180.1780  145.1210 O   0  0  0  0  0  1  0  0  0  0  0  0
  184.3800  178.2650  145.2590 C   0  0  0  0  0  2  0  0  0  0  0  0
  186.6780  176.8700  144.6840 C   0  0  0  0  0  2  0  0  0  0  0  0
  185.5440  179.2420  147.1780 O   0  0  0  0  0  0  0  0  0  0  0  0
  185.9180  178.1110  147.9310 C   0  0  0  0  0  1  0  0  0  0  0  0
  185.8860  178.0060  141.1090 C   0  0  0  0  0  0  0  0  0  0  0  0
  185.3150  178.0320  140.0970 N   0  0  0  0  0  0  0  0  0  0  0  0
  2  1  1  6  0  0  0
  2  3  1  0  0  0  0
  3  4  1  0  0  0  0
  4  8  2  0  0  0  0
  5 12  1  0  0  0  0
  5  7  1  0  0  0  0
  6  5  2  0  0  0  0
  7 11  1  0  0  0  0
  7  9  1  1  0  0  0
  8  6  1  0  0  0  0
  8 10  1  0  0  0  0
 10 11  1  0  0  0  0
 13 12  1  0  0  0  0
 15 14  1  0  0  0  0
 15  6  1  0  0  0  0
 16  2  1  0  0  0  0
 17 18  1  0  0  0  0
 18 16  1  0  0  0  0
 19  2  1  0  0  0  0
 20 19  1  0  0  0  0
 21 20  1  0  0  0  0
 21 22  1  0  0  0  0
 22 23  1  0  0  0  0
 23 33  1  6  0  0  0
 24 29  1  0  0  0  0
 25 23  1  6  0  0  0
 25 24  1  0  0  0  0
 25 30  1  0  0  0  0
 26 27  1  0  0  0  0
 27 28  1  6  0  0  0
 27 31  1  0  0  0  0
 29 27  1  0  0  0  0
 30 26  1  0  0  0  0
 31 32  1  0  0  0  0
 34 33  3  0  0  0  0
M  END
>  <MODEL>
5

>  <REMARK>
 VINA RESULT:      -5.9      2.387      5.749
  Name = 
  15 active torsions:
  status: ('A' for Active; 'I' for Inactive)
    1  A    between atoms: C_1  and  C_7
    2  A    between atoms: C_1  and  C_12
    3  A    between atoms: C_1  and  C_33
    4  A    between atoms: N_2  and  N_24
    5  A    between atoms: N_2  and  C_30
    6  A    between atoms: C_3  and  C_10
    7  A    between atoms: O_4  and  C_17
    8  A    between atoms: C_6  and  O_19
    9  A    between atoms: N_9  and  C_18
   10  A    between atoms: N_9  and  C_30
   11  A    between atoms: C_16  and  C_23
   12  A    between atoms: C_16  and  C_33
   13  A    between atoms: C_20  and  N_24
   14  A    between atoms: C_23  and  C_27
   15  A    between atoms: C_27  and  C_30
                            x       y       z     vdW  Elec       q    Type
                         _______ _______ _______ _____ _____    ______ ____

>  <TORSDO>
F 15

$$$$
=
 OpenBabel11062423123D

 34 35  0  0  1  0  0  0  0  0999 V2000
  191.2200  173.2300  144.7150 O   0  0  0  0  0  1  0  0  0  0  0  0
  190.7310  174.5130  145.0150 C   0  0  1  0  0  0  0  0  0  0  0  0
  189.2690  174.5600  144.8340 N   0  0  0  0  0  2  0  0  0  0  0  0
  188.8760  175.8180  144.3380 N   0  0  0  0  0  2  0  0  0  0  0  0
  186.3250  178.4810  144.8790 C   0  0  0  0  0  0  0  0  0  0  0  0
  187.3570  177.8150  144.3180 C   0  0  0  0  0  0  0  0  0  0  0  0
  185.8230  178.0720  146.2470 C   0  0  2  0  0  3  0  0  0  0  0  0
  188.0250  176.7170  145.0550 C   0  0  0  0  0  0  0  0  0  0  0  0
  185.2190  179.1530  146.8930 O   0  0  0  0  0  1  0  0  0  0  0  0
  187.7850  176.5380  146.3610 C   0  0  0  0  0  3  0  0  0  0  0  0
  186.9530  177.5290  147.1200 C   0  0  0  0  0  2  0  0  0  0  0  0
  185.5500  179.5070  144.1020 C   0  0  0  0  0  2  0  0  0  0  0  0
  184.3420  178.9640  143.6650 O   0  0  0  0  0  1  0  0  0  0  0  0
  187.1950  177.5100  141.8760 C   0  0  0  0  0  1  0  0  0  0  0  0
  187.8010  178.1110  143.0240 O   0  0  0  0  0  0  0  0  0  0  0  0
  191.0580  174.8380  146.4070 N   0  0  0  0  0  2  0  0  0  0  0  0
  191.3320  176.7460  147.8960 C   0  0  0  0  0  1  0  0  0  0  0  0
  191.6140  176.1860  146.5190 C   0  0  0  0  0  2  0  0  0  0  0  0
  191.4330  175.5690  144.1400 C   0  0  0  0  0  2  0  0  0  0  0  0
  192.3830  174.9690  143.1080 C   0  0  0  0  0  2  0  0  0  0  0  0
  193.4620  175.9620  142.7350 C   0  0  0  0  0  2  0  0  0  0  0  0
  194.3380  176.2610  143.9370 C   0  0  0  0  0  2  0  0  0  0  0  0
  195.4680  175.2410  144.0250 C   0  0  2  0  0  3  0  0  0  0  0  0
  197.0440  173.9940  145.5490 C   0  0  0  0  0  2  0  0  0  0  0  0
  195.7180  174.7770  145.4730 C   0  0  2  0  0  3  0  0  0  0  0  0
  194.4260  172.5950  145.3580 C   0  0  0  0  0  2  0  0  0  0  0  0
  195.7570  171.8110  145.3180 C   0  0  1  0  0  0  0  0  0  0  0  0
  196.1220  171.6940  143.9710 O   0  0  0  0  0  1  0  0  0  0  0  0
  196.8970  172.5490  146.0500 C   0  0  0  0  0  2  0  0  0  0  0  0
  194.5400  173.9650  146.0380 C   0  0  0  0  0  2  0  0  0  0  0  0
  195.5790  170.5000  145.8260 O   0  0  0  0  0  0  0  0  0  0  0  0
  195.5770  169.5690  144.7670 C   0  0  0  0  0  1  0  0  0  0  0  0
  196.6940  175.8430  143.4740 C   0  0  0  0  0  0  0  0  0  0  0  0
  197.6520  176.3250  143.0280 N   0  0  0  0  0  0  0  0  0  0  0  0
  2  1  1  6  0  0  0
  2 16  1  0  0  0  0
  3  2  1  0  0  0  0
  4  3  1  0  0  0  0
  4  8  1  0  0  0  0
  5  7  1  0  0  0  0
  6  5  2  0  0  0  0
  6  8  1  0  0  0  0
  7  9  1  1  0  0  0
  7 11  1  0  0  0  0
  8 10  2  0  0  0  0
 10 11  1  0  0  0  0
 12  5  1  0  0  0  0
 13 12  1  0  0  0  0
 14 15  1  0  0  0  0
 15  6  1  0  0  0  0
 16 18  1  0  0  0  0
 18 17  1  0  0  0  0
 19  2  1  0  0  0  0
 20 19  1  0  0  0  0
 21 20  1  0  0  0  0
 21 22  1  0  0  0  0
 22 23  1  0  0  0  0
 23 33  1  1  0  0  0
 24 29  1  0  0  0  0
 25 23  1  6  0  0  0
 25 24  1  0  0  0  0
 25 30  1  0  0  0  0
 26 30  1  0  0  0  0
 27 28  1  6  0  0  0
 27 26  1  0  0  0  0
 27 31  1  0  0  0  0
 27 29  1  0  0  0  0
 32 31  1  0  0  0  0
 34 33  3  0  0  0  0
M  END
>  <MODEL>
6

>  <REMARK>
 VINA RESULT:      -5.8      3.101      8.807
  Name = 
  15 active torsions:
  status: ('A' for Active; 'I' for Inactive)
    1  A    between atoms: C_1  and  C_7
    2  A    between atoms: C_1  and  C_12
    3  A    between atoms: C_1  and  C_33
    4  A    between atoms: N_2  and  N_24
    5  A    between atoms: N_2  and  C_30
    6  A    between atoms: C_3  and  C_10
    7  A    between atoms: O_4  and  C_17
    8  A    between atoms: C_6  and  O_19
    9  A    between atoms: N_9  and  C_18
   10  A    between atoms: N_9  and  C_30
   11  A    between atoms: C_16  and  C_23
   12  A    between atoms: C_16  and  C_33
   13  A    between atoms: C_20  and  N_24
   14  A    between atoms: C_23  and  C_27
   15  A    between atoms: C_27  and  C_30
                            x       y       z     vdW  Elec       q    Type
                         _______ _______ _______ _____ _____    ______ ____

>  <TORSDO>
F 15

$$$$
=
 OpenBabel11062423123D

 34 35  0  0  1  0  0  0  0  0999 V2000
  194.1200  176.7470  145.1190 O   0  0  0  0  0  1  0  0  0  0  0  0
  194.1030  175.3500  145.2650 C   0  0  1  0  0  0  0  0  0  0  0  0
  193.8630  174.6990  143.9640 N   0  0  0  0  0  2  0  0  0  0  0  0
  192.6280  174.0230  143.9750 N   0  0  0  0  0  2  0  0  0  0  0  0
  189.7150  173.6540  141.6790 C   0  0  0  0  0  0  0  0  0  0  0  0
  190.4260  173.6640  142.8270 C   0  0  0  0  0  0  0  0  0  0  0  0
  190.4360  173.7070  140.3490 C   0  0  2  0  0  3  0  0  0  0  0  0
  191.9060  173.6820  142.7870 C   0  0  0  0  0  0  0  0  0  0  0  0
  189.6640  173.1160  139.3460 O   0  0  0  0  0  1  0  0  0  0  0  0
  192.5530  173.4390  141.6390 C   0  0  0  0  0  3  0  0  0  0  0  0
  191.7930  173.0090  140.4190 C   0  0  0  0  0  2  0  0  0  0  0  0
  188.2170  173.7670  141.6930 C   0  0  0  0  0  2  0  0  0  0  0  0
  187.6480  172.5280  141.9890 O   0  0  0  0  0  1  0  0  0  0  0  0
  189.8000  172.5500  144.9360 C   0  0  0  0  0  1  0  0  0  0  0  0
  189.7960  173.6940  144.0770 O   0  0  0  0  0  0  0  0  0  0  0  0
  195.3960  174.9070  145.7970 N   0  0  0  0  0  2  0  0  0  0  0  0
  197.1190  174.9400  144.0770 C   0  0  0  0  0  1  0  0  0  0  0  0
  196.1160  174.0870  144.8230 C   0  0  0  0  0  2  0  0  0  0  0  0
  193.0370  174.9360  146.2980 C   0  0  0  0  0  2  0  0  0  0  0  0
  192.3390  176.1210  146.9600 C   0  0  0  0  0  2  0  0  0  0  0  0
  190.8370  176.0030  146.8170 C   0  0  0  0  0  2  0  0  0  0  0  0
  190.2090  177.3800  146.7250 C   0  0  0  0  0  2  0  0  0  0  0  0
  189.3690  177.4860  145.4550 C   0  0  2  0  0  3  0  0  0  0  0  0
  187.5330  176.4830  144.0480 C   0  0  0  0  0  2  0  0  0  0  0  0
  188.2500  176.4280  145.4120 C   0  0  2  0  0  3  0  0  0  0  0  0
  186.4100  177.8380  146.4450 C   0  0  0  0  0  2  0  0  0  0  0  0
  185.7490  177.9920  145.0570 C   0  0  1  0  0  0  0  0  0  0  0  0
  186.3140  179.1240  144.4580 O   0  0  0  0  0  1  0  0  0  0  0  0
  186.0290  176.7860  144.1360 C   0  0  0  0  0  2  0  0  0  0  0  0
  187.2630  176.5720  146.5830 C   0  0  0  0  0  2  0  0  0  0  0  0
  184.3580  178.2290  145.1900 O   0  0  0  0  0  0  0  0  0  0  0  0
  184.0050  178.2660  146.5540 C   0  0  0  0  0  1  0  0  0  0  0  0
  190.2540  177.3280  144.2890 C   0  0  0  0  0  0  0  0  0  0  0  0
  190.9610  177.1930  143.3770 N   0  0  0  0  0  0  0  0  0  0  0  0
  2  1  1  6  0  0  0
  2 16  1  0  0  0  0
  2 19  1  0  0  0  0
  3  4  1  0  0  0  0
  3  2  1  0  0  0  0
  5 12  1  0  0  0  0
  5  6  2  0  0  0  0
  6 15  1  0  0  0  0
  7  9  1  6  0  0  0
  7 11  1  0  0  0  0
  7  5  1  0  0  0  0
  8  6  1  0  0  0  0
  8  4  1  0  0  0  0
 10  8  2  0  0  0  0
 11 10  1  0  0  0  0
 12 13  1  0  0  0  0
 15 14  1  0  0  0  0
 17 18  1  0  0  0  0
 18 16  1  0  0  0  0
 19 20  1  0  0  0  0
 21 20  1  0  0  0  0
 22 21  1  0  0  0  0
 23 33  1  6  0  0  0
 23 22  1  0  0  0  0
 24 29  1  0  0  0  0
 24 25  1  0  0  0  0
 25 23  1  6  0  0  0
 25 30  1  0  0  0  0
 26 30  1  0  0  0  0
 27 28  1  6  0  0  0
 27 31  1  0  0  0  0
 27 26  1  0  0  0  0
 29 27  1  0  0  0  0
 31 32  1  0  0  0  0
 34 33  3  0  0  0  0
M  END
>  <MODEL>
7

>  <REMARK>
 VINA RESULT:      -5.8      2.326      3.684
  Name = 
  15 active torsions:
  status: ('A' for Active; 'I' for Inactive)
    1  A    between atoms: C_1  and  C_7
    2  A    between atoms: C_1  and  C_12
    3  A    between atoms: C_1  and  C_33
    4  A    between atoms: N_2  and  N_24
    5  A    between atoms: N_2  and  C_30
    6  A    between atoms: C_3  and  C_10
    7  A    between atoms: O_4  and  C_17
    8  A    between atoms: C_6  and  O_19
    9  A    between atoms: N_9  and  C_18
   10  A    between atoms: N_9  and  C_30
   11  A    between atoms: C_16  and  C_23
   12  A    between atoms: C_16  and  C_33
   13  A    between atoms: C_20  and  N_24
   14  A    between atoms: C_23  and  C_27
   15  A    between atoms: C_27  and  C_30
                            x       y       z     vdW  Elec       q    Type
                         _______ _______ _______ _____ _____    ______ ____

>  <TORSDO>
F 15

$$$$
=
 OpenBabel11062423123D

 34 35  0  0  1  0  0  0  0  0999 V2000
  191.4520  176.5700  145.1960 O   0  0  0  0  0  1  0  0  0  0  0  0
  191.4950  175.1690  145.2980 C   0  0  1  0  0  0  0  0  0  0  0  0
  191.7400  174.5650  143.9760 N   0  0  0  0  0  2  0  0  0  0  0  0
  192.1180  175.5530  143.0470 N   0  0  0  0  0  2  0  0  0  0  0  0
  194.3490  175.1190  140.0930 C   0  0  0  0  0  0  0  0  0  0  0  0
  193.3190  174.9090  140.9400 C   0  0  0  0  0  0  0  0  0  0  0  0
  195.5010  176.0050  140.5180 C   0  0  2  0  0  3  0  0  0  0  0  0
  193.3350  175.5050  142.2960 C   0  0  0  0  0  0  0  0  0  0  0  0
  196.6690  175.6530  139.8380 O   0  0  0  0  0  1  0  0  0  0  0  0
  194.4610  176.0420  142.7830 C   0  0  0  0  0  3  0  0  0  0  0  0
  195.7480  175.9200  142.0230 C   0  0  0  0  0  2  0  0  0  0  0  0
  194.2970  174.6350  138.6720 C   0  0  0  0  0  2  0  0  0  0  0  0
  193.8770  175.6660  137.8310 O   0  0  0  0  0  1  0  0  0  0  0  0
  192.1360  172.7500  140.7940 C   0  0  0  0  0  1  0  0  0  0  0  0
  192.2000  174.1600  140.5580 O   0  0  0  0  0  0  0  0  0  0  0  0
  192.5740  174.7870  146.2140 N   0  0  0  0  0  2  0  0  0  0  0  0
  194.9300  175.4000  146.1340 C   0  0  0  0  0  1  0  0  0  0  0  0
  193.5220  175.8860  146.4010 C   0  0  0  0  0  2  0  0  0  0  0  0
  190.1860  174.6410  145.9160 C   0  0  0  0  0  2  0  0  0  0  0  0
  189.6630  175.5020  147.0620 C   0  0  0  0  0  2  0  0  0  0  0  0
  188.1630  175.6700  146.9620 C   0  0  0  0  0  2  0  0  0  0  0  0
  187.8190  177.0850  146.5400 C   0  0  0  0  0  2  0  0  0  0  0  0
  186.7110  177.0610  145.4910 C   0  0  2  0  0  3  0  0  0  0  0  0
  185.9400  177.8260  143.2150 C   0  0  0  0  0  2  0  0  0  0  0  0
  187.0140  177.9990  144.3080 C   0  0  2  0  0  3  0  0  0  0  0  0
  188.5690  176.4490  143.0350 C   0  0  0  0  0  2  0  0  0  0  0  0
  187.4540  176.1820  141.9990 C   0  0  1  0  0  0  0  0  0  0  0  0
  186.7110  175.0920  142.4690 O   0  0  0  0  0  1  0  0  0  0  0  0
  186.4890  177.3780  141.8530 C   0  0  0  0  0  2  0  0  0  0  0  0
  188.4340  177.7980  143.7500 C   0  0  0  0  0  2  0  0  0  0  0  0
  188.0110  175.8110  140.7500 O   0  0  0  0  0  0  0  0  0  0  0  0
  188.5950  174.5310  140.8450 C   0  0  0  0  0  1  0  0  0  0  0  0
  185.4450  177.4560  146.1320 C   0  0  0  0  0  0  0  0  0  0  0  0
  184.4460  177.7530  146.6440 N   0  0  0  0  0  0  0  0  0  0  0  0
  2  1  1  6  0  0  0
  2 19  1  0  0  0  0
  2 16  1  0  0  0  0
  3  2  1  0  0  0  0
  4  3  1  0  0  0  0
  5  7  1  0  0  0  0
  5  6  2  0  0  0  0
  6  8  1  0  0  0  0
  7  9  1  6  0  0  0
  7 11  1  0  0  0  0
  8 10  2  0  0  0  0
  8  4  1  0  0  0  0
 11 10  1  0  0  0  0
 12  5  1  0  0  0  0
 13 12  1  0  0  0  0
 15 14  1  0  0  0  0
 15  6  1  0  0  0  0
 16 18  1  0  0  0  0
 17 18  1  0  0  0  0
 19 20  1  0  0  0  0
 21 20  1  0  0  0  0
 22 21  1  0  0  0  0
 23 33  1  1  0  0  0
 23 22  1  0  0  0  0
 24 25  1  0  0  0  0
 25 23  1  1  0  0  0
 26 30  1  0  0  0  0
 27 28  1  1  0  0  0
 27 26  1  0  0  0  0
 29 27  1  0  0  0  0
 29 24  1  0  0  0  0
 30 25  1  0  0  0  0
 31 32  1  0  0  0  0
 31 27  1  0  0  0  0
 33 34  3  0  0  0  0
M  END
>  <MODEL>
8

>  <REMARK>
 VINA RESULT:      -5.7      2.212      3.430
  Name = 
  15 active torsions:
  status: ('A' for Active; 'I' for Inactive)
    1  A    between atoms: C_1  and  C_7
    2  A    between atoms: C_1  and  C_12
    3  A    between atoms: C_1  and  C_33
    4  A    between atoms: N_2  and  N_24
    5  A    between atoms: N_2  and  C_30
    6  A    between atoms: C_3  and  C_10
    7  A    between atoms: O_4  and  C_17
    8  A    between atoms: C_6  and  O_19
    9  A    between atoms: N_9  and  C_18
   10  A    between atoms: N_9  and  C_30
   11  A    between atoms: C_16  and  C_23
   12  A    between atoms: C_16  and  C_33
   13  A    between atoms: C_20  and  N_24
   14  A    between atoms: C_23  and  C_27
   15  A    between atoms: C_27  and  C_30
                            x       y       z     vdW  Elec       q    Type
                         _______ _______ _______ _____ _____    ______ ____

>  <TORSDO>
F 15

$$$$
=
 OpenBabel11062423123D

 34 35  0  0  1  0  0  0  0  0999 V2000
  190.7650  174.8880  141.9410 O   0  0  0  0  0  1  0  0  0  0  0  0
  189.4360  175.2900  142.1550 C   0  0  1  0  0  0  0  0  0  0  0  0
  189.3560  176.7580  142.2760 N   0  0  0  0  0  2  0  0  0  0  0  0
  188.8480  177.1190  143.5380 N   0  0  0  0  0  2  0  0  0  0  0  0
  185.9640  178.6660  145.3230 C   0  0  0  0  0  0  0  0  0  0  0  0
  187.0730  177.9220  145.1190 C   0  0  0  0  0  0  0  0  0  0  0  0
  185.2040  179.2190  144.1370 C   0  0  2  0  0  3  0  0  0  0  0  0
  187.5200  177.6110  143.7410 C   0  0  0  0  0  0  0  0  0  0  0  0
  183.8610  179.4220  144.4630 O   0  0  0  0  0  1  0  0  0  0  0  0
  186.7100  177.8460  142.7010 C   0  0  0  0  0  3  0  0  0  0  0  0
  185.2950  178.2890  142.9280 C   0  0  0  0  0  2  0  0  0  0  0  0
  185.5650  179.1010  146.7040 C   0  0  0  0  0  2  0  0  0  0  0  0
  184.6070  178.2290  147.2220 O   0  0  0  0  0  1  0  0  0  0  0  0
  187.6400  176.1520  146.7400 C   0  0  0  0  0  1  0  0  0  0  0  0
  187.8470  177.4560  146.1880 O   0  0  0  0  0  0  0  0  0  0  0  0
  188.6140  174.8510  141.0230 N   0  0  0  0  0  2  0  0  0  0  0  0
  188.3070  172.7810  139.7780 C   0  0  0  0  0  1  0  0  0  0  0  0
  189.3000  173.8260  140.2380 C   0  0  0  0  0  2  0  0  0  0  0  0
  188.8660  174.5990  143.4080 C   0  0  0  0  0  2  0  0  0  0  0  0
  189.7500  173.4720  143.9360 C   0  0  0  0  0  2  0  0  0  0  0  0
  190.2030  173.7680  145.3490 C   0  0  0  0  0  2  0  0  0  0  0  0
  191.7170  173.7890  145.4220 C   0  0  0  0  0  2  0  0  0  0  0  0
  192.2010  175.1810  145.8160 C   0  0  2  0  0  3  0  0  0  0  0  0
  194.2600  176.6370  145.7470 C   0  0  0  0  0  2  0  0  0  0  0  0
  193.7240  175.2210  146.0440 C   0  0  2  0  0  3  0  0  0  0  0  0
  194.4350  174.4580  143.7300 C   0  0  0  0  0  2  0  0  0  0  0  0
  194.8660  175.9020  143.3870 C   0  0  1  0  0  0  0  0  0  0  0  0
  193.7440  176.5490  142.8560 O   0  0  0  0  0  1  0  0  0  0  0  0
  195.3170  176.6920  144.6340 C   0  0  0  0  0  2  0  0  0  0  0  0
  194.4660  174.1470  145.2310 C   0  0  0  0  0  2  0  0  0  0  0  0
  195.8700  175.8980  142.3860 O   0  0  0  0  0  0  0  0  0  0  0  0
  196.9320  176.7450  142.7670 C   0  0  0  0  0  1  0  0  0  0  0  0
  191.5000  175.5960  147.0420 C   0  0  0  0  0  0  0  0  0  0  0  0
  190.9430  175.9370  148.0030 N   0  0  0  0  0  0  0  0  0  0  0  0
  2  1  1  6  0  0  0
  2  3  1  0  0  0  0
  2 19  1  0  0  0  0
  3  4  1  0  0  0  0
  4  8  1  0  0  0  0
  5 12  1  0  0  0  0
  6  5  2  0  0  0  0
  6 15  1  0  0  0  0
  7  9  1  1  0  0  0
  7  5  1  0  0  0  0
  8  6  1  0  0  0  0
 10 11  1  0  0  0  0
 10  8  2  0  0  0  0
 11  7  1  0  0  0  0
 12 13  1  0  0  0  0
 15 14  1  0  0  0  0
 16  2  1  0  0  0  0
 17 18  1  0  0  0  0
 18 16  1  0  0  0  0
 19 20  1  0  0  0  0
 20 21  1  0  0  0  0
 21 22  1  0  0  0  0
 23 22  1  1  0  0  0
 23 33  1  0  0  0  0
 24 25  1  0  0  0  0
 25 23  1  6  0  0  0
 26 30  1  0  0  0  0
 27 28  1  6  0  0  0
 27 26  1  0  0  0  0
 27 29  1  0  0  0  0
 29 24  1  0  0  0  0
 30 25  1  0  0  0  0
 31 32  1  0  0  0  0
 31 27  1  0  0  0  0
 33 34  3  0  0  0  0
M  END
>  <MODEL>
9

>  <REMARK>
 VINA RESULT:      -5.7      2.510      7.794
  Name = 
  15 active torsions:
  status: ('A' for Active; 'I' for Inactive)
    1  A    between atoms: C_1  and  C_7
    2  A    between atoms: C_1  and  C_12
    3  A    between atoms: C_1  and  C_33
    4  A    between atoms: N_2  and  N_24
    5  A    between atoms: N_2  and  C_30
    6  A    between atoms: C_3  and  C_10
    7  A    between atoms: O_4  and  C_17
    8  A    between atoms: C_6  and  O_19
    9  A    between atoms: N_9  and  C_18
   10  A    between atoms: N_9  and  C_30
   11  A    between atoms: C_16  and  C_23
   12  A    between atoms: C_16  and  C_33
   13  A    between atoms: C_20  and  N_24
   14  A    between atoms: C_23  and  C_27
   15  A    between atoms: C_27  and  C_30
                            x       y       z     vdW  Elec       q    Type
                         _______ _______ _______ _____ _____    ______ ____

>  <TORSDO>
F 15

$$$$
