=
 OpenBabel11072409313D

 40 47  0  0  1  0  0  0  0  0999 V2000
  192.1330  175.6660  145.6160 C   0  0  0  0  0  1  0  0  0  0  0  0
  194.0760  174.7870  142.5750 O   0  0  0  0  0  1  0  0  0  0  0  0
  191.0700  175.8130  142.6860 N   0  0  0  0  0  2  0  0  0  0  0  0
  191.6730  174.4850  142.7720 C   0  0  2  0  0  3  0  0  0  0  0  0
  193.0380  174.5960  143.4930 C   0  0  2  0  0  0  0  0  0  0  0  0
  192.0160  176.7160  143.3280 C   0  0  2  0  0  3  0  0  0  0  0  0
  192.8680  175.8900  144.2870 C   0  0  1  0  0  3  0  0  0  0  0  0
  190.6220  172.7330  141.1210 C   0  0  0  0  0  0  0  0  0  0  0  0
  191.4240  173.4180  138.3440 C   0  0  0  0  0  3  0  0  0  0  0  0
  187.7690  172.9740  141.5480 C   0  0  0  0  0  3  0  0  0  0  0  0
  192.5020  173.7530  139.0640 C   0  0  0  0  0  3  0  0  0  0  0  0
  188.2500  173.3530  140.4010 N   0  0  0  0  0  0  0  0  0  0  0  0
  189.6380  173.2090  140.0730 C   0  0  2  0  0  3  0  0  0  0  0  0
  192.5060  174.1920  140.4750 C   0  0  0  0  0  3  0  0  0  0  0  0
  191.6500  173.7980  141.4240 C   0  0  0  0  0  0  0  0  0  0  0  0
  189.9330  172.2010  142.3550 C   0  0  0  0  0  3  0  0  0  0  0  0
  188.6230  172.3420  142.5640 C   0  0  0  0  0  3  0  0  0  0  0  0
  190.0260  173.4390  138.8190 C   0  0  0  0  0  3  0  0  0  0  0  0
  195.3130  174.1220  145.7040 N   0  0  0  0  0  0  0  0  0  0  0  0
  194.7890  173.2480  144.8010 C   0  0  0  0  0  0  0  0  0  0  0  0
  195.0280  171.2510  143.2830 C   0  0  0  0  0  2  0  0  0  0  0  0
  196.6210  174.0690  146.0700 C   0  0  0  0  0  3  0  0  0  0  0  0
  193.3420  173.3540  144.3740 C   0  0  2  0  0  3  0  0  0  0  0  0
  197.4670  173.1110  145.5130 C   0  0  0  0  0  3  0  0  0  0  0  0
  192.8410  172.1420  143.8290 O   0  0  0  0  0  0  0  0  0  0  0  0
  195.6060  172.2660  144.2220 C   0  0  0  0  0  0  0  0  0  0  0  0
  193.6680  171.7180  142.7650 C   0  0  0  0  0  2  0  0  0  0  0  0
  196.9510  172.1990  144.5860 C   0  0  0  0  0  3  0  0  0  0  0  0
  191.3030  177.9130  143.9500 C   0  0  0  0  0  2  0  0  0  0  0  0
  189.7910  177.8230  143.7540 C   0  0  0  0  0  2  0  0  0  0  0  0
  188.2580  176.1980  144.8870 C   0  0  0  0  0  2  0  0  0  0  0  0
  187.5760  177.5390  144.9940 C   0  0  1  0  0  0  0  0  0  0  0  0
  189.0940  177.4720  145.0670 C   0  0  2  0  0  3  0  0  0  0  0  0
  185.8260  178.7760  145.8960 O   0  0  0  0  0  0  0  0  0  0  0  0
  186.8730  178.1750  143.7960 C   0  0  1  0  0  3  0  0  0  0  0  0
  187.2000  177.6320  147.4020 O   0  0  0  0  0  0  0  0  0  0  0  0
  185.4270  177.6870  143.6300 C   0  0  0  0  0  2  0  0  0  0  0  0
  185.7080  178.9120  144.4760 C   0  0  1  0  0  0  0  0  0  0  0  0
  186.8780  177.9450  146.2220 C   0  0  0  0  0  0  0  0  0  0  0  0
  185.4990  180.1850  143.9500 O   0  0  0  0  0  1  0  0  0  0  0  0
  3  4  1  0  0  0  0
  3  6  1  0  0  0  0
  4 15  1  6  0  0  0
  4  5  1  0  0  0  0
  5  2  1  6  0  0  0
  5  7  1  0  0  0  0
  5 23  1  0  0  0  0
  6 29  1  1  0  0  0
  6  7  1  0  0  0  0
  7  1  1  1  0  0  0
  8 15  2  0  0  0  0
  8 16  1  0  0  0  0
  9 18  2  0  0  0  0
  9 11  1  0  0  0  0
 10 17  1  0  0  0  0
 11 14  2  0  0  0  0
 12 10  2  0  0  0  0
 13 18  1  6  0  0  0
 13 12  1  0  0  0  0
 13  8  1  0  0  0  0
 14 15  1  0  0  0  0
 16 17  2  0  0  0  0
 19 22  1  0  0  0  0
 20 19  2  0  0  0  0
 21 26  1  0  0  0  0
 23 25  1  6  0  0  0
 23 20  1  0  0  0  0
 24 22  2  0  0  0  0
 26 28  2  0  0  0  0
 26 20  1  0  0  0  0
 27 21  1  0  0  0  0
 27 25  1  0  0  0  0
 28 24  1  0  0  0  0
 30 29  1  0  0  0  0
 31 33  1  0  0  0  0
 32 31  1  6  0  0  0
 32 33  1  0  0  0  0
 32 39  1  0  0  0  0
 33 30  1  6  0  0  0
 34 39  1  0  0  0  0
 35 37  1  6  0  0  0
 35 38  1  0  0  0  0
 35 32  1  0  0  0  0
 37 38  1  0  0  0  0
 38 40  1  6  0  0  0
 38 34  1  0  0  0  0
 39 36  2  0  0  0  0
M  END
>  <MODEL>
1

>  <REMARK>
 VINA RESULT:      -8.3      0.000      0.000
  Name = 
  5 active torsions:
  status: ('A' for Active; 'I' for Inactive)
    1  A    between atoms: C_4  and  C_14
    2  A    between atoms: C_8  and  C_14
    3  A    between atoms: C_8  and  C_29
    4  A    between atoms: C_17  and  C_25
    5  A    between atoms: C_27  and  C_28
                            x       y       z     vdW  Elec       q    Type
                         _______ _______ _______ _____ _____    ______ ____

>  <TORSDO>
F 5

$$$$
=
 OpenBabel11072409313D

 40 47  0  0  1  0  0  0  0  0999 V2000
  192.5680  173.6120  141.6890 C   0  0  0  0  0  1  0  0  0  0  0  0
  191.8510  173.7810  145.3290 O   0  0  0  0  0  1  0  0  0  0  0  0
  189.7460  174.0060  142.9590 N   0  0  0  0  0  2  0  0  0  0  0  0
  190.5790  174.9890  143.6480 C   0  0  2  0  0  3  0  0  0  0  0  0
  191.9200  174.3260  144.0420 C   0  0  2  0  0  0  0  0  0  0  0  0
  190.5340  172.7820  142.9220 C   0  0  2  0  0  3  0  0  0  0  0  0
  192.0030  173.1710  143.0460 C   0  0  1  0  0  3  0  0  0  0  0  0
  189.2630  177.0820  144.5370 C   0  0  0  0  0  0  0  0  0  0  0  0
  187.5370  176.2480  146.8060 C   0  0  0  0  0  3  0  0  0  0  0  0
  187.7380  177.9890  142.2500 C   0  0  0  0  0  3  0  0  0  0  0  0
  188.6230  175.4800  146.9520 C   0  0  0  0  0  3  0  0  0  0  0  0
  187.0880  177.4960  143.2630 N   0  0  0  0  0  0  0  0  0  0  0  0
  187.7510  177.0850  144.4650 C   0  0  0  0  0  0  0  0  0  0  0  0
  189.5160  175.0180  145.8680 C   0  0  0  0  0  3  0  0  0  0  0  0
  189.7950  175.6820  144.7410 C   0  0  0  0  0  0  0  0  0  0  0  0
  189.8950  177.7950  143.3640 C   0  0  0  0  0  2  0  0  0  0  0  0
  189.1950  178.1830  142.2970 C   0  0  0  0  0  3  0  0  0  0  0  0
  187.0110  176.7700  145.5290 C   0  0  0  0  0  3  0  0  0  0  0  0
  195.0550  173.7730  143.6430 N   0  0  0  0  0  0  0  0  0  0  0  0
  194.4330  174.7200  144.3990 C   0  0  0  0  0  0  0  0  0  0  0  0
  194.3590  176.2110  146.4300 C   0  0  0  0  0  2  0  0  0  0  0  0
  196.2200  173.1970  144.0410 C   0  0  0  0  0  3  0  0  0  0  0  0
  193.1140  175.3150  143.9580 C   0  0  2  0  0  3  0  0  0  0  0  0
  196.8040  173.5610  145.2530 C   0  0  0  0  0  3  0  0  0  0  0  0
  192.8480  176.5710  144.5680 O   0  0  0  0  0  0  0  0  0  0  0  0
  194.9920  175.1180  145.6220 C   0  0  0  0  0  0  0  0  0  0  0  0
  192.9190  176.4440  145.9730 C   0  0  0  0  0  2  0  0  0  0  0  0
  196.1860  174.5350  146.0450 C   0  0  0  0  0  3  0  0  0  0  0  0
  190.1810  171.9340  141.7020 C   0  0  0  0  0  2  0  0  0  0  0  0
  190.4650  170.4550  141.9520 C   0  0  0  0  0  2  0  0  0  0  0  0
  192.0210  168.5410  141.5180 C   0  0  0  0  0  2  0  0  0  0  0  0
  192.8080  169.5180  142.3570 C   0  0  1  0  0  0  0  0  0  0  0  0
  191.8070  170.0500  141.3420 C   0  0  2  0  0  3  0  0  0  0  0  0
  194.8670  170.1000  143.2640 O   0  0  0  0  0  0  0  0  0  0  0  0
  192.5590  169.6620  143.8570 C   0  0  1  0  0  3  0  0  0  0  0  0
  194.7800  169.7940  140.9490 O   0  0  0  0  0  0  0  0  0  0  0  0
  193.3450  168.6380  144.6880 C   0  0  0  0  0  2  0  0  0  0  0  0
  193.9720  169.9810  144.3740 C   0  0  1  0  0  0  0  0  0  0  0  0
  194.2250  169.7920  142.0830 C   0  0  0  0  0  0  0  0  0  0  0  0
  193.9740  170.9900  145.3350 O   0  0  0  0  0  1  0  0  0  0  0  0
  3  4  1  0  0  0  0
  4  5  1  0  0  0  0
  4 15  1  1  0  0  0
  5  2  1  1  0  0  0
  6 29  1  6  0  0  0
  6  3  1  0  0  0  0
  6  7  1  0  0  0  0
  7  1  1  6  0  0  0
  7  5  1  0  0  0  0
  8 15  2  0  0  0  0
  9 11  1  0  0  0  0
 10 17  2  0  0  0  0
 10 12  1  0  0  0  0
 12 13  2  0  0  0  0
 13  8  1  0  0  0  0
 13 18  1  0  0  0  0
 14 11  2  0  0  0  0
 15 14  1  0  0  0  0
 16  8  1  0  0  0  0
 17 16  1  0  0  0  0
 18  9  2  0  0  0  0
 19 22  2  0  0  0  0
 19 20  1  0  0  0  0
 20 26  2  0  0  0  0
 22 24  1  0  0  0  0
 23  5  1  0  0  0  0
 23 20  1  1  0  0  0
 23 25  1  0  0  0  0
 24 28  2  0  0  0  0
 25 27  1  0  0  0  0
 26 28  1  0  0  0  0
 26 21  1  0  0  0  0
 27 21  1  0  0  0  0
 29 30  1  0  0  0  0
 32 31  1  6  0  0  0
 32 35  1  0  0  0  0
 33 31  1  0  0  0  0
 33 30  1  1  0  0  0
 33 32  1  0  0  0  0
 34 38  1  0  0  0  0
 35 38  1  0  0  0  0
 35 37  1  1  0  0  0
 36 39  2  0  0  0  0
 38 37  1  0  0  0  0
 38 40  1  1  0  0  0
 39 32  1  0  0  0  0
 39 34  1  0  0  0  0
M  END
>  <MODEL>
2

>  <REMARK>
 VINA RESULT:      -8.2      2.714      7.173
  Name = 
  5 active torsions:
  status: ('A' for Active; 'I' for Inactive)
    1  A    between atoms: C_4  and  C_14
    2  A    between atoms: C_8  and  C_14
    3  A    between atoms: C_8  and  C_29
    4  A    between atoms: C_17  and  C_25
    5  A    between atoms: C_27  and  C_28
                            x       y       z     vdW  Elec       q    Type
                         _______ _______ _______ _____ _____    ______ ____

>  <TORSDO>
F 5

$$$$
=
 OpenBabel11072409313D

 40 47  0  0  1  0  0  0  0  0999 V2000
  192.1970  173.5740  141.5330 C   0  0  0  0  0  1  0  0  0  0  0  0
  191.5530  173.7700  145.1860 O   0  0  0  0  0  1  0  0  0  0  0  0
  189.4170  174.0870  142.8540 N   0  0  0  0  0  2  0  0  0  0  0  0
  190.3040  175.0330  143.5280 C   0  0  2  0  0  3  0  0  0  0  0  0
  191.6230  174.3130  143.8980 C   0  0  2  0  0  0  0  0  0  0  0  0
  190.1510  172.8300  142.8020 C   0  0  2  0  0  3  0  0  0  0  0  0
  191.6380  173.1560  142.9000 C   0  0  1  0  0  3  0  0  0  0  0  0
  189.0520  177.1620  144.4230 C   0  0  0  0  0  0  0  0  0  0  0  0
  187.3970  176.3970  146.7670 C   0  0  0  0  0  3  0  0  0  0  0  0
  187.4590  178.0510  142.1760 C   0  0  0  0  0  3  0  0  0  0  0  0
  188.4760  175.6150  146.8890 C   0  0  0  0  0  3  0  0  0  0  0  0
  186.8390  177.5870  143.2190 N   0  0  0  0  0  0  0  0  0  0  0  0
  187.5390  177.1870  144.4050 C   0  0  0  0  0  0  0  0  0  0  0  0
  189.3220  175.1190  145.7830 C   0  0  0  0  0  3  0  0  0  0  0  0
  189.5710  175.7590  144.6350 C   0  0  0  0  0  0  0  0  0  0  0  0
  189.6520  177.8430  143.2150 C   0  0  0  0  0  2  0  0  0  0  0  0
  188.9200  178.2230  142.1670 C   0  0  0  0  0  3  0  0  0  0  0  0
  186.8330  176.9040  145.5000 C   0  0  0  0  0  3  0  0  0  0  0  0
  194.7500  173.6230  143.7240 N   0  0  0  0  0  0  0  0  0  0  0  0
  194.1270  174.6540  144.3560 C   0  0  0  0  0  0  0  0  0  0  0  0
  194.0040  176.3250  146.2390 C   0  0  0  0  0  2  0  0  0  0  0  0
  195.8700  173.0460  144.2360 C   0  0  0  0  0  3  0  0  0  0  0  0
  192.8560  175.2500  143.7920 C   0  0  2  0  0  3  0  0  0  0  0  0
  196.4040  173.4990  145.4410 C   0  0  0  0  0  3  0  0  0  0  0  0
  192.6070  176.5640  144.2720 O   0  0  0  0  0  0  0  0  0  0  0  0
  194.6360  175.1430  145.5680 C   0  0  0  0  0  0  0  0  0  0  0  0
  192.5990  176.5630  145.6850 C   0  0  0  0  0  2  0  0  0  0  0  0
  195.7830  174.5610  146.1080 C   0  0  0  0  0  3  0  0  0  0  0  0
  189.7410  172.0000  141.5890 C   0  0  0  0  0  2  0  0  0  0  0  0
  188.6600  172.7040  140.7740 C   0  0  0  0  0  2  0  0  0  0  0  0
  188.3810  173.2490  138.3440 C   0  0  0  0  0  2  0  0  0  0  0  0
  189.6970  172.5160  138.4460 C   0  0  1  0  0  0  0  0  0  0  0  0
  189.2710  173.4370  139.5800 C   0  0  2  0  0  3  0  0  0  0  0  0
  191.6420  171.8340  137.3720 O   0  0  0  0  0  0  0  0  0  0  0  0
  189.7530  171.0020  138.6410 C   0  0  1  0  0  3  0  0  0  0  0  0
  191.1620  174.1220  137.3400 O   0  0  0  0  0  0  0  0  0  0  0  0
  189.6660  170.2310  137.3160 C   0  0  0  0  0  2  0  0  0  0  0  0
  191.0230  170.6370  137.8530 C   0  0  1  0  0  0  0  0  0  0  0  0
  190.8680  172.9380  137.6650 C   0  0  0  0  0  0  0  0  0  0  0  0
  191.8160  169.7050  138.5190 O   0  0  0  0  0  1  0  0  0  0  0  0
  3  4  1  0  0  0  0
  4  5  1  0  0  0  0
  4 15  1  1  0  0  0
  5  2  1  1  0  0  0
  6 29  1  6  0  0  0
  6  3  1  0  0  0  0
  6  7  1  0  0  0  0
  7  1  1  6  0  0  0
  7  5  1  0  0  0  0
  8 15  2  0  0  0  0
  9 11  1  0  0  0  0
 10 12  1  0  0  0  0
 12 13  2  0  0  0  0
 13  8  1  0  0  0  0
 13 18  1  0  0  0  0
 14 11  2  0  0  0  0
 15 14  1  0  0  0  0
 16  8  1  0  0  0  0
 17 10  2  0  0  0  0
 17 16  1  0  0  0  0
 18  9  2  0  0  0  0
 19 22  2  0  0  0  0
 19 20  1  0  0  0  0
 20 26  2  0  0  0  0
 22 24  1  0  0  0  0
 23  5  1  0  0  0  0
 23 25  1  1  0  0  0
 23 20  1  0  0  0  0
 24 28  2  0  0  0  0
 25 27  1  0  0  0  0
 26 28  1  0  0  0  0
 26 21  1  0  0  0  0
 27 21  1  0  0  0  0
 30 29  1  0  0  0  0
 31 33  1  0  0  0  0
 32 31  1  6  0  0  0
 32 35  1  0  0  0  0
 32 33  1  0  0  0  0
 33 30  1  1  0  0  0
 34 39  1  0  0  0  0
 34 38  1  0  0  0  0
 35 37  1  6  0  0  0
 36 39  2  0  0  0  0
 37 38  1  0  0  0  0
 38 40  1  1  0  0  0
 38 35  1  0  0  0  0
 39 32  1  0  0  0  0
M  END
>  <MODEL>
3

>  <REMARK>
 VINA RESULT:      -8.2      2.509      6.828
  Name = 
  5 active torsions:
  status: ('A' for Active; 'I' for Inactive)
    1  A    between atoms: C_4  and  C_14
    2  A    between atoms: C_8  and  C_14
    3  A    between atoms: C_8  and  C_29
    4  A    between atoms: C_17  and  C_25
    5  A    between atoms: C_27  and  C_28
                            x       y       z     vdW  Elec       q    Type
                         _______ _______ _______ _____ _____    ______ ____

>  <TORSDO>
F 5

$$$$
=
 OpenBabel11072409313D

 40 47  0  0  1  0  0  0  0  0999 V2000
  189.8270  176.4500  142.7060 C   0  0  0  0  0  1  0  0  0  0  0  0
  190.8160  172.9060  143.2120 O   0  0  0  0  0  1  0  0  0  0  0  0
  191.7200  175.4050  144.9550 N   0  0  0  0  0  2  0  0  0  0  0  0
  192.2520  174.7940  143.7390 C   0  0  2  0  0  3  0  0  0  0  0  0
  191.0770  174.2440  142.8950 C   0  0  2  0  0  0  0  0  0  0  0  0
  190.2750  175.2470  144.8740 C   0  0  2  0  0  3  0  0  0  0  0  0
  189.9070  175.0850  143.4020 C   0  0  1  0  0  3  0  0  0  0  0  0
  194.7860  174.1190  143.5860 C   0  0  1  0  0  3  0  0  0  0  0  0
  195.4040  172.1820  145.7520 C   0  0  0  0  0  3  0  0  0  0  0  0
  196.2110  176.6200  143.8880 C   0  0  0  0  0  3  0  0  0  0  0  0
  194.1500  171.8630  145.4060 C   0  0  0  0  0  3  0  0  0  0  0  0
  196.3180  175.7370  144.8350 N   0  0  0  0  0  0  0  0  0  0  0  0
  195.7050  174.4450  144.7440 C   0  0  0  0  0  0  0  0  0  0  0  0
  193.1380  172.7850  144.8510 C   0  0  0  0  0  3  0  0  0  0  0  0
  193.3810  173.8420  144.0680 C   0  0  0  0  0  0  0  0  0  0  0  0
  194.8470  175.1610  142.4930 C   0  0  0  0  0  3  0  0  0  0  0  0
  195.4770  176.3260  142.6470 C   0  0  0  0  0  3  0  0  0  0  0  0
  196.0120  173.5240  145.6580 C   0  0  0  0  0  3  0  0  0  0  0  0
  189.0120  174.3860  140.4450 N   0  0  0  0  0  0  0  0  0  0  0  0
  190.2340  173.7910  140.5120 C   0  0  0  0  0  0  0  0  0  0  0  0
  191.8310  171.9670  139.8220 C   0  0  0  0  0  2  0  0  0  0  0  0
  187.9990  173.8510  139.7120 C   0  0  0  0  0  3  0  0  0  0  0  0
  191.3320  174.3780  141.3690 C   0  0  2  0  0  3  0  0  0  0  0  0
  188.1910  172.6610  139.0130 C   0  0  0  0  0  3  0  0  0  0  0  0
  192.6270  173.9450  140.9760 O   0  0  0  0  0  0  0  0  0  0  0  0
  190.4700  172.5950  139.8180 C   0  0  0  0  0  0  0  0  0  0  0  0
  192.6750  172.5330  140.9640 C   0  0  0  0  0  2  0  0  0  0  0  0
  189.4410  172.0330  139.0630 C   0  0  0  0  0  3  0  0  0  0  0  0
  189.5530  176.3720  145.6100 C   0  0  0  0  0  2  0  0  0  0  0  0
  188.1830  175.9200  146.1080 C   0  0  0  0  0  2  0  0  0  0  0  0
  185.8440  176.7160  146.5230 C   0  0  0  0  0  2  0  0  0  0  0  0
  186.3710  177.5770  145.4010 C   0  0  1  0  0  0  0  0  0  0  0  0
  187.3240  177.1220  146.4970 C   0  0  2  0  0  3  0  0  0  0  0  0
  186.0280  179.4170  144.0230 O   0  0  0  0  0  0  0  0  0  0  0  0
  186.4970  177.0410  143.9770 C   0  0  1  0  0  3  0  0  0  0  0  0
  185.9410  179.7910  146.3290 O   0  0  0  0  0  0  0  0  0  0  0  0
  185.1910  177.1660  143.1790 C   0  0  0  0  0  2  0  0  0  0  0  0
  186.1960  178.2990  143.1460 C   0  0  1  0  0  0  0  0  0  0  0  0
  186.0800  179.0160  145.3420 C   0  0  0  0  0  0  0  0  0  0  0  0
  187.0530  178.4380  142.0560 O   0  0  0  0  0  1  0  0  0  0  0  0
  4 15  1  1  0  0  0
  4  3  1  0  0  0  0
  5  2  1  1  0  0  0
  5  7  1  0  0  0  0
  5  4  1  0  0  0  0
  6  3  1  0  0  0  0
  6 29  1  6  0  0  0
  7  1  1  6  0  0  0
  7  6  1  0  0  0  0
  8 16  1  6  0  0  0
  8 15  1  0  0  0  0
  8 13  1  0  0  0  0
 10 12  2  0  0  0  0
 11  9  2  0  0  0  0
 13 12  1  0  0  0  0
 13 18  2  0  0  0  0
 14 11  1  0  0  0  0
 15 14  2  0  0  0  0
 16 17  2  0  0  0  0
 17 10  1  0  0  0  0
 18  9  1  0  0  0  0
 19 20  1  0  0  0  0
 21 27  1  0  0  0  0
 22 19  2  0  0  0  0
 23 20  1  6  0  0  0
 23  5  1  0  0  0  0
 24 28  2  0  0  0  0
 24 22  1  0  0  0  0
 25 23  1  0  0  0  0
 26 21  1  0  0  0  0
 26 20  2  0  0  0  0
 27 25  1  0  0  0  0
 28 26  1  0  0  0  0
 29 30  1  0  0  0  0
 32 33  1  0  0  0  0
 32 31  1  1  0  0  0
 33 30  1  6  0  0  0
 33 31  1  0  0  0  0
 34 39  1  0  0  0  0
 35 37  1  1  0  0  0
 35 32  1  0  0  0  0
 38 40  1  6  0  0  0
 38 37  1  0  0  0  0
 38 35  1  0  0  0  0
 38 34  1  0  0  0  0
 39 32  1  0  0  0  0
 39 36  2  0  0  0  0
M  END
>  <MODEL>
4

>  <REMARK>
 VINA RESULT:      -7.8      1.704      5.595
  Name = 
  5 active torsions:
  status: ('A' for Active; 'I' for Inactive)
    1  A    between atoms: C_4  and  C_14
    2  A    between atoms: C_8  and  C_14
    3  A    between atoms: C_8  and  C_29
    4  A    between atoms: C_17  and  C_25
    5  A    between atoms: C_27  and  C_28
                            x       y       z     vdW  Elec       q    Type
                         _______ _______ _______ _____ _____    ______ ____

>  <TORSDO>
F 5

$$$$
=
 OpenBabel11072409313D

 40 47  0  0  1  0  0  0  0  0999 V2000
  192.1070  170.6940  143.5670 C   0  0  0  0  0  1  0  0  0  0  0  0
  194.6020  172.7290  145.4180 O   0  0  0  0  0  1  0  0  0  0  0  0
  192.8030  173.6780  142.9760 N   0  0  0  0  0  2  0  0  0  0  0  0
  194.1070  173.0240  143.0580 C   0  0  2  0  0  3  0  0  0  0  0  0
  194.1210  172.0740  144.2790 C   0  0  2  0  0  0  0  0  0  0  0  0
  192.0330  173.1560  144.0970 C   0  0  2  0  0  3  0  0  0  0  0  0
  192.6310  171.8070  144.4850 C   0  0  1  0  0  3  0  0  0  0  0  0
  195.9740  174.2280  141.6540 C   0  0  0  0  0  0  0  0  0  0  0  0
  196.6790  176.7910  142.9790 C   0  0  0  0  0  3  0  0  0  0  0  0
  194.7710  174.6130  139.0500 C   0  0  0  0  0  3  0  0  0  0  0  0
  196.4210  175.9760  144.0100 C   0  0  0  0  0  3  0  0  0  0  0  0
  195.0220  175.6660  139.7700 N   0  0  0  0  0  0  0  0  0  0  0  0
  195.6770  175.5800  141.0420 C   0  0  0  0  0  0  0  0  0  0  0  0
  195.4930  174.8270  144.0000 C   0  0  0  0  0  3  0  0  0  0  0  0
  195.2230  174.0410  142.9520 C   0  0  0  0  0  0  0  0  0  0  0  0
  195.7640  173.0960  140.6760 C   0  0  0  0  0  2  0  0  0  0  0  0
  195.1800  173.2710  139.4900 C   0  0  0  0  0  3  0  0  0  0  0  0
  196.0720  176.7060  141.6360 C   0  0  0  0  0  3  0  0  0  0  0  0
  194.2640  169.3170  145.9120 N   0  0  0  0  0  0  0  0  0  0  0  0
  195.2550  169.9930  145.2690 C   0  0  0  0  0  0  0  0  0  0  0  0
  197.6740  170.6700  145.0560 C   0  0  0  0  0  2  0  0  0  0  0  0
  194.5020  168.6270  147.0590 C   0  0  0  0  0  3  0  0  0  0  0  0
  194.9580  170.7930  144.0200 C   0  0  2  0  0  3  0  0  0  0  0  0
  195.7810  168.6050  147.6130 C   0  0  0  0  0  3  0  0  0  0  0  0
  196.1170  171.0280  143.2320 O   0  0  0  0  0  0  0  0  0  0  0  0
  196.5570  169.9910  145.7910 C   0  0  0  0  0  0  0  0  0  0  0  0
  197.1140  171.6450  144.0200 C   0  0  0  0  0  2  0  0  0  0  0  0
  196.8170  169.2890  146.9680 C   0  0  0  0  0  3  0  0  0  0  0  0
  190.5390  173.1450  143.7840 C   0  0  0  0  0  2  0  0  0  0  0  0
  189.7040  173.2310  145.0590 C   0  0  0  0  0  2  0  0  0  0  0  0
  189.3120  174.5430  147.1570 C   0  0  0  0  0  2  0  0  0  0  0  0
  189.6070  175.5680  146.0890 C   0  0  1  0  0  0  0  0  0  0  0  0
  190.3190  174.2240  146.0440 C   0  0  2  0  0  3  0  0  0  0  0  0
  190.0280  177.7970  145.5810 O   0  0  0  0  0  0  0  0  0  0  0  0
  188.5680  175.9420  145.0340 C   0  0  1  0  0  3  0  0  0  0  0  0
  191.4210  176.7910  147.1650 O   0  0  0  0  0  0  0  0  0  0  0  0
  187.6000  177.0320  145.5170 C   0  0  0  0  0  2  0  0  0  0  0  0
  188.8790  177.4320  144.8100 C   0  0  1  0  0  0  0  0  0  0  0  0
  190.4440  176.7430  146.3680 C   0  0  0  0  0  0  0  0  0  0  0  0
  188.8480  177.7880  143.4630 O   0  0  0  0  0  1  0  0  0  0  0  0
  3  4  1  0  0  0  0
  3  6  1  0  0  0  0
  4 15  1  1  0  0  0
  4  5  1  0  0  0  0
  5  7  1  0  0  0  0
  5  2  1  1  0  0  0
  6 29  1  6  0  0  0
  6  7  1  0  0  0  0
  7  1  1  6  0  0  0
  8 15  2  0  0  0  0
  9 11  1  0  0  0  0
 10 17  2  0  0  0  0
 10 12  1  0  0  0  0
 12 13  2  0  0  0  0
 13 18  1  0  0  0  0
 13  8  1  0  0  0  0
 14 11  2  0  0  0  0
 15 14  1  0  0  0  0
 16  8  1  0  0  0  0
 17 16  1  0  0  0  0
 18  9  2  0  0  0  0
 19 22  1  0  0  0  0
 20 26  1  0  0  0  0
 20 19  2  0  0  0  0
 21 26  1  0  0  0  0
 22 24  2  0  0  0  0
 23 25  1  1  0  0  0
 23  5  1  0  0  0  0
 23 20  1  0  0  0  0
 25 27  1  0  0  0  0
 26 28  2  0  0  0  0
 27 21  1  0  0  0  0
 28 24  1  0  0  0  0
 29 30  1  0  0  0  0
 32 39  1  0  0  0  0
 32 31  1  1  0  0  0
 33 30  1  6  0  0  0
 33 32  1  0  0  0  0
 33 31  1  0  0  0  0
 34 39  1  0  0  0  0
 35 37  1  1  0  0  0
 35 32  1  0  0  0  0
 38 40  1  6  0  0  0
 38 35  1  0  0  0  0
 38 37  1  0  0  0  0
 38 34  1  0  0  0  0
 39 36  2  0  0  0  0
M  END
>  <MODEL>
5

>  <REMARK>
 VINA RESULT:      -7.7      2.917      4.770
  Name = 
  5 active torsions:
  status: ('A' for Active; 'I' for Inactive)
    1  A    between atoms: C_4  and  C_14
    2  A    between atoms: C_8  and  C_14
    3  A    between atoms: C_8  and  C_29
    4  A    between atoms: C_17  and  C_25
    5  A    between atoms: C_27  and  C_28
                            x       y       z     vdW  Elec       q    Type
                         _______ _______ _______ _____ _____    ______ ____

>  <TORSDO>
F 5

$$$$
=
 OpenBabel11072409313D

 40 47  0  0  1  0  0  0  0  0999 V2000
  188.5640  174.1640  139.8180 C   0  0  0  0  0  1  0  0  0  0  0  0
  190.3920  171.5610  141.7360 O   0  0  0  0  0  1  0  0  0  0  0  0
  189.6350  174.4820  142.7310 N   0  0  0  0  0  2  0  0  0  0  0  0
  190.7780  173.9450  141.9960 C   0  0  2  0  0  3  0  0  0  0  0  0
  190.2940  172.7940  141.0820 C   0  0  2  0  0  0  0  0  0  0  0  0
  188.4860  173.7020  142.2940 C   0  0  2  0  0  3  0  0  0  0  0  0
  188.8120  173.1250  140.9200 C   0  0  1  0  0  3  0  0  0  0  0  0
  192.8830  174.7530  143.3440 C   0  0  1  0  0  3  0  0  0  0  0  0
  193.4550  172.7990  145.5060 C   0  0  0  0  0  3  0  0  0  0  0  0
  192.1210  177.3530  144.3650 C   0  0  0  0  0  3  0  0  0  0  0  0
  193.0110  172.0260  144.5080 C   0  0  0  0  0  3  0  0  0  0  0  0
  192.2900  176.3860  145.2170 N   0  0  0  0  0  0  0  0  0  0  0  0
  192.7320  175.0840  144.8140 C   0  0  0  0  0  0  0  0  0  0  0  0
  192.0570  172.4300  143.4530 C   0  0  0  0  0  3  0  0  0  0  0  0
  191.9300  173.6550  142.9330 C   0  0  0  0  0  0  0  0  0  0  0  0
  192.7920  175.9810  142.4680 C   0  0  0  0  0  3  0  0  0  0  0  0
  192.4100  177.1700  142.9340 C   0  0  0  0  0  3  0  0  0  0  0  0
  193.0660  174.2010  145.7550 C   0  0  0  0  0  3  0  0  0  0  0  0
  189.8090  171.0010  138.4670 N   0  0  0  0  0  0  0  0  0  0  0  0
  190.9790  171.4040  139.0340 C   0  0  0  0  0  0  0  0  0  0  0  0
  193.4140  171.0170  139.5610 C   0  0  0  0  0  2  0  0  0  0  0  0
  189.6910  169.7890  137.8630 C   0  0  0  0  0  3  0  0  0  0  0  0
  191.0750  172.7370  139.7410 C   0  0  2  0  0  3  0  0  0  0  0  0
  190.7780  168.9180  137.8190 C   0  0  0  0  0  3  0  0  0  0  0  0
  192.4120  173.2060  139.8490 O   0  0  0  0  0  0  0  0  0  0  0  0
  192.0980  170.5590  139.0070 C   0  0  0  0  0  0  0  0  0  0  0  0
  193.2130  172.2250  140.4750 C   0  0  0  0  0  2  0  0  0  0  0  0
  191.9930  169.3110  138.3920 C   0  0  0  0  0  3  0  0  0  0  0  0
  187.2000  174.5200  142.3730 C   0  0  0  0  0  2  0  0  0  0  0  0
  187.4940  175.9890  142.6660 C   0  0  0  0  0  2  0  0  0  0  0  0
  186.8090  178.0240  143.9570 C   0  0  0  0  0  2  0  0  0  0  0  0
  187.0270  176.9450  144.9900 C   0  0  1  0  0  0  0  0  0  0  0  0
  186.4580  176.5670  143.6310 C   0  0  2  0  0  3  0  0  0  0  0  0
  186.8370  176.3020  147.2150 O   0  0  0  0  0  0  0  0  0  0  0  0
  188.4320  176.5100  145.4030 C   0  0  1  0  0  3  0  0  0  0  0  0
  184.8870  177.0350  146.1550 O   0  0  0  0  0  0  0  0  0  0  0  0
  189.0250  177.3950  146.5080 C   0  0  0  0  0  2  0  0  0  0  0  0
  188.2230  176.1670  146.8880 C   0  0  1  0  0  0  0  0  0  0  0  0
  186.1270  176.7970  146.1410 C   0  0  0  0  0  0  0  0  0  0  0  0
  188.8790  174.9960  147.2630 O   0  0  0  0  0  1  0  0  0  0  0  0
  4  3  1  0  0  0  0
  4 15  1  1  0  0  0
  5  2  1  1  0  0  0
  5  4  1  0  0  0  0
  6 29  1  6  0  0  0
  6  3  1  0  0  0  0
  7  1  1  6  0  0  0
  7  5  1  0  0  0  0
  7  6  1  0  0  0  0
  8 16  1  6  0  0  0
  8 13  1  0  0  0  0
  9 18  1  0  0  0  0
 10 12  2  0  0  0  0
 11  9  2  0  0  0  0
 13 12  1  0  0  0  0
 13 18  2  0  0  0  0
 14 11  1  0  0  0  0
 15  8  1  0  0  0  0
 15 14  2  0  0  0  0
 16 17  2  0  0  0  0
 17 10  1  0  0  0  0
 19 20  1  0  0  0  0
 21 27  1  0  0  0  0
 22 19  2  0  0  0  0
 23 20  1  1  0  0  0
 23 25  1  0  0  0  0
 23  5  1  0  0  0  0
 24 22  1  0  0  0  0
 24 28  2  0  0  0  0
 25 27  1  0  0  0  0
 26 20  2  0  0  0  0
 26 21  1  0  0  0  0
 28 26  1  0  0  0  0
 29 30  1  0  0  0  0
 32 31  1  6  0  0  0
 32 35  1  0  0  0  0
 32 39  1  0  0  0  0
 33 30  1  6  0  0  0
 33 31  1  0  0  0  0
 33 32  1  0  0  0  0
 35 37  1  1  0  0  0
 35 38  1  0  0  0  0
 37 38  1  0  0  0  0
 38 34  1  0  0  0  0
 38 40  1  1  0  0  0
 39 36  2  0  0  0  0
 39 34  1  0  0  0  0
M  END
>  <MODEL>
6

>  <REMARK>
 VINA RESULT:      -7.7      2.155      5.639
  Name = 
  5 active torsions:
  status: ('A' for Active; 'I' for Inactive)
    1  A    between atoms: C_4  and  C_14
    2  A    between atoms: C_8  and  C_14
    3  A    between atoms: C_8  and  C_29
    4  A    between atoms: C_17  and  C_25
    5  A    between atoms: C_27  and  C_28
                            x       y       z     vdW  Elec       q    Type
                         _______ _______ _______ _____ _____    ______ ____

>  <TORSDO>
F 5

$$$$
=
 OpenBabel11072409313D

 40 47  0  0  1  0  0  0  0  0999 V2000
  192.3090  173.6840  141.5500 C   0  0  0  0  0  1  0  0  0  0  0  0
  191.6010  173.8280  145.1930 O   0  0  0  0  0  1  0  0  0  0  0  0
  189.5080  174.1850  142.8290 N   0  0  0  0  0  2  0  0  0  0  0  0
  190.3850  175.1190  143.5320 C   0  0  2  0  0  3  0  0  0  0  0  0
  191.6950  174.3900  143.9150 C   0  0  2  0  0  0  0  0  0  0  0  0
  190.2390  172.9280  142.7720 C   0  0  2  0  0  3  0  0  0  0  0  0
  191.7250  173.2480  142.9010 C   0  0  1  0  0  3  0  0  0  0  0  0
  189.0880  177.2230  144.4230 C   0  0  0  0  0  0  0  0  0  0  0  0
  187.4410  176.4260  146.7630 C   0  0  0  0  0  3  0  0  0  0  0  0
  187.4850  178.0790  142.1710 C   0  0  0  0  0  3  0  0  0  0  0  0
  188.5360  175.6650  146.8880 C   0  0  0  0  0  3  0  0  0  0  0  0
  186.8710  177.6030  143.2130 N   0  0  0  0  0  0  0  0  0  0  0  0
  187.5750  177.2180  144.4010 C   0  0  0  0  0  0  0  0  0  0  0  0
  189.3950  175.1860  145.7840 C   0  0  0  0  0  3  0  0  0  0  0  0
  189.6340  175.8300  144.6370 C   0  0  0  0  0  0  0  0  0  0  0  0
  189.6780  177.9160  143.2170 C   0  0  0  0  0  2  0  0  0  0  0  0
  188.9410  178.2800  142.1660 C   0  0  0  0  0  3  0  0  0  0  0  0
  186.8720  176.9210  145.4940 C   0  0  0  0  0  3  0  0  0  0  0  0
  194.8200  173.6930  143.7200 N   0  0  0  0  0  0  0  0  0  0  0  0
  194.2000  174.7040  144.3890 C   0  0  0  0  0  0  0  0  0  0  0  0
  194.0810  176.3060  146.3300 C   0  0  0  0  0  2  0  0  0  0  0  0
  195.9370  173.0940  144.2130 C   0  0  0  0  0  3  0  0  0  0  0  0
  192.9330  175.3250  143.8450 C   0  0  2  0  0  3  0  0  0  0  0  0
  196.4710  173.5010  145.4340 C   0  0  0  0  0  3  0  0  0  0  0  0
  192.6880  176.6220  144.3710 O   0  0  0  0  0  0  0  0  0  0  0  0
  194.7090  175.1460  145.6180 C   0  0  0  0  0  0  0  0  0  0  0  0
  192.6780  176.5700  145.7830 C   0  0  0  0  0  2  0  0  0  0  0  0
  195.8530  174.5410  146.1380 C   0  0  0  0  0  3  0  0  0  0  0  0
  189.8490  172.1160  141.5400 C   0  0  0  0  0  2  0  0  0  0  0  0
  190.4080  170.6980  141.6080 C   0  0  0  0  0  2  0  0  0  0  0  0
  191.2320  168.7330  140.2900 C   0  0  0  0  0  2  0  0  0  0  0  0
  192.2850  169.8020  140.1240 C   0  0  1  0  0  0  0  0  0  0  0  0
  190.8230  170.2110  140.2200 C   0  0  2  0  0  3  0  0  0  0  0  0
  194.2310  170.4770  139.0480 O   0  0  0  0  0  0  0  0  0  0  0  0
  193.2700  170.1310  141.2440 C   0  0  1  0  0  3  0  0  0  0  0  0
  192.4220  169.8870  137.6910 O   0  0  0  0  0  0  0  0  0  0  0  0
  194.5000  169.2130  141.2410 C   0  0  0  0  0  2  0  0  0  0  0  0
  194.5310  170.5030  140.4460 C   0  0  1  0  0  0  0  0  0  0  0  0
  192.9450  170.0290  138.8310 C   0  0  0  0  0  0  0  0  0  0  0  0
  195.1800  171.6230  140.9620 O   0  0  0  0  0  1  0  0  0  0  0  0
  3  4  1  0  0  0  0
  4  5  1  0  0  0  0
  4 15  1  1  0  0  0
  5  2  1  1  0  0  0
  6 29  1  6  0  0  0
  6  3  1  0  0  0  0
  6  7  1  0  0  0  0
  7  1  1  6  0  0  0
  7  5  1  0  0  0  0
  8 15  2  0  0  0  0
  9 11  1  0  0  0  0
 10 12  1  0  0  0  0
 12 13  2  0  0  0  0
 13  8  1  0  0  0  0
 13 18  1  0  0  0  0
 14 11  2  0  0  0  0
 15 14  1  0  0  0  0
 16  8  1  0  0  0  0
 17 10  2  0  0  0  0
 17 16  1  0  0  0  0
 18  9  2  0  0  0  0
 19 22  2  0  0  0  0
 19 20  1  0  0  0  0
 20 26  2  0  0  0  0
 22 24  1  0  0  0  0
 23  5  1  0  0  0  0
 23 25  1  1  0  0  0
 23 20  1  0  0  0  0
 24 28  2  0  0  0  0
 25 27  1  0  0  0  0
 26 28  1  0  0  0  0
 26 21  1  0  0  0  0
 27 21  1  0  0  0  0
 29 30  1  0  0  0  0
 32 33  1  0  0  0  0
 32 31  1  1  0  0  0
 32 35  1  0  0  0  0
 33 31  1  0  0  0  0
 33 30  1  1  0  0  0
 34 38  1  0  0  0  0
 35 37  1  1  0  0  0
 36 39  2  0  0  0  0
 38 40  1  1  0  0  0
 38 37  1  0  0  0  0
 38 35  1  0  0  0  0
 39 34  1  0  0  0  0
 39 32  1  0  0  0  0
M  END
>  <MODEL>
7

>  <REMARK>
 VINA RESULT:      -7.7      2.636      7.414
  Name = 
  5 active torsions:
  status: ('A' for Active; 'I' for Inactive)
    1  A    between atoms: C_4  and  C_14
    2  A    between atoms: C_8  and  C_14
    3  A    between atoms: C_8  and  C_29
    4  A    between atoms: C_17  and  C_25
    5  A    between atoms: C_27  and  C_28
                            x       y       z     vdW  Elec       q    Type
                         _______ _______ _______ _____ _____    ______ ____

>  <TORSDO>
F 5

$$$$
=
 OpenBabel11072409313D

 40 47  0  0  1  0  0  0  0  0999 V2000
  189.5400  174.0020  144.5790 C   0  0  0  0  0  1  0  0  0  0  0  0
  192.2150  175.4750  142.4650 O   0  0  0  0  0  1  0  0  0  0  0  0
  189.7980  173.6570  141.4890 N   0  0  0  0  0  2  0  0  0  0  0  0
  191.1370  173.3510  141.9880 C   0  0  2  0  0  3  0  0  0  0  0  0
  191.5330  174.4030  143.0510 C   0  0  2  0  0  0  0  0  0  0  0  0
  189.3740  174.8480  142.2120 C   0  0  2  0  0  3  0  0  0  0  0  0
  190.1680  174.9100  143.5130 C   0  0  1  0  0  3  0  0  0  0  0  0
  192.5430  171.7260  140.4760 C   0  0  0  0  0  0  0  0  0  0  0  0
  193.2370  173.1170  137.9450 C   0  0  0  0  0  3  0  0  0  0  0  0
  190.8000  169.4530  140.0580 C   0  0  0  0  0  3  0  0  0  0  0  0
  193.2800  174.0990  138.8540 C   0  0  0  0  0  3  0  0  0  0  0  0
  191.0830  170.2040  139.0350 N   0  0  0  0  0  0  0  0  0  0  0  0
  191.9890  171.3100  139.1300 C   0  0  2  0  0  3  0  0  0  0  0  0
  192.4930  174.1660  140.1030 C   0  0  0  0  0  3  0  0  0  0  0  0
  192.0970  173.1230  140.8400 C   0  0  0  0  0  0  0  0  0  0  0  0
  192.2550  170.7080  141.5550 C   0  0  0  0  0  3  0  0  0  0  0  0
  191.4260  169.6800  141.3690 C   0  0  0  0  0  3  0  0  0  0  0  0
  192.3800  171.9160  138.0090 C   0  0  0  0  0  3  0  0  0  0  0  0
  192.0950  175.4630  146.0260 N   0  0  0  0  0  0  0  0  0  0  0  0
  192.9310  174.8200  145.1650 C   0  0  0  0  0  0  0  0  0  0  0  0
  195.2420  174.3920  144.2540 C   0  0  0  0  0  2  0  0  0  0  0  0
  192.5500  176.4160  146.8810 C   0  0  0  0  0  3  0  0  0  0  0  0
  192.3950  173.7950  144.1900 C   0  0  2  0  0  3  0  0  0  0  0  0
  193.8990  176.7680  146.8870 C   0  0  0  0  0  3  0  0  0  0  0  0
  193.4000  172.9070  143.7220 O   0  0  0  0  0  0  0  0  0  0  0  0
  194.2960  175.1410  145.1430 C   0  0  0  0  0  0  0  0  0  0  0  0
  194.4700  173.6450  143.1660 C   0  0  0  0  0  2  0  0  0  0  0  0
  194.7780  176.1190  146.0140 C   0  0  0  0  0  3  0  0  0  0  0  0
  187.8570  174.8890  142.3680 C   0  0  0  0  0  2  0  0  0  0  0  0
  187.3960  176.2100  142.9790 C   0  0  0  0  0  2  0  0  0  0  0  0
  186.7240  178.2910  141.7570 C   0  0  0  0  0  2  0  0  0  0  0  0
  185.6380  178.0520  142.7760 C   0  0  1  0  0  0  0  0  0  0  0  0
  186.3120  176.8570  142.1190 C   0  0  2  0  0  3  0  0  0  0  0  0
  183.5450  178.6640  143.5820 O   0  0  0  0  0  0  0  0  0  0  0  0
  185.8520  178.3600  144.2570 C   0  0  1  0  0  3  0  0  0  0  0  0
  183.6800  178.0810  141.3230 O   0  0  0  0  0  0  0  0  0  0  0  0
  185.5650  179.8280  144.6040 C   0  0  0  0  0  2  0  0  0  0  0  0
  184.4450  178.8110  144.6850 C   0  0  1  0  0  0  0  0  0  0  0  0
  184.2210  178.2670  142.4470 C   0  0  0  0  0  0  0  0  0  0  0  0
  184.0680  178.2870  145.9190 O   0  0  0  0  0  1  0  0  0  0  0  0
  3  4  1  0  0  0  0
  3  6  1  0  0  0  0
  4 15  1  6  0  0  0
  4  5  1  0  0  0  0
  5  2  1  6  0  0  0
  5  7  1  0  0  0  0
  5 23  1  0  0  0  0
  6 29  1  1  0  0  0
  6  7  1  0  0  0  0
  7  1  1  1  0  0  0
  8 15  2  0  0  0  0
  8 16  1  0  0  0  0
  9 18  2  0  0  0  0
  9 11  1  0  0  0  0
 10 17  1  0  0  0  0
 11 14  2  0  0  0  0
 12 13  1  0  0  0  0
 12 10  2  0  0  0  0
 13 18  1  6  0  0  0
 13  8  1  0  0  0  0
 14 15  1  0  0  0  0
 17 16  2  0  0  0  0
 19 22  1  0  0  0  0
 20 19  2  0  0  0  0
 21 26  1  0  0  0  0
 22 24  2  0  0  0  0
 23 25  1  6  0  0  0
 23 20  1  0  0  0  0
 26 20  1  0  0  0  0
 26 28  2  0  0  0  0
 27 25  1  0  0  0  0
 27 21  1  0  0  0  0
 28 24  1  0  0  0  0
 29 30  1  0  0  0  0
 31 33  1  0  0  0  0
 32 31  1  6  0  0  0
 32 35  1  0  0  0  0
 33 32  1  0  0  0  0
 33 30  1  1  0  0  0
 34 38  1  0  0  0  0
 35 37  1  6  0  0  0
 35 38  1  0  0  0  0
 36 39  2  0  0  0  0
 37 38  1  0  0  0  0
 38 40  1  1  0  0  0
 39 32  1  0  0  0  0
 39 34  1  0  0  0  0
M  END
>  <MODEL>
8

>  <REMARK>
 VINA RESULT:      -7.6      2.118      3.311
  Name = 
  5 active torsions:
  status: ('A' for Active; 'I' for Inactive)
    1  A    between atoms: C_4  and  C_14
    2  A    between atoms: C_8  and  C_14
    3  A    between atoms: C_8  and  C_29
    4  A    between atoms: C_17  and  C_25
    5  A    between atoms: C_27  and  C_28
                            x       y       z     vdW  Elec       q    Type
                         _______ _______ _______ _____ _____    ______ ____

>  <TORSDO>
F 5

$$$$
=
 OpenBabel11072409313D

 40 47  0  0  1  0  0  0  0  0999 V2000
  192.3170  176.3210  147.2830 C   0  0  0  0  0  1  0  0  0  0  0  0
  193.2780  176.7760  143.7250 O   0  0  0  0  0  1  0  0  0  0  0  0
  190.7170  175.2510  144.8280 N   0  0  0  0  0  2  0  0  0  0  0  0
  192.0900  174.8280  144.5610 C   0  0  2  0  0  3  0  0  0  0  0  0
  193.0490  176.0030  144.8690 C   0  0  2  0  0  0  0  0  0  0  0  0
  190.8140  176.6300  145.2850 C   0  0  2  0  0  3  0  0  0  0  0  0
  192.2190  176.8380  145.8420 C   0  0  1  0  0  3  0  0  0  0  0  0
  191.4930  172.8740  142.9100 C   0  0  0  0  0  0  0  0  0  0  0  0
  191.9360  173.7930  140.1210 C   0  0  0  0  0  3  0  0  0  0  0  0
  188.7120  172.2960  143.4650 C   0  0  0  0  0  3  0  0  0  0  0  0
  192.9110  174.4080  140.8020 C   0  0  0  0  0  3  0  0  0  0  0  0
  189.0110  172.8100  142.3100 N   0  0  0  0  0  0  0  0  0  0  0  0
  190.3660  173.0670  141.9190 C   0  0  2  0  0  3  0  0  0  0  0  0
  192.8590  174.8120  142.2230 C   0  0  0  0  0  3  0  0  0  0  0  0
  192.1950  174.1800  143.1970 C   0  0  0  0  0  0  0  0  0  0  0  0
  191.0420  172.1520  144.1590 C   0  0  0  0  0  3  0  0  0  0  0  0
  189.7570  171.9160  144.4270 C   0  0  0  0  0  3  0  0  0  0  0  0
  190.6130  173.4130  140.6550 C   0  0  0  0  0  3  0  0  0  0  0  0
  196.0560  176.7390  144.0290 N   0  0  0  0  0  0  0  0  0  0  0  0
  195.5440  175.5530  144.4600 C   0  0  0  0  0  0  0  0  0  0  0  0
  195.5420  173.0330  144.4660 C   0  0  0  0  0  2  0  0  0  0  0  0
  197.0530  176.7900  143.1060 C   0  0  0  0  0  3  0  0  0  0  0  0
  194.4040  175.5210  145.4530 C   0  0  2  0  0  3  0  0  0  0  0  0
  197.5720  175.6140  142.5680 C   0  0  0  0  0  3  0  0  0  0  0  0
  194.3110  174.2810  146.1410 O   0  0  0  0  0  0  0  0  0  0  0  0
  196.0430  174.3470  143.9470 C   0  0  0  0  0  0  0  0  0  0  0  0
  194.2200  173.2230  145.2080 C   0  0  0  0  0  2  0  0  0  0  0  0
  197.0650  174.3830  142.9980 C   0  0  0  0  0  3  0  0  0  0  0  0
  189.6740  176.9780  146.2380 C   0  0  0  0  0  2  0  0  0  0  0  0
  188.3510  176.3830  145.7630 C   0  0  0  0  0  2  0  0  0  0  0  0
  185.8920  176.7770  145.4860 C   0  0  0  0  0  2  0  0  0  0  0  0
  186.5590  177.6160  144.4230 C   0  0  1  0  0  0  0  0  0  0  0  0
  187.2470  177.4400  145.7680 C   0  0  2  0  0  3  0  0  0  0  0  0
  186.3150  179.2350  142.7730 O   0  0  0  0  0  0  0  0  0  0  0  0
  187.1350  176.9880  143.1560 C   0  0  1  0  0  3  0  0  0  0  0  0
  185.5690  179.7900  144.9180 O   0  0  0  0  0  0  0  0  0  0  0  0
  186.0810  176.8040  142.0540 C   0  0  0  0  0  2  0  0  0  0  0  0
  186.8750  178.0930  142.1180 C   0  0  1  0  0  0  0  0  0  0  0  0
  186.0790  178.9690  144.1060 C   0  0  0  0  0  0  0  0  0  0  0  0
  187.9570  178.2880  141.2630 O   0  0  0  0  0  1  0  0  0  0  0  0
  3  6  1  0  0  0  0
  4 15  1  6  0  0  0
  4  3  1  0  0  0  0
  4  5  1  0  0  0  0
  5  2  1  6  0  0  0
  5 23  1  0  0  0  0
  5  7  1  0  0  0  0
  6  7  1  0  0  0  0
  6 29  1  1  0  0  0
  7  1  1  1  0  0  0
  8 15  2  0  0  0  0
  8 16  1  0  0  0  0
  9 18  2  0  0  0  0
  9 11  1  0  0  0  0
 10 17  1  0  0  0  0
 11 14  2  0  0  0  0
 12 10  2  0  0  0  0
 13 18  1  6  0  0  0
 13 12  1  0  0  0  0
 13  8  1  0  0  0  0
 14 15  1  0  0  0  0
 16 17  2  0  0  0  0
 19 20  1  0  0  0  0
 21 27  1  0  0  0  0
 22 19  2  0  0  0  0
 23 20  1  6  0  0  0
 23 25  1  0  0  0  0
 24 28  2  0  0  0  0
 24 22  1  0  0  0  0
 26 20  2  0  0  0  0
 26 21  1  0  0  0  0
 27 25  1  0  0  0  0
 28 26  1  0  0  0  0
 30 29  1  0  0  0  0
 31 33  1  0  0  0  0
 32 31  1  1  0  0  0
 32 33  1  0  0  0  0
 33 30  1  6  0  0  0
 34 39  1  0  0  0  0
 35 37  1  6  0  0  0
 35 32  1  0  0  0  0
 37 38  1  0  0  0  0
 38 40  1  6  0  0  0
 38 34  1  0  0  0  0
 38 35  1  0  0  0  0
 39 32  1  0  0  0  0
 39 36  2  0  0  0  0
M  END
>  <MODEL>
9

>  <REMARK>
 VINA RESULT:      -7.5      1.963      2.529
  Name = 
  5 active torsions:
  status: ('A' for Active; 'I' for Inactive)
    1  A    between atoms: C_4  and  C_14
    2  A    between atoms: C_8  and  C_14
    3  A    between atoms: C_8  and  C_29
    4  A    between atoms: C_17  and  C_25
    5  A    between atoms: C_27  and  C_28
                            x       y       z     vdW  Elec       q    Type
                         _______ _______ _______ _____ _____    ______ ____

>  <TORSDO>
F 5

$$$$
