=
 OpenBabel11062420593D

 38 42  0  0  1  0  0  0  0  0999 V2000
  191.5320  175.3890  147.8680 N   0  0  0  0  0  0  0  0  0  0  0  0
  192.6650  174.8260  143.1150 C   0  0  0  0  0  0  0  0  0  0  0  0
  193.7610  173.5490  144.7340 F   0  0  0  0  0  0  0  0  0  0  0  0
  190.8550  176.3740  143.7980 N   0  0  0  0  0  0  0  0  0  0  0  0
  190.5910  176.4160  147.5380 C   0  0  0  0  0  3  0  0  0  0  0  0
  191.7630  175.9700  142.7250 C   0  0  0  0  0  3  0  0  0  0  0  0
  192.5340  174.9280  146.9100 C   0  0  0  0  0  3  0  0  0  0  0  0
  191.1720  176.1020  145.1820 C   0  0  1  0  0  3  0  0  0  0  0  0
  190.4180  176.7690  146.2680 C   0  0  0  0  0  3  0  0  0  0  0  0
  192.8650  174.5160  144.4030 C   0  0  0  0  0  0  0  0  0  0  0  0
  192.1310  175.2040  145.4810 C   0  0  0  0  0  0  0  0  0  0  0  0
  189.7260  177.2130  143.3980 C   0  0  1  0  0  3  0  0  0  0  0  0
  190.1380  178.1800  142.4800 O   0  0  0  0  0  1  0  0  0  0  0  0
  188.6000  176.3740  142.8160 C   0  0  0  0  0  2  0  0  0  0  0  0
  187.5510  176.1190  143.8820 C   0  0  0  0  0  2  0  0  0  0  0  0
  185.8710  178.3280  147.7360 S   0  0  1  0  0  0  0  0  0  0  0  0
  186.6950  178.1120  145.2210 C   0  0  2  0  0  3  0  0  0  0  0  0
  186.5740  177.2830  143.9660 C   0  0  2  0  0  0  0  0  0  0  0  0
  187.1230  177.6520  146.5940 C   0  0  0  0  0  2  0  0  0  0  0  0
  184.3940  178.1640  145.3150 C   0  0  0  0  0  2  0  0  0  0  0  0
  186.1740  179.8230  147.7390 O   0  0  0  0  0  0  0  0  0  0  0  0
  185.4970  177.1760  145.0200 C   0  0  2  0  0  3  0  0  0  0  0  0
  184.2550  178.2270  146.8520 C   0  0  0  0  0  2  0  0  0  0  0  0
  186.5940  179.2540  142.6130 O   0  0  0  0  0  1  0  0  0  0  0  0
  185.5500  177.4350  141.6930 O   0  0  0  0  0  0  0  0  0  0  0  0
  186.2340  178.0530  142.7310 C   0  0  0  0  0  0  0  0  0  0  0  0
  193.4700  174.1330  142.0490 C   0  0  2  0  0  3  0  0  0  0  0  0
  196.6860  175.2750  138.8530 C   0  0  0  0  0  1  0  0  0  0  0  0
  194.8080  174.9270  140.1260 N   0  0  0  0  0  2  0  0  0  0  0  0
  196.8870  174.6490  141.0950 C   0  0  0  0  0  2  0  0  0  0  0  0
  196.1070  174.4350  139.8850 N   0  0  0  0  0  0  0  0  0  0  0  0
  194.6200  175.0240  141.5730 C   0  0  2  0  0  3  0  0  0  0  0  0
  195.9140  174.6360  142.2330 C   0  0  2  0  0  3  0  0  0  0  0  0
  196.3350  175.2970  144.5030 O   0  0  0  0  0  1  0  0  0  0  0  0
  196.3010  175.6250  143.2860 C   0  0  0  0  0  0  0  0  0  0  0  0
  196.6200  176.9270  142.9170 O   0  0  0  0  0  0  0  0  0  0  0  0
  192.6640  173.7310  140.9760 O   0  0  0  0  0  0  0  0  0  0  0  0
  192.3150  172.4100  141.2660 C   0  0  0  0  0  1  0  0  0  0  0  0
  2 10  1  0  0  0  0
  4  8  1  0  0  0  0
  5  1  1  0  0  0  0
  6  2  2  0  0  0  0
  6  4  1  0  0  0  0
  7  1  2  0  0  0  0
  8 11  1  0  0  0  0
  8  9  1  1  0  0  0
  9  5  2  0  0  0  0
 10  3  1  0  0  0  0
 10 11  2  0  0  0  0
 11  7  1  0  0  0  0
 12 13  1  6  0  0  0
 12  4  1  0  0  0  0
 14 12  1  0  0  0  0
 14 15  1  0  0  0  0
 16 21  2  6  0  0  0
 17 19  1  1  0  0  0
 18 15  1  6  0  0  0
 18 22  1  0  0  0  0
 18 17  1  0  0  0  0
 19 16  1  0  0  0  0
 20 23  1  0  0  0  0
 22 17  1  0  0  0  0
 22 20  1  6  0  0  0
 23 16  1  0  0  0  0
 24 26  1  0  0  0  0
 25 26  2  0  0  0  0
 26 18  1  0  0  0  0
 27 37  1  6  0  0  0
 27  2  1  0  0  0  0
 28 31  1  0  0  0  0
 29 32  1  0  0  0  0
 30 33  1  0  0  0  0
 31 29  1  0  0  0  0
 31 30  1  0  0  0  0
 32 27  1  1  0  0  0
 32 33  1  0  0  0  0
 33 35  1  1  0  0  0
 35 34  1  0  0  0  0
 36 35  2  0  0  0  0
 37 38  1  0  0  0  0
M  END
>  <MODEL>
1

>  <REMARK>
 VINA RESULT:      -6.9      0.000      0.000
  Name = 
  9 active torsions:
  status: ('A' for Active; 'I' for Inactive)
    1  A    between atoms: C_3  and  C_16
    2  A    between atoms: C_3  and  C_17
    3  A    between atoms: C_4  and  C_36
    4  A    between atoms: O_5  and  C_26
    5  A    between atoms: C_8  and  C_26
    6  A    between atoms: N_11  and  C_16
    7  A    between atoms: C_17  and  C_23
    8  A    between atoms: C_22  and  C_26
    9  A    between atoms: C_23  and  C_32
                            x       y       z     vdW  Elec       q    Type
                         _______ _______ _______ _____ _____    ______ ____

>  <TORSDO>
F 9

$$$$
=
 OpenBabel11062420593D

 38 42  0  0  1  0  0  0  0  0999 V2000
  189.3740  171.5840  142.7730 N   0  0  0  0  0  0  0  0  0  0  0  0
  188.3960  176.4020  142.5950 C   0  0  0  0  0  0  0  0  0  0  0  0
  186.6560  174.8520  142.4390 F   0  0  0  0  0  0  0  0  0  0  0  0
  190.7130  175.6060  142.9660 N   0  0  0  0  0  0  0  0  0  0  0  0
  190.7750  171.8570  142.8760 C   0  0  0  0  0  3  0  0  0  0  0  0
  189.8660  176.7390  142.5970 C   0  0  0  0  0  3  0  0  0  0  0  0
  188.4190  172.6100  142.3590 C   0  0  0  0  0  2  0  0  0  0  0  0
  190.2510  174.2460  142.7940 C   0  0  0  0  0  0  0  0  0  0  0  0
  191.2040  173.1160  142.8770 C   0  0  0  0  0  3  0  0  0  0  0  0
  187.9830  175.1280  142.5440 C   0  0  0  0  0  0  0  0  0  0  0  0
  188.9400  174.0080  142.6000 C   0  0  0  0  0  0  0  0  0  0  0  0
  192.0900  175.9300  143.3380 C   0  0  1  0  0  3  0  0  0  0  0  0
  192.5820  176.9580  142.5330 O   0  0  0  0  0  1  0  0  0  0  0  0
  192.1850  176.3110  144.8060 C   0  0  0  0  0  2  0  0  0  0  0  0
  192.8850  175.2060  145.5750 C   0  0  0  0  0  2  0  0  0  0  0  0
  195.9070  171.6750  144.5980 S   0  0  1  0  0  0  0  0  0  0  0  0
  194.9480  174.1500  144.5150 C   0  0  2  0  0  3  0  0  0  0  0  0
  194.3900  175.2690  145.3590 C   0  0  2  0  0  0  0  0  0  0  0  0
  194.4340  172.7350  144.4010 C   0  0  0  0  0  2  0  0  0  0  0  0
  196.7060  174.0130  145.9980 C   0  0  0  0  0  2  0  0  0  0  0  0
  196.6700  171.8940  143.2960 O   0  0  0  0  0  0  0  0  0  0  0  0
  195.2060  174.1880  146.0260 C   0  0  2  0  0  3  0  0  0  0  0  0
  196.9740  172.4990  145.8560 C   0  0  0  0  0  2  0  0  0  0  0  0
  195.7540  176.8130  144.1450 O   0  0  0  0  0  0  0  0  0  0  0  0
  194.8740  177.6030  146.1060 O   0  0  0  0  0  1  0  0  0  0  0  0
  195.0550  176.5940  145.1700 C   0  0  0  0  0  0  0  0  0  0  0  0
  187.3900  177.5160  142.4870 C   0  0  2  0  0  3  0  0  0  0  0  0
  187.0260  176.8240  147.0970 C   0  0  0  0  0  1  0  0  0  0  0  0
  187.6550  177.2620  144.9340 N   0  0  0  0  0  2  0  0  0  0  0  0
  185.4050  177.1920  145.4550 C   0  0  0  0  0  2  0  0  0  0  0  0
  186.6980  176.5730  145.7050 N   0  0  0  0  0  0  0  0  0  0  0  0
  186.9500  177.9850  143.8760 C   0  0  2  0  0  3  0  0  0  0  0  0
  185.4750  177.7720  144.0760 C   0  0  2  0  0  3  0  0  0  0  0  0
  183.4840  179.0830  143.7830 O   0  0  0  0  0  0  0  0  0  0  0  0
  184.7260  179.0650  143.9960 C   0  0  0  0  0  0  0  0  0  0  0  0
  185.4130  180.2640  144.1500 O   0  0  0  0  0  1  0  0  0  0  0  0
  186.2880  177.1380  141.7090 O   0  0  0  0  0  0  0  0  0  0  0  0
  186.4770  177.7820  140.4840 C   0  0  0  0  0  1  0  0  0  0  0  0
  1  5  2  0  0  0  0
  2  6  2  0  0  0  0
  3 10  1  0  0  0  0
  4 12  1  0  0  0  0
  5  9  1  0  0  0  0
  6  4  1  0  0  0  0
  7 11  1  0  0  0  0
  7  1  1  0  0  0  0
  8  9  2  0  0  0  0
  8  4  1  0  0  0  0
 10  2  1  0  0  0  0
 10 11  2  0  0  0  0
 11  8  1  0  0  0  0
 12 13  1  6  0  0  0
 12 14  1  0  0  0  0
 14 15  1  0  0  0  0
 16 21  2  6  0  0  0
 16 23  1  0  0  0  0
 17 19  1  1  0  0  0
 17 18  1  0  0  0  0
 17 22  1  0  0  0  0
 18 15  1  1  0  0  0
 18 22  1  0  0  0  0
 19 16  1  0  0  0  0
 22 20  1  6  0  0  0
 23 20  1  0  0  0  0
 24 26  2  0  0  0  0
 26 18  1  0  0  0  0
 26 25  1  0  0  0  0
 27 37  1  6  0  0  0
 27  2  1  0  0  0  0
 29 31  1  0  0  0  0
 30 31  1  0  0  0  0
 31 28  1  0  0  0  0
 32 27  1  6  0  0  0
 32 33  1  0  0  0  0
 32 29  1  0  0  0  0
 33 35  1  1  0  0  0
 33 30  1  0  0  0  0
 34 35  2  0  0  0  0
 35 36  1  0  0  0  0
 38 37  1  0  0  0  0
M  END
>  <MODEL>
2

>  <REMARK>
 VINA RESULT:      -6.8      3.520      8.957
  Name = 
  9 active torsions:
  status: ('A' for Active; 'I' for Inactive)
    1  A    between atoms: C_3  and  C_16
    2  A    between atoms: C_3  and  C_17
    3  A    between atoms: C_4  and  C_36
    4  A    between atoms: O_5  and  C_26
    5  A    between atoms: C_8  and  C_26
    6  A    between atoms: N_11  and  C_16
    7  A    between atoms: C_17  and  C_23
    8  A    between atoms: C_22  and  C_26
    9  A    between atoms: C_23  and  C_32
                            x       y       z     vdW  Elec       q    Type
                         _______ _______ _______ _____ _____    ______ ____

>  <TORSDO>
F 9

$$$$
=
 OpenBabel11062420593D

 38 42  0  0  1  0  0  0  0  0999 V2000
  194.0010  171.2270  145.2290 N   0  0  0  0  0  0  0  0  0  0  0  0
  190.5870  173.3190  142.3710 C   0  0  0  0  0  0  0  0  0  0  0  0
  190.6290  170.9980  142.6310 F   0  0  0  0  0  0  0  0  0  0  0  0
  192.1950  174.7180  143.6330 N   0  0  0  0  0  0  0  0  0  0  0  0
  194.5780  172.5080  145.5030 C   0  0  0  0  0  3  0  0  0  0  0  0
  191.2180  174.6770  142.5450 C   0  0  0  0  0  3  0  0  0  0  0  0
  193.0530  171.0290  144.1350 C   0  0  0  0  0  3  0  0  0  0  0  0
  192.8590  173.5150  144.0830 C   0  0  1  0  0  3  0  0  0  0  0  0
  194.0510  173.6000  144.9570 C   0  0  0  0  0  3  0  0  0  0  0  0
  191.1600  172.2220  142.8880 C   0  0  0  0  0  0  0  0  0  0  0  0
  192.3620  172.3120  143.7360 C   0  0  0  0  0  0  0  0  0  0  0  0
  192.5800  176.0510  144.0960 C   0  0  1  0  0  3  0  0  0  0  0  0
  192.1480  177.0240  143.1940 O   0  0  0  0  0  1  0  0  0  0  0  0
  192.0260  176.3290  145.4850 C   0  0  0  0  0  2  0  0  0  0  0  0
  190.7670  177.1680  145.3720 C   0  0  0  0  0  2  0  0  0  0  0  0
  186.3640  177.6040  143.6470 S   0  0  1  0  0  0  0  0  0  0  0  0
  188.4930  176.3260  144.5870 C   0  0  2  0  0  3  0  0  0  0  0  0
  189.5340  176.3310  145.6790 C   0  0  2  0  0  0  0  0  0  0  0  0
  188.1800  177.4290  143.6040 C   0  0  0  0  0  2  0  0  0  0  0  0
  186.8850  176.5300  146.2240 C   0  0  0  0  0  2  0  0  0  0  0  0
  185.8760  176.3400  142.9470 O   0  0  0  0  0  0  0  0  0  0  0  0
  188.2470  177.0930  145.8910 C   0  0  2  0  0  3  0  0  0  0  0  0
  185.8580  177.3370  145.4000 C   0  0  0  0  0  2  0  0  0  0  0  0
  189.8230  175.0370  147.6690 O   0  0  0  0  0  1  0  0  0  0  0  0
  189.6250  173.8350  145.7290 O   0  0  0  0  0  0  0  0  0  0  0  0
  189.6810  175.0400  146.4170 C   0  0  0  0  0  0  0  0  0  0  0  0
  189.3880  173.1780  141.4720 C   0  0  2  0  0  3  0  0  0  0  0  0
  187.8490  174.8510  137.3860 C   0  0  0  0  0  1  0  0  0  0  0  0
  188.4430  174.4370  139.5640 N   0  0  0  0  0  2  0  0  0  0  0  0
  189.3550  173.1350  137.8880 C   0  0  0  0  0  2  0  0  0  0  0  0
  188.1430  173.8000  138.3440 N   0  0  0  0  0  0  0  0  0  0  0  0
  189.6530  173.8260  140.1110 C   0  0  2  0  0  3  0  0  0  0  0  0
  190.1470  172.8120  139.1170 C   0  0  2  0  0  3  0  0  0  0  0  0
  192.4520  172.2390  139.4660 O   0  0  0  0  0  1  0  0  0  0  0  0
  191.6140  172.9660  138.8690 C   0  0  0  0  0  0  0  0  0  0  0  0
  192.0590  173.9320  137.9740 O   0  0  0  0  0  0  0  0  0  0  0  0
  188.2350  173.7060  142.0670 O   0  0  0  0  0  0  0  0  0  0  0  0
  187.4050  172.6030  142.2790 C   0  0  0  0  0  1  0  0  0  0  0  0
  1  5  1  0  0  0  0
  2  6  2  0  0  0  0
  2 10  1  0  0  0  0
  3 10  1  0  0  0  0
  4  8  1  0  0  0  0
  4 12  1  0  0  0  0
  6  4  1  0  0  0  0
  7  1  2  0  0  0  0
  8  9  1  1  0  0  0
  9  5  2  0  0  0  0
 10 11  2  0  0  0  0
 11  8  1  0  0  0  0
 11  7  1  0  0  0  0
 12 13  1  6  0  0  0
 12 14  1  0  0  0  0
 15 14  1  0  0  0  0
 16 21  2  6  0  0  0
 16 23  1  0  0  0  0
 17 19  1  6  0  0  0
 17 18  1  0  0  0  0
 17 22  1  0  0  0  0
 18 15  1  6  0  0  0
 18 22  1  0  0  0  0
 18 26  1  0  0  0  0
 19 16  1  0  0  0  0
 22 20  1  1  0  0  0
 23 20  1  0  0  0  0
 25 26  2  0  0  0  0
 26 24  1  0  0  0  0
 27 37  1  1  0  0  0
 27  2  1  0  0  0  0
 28 31  1  0  0  0  0
 29 32  1  0  0  0  0
 30 31  1  0  0  0  0
 30 33  1  0  0  0  0
 31 29  1  0  0  0  0
 32 27  1  1  0  0  0
 33 35  1  6  0  0  0
 33 32  1  0  0  0  0
 35 34  1  0  0  0  0
 36 35  2  0  0  0  0
 37 38  1  0  0  0  0
M  END
>  <MODEL>
3

>  <REMARK>
 VINA RESULT:      -6.7      3.297      5.174
  Name = 
  9 active torsions:
  status: ('A' for Active; 'I' for Inactive)
    1  A    between atoms: C_3  and  C_16
    2  A    between atoms: C_3  and  C_17
    3  A    between atoms: C_4  and  C_36
    4  A    between atoms: O_5  and  C_26
    5  A    between atoms: C_8  and  C_26
    6  A    between atoms: N_11  and  C_16
    7  A    between atoms: C_17  and  C_23
    8  A    between atoms: C_22  and  C_26
    9  A    between atoms: C_23  and  C_32
                            x       y       z     vdW  Elec       q    Type
                         _______ _______ _______ _____ _____    ______ ____

>  <TORSDO>
F 9

$$$$
=
 OpenBabel11062420593D

 38 42  0  0  1  0  0  0  0  0999 V2000
  189.2910  174.5930  147.2740 N   0  0  0  0  0  0  0  0  0  0  0  0
  189.9650  173.8570  142.4580 C   0  0  0  0  0  0  0  0  0  0  0  0
  189.3360  172.0770  143.8330 F   0  0  0  0  0  0  0  0  0  0  0  0
  190.1740  176.1300  143.4200 N   0  0  0  0  0  0  0  0  0  0  0  0
  189.6570  175.9690  147.1310 C   0  0  0  0  0  3  0  0  0  0  0  0
  190.4570  175.2700  142.2710 C   0  0  0  0  0  3  0  0  0  0  0  0
  189.5650  173.6110  146.2270 C   0  0  0  0  0  3  0  0  0  0  0  0
  189.9730  175.5690  144.7380 C   0  0  1  0  0  3  0  0  0  0  0  0
  189.9920  176.4410  145.9340 C   0  0  0  0  0  3  0  0  0  0  0  0
  189.6780  173.3830  143.6780 C   0  0  0  0  0  0  0  0  0  0  0  0
  189.7260  174.2510  144.8690 C   0  0  0  0  0  0  0  0  0  0  0  0
  190.2890  177.5690  143.1860 C   0  0  1  0  0  3  0  0  0  0  0  0
  191.5850  177.8950  142.7810 O   0  0  0  0  0  1  0  0  0  0  0  0
  189.2760  178.0380  142.1530 C   0  0  0  0  0  2  0  0  0  0  0  0
  188.1260  178.7380  142.8510 C   0  0  0  0  0  2  0  0  0  0  0  0
  185.0140  178.8080  146.4380 S   0  0  1  0  0  0  0  0  0  0  0  0
  185.8710  178.3360  143.9700 C   0  0  2  0  0  3  0  0  0  0  0  0
  187.0080  177.7550  143.1640 C   0  0  2  0  0  0  0  0  0  0  0  0
  185.9370  179.4400  144.9960 C   0  0  0  0  0  2  0  0  0  0  0  0
  185.8570  176.3920  145.2060 C   0  0  0  0  0  2  0  0  0  0  0  0
  183.5650  178.8350  145.9630 O   0  0  0  0  0  0  0  0  0  0  0  0
  186.8580  177.3540  144.6130 C   0  0  2  0  0  3  0  0  0  0  0  0
  185.3890  177.0050  146.5440 C   0  0  0  0  0  2  0  0  0  0  0  0
  186.8800  175.5260  142.3090 O   0  0  0  0  0  1  0  0  0  0  0  0
  185.8890  177.1380  141.0180 O   0  0  0  0  0  0  0  0  0  0  0  0
  186.6040  176.7440  142.1410 C   0  0  0  0  0  0  0  0  0  0  0  0
  189.9510  172.9250  141.2760 C   0  0  2  0  0  3  0  0  0  0  0  0
  193.2740  171.4340  138.3440 C   0  0  0  0  0  1  0  0  0  0  0  0
  191.7860  172.5950  139.6500 N   0  0  0  0  0  2  0  0  0  0  0  0
  192.1430  170.3530  140.0790 C   0  0  0  0  0  2  0  0  0  0  0  0
  191.9960  171.3490  139.0280 N   0  0  0  0  0  0  0  0  0  0  0  0
  191.3460  172.3490  141.0230 C   0  0  2  0  0  3  0  0  0  0  0  0
  191.3680  170.8640  141.2540 C   0  0  2  0  0  3  0  0  0  0  0  0
  192.3920  171.4300  143.3510 O   0  0  0  0  0  1  0  0  0  0  0  0
  192.0530  170.5270  142.5410 C   0  0  0  0  0  0  0  0  0  0  0  0
  192.3280  169.1970  142.8410 O   0  0  0  0  0  0  0  0  0  0  0  0
  189.4490  173.5560  140.1300 O   0  0  0  0  0  0  0  0  0  0  0  0
  188.2560  172.8880  139.8460 C   0  0  0  0  0  1  0  0  0  0  0  0
  2 10  1  0  0  0  0
  4  8  1  0  0  0  0
  5  1  1  0  0  0  0
  6  2  2  0  0  0  0
  6  4  1  0  0  0  0
  7  1  2  0  0  0  0
  8 11  1  0  0  0  0
  8  9  1  6  0  0  0
  9  5  2  0  0  0  0
 10  3  1  0  0  0  0
 10 11  2  0  0  0  0
 11  7  1  0  0  0  0
 12 13  1  6  0  0  0
 12  4  1  0  0  0  0
 14 15  1  0  0  0  0
 14 12  1  0  0  0  0
 16 21  2  6  0  0  0
 16 23  1  0  0  0  0
 17 22  1  0  0  0  0
 17 19  1  1  0  0  0
 18 15  1  6  0  0  0
 18 17  1  0  0  0  0
 18 22  1  0  0  0  0
 19 16  1  0  0  0  0
 20 23  1  0  0  0  0
 22 20  1  6  0  0  0
 25 26  2  0  0  0  0
 26 24  1  0  0  0  0
 26 18  1  0  0  0  0
 27 37  1  6  0  0  0
 27  2  1  0  0  0  0
 28 31  1  0  0  0  0
 29 32  1  0  0  0  0
 30 33  1  0  0  0  0
 31 29  1  0  0  0  0
 31 30  1  0  0  0  0
 32 33  1  0  0  0  0
 32 27  1  6  0  0  0
 33 35  1  1  0  0  0
 35 36  2  0  0  0  0
 35 34  1  0  0  0  0
 38 37  1  0  0  0  0
M  END
>  <MODEL>
4

>  <REMARK>
 VINA RESULT:      -6.6      3.093      3.639
  Name = 
  9 active torsions:
  status: ('A' for Active; 'I' for Inactive)
    1  A    between atoms: C_3  and  C_16
    2  A    between atoms: C_3  and  C_17
    3  A    between atoms: C_4  and  C_36
    4  A    between atoms: O_5  and  C_26
    5  A    between atoms: C_8  and  C_26
    6  A    between atoms: N_11  and  C_16
    7  A    between atoms: C_17  and  C_23
    8  A    between atoms: C_22  and  C_26
    9  A    between atoms: C_23  and  C_32
                            x       y       z     vdW  Elec       q    Type
                         _______ _______ _______ _____ _____    ______ ____

>  <TORSDO>
F 9

$$$$
=
 OpenBabel11062420593D

 38 42  0  0  1  0  0  0  0  0999 V2000
  189.2390  174.2000  140.7900 N   0  0  0  0  0  0  0  0  0  0  0  0
  192.5760  175.4950  144.1650 C   0  0  0  0  0  0  0  0  0  0  0  0
  193.1870  175.3510  141.9150 F   0  0  0  0  0  0  0  0  0  0  0  0
  190.2190  175.1060  144.8180 N   0  0  0  0  0  0  0  0  0  0  0  0
  188.2470  174.0440  141.8100 C   0  0  0  0  0  3  0  0  0  0  0  0
  191.5980  175.2450  145.2840 C   0  0  0  0  0  3  0  0  0  0  0  0
  190.6620  174.2950  141.1100 C   0  0  0  0  0  2  0  0  0  0  0  0
  189.9300  174.7020  143.4590 C   0  0  0  0  0  0  0  0  0  0  0  0
  188.5650  174.2700  143.0810 C   0  0  0  0  0  3  0  0  0  0  0  0
  192.2550  175.2160  142.8940 C   0  0  0  0  0  0  0  0  0  0  0  0
  190.9010  174.7600  142.5280 C   0  0  0  0  0  0  0  0  0  0  0  0
  189.1820  175.2200  145.8430 C   0  0  1  0  0  3  0  0  0  0  0  0
  189.2760  174.1650  146.7510 O   0  0  0  0  0  1  0  0  0  0  0  0
  189.2730  176.5540  146.5670 C   0  0  0  0  0  2  0  0  0  0  0  0
  188.7100  177.6520  145.6850 C   0  0  0  0  0  2  0  0  0  0  0  0
  185.2550  178.5960  142.5670 S   0  0  1  0  0  0  0  0  0  0  0  0
  186.3440  177.5390  144.7450 C   0  0  2  0  0  3  0  0  0  0  0  0
  187.2210  177.8360  145.9360 C   0  0  2  0  0  0  0  0  0  0  0  0
  186.6810  177.7120  143.2840 C   0  0  0  0  0  2  0  0  0  0  0  0
  185.1110  179.4080  145.2840 C   0  0  0  0  0  2  0  0  0  0  0  0
  184.1550  177.5400  142.5660 O   0  0  0  0  0  0  0  0  0  0  0  0
  186.5580  178.9830  145.2110 C   0  0  2  0  0  3  0  0  0  0  0  0
  184.6880  179.7930  143.8500 C   0  0  0  0  0  2  0  0  0  0  0  0
  186.0040  176.3710  147.3820 O   0  0  0  0  0  0  0  0  0  0  0  0
  186.8370  178.2630  148.3670 O   0  0  0  0  0  1  0  0  0  0  0  0
  186.6420  177.4500  147.2590 C   0  0  0  0  0  0  0  0  0  0  0  0
  193.9830  175.9120  144.5010 C   0  0  2  0  0  3  0  0  0  0  0  0
  197.0580  172.5640  145.5980 C   0  0  0  0  0  1  0  0  0  0  0  0
  195.2270  173.8810  145.1700 N   0  0  0  0  0  2  0  0  0  0  0  0
  197.2940  174.5430  144.3770 C   0  0  0  0  0  2  0  0  0  0  0  0
  196.5950  173.9370  145.5020 N   0  0  0  0  0  0  0  0  0  0  0  0
  194.9820  174.8310  144.0850 C   0  0  2  0  0  3  0  0  0  0  0  0
  196.3030  175.4350  143.6970 C   0  0  2  0  0  3  0  0  0  0  0  0
  196.8570  174.3690  141.6170 O   0  0  0  0  0  1  0  0  0  0  0  0
  196.4910  175.4180  142.2130 C   0  0  0  0  0  0  0  0  0  0  0  0
  196.2680  176.5800  141.4820 O   0  0  0  0  0  0  0  0  0  0  0  0
  194.1140  176.2260  145.8600 O   0  0  0  0  0  0  0  0  0  0  0  0
  194.5670  177.5460  145.8810 C   0  0  0  0  0  1  0  0  0  0  0  0
  1  7  1  0  0  0  0
  1  5  2  0  0  0  0
  2 27  1  0  0  0  0
  2  6  2  0  0  0  0
  3 10  1  0  0  0  0
  4  6  1  0  0  0  0
  4 12  1  0  0  0  0
  5  9  1  0  0  0  0
  7 11  1  0  0  0  0
  8  4  1  0  0  0  0
  9  8  2  0  0  0  0
 10  2  1  0  0  0  0
 11 10  2  0  0  0  0
 11  8  1  0  0  0  0
 12 14  1  0  0  0  0
 12 13  1  1  0  0  0
 15 14  1  0  0  0  0
 16 21  2  1  0  0  0
 16 19  1  0  0  0  0
 16 23  1  0  0  0  0
 17 19  1  6  0  0  0
 17 22  1  0  0  0  0
 17 18  1  0  0  0  0
 18 15  1  6  0  0  0
 18 26  1  0  0  0  0
 22 20  1  1  0  0  0
 22 18  1  0  0  0  0
 23 20  1  0  0  0  0
 26 24  2  0  0  0  0
 26 25  1  0  0  0  0
 27 37  1  1  0  0  0
 29 31  1  0  0  0  0
 30 31  1  0  0  0  0
 31 28  1  0  0  0  0
 32 27  1  1  0  0  0
 32 29  1  0  0  0  0
 33 35  1  6  0  0  0
 33 32  1  0  0  0  0
 33 30  1  0  0  0  0
 34 35  1  0  0  0  0
 36 35  2  0  0  0  0
 37 38  1  0  0  0  0
M  END
>  <MODEL>
5

>  <REMARK>
 VINA RESULT:      -6.6      2.655      4.307
  Name = 
  9 active torsions:
  status: ('A' for Active; 'I' for Inactive)
    1  A    between atoms: C_3  and  C_16
    2  A    between atoms: C_3  and  C_17
    3  A    between atoms: C_4  and  C_36
    4  A    between atoms: O_5  and  C_26
    5  A    between atoms: C_8  and  C_26
    6  A    between atoms: N_11  and  C_16
    7  A    between atoms: C_17  and  C_23
    8  A    between atoms: C_22  and  C_26
    9  A    between atoms: C_23  and  C_32
                            x       y       z     vdW  Elec       q    Type
                         _______ _______ _______ _____ _____    ______ ____

>  <TORSDO>
F 9

$$$$
=
 OpenBabel11062420593D

 38 42  0  0  1  0  0  0  0  0999 V2000
  193.7600  176.1660  145.3350 N   0  0  0  0  0  0  0  0  0  0  0  0
  189.1650  176.2910  143.5830 C   0  0  0  0  0  0  0  0  0  0  0  0
  190.4270  178.2530  143.6900 F   0  0  0  0  0  0  0  0  0  0  0  0
  190.1960  174.1380  144.2480 N   0  0  0  0  0  0  0  0  0  0  0  0
  193.6390  174.7630  145.5940 C   0  0  0  0  0  3  0  0  0  0  0  0
  188.9520  174.8400  143.9320 C   0  0  0  0  0  3  0  0  0  0  0  0
  192.5920  177.0010  145.0610 C   0  0  0  0  0  3  0  0  0  0  0  0
  191.3610  174.8610  144.7070 C   0  0  1  0  0  3  0  0  0  0  0  0
  192.5020  174.1350  145.3090 C   0  0  0  0  0  3  0  0  0  0  0  0
  190.2990  176.9210  143.9220 C   0  0  0  0  0  0  0  0  0  0  0  0
  191.4210  176.1970  144.5460 C   0  0  0  0  0  0  0  0  0  0  0  0
  190.1250  172.6770  144.2430 C   0  0  1  0  0  3  0  0  0  0  0  0
  189.4920  172.2170  145.3980 O   0  0  0  0  0  1  0  0  0  0  0  0
  189.4060  172.1670  143.0040 C   0  0  0  0  0  2  0  0  0  0  0  0
  190.4130  171.5570  142.0470 C   0  0  0  0  0  2  0  0  0  0  0  0
  188.3630  173.2010  138.0910 S   0  0  1  0  0  0  0  0  0  0  0  0
  189.8500  173.3130  140.2880 C   0  0  2  0  0  3  0  0  0  0  0  0
  190.9280  172.6010  141.0680 C   0  0  2  0  0  0  0  0  0  0  0  0
  188.5090  172.7690  139.8580 C   0  0  0  0  0  2  0  0  0  0  0  0
  191.1830  173.1200  138.4190 C   0  0  0  0  0  2  0  0  0  0  0  0
  188.1540  174.7110  138.1180 O   0  0  0  0  0  0  0  0  0  0  0  0
  190.7550  172.2840  139.6010 C   0  0  2  0  0  3  0  0  0  0  0  0
  190.0520  173.0210  137.3720 C   0  0  0  0  0  2  0  0  0  0  0  0
  192.0290  174.7030  141.3610 O   0  0  0  0  0  0  0  0  0  0  0  0
  193.2660  172.8550  141.9110 O   0  0  0  0  0  1  0  0  0  0  0  0
  192.1020  173.4480  141.4400 C   0  0  0  0  0  0  0  0  0  0  0  0
  188.0260  177.0770  142.9920 C   0  0  2  0  0  3  0  0  0  0  0  0
  186.7360  177.3650  147.4770 C   0  0  0  0  0  1  0  0  0  0  0  0
  187.7450  177.4700  145.4180 N   0  0  0  0  0  2  0  0  0  0  0  0
  185.5210  176.8580  145.5460 C   0  0  0  0  0  2  0  0  0  0  0  0
  186.8250  176.7220  146.1780 N   0  0  0  0  0  0  0  0  0  0  0  0
  187.1640  177.6960  144.0940 C   0  0  2  0  0  3  0  0  0  0  0  0
  185.7810  177.1080  144.0930 C   0  0  2  0  0  3  0  0  0  0  0  0
  184.4020  179.0720  144.1820 O   0  0  0  0  0  1  0  0  0  0  0  0
  184.7850  178.0680  143.5240 C   0  0  0  0  0  0  0  0  0  0  0  0
  184.2670  177.8430  142.2530 O   0  0  0  0  0  0  0  0  0  0  0  0
  187.2530  176.2900  142.1280 O   0  0  0  0  0  0  0  0  0  0  0  0
  187.4420  176.8540  140.8640 C   0  0  0  0  0  1  0  0  0  0  0  0
  1  5  1  0  0  0  0
  2 10  1  0  0  0  0
  2  6  2  0  0  0  0
  3 10  1  0  0  0  0
  4  8  1  0  0  0  0
  6  4  1  0  0  0  0
  7  1  2  0  0  0  0
  8  9  1  6  0  0  0
  9  5  2  0  0  0  0
 10 11  2  0  0  0  0
 11  8  1  0  0  0  0
 11  7  1  0  0  0  0
 12  4  1  0  0  0  0
 12 13  1  1  0  0  0
 14 12  1  0  0  0  0
 15 14  1  0  0  0  0
 16 21  2  1  0  0  0
 16 19  1  0  0  0  0
 17 19  1  1  0  0  0
 17 18  1  0  0  0  0
 18 26  1  0  0  0  0
 18 15  1  1  0  0  0
 22 20  1  6  0  0  0
 22 17  1  0  0  0  0
 22 18  1  0  0  0  0
 23 16  1  0  0  0  0
 23 20  1  0  0  0  0
 24 26  2  0  0  0  0
 26 25  1  0  0  0  0
 27 37  1  1  0  0  0
 27  2  1  0  0  0  0
 29 31  1  0  0  0  0
 30 31  1  0  0  0  0
 31 28  1  0  0  0  0
 32 27  1  6  0  0  0
 32 29  1  0  0  0  0
 33 35  1  1  0  0  0
 33 32  1  0  0  0  0
 33 30  1  0  0  0  0
 35 34  1  0  0  0  0
 36 35  2  0  0  0  0
 38 37  1  0  0  0  0
M  END
>  <MODEL>
6

>  <REMARK>
 VINA RESULT:      -6.5      3.549      8.127
  Name = 
  9 active torsions:
  status: ('A' for Active; 'I' for Inactive)
    1  A    between atoms: C_3  and  C_16
    2  A    between atoms: C_3  and  C_17
    3  A    between atoms: C_4  and  C_36
    4  A    between atoms: O_5  and  C_26
    5  A    between atoms: C_8  and  C_26
    6  A    between atoms: N_11  and  C_16
    7  A    between atoms: C_17  and  C_23
    8  A    between atoms: C_22  and  C_26
    9  A    between atoms: C_23  and  C_32
                            x       y       z     vdW  Elec       q    Type
                         _______ _______ _______ _____ _____    ______ ____

>  <TORSDO>
F 9

$$$$
=
 OpenBabel11062420593D

 38 42  0  0  1  0  0  0  0  0999 V2000
  196.0390  172.9120  144.2900 N   0  0  0  0  0  0  0  0  0  0  0  0
  191.5350  173.5920  142.4340 C   0  0  0  0  0  0  0  0  0  0  0  0
  192.6360  171.5590  142.1080 F   0  0  0  0  0  0  0  0  0  0  0  0
  192.6010  175.3520  143.8140 N   0  0  0  0  0  0  0  0  0  0  0  0
  196.0450  174.2470  144.8050 C   0  0  0  0  0  3  0  0  0  0  0  0
  191.5340  175.0370  142.8650 C   0  0  0  0  0  3  0  0  0  0  0  0
  195.0630  172.4770  143.2940 C   0  0  0  0  0  2  0  0  0  0  0  0
  193.8010  174.5470  143.8770 C   0  0  0  0  0  0  0  0  0  0  0  0
  194.9930  175.0360  144.6070 C   0  0  0  0  0  3  0  0  0  0  0  0
  192.6230  172.8260  142.5970 C   0  0  0  0  0  0  0  0  0  0  0  0
  193.8160  173.3290  143.3020 C   0  0  0  0  0  0  0  0  0  0  0  0
  192.4570  176.6110  144.5450 C   0  0  1  0  0  3  0  0  0  0  0  0
  191.8060  177.5600  143.7560 O   0  0  0  0  0  1  0  0  0  0  0  0
  191.7080  176.4020  145.8520 C   0  0  0  0  0  2  0  0  0  0  0  0
  190.4450  177.2420  145.8550 C   0  0  0  0  0  2  0  0  0  0  0  0
  186.2920  177.8840  143.6420 S   0  0  1  0  0  0  0  0  0  0  0  0
  188.3190  176.5030  144.6590 C   0  0  2  0  0  3  0  0  0  0  0  0
  189.2080  176.3570  145.8690 C   0  0  2  0  0  0  0  0  0  0  0  0
  188.1030  177.7370  143.8160 C   0  0  0  0  0  2  0  0  0  0  0  0
  186.5070  176.4440  146.0800 C   0  0  0  0  0  2  0  0  0  0  0  0
  185.9380  176.7340  142.7060 O   0  0  0  0  0  0  0  0  0  0  0  0
  187.8820  177.0640  146.0180 C   0  0  2  0  0  3  0  0  0  0  0  0
  185.5710  177.3540  145.2540 C   0  0  0  0  0  2  0  0  0  0  0  0
  189.0880  174.7620  147.6470 O   0  0  0  0  0  1  0  0  0  0  0  0
  189.5750  173.9020  145.5810 O   0  0  0  0  0  0  0  0  0  0  0  0
  189.2980  174.9710  146.4230 C   0  0  0  0  0  0  0  0  0  0  0  0
  190.3560  173.0560  141.6670 C   0  0  2  0  0  3  0  0  0  0  0  0
  187.8250  174.5590  138.0340 C   0  0  0  0  0  1  0  0  0  0  0  0
  188.9120  174.2140  140.0260 N   0  0  0  0  0  2  0  0  0  0  0  0
  189.5470  172.9860  138.1750 C   0  0  0  0  0  2  0  0  0  0  0  0
  188.4100  173.5450  138.8930 N   0  0  0  0  0  0  0  0  0  0  0  0
  190.2610  173.7150  140.2890 C   0  0  2  0  0  3  0  0  0  0  0  0
  190.6120  172.7420  139.1990 C   0  0  2  0  0  3  0  0  0  0  0  0
  192.2070  174.0870  138.0100 O   0  0  0  0  0  0  0  0  0  0  0  0
  191.9720  173.0220  138.6400 C   0  0  0  0  0  0  0  0  0  0  0  0
  192.9870  172.0870  138.8110 O   0  0  0  0  0  1  0  0  0  0  0  0
  189.1630  173.2110  142.3850 O   0  0  0  0  0  0  0  0  0  0  0  0
  188.9270  171.9610  142.9610 C   0  0  0  0  0  1  0  0  0  0  0  0
  1  5  2  0  0  0  0
  2 10  1  0  0  0  0
  2  6  2  0  0  0  0
  3 10  1  0  0  0  0
  4  8  1  0  0  0  0
  4 12  1  0  0  0  0
  6  4  1  0  0  0  0
  7 11  1  0  0  0  0
  7  1  1  0  0  0  0
  8  9  2  0  0  0  0
  9  5  1  0  0  0  0
 10 11  2  0  0  0  0
 11  8  1  0  0  0  0
 12 13  1  6  0  0  0
 12 14  1  0  0  0  0
 14 15  1  0  0  0  0
 16 21  2  6  0  0  0
 16 19  1  0  0  0  0
 16 23  1  0  0  0  0
 17 19  1  6  0  0  0
 17 18  1  0  0  0  0
 17 22  1  0  0  0  0
 18 15  1  1  0  0  0
 18 22  1  0  0  0  0
 18 26  1  0  0  0  0
 22 20  1  1  0  0  0
 23 20  1  0  0  0  0
 25 26  2  0  0  0  0
 26 24  1  0  0  0  0
 27 37  1  1  0  0  0
 27  2  1  0  0  0  0
 28 31  1  0  0  0  0
 29 32  1  0  0  0  0
 30 31  1  0  0  0  0
 30 33  1  0  0  0  0
 31 29  1  0  0  0  0
 32 27  1  1  0  0  0
 33 35  1  6  0  0  0
 33 32  1  0  0  0  0
 34 35  2  0  0  0  0
 35 36  1  0  0  0  0
 37 38  1  0  0  0  0
M  END
>  <MODEL>
7

>  <REMARK>
 VINA RESULT:      -6.5      3.000      5.025
  Name = 
  9 active torsions:
  status: ('A' for Active; 'I' for Inactive)
    1  A    between atoms: C_3  and  C_16
    2  A    between atoms: C_3  and  C_17
    3  A    between atoms: C_4  and  C_36
    4  A    between atoms: O_5  and  C_26
    5  A    between atoms: C_8  and  C_26
    6  A    between atoms: N_11  and  C_16
    7  A    between atoms: C_17  and  C_23
    8  A    between atoms: C_22  and  C_26
    9  A    between atoms: C_23  and  C_32
                            x       y       z     vdW  Elec       q    Type
                         _______ _______ _______ _____ _____    ______ ____

>  <TORSDO>
F 9

$$$$
=
 OpenBabel11062420593D

 38 42  0  0  1  0  0  0  0  0999 V2000
  190.7990  177.0770  147.8240 N   0  0  0  0  0  0  0  0  0  0  0  0
  193.1070  174.4220  144.3860 C   0  0  0  0  0  0  0  0  0  0  0  0
  193.9910  174.5590  146.5430 F   0  0  0  0  0  0  0  0  0  0  0  0
  190.9470  175.5240  143.8790 N   0  0  0  0  0  0  0  0  0  0  0  0
  189.8000  177.4650  146.8760 C   0  0  0  0  0  3  0  0  0  0  0  0
  192.1390  174.8840  143.3260 C   0  0  0  0  0  3  0  0  0  0  0  0
  192.0640  176.4770  147.4060 C   0  0  0  0  0  3  0  0  0  0  0  0
  190.9680  176.1270  145.1940 C   0  0  1  0  0  3  0  0  0  0  0  0
  189.8750  177.0280  145.6220 C   0  0  0  0  0  3  0  0  0  0  0  0
  193.0460  174.9110  145.6330 C   0  0  0  0  0  0  0  0  0  0  0  0
  191.9690  175.8300  146.0450 C   0  0  0  0  0  0  0  0  0  0  0  0
  189.8160  175.6730  142.9630 C   0  0  1  0  0  3  0  0  0  0  0  0
  190.0210  174.9140  141.8100 O   0  0  0  0  0  1  0  0  0  0  0  0
  188.5110  175.2770  143.6350 C   0  0  0  0  0  2  0  0  0  0  0  0
  187.3710  175.3910  142.6400 C   0  0  0  0  0  2  0  0  0  0  0  0
  184.8740  178.1540  145.5870 S   0  0  1  0  0  0  0  0  0  0  0  0
  186.7090  177.5860  143.7540 C   0  0  2  0  0  3  0  0  0  0  0  0
  186.9530  176.8430  142.4630 C   0  0  2  0  0  0  0  0  0  0  0  0
  186.2070  177.0230  145.0620 C   0  0  0  0  0  2  0  0  0  0  0  0
  184.8490  178.5250  142.7710 C   0  0  0  0  0  2  0  0  0  0  0  0
  185.6280  179.4150  145.9950 O   0  0  0  0  0  0  0  0  0  0  0  0
  185.5340  177.1820  142.8550 C   0  0  2  0  0  3  0  0  0  0  0  0
  183.9950  178.6680  144.0500 C   0  0  0  0  0  2  0  0  0  0  0  0
  187.0690  177.6390  140.2120 O   0  0  0  0  0  0  0  0  0  0  0  0
  188.6540  178.4750  141.6370 O   0  0  0  0  0  1  0  0  0  0  0  0
  187.5630  177.6600  141.3700 C   0  0  0  0  0  0  0  0  0  0  0  0
  194.2490  173.5250  143.9940 C   0  0  2  0  0  3  0  0  0  0  0  0
  197.6560  173.3850  140.7940 C   0  0  0  0  0  1  0  0  0  0  0  0
  195.7140  173.2930  142.0130 N   0  0  0  0  0  2  0  0  0  0  0  0
  197.5010  174.5000  142.8420 C   0  0  0  0  0  2  0  0  0  0  0  0
  197.1170  173.2850  142.1380 N   0  0  0  0  0  0  0  0  0  0  0  0
  195.1750  174.2290  142.9990 C   0  0  2  0  0  3  0  0  0  0  0  0
  196.3350  174.8750  143.7030 C   0  0  2  0  0  3  0  0  0  0  0  0
  195.4240  176.8900  144.6390 O   0  0  0  0  0  1  0  0  0  0  0  0
  196.1690  176.3600  143.7720 C   0  0  0  0  0  0  0  0  0  0  0  0
  196.8400  177.1650  142.8580 O   0  0  0  0  0  0  0  0  0  0  0  0
  193.7910  172.3040  143.4810 O   0  0  0  0  0  0  0  0  0  0  0  0
  193.6340  171.4830  144.5990 C   0  0  0  0  0  1  0  0  0  0  0  0
  2 10  1  0  0  0  0
  4  8  1  0  0  0  0
  5  1  1  0  0  0  0
  6  4  1  0  0  0  0
  6  2  2  0  0  0  0
  7  1  2  0  0  0  0
  8  9  1  1  0  0  0
  8 11  1  0  0  0  0
  9  5  2  0  0  0  0
 10 11  2  0  0  0  0
 10  3  1  0  0  0  0
 11  7  1  0  0  0  0
 12 13  1  6  0  0  0
 12 14  1  0  0  0  0
 12  4  1  0  0  0  0
 15 14  1  0  0  0  0
 16 21  2  6  0  0  0
 17 19  1  1  0  0  0
 18 15  1  1  0  0  0
 18 22  1  0  0  0  0
 18 17  1  0  0  0  0
 19 16  1  0  0  0  0
 20 23  1  0  0  0  0
 22 20  1  6  0  0  0
 22 17  1  0  0  0  0
 23 16  1  0  0  0  0
 24 26  2  0  0  0  0
 26 25  1  0  0  0  0
 26 18  1  0  0  0  0
 27 37  1  6  0  0  0
 27  2  1  0  0  0  0
 28 31  1  0  0  0  0
 29 31  1  0  0  0  0
 29 32  1  0  0  0  0
 30 33  1  0  0  0  0
 31 30  1  0  0  0  0
 32 33  1  0  0  0  0
 32 27  1  1  0  0  0
 33 35  1  6  0  0  0
 35 34  1  0  0  0  0
 36 35  2  0  0  0  0
 37 38  1  0  0  0  0
M  END
>  <MODEL>
8

>  <REMARK>
 VINA RESULT:      -6.5      1.757      2.068
  Name = 
  9 active torsions:
  status: ('A' for Active; 'I' for Inactive)
    1  A    between atoms: C_3  and  C_16
    2  A    between atoms: C_3  and  C_17
    3  A    between atoms: C_4  and  C_36
    4  A    between atoms: O_5  and  C_26
    5  A    between atoms: C_8  and  C_26
    6  A    between atoms: N_11  and  C_16
    7  A    between atoms: C_17  and  C_23
    8  A    between atoms: C_22  and  C_26
    9  A    between atoms: C_23  and  C_32
                            x       y       z     vdW  Elec       q    Type
                         _______ _______ _______ _____ _____    ______ ____

>  <TORSDO>
F 9

$$$$
=
 OpenBabel11062420593D

 38 42  0  0  1  0  0  0  0  0999 V2000
  190.5600  172.5610  137.3810 N   0  0  0  0  0  0  0  0  0  0  0  0
  192.5590  174.4450  141.4620 C   0  0  0  0  0  0  0  0  0  0  0  0
  193.8340  174.2660  139.5140 F   0  0  0  0  0  0  0  0  0  0  0  0
  190.1700  173.7900  141.4230 N   0  0  0  0  0  0  0  0  0  0  0  0
  189.3280  172.3310  138.0720 C   0  0  0  0  0  3  0  0  0  0  0  0
  191.3200  174.1290  142.2610 C   0  0  0  0  0  3  0  0  0  0  0  0
  191.8000  172.8540  138.0960 C   0  0  0  0  0  2  0  0  0  0  0  0
  190.3520  173.2830  140.0810 C   0  0  0  0  0  0  0  0  0  0  0  0
  189.2210  172.6610  139.3560 C   0  0  0  0  0  3  0  0  0  0  0  0
  192.6690  174.0620  140.1820 C   0  0  0  0  0  0  0  0  0  0  0  0
  191.5470  173.4180  139.4750 C   0  0  0  0  0  0  0  0  0  0  0  0
  188.8650  173.8220  142.0840 C   0  0  1  0  0  3  0  0  0  0  0  0
  188.6160  172.6110  142.7300 O   0  0  0  0  0  1  0  0  0  0  0  0
  188.7790  174.9770  143.0680 C   0  0  0  0  0  2  0  0  0  0  0  0
  187.4050  175.6160  142.9850 C   0  0  0  0  0  2  0  0  0  0  0  0
  184.7600  178.1750  145.9860 S   0  0  1  0  0  0  0  0  0  0  0  0
  186.9520  177.4860  144.6560 C   0  0  2  0  0  3  0  0  0  0  0  0
  187.4820  177.1030  143.2960 C   0  0  2  0  0  0  0  0  0  0  0  0
  185.8490  176.8160  145.4390 C   0  0  0  0  0  2  0  0  0  0  0  0
  185.9410  179.3030  143.6630 C   0  0  0  0  0  2  0  0  0  0  0  0
  185.5910  178.8790  147.0530 O   0  0  0  0  0  0  0  0  0  0  0  0
  186.1640  177.8350  143.3870 C   0  0  2  0  0  3  0  0  0  0  0  0
  184.7210  179.3970  144.6060 C   0  0  0  0  0  2  0  0  0  0  0  0
  188.7260  178.2970  141.6400 O   0  0  0  0  0  0  0  0  0  0  0  0
  189.6730  178.2230  143.7240 O   0  0  0  0  0  1  0  0  0  0  0  0
  188.6620  177.8950  142.8320 C   0  0  0  0  0  0  0  0  0  0  0  0
  193.7440  175.0560  142.1600 C   0  0  2  0  0  3  0  0  0  0  0  0
  194.1910  176.7310  146.5030 C   0  0  0  0  0  1  0  0  0  0  0  0
  193.5800  176.1700  144.3630 N   0  0  0  0  0  2  0  0  0  0  0  0
  195.1750  174.8950  145.4430 C   0  0  0  0  0  2  0  0  0  0  0  0
  194.6900  176.2500  145.2270 N   0  0  0  0  0  0  0  0  0  0  0  0
  193.6300  174.8800  143.6760 C   0  0  2  0  0  3  0  0  0  0  0  0
  194.8030  174.1140  144.2210 C   0  0  2  0  0  3  0  0  0  0  0  0
  194.2000  172.3800  145.7700 O   0  0  0  0  0  1  0  0  0  0  0  0
  194.4170  172.7120  144.5740 C   0  0  0  0  0  0  0  0  0  0  0  0
  194.3080  171.7600  143.5660 O   0  0  0  0  0  0  0  0  0  0  0  0
  193.9030  176.4050  141.8180 O   0  0  0  0  0  0  0  0  0  0  0  0
  195.2130  176.5040  141.3470 C   0  0  0  0  0  1  0  0  0  0  0  0
  1  5  2  0  0  0  0
  1  7  1  0  0  0  0
  2 27  1  0  0  0  0
  2  6  2  0  0  0  0
  3 10  1  0  0  0  0
  4 12  1  0  0  0  0
  4  6  1  0  0  0  0
  5  9  1  0  0  0  0
  7 11  1  0  0  0  0
  8  4  1  0  0  0  0
  9  8  2  0  0  0  0
 10  2  1  0  0  0  0
 11  8  1  0  0  0  0
 11 10  2  0  0  0  0
 12 13  1  1  0  0  0
 12 14  1  0  0  0  0
 15 14  1  0  0  0  0
 16 21  2  1  0  0  0
 17 19  1  1  0  0  0
 18 15  1  6  0  0  0
 18 22  1  0  0  0  0
 18 17  1  0  0  0  0
 19 16  1  0  0  0  0
 20 23  1  0  0  0  0
 22 20  1  6  0  0  0
 22 17  1  0  0  0  0
 23 16  1  0  0  0  0
 24 26  2  0  0  0  0
 26 18  1  0  0  0  0
 26 25  1  0  0  0  0
 27 37  1  1  0  0  0
 29 31  1  0  0  0  0
 31 30  1  0  0  0  0
 31 28  1  0  0  0  0
 32 27  1  6  0  0  0
 32 33  1  0  0  0  0
 32 29  1  0  0  0  0
 33 35  1  1  0  0  0
 33 30  1  0  0  0  0
 35 34  1  0  0  0  0
 36 35  2  0  0  0  0
 38 37  1  0  0  0  0
M  END
>  <MODEL>
9

>  <REMARK>
 VINA RESULT:      -6.4      2.681      4.809
  Name = 
  9 active torsions:
  status: ('A' for Active; 'I' for Inactive)
    1  A    between atoms: C_3  and  C_16
    2  A    between atoms: C_3  and  C_17
    3  A    between atoms: C_4  and  C_36
    4  A    between atoms: O_5  and  C_26
    5  A    between atoms: C_8  and  C_26
    6  A    between atoms: N_11  and  C_16
    7  A    between atoms: C_17  and  C_23
    8  A    between atoms: C_22  and  C_26
    9  A    between atoms: C_23  and  C_32
                            x       y       z     vdW  Elec       q    Type
                         _______ _______ _______ _____ _____    ______ ____

>  <TORSDO>
F 9

$$$$
