=
 OpenBabel11072408523D

 60 64  0  0  1  0  0  0  0  0999 V2000
  186.5940  177.3870  144.8000 C   0  0  1  0  0  3  0  0  0  0  0  0
  187.4920  176.5120  140.5990 C   0  0  0  0  0  3  0  0  0  0  0  0
  184.8550  177.7600  142.5390 O   0  0  0  0  0  0  0  0  0  0  0  0
  188.0700  174.2900  141.3640 C   0  0  0  0  0  0  0  0  0  0  0  0
  185.6420  179.4520  145.5920 O   0  0  0  0  0  0  0  0  0  0  0  0
  186.8730  175.8080  142.8400 C   0  0  0  0  0  0  0  0  0  0  0  0
  186.3470  176.0980  144.1470 N   0  0  0  0  0  2  0  0  0  0  0  0
  184.7180  178.7080  143.5500 C   0  0  2  0  0  3  0  0  0  0  0  0
  186.9170  178.1750  147.1560 C   0  0  0  0  0  0  0  0  0  0  0  0
  185.3210  178.2710  144.8950 C   0  0  1  0  0  3  0  0  0  0  0  0
  187.5560  178.1600  148.2480 O   0  0  0  0  0  0  0  0  0  0  0  0
  187.1740  177.1870  146.1420 N   0  0  0  0  0  0  0  0  0  0  0  0
  186.8520  176.7690  141.8070 C   0  0  0  0  0  0  0  0  0  0  0  0
  186.0870  178.0420  141.9410 C   0  0  0  0  0  2  0  0  0  0  0  0
  187.4500  174.5510  142.5970 C   0  0  0  0  0  3  0  0  0  0  0  0
  185.7760  179.1370  146.9560 C   0  0  1  0  0  3  0  0  0  0  0  0
  183.3640  178.9780  143.7360 O   0  0  0  0  0  1  0  0  0  0  0  0
  188.1070  175.2830  140.3870 C   0  0  0  0  0  3  0  0  0  0  0  0
  186.0030  180.3120  147.6850 O   0  0  0  0  0  1  0  0  0  0  0  0
  187.7310  175.9070  146.5830 C   0  0  0  0  0  2  0  0  0  0  0  0
  189.2430  175.8210  146.3500 C   0  0  0  0  0  2  0  0  0  0  0  0
  189.7400  176.9920  145.5030 C   0  0  0  0  0  2  0  0  0  0  0  0
  190.3510  176.5420  144.1750 C   0  0  0  0  0  2  0  0  0  0  0  0
  192.0930  176.8280  142.7490 O   0  0  0  0  0  1  0  0  0  0  0  0
  191.6520  177.1720  143.9870 N   0  0  0  0  0  0  0  0  0  0  0  0
  192.5670  176.5650  144.9460 C   0  0  0  0  0  2  0  0  0  0  0  0
  193.8130  177.1960  144.8680 O   0  0  0  0  0  0  0  0  0  0  0  0
  194.7350  176.2290  145.2710 C   0  0  0  0  0  2  0  0  0  0  0  0
  195.0120  175.3140  142.5770 O   0  0  0  0  0  0  0  0  0  0  0  0
  196.9850  174.6870  144.4080 O   0  0  0  0  0  1  0  0  0  0  0  0
  195.8840  175.8680  143.9180 P   0  0  0  0  0  0  0  0  0  0  0  0
  196.6300  177.1270  143.5430 O   0  0  0  0  0  1  0  0  0  0  0  0
  188.6350  173.0430  141.1030 O   0  0  0  0  0  0  0  0  0  0  0  0
  190.0430  172.8570  141.0610 C   0  0  2  0  0  3  0  0  0  0  0  0
  193.6880  171.7130  140.5620 C   0  0  0  0  0  2  0  0  0  0  0  0
  192.3650  171.9510  138.9030 C   0  0  2  0  0  0  0  0  0  0  0  0
  190.6090  172.1340  139.4570 P   0  0  0  0  0  0  0  0  0  0  0  0
  189.5390  171.0960  138.6750 O   0  0  0  0  0  1  0  0  0  0  0  0
  192.7100  170.8090  139.8210 C   0  0  2  0  0  3  0  0  0  0  0  0
  191.3440  170.7940  140.4560 C   0  0  0  0  0  2  0  0  0  0  0  0
  193.4110  172.8330  139.5750 C   0  0  2  0  0  3  0  0  0  0  0  0
  192.5580  171.5850  137.5290 O   0  0  0  0  0  0  0  0  0  0  0  0
  191.0790  171.7150  135.6420 O   0  0  0  0  0  0  0  0  0  0  0  0
  192.0720  172.2890  136.4230 C   0  0  0  0  0  0  0  0  0  0  0  0
  192.5290  173.4220  136.1100 O   0  0  0  0  0  1  0  0  0  0  0  0
  190.0930  173.5720  138.4640 C   0  0  0  0  0  2  0  0  0  0  0  0
  188.8910  174.3290  136.7820 C   0  0  0  0  0  1  0  0  0  0  0  0
  188.9650  173.2810  137.6980 O   0  0  0  0  0  0  0  0  0  0  0  0
  194.6760  173.2090  138.7550 C   0  0  0  0  0  2  0  0  0  0  0  0
  194.1950  175.4410  138.1670 O   0  0  0  0  0  0  0  0  0  0  0  0
  195.0400  174.6670  138.5760 C   0  0  0  0  0  0  0  0  0  0  0  0
  196.3660  175.2350  138.9690 C   0  0  0  0  0  1  0  0  0  0  0  0
  190.4600  171.9960  142.2560 C   0  0  0  0  0  2  0  0  0  0  0  0
  189.2610  172.1050  144.3300 O   0  0  0  0  0  1  0  0  0  0  0  0
  190.2700  172.7200  143.5810 C   0  0  1  0  0  3  0  0  0  0  0  0
  191.5720  172.7950  144.3760 C   0  0  0  0  0  2  0  0  0  0  0  0
  192.7470  171.9480  143.8510 C   0  0  2  0  0  3  0  0  0  0  0  0
  192.4930  170.4890  144.2340 C   0  0  0  0  0  1  0  0  0  0  0  0
  194.1140  172.3930  144.3720 C   0  0  0  0  0  2  0  0  0  0  0  0
  194.0300  172.8780  145.6820 O   0  0  0  0  0  1  0  0  0  0  0  0
  1  7  1  1  0  0  0
  1 10  1  0  0  0  0
  1 12  1  0  0  0  0
  2 13  1  0  0  0  0
  3  8  1  0  0  0  0
  4 15  2  0  0  0  0
  5 16  1  0  0  0  0
  6  7  1  0  0  0  0
  8 17  1  1  0  0  0
  8 10  1  0  0  0  0
  9 11  2  0  0  0  0
 10  5  1  1  0  0  0
 12 20  1  0  0  0  0
 12  9  1  0  0  0  0
 13 14  1  0  0  0  0
 13  6  2  0  0  0  0
 14  3  1  0  0  0  0
 15  6  1  0  0  0  0
 16  9  1  0  0  0  0
 16 19  1  1  0  0  0
 18  2  2  0  0  0  0
 18  4  1  0  0  0  0
 21 20  1  0  0  0  0
 22 21  1  0  0  0  0
 23 22  1  0  0  0  0
 24 25  1  0  0  0  0
 25 23  1  0  0  0  0
 25 26  1  0  0  0  0
 27 26  1  0  0  0  0
 27 28  1  0  0  0  0
 29 31  2  0  0  0  0
 31 30  1  0  0  0  0
 31 28  1  0  0  0  0
 32 31  1  0  0  0  0
 33  4  1  0  0  0  0
 34 33  1  0  0  0  0
 34 53  1  1  0  0  0
 36 42  1  6  0  0  0
 36 37  1  0  0  0  0
 36 41  1  0  0  0  0
 36 39  1  0  0  0  0
 37 40  1  0  0  0  0
 37 34  1  0  0  0  0
 38 37  1  0  0  0  0
 39 40  1  1  0  0  0
 39 35  1  0  0  0  0
 41 49  1  6  0  0  0
 41 35  1  0  0  0  0
 43 44  2  0  0  0  0
 44 42  1  0  0  0  0
 45 44  1  0  0  0  0
 46 37  1  0  0  0  0
 47 48  1  0  0  0  0
 48 46  1  0  0  0  0
 50 51  2  0  0  0  0
 51 49  1  0  0  0  0
 51 52  1  0  0  0  0
 53 55  1  0  0  0  0
 55 54  1  1  0  0  0
 55 56  1  0  0  0  0
 57 58  1  1  0  0  0
 57 59  1  0  0  0  0
 57 56  1  0  0  0  0
 59 60  1  0  0  0  0
M  END
>  <MODEL>
1

>  <REMARK>
 VINA RESULT:      -5.7      0.000      0.000
  Name = 
  23 active torsions:
  status: ('A' for Active; 'I' for Inactive)
    1  A    between atoms: C_3  and  C_20
    2  A    between atoms: C_4  and  O_38
    3  A    between atoms: C_5  and  C_29
    4  A    between atoms: C_5  and  C_58
    5  A    between atoms: C_6  and  C_8
    6  A    between atoms: C_6  and  P_15
    7  A    between atoms: C_6  and  O_49
    8  A    between atoms: C_8  and  C_21
    9  A    between atoms: C_11  and  C_19
   10  A    between atoms: C_11  and  C_48
   11  A    between atoms: C_12  and  P_15
   12  A    between atoms: C_12  and  O_59
   13  A    between atoms: C_13  and  O_49
   14  A    between atoms: C_20  and  C_60
   15  A    between atoms: C_21  and  C_60
   16  A    between atoms: C_27  and  O_28
   17  A    between atoms: C_27  and  N_51
   18  A    between atoms: O_28  and  C_33
   19  A    between atoms: C_29  and  C_50
   20  A    between atoms: C_32  and  O_38
   21  A    between atoms: C_33  and  P_41
   22  A    between atoms: N_43  and  C_50
   23  A    between atoms: N_51  and  C_58
                            x       y       z     vdW  Elec       q    Type
                         _______ _______ _______ _____ _____    ______ ____

>  <TORSDO>
F 23

$$$$
=
 OpenBabel11072408523D

 60 64  0  0  1  0  0  0  0  0999 V2000
  186.5890  177.4870  144.7870 C   0  0  1  0  0  3  0  0  0  0  0  0
  187.2970  176.7780  140.5190 C   0  0  0  0  0  3  0  0  0  0  0  0
  184.7120  177.8330  142.6360 O   0  0  0  0  0  0  0  0  0  0  0  0
  188.0250  174.5680  141.1820 C   0  0  0  0  0  0  0  0  0  0  0  0
  185.5810  179.4770  145.6930 O   0  0  0  0  0  0  0  0  0  0  0  0
  186.8380  175.9800  142.7670 C   0  0  0  0  0  0  0  0  0  0  0  0
  186.3710  176.2060  144.1090 N   0  0  0  0  0  2  0  0  0  0  0  0
  184.5830  178.7440  143.6820 C   0  0  2  0  0  3  0  0  0  0  0  0
  187.0030  178.2230  147.1460 C   0  0  0  0  0  0  0  0  0  0  0  0
  185.2810  178.3010  144.9780 C   0  0  1  0  0  3  0  0  0  0  0  0
  187.7010  178.2100  148.2010 O   0  0  0  0  0  0  0  0  0  0  0  0
  187.2520  177.2790  146.0890 N   0  0  0  0  0  0  0  0  0  0  0  0
  186.7120  176.9680  141.7670 C   0  0  0  0  0  0  0  0  0  0  0  0
  185.8930  178.1960  141.9810 C   0  0  0  0  0  2  0  0  0  0  0  0
  187.4630  174.7620  142.4540 C   0  0  0  0  0  3  0  0  0  0  0  0
  185.8060  179.1310  147.0370 C   0  0  1  0  0  3  0  0  0  0  0  0
  183.2300  178.9390  143.9490 O   0  0  0  0  0  1  0  0  0  0  0  0
  187.9590  175.5890  140.2360 C   0  0  0  0  0  3  0  0  0  0  0  0
  186.0140  180.2950  147.7900 O   0  0  0  0  0  1  0  0  0  0  0  0
  187.8960  176.0170  146.4600 C   0  0  0  0  0  2  0  0  0  0  0  0
  189.1690  175.7550  145.6490 C   0  0  0  0  0  2  0  0  0  0  0  0
  190.1590  176.9110  145.7850 C   0  0  0  0  0  2  0  0  0  0  0  0
  190.0970  177.8820  144.6050 C   0  0  0  0  0  2  0  0  0  0  0  0
  191.0630  177.1660  142.6800 O   0  0  0  0  0  1  0  0  0  0  0  0
  191.3370  177.8160  143.8410 N   0  0  0  0  0  0  0  0  0  0  0  0
  192.2600  176.9720  144.5900 C   0  0  0  0  0  2  0  0  0  0  0  0
  192.9120  176.0980  143.7130 O   0  0  0  0  0  0  0  0  0  0  0  0
  194.2730  176.2930  143.9530 C   0  0  0  0  0  2  0  0  0  0  0  0
  194.7240  175.8950  146.7470 O   0  0  0  0  0  1  0  0  0  0  0  0
  196.4510  174.7200  144.9360 O   0  0  0  0  0  0  0  0  0  0  0  0
  194.8460  175.1470  145.2330 P   0  0  0  0  0  0  0  0  0  0  0  0
  193.9840  173.9060  145.2180 O   0  0  0  0  0  1  0  0  0  0  0  0
  188.6370  173.3590  140.8530 O   0  0  0  0  0  0  0  0  0  0  0  0
  190.0500  173.2150  140.8520 C   0  0  2  0  0  3  0  0  0  0  0  0
  190.7150  169.6520  139.5440 C   0  0  0  0  0  2  0  0  0  0  0  0
  191.5050  171.3660  138.5440 C   0  0  2  0  0  0  0  0  0  0  0  0
  190.7270  172.9280  139.1560 P   0  0  0  0  0  0  0  0  0  0  0  0
  190.1410  173.9210  137.9300 O   0  0  0  0  0  1  0  0  0  0  0  0
  190.2280  170.5760  138.4340 C   0  0  2  0  0  3  0  0  0  0  0  0
  189.3830  171.7080  138.9550 C   0  0  0  0  0  2  0  0  0  0  0  0
  192.0420  170.3910  139.5850 C   0  0  2  0  0  3  0  0  0  0  0  0
  192.1710  171.4470  137.2750 O   0  0  0  0  0  0  0  0  0  0  0  0
  194.4330  172.2120  137.5260 O   0  0  0  0  0  1  0  0  0  0  0  0
  193.1820  172.3550  136.9440 C   0  0  0  0  0  0  0  0  0  0  0  0
  192.9760  173.3080  136.1450 O   0  0  0  0  0  0  0  0  0  0  0  0
  192.2060  173.9580  139.4180 C   0  0  0  0  0  2  0  0  0  0  0  0
  193.9990  174.3740  140.6270 C   0  0  0  0  0  1  0  0  0  0  0  0
  193.0800  173.3690  140.3310 O   0  0  0  0  0  0  0  0  0  0  0  0
  193.2280  169.4740  139.1750 C   0  0  0  0  0  2  0  0  0  0  0  0
  195.0440  168.3630  140.1870 O   0  0  0  0  0  0  0  0  0  0  0  0
  194.4640  169.4230  140.0470 C   0  0  0  0  0  0  0  0  0  0  0  0
  195.0750  170.6340  140.6750 C   0  0  0  0  0  1  0  0  0  0  0  0
  190.4290  172.0900  141.8180 C   0  0  0  0  0  2  0  0  0  0  0  0
  190.7460  173.6540  143.6080 O   0  0  0  0  0  1  0  0  0  0  0  0
  191.3340  172.5750  142.9410 C   0  0  1  0  0  3  0  0  0  0  0  0
  191.6760  171.4500  143.9170 C   0  0  0  0  0  2  0  0  0  0  0  0
  192.9220  170.6080  143.5860 C   0  0  2  0  0  3  0  0  0  0  0  0
  192.4560  169.2330  143.1030 C   0  0  0  0  0  1  0  0  0  0  0  0
  193.8930  170.4480  144.7560 C   0  0  0  0  0  2  0  0  0  0  0  0
  195.2020  170.7750  144.3840 O   0  0  0  0  0  1  0  0  0  0  0  0
  1  7  1  1  0  0  0
  1 10  1  0  0  0  0
  1 12  1  0  0  0  0
  2 13  1  0  0  0  0
  3  8  1  0  0  0  0
  4 15  2  0  0  0  0
  5 16  1  0  0  0  0
  6  7  1  0  0  0  0
  8 17  1  1  0  0  0
  8 10  1  0  0  0  0
  9 11  2  0  0  0  0
 10  5  1  1  0  0  0
 12 20  1  0  0  0  0
 12  9  1  0  0  0  0
 13 14  1  0  0  0  0
 13  6  2  0  0  0  0
 14  3  1  0  0  0  0
 15  6  1  0  0  0  0
 16  9  1  0  0  0  0
 16 19  1  1  0  0  0
 18  2  2  0  0  0  0
 18  4  1  0  0  0  0
 21 22  1  0  0  0  0
 21 20  1  0  0  0  0
 23 22  1  0  0  0  0
 24 25  1  0  0  0  0
 25 26  1  0  0  0  0
 25 23  1  0  0  0  0
 27 28  1  0  0  0  0
 27 26  1  0  0  0  0
 28 31  1  0  0  0  0
 30 31  2  0  0  0  0
 31 29  1  0  0  0  0
 32 31  1  0  0  0  0
 33  4  1  0  0  0  0
 34 33  1  0  0  0  0
 34 53  1  1  0  0  0
 35 41  1  0  0  0  0
 36 42  1  6  0  0  0
 36 37  1  0  0  0  0
 36 41  1  0  0  0  0
 37 46  1  0  0  0  0
 37 34  1  0  0  0  0
 38 37  1  0  0  0  0
 39 36  1  0  0  0  0
 39 40  1  1  0  0  0
 39 35  1  0  0  0  0
 40 37  1  0  0  0  0
 41 49  1  6  0  0  0
 44 42  1  0  0  0  0
 44 43  1  0  0  0  0
 45 44  2  0  0  0  0
 46 48  1  0  0  0  0
 48 47  1  0  0  0  0
 49 51  1  0  0  0  0
 51 50  2  0  0  0  0
 51 52  1  0  0  0  0
 53 55  1  0  0  0  0
 55 54  1  1  0  0  0
 55 56  1  0  0  0  0
 57 58  1  1  0  0  0
 57 56  1  0  0  0  0
 57 59  1  0  0  0  0
 60 59  1  0  0  0  0
M  END
>  <MODEL>
2

>  <REMARK>
 VINA RESULT:      -5.4      1.403      2.382
  Name = 
  23 active torsions:
  status: ('A' for Active; 'I' for Inactive)
    1  A    between atoms: C_3  and  C_20
    2  A    between atoms: C_4  and  O_38
    3  A    between atoms: C_5  and  C_29
    4  A    between atoms: C_5  and  C_58
    5  A    between atoms: C_6  and  C_8
    6  A    between atoms: C_6  and  P_15
    7  A    between atoms: C_6  and  O_49
    8  A    between atoms: C_8  and  C_21
    9  A    between atoms: C_11  and  C_19
   10  A    between atoms: C_11  and  C_48
   11  A    between atoms: C_12  and  P_15
   12  A    between atoms: C_12  and  O_59
   13  A    between atoms: C_13  and  O_49
   14  A    between atoms: C_20  and  C_60
   15  A    between atoms: C_21  and  C_60
   16  A    between atoms: C_27  and  O_28
   17  A    between atoms: C_27  and  N_51
   18  A    between atoms: O_28  and  C_33
   19  A    between atoms: C_29  and  C_50
   20  A    between atoms: C_32  and  O_38
   21  A    between atoms: C_33  and  P_41
   22  A    between atoms: N_43  and  C_50
   23  A    between atoms: N_51  and  C_58
                            x       y       z     vdW  Elec       q    Type
                         _______ _______ _______ _____ _____    ______ ____

>  <TORSDO>
F 23

$$$$
=
 OpenBabel11072408523D

 60 64  0  0  1  0  0  0  0  0999 V2000
  189.6760  176.2960  144.8140 C   0  0  1  0  0  3  0  0  0  0  0  0
  192.7990  173.2940  144.1410 C   0  0  0  0  0  3  0  0  0  0  0  0
  191.9530  175.7560  146.4860 O   0  0  0  0  0  0  0  0  0  0  0  0
  193.0750  174.3180  141.9670 C   0  0  0  0  0  0  0  0  0  0  0  0
  188.5000  176.6030  146.8930 O   0  0  0  0  0  0  0  0  0  0  0  0
  191.7790  175.4500  143.6850 C   0  0  0  0  0  0  0  0  0  0  0  0
  190.9110  176.5340  144.0620 N   0  0  0  0  0  2  0  0  0  0  0  0
  190.7990  176.1350  147.1680 C   0  0  2  0  0  3  0  0  0  0  0  0
  187.3980  177.3350  144.9060 C   0  0  0  0  0  0  0  0  0  0  0  0
  189.7480  176.8150  146.2760 C   0  0  1  0  0  3  0  0  0  0  0  0
  186.3080  177.6580  144.3500 O   0  0  0  0  0  0  0  0  0  0  0  0
  188.5200  176.8950  144.1190 N   0  0  0  0  0  0  0  0  0  0  0  0
  192.0730  174.3980  144.5770 C   0  0  0  0  0  0  0  0  0  0  0  0
  191.6920  174.4660  146.0180 C   0  0  0  0  0  2  0  0  0  0  0  0
  192.3190  175.4230  142.3890 C   0  0  0  0  0  3  0  0  0  0  0  0
  187.5890  177.5440  146.3850 C   0  0  1  0  0  3  0  0  0  0  0  0
  191.1460  177.0110  148.1940 O   0  0  0  0  0  1  0  0  0  0  0  0
  193.2860  173.2520  142.8400 C   0  0  0  0  0  3  0  0  0  0  0  0
  186.3640  177.4160  147.0520 O   0  0  0  0  0  1  0  0  0  0  0  0
  188.5750  177.3420  142.7270 C   0  0  0  0  0  2  0  0  0  0  0  0
  188.5560  176.1710  141.7390 C   0  0  0  0  0  2  0  0  0  0  0  0
  187.8190  174.9660  142.3240 C   0  0  0  0  0  2  0  0  0  0  0  0
  188.7190  173.7380  142.4670 C   0  0  0  0  0  2  0  0  0  0  0  0
  188.0680  172.9580  140.4380 O   0  0  0  0  0  1  0  0  0  0  0  0
  189.1720  173.2970  141.1530 N   0  0  0  0  0  0  0  0  0  0  0  0
  189.9400  172.0740  141.3500 C   0  0  0  0  0  2  0  0  0  0  0  0
  190.4720  171.6540  140.1270 O   0  0  0  0  0  0  0  0  0  0  0  0
  191.6340  170.9560  140.4580 C   0  0  0  0  0  2  0  0  0  0  0  0
  190.3070  168.8940  138.9890 O   0  0  0  0  0  0  0  0  0  0  0  0
  190.6780  168.5670  141.7080 O   0  0  0  0  0  1  0  0  0  0  0  0
  191.3560  169.1740  140.2880 P   0  0  0  0  0  0  0  0  0  0  0  0
  192.6730  168.4830  140.0230 O   0  0  0  0  0  1  0  0  0  0  0  0
  193.6290  174.2830  140.6870 O   0  0  0  0  0  0  0  0  0  0  0  0
  194.9530  174.7320  140.4360 C   0  0  2  0  0  3  0  0  0  0  0  0
  194.4700  175.1540  136.6370 C   0  0  0  0  0  2  0  0  0  0  0  0
  195.4120  173.4170  137.4480 C   0  0  2  0  0  0  0  0  0  0  0  0
  195.8450  173.6520  139.2310 P   0  0  0  0  0  0  0  0  0  0  0  0
  197.4430  173.2690  139.5970 O   0  0  0  0  0  1  0  0  0  0  0  0
  195.9020  174.7610  136.9800 C   0  0  2  0  0  3  0  0  0  0  0  0
  196.3010  175.1940  138.3670 C   0  0  0  0  0  2  0  0  0  0  0  0
  193.9910  173.7630  137.0170 C   0  0  2  0  0  3  0  0  0  0  0  0
  196.0940  172.3540  136.7670 O   0  0  0  0  0  0  0  0  0  0  0  0
  194.9990  170.2490  137.1360 O   0  0  0  0  0  0  0  0  0  0  0  0
  196.1500  171.0220  137.1890 C   0  0  0  0  0  0  0  0  0  0  0  0
  197.2160  170.5160  137.6330 O   0  0  0  0  0  1  0  0  0  0  0  0
  195.2090  172.0980  139.9370 C   0  0  0  0  0  2  0  0  0  0  0  0
  195.8280  170.2050  140.8780 C   0  0  0  0  0  1  0  0  0  0  0  0
  196.0860  171.5750  140.8870 O   0  0  0  0  0  0  0  0  0  0  0  0
  193.3980  173.0020  135.8000 C   0  0  0  0  0  2  0  0  0  0  0  0
  191.1050  172.9940  135.2520 O   0  0  0  0  0  0  0  0  0  0  0  0
  191.9910  172.4490  135.8820 C   0  0  0  0  0  0  0  0  0  0  0  0
  191.6440  171.2000  136.6260 C   0  0  0  0  0  1  0  0  0  0  0  0
  195.6950  174.8390  141.7700 C   0  0  0  0  0  2  0  0  0  0  0  0
  195.7720  177.1530  141.1470 O   0  0  0  0  0  1  0  0  0  0  0  0
  196.3960  176.1800  141.9340 C   0  0  1  0  0  3  0  0  0  0  0  0
  196.4490  176.6140  143.3980 C   0  0  0  0  0  2  0  0  0  0  0  0
  195.4780  175.9040  144.3610 C   0  0  2  0  0  3  0  0  0  0  0  0
  194.8170  176.9660  145.2410 C   0  0  0  0  0  1  0  0  0  0  0  0
  196.1390  174.8390  145.2360 C   0  0  0  0  0  2  0  0  0  0  0  0
  195.3360  174.5070  146.3330 O   0  0  0  0  0  1  0  0  0  0  0  0
  1  7  1  6  0  0  0
  1 10  1  0  0  0  0
  2 13  1  0  0  0  0
  3  8  1  0  0  0  0
  4 15  2  0  0  0  0
  4 18  1  0  0  0  0
  6  7  1  0  0  0  0
  6 13  2  0  0  0  0
  8 17  1  1  0  0  0
  9 16  1  0  0  0  0
 10  5  1  1  0  0  0
 10  8  1  0  0  0  0
 11  9  2  0  0  0  0
 12  1  1  0  0  0  0
 12  9  1  0  0  0  0
 13 14  1  0  0  0  0
 14  3  1  0  0  0  0
 15  6  1  0  0  0  0
 16  5  1  0  0  0  0
 16 19  1  1  0  0  0
 18  2  2  0  0  0  0
 20 12  1  0  0  0  0
 21 22  1  0  0  0  0
 21 20  1  0  0  0  0
 22 23  1  0  0  0  0
 24 25  1  0  0  0  0
 25 26  1  0  0  0  0
 25 23  1  0  0  0  0
 27 28  1  0  0  0  0
 27 26  1  0  0  0  0
 29 31  2  0  0  0  0
 31 28  1  0  0  0  0
 31 30  1  0  0  0  0
 32 31  1  0  0  0  0
 33  4  1  0  0  0  0
 34 33  1  0  0  0  0
 34 53  1  1  0  0  0
 35 41  1  0  0  0  0
 36 42  1  6  0  0  0
 36 37  1  0  0  0  0
 37 38  1  0  0  0  0
 37 46  1  0  0  0  0
 37 34  1  0  0  0  0
 39 35  1  1  0  0  0
 39 36  1  0  0  0  0
 39 40  1  0  0  0  0
 40 37  1  0  0  0  0
 41 49  1  6  0  0  0
 41 36  1  0  0  0  0
 42 44  1  0  0  0  0
 43 44  2  0  0  0  0
 44 45  1  0  0  0  0
 46 48  1  0  0  0  0
 47 48  1  0  0  0  0
 49 51  1  0  0  0  0
 50 51  2  0  0  0  0
 51 52  1  0  0  0  0
 53 55  1  0  0  0  0
 55 54  1  6  0  0  0
 55 56  1  0  0  0  0
 56 57  1  0  0  0  0
 57 59  1  0  0  0  0
 57 58  1  1  0  0  0
 59 60  1  0  0  0  0
M  END
>  <MODEL>
3

>  <REMARK>
 VINA RESULT:      -5.3      2.471      6.019
  Name = 
  23 active torsions:
  status: ('A' for Active; 'I' for Inactive)
    1  A    between atoms: C_3  and  C_20
    2  A    between atoms: C_4  and  O_38
    3  A    between atoms: C_5  and  C_29
    4  A    between atoms: C_5  and  C_58
    5  A    between atoms: C_6  and  C_8
    6  A    between atoms: C_6  and  P_15
    7  A    between atoms: C_6  and  O_49
    8  A    between atoms: C_8  and  C_21
    9  A    between atoms: C_11  and  C_19
   10  A    between atoms: C_11  and  C_48
   11  A    between atoms: C_12  and  P_15
   12  A    between atoms: C_12  and  O_59
   13  A    between atoms: C_13  and  O_49
   14  A    between atoms: C_20  and  C_60
   15  A    between atoms: C_21  and  C_60
   16  A    between atoms: C_27  and  O_28
   17  A    between atoms: C_27  and  N_51
   18  A    between atoms: O_28  and  C_33
   19  A    between atoms: C_29  and  C_50
   20  A    between atoms: C_32  and  O_38
   21  A    between atoms: C_33  and  P_41
   22  A    between atoms: N_43  and  C_50
   23  A    between atoms: N_51  and  C_58
                            x       y       z     vdW  Elec       q    Type
                         _______ _______ _______ _____ _____    ______ ____

>  <TORSDO>
F 23

$$$$
=
 OpenBabel11072408523D

 60 64  0  0  1  0  0  0  0  0999 V2000
  186.5730  177.4610  144.6530 C   0  0  1  0  0  3  0  0  0  0  0  0
  187.1900  176.9740  140.3410 C   0  0  0  0  0  3  0  0  0  0  0  0
  184.6240  177.8230  142.5700 O   0  0  0  0  0  0  0  0  0  0  0  0
  188.0280  174.7700  140.8830 C   0  0  0  0  0  0  0  0  0  0  0  0
  185.5090  179.3640  145.6750 O   0  0  0  0  0  0  0  0  0  0  0  0
  186.8280  176.0580  142.5600 C   0  0  0  0  0  0  0  0  0  0  0  0
  186.3900  176.2040  143.9230 N   0  0  0  0  0  2  0  0  0  0  0  0
  184.4870  178.6800  143.6590 C   0  0  2  0  0  3  0  0  0  0  0  0
  187.0210  178.1090  147.0310 C   0  0  0  0  0  0  0  0  0  0  0  0
  185.2380  178.2100  144.9150 C   0  0  1  0  0  3  0  0  0  0  0  0
  187.7490  178.0780  148.0670 O   0  0  0  0  0  0  0  0  0  0  0  0
  187.2800  177.2240  145.9270 N   0  0  0  0  0  0  0  0  0  0  0  0
  186.6340  177.0830  141.6110 C   0  0  0  0  0  0  0  0  0  0  0  0
  185.7700  178.2640  141.9020 C   0  0  0  0  0  2  0  0  0  0  0  0
  187.4940  174.8830  142.1760 C   0  0  0  0  0  3  0  0  0  0  0  0
  185.7860  178.9690  146.9960 C   0  0  1  0  0  3  0  0  0  0  0  0
  183.1350  178.8040  143.9700 O   0  0  0  0  0  1  0  0  0  0  0  0
  187.8940  175.8280  139.9860 C   0  0  0  0  0  3  0  0  0  0  0  0
  185.9660  180.1050  147.7950 O   0  0  0  0  0  1  0  0  0  0  0  0
  187.9860  175.9760  146.2230 C   0  0  0  0  0  2  0  0  0  0  0  0
  189.3850  175.9380  145.5990 C   0  0  0  0  0  2  0  0  0  0  0  0
  190.4690  175.8820  146.6750 C   0  0  0  0  0  2  0  0  0  0  0  0
  191.7530  176.6010  146.2560 C   0  0  0  0  0  2  0  0  0  0  0  0
  193.9360  176.9070  146.7930 O   0  0  0  0  0  1  0  0  0  0  0  0
  192.8860  176.0710  147.0040 N   0  0  0  0  0  0  0  0  0  0  0  0
  193.2380  174.7900  146.4020 C   0  0  0  0  0  2  0  0  0  0  0  0
  194.4480  174.9140  145.7130 O   0  0  0  0  0  0  0  0  0  0  0  0
  194.8390  173.6040  145.4300 C   0  0  0  0  0  2  0  0  0  0  0  0
  197.2050  174.8250  144.3890 O   0  0  0  0  0  0  0  0  0  0  0  0
  197.0840  172.0670  144.5450 O   0  0  0  0  0  1  0  0  0  0  0  0
  196.6430  173.5110  145.2980 P   0  0  0  0  0  0  0  0  0  0  0  0
  197.2510  173.5640  146.6800 O   0  0  0  0  0  1  0  0  0  0  0  0
  188.6800  173.6040  140.4830 O   0  0  0  0  0  0  0  0  0  0  0  0
  190.0740  173.5860  140.2110 C   0  0  2  0  0  3  0  0  0  0  0  0
  190.4860  169.8680  139.2870 C   0  0  0  0  0  2  0  0  0  0  0  0
  191.1000  171.4170  137.9510 C   0  0  2  0  0  0  0  0  0  0  0  0
  190.4460  173.0650  138.4770 P   0  0  0  0  0  0  0  0  0  0  0  0
  189.6630  173.9090  137.2490 O   0  0  0  0  0  1  0  0  0  0  0  0
  189.8190  170.6550  138.1650 C   0  0  2  0  0  3  0  0  0  0  0  0
  189.0820  171.8680  138.6700 C   0  0  0  0  0  2  0  0  0  0  0  0
  191.8030  170.5690  139.0040 C   0  0  2  0  0  3  0  0  0  0  0  0
  191.5370  171.3170  136.5870 O   0  0  0  0  0  0  0  0  0  0  0  0
  191.1380  169.3970  135.2010 O   0  0  0  0  0  1  0  0  0  0  0  0
  190.8290  170.7040  135.5490 C   0  0  0  0  0  0  0  0  0  0  0  0
  189.9310  171.3190  134.9120 O   0  0  0  0  0  0  0  0  0  0  0  0
  191.9540  174.0790  138.3460 C   0  0  0  0  0  2  0  0  0  0  0  0
  193.2820  175.3160  137.0980 C   0  0  0  0  0  1  0  0  0  0  0  0
  192.2400  174.3930  137.0170 O   0  0  0  0  0  0  0  0  0  0  0  0
  192.8960  169.5750  138.5220 C   0  0  0  0  0  2  0  0  0  0  0  0
  195.2180  169.1680  138.5050 O   0  0  0  0  0  0  0  0  0  0  0  0
  194.3440  170.0140  138.5000 C   0  0  0  0  0  0  0  0  0  0  0  0
  194.7650  171.4430  138.3740 C   0  0  0  0  0  1  0  0  0  0  0  0
  190.7620  172.6850  141.2400 C   0  0  0  0  0  2  0  0  0  0  0  0
  190.1500  172.3620  143.5360 O   0  0  0  0  0  1  0  0  0  0  0  0
  190.7190  173.2750  142.6420 C   0  0  1  0  0  3  0  0  0  0  0  0
  192.1060  173.7090  143.1150 C   0  0  0  0  0  2  0  0  0  0  0  0
  192.5330  175.1470  142.7620 C   0  0  2  0  0  3  0  0  0  0  0  0
  191.2710  176.0030  142.6360 C   0  0  0  0  0  1  0  0  0  0  0  0
  193.3640  175.2510  141.4830 C   0  0  0  0  0  2  0  0  0  0  0  0
  194.3020  176.2860  141.5650 O   0  0  0  0  0  1  0  0  0  0  0  0
  1  7  1  1  0  0  0
  1 10  1  0  0  0  0
  1 12  1  0  0  0  0
  2 13  1  0  0  0  0
  3  8  1  0  0  0  0
  4 15  2  0  0  0  0
  5 16  1  0  0  0  0
  6  7  1  0  0  0  0
  8 17  1  1  0  0  0
  8 10  1  0  0  0  0
  9 11  2  0  0  0  0
 10  5  1  1  0  0  0
 12 20  1  0  0  0  0
 12  9  1  0  0  0  0
 13 14  1  0  0  0  0
 13  6  2  0  0  0  0
 14  3  1  0  0  0  0
 15  6  1  0  0  0  0
 16  9  1  0  0  0  0
 16 19  1  1  0  0  0
 18  2  2  0  0  0  0
 18  4  1  0  0  0  0
 21 20  1  0  0  0  0
 21 22  1  0  0  0  0
 23 22  1  0  0  0  0
 23 25  1  0  0  0  0
 24 25  1  0  0  0  0
 26 25  1  0  0  0  0
 27 26  1  0  0  0  0
 28 27  1  0  0  0  0
 29 31  2  0  0  0  0
 30 31  1  0  0  0  0
 31 28  1  0  0  0  0
 31 32  1  0  0  0  0
 33  4  1  0  0  0  0
 34 33  1  0  0  0  0
 34 53  1  1  0  0  0
 36 42  1  6  0  0  0
 36 39  1  0  0  0  0
 36 37  1  0  0  0  0
 36 41  1  0  0  0  0
 37 40  1  0  0  0  0
 37 34  1  0  0  0  0
 38 37  1  0  0  0  0
 39 40  1  1  0  0  0
 39 35  1  0  0  0  0
 41 49  1  6  0  0  0
 41 35  1  0  0  0  0
 43 44  1  0  0  0  0
 44 42  1  0  0  0  0
 45 44  2  0  0  0  0
 46 37  1  0  0  0  0
 48 47  1  0  0  0  0
 48 46  1  0  0  0  0
 51 50  2  0  0  0  0
 51 49  1  0  0  0  0
 52 51  1  0  0  0  0
 53 55  1  0  0  0  0
 55 56  1  0  0  0  0
 55 54  1  1  0  0  0
 57 58  1  6  0  0  0
 57 56  1  0  0  0  0
 59 60  1  0  0  0  0
 59 57  1  0  0  0  0
M  END
>  <MODEL>
4

>  <REMARK>
 VINA RESULT:      -5.2      1.662      2.667
  Name = 
  23 active torsions:
  status: ('A' for Active; 'I' for Inactive)
    1  A    between atoms: C_3  and  C_20
    2  A    between atoms: C_4  and  O_38
    3  A    between atoms: C_5  and  C_29
    4  A    between atoms: C_5  and  C_58
    5  A    between atoms: C_6  and  C_8
    6  A    between atoms: C_6  and  P_15
    7  A    between atoms: C_6  and  O_49
    8  A    between atoms: C_8  and  C_21
    9  A    between atoms: C_11  and  C_19
   10  A    between atoms: C_11  and  C_48
   11  A    between atoms: C_12  and  P_15
   12  A    between atoms: C_12  and  O_59
   13  A    between atoms: C_13  and  O_49
   14  A    between atoms: C_20  and  C_60
   15  A    between atoms: C_21  and  C_60
   16  A    between atoms: C_27  and  O_28
   17  A    between atoms: C_27  and  N_51
   18  A    between atoms: O_28  and  C_33
   19  A    between atoms: C_29  and  C_50
   20  A    between atoms: C_32  and  O_38
   21  A    between atoms: C_33  and  P_41
   22  A    between atoms: N_43  and  C_50
   23  A    between atoms: N_51  and  C_58
                            x       y       z     vdW  Elec       q    Type
                         _______ _______ _______ _____ _____    ______ ____

>  <TORSDO>
F 23

$$$$
=
 OpenBabel11072408523D

 60 64  0  0  1  0  0  0  0  0999 V2000
  188.9060  176.0130  144.4760 C   0  0  1  0  0  3  0  0  0  0  0  0
  190.6050  172.3580  142.7530 C   0  0  0  0  0  3  0  0  0  0  0  0
  190.5250  174.0520  145.8190 O   0  0  0  0  0  0  0  0  0  0  0  0
  191.5580  173.8020  141.0630 C   0  0  0  0  0  0  0  0  0  0  0  0
  187.6910  176.1090  146.5530 O   0  0  0  0  0  0  0  0  0  0  0  0
  190.6160  174.7630  143.0890 C   0  0  0  0  0  0  0  0  0  0  0  0
  190.2190  175.9290  143.8310 N   0  0  0  0  0  2  0  0  0  0  0  0
  189.5440  174.6460  146.6090 C   0  0  2  0  0  3  0  0  0  0  0  0
  187.2550  177.8340  144.9610 C   0  0  0  0  0  0  0  0  0  0  0  0
  188.9880  175.9540  146.0260 C   0  0  1  0  0  3  0  0  0  0  0  0
  186.4730  178.7490  144.5690 O   0  0  0  0  0  0  0  0  0  0  0  0
  188.1960  177.2350  144.0510 N   0  0  0  0  0  0  0  0  0  0  0  0
  190.3370  173.4620  143.5560 C   0  0  0  0  0  0  0  0  0  0  0  0
  189.8280  173.2210  144.9370 C   0  0  0  0  0  2  0  0  0  0  0  0
  191.2650  174.9250  141.8540 C   0  0  0  0  0  3  0  0  0  0  0  0
  187.3160  177.4560  146.4170 C   0  0  1  0  0  3  0  0  0  0  0  0
  190.0770  174.9110  147.8690 O   0  0  0  0  0  1  0  0  0  0  0  0
  191.2000  172.5310  141.5090 C   0  0  0  0  0  3  0  0  0  0  0  0
  186.0660  177.6560  147.0200 O   0  0  0  0  0  1  0  0  0  0  0  0
  188.6120  178.0350  142.8990 C   0  0  0  0  0  2  0  0  0  0  0  0
  188.1500  177.4260  141.5710 C   0  0  0  0  0  2  0  0  0  0  0  0
  186.6890  176.9830  141.6440 C   0  0  0  0  0  2  0  0  0  0  0  0
  185.8110  177.6690  140.5960 C   0  0  0  0  0  2  0  0  0  0  0  0
  184.4450  177.6440  142.4080 O   0  0  0  0  0  1  0  0  0  0  0  0
  184.6690  178.3050  141.2430 N   0  0  0  0  0  0  0  0  0  0  0  0
  183.5080  178.0700  140.3930 C   0  0  0  0  0  2  0  0  0  0  0  0
  182.4840  178.9550  140.7460 O   0  0  0  0  0  0  0  0  0  0  0  0
  181.3710  178.1460  140.9790 C   0  0  0  0  0  2  0  0  0  0  0  0
  178.9400  178.4320  139.5020 O   0  0  0  0  0  0  0  0  0  0  0  0
  180.2380  180.7060  140.3880 O   0  0  0  0  0  1  0  0  0  0  0  0
  179.8510  179.1070  140.7600 P   0  0  0  0  0  0  0  0  0  0  0  0
  179.0440  179.0680  142.0370 O   0  0  0  0  0  1  0  0  0  0  0  0
  192.2140  173.9460  139.8410 O   0  0  0  0  0  0  0  0  0  0  0  0
  193.6290  173.8610  139.7400 C   0  0  2  0  0  3  0  0  0  0  0  0
  193.0870  175.9800  136.5690 C   0  0  0  0  0  2  0  0  0  0  0  0
  193.6240  173.9170  136.4450 C   0  0  2  0  0  0  0  0  0  0  0  0
  194.1820  173.2610  138.0820 P   0  0  0  0  0  0  0  0  0  0  0  0
  195.6570  172.4540  138.0230 O   0  0  0  0  0  1  0  0  0  0  0  0
  194.3980  175.2060  136.5090 C   0  0  2  0  0  3  0  0  0  0  0  0
  194.9530  174.9040  137.8770 C   0  0  0  0  0  2  0  0  0  0  0  0
  192.3090  174.6860  136.4050 C   0  0  2  0  0  3  0  0  0  0  0  0
  194.0010  173.1460  135.2940 O   0  0  0  0  0  0  0  0  0  0  0  0
  194.7860  170.8780  135.2150 O   0  0  0  0  0  1  0  0  0  0  0  0
  193.7410  171.7850  135.1070 C   0  0  0  0  0  0  0  0  0  0  0  0
  192.5860  171.3670  134.8220 O   0  0  0  0  0  0  0  0  0  0  0  0
  193.2260  171.7130  138.1660 C   0  0  0  0  0  2  0  0  0  0  0  0
  191.2750  170.6930  138.1320 C   0  0  0  0  0  1  0  0  0  0  0  0
  191.8650  171.9460  137.9740 O   0  0  0  0  0  0  0  0  0  0  0  0
  191.4960  174.6630  135.0810 C   0  0  0  0  0  2  0  0  0  0  0  0
  189.1790  174.5000  135.4850 O   0  0  0  0  0  0  0  0  0  0  0  0
  190.0810  175.2010  135.0680 C   0  0  0  0  0  0  0  0  0  0  0  0
  189.7390  176.5970  134.6570 C   0  0  0  0  0  1  0  0  0  0  0  0
  194.1470  172.9710  140.8730 C   0  0  0  0  0  2  0  0  0  0  0  0
  196.5040  173.3690  141.0760 O   0  0  0  0  0  1  0  0  0  0  0  0
  195.2640  173.6380  141.6640 C   0  0  1  0  0  3  0  0  0  0  0  0
  195.0390  175.1430  141.8000 C   0  0  0  0  0  2  0  0  0  0  0  0
  195.0750  175.7170  143.2290 C   0  0  2  0  0  3  0  0  0  0  0  0
  196.3620  176.5290  143.3850 C   0  0  0  0  0  1  0  0  0  0  0  0
  194.9920  174.6550  144.3260 C   0  0  0  0  0  2  0  0  0  0  0  0
  193.6740  174.4740  144.7630 O   0  0  0  0  0  1  0  0  0  0  0  0
  1  7  1  6  0  0  0
  1 10  1  0  0  0  0
  2 13  1  0  0  0  0
  3  8  1  0  0  0  0
  4 18  1  0  0  0  0
  4 15  2  0  0  0  0
  6 13  2  0  0  0  0
  6  7  1  0  0  0  0
  8 17  1  1  0  0  0
  9 16  1  0  0  0  0
 10  5  1  1  0  0  0
 10  8  1  0  0  0  0
 11  9  2  0  0  0  0
 12  1  1  0  0  0  0
 12  9  1  0  0  0  0
 13 14  1  0  0  0  0
 14  3  1  0  0  0  0
 15  6  1  0  0  0  0
 16  5  1  0  0  0  0
 16 19  1  6  0  0  0
 18  2  2  0  0  0  0
 20 12  1  0  0  0  0
 21 22  1  0  0  0  0
 21 20  1  0  0  0  0
 23 25  1  0  0  0  0
 23 22  1  0  0  0  0
 25 24  1  0  0  0  0
 26 27  1  0  0  0  0
 26 25  1  0  0  0  0
 27 28  1  0  0  0  0
 29 31  2  0  0  0  0
 30 31  1  0  0  0  0
 31 28  1  0  0  0  0
 31 32  1  0  0  0  0
 33  4  1  0  0  0  0
 34 33  1  0  0  0  0
 34 53  1  1  0  0  0
 36 42  1  6  0  0  0
 36 39  1  0  0  0  0
 36 37  1  0  0  0  0
 37 46  1  0  0  0  0
 37 34  1  0  0  0  0
 38 37  1  0  0  0  0
 39 35  1  1  0  0  0
 39 40  1  0  0  0  0
 40 37  1  0  0  0  0
 41 49  1  6  0  0  0
 41 36  1  0  0  0  0
 41 35  1  0  0  0  0
 44 43  1  0  0  0  0
 44 42  1  0  0  0  0
 45 44  2  0  0  0  0
 48 47  1  0  0  0  0
 48 46  1  0  0  0  0
 51 49  1  0  0  0  0
 51 50  2  0  0  0  0
 52 51  1  0  0  0  0
 53 55  1  0  0  0  0
 55 54  1  6  0  0  0
 55 56  1  0  0  0  0
 56 57  1  0  0  0  0
 57 58  1  1  0  0  0
 57 59  1  0  0  0  0
 59 60  1  0  0  0  0
M  END
>  <MODEL>
5

>  <REMARK>
 VINA RESULT:      -5.2      3.023      7.069
  Name = 
  23 active torsions:
  status: ('A' for Active; 'I' for Inactive)
    1  A    between atoms: C_3  and  C_20
    2  A    between atoms: C_4  and  O_38
    3  A    between atoms: C_5  and  C_29
    4  A    between atoms: C_5  and  C_58
    5  A    between atoms: C_6  and  C_8
    6  A    between atoms: C_6  and  P_15
    7  A    between atoms: C_6  and  O_49
    8  A    between atoms: C_8  and  C_21
    9  A    between atoms: C_11  and  C_19
   10  A    between atoms: C_11  and  C_48
   11  A    between atoms: C_12  and  P_15
   12  A    between atoms: C_12  and  O_59
   13  A    between atoms: C_13  and  O_49
   14  A    between atoms: C_20  and  C_60
   15  A    between atoms: C_21  and  C_60
   16  A    between atoms: C_27  and  O_28
   17  A    between atoms: C_27  and  N_51
   18  A    between atoms: O_28  and  C_33
   19  A    between atoms: C_29  and  C_50
   20  A    between atoms: C_32  and  O_38
   21  A    between atoms: C_33  and  P_41
   22  A    between atoms: N_43  and  C_50
   23  A    between atoms: N_51  and  C_58
                            x       y       z     vdW  Elec       q    Type
                         _______ _______ _______ _____ _____    ______ ____

>  <TORSDO>
F 23

$$$$
=
 OpenBabel11072408523D

 60 64  0  0  1  0  0  0  0  0999 V2000
  194.7510  172.0550  144.2690 C   0  0  1  0  0  3  0  0  0  0  0  0
  194.4700  176.0320  142.4450 C   0  0  0  0  0  3  0  0  0  0  0  0
  195.9080  174.4990  145.2480 O   0  0  0  0  0  0  0  0  0  0  0  0
  192.0750  175.6930  142.4860 C   0  0  0  0  0  0  0  0  0  0  0  0
  196.7980  171.0400  145.0260 O   0  0  0  0  0  0  0  0  0  0  0  0
  193.5310  174.2140  143.7530 C   0  0  0  0  0  0  0  0  0  0  0  0
  193.6910  173.0270  144.5510 N   0  0  0  0  0  2  0  0  0  0  0  0
  196.6640  173.3530  145.4850 C   0  0  2  0  0  3  0  0  0  0  0  0
  195.0060  169.5700  144.4560 C   0  0  0  0  0  0  0  0  0  0  0  0
  195.8670  172.0460  145.3480 C   0  0  1  0  0  3  0  0  0  0  0  0
  194.6490  168.3960  144.1450 O   0  0  0  0  0  0  0  0  0  0  0  0
  194.1850  170.7010  144.1120 N   0  0  0  0  0  0  0  0  0  0  0  0
  194.6420  174.9730  143.3310 C   0  0  0  0  0  0  0  0  0  0  0  0
  196.0100  174.7230  143.8720 C   0  0  0  0  0  2  0  0  0  0  0  0
  192.2410  174.6050  143.3580 C   0  0  0  0  0  3  0  0  0  0  0  0
  196.2200  169.7920  145.3180 C   0  0  1  0  0  3  0  0  0  0  0  0
  197.1950  173.4180  146.7720 O   0  0  0  0  0  1  0  0  0  0  0  0
  193.1940  176.3800  142.0180 C   0  0  0  0  0  3  0  0  0  0  0  0
  197.1620  168.7780  145.0950 O   0  0  0  0  0  1  0  0  0  0  0  0
  192.7540  170.4550  143.9230 C   0  0  0  0  0  2  0  0  0  0  0  0
  192.3170  170.6630  142.4690 C   0  0  0  0  0  2  0  0  0  0  0  0
  192.2730  169.3370  141.7100 C   0  0  0  0  0  2  0  0  0  0  0  0
  190.9040  169.0620  141.0840 C   0  0  0  0  0  2  0  0  0  0  0  0
  192.3190  168.6930  139.3480 O   0  0  0  0  0  1  0  0  0  0  0  0
  191.0260  168.9950  139.6320 N   0  0  0  0  0  0  0  0  0  0  0  0
  190.7820  170.3380  139.1180 C   0  0  0  0  0  2  0  0  0  0  0  0
  189.6310  170.3320  138.3240 O   0  0  0  0  0  0  0  0  0  0  0  0
  189.6580  171.5480  137.6390 C   0  0  0  0  0  2  0  0  0  0  0  0
  189.7200  172.0960  134.8340 O   0  0  0  0  0  0  0  0  0  0  0  0
  190.8120  169.7290  135.7550 O   0  0  0  0  0  1  0  0  0  0  0  0
  190.5850  171.3660  136.0930 P   0  0  0  0  0  0  0  0  0  0  0  0
  191.9300  172.0420  136.2320 O   0  0  0  0  0  1  0  0  0  0  0  0
  190.8000  176.1020  142.0960 O   0  0  0  0  0  0  0  0  0  0  0  0
  189.7420  176.2410  143.0350 C   0  0  2  0  0  3  0  0  0  0  0  0
  187.0890  178.7500  144.2650 C   0  0  0  0  0  2  0  0  0  0  0  0
  186.5800  177.1640  142.9280 C   0  0  2  0  0  0  0  0  0  0  0  0
  188.0890  176.3640  142.2180 P   0  0  0  0  0  0  0  0  0  0  0  0
  188.0620  176.2320  140.5410 O   0  0  0  0  0  1  0  0  0  0  0  0
  187.0460  178.5850  142.7500 C   0  0  2  0  0  3  0  0  0  0  0  0
  188.3750  178.1670  142.1770 C   0  0  0  0  0  2  0  0  0  0  0  0
  186.5260  177.3500  144.4400 C   0  0  2  0  0  3  0  0  0  0  0  0
  185.3510  176.9330  142.2230 O   0  0  0  0  0  0  0  0  0  0  0  0
  183.5280  178.3970  141.6760 O   0  0  0  0  0  1  0  0  0  0  0  0
  184.7450  177.8240  141.3320 C   0  0  0  0  0  0  0  0  0  0  0  0
  185.2680  178.1010  140.2200 O   0  0  0  0  0  0  0  0  0  0  0  0
  187.6810  174.6060  142.4610 C   0  0  0  0  0  2  0  0  0  0  0  0
  188.8400  173.1110  141.3330 C   0  0  0  0  0  1  0  0  0  0  0  0
  187.7000  173.9090  141.2540 O   0  0  0  0  0  0  0  0  0  0  0  0
  185.1280  177.3690  145.1180 C   0  0  0  0  0  2  0  0  0  0  0  0
  184.0540  178.1810  147.0530 O   0  0  0  0  0  0  0  0  0  0  0  0
  185.0290  177.6050  146.6100 C   0  0  0  0  0  0  0  0  0  0  0  0
  186.0250  177.0770  147.5910 C   0  0  0  0  0  1  0  0  0  0  0  0
  190.0340  177.4520  143.9240 C   0  0  0  0  0  2  0  0  0  0  0  0
  189.7830  178.1480  146.2060 O   0  0  0  0  0  1  0  0  0  0  0  0
  190.1560  177.0720  145.3930 C   0  0  1  0  0  3  0  0  0  0  0  0
  189.3350  175.8270  145.7240 C   0  0  0  0  0  2  0  0  0  0  0  0
  189.9920  174.8020  146.6670 C   0  0  2  0  0  3  0  0  0  0  0  0
  191.4180  175.2700  146.9630 C   0  0  0  0  0  1  0  0  0  0  0  0
  190.0150  173.3760  146.1150 C   0  0  0  0  0  2  0  0  0  0  0  0
  189.5900  173.3370  144.7820 O   0  0  0  0  0  1  0  0  0  0  0  0
  1  7  1  1  0  0  0
  1 10  1  0  0  0  0
  2 13  1  0  0  0  0
  3  8  1  0  0  0  0
  4 15  2  0  0  0  0
  5 16  1  0  0  0  0
  6  7  1  0  0  0  0
  8 17  1  1  0  0  0
  9 16  1  0  0  0  0
 10  5  1  6  0  0  0
 10  8  1  0  0  0  0
 11  9  2  0  0  0  0
 12  1  1  0  0  0  0
 12  9  1  0  0  0  0
 13  6  2  0  0  0  0
 13 14  1  0  0  0  0
 14  3  1  0  0  0  0
 15  6  1  0  0  0  0
 16 19  1  6  0  0  0
 18  2  2  0  0  0  0
 18  4  1  0  0  0  0
 20 12  1  0  0  0  0
 21 20  1  0  0  0  0
 22 21  1  0  0  0  0
 23 22  1  0  0  0  0
 24 25  1  0  0  0  0
 25 23  1  0  0  0  0
 26 25  1  0  0  0  0
 27 26  1  0  0  0  0
 28 27  1  0  0  0  0
 29 31  2  0  0  0  0
 30 31  1  0  0  0  0
 31 32  1  0  0  0  0
 31 28  1  0  0  0  0
 33  4  1  0  0  0  0
 33 34  1  0  0  0  0
 34 53  1  6  0  0  0
 35 41  1  0  0  0  0
 36 42  1  6  0  0  0
 36 41  1  0  0  0  0
 37 46  1  0  0  0  0
 37 36  1  0  0  0  0
 37 34  1  0  0  0  0
 38 37  1  0  0  0  0
 39 40  1  1  0  0  0
 39 36  1  0  0  0  0
 39 35  1  0  0  0  0
 40 37  1  0  0  0  0
 41 49  1  6  0  0  0
 44 43  1  0  0  0  0
 44 42  1  0  0  0  0
 45 44  2  0  0  0  0
 48 47  1  0  0  0  0
 48 46  1  0  0  0  0
 49 51  1  0  0  0  0
 51 50  2  0  0  0  0
 51 52  1  0  0  0  0
 53 55  1  0  0  0  0
 55 56  1  0  0  0  0
 55 54  1  1  0  0  0
 56 57  1  0  0  0  0
 57 58  1  6  0  0  0
 59 57  1  0  0  0  0
 60 59  1  0  0  0  0
M  END
>  <MODEL>
6

>  <REMARK>
 VINA RESULT:      -4.9      2.914      9.461
  Name = 
  23 active torsions:
  status: ('A' for Active; 'I' for Inactive)
    1  A    between atoms: C_3  and  C_20
    2  A    between atoms: C_4  and  O_38
    3  A    between atoms: C_5  and  C_29
    4  A    between atoms: C_5  and  C_58
    5  A    between atoms: C_6  and  C_8
    6  A    between atoms: C_6  and  P_15
    7  A    between atoms: C_6  and  O_49
    8  A    between atoms: C_8  and  C_21
    9  A    between atoms: C_11  and  C_19
   10  A    between atoms: C_11  and  C_48
   11  A    between atoms: C_12  and  P_15
   12  A    between atoms: C_12  and  O_59
   13  A    between atoms: C_13  and  O_49
   14  A    between atoms: C_20  and  C_60
   15  A    between atoms: C_21  and  C_60
   16  A    between atoms: C_27  and  O_28
   17  A    between atoms: C_27  and  N_51
   18  A    between atoms: O_28  and  C_33
   19  A    between atoms: C_29  and  C_50
   20  A    between atoms: C_32  and  O_38
   21  A    between atoms: C_33  and  P_41
   22  A    between atoms: N_43  and  C_50
   23  A    between atoms: N_51  and  C_58
                            x       y       z     vdW  Elec       q    Type
                         _______ _______ _______ _____ _____    ______ ____

>  <TORSDO>
F 23

$$$$
=
 OpenBabel11072408523D

 60 64  0  0  1  0  0  0  0  0999 V2000
  188.8510  176.0180  144.6930 C   0  0  1  0  0  3  0  0  0  0  0  0
  190.7340  172.4060  143.0710 C   0  0  0  0  0  3  0  0  0  0  0  0
  190.6920  174.2660  146.0400 O   0  0  0  0  0  0  0  0  0  0  0  0
  191.4740  173.8170  141.2500 C   0  0  0  0  0  0  0  0  0  0  0  0
  187.7500  176.1430  146.8310 O   0  0  0  0  0  0  0  0  0  0  0  0
  190.5740  174.8210  143.2750 C   0  0  0  0  0  0  0  0  0  0  0  0
  190.1290  175.9960  143.9760 N   0  0  0  0  0  2  0  0  0  0  0  0
  189.7140  174.8300  146.8550 C   0  0  2  0  0  3  0  0  0  0  0  0
  187.0920  177.7340  145.1770 C   0  0  0  0  0  0  0  0  0  0  0  0
  189.0240  176.0560  146.2360 C   0  0  1  0  0  3  0  0  0  0  0  0
  186.2200  178.5630  144.7850 O   0  0  0  0  0  0  0  0  0  0  0  0
  188.0250  177.1550  144.2460 N   0  0  0  0  0  0  0  0  0  0  0  0
  190.4250  173.5320  143.8270 C   0  0  0  0  0  0  0  0  0  0  0  0
  190.0150  173.3340  145.2480 C   0  0  0  0  0  2  0  0  0  0  0  0
  191.1390  174.9590  141.9960 C   0  0  0  0  0  3  0  0  0  0  0  0
  187.2640  177.4480  146.6450 C   0  0  1  0  0  3  0  0  0  0  0  0
  190.2930  175.2070  148.0640 O   0  0  0  0  0  1  0  0  0  0  0  0
  191.2430  172.5510  141.7860 C   0  0  0  0  0  3  0  0  0  0  0  0
  186.0380  177.5880  147.3110 O   0  0  0  0  0  1  0  0  0  0  0  0
  188.3120  177.9160  143.0290 C   0  0  0  0  0  2  0  0  0  0  0  0
  187.3560  177.5630  141.8850 C   0  0  0  0  0  2  0  0  0  0  0  0
  186.3070  178.6560  141.6820 C   0  0  0  0  0  2  0  0  0  0  0  0
  185.1620  178.2130  140.7700 C   0  0  0  0  0  2  0  0  0  0  0  0
  183.8560  177.9290  142.6050 O   0  0  0  0  0  1  0  0  0  0  0  0
  183.8810  178.5340  141.3890 N   0  0  0  0  0  0  0  0  0  0  0  0
  182.8430  177.9050  140.5810 C   0  0  0  0  0  2  0  0  0  0  0  0
  181.6140  178.0000  141.2430 O   0  0  0  0  0  0  0  0  0  0  0  0
  181.0780  179.2220  140.8350 C   0  0  0  0  0  2  0  0  0  0  0  0
  178.8020  180.2280  139.4280 O   0  0  0  0  0  0  0  0  0  0  0  0
  178.4590  179.2390  141.9860 O   0  0  0  0  0  1  0  0  0  0  0  0
  179.3000  179.0490  140.5360 P   0  0  0  0  0  0  0  0  0  0  0  0
  179.0180  177.6780  139.9660 O   0  0  0  0  0  1  0  0  0  0  0  0
  192.0480  173.9380  139.9850 O   0  0  0  0  0  0  0  0  0  0  0  0
  193.3910  174.3690  139.8140 C   0  0  2  0  0  3  0  0  0  0  0  0
  191.3290  174.0720  136.5730 C   0  0  0  0  0  2  0  0  0  0  0  0
  193.2240  173.1070  136.7740 C   0  0  2  0  0  0  0  0  0  0  0  0
  194.1450  173.7230  138.2560 P   0  0  0  0  0  0  0  0  0  0  0  0
  195.7240  174.2000  137.9240 O   0  0  0  0  0  1  0  0  0  0  0  0
  192.7750  174.4580  136.2850 C   0  0  2  0  0  3  0  0  0  0  0  0
  193.4180  175.1840  137.4380 C   0  0  0  0  0  2  0  0  0  0  0  0
  191.7760  172.6760  136.9730 C   0  0  2  0  0  3  0  0  0  0  0  0
  194.0090  172.4340  135.7780 O   0  0  0  0  0  0  0  0  0  0  0  0
  194.3870  170.1060  136.2280 O   0  0  0  0  0  1  0  0  0  0  0  0
  194.8950  171.3800  136.0170 C   0  0  0  0  0  0  0  0  0  0  0  0
  196.1420  171.5650  136.0650 O   0  0  0  0  0  0  0  0  0  0  0  0
  194.6740  172.1460  138.9990 C   0  0  0  0  0  2  0  0  0  0  0  0
  194.0580  170.3100  140.0480 C   0  0  0  0  0  1  0  0  0  0  0  0
  193.6000  171.2680  139.1450 O   0  0  0  0  0  0  0  0  0  0  0  0
  191.2070  171.5900  136.0190 C   0  0  0  0  0  2  0  0  0  0  0  0
  191.2700  169.2430  136.2330 O   0  0  0  0  0  0  0  0  0  0  0  0
  190.7310  170.2720  136.5920 C   0  0  0  0  0  0  0  0  0  0  0  0
  189.6880  170.1710  137.6580 C   0  0  0  0  0  1  0  0  0  0  0  0
  194.1960  173.9640  141.0510 C   0  0  0  0  0  2  0  0  0  0  0  0
  195.0490  176.1800  140.7110 O   0  0  0  0  0  1  0  0  0  0  0  0
  194.9870  175.1280  141.6310 C   0  0  1  0  0  3  0  0  0  0  0  0
  194.4020  175.6010  142.9610 C   0  0  0  0  0  2  0  0  0  0  0  0
  194.7860  174.7840  144.2090 C   0  0  2  0  0  3  0  0  0  0  0  0
  196.2930  174.5260  144.1670 C   0  0  0  0  0  1  0  0  0  0  0  0
  194.0330  173.4590  144.3390 C   0  0  0  0  0  2  0  0  0  0  0  0
  193.9170  173.0660  145.6770 O   0  0  0  0  0  1  0  0  0  0  0  0
  1  7  1  6  0  0  0
  1 10  1  0  0  0  0
  2 13  1  0  0  0  0
  3  8  1  0  0  0  0
  4 18  1  0  0  0  0
  4 15  2  0  0  0  0
  6 13  2  0  0  0  0
  6  7  1  0  0  0  0
  8 17  1  1  0  0  0
  9 16  1  0  0  0  0
 10  5  1  1  0  0  0
 10  8  1  0  0  0  0
 11  9  2  0  0  0  0
 12  1  1  0  0  0  0
 12  9  1  0  0  0  0
 13 14  1  0  0  0  0
 14  3  1  0  0  0  0
 15  6  1  0  0  0  0
 16  5  1  0  0  0  0
 16 19  1  1  0  0  0
 18  2  2  0  0  0  0
 20 12  1  0  0  0  0
 21 20  1  0  0  0  0
 22 21  1  0  0  0  0
 23 25  1  0  0  0  0
 23 22  1  0  0  0  0
 25 24  1  0  0  0  0
 26 27  1  0  0  0  0
 26 25  1  0  0  0  0
 28 27  1  0  0  0  0
 29 31  2  0  0  0  0
 31 28  1  0  0  0  0
 31 30  1  0  0  0  0
 32 31  1  0  0  0  0
 33  4  1  0  0  0  0
 34 33  1  0  0  0  0
 34 53  1  1  0  0  0
 35 41  1  0  0  0  0
 36 42  1  6  0  0  0
 36 41  1  0  0  0  0
 36 37  1  0  0  0  0
 37 46  1  0  0  0  0
 37 34  1  0  0  0  0
 38 37  1  0  0  0  0
 39 35  1  1  0  0  0
 39 36  1  0  0  0  0
 39 40  1  0  0  0  0
 40 37  1  0  0  0  0
 41 49  1  6  0  0  0
 42 44  1  0  0  0  0
 44 45  2  0  0  0  0
 44 43  1  0  0  0  0
 46 48  1  0  0  0  0
 48 47  1  0  0  0  0
 49 51  1  0  0  0  0
 50 51  2  0  0  0  0
 51 52  1  0  0  0  0
 53 55  1  0  0  0  0
 55 54  1  6  0  0  0
 55 56  1  0  0  0  0
 56 57  1  0  0  0  0
 57 58  1  6  0  0  0
 57 59  1  0  0  0  0
 59 60  1  0  0  0  0
M  END
>  <MODEL>
7

>  <REMARK>
 VINA RESULT:      -4.9      3.085      7.295
  Name = 
  23 active torsions:
  status: ('A' for Active; 'I' for Inactive)
    1  A    between atoms: C_3  and  C_20
    2  A    between atoms: C_4  and  O_38
    3  A    between atoms: C_5  and  C_29
    4  A    between atoms: C_5  and  C_58
    5  A    between atoms: C_6  and  C_8
    6  A    between atoms: C_6  and  P_15
    7  A    between atoms: C_6  and  O_49
    8  A    between atoms: C_8  and  C_21
    9  A    between atoms: C_11  and  C_19
   10  A    between atoms: C_11  and  C_48
   11  A    between atoms: C_12  and  P_15
   12  A    between atoms: C_12  and  O_59
   13  A    between atoms: C_13  and  O_49
   14  A    between atoms: C_20  and  C_60
   15  A    between atoms: C_21  and  C_60
   16  A    between atoms: C_27  and  O_28
   17  A    between atoms: C_27  and  N_51
   18  A    between atoms: O_28  and  C_33
   19  A    between atoms: C_29  and  C_50
   20  A    between atoms: C_32  and  O_38
   21  A    between atoms: C_33  and  P_41
   22  A    between atoms: N_43  and  C_50
   23  A    between atoms: N_51  and  C_58
                            x       y       z     vdW  Elec       q    Type
                         _______ _______ _______ _____ _____    ______ ____

>  <TORSDO>
F 23

$$$$
=
 OpenBabel11072408523D

 60 64  0  0  1  0  0  0  0  0999 V2000
  193.7300  173.0350  137.7600 C   0  0  1  0  0  3  0  0  0  0  0  0
  191.3730  170.4400  140.3930 C   0  0  0  0  0  3  0  0  0  0  0  0
  191.6110  171.2490  136.9920 O   0  0  0  0  0  0  0  0  0  0  0  0
  190.9020  172.4450  141.6630 C   0  0  0  0  0  0  0  0  0  0  0  0
  194.7790  172.3170  135.7150 O   0  0  0  0  0  0  0  0  0  0  0  0
  191.8870  172.6170  139.4450 C   0  0  0  0  0  0  0  0  0  0  0  0
  192.4830  173.4320  138.4210 N   0  0  0  0  0  2  0  0  0  0  0  0
  192.6410  171.3740  136.0620 C   0  0  2  0  0  3  0  0  0  0  0  0
  195.7130  174.2280  136.8000 C   0  0  0  0  0  0  0  0  0  0  0  0
  193.5230  172.6140  136.2800 C   0  0  1  0  0  3  0  0  0  0  0  0
  196.7090  174.9970  136.9310 O   0  0  0  0  0  0  0  0  0  0  0  0
  194.7300  174.1170  137.8450 N   0  0  0  0  0  0  0  0  0  0  0  0
  191.8260  171.2130  139.3280 C   0  0  0  0  0  0  0  0  0  0  0  0
  192.1630  170.5210  138.0500 C   0  0  0  0  0  2  0  0  0  0  0  0
  191.3840  173.2320  140.6040 C   0  0  0  0  0  3  0  0  0  0  0  0
  195.4600  173.5260  135.4920 C   0  0  1  0  0  3  0  0  0  0  0  0
  192.0920  171.4370  134.7840 O   0  0  0  0  0  1  0  0  0  0  0  0
  190.9260  171.0550  141.5560 C   0  0  0  0  0  3  0  0  0  0  0  0
  196.6740  173.2640  134.8430 O   0  0  0  0  0  1  0  0  0  0  0  0
  194.5930  175.2550  138.7560 C   0  0  0  0  0  2  0  0  0  0  0  0
  195.3340  175.0320  140.0790 C   0  0  0  0  0  2  0  0  0  0  0  0
  194.7550  175.9050  141.1910 C   0  0  0  0  0  2  0  0  0  0  0  0
  195.0480  175.3530  142.5870 C   0  0  0  0  0  2  0  0  0  0  0  0
  196.8270  176.7410  142.8310 O   0  0  0  0  0  1  0  0  0  0  0  0
  195.6520  176.3900  143.4150 N   0  0  0  0  0  0  0  0  0  0  0  0
  195.9830  175.7790  144.6970 C   0  0  0  0  0  2  0  0  0  0  0  0
  196.6310  174.5580  144.4800 O   0  0  0  0  0  0  0  0  0  0  0  0
  196.4130  173.8210  145.6450 C   0  0  0  0  0  2  0  0  0  0  0  0
  196.4120  170.9970  146.0900 O   0  0  0  0  0  1  0  0  0  0  0  0
  195.7580  171.9520  143.5790 O   0  0  0  0  0  0  0  0  0  0  0  0
  195.6350  172.2360  145.2380 P   0  0  0  0  0  0  0  0  0  0  0  0
  194.1770  172.2770  145.6350 O   0  0  0  0  0  1  0  0  0  0  0  0
  190.3870  173.0410  142.8130 O   0  0  0  0  0  0  0  0  0  0  0  0
  190.0410  174.4190  142.8480 C   0  0  2  0  0  3  0  0  0  0  0  0
  188.4680  174.9620  146.3230 C   0  0  0  0  0  2  0  0  0  0  0  0
  190.1910  176.0610  145.7020 C   0  0  2  0  0  0  0  0  0  0  0  0
  190.9420  175.3380  144.1740 P   0  0  0  0  0  0  0  0  0  0  0  0
  192.5970  175.0580  144.2980 O   0  0  0  0  0  1  0  0  0  0  0  0
  189.9750  174.7530  146.4150 C   0  0  2  0  0  3  0  0  0  0  0  0
  190.5160  173.9400  145.2680 C   0  0  0  0  0  2  0  0  0  0  0  0
  188.6900  176.3260  145.6920 C   0  0  2  0  0  3  0  0  0  0  0  0
  191.0350  176.9330  146.4680 O   0  0  0  0  0  0  0  0  0  0  0  0
  191.5320  176.0030  148.6250 O   0  0  0  0  0  1  0  0  0  0  0  0
  191.9760  176.5260  147.4190 C   0  0  0  0  0  0  0  0  0  0  0  0
  193.2140  176.6410  147.2120 O   0  0  0  0  0  0  0  0  0  0  0  0
  191.1730  176.8410  143.1710 C   0  0  0  0  0  2  0  0  0  0  0  0
  191.1740  178.9750  143.7170 C   0  0  0  0  0  1  0  0  0  0  0  0
  190.3330  177.8700  143.5980 O   0  0  0  0  0  0  0  0  0  0  0  0
  188.1510  177.4740  146.5890 C   0  0  0  0  0  2  0  0  0  0  0  0
  185.9540  176.9480  147.2640 O   0  0  0  0  0  0  0  0  0  0  0  0
  186.6610  177.7290  146.6550 C   0  0  0  0  0  0  0  0  0  0  0  0
  186.0130  178.9520  146.0900 C   0  0  0  0  0  1  0  0  0  0  0  0
  188.5230  174.5380  142.9980 C   0  0  0  0  0  2  0  0  0  0  0  0
  187.8910  175.0730  140.7470 O   0  0  0  0  0  1  0  0  0  0  0  0
  187.9300  175.5730  142.0530 C   0  0  1  0  0  3  0  0  0  0  0  0
  186.5420  176.0230  142.5060 C   0  0  0  0  0  2  0  0  0  0  0  0
  186.3030  177.5430  142.5830 C   0  0  2  0  0  3  0  0  0  0  0  0
  184.8190  177.7800  142.8690 C   0  0  0  0  0  1  0  0  0  0  0  0
  186.7200  178.3010  141.3230 C   0  0  0  0  0  2  0  0  0  0  0  0
  185.9310  177.9410  140.2250 O   0  0  0  0  0  1  0  0  0  0  0  0
  1 12  1  0  0  0  0
  1  7  1  6  0  0  0
  2 18  1  0  0  0  0
  3 14  1  0  0  0  0
  4 33  1  0  0  0  0
  6 15  2  0  0  0  0
  7  6  1  0  0  0  0
  8 17  1  6  0  0  0
  8 10  1  0  0  0  0
  8  3  1  0  0  0  0
  9 11  2  0  0  0  0
  9 12  1  0  0  0  0
 10  5  1  1  0  0  0
 10  1  1  0  0  0  0
 12 20  1  0  0  0  0
 13  6  1  0  0  0  0
 13  2  2  0  0  0  0
 14 13  1  0  0  0  0
 15  4  1  0  0  0  0
 16 19  1  1  0  0  0
 16  5  1  0  0  0  0
 16  9  1  0  0  0  0
 18  4  2  0  0  0  0
 20 21  1  0  0  0  0
 21 22  1  0  0  0  0
 22 23  1  0  0  0  0
 23 25  1  0  0  0  0
 24 25  1  0  0  0  0
 25 26  1  0  0  0  0
 27 26  1  0  0  0  0
 27 28  1  0  0  0  0
 30 31  2  0  0  0  0
 31 32  1  0  0  0  0
 31 28  1  0  0  0  0
 31 29  1  0  0  0  0
 33 34  1  0  0  0  0
 34 53  1  1  0  0  0
 34 37  1  0  0  0  0
 35 39  1  0  0  0  0
 36 39  1  0  0  0  0
 36 42  1  1  0  0  0
 37 38  1  0  0  0  0
 37 40  1  0  0  0  0
 37 36  1  0  0  0  0
 39 40  1  6  0  0  0
 41 36  1  0  0  0  0
 41 35  1  0  0  0  0
 41 49  1  1  0  0  0
 42 44  1  0  0  0  0
 44 43  1  0  0  0  0
 45 44  2  0  0  0  0
 46 48  1  0  0  0  0
 46 37  1  0  0  0  0
 48 47  1  0  0  0  0
 49 51  1  0  0  0  0
 51 50  2  0  0  0  0
 52 51  1  0  0  0  0
 55 54  1  6  0  0  0
 55 56  1  0  0  0  0
 55 53  1  0  0  0  0
 56 57  1  0  0  0  0
 57 58  1  6  0  0  0
 59 57  1  0  0  0  0
 60 59  1  0  0  0  0
M  END
>  <MODEL>
8

>  <REMARK>
 VINA RESULT:      -4.9      2.727      9.346
  Name = 
  23 active torsions:
  status: ('A' for Active; 'I' for Inactive)
    1  A    between atoms: C_3  and  C_20
    2  A    between atoms: C_4  and  O_38
    3  A    between atoms: C_5  and  C_29
    4  A    between atoms: C_5  and  C_58
    5  A    between atoms: C_6  and  C_8
    6  A    between atoms: C_6  and  P_15
    7  A    between atoms: C_6  and  O_49
    8  A    between atoms: C_8  and  C_21
    9  A    between atoms: C_11  and  C_19
   10  A    between atoms: C_11  and  C_48
   11  A    between atoms: C_12  and  P_15
   12  A    between atoms: C_12  and  O_59
   13  A    between atoms: C_13  and  O_49
   14  A    between atoms: C_20  and  C_60
   15  A    between atoms: C_21  and  C_60
   16  A    between atoms: C_27  and  O_28
   17  A    between atoms: C_27  and  N_51
   18  A    between atoms: O_28  and  C_33
   19  A    between atoms: C_29  and  C_50
   20  A    between atoms: C_32  and  O_38
   21  A    between atoms: C_33  and  P_41
   22  A    between atoms: N_43  and  C_50
   23  A    between atoms: N_51  and  C_58
                            x       y       z     vdW  Elec       q    Type
                         _______ _______ _______ _____ _____    ______ ____

>  <TORSDO>
F 23

$$$$
=
 OpenBabel11072408523D

 60 64  0  0  1  0  0  0  0  0999 V2000
  195.4000  172.3890  143.1250 C   0  0  1  0  0  3  0  0  0  0  0  0
  195.1140  175.5900  146.1060 C   0  0  0  0  0  3  0  0  0  0  0  0
  195.6960  172.1380  145.9740 O   0  0  0  0  0  0  0  0  0  0  0  0
  192.9580  176.0790  145.1240 C   0  0  0  0  0  0  0  0  0  0  0  0
  197.1830  170.7740  143.0190 O   0  0  0  0  0  0  0  0  0  0  0  0
  194.0950  173.9990  144.5800 C   0  0  0  0  0  0  0  0  0  0  0  0
  194.1590  172.7980  143.7900 N   0  0  0  0  0  2  0  0  0  0  0  0
  196.5010  171.2860  145.2220 C   0  0  2  0  0  3  0  0  0  0  0  0
  195.9910  171.2080  140.9960 C   0  0  0  0  0  0  0  0  0  0  0  0
  196.0410  171.1270  143.7640 C   0  0  1  0  0  3  0  0  0  0  0  0
  195.9750  171.1330  139.7330 O   0  0  0  0  0  0  0  0  0  0  0  0
  195.1670  172.1660  141.6850 N   0  0  0  0  0  0  0  0  0  0  0  0
  195.1370  174.3580  145.4610 C   0  0  0  0  0  0  0  0  0  0  0  0
  196.2420  173.4110  145.7900 C   0  0  0  0  0  2  0  0  0  0  0  0
  192.9850  174.8490  144.4460 C   0  0  0  0  0  3  0  0  0  0  0  0
  196.7610  170.2000  141.8080 C   0  0  1  0  0  3  0  0  0  0  0  0
  196.5170  170.0290  145.8230 O   0  0  0  0  0  1  0  0  0  0  0  0
  194.0360  176.4490  145.9260 C   0  0  0  0  0  3  0  0  0  0  0  0
  197.8780  169.7530  141.0890 O   0  0  0  0  0  1  0  0  0  0  0  0
  193.9630  172.6290  140.9930 C   0  0  0  0  0  2  0  0  0  0  0  0
  194.1510  174.0160  140.3680 C   0  0  0  0  0  2  0  0  0  0  0  0
  193.7050  174.0290  138.9060 C   0  0  0  0  0  2  0  0  0  0  0  0
  192.1960  173.8350  138.7480 C   0  0  0  0  0  2  0  0  0  0  0  0
  190.6390  173.7030  137.1020 O   0  0  0  0  0  1  0  0  0  0  0  0
  191.8990  173.3080  137.4210 N   0  0  0  0  0  0  0  0  0  0  0  0
  191.8720  171.8540  137.5310 C   0  0  0  0  0  2  0  0  0  0  0  0
  190.6090  171.4420  137.9670 O   0  0  0  0  0  0  0  0  0  0  0  0
  190.7220  170.0630  138.1510 C   0  0  0  0  0  2  0  0  0  0  0  0
  190.5470  168.1900  140.3040 O   0  0  0  0  0  1  0  0  0  0  0  0
  190.5360  170.8930  140.8830 O   0  0  0  0  0  1  0  0  0  0  0  0
  191.1700  169.7030  139.8690 P   0  0  0  0  0  0  0  0  0  0  0  0
  192.6760  169.6790  140.0000 O   0  0  0  0  0  0  0  0  0  0  0  0
  191.8570  176.9270  145.0110 O   0  0  0  0  0  0  0  0  0  0  0  0
  190.5380  176.4200  144.8640 C   0  0  2  0  0  3  0  0  0  0  0  0
  187.6610  178.2680  143.0860 C   0  0  0  0  0  2  0  0  0  0  0  0
  188.5350  176.5090  142.2470 C   0  0  2  0  0  0  0  0  0  0  0  0
  190.1150  176.0630  143.1000 P   0  0  0  0  0  0  0  0  0  0  0  0
  191.4040  175.8020  142.0510 O   0  0  0  0  0  1  0  0  0  0  0  0
  188.8180  177.9830  142.1350 C   0  0  2  0  0  3  0  0  0  0  0  0
  190.1390  177.8710  142.8520 C   0  0  0  0  0  2  0  0  0  0  0  0
  187.3170  176.7880  143.1190 C   0  0  2  0  0  3  0  0  0  0  0  0
  188.3300  175.9240  140.9520 O   0  0  0  0  0  0  0  0  0  0  0  0
  188.5290  174.0920  139.4130 O   0  0  0  0  0  0  0  0  0  0  0  0
  188.2240  174.5560  140.6850 C   0  0  0  0  0  0  0  0  0  0  0  0
  187.8410  173.7410  141.5670 O   0  0  0  0  0  1  0  0  0  0  0  0
  189.8530  174.2810  143.3770 C   0  0  0  0  0  2  0  0  0  0  0  0
  189.9480  172.6000  144.7970 C   0  0  0  0  0  1  0  0  0  0  0  0
  189.7850  173.9830  144.7380 O   0  0  0  0  0  0  0  0  0  0  0  0
  185.9140  176.5060  142.5150 C   0  0  0  0  0  2  0  0  0  0  0  0
  185.6160  177.8820  140.6240 O   0  0  0  0  0  0  0  0  0  0  0  0
  185.2090  177.5940  141.7330 C   0  0  0  0  0  0  0  0  0  0  0  0
  183.9670  178.2740  142.2120 C   0  0  0  0  0  1  0  0  0  0  0  0
  189.5590  177.4110  145.4980 C   0  0  0  0  0  2  0  0  0  0  0  0
  189.2490  175.7510  147.2020 O   0  0  0  0  0  1  0  0  0  0  0  0
  188.5880  176.7300  146.4520 C   0  0  1  0  0  3  0  0  0  0  0  0
  187.8920  177.7390  147.3650 C   0  0  0  0  0  2  0  0  0  0  0  0
  186.3530  177.7020  147.3830 C   0  0  2  0  0  3  0  0  0  0  0  0
  185.8830  176.8130  146.2300 C   0  0  0  0  0  1  0  0  0  0  0  0
  185.6970  179.0800  147.2790 C   0  0  0  0  0  2  0  0  0  0  0  0
  186.3030  180.0000  148.1430 O   0  0  0  0  0  1  0  0  0  0  0  0
  1 10  1  0  0  0  0
  1  7  1  1  0  0  0
  4 18  2  0  0  0  0
  6 13  1  0  0  0  0
  7  6  1  0  0  0  0
  8 17  1  1  0  0  0
  8  3  1  0  0  0  0
  9 12  1  0  0  0  0
  9 16  1  0  0  0  0
 10  5  1  6  0  0  0
 10  8  1  0  0  0  0
 11  9  2  0  0  0  0
 12  1  1  0  0  0  0
 13 14  1  0  0  0  0
 13  2  2  0  0  0  0
 14  3  1  0  0  0  0
 15  6  2  0  0  0  0
 15  4  1  0  0  0  0
 16 19  1  6  0  0  0
 16  5  1  0  0  0  0
 18  2  1  0  0  0  0
 20 12  1  0  0  0  0
 21 20  1  0  0  0  0
 22 21  1  0  0  0  0
 23 22  1  0  0  0  0
 24 25  1  0  0  0  0
 25 26  1  0  0  0  0
 25 23  1  0  0  0  0
 26 27  1  0  0  0  0
 27 28  1  0  0  0  0
 28 31  1  0  0  0  0
 31 32  2  0  0  0  0
 31 29  1  0  0  0  0
 31 30  1  0  0  0  0
 33  4  1  0  0  0  0
 34 33  1  0  0  0  0
 34 53  1  6  0  0  0
 35 41  1  0  0  0  0
 36 42  1  6  0  0  0
 36 37  1  0  0  0  0
 36 41  1  0  0  0  0
 37 46  1  0  0  0  0
 37 34  1  0  0  0  0
 38 37  1  0  0  0  0
 39 36  1  0  0  0  0
 39 40  1  1  0  0  0
 39 35  1  0  0  0  0
 40 37  1  0  0  0  0
 41 49  1  6  0  0  0
 43 44  2  0  0  0  0
 44 42  1  0  0  0  0
 44 45  1  0  0  0  0
 46 48  1  0  0  0  0
 48 47  1  0  0  0  0
 50 51  2  0  0  0  0
 51 52  1  0  0  0  0
 51 49  1  0  0  0  0
 53 55  1  0  0  0  0
 55 54  1  1  0  0  0
 55 56  1  0  0  0  0
 56 57  1  0  0  0  0
 57 58  1  6  0  0  0
 59 57  1  0  0  0  0
 59 60  1  0  0  0  0
M  END
>  <MODEL>
9

>  <REMARK>
 VINA RESULT:      -4.9      2.774      9.499
  Name = 
  23 active torsions:
  status: ('A' for Active; 'I' for Inactive)
    1  A    between atoms: C_3  and  C_20
    2  A    between atoms: C_4  and  O_38
    3  A    between atoms: C_5  and  C_29
    4  A    between atoms: C_5  and  C_58
    5  A    between atoms: C_6  and  C_8
    6  A    between atoms: C_6  and  P_15
    7  A    between atoms: C_6  and  O_49
    8  A    between atoms: C_8  and  C_21
    9  A    between atoms: C_11  and  C_19
   10  A    between atoms: C_11  and  C_48
   11  A    between atoms: C_12  and  P_15
   12  A    between atoms: C_12  and  O_59
   13  A    between atoms: C_13  and  O_49
   14  A    between atoms: C_20  and  C_60
   15  A    between atoms: C_21  and  C_60
   16  A    between atoms: C_27  and  O_28
   17  A    between atoms: C_27  and  N_51
   18  A    between atoms: O_28  and  C_33
   19  A    between atoms: C_29  and  C_50
   20  A    between atoms: C_32  and  O_38
   21  A    between atoms: C_33  and  P_41
   22  A    between atoms: N_43  and  C_50
   23  A    between atoms: N_51  and  C_58
                            x       y       z     vdW  Elec       q    Type
                         _______ _______ _______ _____ _____    ______ ____

>  <TORSDO>
F 23

$$$$
