=
 OpenBabel11062420163D

 25 26  0  0  1  0  0  0  0  0999 V2000
  185.4690  178.0930  146.1760 O   0  0  0  0  0  0  0  0  0  0  0  0
  189.6070  176.9260  146.6180 C   0  0  0  0  0  2  0  0  0  0  0  0
  191.2790  176.6080  145.0180 C   0  0  1  0  0  3  0  0  0  0  0  0
  188.9530  176.5110  143.9210 C   0  0  0  0  0  3  0  0  0  0  0  0
  187.2680  176.9300  147.1820 C   0  0  0  0  0  2  0  0  0  0  0  0
  190.2410  176.0920  144.0190 C   0  0  0  0  0  3  0  0  0  0  0  0
  186.3210  178.1080  147.2800 C   0  0  0  0  0  2  0  0  0  0  0  0
  186.0840  178.8890  145.2010 C   0  0  1  0  0  3  0  0  0  0  0  0
  186.9120  177.9960  144.2430 C   0  0  2  0  0  3  0  0  0  0  0  0
  188.4090  177.2680  146.2830 C   0  0  2  0  0  3  0  0  0  0  0  0
  190.8300  176.5410  146.4570 C   0  0  0  0  0  2  0  0  0  0  0  0
  188.2940  177.5800  144.7980 C   0  0  1  0  0  3  0  0  0  0  0  0
  193.1520  175.9260  143.7480 O   0  0  0  0  0  0  0  0  0  0  0  0
  192.5950  175.9080  144.8350 C   0  0  0  0  0  0  0  0  0  0  0  0
  193.2440  175.1860  145.9790 C   0  0  1  0  0  3  0  0  0  0  0  0
  193.4220  173.7180  145.6430 C   0  0  0  0  0  1  0  0  0  0  0  0
  194.5920  175.7990  146.3350 C   0  0  0  0  0  2  0  0  0  0  0  0
  194.4290  177.2580  146.7150 C   0  0  0  0  0  1  0  0  0  0  0  0
  183.7550  178.9710  144.4140 N   0  0  0  0  0  1  0  0  0  0  0  0
  185.0020  179.7150  144.5000 C   0  0  0  0  0  2  0  0  0  0  0  0
  187.0540  178.5850  142.8240 C   0  0  0  0  0  2  0  0  0  0  0  0
  186.3460  176.1120  141.9280 O   0  0  0  0  0  1  0  0  0  0  0  0
  187.1220  177.7580  140.0590 O   0  0  0  0  0  0  0  0  0  0  0  0
  186.2840  177.5640  141.5150 P   0  0  0  0  0  0  0  0  0  0  0  0
  184.6680  178.0060  141.2890 O   0  0  0  0  0  1  0  0  0  0  0  0
  1  7  1  0  0  0  0
  3 14  1  1  0  0  0
  3 11  1  0  0  0  0
  4  6  2  0  0  0  0
  5  7  1  0  0  0  0
  6  3  1  0  0  0  0
  8 20  1  6  0  0  0
  8  1  1  0  0  0  0
  9 21  1  6  0  0  0
  9 12  1  0  0  0  0
  9  8  1  0  0  0  0
 10  2  1  6  0  0  0
 10  5  1  0  0  0  0
 11  2  1  0  0  0  0
 12  4  1  6  0  0  0
 12 10  1  0  0  0  0
 13 14  2  0  0  0  0
 14 15  1  0  0  0  0
 15 16  1  6  0  0  0
 15 17  1  0  0  0  0
 17 18  1  0  0  0  0
 19 20  1  0  0  0  0
 23 24  2  0  0  0  0
 24 22  1  0  0  0  0
 24 21  1  0  0  0  0
 25 24  1  0  0  0  0
M  END
>  <MODEL>
1

>  <REMARK>
 VINA RESULT:      -6.7      0.000      0.000
  Name = 
  6 active torsions:
  status: ('A' for Active; 'I' for Inactive)
    1  A    between atoms: C_4  and  C_7
    2  A    between atoms: C_4  and  C_16
    3  A    between atoms: C_7  and  C_8
    4  A    between atoms: C_9  and  C_17
    5  A    between atoms: C_9  and  P_23
    6  A    between atoms: C_15  and  C_22
                            x       y       z     vdW  Elec       q    Type
                         _______ _______ _______ _____ _____    ______ ____

>  <TORSDO>
F 6

$$$$
=
 OpenBabel11062420163D

 25 26  0  0  1  0  0  0  0  0999 V2000
  186.8630  178.4530  142.0220 O   0  0  0  0  0  0  0  0  0  0  0  0
  190.5820  176.6990  143.3520 C   0  0  0  0  0  2  0  0  0  0  0  0
  191.2060  175.8500  145.4370 C   0  0  1  0  0  3  0  0  0  0  0  0
  189.1670  177.4040  145.6700 C   0  0  0  0  0  3  0  0  0  0  0  0
  189.2160  178.2030  142.0640 C   0  0  0  0  0  2  0  0  0  0  0  0
  190.3390  176.9000  146.1360 C   0  0  0  0  0  3  0  0  0  0  0  0
  187.9340  177.9090  141.3130 C   0  0  0  0  0  2  0  0  0  0  0  0
  186.3990  177.4370  142.8670 C   0  0  1  0  0  3  0  0  0  0  0  0
  187.0540  177.5780  144.2640 C   0  0  2  0  0  3  0  0  0  0  0  0
  189.4100  177.2010  143.1510 C   0  0  2  0  0  3  0  0  0  0  0  0
  191.5740  176.2080  144.0180 C   0  0  0  0  0  2  0  0  0  0  0  0
  188.4930  177.0180  144.3510 C   0  0  1  0  0  3  0  0  0  0  0  0
  192.3290  174.9550  147.3130 O   0  0  0  0  0  0  0  0  0  0  0  0
  192.4320  175.5410  146.2460 C   0  0  0  0  0  0  0  0  0  0  0  0
  193.7940  175.9380  145.7560 C   0  0  1  0  0  3  0  0  0  0  0  0
  194.3300  177.0980  146.5720 C   0  0  0  0  0  1  0  0  0  0  0  0
  194.7720  174.7730  145.8170 C   0  0  0  0  0  2  0  0  0  0  0  0
  194.4880  173.7820  144.7040 C   0  0  0  0  0  1  0  0  0  0  0  0
  184.3570  178.1960  141.7270 N   0  0  0  0  0  1  0  0  0  0  0  0
  184.8690  177.4890  142.8900 C   0  0  0  0  0  2  0  0  0  0  0  0
  186.1850  177.0190  145.4090 C   0  0  0  0  0  2  0  0  0  0  0  0
  183.9890  177.9920  146.6930 O   0  0  0  0  0  1  0  0  0  0  0  0
  185.5890  179.8230  145.7490 O   0  0  0  0  0  0  0  0  0  0  0  0
  185.4520  178.3060  146.4830 P   0  0  0  0  0  0  0  0  0  0  0  0
  186.2300  178.3410  147.9840 O   0  0  0  0  0  1  0  0  0  0  0  0
  1  8  1  0  0  0  0
  2 11  1  0  0  0  0
  3  6  1  0  0  0  0
  3 14  1  1  0  0  0
  4  6  2  0  0  0  0
  7  1  1  0  0  0  0
  7  5  1  0  0  0  0
  8 20  1  1  0  0  0
  8  9  1  0  0  0  0
  9 12  1  0  0  0  0
  9 21  1  1  0  0  0
 10  5  1  1  0  0  0
 10  2  1  0  0  0  0
 10 12  1  0  0  0  0
 11  3  1  0  0  0  0
 12  4  1  1  0  0  0
 14 13  2  0  0  0  0
 15 17  1  0  0  0  0
 15 14  1  0  0  0  0
 15 16  1  1  0  0  0
 18 17  1  0  0  0  0
 19 20  1  0  0  0  0
 21 24  1  0  0  0  0
 23 24  2  0  0  0  0
 24 22  1  0  0  0  0
 24 25  1  0  0  0  0
M  END
>  <MODEL>
2

>  <REMARK>
 VINA RESULT:      -6.6      1.995      3.764
  Name = 
  6 active torsions:
  status: ('A' for Active; 'I' for Inactive)
    1  A    between atoms: C_4  and  C_7
    2  A    between atoms: C_4  and  C_16
    3  A    between atoms: C_7  and  C_8
    4  A    between atoms: C_9  and  C_17
    5  A    between atoms: C_9  and  P_23
    6  A    between atoms: C_15  and  C_22
                            x       y       z     vdW  Elec       q    Type
                         _______ _______ _______ _____ _____    ______ ____

>  <TORSDO>
F 6

$$$$
=
 OpenBabel11062420163D

 25 26  0  0  1  0  0  0  0  0999 V2000
  192.9070  175.6700  146.8220 O   0  0  0  0  0  0  0  0  0  0  0  0
  188.6500  176.3580  146.5290 C   0  0  0  0  0  2  0  0  0  0  0  0
  187.3290  176.9770  144.7040 C   0  0  1  0  0  3  0  0  0  0  0  0
  189.8010  177.5460  144.2620 C   0  0  0  0  0  3  0  0  0  0  0  0
  190.7930  176.3740  147.6220 C   0  0  0  0  0  2  0  0  0  0  0  0
  188.4760  177.8250  144.1480 C   0  0  0  0  0  3  0  0  0  0  0  0
  191.8500  175.2890  147.6480 C   0  0  0  0  0  2  0  0  0  0  0  0
  192.6290  175.1300  145.5600 C   0  0  1  0  0  3  0  0  0  0  0  0
  191.9090  176.1870  144.6850 C   0  0  2  0  0  3  0  0  0  0  0  0
  189.9270  176.2120  146.4180 C   0  0  2  0  0  3  0  0  0  0  0  0
  187.4490  176.6800  146.1790 C   0  0  0  0  0  2  0  0  0  0  0  0
  190.3970  176.3300  144.9760 C   0  0  1  0  0  3  0  0  0  0  0  0
  185.2530  177.0730  143.5790 O   0  0  0  0  0  0  0  0  0  0  0  0
  186.0000  177.6000  144.3900 C   0  0  0  0  0  0  0  0  0  0  0  0
  185.5680  178.8680  145.0670 C   0  0  1  0  0  3  0  0  0  0  0  0
  185.4290  179.9860  144.0520 C   0  0  0  0  0  1  0  0  0  0  0  0
  184.2540  178.6840  145.8130 C   0  0  0  0  0  2  0  0  0  0  0  0
  184.5090  178.4190  147.2840 C   0  0  0  0  0  1  0  0  0  0  0  0
  194.0340  173.1670  145.0930 N   0  0  0  0  0  1  0  0  0  0  0  0
  193.9380  174.6120  144.9580 C   0  0  0  0  0  2  0  0  0  0  0  0
  192.1550  176.0030  143.1730 C   0  0  0  0  0  2  0  0  0  0  0  0
  192.0100  174.0370  141.2940 O   0  0  0  0  0  0  0  0  0  0  0  0
  189.7340  175.1970  141.8220 O   0  0  0  0  0  1  0  0  0  0  0  0
  191.2060  174.6260  142.4290 P   0  0  0  0  0  0  0  0  0  0  0  0
  190.9050  173.4220  143.5770 O   0  0  0  0  0  1  0  0  0  0  0  0
  1  7  1  0  0  0  0
  3 14  1  1  0  0  0
  3 11  1  0  0  0  0
  5  7  1  0  0  0  0
  6  4  2  0  0  0  0
  6  3  1  0  0  0  0
  8 20  1  6  0  0  0
  8  1  1  0  0  0  0
  9 21  1  6  0  0  0
  9 12  1  0  0  0  0
  9  8  1  0  0  0  0
 10  2  1  1  0  0  0
 10  5  1  0  0  0  0
 11  2  1  0  0  0  0
 12  4  1  1  0  0  0
 12 10  1  0  0  0  0
 13 14  2  0  0  0  0
 14 15  1  0  0  0  0
 15 16  1  6  0  0  0
 15 17  1  0  0  0  0
 17 18  1  0  0  0  0
 20 19  1  0  0  0  0
 22 24  2  0  0  0  0
 23 24  1  0  0  0  0
 24 21  1  0  0  0  0
 24 25  1  0  0  0  0
M  END
>  <MODEL>
3

>  <REMARK>
 VINA RESULT:      -6.4      3.170      6.872
  Name = 
  6 active torsions:
  status: ('A' for Active; 'I' for Inactive)
    1  A    between atoms: C_4  and  C_7
    2  A    between atoms: C_4  and  C_16
    3  A    between atoms: C_7  and  C_8
    4  A    between atoms: C_9  and  C_17
    5  A    between atoms: C_9  and  P_23
    6  A    between atoms: C_15  and  C_22
                            x       y       z     vdW  Elec       q    Type
                         _______ _______ _______ _____ _____    ______ ____

>  <TORSDO>
F 6

$$$$
=
 OpenBabel11062420163D

 25 26  0  0  1  0  0  0  0  0999 V2000
  192.9990  174.6670  144.5760 O   0  0  0  0  0  0  0  0  0  0  0  0
  190.0510  177.0870  146.6110 C   0  0  0  0  0  2  0  0  0  0  0  0
  187.7210  176.9270  146.6600 C   0  0  1  0  0  3  0  0  0  0  0  0
  188.6690  175.6520  144.6350 C   0  0  0  0  0  3  0  0  0  0  0  0
  192.1200  176.6840  145.4520 C   0  0  0  0  0  2  0  0  0  0  0  0
  187.7140  176.4250  145.2140 C   0  0  0  0  0  3  0  0  0  0  0  0
  193.1100  175.5530  145.6480 C   0  0  0  0  0  2  0  0  0  0  0  0
  192.0720  173.6950  144.9700 C   0  0  1  0  0  3  0  0  0  0  0  0
  190.6600  174.0790  144.4580 C   0  0  2  0  0  3  0  0  0  0  0  0
  190.7690  176.2640  145.9230 C   0  0  2  0  0  3  0  0  0  0  0  0
  188.9800  177.6640  147.0450 C   0  0  0  0  0  2  0  0  0  0  0  0
  189.9390  175.1400  145.3200 C   0  0  1  0  0  3  0  0  0  0  0  0
  186.2900  178.1610  148.0790 O   0  0  0  0  0  0  0  0  0  0  0  0
  186.5050  177.7600  146.9450 C   0  0  0  0  0  0  0  0  0  0  0  0
  185.5450  178.1140  145.8480 C   0  0  1  0  0  3  0  0  0  0  0  0
  184.1290  178.1820  146.3870 C   0  0  0  0  0  1  0  0  0  0  0  0
  185.9090  179.4400  145.1930 C   0  0  0  0  0  2  0  0  0  0  0  0
  185.5490  179.4220  143.7190 C   0  0  0  0  0  1  0  0  0  0  0  0
  193.2320  172.4570  143.1910 N   0  0  0  0  0  1  0  0  0  0  0  0
  192.5620  172.3310  144.4750 C   0  0  0  0  0  2  0  0  0  0  0  0
  189.7430  172.8620  144.2170 C   0  0  0  0  0  2  0  0  0  0  0  0
  189.9440  171.1060  142.1450 O   0  0  0  0  0  1  0  0  0  0  0  0
  190.2670  173.6070  141.4780 O   0  0  0  0  0  0  0  0  0  0  0  0
  189.4400  172.4970  142.4500 P   0  0  0  0  0  0  0  0  0  0  0  0
  187.7870  172.5750  142.1010 O   0  0  0  0  0  1  0  0  0  0  0  0
  1  8  1  0  0  0  0
  1  7  1  0  0  0  0
  2 11  1  0  0  0  0
  3 14  1  6  0  0  0
  3 11  1  0  0  0  0
  4  6  2  0  0  0  0
  5  7  1  0  0  0  0
  6  3  1  0  0  0  0
  8 20  1  6  0  0  0
  9 21  1  1  0  0  0
  9  8  1  0  0  0  0
  9 12  1  0  0  0  0
 10  5  1  6  0  0  0
 10  2  1  0  0  0  0
 12  4  1  6  0  0  0
 12 10  1  0  0  0  0
 14 13  2  0  0  0  0
 15 16  1  1  0  0  0
 15 14  1  0  0  0  0
 17 15  1  0  0  0  0
 18 17  1  0  0  0  0
 19 20  1  0  0  0  0
 22 24  1  0  0  0  0
 23 24  2  0  0  0  0
 24 21  1  0  0  0  0
 25 24  1  0  0  0  0
M  END
>  <MODEL>
4

>  <REMARK>
 VINA RESULT:      -6.4      3.409      6.913
  Name = 
  6 active torsions:
  status: ('A' for Active; 'I' for Inactive)
    1  A    between atoms: C_4  and  C_7
    2  A    between atoms: C_4  and  C_16
    3  A    between atoms: C_7  and  C_8
    4  A    between atoms: C_9  and  C_17
    5  A    between atoms: C_9  and  P_23
    6  A    between atoms: C_15  and  C_22
                            x       y       z     vdW  Elec       q    Type
                         _______ _______ _______ _____ _____    ______ ____

>  <TORSDO>
F 6

$$$$
=
 OpenBabel11062420163D

 25 26  0  0  1  0  0  0  0  0999 V2000
  192.2880  173.8800  142.3990 O   0  0  0  0  0  0  0  0  0  0  0  0
  188.3600  175.6440  142.0200 C   0  0  0  0  0  2  0  0  0  0  0  0
  187.2990  177.2870  143.2970 C   0  0  1  0  0  3  0  0  0  0  0  0
  189.2480  176.2420  144.6140 C   0  0  0  0  0  3  0  0  0  0  0  0
  189.9790  173.8700  141.8780 C   0  0  0  0  0  2  0  0  0  0  0  0
  188.0010  176.7760  144.5580 C   0  0  0  0  0  3  0  0  0  0  0  0
  191.3910  173.9190  141.3310 C   0  0  0  0  0  2  0  0  0  0  0  0
  192.5540  175.2140  142.7330 C   0  0  1  0  0  3  0  0  0  0  0  0
  191.6150  175.6640  143.8800 C   0  0  2  0  0  3  0  0  0  0  0  0
  189.5510  175.2330  142.3040 C   0  0  2  0  0  3  0  0  0  0  0  0
  187.2460  176.2790  142.1760 C   0  0  0  0  0  2  0  0  0  0  0  0
  190.1880  176.0450  143.4210 C   0  0  1  0  0  3  0  0  0  0  0  0
  184.9680  177.4540  142.9450 O   0  0  0  0  0  0  0  0  0  0  0  0
  185.9260  177.8030  143.6180 C   0  0  0  0  0  0  0  0  0  0  0  0
  185.7110  178.7430  144.7680 C   0  0  1  0  0  3  0  0  0  0  0  0
  185.5550  180.1650  144.2640 C   0  0  0  0  0  1  0  0  0  0  0  0
  184.4900  178.3530  145.5880 C   0  0  0  0  0  2  0  0  0  0  0  0
  184.8160  177.1940  146.5110 C   0  0  0  0  0  1  0  0  0  0  0  0
  194.7160  176.2000  142.1030 N   0  0  0  0  0  1  0  0  0  0  0  0
  194.0440  175.3410  143.0630 C   0  0  0  0  0  2  0  0  0  0  0  0
  192.2150  176.7770  144.7640 C   0  0  0  0  0  2  0  0  0  0  0  0
  194.0090  176.8110  146.8130 O   0  0  0  0  0  1  0  0  0  0  0  0
  192.7660  174.5390  146.5030 O   0  0  0  0  0  0  0  0  0  0  0  0
  192.6640  176.2260  146.4500 P   0  0  0  0  0  0  0  0  0  0  0  0
  191.5130  176.7500  147.5730 O   0  0  0  0  0  1  0  0  0  0  0  0
  1  8  1  0  0  0  0
  2 11  1  0  0  0  0
  2 10  1  0  0  0  0
  3 14  1  1  0  0  0
  3  6  1  0  0  0  0
  6  4  2  0  0  0  0
  7  5  1  0  0  0  0
  7  1  1  0  0  0  0
  8 20  1  1  0  0  0
  8  9  1  0  0  0  0
  9 21  1  6  0  0  0
 10  5  1  1  0  0  0
 10 12  1  0  0  0  0
 11  3  1  0  0  0  0
 12  9  1  0  0  0  0
 12  4  1  1  0  0  0
 13 14  2  0  0  0  0
 14 15  1  0  0  0  0
 15 16  1  6  0  0  0
 15 17  1  0  0  0  0
 17 18  1  0  0  0  0
 19 20  1  0  0  0  0
 21 24  1  0  0  0  0
 24 23  2  0  0  0  0
 24 22  1  0  0  0  0
 24 25  1  0  0  0  0
M  END
>  <MODEL>
5

>  <REMARK>
 VINA RESULT:      -6.2      3.530      7.721
  Name = 
  6 active torsions:
  status: ('A' for Active; 'I' for Inactive)
    1  A    between atoms: C_4  and  C_7
    2  A    between atoms: C_4  and  C_16
    3  A    between atoms: C_7  and  C_8
    4  A    between atoms: C_9  and  C_17
    5  A    between atoms: C_9  and  P_23
    6  A    between atoms: C_15  and  C_22
                            x       y       z     vdW  Elec       q    Type
                         _______ _______ _______ _____ _____    ______ ____

>  <TORSDO>
F 6

$$$$
=
 OpenBabel11062420163D

 25 26  0  0  1  0  0  0  0  0999 V2000
  193.2030  174.8770  144.2810 O   0  0  0  0  0  0  0  0  0  0  0  0
  189.6740  177.2710  144.9880 C   0  0  0  0  0  2  0  0  0  0  0  0
  187.4230  176.8320  144.5440 C   0  0  1  0  0  3  0  0  0  0  0  0
  188.9340  175.3000  143.1330 C   0  0  0  0  0  3  0  0  0  0  0  0
  191.9900  176.9030  144.4500 C   0  0  0  0  0  2  0  0  0  0  0  0
  187.8110  176.0480  143.2880 C   0  0  0  0  0  3  0  0  0  0  0  0
  192.9800  175.9710  145.1180 C   0  0  0  0  0  2  0  0  0  0  0  0
  192.2810  173.8970  144.6670 C   0  0  1  0  0  3  0  0  0  0  0  0
  191.0160  173.9870  143.7760 C   0  0  2  0  0  3  0  0  0  0  0  0
  190.5980  176.4220  144.6870 C   0  0  2  0  0  3  0  0  0  0  0  0
  188.4890  177.7850  145.0240 C   0  0  0  0  0  2  0  0  0  0  0  0
  190.0280  175.1030  144.1860 C   0  0  1  0  0  3  0  0  0  0  0  0
  185.2700  177.0800  143.6020 O   0  0  0  0  0  0  0  0  0  0  0  0
  186.1160  177.5460  144.3490 C   0  0  0  0  0  0  0  0  0  0  0  0
  185.8300  178.8320  145.0680 C   0  0  1  0  0  3  0  0  0  0  0  0
  185.3650  179.8920  144.0890 C   0  0  0  0  0  1  0  0  0  0  0  0
  184.7820  178.6420  146.1560 C   0  0  0  0  0  2  0  0  0  0  0  0
  185.4460  178.3960  147.4980 C   0  0  0  0  0  1  0  0  0  0  0  0
  193.9890  172.4340  145.6610 N   0  0  0  0  0  1  0  0  0  0  0  0
  192.9770  172.5340  144.6210 C   0  0  0  0  0  2  0  0  0  0  0  0
  190.2790  172.6420  143.6180 C   0  0  0  0  0  2  0  0  0  0  0  0
  191.6120  172.4520  141.2500 O   0  0  0  0  0  1  0  0  0  0  0  0
  189.0120  172.4230  141.0330 O   0  0  0  0  0  0  0  0  0  0  0  0
  190.3630  171.9410  141.9300 P   0  0  0  0  0  0  0  0  0  0  0  0
  190.4170  170.2520  141.9890 O   0  0  0  0  0  1  0  0  0  0  0  0
  1  8  1  0  0  0  0
  1  7  1  0  0  0  0
  2 11  1  0  0  0  0
  3 14  1  6  0  0  0
  3 11  1  0  0  0  0
  4  6  2  0  0  0  0
  5  7  1  0  0  0  0
  6  3  1  0  0  0  0
  8 20  1  6  0  0  0
  9 21  1  1  0  0  0
  9 12  1  0  0  0  0
  9  8  1  0  0  0  0
 10  5  1  6  0  0  0
 10  2  1  0  0  0  0
 12  4  1  6  0  0  0
 12 10  1  0  0  0  0
 13 14  2  0  0  0  0
 14 15  1  0  0  0  0
 15 16  1  6  0  0  0
 15 17  1  0  0  0  0
 17 18  1  0  0  0  0
 20 19  1  0  0  0  0
 22 24  1  0  0  0  0
 23 24  2  0  0  0  0
 24 25  1  0  0  0  0
 24 21  1  0  0  0  0
M  END
>  <MODEL>
6

>  <REMARK>
 VINA RESULT:      -6.2      3.611      7.222
  Name = 
  6 active torsions:
  status: ('A' for Active; 'I' for Inactive)
    1  A    between atoms: C_4  and  C_7
    2  A    between atoms: C_4  and  C_16
    3  A    between atoms: C_7  and  C_8
    4  A    between atoms: C_9  and  C_17
    5  A    between atoms: C_9  and  P_23
    6  A    between atoms: C_15  and  C_22
                            x       y       z     vdW  Elec       q    Type
                         _______ _______ _______ _____ _____    ______ ____

>  <TORSDO>
F 6

$$$$
=
 OpenBabel11062420163D

 25 26  0  0  1  0  0  0  0  0999 V2000
  191.6330  172.8630  143.1410 O   0  0  0  0  0  0  0  0  0  0  0  0
  188.4770  175.7130  143.9160 C   0  0  0  0  0  2  0  0  0  0  0  0
  187.9700  176.9370  145.8390 C   0  0  1  0  0  3  0  0  0  0  0  0
  189.4620  174.9220  146.4220 C   0  0  0  0  0  3  0  0  0  0  0  0
  189.4500  173.7510  142.9180 C   0  0  0  0  0  2  0  0  0  0  0  0
  188.4500  175.7790  146.7170 C   0  0  0  0  0  3  0  0  0  0  0  0
  190.8150  173.5930  142.2790 C   0  0  0  0  0  2  0  0  0  0  0  0
  192.3030  173.8040  143.9320 C   0  0  1  0  0  3  0  0  0  0  0  0
  191.5350  174.0120  145.2620 C   0  0  2  0  0  3  0  0  0  0  0  0
  189.4700  174.8880  143.8840 C   0  0  2  0  0  3  0  0  0  0  0  0
  187.6190  176.5310  144.4290 C   0  0  0  0  0  2  0  0  0  0  0  0
  190.3120  174.9510  145.1490 C   0  0  1  0  0  3  0  0  0  0  0  0
  186.8850  177.9700  147.6680 O   0  0  0  0  0  0  0  0  0  0  0  0
  186.8260  177.6630  146.4870 C   0  0  0  0  0  0  0  0  0  0  0  0
  185.6040  178.0270  145.6960 C   0  0  1  0  0  3  0  0  0  0  0  0
  184.3520  177.7640  146.5100 C   0  0  0  0  0  1  0  0  0  0  0  0
  185.6340  179.4850  145.2580 C   0  0  0  0  0  2  0  0  0  0  0  0
  185.5910  179.5870  143.7450 C   0  0  0  0  0  1  0  0  0  0  0  0
  193.8150  171.8900  144.2470 N   0  0  0  0  0  1  0  0  0  0  0  0
  193.7490  173.3370  144.1170 C   0  0  0  0  0  2  0  0  0  0  0  0
  192.4410  174.4410  146.4340 C   0  0  0  0  0  2  0  0  0  0  0  0
  194.3680  176.3530  146.6650 O   0  0  0  0  0  1  0  0  0  0  0  0
  192.0460  177.0340  147.6420 O   0  0  0  0  0  1  0  0  0  0  0  0
  192.8830  176.2170  146.4200 P   0  0  0  0  0  0  0  0  0  0  0  0
  192.5040  176.9130  144.9260 O   0  0  0  0  0  0  0  0  0  0  0  0
  1  8  1  0  0  0  0
  2 11  1  0  0  0  0
  3 14  1  1  0  0  0
  3  6  1  0  0  0  0
  4  6  2  0  0  0  0
  7  5  1  0  0  0  0
  7  1  1  0  0  0  0
  8 20  1  1  0  0  0
  8  9  1  0  0  0  0
  9 21  1  1  0  0  0
 10  5  1  1  0  0  0
 10  2  1  0  0  0  0
 10 12  1  0  0  0  0
 11  3  1  0  0  0  0
 12  9  1  0  0  0  0
 12  4  1  1  0  0  0
 14 13  2  0  0  0  0
 15 14  1  0  0  0  0
 15 16  1  1  0  0  0
 17 15  1  0  0  0  0
 18 17  1  0  0  0  0
 20 19  1  0  0  0  0
 24 21  1  0  0  0  0
 24 22  1  0  0  0  0
 24 23  1  0  0  0  0
 25 24  2  0  0  0  0
M  END
>  <MODEL>
7

>  <REMARK>
 VINA RESULT:      -6.1      4.082      7.617
  Name = 
  6 active torsions:
  status: ('A' for Active; 'I' for Inactive)
    1  A    between atoms: C_4  and  C_7
    2  A    between atoms: C_4  and  C_16
    3  A    between atoms: C_7  and  C_8
    4  A    between atoms: C_9  and  C_17
    5  A    between atoms: C_9  and  P_23
    6  A    between atoms: C_15  and  C_22
                            x       y       z     vdW  Elec       q    Type
                         _______ _______ _______ _____ _____    ______ ____

>  <TORSDO>
F 6

$$$$
=
 OpenBabel11062420163D

 25 26  0  0  1  0  0  0  0  0999 V2000
  186.4290  176.9360  146.1440 O   0  0  0  0  0  0  0  0  0  0  0  0
  190.4300  175.7050  147.2190 C   0  0  0  0  0  2  0  0  0  0  0  0
  192.3050  175.2910  145.8900 C   0  0  1  0  0  3  0  0  0  0  0  0
  190.1580  175.1970  144.4740 C   0  0  0  0  0  3  0  0  0  0  0  0
  188.0360  175.7780  147.4410 C   0  0  0  0  0  2  0  0  0  0  0  0
  191.4080  174.7560  144.7710 C   0  0  0  0  0  3  0  0  0  0  0  0
  187.1140  176.9770  147.3590 C   0  0  0  0  0  2  0  0  0  0  0  0
  187.1970  177.6800  145.2390 C   0  0  1  0  0  3  0  0  0  0  0  0
  188.1310  176.7340  144.4440 C   0  0  2  0  0  3  0  0  0  0  0  0
  189.3010  176.0570  146.7030 C   0  0  2  0  0  3  0  0  0  0  0  0
  191.6530  175.2890  147.2500 C   0  0  0  0  0  2  0  0  0  0  0  0
  189.4080  176.3120  145.2070 C   0  0  1  0  0  3  0  0  0  0  0  0
  193.6430  173.3460  145.7710 O   0  0  0  0  0  0  0  0  0  0  0  0
  193.6150  174.5580  145.9230 C   0  0  0  0  0  0  0  0  0  0  0  0
  194.9030  175.2990  146.1370 C   0  0  1  0  0  3  0  0  0  0  0  0
  196.0830  174.4240  145.7640 C   0  0  0  0  0  1  0  0  0  0  0  0
  194.9450  176.5900  145.3310 C   0  0  0  0  0  2  0  0  0  0  0  0
  195.6810  176.3770  144.0220 C   0  0  0  0  0  1  0  0  0  0  0  0
  184.9150  177.9170  144.3540 N   0  0  0  0  0  1  0  0  0  0  0  0
  186.2470  178.4990  144.3610 C   0  0  0  0  0  2  0  0  0  0  0  0
  188.4890  177.2630  143.0400 C   0  0  0  0  0  2  0  0  0  0  0  0
  186.6870  175.3920  142.2190 O   0  0  0  0  0  1  0  0  0  0  0  0
  188.9820  175.2980  140.9820 O   0  0  0  0  0  1  0  0  0  0  0  0
  187.7840  176.2740  141.6700 P   0  0  0  0  0  0  0  0  0  0  0  0
  187.1370  177.2850  140.4790 O   0  0  0  0  0  0  0  0  0  0  0  0
  1  7  1  0  0  0  0
  2 11  1  0  0  0  0
  3 14  1  1  0  0  0
  3 11  1  0  0  0  0
  4  6  2  0  0  0  0
  6  3  1  0  0  0  0
  7  5  1  0  0  0  0
  8 20  1  6  0  0  0
  8  1  1  0  0  0  0
  9 21  1  6  0  0  0
  9 12  1  0  0  0  0
  9  8  1  0  0  0  0
 10  2  1  6  0  0  0
 10  5  1  0  0  0  0
 12  4  1  6  0  0  0
 12 10  1  0  0  0  0
 13 14  2  0  0  0  0
 14 15  1  0  0  0  0
 15 16  1  6  0  0  0
 17 15  1  0  0  0  0
 18 17  1  0  0  0  0
 19 20  1  0  0  0  0
 23 24  1  0  0  0  0
 24 22  1  0  0  0  0
 24 21  1  0  0  0  0
 25 24  2  0  0  0  0
M  END
>  <MODEL>
8

>  <REMARK>
 VINA RESULT:      -6.0      1.566      2.020
  Name = 
  6 active torsions:
  status: ('A' for Active; 'I' for Inactive)
    1  A    between atoms: C_4  and  C_7
    2  A    between atoms: C_4  and  C_16
    3  A    between atoms: C_7  and  C_8
    4  A    between atoms: C_9  and  C_17
    5  A    between atoms: C_9  and  P_23
    6  A    between atoms: C_15  and  C_22
                            x       y       z     vdW  Elec       q    Type
                         _______ _______ _______ _____ _____    ______ ____

>  <TORSDO>
F 6

$$$$
=
 OpenBabel11062420163D

 25 26  0  0  1  0  0  0  0  0999 V2000
  195.3650  175.9040  145.1000 O   0  0  0  0  0  0  0  0  0  0  0  0
  191.4100  176.4920  146.7410 C   0  0  0  0  0  2  0  0  0  0  0  0
  189.3770  176.9510  145.6870 C   0  0  1  0  0  3  0  0  0  0  0  0
  191.3470  177.5300  144.1350 C   0  0  0  0  0  3  0  0  0  0  0  0
  193.8120  176.6270  146.7340 C   0  0  0  0  0  2  0  0  0  0  0  0
  190.1030  177.7760  144.6220 C   0  0  0  0  0  3  0  0  0  0  0  0
  194.8180  175.5660  146.3380 C   0  0  0  0  0  2  0  0  0  0  0  0
  194.5720  175.2680  144.1370 C   0  0  1  0  0  3  0  0  0  0  0  0
  193.4820  176.2450  143.6270 C   0  0  2  0  0  3  0  0  0  0  0  0
  192.5040  176.3610  146.0690 C   0  0  2  0  0  3  0  0  0  0  0  0
  190.1660  176.7650  146.9590 C   0  0  0  0  0  2  0  0  0  0  0  0
  192.2620  176.3810  144.5670 C   0  0  1  0  0  3  0  0  0  0  0  0
  187.6480  177.6590  147.1340 O   0  0  0  0  0  0  0  0  0  0  0  0
  188.0200  177.5240  145.9780 C   0  0  0  0  0  0  0  0  0  0  0  0
  187.1100  177.9430  144.8620 C   0  0  1  0  0  3  0  0  0  0  0  0
  186.5400  176.7260  144.1600 C   0  0  0  0  0  1  0  0  0  0  0  0
  185.9750  178.8230  145.3660 C   0  0  0  0  0  2  0  0  0  0  0  0
  185.4870  179.7470  144.2650 C   0  0  0  0  0  1  0  0  0  0  0  0
  195.6000  173.2830  143.1120 N   0  0  0  0  0  1  0  0  0  0  0  0
  195.4900  174.7310  143.0350 C   0  0  0  0  0  2  0  0  0  0  0  0
  193.0240  175.9540  142.1830 C   0  0  0  0  0  2  0  0  0  0  0  0
  190.4840  175.0000  141.9490 O   0  0  0  0  0  1  0  0  0  0  0  0
  192.0700  173.5100  143.3880 O   0  0  0  0  0  1  0  0  0  0  0  0
  191.9100  174.5100  142.0330 P   0  0  0  0  0  0  0  0  0  0  0  0
  192.2730  173.6220  140.6400 O   0  0  0  0  0  0  0  0  0  0  0  0
  1  7  1  0  0  0  0
  2 11  1  0  0  0  0
  3 14  1  1  0  0  0
  3 11  1  0  0  0  0
  4  6  2  0  0  0  0
  6  3  1  0  0  0  0
  7  5  1  0  0  0  0
  8 20  1  6  0  0  0
  8  1  1  0  0  0  0
  9 21  1  6  0  0  0
  9  8  1  0  0  0  0
  9 12  1  0  0  0  0
 10  5  1  6  0  0  0
 10  2  1  0  0  0  0
 12  4  1  6  0  0  0
 12 10  1  0  0  0  0
 14 13  2  0  0  0  0
 15 16  1  1  0  0  0
 15 17  1  0  0  0  0
 15 14  1  0  0  0  0
 18 17  1  0  0  0  0
 20 19  1  0  0  0  0
 22 24  1  0  0  0  0
 24 21  1  0  0  0  0
 24 23  1  0  0  0  0
 25 24  2  0  0  0  0
M  END
>  <MODEL>
9

>  <REMARK>
 VINA RESULT:      -6.0      3.708      7.236
  Name = 
  6 active torsions:
  status: ('A' for Active; 'I' for Inactive)
    1  A    between atoms: C_4  and  C_7
    2  A    between atoms: C_4  and  C_16
    3  A    between atoms: C_7  and  C_8
    4  A    between atoms: C_9  and  C_17
    5  A    between atoms: C_9  and  P_23
    6  A    between atoms: C_15  and  C_22
                            x       y       z     vdW  Elec       q    Type
                         _______ _______ _______ _____ _____    ______ ____

>  <TORSDO>
F 6

$$$$
