=
 OpenBabel11062421233D

 51 53  0  0  1  0  0  0  0  0999 V2000
  191.8950  174.6030  143.3820 O   0  0  0  0  0  0  0  0  0  0  0  0
  191.4910  175.2560  145.6080 N   0  0  0  0  0  0  0  0  0  0  0  0
  191.1180  175.0840  144.2530 C   0  0  0  0  0  0  0  0  0  0  0  0
  190.3190  175.6500  146.2910 C   0  0  0  0  0  0  0  0  0  0  0  0
  189.6990  175.4580  143.9860 C   0  0  1  0  0  3  0  0  0  0  0  0
  190.2530  175.7200  147.5480 O   0  0  0  0  0  0  0  0  0  0  0  0
  189.1580  175.8850  145.3780 C   0  0  2  0  0  3  0  0  0  0  0  0
  188.7190  177.3510  145.4410 C   0  0  0  0  0  2  0  0  0  0  0  0
  186.6070  176.2770  145.3880 F   0  0  0  0  0  0  0  0  0  0  0  0
  187.2400  177.4430  145.7810 C   0  0  1  0  0  3  0  0  0  0  0  0
  186.5890  176.5010  147.8800 F   0  0  0  0  0  0  0  0  0  0  0  0
  187.0530  177.6590  147.2780 C   0  0  2  0  0  3  0  0  0  0  0  0
  186.0730  178.7880  147.5250 C   0  0  0  0  0  1  0  0  0  0  0  0
  189.6480  176.4880  143.0290 O   0  0  0  0  0  0  0  0  0  0  0  0
  188.7390  176.0540  142.0510 C   0  0  1  0  0  3  0  0  0  0  0  0
  189.2290  174.7340  141.4780 C   0  0  0  0  0  2  0  0  0  0  0  0
  188.4910  174.4130  140.3330 O   0  0  0  0  0  1  0  0  0  0  0  0
  187.4660  175.8710  142.6130 O   0  0  0  0  0  0  0  0  0  0  0  0
  186.6520  176.8300  142.0030 C   0  0  2  0  0  3  0  0  0  0  0  0
  187.2890  178.0720  142.0320 O   0  0  0  0  0  1  0  0  0  0  0  0
  185.4270  176.9230  142.6720 O   0  0  0  0  0  0  0  0  0  0  0  0
  184.9920  178.2400  142.4550 C   0  0  1  0  0  3  0  0  0  0  0  0
  184.1890  178.3810  140.2130 O   0  0  0  0  0  0  0  0  0  0  0  0
  183.9020  178.2470  141.4330 C   0  0  0  0  0  0  0  0  0  0  0  0
  182.5730  178.1370  141.8210 O   0  0  0  0  0  1  0  0  0  0  0  0
  184.4850  178.8530  143.7570 C   0  0  0  0  0  2  0  0  0  0  0  0
  185.3600  180.0300  144.1500 C   0  0  0  0  0  1  0  0  0  0  0  0
  192.6810  174.7010  146.2450 C   0  0  0  0  0  2  0  0  0  0  0  0
  193.9160  175.5800  146.0330 C   0  0  1  0  0  3  0  0  0  0  0  0
  193.8110  176.9580  146.6660 C   0  0  0  0  0  1  0  0  0  0  0  0
  195.1720  174.8950  146.3540 N   0  0  0  0  0  2  0  0  0  0  0  0
  195.8950  173.9480  145.5430 C   0  0  0  0  0  0  0  0  0  0  0  0
  197.1930  173.7280  145.7170 C   0  0  0  0  0  2  0  0  0  0  0  0
  195.2930  173.8360  143.1170 C   0  0  0  0  0  0  0  0  0  0  0  0
  195.5830  175.3300  141.5910 N   0  0  0  0  0  0  0  0  0  0  0  0
  193.9450  171.1100  142.7320 C   0  0  0  0  0  2  0  0  0  0  0  0
  194.3590  172.0090  141.6600 N   0  0  0  0  0  2  0  0  0  0  0  0
  195.0890  170.8120  143.6540 C   0  0  0  0  0  3  0  0  0  0  0  0
  194.9160  173.3050  141.8990 C   0  0  0  0  0  0  0  0  0  0  0  0
  195.0370  175.2290  138.8450 O   0  0  0  0  0  0  0  0  0  0  0  0
  194.9140  174.1840  139.5460 C   0  0  0  0  0  0  0  0  0  0  0  0
  195.1750  173.1800  144.4700 C   0  0  1  0  0  3  0  0  0  0  0  0
  195.6450  171.7480  144.4370 C   0  0  0  0  0  3  0  0  0  0  0  0
  195.1260  174.2530  140.9670 N   0  0  0  0  0  0  0  0  0  0  0  0
  195.6880  175.1100  142.8950 N   0  0  0  0  0  0  0  0  0  0  0  0
  194.6080  172.8880  138.8610 C   0  0  0  0  0  2  0  0  0  0  0  0
  193.2530  172.9550  138.1640 C   0  0  0  0  0  3  0  0  0  0  0  0
  191.3460  172.2730  139.6220 C   0  0  0  0  0  1  0  0  0  0  0  0
  192.3820  171.7940  138.6250 C   0  0  0  0  0  2  0  0  0  0  0  0
  193.4390  172.8770  136.6580 C   0  0  0  0  0  2  0  0  0  0  0  0
  192.2500  172.1970  136.0110 C   0  0  0  0  0  1  0  0  0  0  0  0
  1  3  2  0  0  0  0
  2 28  1  0  0  0  0
  2  4  1  0  0  0  0
  3  2  1  0  0  0  0
  4  6  2  0  0  0  0
  5 14  1  6  0  0  0
  5  3  1  0  0  0  0
  5  7  1  0  0  0  0
  7  8  1  6  0  0  0
  7  4  1  0  0  0  0
  8 10  1  0  0  0  0
 10  9  1  1  0  0  0
 10 12  1  0  0  0  0
 12 13  1  6  0  0  0
 12 11  1  0  0  0  0
 15 16  1  1  0  0  0
 15 18  1  0  0  0  0
 15 14  1  0  0  0  0
 17 16  1  0  0  0  0
 19 20  1  1  0  0  0
 19 18  1  0  0  0  0
 19 21  1  0  0  0  0
 22 21  1  0  0  0  0
 22 26  1  1  0  0  0
 23 24  2  0  0  0  0
 24 25  1  0  0  0  0
 24 22  1  0  0  0  0
 26 27  1  0  0  0  0
 29 28  1  0  0  0  0
 29 31  1  0  0  0  0
 29 30  1  1  0  0  0
 32 33  2  0  0  0  0
 32 31  1  0  0  0  0
 34 42  1  0  0  0  0
 35 45  2  0  0  0  0
 36 38  1  0  0  0  0
 37 39  1  0  0  0  0
 37 36  1  0  0  0  0
 38 43  2  0  0  0  0
 39 34  2  0  0  0  0
 40 41  2  0  0  0  0
 41 44  1  0  0  0  0
 42 32  1  1  0  0  0
 43 42  1  0  0  0  0
 44 35  1  0  0  0  0
 44 39  1  0  0  0  0
 45 34  1  0  0  0  0
 46 41  1  0  0  0  0
 47 49  1  0  0  0  0
 47 46  1  0  0  0  0
 49 48  1  0  0  0  0
 50 47  1  0  0  0  0
 51 50  1  0  0  0  0
M  END
>  <MODEL>
1

>  <REMARK>
 VINA RESULT:      -6.2      0.000      0.000
  Name = 
  21 active torsions:
  status: ('A' for Active; 'I' for Inactive)
    1  A    between atoms: N_3  and  C_51
    2  A    between atoms: C_5  and  C_13
    3  A    between atoms: C_5  and  C_20
    4  A    between atoms: C_5  and  C_48
    5  A    between atoms: C_7  and  C_39
    6  A    between atoms: C_8  and  C_29
    7  A    between atoms: C_8  and  C_49
    8  A    between atoms: C_14  and  O_25
    9  A    between atoms: C_14  and  O_35
   10  A    between atoms: C_17  and  O_25
   11  A    between atoms: C_17  and  C_27
   12  A    between atoms: C_17  and  C_37
   13  A    between atoms: C_18  and  O_36
   14  A    between atoms: C_21  and  C_38
   15  A    between atoms: C_21  and  N_46
   16  A    between atoms: C_29  and  C_30
   17  A    between atoms: C_32  and  N_46
   18  A    between atoms: C_32  and  C_51
   19  A    between atoms: C_33  and  C_48
   20  A    between atoms: O_35  and  C_39
   21  A    between atoms: O_36  and  C_39
                            x       y       z     vdW  Elec       q    Type
                         _______ _______ _______ _____ _____    ______ ____

>  <TORSDO>
F 21

$$$$
=
 OpenBabel11062421233D

 51 53  0  0  1  0  0  0  0  0999 V2000
  195.4300  172.1900  141.4120 O   0  0  0  0  0  0  0  0  0  0  0  0
  194.8240  172.5300  143.6620 N   0  0  0  0  0  0  0  0  0  0  0  0
  194.6780  171.9230  142.3900 C   0  0  0  0  0  0  0  0  0  0  0  0
  193.9270  171.8590  144.5220 C   0  0  0  0  0  0  0  0  0  0  0  0
  193.6020  170.8920  142.3550 C   0  0  1  0  0  3  0  0  0  0  0  0
  193.9230  172.0290  145.7700 O   0  0  0  0  0  0  0  0  0  0  0  0
  193.0570  170.8730  143.8100 C   0  0  2  0  0  3  0  0  0  0  0  0
  191.5860  171.2850  143.9180 C   0  0  0  0  0  2  0  0  0  0  0  0
  191.7760  173.5470  143.2370 F   0  0  0  0  0  0  0  0  0  0  0  0
  191.4770  172.7460  144.3240 C   0  0  1  0  0  3  0  0  0  0  0  0
  189.4950  171.9170  145.3750 F   0  0  0  0  0  0  0  0  0  0  0  0
  190.0710  173.0530  144.8280 C   0  0  2  0  0  3  0  0  0  0  0  0
  189.2080  173.5640  143.6920 C   0  0  0  0  0  1  0  0  0  0  0  0
  192.6300  171.2470  141.4010 O   0  0  0  0  0  0  0  0  0  0  0  0
  192.4770  170.1200  140.5770 C   0  0  1  0  0  3  0  0  0  0  0  0
  191.0300  169.6600  140.6420 C   0  0  0  0  0  2  0  0  0  0  0  0
  190.8980  168.6470  141.5990 O   0  0  0  0  0  1  0  0  0  0  0  0
  192.8050  170.4350  139.2500 O   0  0  0  0  0  0  0  0  0  0  0  0
  191.6280  170.9420  138.6890 C   0  0  2  0  0  3  0  0  0  0  0  0
  191.3890  170.3180  137.4630 O   0  0  0  0  0  1  0  0  0  0  0  0
  191.7390  172.3220  138.4920 O   0  0  0  0  0  0  0  0  0  0  0  0
  190.4700  172.7310  138.0530 C   0  0  1  0  0  3  0  0  0  0  0  0
  188.3970  172.6020  139.2260 O   0  0  0  0  0  0  0  0  0  0  0  0
  189.5930  173.0000  139.2310 C   0  0  0  0  0  0  0  0  0  0  0  0
  190.0770  173.7110  140.3220 O   0  0  0  0  0  1  0  0  0  0  0  0
  190.5850  173.9880  137.1950 C   0  0  0  0  0  2  0  0  0  0  0  0
  189.5970  173.9210  136.0440 C   0  0  0  0  0  1  0  0  0  0  0  0
  195.9620  173.3310  144.1020 C   0  0  0  0  0  2  0  0  0  0  0  0
  195.6240  174.8210  144.1900 C   0  0  1  0  0  3  0  0  0  0  0  0
  195.1970  175.4380  142.8670 C   0  0  0  0  0  1  0  0  0  0  0  0
  194.7120  175.1400  145.2930 N   0  0  0  0  0  2  0  0  0  0  0  0
  194.2080  176.4350  145.6770 C   0  0  0  0  0  0  0  0  0  0  0  0
  194.9900  177.5070  145.7080 C   0  0  0  0  0  2  0  0  0  0  0  0
  191.8780  176.8220  144.8500 C   0  0  0  0  0  0  0  0  0  0  0  0
  191.2290  177.3660  142.8680 N   0  0  0  0  0  0  0  0  0  0  0  0
  190.0670  176.4430  147.2950 C   0  0  0  0  0  2  0  0  0  0  0  0
  189.6120  176.5670  145.9140 N   0  0  0  0  0  2  0  0  0  0  0  0
  191.0780  175.3440  147.4290 C   0  0  0  0  0  3  0  0  0  0  0  0
  190.4970  176.8180  144.8190 C   0  0  0  0  0  0  0  0  0  0  0  0
  188.6410  177.7060  141.8510 O   0  0  0  0  0  0  0  0  0  0  0  0
  188.7990  177.2510  143.0190 C   0  0  0  0  0  0  0  0  0  0  0  0
  192.7600  176.5910  146.0510 C   0  0  1  0  0  3  0  0  0  0  0  0
  192.2930  175.4100  146.8660 C   0  0  0  0  0  3  0  0  0  0  0  0
  190.1250  177.1430  143.5670 N   0  0  0  0  0  0  0  0  0  0  0  0
  192.3070  177.1870  143.6210 N   0  0  0  0  0  0  0  0  0  0  0  0
  187.5970  176.7790  143.7770 C   0  0  0  0  0  2  0  0  0  0  0  0
  186.5610  177.8930  143.8910 C   0  0  0  0  0  3  0  0  0  0  0  0
  185.3440  179.3750  145.4860 C   0  0  0  0  0  1  0  0  0  0  0  0
  186.3390  178.2390  145.3570 C   0  0  0  0  0  2  0  0  0  0  0  0
  185.2460  177.4450  143.2750 C   0  0  0  0  0  2  0  0  0  0  0  0
  185.0960  178.0070  141.8770 C   0  0  0  0  0  1  0  0  0  0  0  0
  1  3  2  0  0  0  0
  2 28  1  0  0  0  0
  2  4  1  0  0  0  0
  3  2  1  0  0  0  0
  4  6  2  0  0  0  0
  5 14  1  6  0  0  0
  5  3  1  0  0  0  0
  5  7  1  0  0  0  0
  7  8  1  6  0  0  0
  7  4  1  0  0  0  0
  8 10  1  0  0  0  0
 10  9  1  6  0  0  0
 10 12  1  0  0  0  0
 12 13  1  6  0  0  0
 12 11  1  0  0  0  0
 15 16  1  6  0  0  0
 15 14  1  0  0  0  0
 16 17  1  0  0  0  0
 18 15  1  0  0  0  0
 19 20  1  6  0  0  0
 19 18  1  0  0  0  0
 21 19  1  0  0  0  0
 22 26  1  1  0  0  0
 22 21  1  0  0  0  0
 22 24  1  0  0  0  0
 23 24  2  0  0  0  0
 24 25  1  0  0  0  0
 27 26  1  0  0  0  0
 28 29  1  0  0  0  0
 29 30  1  6  0  0  0
 29 31  1  0  0  0  0
 31 32  1  0  0  0  0
 32 33  2  0  0  0  0
 34 42  1  0  0  0  0
 35 44  1  0  0  0  0
 35 45  2  0  0  0  0
 36 38  1  0  0  0  0
 37 36  1  0  0  0  0
 39 34  2  0  0  0  0
 39 37  1  0  0  0  0
 40 41  2  0  0  0  0
 41 44  1  0  0  0  0
 41 46  1  0  0  0  0
 42 32  1  6  0  0  0
 42 43  1  0  0  0  0
 43 38  2  0  0  0  0
 44 39  1  0  0  0  0
 45 34  1  0  0  0  0
 46 47  1  0  0  0  0
 47 49  1  0  0  0  0
 49 48  1  0  0  0  0
 50 47  1  0  0  0  0
 51 50  1  0  0  0  0
M  END
>  <MODEL>
2

>  <REMARK>
 VINA RESULT:      -6.0      2.774      7.258
  Name = 
  21 active torsions:
  status: ('A' for Active; 'I' for Inactive)
    1  A    between atoms: N_3  and  C_51
    2  A    between atoms: C_5  and  C_13
    3  A    between atoms: C_5  and  C_20
    4  A    between atoms: C_5  and  C_48
    5  A    between atoms: C_7  and  C_39
    6  A    between atoms: C_8  and  C_29
    7  A    between atoms: C_8  and  C_49
    8  A    between atoms: C_14  and  O_25
    9  A    between atoms: C_14  and  O_35
   10  A    between atoms: C_17  and  O_25
   11  A    between atoms: C_17  and  C_27
   12  A    between atoms: C_17  and  C_37
   13  A    between atoms: C_18  and  O_36
   14  A    between atoms: C_21  and  C_38
   15  A    between atoms: C_21  and  N_46
   16  A    between atoms: C_29  and  C_30
   17  A    between atoms: C_32  and  N_46
   18  A    between atoms: C_32  and  C_51
   19  A    between atoms: C_33  and  C_48
   20  A    between atoms: O_35  and  C_39
   21  A    between atoms: O_36  and  C_39
                            x       y       z     vdW  Elec       q    Type
                         _______ _______ _______ _____ _____    ______ ____

>  <TORSDO>
F 21

$$$$
=
 OpenBabel11062421233D

 51 53  0  0  1  0  0  0  0  0999 V2000
  192.5010  174.6100  141.6420 O   0  0  0  0  0  0  0  0  0  0  0  0
  194.7430  175.3070  141.4570 N   0  0  0  0  0  0  0  0  0  0  0  0
  193.5400  174.7650  140.9420 C   0  0  0  0  0  0  0  0  0  0  0  0
  195.6020  175.4790  140.3490 C   0  0  0  0  0  0  0  0  0  0  0  0
  193.6100  174.4710  139.4810 C   0  0  1  0  0  3  0  0  0  0  0  0
  196.6930  176.1040  140.4230 O   0  0  0  0  0  0  0  0  0  0  0  0
  195.0400  174.9250  139.0790 C   0  0  2  0  0  3  0  0  0  0  0  0
  195.9210  173.7850  138.5590 C   0  0  0  0  0  2  0  0  0  0  0  0
  196.3160  173.0730  136.3340 F   0  0  0  0  0  0  0  0  0  0  0  0
  196.4920  174.1400  137.1960 C   0  0  1  0  0  3  0  0  0  0  0  0
  194.7960  175.0190  135.7570 F   0  0  0  0  0  0  0  0  0  0  0  0
  195.8010  175.3800  136.6400 C   0  0  2  0  0  3  0  0  0  0  0  0
  196.8060  176.2650  135.9300 C   0  0  0  0  0  1  0  0  0  0  0  0
  193.3760  173.1020  139.2580 O   0  0  0  0  0  0  0  0  0  0  0  0
  192.1170  173.0270  138.6400 C   0  0  1  0  0  3  0  0  0  0  0  0
  192.2120  173.6540  137.2580 C   0  0  0  0  0  2  0  0  0  0  0  0
  190.9300  173.9680  136.7940 O   0  0  0  0  0  1  0  0  0  0  0  0
  191.7110  171.6900  138.5160 O   0  0  0  0  0  0  0  0  0  0  0  0
  190.6000  171.5620  139.3550 C   0  0  2  0  0  3  0  0  0  0  0  0
  189.4580  171.3300  138.5860 O   0  0  0  0  0  1  0  0  0  0  0  0
  190.4220  172.7280  140.1060 O   0  0  0  0  0  0  0  0  0  0  0  0
  189.0320  172.9210  140.1580 C   0  0  1  0  0  3  0  0  0  0  0  0
  187.4180  173.0960  141.9060 O   0  0  0  0  0  0  0  0  0  0  0  0
  188.5370  172.6470  141.5410 C   0  0  0  0  0  0  0  0  0  0  0  0
  189.3160  171.9250  142.4360 O   0  0  0  0  0  1  0  0  0  0  0  0
  188.6790  174.3490  139.7540 C   0  0  0  0  0  2  0  0  0  0  0  0
  187.9690  174.3480  138.4120 C   0  0  0  0  0  1  0  0  0  0  0  0
  194.8970  175.9770  142.7440 C   0  0  0  0  0  2  0  0  0  0  0  0
  195.1310  174.9880  143.8880 C   0  0  1  0  0  3  0  0  0  0  0  0
  196.5640  174.9580  144.3970 C   0  0  0  0  0  1  0  0  0  0  0  0
  194.1420  175.1070  144.9640 N   0  0  0  0  0  2  0  0  0  0  0  0
  193.7270  176.3010  145.6560 C   0  0  0  0  0  0  0  0  0  0  0  0
  194.5970  177.2410  146.0080 C   0  0  0  0  0  2  0  0  0  0  0  0
  191.4610  176.9160  144.7910 C   0  0  0  0  0  0  0  0  0  0  0  0
  190.9310  177.7080  142.8580 N   0  0  0  0  0  0  0  0  0  0  0  0
  189.5280  176.3890  147.1110 C   0  0  0  0  0  2  0  0  0  0  0  0
  189.1400  176.6870  145.7370 N   0  0  0  0  0  2  0  0  0  0  0  0
  190.4680  175.2220  147.1620 C   0  0  0  0  0  3  0  0  0  0  0  0
  190.0850  177.0000  144.7090 C   0  0  0  0  0  0  0  0  0  0  0  0
  188.4120  178.3110  141.7890 O   0  0  0  0  0  0  0  0  0  0  0  0
  188.4930  177.7250  142.9060 C   0  0  0  0  0  0  0  0  0  0  0  0
  192.2760  176.5040  145.9920 C   0  0  1  0  0  3  0  0  0  0  0  0
  191.7080  175.2740  146.6540 C   0  0  0  0  0  3  0  0  0  0  0  0
  189.7860  177.4780  143.4870 N   0  0  0  0  0  0  0  0  0  0  0  0
  191.9630  177.3840  143.6260 N   0  0  0  0  0  0  0  0  0  0  0  0
  187.2350  177.2490  143.5640 C   0  0  0  0  0  2  0  0  0  0  0  0
  186.5080  178.4090  144.2380 C   0  0  0  0  0  3  0  0  0  0  0  0
  184.8010  178.9040  145.9880 C   0  0  0  0  0  1  0  0  0  0  0  0
  185.8690  177.9290  145.5340 C   0  0  0  0  0  2  0  0  0  0  0  0
  185.4290  178.9510  143.3160 C   0  0  0  0  0  2  0  0  0  0  0  0
  184.7830  177.8260  142.5350 C   0  0  0  0  0  1  0  0  0  0  0  0
  2 28  1  0  0  0  0
  3  2  1  0  0  0  0
  3  1  2  0  0  0  0
  4  6  2  0  0  0  0
  4  2  1  0  0  0  0
  5 14  1  1  0  0  0
  5  3  1  0  0  0  0
  7  8  1  1  0  0  0
  7  5  1  0  0  0  0
  7  4  1  0  0  0  0
 10  9  1  6  0  0  0
 10  8  1  0  0  0  0
 11 12  1  0  0  0  0
 12 13  1  6  0  0  0
 12 10  1  0  0  0  0
 15 16  1  6  0  0  0
 15 14  1  0  0  0  0
 17 16  1  0  0  0  0
 18 15  1  0  0  0  0
 18 19  1  0  0  0  0
 19 20  1  6  0  0  0
 19 21  1  0  0  0  0
 21 22  1  0  0  0  0
 22 26  1  1  0  0  0
 22 24  1  0  0  0  0
 24 23  2  0  0  0  0
 24 25  1  0  0  0  0
 27 26  1  0  0  0  0
 28 29  1  0  0  0  0
 29 30  1  1  0  0  0
 29 31  1  0  0  0  0
 31 32  1  0  0  0  0
 32 33  2  0  0  0  0
 34 42  1  0  0  0  0
 35 44  1  0  0  0  0
 35 45  2  0  0  0  0
 36 38  1  0  0  0  0
 37 36  1  0  0  0  0
 39 34  2  0  0  0  0
 39 37  1  0  0  0  0
 40 41  2  0  0  0  0
 41 44  1  0  0  0  0
 41 46  1  0  0  0  0
 42 32  1  6  0  0  0
 42 43  1  0  0  0  0
 43 38  2  0  0  0  0
 44 39  1  0  0  0  0
 45 34  1  0  0  0  0
 46 47  1  0  0  0  0
 47 49  1  0  0  0  0
 49 48  1  0  0  0  0
 50 47  1  0  0  0  0
 51 50  1  0  0  0  0
M  END
>  <MODEL>
3

>  <REMARK>
 VINA RESULT:      -5.9      3.598      8.264
  Name = 
  21 active torsions:
  status: ('A' for Active; 'I' for Inactive)
    1  A    between atoms: N_3  and  C_51
    2  A    between atoms: C_5  and  C_13
    3  A    between atoms: C_5  and  C_20
    4  A    between atoms: C_5  and  C_48
    5  A    between atoms: C_7  and  C_39
    6  A    between atoms: C_8  and  C_29
    7  A    between atoms: C_8  and  C_49
    8  A    between atoms: C_14  and  O_25
    9  A    between atoms: C_14  and  O_35
   10  A    between atoms: C_17  and  O_25
   11  A    between atoms: C_17  and  C_27
   12  A    between atoms: C_17  and  C_37
   13  A    between atoms: C_18  and  O_36
   14  A    between atoms: C_21  and  C_38
   15  A    between atoms: C_21  and  N_46
   16  A    between atoms: C_29  and  C_30
   17  A    between atoms: C_32  and  N_46
   18  A    between atoms: C_32  and  C_51
   19  A    between atoms: C_33  and  C_48
   20  A    between atoms: O_35  and  C_39
   21  A    between atoms: O_36  and  C_39
                            x       y       z     vdW  Elec       q    Type
                         _______ _______ _______ _____ _____    ______ ____

>  <TORSDO>
F 21

$$$$
=
 OpenBabel11062421233D

 51 53  0  0  1  0  0  0  0  0999 V2000
  194.3490  171.8160  142.9020 O   0  0  0  0  0  0  0  0  0  0  0  0
  195.3750  173.7920  142.1340 N   0  0  0  0  0  0  0  0  0  0  0  0
  194.4400  172.7320  142.0370 C   0  0  0  0  0  0  0  0  0  0  0  0
  195.0590  174.6900  141.0900 C   0  0  0  0  0  0  0  0  0  0  0  0
  193.5360  172.8560  140.8580 C   0  0  1  0  0  3  0  0  0  0  0  0
  195.5830  175.8310  140.9900 O   0  0  0  0  0  0  0  0  0  0  0  0
  193.9850  174.1810  140.1830 C   0  0  2  0  0  3  0  0  0  0  0  0
  194.5320  173.9910  138.7640 C   0  0  0  0  0  2  0  0  0  0  0  0
  195.2070  175.4240  137.0020 F   0  0  0  0  0  0  0  0  0  0  0  0
  194.1810  175.1910  137.9000 C   0  0  1  0  0  3  0  0  0  0  0  0
  192.8880  173.6830  136.5680 F   0  0  0  0  0  0  0  0  0  0  0  0
  192.8770  174.9410  137.1500 C   0  0  2  0  0  3  0  0  0  0  0  0
  192.6790  175.9950  136.0800 C   0  0  0  0  0  1  0  0  0  0  0  0
  193.6790  171.7300  140.0260 O   0  0  0  0  0  0  0  0  0  0  0  0
  192.3780  171.2470  139.8130 C   0  0  1  0  0  3  0  0  0  0  0  0
  192.4640  169.8530  139.2160 C   0  0  0  0  0  2  0  0  0  0  0  0
  193.7960  169.5520  138.9090 O   0  0  0  0  0  1  0  0  0  0  0  0
  191.6730  171.1900  141.0260 O   0  0  0  0  0  0  0  0  0  0  0  0
  190.3570  171.5370  140.7060 C   0  0  2  0  0  3  0  0  0  0  0  0
  190.3460  172.7630  140.0370 O   0  0  0  0  0  1  0  0  0  0  0  0
  189.5850  171.6380  141.8670 O   0  0  0  0  0  0  0  0  0  0  0  0
  189.4500  173.0160  142.0980 C   0  0  1  0  0  3  0  0  0  0  0  0
  187.1170  172.5550  141.8960 O   0  0  0  0  0  1  0  0  0  0  0  0
  188.0300  173.4250  141.8800 C   0  0  0  0  0  0  0  0  0  0  0  0
  187.7110  174.7540  141.6320 O   0  0  0  0  0  0  0  0  0  0  0  0
  189.8770  173.3610  143.5210 C   0  0  0  0  0  2  0  0  0  0  0  0
  191.3490  173.7300  143.5450 C   0  0  0  0  0  1  0  0  0  0  0  0
  196.1720  174.1260  143.3090 C   0  0  0  0  0  2  0  0  0  0  0  0
  195.3030  174.4590  144.5240 C   0  0  1  0  0  3  0  0  0  0  0  0
  196.0550  174.4510  145.8450 C   0  0  0  0  0  1  0  0  0  0  0  0
  194.4870  175.6620  144.3350 N   0  0  0  0  0  2  0  0  0  0  0  0
  194.1520  176.6670  145.3120 C   0  0  0  0  0  0  0  0  0  0  0  0
  195.0260  177.5940  145.6870 C   0  0  0  0  0  2  0  0  0  0  0  0
  191.7040  177.0120  144.9290 C   0  0  0  0  0  0  0  0  0  0  0  0
  190.7130  177.7700  143.1720 N   0  0  0  0  0  0  0  0  0  0  0  0
  190.3410  176.2010  147.5530 C   0  0  0  0  0  2  0  0  0  0  0  0
  189.6580  176.4760  146.2940 N   0  0  0  0  0  2  0  0  0  0  0  0
  191.4050  175.1590  147.3700 C   0  0  0  0  0  3  0  0  0  0  0  0
  190.3380  176.9250  145.1180 C   0  0  0  0  0  0  0  0  0  0  0  0
  187.9800  178.0770  142.6370 O   0  0  0  0  0  0  0  0  0  0  0  0
  188.3480  177.4830  143.6900 C   0  0  0  0  0  0  0  0  0  0  0  0
  192.7820  176.6800  145.9310 C   0  0  1  0  0  3  0  0  0  0  0  0
  192.5050  175.3760  146.6350 C   0  0  0  0  0  3  0  0  0  0  0  0
  189.7500  177.3870  144.0000 N   0  0  0  0  0  0  0  0  0  0  0  0
  191.9080  177.5620  143.7120 N   0  0  0  0  0  0  0  0  0  0  0  0
  187.3090  176.8400  144.5560 C   0  0  0  0  0  2  0  0  0  0  0  0
  186.5120  177.8980  145.3140 C   0  0  0  0  0  3  0  0  0  0  0  0
  186.6330  178.3050  147.7720 C   0  0  0  0  0  1  0  0  0  0  0  0
  186.1350  177.3670  146.6900 C   0  0  0  0  0  2  0  0  0  0  0  0
  185.2470  178.2430  144.5450 C   0  0  0  0  0  2  0  0  0  0  0  0
  185.2170  179.7210  144.2120 C   0  0  0  0  0  1  0  0  0  0  0  0
  2 28  1  0  0  0  0
  3  2  1  0  0  0  0
  3  1  2  0  0  0  0
  4  2  1  0  0  0  0
  5 14  1  6  0  0  0
  5  3  1  0  0  0  0
  6  4  2  0  0  0  0
  7  8  1  6  0  0  0
  7  5  1  0  0  0  0
  7  4  1  0  0  0  0
 10  9  1  6  0  0  0
 10  8  1  0  0  0  0
 11 12  1  0  0  0  0
 12 13  1  6  0  0  0
 12 10  1  0  0  0  0
 15 16  1  1  0  0  0
 15 14  1  0  0  0  0
 15 18  1  0  0  0  0
 17 16  1  0  0  0  0
 19 20  1  1  0  0  0
 19 18  1  0  0  0  0
 19 21  1  0  0  0  0
 21 22  1  0  0  0  0
 22 26  1  1  0  0  0
 24 23  1  0  0  0  0
 24 22  1  0  0  0  0
 25 24  2  0  0  0  0
 26 27  1  0  0  0  0
 28 29  1  0  0  0  0
 29 30  1  1  0  0  0
 31 29  1  0  0  0  0
 31 32  1  0  0  0  0
 32 33  2  0  0  0  0
 34 39  2  0  0  0  0
 34 42  1  0  0  0  0
 35 45  2  0  0  0  0
 35 44  1  0  0  0  0
 37 36  1  0  0  0  0
 38 36  1  0  0  0  0
 39 37  1  0  0  0  0
 40 41  2  0  0  0  0
 41 44  1  0  0  0  0
 41 46  1  0  0  0  0
 42 32  1  6  0  0  0
 42 43  1  0  0  0  0
 43 38  2  0  0  0  0
 44 39  1  0  0  0  0
 45 34  1  0  0  0  0
 46 47  1  0  0  0  0
 47 49  1  0  0  0  0
 49 48  1  0  0  0  0
 50 47  1  0  0  0  0
 51 50  1  0  0  0  0
M  END
>  <MODEL>
4

>  <REMARK>
 VINA RESULT:      -5.8      3.260      7.931
  Name = 
  21 active torsions:
  status: ('A' for Active; 'I' for Inactive)
    1  A    between atoms: N_3  and  C_51
    2  A    between atoms: C_5  and  C_13
    3  A    between atoms: C_5  and  C_20
    4  A    between atoms: C_5  and  C_48
    5  A    between atoms: C_7  and  C_39
    6  A    between atoms: C_8  and  C_29
    7  A    between atoms: C_8  and  C_49
    8  A    between atoms: C_14  and  O_25
    9  A    between atoms: C_14  and  O_35
   10  A    between atoms: C_17  and  O_25
   11  A    between atoms: C_17  and  C_27
   12  A    between atoms: C_17  and  C_37
   13  A    between atoms: C_18  and  O_36
   14  A    between atoms: C_21  and  C_38
   15  A    between atoms: C_21  and  N_46
   16  A    between atoms: C_29  and  C_30
   17  A    between atoms: C_32  and  N_46
   18  A    between atoms: C_32  and  C_51
   19  A    between atoms: C_33  and  C_48
   20  A    between atoms: O_35  and  C_39
   21  A    between atoms: O_36  and  C_39
                            x       y       z     vdW  Elec       q    Type
                         _______ _______ _______ _____ _____    ______ ____

>  <TORSDO>
F 21

$$$$
=
 OpenBabel11062421233D

 51 53  0  0  1  0  0  0  0  0999 V2000
  192.3800  174.6210  140.9270 O   0  0  0  0  0  0  0  0  0  0  0  0
  194.6700  175.0980  140.6530 N   0  0  0  0  0  0  0  0  0  0  0  0
  193.4280  174.5680  140.2250 C   0  0  0  0  0  0  0  0  0  0  0  0
  195.5400  175.0020  139.5450 C   0  0  0  0  0  0  0  0  0  0  0  0
  193.4750  174.0150  138.8410 C   0  0  1  0  0  3  0  0  0  0  0  0
  196.6780  175.5430  139.5230 O   0  0  0  0  0  0  0  0  0  0  0  0
  194.9370  174.2760  138.3850 C   0  0  2  0  0  3  0  0  0  0  0  0
  195.7250  172.9960  138.0900 C   0  0  0  0  0  2  0  0  0  0  0  0
  196.9860  173.5320  136.1560 F   0  0  0  0  0  0  0  0  0  0  0  0
  195.8860  172.8130  136.5890 C   0  0  1  0  0  3  0  0  0  0  0  0
  196.9700  170.7480  137.1180 F   0  0  0  0  0  0  0  0  0  0  0  0
  196.0620  171.3360  136.2520 C   0  0  2  0  0  3  0  0  0  0  0  0
  196.5460  171.1790  134.8250 C   0  0  0  0  0  1  0  0  0  0  0  0
  193.1340  172.6490  138.8600 O   0  0  0  0  0  0  0  0  0  0  0  0
  191.9010  172.5570  138.1930 C   0  0  1  0  0  3  0  0  0  0  0  0
  192.1590  172.4350  136.7010 C   0  0  0  0  0  2  0  0  0  0  0  0
  191.1130  171.7290  136.0960 O   0  0  0  0  0  1  0  0  0  0  0  0
  191.1890  171.4320  138.6350 O   0  0  0  0  0  0  0  0  0  0  0  0
  190.8200  171.7210  139.9520 C   0  0  2  0  0  3  0  0  0  0  0  0
  191.1080  170.6260  140.7690 O   0  0  0  0  0  1  0  0  0  0  0  0
  189.4520  172.0020  140.0220 O   0  0  0  0  0  0  0  0  0  0  0  0
  189.3530  173.1260  140.8580 C   0  0  1  0  0  3  0  0  0  0  0  0
  188.2350  175.2320  140.7920 O   0  0  0  0  0  1  0  0  0  0  0  0
  188.6120  174.2140  140.1520 C   0  0  0  0  0  0  0  0  0  0  0  0
  188.3100  174.0980  138.8020 O   0  0  0  0  0  0  0  0  0  0  0  0
  188.6320  172.7630  142.1530 C   0  0  0  0  0  2  0  0  0  0  0  0
  189.4980  173.1240  143.3470 C   0  0  0  0  0  1  0  0  0  0  0  0
  194.8760  175.9710  141.8040 C   0  0  0  0  0  2  0  0  0  0  0  0
  195.1210  175.1850  143.0930 C   0  0  1  0  0  3  0  0  0  0  0  0
  196.5820  174.8440  143.3430 C   0  0  0  0  0  1  0  0  0  0  0  0
  194.4610  175.7760  144.2620 N   0  0  0  0  0  2  0  0  0  0  0  0
  193.5150  175.1520  145.1520 C   0  0  0  0  0  0  0  0  0  0  0  0
  193.5460  173.8480  145.4020 C   0  0  0  0  0  2  0  0  0  0  0  0
  191.3440  176.3670  144.8880 C   0  0  0  0  0  0  0  0  0  0  0  0
  190.2510  176.7870  143.0780 N   0  0  0  0  0  0  0  0  0  0  0  0
  190.5470  177.2470  147.7150 C   0  0  0  0  0  2  0  0  0  0  0  0
  189.6930  177.3150  146.5340 N   0  0  0  0  0  2  0  0  0  0  0  0
  191.0780  175.8590  147.9130 C   0  0  0  0  0  3  0  0  0  0  0  0
  190.1420  176.9610  145.2230 C   0  0  0  0  0  0  0  0  0  0  0  0
  187.7710  178.0400  142.7220 O   0  0  0  0  0  0  0  0  0  0  0  0
  188.1740  177.7720  143.8890 C   0  0  0  0  0  0  0  0  0  0  0  0
  192.4620  175.9860  145.8260 C   0  0  1  0  0  3  0  0  0  0  0  0
  191.9410  175.2890  147.0580 C   0  0  0  0  0  3  0  0  0  0  0  0
  189.4770  177.1930  144.0760 N   0  0  0  0  0  0  0  0  0  0  0  0
  191.3920  176.2890  143.5390 N   0  0  0  0  0  0  0  0  0  0  0  0
  187.2510  178.0120  145.0440 C   0  0  0  0  0  2  0  0  0  0  0  0
  185.9510  177.2330  144.8640 C   0  0  0  0  0  3  0  0  0  0  0  0
  184.2510  179.0260  145.2090 C   0  0  0  0  0  1  0  0  0  0  0  0
  184.9120  178.1200  144.1900 C   0  0  0  0  0  2  0  0  0  0  0  0
  185.4250  176.7800  146.2150 C   0  0  0  0  0  2  0  0  0  0  0  0
  186.5720  176.5170  147.1700 C   0  0  0  0  0  1  0  0  0  0  0  0
  2 28  1  0  0  0  0
  3  2  1  0  0  0  0
  3  1  2  0  0  0  0
  4  2  1  0  0  0  0
  5 14  1  1  0  0  0
  5  3  1  0  0  0  0
  6  4  2  0  0  0  0
  7  8  1  1  0  0  0
  7  5  1  0  0  0  0
  7  4  1  0  0  0  0
 10  9  1  1  0  0  0
 10  8  1  0  0  0  0
 12 13  1  6  0  0  0
 12 10  1  0  0  0  0
 12 11  1  0  0  0  0
 15 16  1  6  0  0  0
 15 18  1  0  0  0  0
 15 14  1  0  0  0  0
 17 16  1  0  0  0  0
 18 19  1  0  0  0  0
 19 21  1  0  0  0  0
 19 20  1  1  0  0  0
 21 22  1  0  0  0  0
 22 26  1  1  0  0  0
 24 23  1  0  0  0  0
 24 22  1  0  0  0  0
 25 24  2  0  0  0  0
 26 27  1  0  0  0  0
 28 29  1  0  0  0  0
 29 30  1  1  0  0  0
 29 31  1  0  0  0  0
 31 32  1  0  0  0  0
 32 33  2  0  0  0  0
 34 39  2  0  0  0  0
 34 42  1  0  0  0  0
 35 45  2  0  0  0  0
 35 44  1  0  0  0  0
 36 38  1  0  0  0  0
 37 36  1  0  0  0  0
 39 37  1  0  0  0  0
 40 41  2  0  0  0  0
 41 44  1  0  0  0  0
 41 46  1  0  0  0  0
 42 32  1  6  0  0  0
 42 43  1  0  0  0  0
 43 38  2  0  0  0  0
 44 39  1  0  0  0  0
 45 34  1  0  0  0  0
 47 46  1  0  0  0  0
 47 50  1  0  0  0  0
 49 47  1  0  0  0  0
 49 48  1  0  0  0  0
 50 51  1  0  0  0  0
M  END
>  <MODEL>
5

>  <REMARK>
 VINA RESULT:      -5.8      3.768      8.711
  Name = 
  21 active torsions:
  status: ('A' for Active; 'I' for Inactive)
    1  A    between atoms: N_3  and  C_51
    2  A    between atoms: C_5  and  C_13
    3  A    between atoms: C_5  and  C_20
    4  A    between atoms: C_5  and  C_48
    5  A    between atoms: C_7  and  C_39
    6  A    between atoms: C_8  and  C_29
    7  A    between atoms: C_8  and  C_49
    8  A    between atoms: C_14  and  O_25
    9  A    between atoms: C_14  and  O_35
   10  A    between atoms: C_17  and  O_25
   11  A    between atoms: C_17  and  C_27
   12  A    between atoms: C_17  and  C_37
   13  A    between atoms: C_18  and  O_36
   14  A    between atoms: C_21  and  C_38
   15  A    between atoms: C_21  and  N_46
   16  A    between atoms: C_29  and  C_30
   17  A    between atoms: C_32  and  N_46
   18  A    between atoms: C_32  and  C_51
   19  A    between atoms: C_33  and  C_48
   20  A    between atoms: O_35  and  C_39
   21  A    between atoms: O_36  and  C_39
                            x       y       z     vdW  Elec       q    Type
                         _______ _______ _______ _____ _____    ______ ____

>  <TORSDO>
F 21

$$$$
=
 OpenBabel11062421233D

 51 53  0  0  1  0  0  0  0  0999 V2000
  191.5970  174.7160  143.2790 O   0  0  0  0  0  0  0  0  0  0  0  0
  191.4140  175.1200  145.5920 N   0  0  0  0  0  0  0  0  0  0  0  0
  190.9120  175.0990  144.2680 C   0  0  0  0  0  0  0  0  0  0  0  0
  190.3170  175.4380  146.4230 C   0  0  0  0  0  0  0  0  0  0  0  0
  189.4790  175.5030  144.1800 C   0  0  1  0  0  3  0  0  0  0  0  0
  190.3710  175.3690  147.6790 O   0  0  0  0  0  0  0  0  0  0  0  0
  189.0780  175.7750  145.6560 C   0  0  2  0  0  3  0  0  0  0  0  0
  188.6650  177.2260  145.9210 C   0  0  0  0  0  2  0  0  0  0  0  0
  186.6860  176.1020  146.5830 F   0  0  0  0  0  0  0  0  0  0  0  0
  187.1600  177.3160  146.1190 C   0  0  1  0  0  3  0  0  0  0  0  0
  187.8370  178.5600  148.0460 F   0  0  0  0  0  0  0  0  0  0  0  0
  186.8220  178.4230  147.1120 C   0  0  2  0  0  3  0  0  0  0  0  0
  185.5190  178.1120  147.8190 C   0  0  0  0  0  1  0  0  0  0  0  0
  189.3500  176.6330  143.3510 O   0  0  0  0  0  0  0  0  0  0  0  0
  188.3570  176.3050  142.4140 C   0  0  1  0  0  3  0  0  0  0  0  0
  188.1850  174.7950  142.3910 C   0  0  0  0  0  2  0  0  0  0  0  0
  188.0710  174.3520  141.0680 O   0  0  0  0  0  1  0  0  0  0  0  0
  187.1390  176.9060  142.7620 O   0  0  0  0  0  0  0  0  0  0  0  0
  186.6500  177.4650  141.5770 C   0  0  2  0  0  3  0  0  0  0  0  0
  187.7190  177.8190  140.7520 O   0  0  0  0  0  1  0  0  0  0  0  0
  185.8850  178.6020  141.8560 O   0  0  0  0  0  0  0  0  0  0  0  0
  184.8490  178.1500  142.6890 C   0  0  1  0  0  3  0  0  0  0  0  0
  183.9350  178.7410  144.8120 O   0  0  0  0  0  1  0  0  0  0  0  0
  184.7810  179.0010  143.9150 C   0  0  0  0  0  0  0  0  0  0  0  0
  185.6250  180.0940  144.0590 O   0  0  0  0  0  0  0  0  0  0  0  0
  183.5150  178.1960  141.9510 C   0  0  0  0  0  2  0  0  0  0  0  0
  183.7530  178.2550  140.4530 C   0  0  0  0  0  1  0  0  0  0  0  0
  192.6530  174.4960  146.0470 C   0  0  0  0  0  2  0  0  0  0  0  0
  193.8790  175.3650  145.7610 C   0  0  1  0  0  3  0  0  0  0  0  0
  193.7460  176.8020  146.2390 C   0  0  0  0  0  1  0  0  0  0  0  0
  195.1380  174.7370  146.1730 N   0  0  0  0  0  2  0  0  0  0  0  0
  196.1260  174.1020  145.3370 C   0  0  0  0  0  0  0  0  0  0  0  0
  197.3210  173.7610  145.8040 C   0  0  0  0  0  2  0  0  0  0  0  0
  194.8520  172.6500  143.7450 C   0  0  0  0  0  0  0  0  0  0  0  0
  193.7450  170.8490  144.1620 N   0  0  0  0  0  0  0  0  0  0  0  0
  195.2480  173.9190  140.9820 C   0  0  0  0  0  2  0  0  0  0  0  0
  194.3050  172.8520  141.2970 N   0  0  0  0  0  2  0  0  0  0  0  0
  195.0460  175.0980  141.8870 C   0  0  0  0  0  3  0  0  0  0  0  0
  194.2140  172.2440  142.5890 C   0  0  0  0  0  0  0  0  0  0  0  0
  192.2100  169.2430  142.4550 O   0  0  0  0  0  0  0  0  0  0  0  0
  192.6730  170.3410  142.0320 C   0  0  0  0  0  0  0  0  0  0  0  0
  195.8070  173.8080  143.8970 C   0  0  1  0  0  3  0  0  0  0  0  0
  195.2960  175.0460  143.2040 C   0  0  0  0  0  3  0  0  0  0  0  0
  193.5190  171.1310  142.8860 N   0  0  0  0  0  0  0  0  0  0  0  0
  194.5550  171.7480  144.7070 N   0  0  0  0  0  0  0  0  0  0  0  0
  192.2740  170.8150  140.6690 C   0  0  0  0  0  2  0  0  0  0  0  0
  190.8090  170.4880  140.3940 C   0  0  0  0  0  3  0  0  0  0  0  0
  191.9880  169.4700  138.4450 C   0  0  0  0  0  1  0  0  0  0  0  0
  190.7140  169.4690  139.2660 C   0  0  0  0  0  2  0  0  0  0  0  0
  190.0620  171.7500  139.9950 C   0  0  0  0  0  2  0  0  0  0  0  0
  191.0140  172.9260  139.9130 C   0  0  0  0  0  1  0  0  0  0  0  0
  1  3  2  0  0  0  0
  2 28  1  0  0  0  0
  2  4  1  0  0  0  0
  3  2  1  0  0  0  0
  4  6  2  0  0  0  0
  5 14  1  6  0  0  0
  5  3  1  0  0  0  0
  5  7  1  0  0  0  0
  7  8  1  6  0  0  0
  7  4  1  0  0  0  0
  8 10  1  0  0  0  0
 10  9  1  1  0  0  0
 10 12  1  0  0  0  0
 12 13  1  1  0  0  0
 12 11  1  0  0  0  0
 15 16  1  1  0  0  0
 15 18  1  0  0  0  0
 15 14  1  0  0  0  0
 17 16  1  0  0  0  0
 19 20  1  6  0  0  0
 19 21  1  0  0  0  0
 19 18  1  0  0  0  0
 21 22  1  0  0  0  0
 22 26  1  6  0  0  0
 22 24  1  0  0  0  0
 24 25  2  0  0  0  0
 24 23  1  0  0  0  0
 27 26  1  0  0  0  0
 29 28  1  0  0  0  0
 29 31  1  0  0  0  0
 29 30  1  1  0  0  0
 32 33  2  0  0  0  0
 32 31  1  0  0  0  0
 34 42  1  0  0  0  0
 34 45  1  0  0  0  0
 35 45  2  0  0  0  0
 36 37  1  0  0  0  0
 36 38  1  0  0  0  0
 37 39  1  0  0  0  0
 38 43  2  0  0  0  0
 39 44  1  0  0  0  0
 39 34  2  0  0  0  0
 41 40  2  0  0  0  0
 41 44  1  0  0  0  0
 42 32  1  1  0  0  0
 43 42  1  0  0  0  0
 44 35  1  0  0  0  0
 46 41  1  0  0  0  0
 47 46  1  0  0  0  0
 48 49  1  0  0  0  0
 49 47  1  0  0  0  0
 50 47  1  0  0  0  0
 51 50  1  0  0  0  0
M  END
>  <MODEL>
6

>  <REMARK>
 VINA RESULT:      -5.8      1.711      2.726
  Name = 
  21 active torsions:
  status: ('A' for Active; 'I' for Inactive)
    1  A    between atoms: N_3  and  C_51
    2  A    between atoms: C_5  and  C_13
    3  A    between atoms: C_5  and  C_20
    4  A    between atoms: C_5  and  C_48
    5  A    between atoms: C_7  and  C_39
    6  A    between atoms: C_8  and  C_29
    7  A    between atoms: C_8  and  C_49
    8  A    between atoms: C_14  and  O_25
    9  A    between atoms: C_14  and  O_35
   10  A    between atoms: C_17  and  O_25
   11  A    between atoms: C_17  and  C_27
   12  A    between atoms: C_17  and  C_37
   13  A    between atoms: C_18  and  O_36
   14  A    between atoms: C_21  and  C_38
   15  A    between atoms: C_21  and  N_46
   16  A    between atoms: C_29  and  C_30
   17  A    between atoms: C_32  and  N_46
   18  A    between atoms: C_32  and  C_51
   19  A    between atoms: C_33  and  C_48
   20  A    between atoms: O_35  and  C_39
   21  A    between atoms: O_36  and  C_39
                            x       y       z     vdW  Elec       q    Type
                         _______ _______ _______ _____ _____    ______ ____

>  <TORSDO>
F 21

$$$$
=
 OpenBabel11062421233D

 51 53  0  0  1  0  0  0  0  0999 V2000
  195.1910  172.4940  141.6870 O   0  0  0  0  0  0  0  0  0  0  0  0
  193.4350  171.6170  140.3870 N   0  0  0  0  0  0  0  0  0  0  0  0
  194.4810  172.5360  140.6440 C   0  0  0  0  0  0  0  0  0  0  0  0
  192.9980  171.8770  139.0690 C   0  0  0  0  0  0  0  0  0  0  0  0
  194.6990  173.5010  139.5270 C   0  0  1  0  0  3  0  0  0  0  0  0
  192.1940  171.1260  138.4560 O   0  0  0  0  0  0  0  0  0  0  0  0
  193.6540  173.0750  138.4590 C   0  0  2  0  0  3  0  0  0  0  0  0
  192.6130  174.1560  138.1560 C   0  0  0  0  0  2  0  0  0  0  0  0
  191.0530  174.4890  136.4040 F   0  0  0  0  0  0  0  0  0  0  0  0
  192.3950  174.2720  136.6560 C   0  0  1  0  0  3  0  0  0  0  0  0
  194.0320  175.9650  137.0720 F   0  0  0  0  0  0  0  0  0  0  0  0
  193.2260  175.4170  136.0870 C   0  0  2  0  0  3  0  0  0  0  0  0
  192.3190  176.4890  135.5180 C   0  0  0  0  0  1  0  0  0  0  0  0
  194.5170  174.8170  139.9910 O   0  0  0  0  0  0  0  0  0  0  0  0
  195.8030  175.2940  140.2920 C   0  0  1  0  0  3  0  0  0  0  0  0
  196.6030  175.3930  139.0040 C   0  0  0  0  0  2  0  0  0  0  0  0
  197.9280  175.7370  139.2950 O   0  0  0  0  0  1  0  0  0  0  0  0
  195.7270  176.5610  140.8890 O   0  0  0  0  0  0  0  0  0  0  0  0
  196.2860  176.4040  142.1610 C   0  0  2  0  0  3  0  0  0  0  0  0
  196.6260  175.0650  142.3610 O   0  0  0  0  0  1  0  0  0  0  0  0
  195.3750  176.8020  143.1450 O   0  0  0  0  0  0  0  0  0  0  0  0
  195.0200  175.6200  143.8130 C   0  0  1  0  0  3  0  0  0  0  0  0
  195.2840  174.8480  146.0550 O   0  0  0  0  0  1  0  0  0  0  0  0
  195.1030  175.8320  145.2900 C   0  0  0  0  0  0  0  0  0  0  0  0
  194.9530  177.1040  145.8260 O   0  0  0  0  0  0  0  0  0  0  0  0
  193.6050  175.1960  143.4290 C   0  0  0  0  0  2  0  0  0  0  0  0
  192.6960  176.4100  143.3760 C   0  0  0  0  0  1  0  0  0  0  0  0
  193.1820  170.3810  141.1210 C   0  0  0  0  0  2  0  0  0  0  0  0
  192.3500  170.6150  142.3840 C   0  0  1  0  0  3  0  0  0  0  0  0
  193.0640  170.2410  143.6730 C   0  0  0  0  0  1  0  0  0  0  0  0
  191.7390  171.9470  142.4310 N   0  0  0  0  0  2  0  0  0  0  0  0
  190.4330  172.3030  142.9260 C   0  0  0  0  0  0  0  0  0  0  0  0
  189.3740  171.5290  142.7200 C   0  0  0  0  0  2  0  0  0  0  0  0
  189.2790  174.5210  143.0310 C   0  0  0  0  0  0  0  0  0  0  0  0
  188.0810  175.4850  141.5210 N   0  0  0  0  0  0  0  0  0  0  0  0
  189.9860  175.6830  145.7790 C   0  0  0  0  0  2  0  0  0  0  0  0
  188.9840  176.2200  144.8640 N   0  0  0  0  0  2  0  0  0  0  0  0
  189.7310  174.2330  146.0620 C   0  0  0  0  0  3  0  0  0  0  0  0
  188.7470  175.6810  143.5600 C   0  0  0  0  0  0  0  0  0  0  0  0
  186.6750  177.9060  141.6120 O   0  0  0  0  0  0  0  0  0  0  0  0
  187.2110  177.4550  142.6640 C   0  0  0  0  0  0  0  0  0  0  0  0
  190.2500  173.5790  143.6990 C   0  0  1  0  0  3  0  0  0  0  0  0
  189.8480  173.2840  145.1220 C   0  0  0  0  0  3  0  0  0  0  0  0
  187.9920  176.2480  142.6020 N   0  0  0  0  0  0  0  0  0  0  0  0
  188.8610  174.4350  141.7490 N   0  0  0  0  0  0  0  0  0  0  0  0
  186.9640  178.1620  143.9600 C   0  0  0  0  0  2  0  0  0  0  0  0
  185.6550  177.6930  144.5880 C   0  0  0  0  0  3  0  0  0  0  0  0
  185.2860  180.1350  144.2350 C   0  0  0  0  0  1  0  0  0  0  0  0
  184.6150  178.8010  144.4930 C   0  0  0  0  0  2  0  0  0  0  0  0
  185.8770  177.3350  146.0470 C   0  0  0  0  0  2  0  0  0  0  0  0
  184.6260  177.6090  146.8570 C   0  0  0  0  0  1  0  0  0  0  0  0
  2  3  1  0  0  0  0
  2 28  1  0  0  0  0
  3  1  2  0  0  0  0
  4  2  1  0  0  0  0
  5 14  1  1  0  0  0
  5  3  1  0  0  0  0
  6  4  2  0  0  0  0
  7  8  1  1  0  0  0
  7  4  1  0  0  0  0
  7  5  1  0  0  0  0
 10  9  1  1  0  0  0
 10  8  1  0  0  0  0
 12 13  1  1  0  0  0
 12 10  1  0  0  0  0
 12 11  1  0  0  0  0
 14 15  1  0  0  0  0
 15 16  1  6  0  0  0
 15 18  1  0  0  0  0
 16 17  1  0  0  0  0
 18 19  1  0  0  0  0
 19 20  1  1  0  0  0
 19 21  1  0  0  0  0
 21 22  1  0  0  0  0
 22 26  1  1  0  0  0
 22 24  1  0  0  0  0
 24 25  2  0  0  0  0
 24 23  1  0  0  0  0
 27 26  1  0  0  0  0
 28 29  1  0  0  0  0
 29 31  1  0  0  0  0
 29 30  1  1  0  0  0
 31 32  1  0  0  0  0
 33 32  2  0  0  0  0
 34 39  2  0  0  0  0
 34 42  1  0  0  0  0
 35 45  2  0  0  0  0
 35 44  1  0  0  0  0
 36 38  1  0  0  0  0
 37 36  1  0  0  0  0
 39 37  1  0  0  0  0
 40 41  2  0  0  0  0
 41 46  1  0  0  0  0
 42 32  1  6  0  0  0
 42 43  1  0  0  0  0
 43 38  2  0  0  0  0
 44 41  1  0  0  0  0
 44 39  1  0  0  0  0
 45 34  1  0  0  0  0
 46 47  1  0  0  0  0
 47 50  1  0  0  0  0
 48 49  1  0  0  0  0
 49 47  1  0  0  0  0
 50 51  1  0  0  0  0
M  END
>  <MODEL>
7

>  <REMARK>
 VINA RESULT:      -5.5      3.375      9.258
  Name = 
  21 active torsions:
  status: ('A' for Active; 'I' for Inactive)
    1  A    between atoms: N_3  and  C_51
    2  A    between atoms: C_5  and  C_13
    3  A    between atoms: C_5  and  C_20
    4  A    between atoms: C_5  and  C_48
    5  A    between atoms: C_7  and  C_39
    6  A    between atoms: C_8  and  C_29
    7  A    between atoms: C_8  and  C_49
    8  A    between atoms: C_14  and  O_25
    9  A    between atoms: C_14  and  O_35
   10  A    between atoms: C_17  and  O_25
   11  A    between atoms: C_17  and  C_27
   12  A    between atoms: C_17  and  C_37
   13  A    between atoms: C_18  and  O_36
   14  A    between atoms: C_21  and  C_38
   15  A    between atoms: C_21  and  N_46
   16  A    between atoms: C_29  and  C_30
   17  A    between atoms: C_32  and  N_46
   18  A    between atoms: C_32  and  C_51
   19  A    between atoms: C_33  and  C_48
   20  A    between atoms: O_35  and  C_39
   21  A    between atoms: O_36  and  C_39
                            x       y       z     vdW  Elec       q    Type
                         _______ _______ _______ _____ _____    ______ ____

>  <TORSDO>
F 21

$$$$
=
 OpenBabel11062421233D

 51 53  0  0  1  0  0  0  0  0999 V2000
  192.8660  170.6080  144.6400 O   0  0  0  0  0  0  0  0  0  0  0  0
  193.2950  170.2950  142.3460 N   0  0  0  0  0  0  0  0  0  0  0  0
  193.6890  170.5290  143.6860 C   0  0  0  0  0  0  0  0  0  0  0  0
  194.4890  170.1040  141.6140 C   0  0  0  0  0  0  0  0  0  0  0  0
  195.1700  170.5950  143.8580 C   0  0  1  0  0  3  0  0  0  0  0  0
  194.4990  169.7010  140.4210 O   0  0  0  0  0  0  0  0  0  0  0  0
  195.7210  170.3420  142.4280 C   0  0  2  0  0  3  0  0  0  0  0  0
  196.5140  171.5230  141.8590 C   0  0  0  0  0  2  0  0  0  0  0  0
  195.2180  173.5030  141.9780 F   0  0  0  0  0  0  0  0  0  0  0  0
  195.5840  172.4770  141.1260 C   0  0  1  0  0  3  0  0  0  0  0  0
  195.3530  173.6650  139.0640 F   0  0  0  0  0  0  0  0  0  0  0  0
  196.2750  173.0440  139.8910 C   0  0  2  0  0  3  0  0  0  0  0  0
  196.9770  171.9380  139.1290 C   0  0  0  0  0  1  0  0  0  0  0  0
  195.5340  171.8490  144.3820 O   0  0  0  0  0  0  0  0  0  0  0  0
  196.0030  171.5960  145.6810 C   0  0  1  0  0  3  0  0  0  0  0  0
  196.7870  170.2940  145.6740 C   0  0  0  0  0  2  0  0  0  0  0  0
  196.7370  169.7050  146.9420 O   0  0  0  0  0  1  0  0  0  0  0  0
  196.8370  172.6380  146.1120 O   0  0  0  0  0  0  0  0  0  0  0  0
  196.5930  173.6960  145.2310 C   0  0  2  0  0  3  0  0  0  0  0  0
  197.8060  174.2170  144.7780 O   0  0  0  0  0  1  0  0  0  0  0  0
  195.8670  174.7040  145.8720 O   0  0  0  0  0  0  0  0  0  0  0  0
  195.1790  175.3690  144.8440 C   0  0  1  0  0  3  0  0  0  0  0  0
  192.9550  175.4160  143.9810 O   0  0  0  0  0  0  0  0  0  0  0  0
  193.7590  174.9070  144.8080 C   0  0  0  0  0  0  0  0  0  0  0  0
  193.3120  173.9400  145.6980 O   0  0  0  0  0  1  0  0  0  0  0  0
  195.2280  176.8780  145.0610 C   0  0  0  0  0  2  0  0  0  0  0  0
  194.5650  177.2340  146.3790 C   0  0  0  0  0  1  0  0  0  0  0  0
  191.9690  169.8760  141.9040 C   0  0  0  0  0  2  0  0  0  0  0  0
  191.4530  170.7210  140.7380 C   0  0  1  0  0  3  0  0  0  0  0  0
  190.8030  169.9110  139.6270 C   0  0  0  0  0  1  0  0  0  0  0  0
  190.6380  171.8610  141.1690 N   0  0  0  0  0  2  0  0  0  0  0  0
  191.0740  173.2070  141.4420 C   0  0  0  0  0  0  0  0  0  0  0  0
  191.9360  173.8350  140.6500 C   0  0  0  0  0  2  0  0  0  0  0  0
  189.2980  174.7240  142.3410 C   0  0  0  0  0  0  0  0  0  0  0  0
  187.7840  175.8090  141.2580 N   0  0  0  0  0  0  0  0  0  0  0  0
  189.7550  174.8130  145.3720 C   0  0  0  0  0  2  0  0  0  0  0  0
  188.5890  175.3460  144.6740 N   0  0  0  0  0  2  0  0  0  0  0  0
  189.9760  173.3720  145.0230 C   0  0  0  0  0  3  0  0  0  0  0  0
  188.4630  175.3440  143.2490 C   0  0  0  0  0  0  0  0  0  0  0  0
  185.7050  177.4290  142.2060 O   0  0  0  0  0  0  0  0  0  0  0  0
  186.4090  176.7730  143.0250 C   0  0  0  0  0  0  0  0  0  0  0  0
  190.5460  173.9340  142.6470 C   0  0  1  0  0  3  0  0  0  0  0  0
  190.3310  172.9750  143.7920 C   0  0  0  0  0  3  0  0  0  0  0  0
  187.5200  175.9960  142.5440 N   0  0  0  0  0  0  0  0  0  0  0  0
  188.8600  175.0480  141.1040 N   0  0  0  0  0  0  0  0  0  0  0  0
  186.0230  176.7750  144.4720 C   0  0  0  0  0  2  0  0  0  0  0  0
  186.5780  178.0110  145.1740 C   0  0  0  0  0  3  0  0  0  0  0  0
  186.1840  178.0450  147.6370 C   0  0  0  0  0  1  0  0  0  0  0  0
  187.1350  177.6200  146.5360 C   0  0  0  0  0  2  0  0  0  0  0  0
  185.4780  179.0420  145.3580 C   0  0  0  0  0  2  0  0  0  0  0  0
  185.5470  180.0920  144.2680 C   0  0  0  0  0  1  0  0  0  0  0  0
  2  3  1  0  0  0  0
  3  5  1  0  0  0  0
  3  1  2  0  0  0  0
  4  2  1  0  0  0  0
  4  7  1  0  0  0  0
  5 14  1  6  0  0  0
  6  4  2  0  0  0  0
  7  8  1  6  0  0  0
  7  5  1  0  0  0  0
 10  8  1  0  0  0  0
 10  9  1  1  0  0  0
 11 12  1  0  0  0  0
 12 13  1  6  0  0  0
 12 10  1  0  0  0  0
 14 15  1  0  0  0  0
 15 16  1  6  0  0  0
 15 18  1  0  0  0  0
 16 17  1  0  0  0  0
 19 20  1  1  0  0  0
 19 21  1  0  0  0  0
 19 18  1  0  0  0  0
 22 26  1  1  0  0  0
 22 21  1  0  0  0  0
 23 24  2  0  0  0  0
 24 22  1  0  0  0  0
 24 25  1  0  0  0  0
 26 27  1  0  0  0  0
 28  2  1  0  0  0  0
 29 30  1  6  0  0  0
 29 31  1  0  0  0  0
 29 28  1  0  0  0  0
 31 32  1  0  0  0  0
 33 32  2  0  0  0  0
 34 42  1  0  0  0  0
 34 39  2  0  0  0  0
 35 44  1  0  0  0  0
 37 36  1  0  0  0  0
 38 36  1  0  0  0  0
 39 37  1  0  0  0  0
 40 41  2  0  0  0  0
 41 46  1  0  0  0  0
 42 32  1  6  0  0  0
 42 43  1  0  0  0  0
 43 38  2  0  0  0  0
 44 41  1  0  0  0  0
 44 39  1  0  0  0  0
 45 35  2  0  0  0  0
 45 34  1  0  0  0  0
 46 47  1  0  0  0  0
 47 50  1  0  0  0  0
 47 49  1  0  0  0  0
 49 48  1  0  0  0  0
 51 50  1  0  0  0  0
M  END
>  <MODEL>
8

>  <REMARK>
 VINA RESULT:      -5.5      3.602      9.569
  Name = 
  21 active torsions:
  status: ('A' for Active; 'I' for Inactive)
    1  A    between atoms: N_3  and  C_51
    2  A    between atoms: C_5  and  C_13
    3  A    between atoms: C_5  and  C_20
    4  A    between atoms: C_5  and  C_48
    5  A    between atoms: C_7  and  C_39
    6  A    between atoms: C_8  and  C_29
    7  A    between atoms: C_8  and  C_49
    8  A    between atoms: C_14  and  O_25
    9  A    between atoms: C_14  and  O_35
   10  A    between atoms: C_17  and  O_25
   11  A    between atoms: C_17  and  C_27
   12  A    between atoms: C_17  and  C_37
   13  A    between atoms: C_18  and  O_36
   14  A    between atoms: C_21  and  C_38
   15  A    between atoms: C_21  and  N_46
   16  A    between atoms: C_29  and  C_30
   17  A    between atoms: C_32  and  N_46
   18  A    between atoms: C_32  and  C_51
   19  A    between atoms: C_33  and  C_48
   20  A    between atoms: O_35  and  C_39
   21  A    between atoms: O_36  and  C_39
                            x       y       z     vdW  Elec       q    Type
                         _______ _______ _______ _____ _____    ______ ____

>  <TORSDO>
F 21

$$$$
=
 OpenBabel11062421233D

 51 53  0  0  1  0  0  0  0  0999 V2000
  192.1170  173.4800  144.9330 O   0  0  0  0  0  0  0  0  0  0  0  0
  191.9990  175.4150  146.2700 N   0  0  0  0  0  0  0  0  0  0  0  0
  191.4290  174.3130  145.5870 C   0  0  0  0  0  0  0  0  0  0  0  0
  190.9490  176.0020  147.0110 C   0  0  0  0  0  0  0  0  0  0  0  0
  189.9550  174.2010  145.7840 C   0  0  1  0  0  3  0  0  0  0  0  0
  191.1410  176.9020  147.8710 O   0  0  0  0  0  0  0  0  0  0  0  0
  189.6160  175.3850  146.7310 C   0  0  2  0  0  3  0  0  0  0  0  0
  188.6710  176.4170  146.1080 C   0  0  0  0  0  2  0  0  0  0  0  0
  187.3610  175.7400  147.9630 F   0  0  0  0  0  0  0  0  0  0  0  0
  187.2730  176.2680  146.6880 C   0  0  1  0  0  3  0  0  0  0  0  0
  186.3760  178.0240  148.0410 F   0  0  0  0  0  0  0  0  0  0  0  0
  186.5710  177.6210  146.7300 C   0  0  2  0  0  3  0  0  0  0  0  0
  185.2350  177.5390  146.0200 C   0  0  0  0  0  1  0  0  0  0  0  0
  189.3000  174.2770  144.5410 O   0  0  0  0  0  0  0  0  0  0  0  0
  189.9830  173.3860  143.6970 C   0  0  1  0  0  3  0  0  0  0  0  0
  189.3150  172.0240  143.7790 C   0  0  0  0  0  2  0  0  0  0  0  0
  189.6800  171.2510  142.6710 O   0  0  0  0  0  1  0  0  0  0  0  0
  189.9440  173.8420  142.3710 O   0  0  0  0  0  0  0  0  0  0  0  0
  188.9680  174.8430  142.3520 C   0  0  2  0  0  3  0  0  0  0  0  0
  187.8490  174.3910  141.6510 O   0  0  0  0  0  1  0  0  0  0  0  0
  189.4660  175.9960  141.7360 O   0  0  0  0  0  0  0  0  0  0  0  0
  189.3170  177.0130  142.6910 C   0  0  1  0  0  3  0  0  0  0  0  0
  191.6830  176.7810  142.8930 O   0  0  0  0  0  0  0  0  0  0  0  0
  190.6620  177.4750  143.1480 C   0  0  0  0  0  0  0  0  0  0  0  0
  190.7920  178.6490  143.8790 O   0  0  0  0  0  1  0  0  0  0  0  0
  188.5400  178.1860  142.1020 C   0  0  0  0  0  2  0  0  0  0  0  0
  187.1810  178.2970  142.7710 C   0  0  0  0  0  1  0  0  0  0  0  0
  193.4200  175.6180  146.5320 C   0  0  0  0  0  2  0  0  0  0  0  0
  194.2090  175.9080  145.2530 C   0  0  1  0  0  3  0  0  0  0  0  0
  194.9420  177.2400  145.2670 C   0  0  0  0  0  1  0  0  0  0  0  0
  195.0590  174.7890  144.8360 N   0  0  0  0  0  2  0  0  0  0  0  0
  196.0520  174.7740  143.7910 C   0  0  0  0  0  0  0  0  0  0  0  0
  197.3450  174.9180  144.0560 C   0  0  0  0  0  2  0  0  0  0  0  0
  194.7150  173.4010  142.1820 C   0  0  0  0  0  0  0  0  0  0  0  0
  193.7250  171.5180  142.5220 N   0  0  0  0  0  0  0  0  0  0  0  0
  194.8260  174.9190  139.5200 C   0  0  0  0  0  2  0  0  0  0  0  0
  193.9590  173.7830  139.8120 N   0  0  0  0  0  2  0  0  0  0  0  0
  194.6490  176.0050  140.5400 C   0  0  0  0  0  3  0  0  0  0  0  0
  194.0020  173.0640  141.0480 C   0  0  0  0  0  0  0  0  0  0  0  0
  192.1260  169.9880  140.8050 O   0  0  0  0  0  0  0  0  0  0  0  0
  192.5040  171.1390  140.4470 C   0  0  0  0  0  0  0  0  0  0  0  0
  195.6290  174.5880  142.3610 C   0  0  1  0  0  3  0  0  0  0  0  0
  195.0090  175.8540  141.8230 C   0  0  0  0  0  3  0  0  0  0  0  0
  193.3830  171.8960  141.2980 N   0  0  0  0  0  0  0  0  0  0  0  0
  194.5380  172.4070  143.0800 N   0  0  0  0  0  0  0  0  0  0  0  0
  191.9740  171.7070  139.1660 C   0  0  0  0  0  2  0  0  0  0  0  0
  190.4690  171.9360  139.2630 C   0  0  0  0  0  3  0  0  0  0  0  0
  190.6150  170.0050  137.6890 C   0  0  0  0  0  1  0  0  0  0  0  0
  189.7610  171.1680  138.1550 C   0  0  0  0  0  2  0  0  0  0  0  0
  190.1590  173.4170  139.1250 C   0  0  0  0  0  2  0  0  0  0  0  0
  189.7940  173.7520  137.6930 C   0  0  0  0  0  1  0  0  0  0  0  0
  1  3  2  0  0  0  0
  2 28  1  0  0  0  0
  2  4  1  0  0  0  0
  3  5  1  0  0  0  0
  3  2  1  0  0  0  0
  4  6  2  0  0  0  0
  5 14  1  6  0  0  0
  5  7  1  0  0  0  0
  7  8  1  6  0  0  0
  7  4  1  0  0  0  0
  8 10  1  0  0  0  0
 10 12  1  0  0  0  0
 10  9  1  1  0  0  0
 12 13  1  1  0  0  0
 12 11  1  0  0  0  0
 15 16  1  6  0  0  0
 15 14  1  0  0  0  0
 17 16  1  0  0  0  0
 18 15  1  0  0  0  0
 19 20  1  6  0  0  0
 19 18  1  0  0  0  0
 21 19  1  0  0  0  0
 21 22  1  0  0  0  0
 22 26  1  6  0  0  0
 22 24  1  0  0  0  0
 23 24  2  0  0  0  0
 24 25  1  0  0  0  0
 26 27  1  0  0  0  0
 29 30  1  1  0  0  0
 29 28  1  0  0  0  0
 31 29  1  0  0  0  0
 32 33  2  0  0  0  0
 32 31  1  0  0  0  0
 34 42  1  0  0  0  0
 34 45  1  0  0  0  0
 35 45  2  0  0  0  0
 36 37  1  0  0  0  0
 36 38  1  0  0  0  0
 37 39  1  0  0  0  0
 38 43  2  0  0  0  0
 39 44  1  0  0  0  0
 39 34  2  0  0  0  0
 41 40  2  0  0  0  0
 41 44  1  0  0  0  0
 42 32  1  1  0  0  0
 43 42  1  0  0  0  0
 44 35  1  0  0  0  0
 46 47  1  0  0  0  0
 46 41  1  0  0  0  0
 48 49  1  0  0  0  0
 49 47  1  0  0  0  0
 50 47  1  0  0  0  0
 51 50  1  0  0  0  0
M  END
>  <MODEL>
9

>  <REMARK>
 VINA RESULT:      -5.4      2.388      3.558
  Name = 
  21 active torsions:
  status: ('A' for Active; 'I' for Inactive)
    1  A    between atoms: N_3  and  C_51
    2  A    between atoms: C_5  and  C_13
    3  A    between atoms: C_5  and  C_20
    4  A    between atoms: C_5  and  C_48
    5  A    between atoms: C_7  and  C_39
    6  A    between atoms: C_8  and  C_29
    7  A    between atoms: C_8  and  C_49
    8  A    between atoms: C_14  and  O_25
    9  A    between atoms: C_14  and  O_35
   10  A    between atoms: C_17  and  O_25
   11  A    between atoms: C_17  and  C_27
   12  A    between atoms: C_17  and  C_37
   13  A    between atoms: C_18  and  O_36
   14  A    between atoms: C_21  and  C_38
   15  A    between atoms: C_21  and  N_46
   16  A    between atoms: C_29  and  C_30
   17  A    between atoms: C_32  and  N_46
   18  A    between atoms: C_32  and  C_51
   19  A    between atoms: C_33  and  C_48
   20  A    between atoms: O_35  and  C_39
   21  A    between atoms: O_36  and  C_39
                            x       y       z     vdW  Elec       q    Type
                         _______ _______ _______ _____ _____    ______ ____

>  <TORSDO>
F 21

$$$$
