=
 OpenBabel11062419573D

 28 31  0  0  1  0  0  0  0  0999 V2000
  183.6210  178.3380  143.2050 C   0  0  0  0  0  3  0  0  0  0  0  0
  185.8820  177.8850  144.1820 C   0  0  0  0  0  0  0  0  0  0  0  0
  188.1310  177.4650  145.2520 C   0  0  0  0  0  0  0  0  0  0  0  0
  186.2500  178.2730  146.5690 C   0  0  0  0  0  0  0  0  0  0  0  0
  184.9190  178.6630  146.7070 C   0  0  0  0  0  3  0  0  0  0  0  0
  186.2820  177.3930  142.8110 C   0  0  0  0  0  2  0  0  0  0  0  0
  184.5390  178.2910  144.3540 C   0  0  0  0  0  0  0  0  0  0  0  0
  186.7620  177.8630  145.3050 C   0  0  0  0  0  0  0  0  0  0  0  0
  188.9060  177.5000  146.4130 C   0  0  0  0  0  3  0  0  0  0  0  0
  184.0680  178.6700  145.6080 C   0  0  0  0  0  3  0  0  0  0  0  0
  188.3500  177.9160  147.6170 C   0  0  0  0  0  3  0  0  0  0  0  0
  187.0480  178.2870  147.6690 N   0  0  0  0  0  0  0  0  0  0  0  0
  184.0760  178.2180  141.9510 C   0  0  0  0  0  0  0  0  0  0  0  0
  185.5580  178.1530  141.6990 C   0  0  0  0  0  2  0  0  0  0  0  0
  183.1460  178.2720  140.8120 C   0  0  0  0  0  0  0  0  0  0  0  0
  181.9910  179.0410  140.8930 O   0  0  0  0  0  1  0  0  0  0  0  0
  183.3850  177.6280  139.7550 O   0  0  0  0  0  0  0  0  0  0  0  0
  188.8170  176.9700  144.0180 C   0  0  0  0  0  2  0  0  0  0  0  0
  191.3350  176.6510  143.9360 C   0  0  0  0  0  0  0  0  0  0  0  0
  191.4640  177.5960  143.1110 O   0  0  0  0  0  0  0  0  0  0  0  0
  192.4900  175.9760  144.4440 N   0  0  0  0  0  0  0  0  0  0  0  0
  192.3460  174.9840  145.3710 O   0  0  0  0  0  0  0  0  0  0  0  0
  194.8310  175.8930  145.1050 C   0  0  0  0  0  2  0  0  0  0  0  0
  190.0330  176.2500  144.3700 N   0  0  0  0  0  2  0  0  0  0  0  0
  193.8350  176.4160  144.0760 C   0  0  0  0  0  2  0  0  0  0  0  0
  191.9520  176.4820  147.0750 F   0  0  0  0  0  0  0  0  0  0  0  0
  194.2500  176.0440  146.5130 C   0  0  0  0  0  2  0  0  0  0  0  0
  192.8080  175.5020  146.6020 C   0  0  2  0  0  3  0  0  0  0  0  0
  1  7  1  0  0  0  0
  2  7  2  0  0  0  0
  2  8  1  0  0  0  0
  3  8  2  0  0  0  0
  3  9  1  0  0  0  0
  4  5  1  0  0  0  0
  4 12  2  0  0  0  0
  6  2  1  0  0  0  0
  7 10  1  0  0  0  0
  8  4  1  0  0  0  0
  9 11  2  0  0  0  0
 10  5  2  0  0  0  0
 11 12  1  0  0  0  0
 13  1  2  0  0  0  0
 14 13  1  0  0  0  0
 14  6  1  0  0  0  0
 15 16  1  0  0  0  0
 15 13  1  0  0  0  0
 17 15  2  0  0  0  0
 18 24  1  0  0  0  0
 18  3  1  0  0  0  0
 19 24  1  0  0  0  0
 19 21  1  0  0  0  0
 20 19  2  0  0  0  0
 21 22  1  0  0  0  0
 22 28  1  0  0  0  0
 23 27  1  0  0  0  0
 25 21  1  0  0  0  0
 25 23  1  0  0  0  0
 27 28  1  0  0  0  0
 28 26  1  6  0  0  0
M  END
>  <MODEL>
1

>  <REMARK>
 VINA RESULT:      -8.2      0.000      0.000
  Name = 
  3 active torsions:
  status: ('A' for Active; 'I' for Inactive)
    1  A    between atoms: C_3  and  C_7
    2  A    between atoms: C_7  and  N_14
    3  A    between atoms: C_13  and  C_26
                            x       y       z     vdW  Elec       q    Type
                         _______ _______ _______ _____ _____    ______ ____

>  <TORSDO>
F 3

$$$$
=
 OpenBabel11062419573D

 28 31  0  0  1  0  0  0  0  0999 V2000
  194.0500  175.8410  145.4170 C   0  0  0  0  0  3  0  0  0  0  0  0
  191.6210  176.2910  145.0060 C   0  0  0  0  0  0  0  0  0  0  0  0
  189.1510  176.7060  144.6790 C   0  0  0  0  0  0  0  0  0  0  0  0
  190.0070  175.8550  146.7920 C   0  0  0  0  0  0  0  0  0  0  0  0
  191.0480  175.4510  147.6270 C   0  0  0  0  0  3  0  0  0  0  0  0
  192.0340  176.8160  143.6510 C   0  0  0  0  0  2  0  0  0  0  0  0
  192.6520  175.8700  145.8760 C   0  0  0  0  0  0  0  0  0  0  0  0
  190.2700  176.2960  145.4630 C   0  0  0  0  0  0  0  0  0  0  0  0
  187.8670  176.6530  145.2250 C   0  0  0  0  0  3  0  0  0  0  0  0
  192.3620  175.4610  147.1740 C   0  0  0  0  0  3  0  0  0  0  0  0
  187.6750  176.2070  146.5260 C   0  0  0  0  0  3  0  0  0  0  0  0
  188.7380  175.8250  147.2750 N   0  0  0  0  0  0  0  0  0  0  0  0
  194.3550  175.9910  144.1220 C   0  0  0  0  0  0  0  0  0  0  0  0
  193.2540  176.0740  143.1000 C   0  0  0  0  0  2  0  0  0  0  0  0
  195.7580  175.9550  143.6770 C   0  0  0  0  0  0  0  0  0  0  0  0
  196.1490  176.6680  142.5500 O   0  0  0  0  0  0  0  0  0  0  0  0
  196.6170  175.2840  144.3110 O   0  0  0  0  0  1  0  0  0  0  0  0
  189.2510  177.2340  143.2820 C   0  0  0  0  0  2  0  0  0  0  0  0
  187.2950  177.7020  141.7320 C   0  0  0  0  0  0  0  0  0  0  0  0
  187.7470  176.9070  140.8620 O   0  0  0  0  0  0  0  0  0  0  0  0
  186.0360  178.3520  141.5270 N   0  0  0  0  0  0  0  0  0  0  0  0
  185.5320  179.1770  142.4910 O   0  0  0  0  0  0  0  0  0  0  0  0
  183.7780  178.4600  140.6240 C   0  0  0  0  0  2  0  0  0  0  0  0
  188.0370  177.9560  142.9270 N   0  0  0  0  0  2  0  0  0  0  0  0
  185.2220  178.0510  140.3500 C   0  0  0  0  0  2  0  0  0  0  0  0
  184.8810  177.4090  143.8170 F   0  0  0  0  0  0  0  0  0  0  0  0
  183.3860  178.0570  142.0470 C   0  0  0  0  0  2  0  0  0  0  0  0
  184.4420  178.4970  143.0820 C   0  0  2  0  0  3  0  0  0  0  0  0
  1  7  1  0  0  0  0
  2  8  2  0  0  0  0
  2  7  1  0  0  0  0
  3  9  2  0  0  0  0
  3  8  1  0  0  0  0
  4 12  1  0  0  0  0
  4  5  2  0  0  0  0
  6  2  1  0  0  0  0
  7 10  2  0  0  0  0
  8  4  1  0  0  0  0
  9 11  1  0  0  0  0
 10  5  1  0  0  0  0
 11 12  2  0  0  0  0
 13  1  2  0  0  0  0
 14  6  1  0  0  0  0
 14 13  1  0  0  0  0
 15 13  1  0  0  0  0
 15 17  1  0  0  0  0
 16 15  2  0  0  0  0
 18  3  1  0  0  0  0
 19 24  1  0  0  0  0
 20 19  2  0  0  0  0
 21 19  1  0  0  0  0
 21 22  1  0  0  0  0
 22 28  1  0  0  0  0
 23 27  1  0  0  0  0
 24 18  1  0  0  0  0
 25 23  1  0  0  0  0
 25 21  1  0  0  0  0
 27 28  1  0  0  0  0
 28 26  1  6  0  0  0
M  END
>  <MODEL>
2

>  <REMARK>
 VINA RESULT:      -8.2      2.822      8.293
  Name = 
  3 active torsions:
  status: ('A' for Active; 'I' for Inactive)
    1  A    between atoms: C_3  and  C_7
    2  A    between atoms: C_7  and  N_14
    3  A    between atoms: C_13  and  C_26
                            x       y       z     vdW  Elec       q    Type
                         _______ _______ _______ _____ _____    ______ ____

>  <TORSDO>
F 3

$$$$
=
 OpenBabel11062419573D

 28 31  0  0  1  0  0  0  0  0999 V2000
  185.8830  178.4150  144.8890 C   0  0  0  0  0  3  0  0  0  0  0  0
  187.4020  176.6380  143.9910 C   0  0  0  0  0  0  0  0  0  0  0  0
  188.8930  174.8570  142.9980 C   0  0  0  0  0  0  0  0  0  0  0  0
  187.4100  176.1750  141.5890 C   0  0  0  0  0  0  0  0  0  0  0  0
  186.4600  177.1780  141.3980 C   0  0  0  0  0  3  0  0  0  0  0  0
  187.9180  176.4850  145.4030 C   0  0  0  0  0  2  0  0  0  0  0  0
  186.4360  177.6440  143.7640 C   0  0  0  0  0  0  0  0  0  0  0  0
  187.9130  175.8880  142.8900 C   0  0  0  0  0  0  0  0  0  0  0  0
  189.3090  174.1750  141.8530 C   0  0  0  0  0  3  0  0  0  0  0  0
  185.9780  177.9090  142.4770 C   0  0  0  0  0  3  0  0  0  0  0  0
  188.7750  174.4980  140.6110 C   0  0  0  0  0  3  0  0  0  0  0  0
  187.8490  175.4820  140.5070 N   0  0  0  0  0  0  0  0  0  0  0  0
  186.1050  178.0440  146.1560 C   0  0  0  0  0  0  0  0  0  0  0  0
  186.8280  176.7560  146.4410 C   0  0  0  0  0  2  0  0  0  0  0  0
  185.5420  178.8240  147.2700 C   0  0  0  0  0  0  0  0  0  0  0  0
  186.3120  179.7960  147.8990 O   0  0  0  0  0  1  0  0  0  0  0  0
  184.3600  178.6240  147.6640 O   0  0  0  0  0  0  0  0  0  0  0  0
  189.5550  174.4550  144.2790 C   0  0  0  0  0  2  0  0  0  0  0  0
  191.8230  175.5930  144.3710 C   0  0  0  0  0  0  0  0  0  0  0  0
  191.2930  176.7090  144.6260 O   0  0  0  0  0  0  0  0  0  0  0  0
  193.2480  175.4650  144.3310 N   0  0  0  0  0  0  0  0  0  0  0  0
  193.8150  174.2450  144.0980 O   0  0  0  0  0  0  0  0  0  0  0  0
  195.4960  176.0840  145.0310 C   0  0  0  0  0  2  0  0  0  0  0  0
  191.0030  174.4490  144.1200 N   0  0  0  0  0  2  0  0  0  0  0  0
  194.1100  176.6000  144.6590 C   0  0  0  0  0  2  0  0  0  0  0  0
  193.3860  173.5140  146.2390 F   0  0  0  0  0  0  0  0  0  0  0  0
  195.3670  174.8400  145.9130 C   0  0  0  0  0  2  0  0  0  0  0  0
  194.3780  173.8140  145.3210 C   0  0  2  0  0  3  0  0  0  0  0  0
  1 13  2  0  0  0  0
  2  6  1  0  0  0  0
  3 18  1  0  0  0  0
  4  8  1  0  0  0  0
  5  4  2  0  0  0  0
  5 10  1  0  0  0  0
  6 14  1  0  0  0  0
  7  2  1  0  0  0  0
  7  1  1  0  0  0  0
  8  3  1  0  0  0  0
  8  2  2  0  0  0  0
  9  3  2  0  0  0  0
 10  7  2  0  0  0  0
 11  9  1  0  0  0  0
 12 11  2  0  0  0  0
 12  4  1  0  0  0  0
 13 14  1  0  0  0  0
 13 15  1  0  0  0  0
 15 17  2  0  0  0  0
 15 16  1  0  0  0  0
 19 20  2  0  0  0  0
 21 19  1  0  0  0  0
 21 25  1  0  0  0  0
 22 21  1  0  0  0  0
 22 28  1  0  0  0  0
 23 27  1  0  0  0  0
 24 18  1  0  0  0  0
 24 19  1  0  0  0  0
 25 23  1  0  0  0  0
 28 27  1  0  0  0  0
 28 26  1  1  0  0  0
M  END
>  <MODEL>
3

>  <REMARK>
 VINA RESULT:      -7.9      2.910      4.440
  Name = 
  3 active torsions:
  status: ('A' for Active; 'I' for Inactive)
    1  A    between atoms: C_3  and  C_7
    2  A    between atoms: C_7  and  N_14
    3  A    between atoms: C_13  and  C_26
                            x       y       z     vdW  Elec       q    Type
                         _______ _______ _______ _____ _____    ______ ____

>  <TORSDO>
F 3

$$$$
=
 OpenBabel11062419573D

 28 31  0  0  1  0  0  0  0  0999 V2000
  185.1370  177.5670  143.5640 C   0  0  0  0  0  3  0  0  0  0  0  0
  187.2740  176.4250  144.1960 C   0  0  0  0  0  0  0  0  0  0  0  0
  189.4100  175.2930  144.9280 C   0  0  0  0  0  0  0  0  0  0  0  0
  187.8090  176.1210  146.5630 C   0  0  0  0  0  0  0  0  0  0  0  0
  186.6050  176.7340  146.9100 C   0  0  0  0  0  3  0  0  0  0  0  0
  187.5010  176.2170  142.7170 C   0  0  0  0  0  2  0  0  0  0  0  0
  186.0640  177.0460  144.5810 C   0  0  0  0  0  0  0  0  0  0  0  0
  188.1680  175.9410  145.1970 C   0  0  0  0  0  0  0  0  0  0  0  0
  190.2160  174.8760  145.9880 C   0  0  0  0  0  3  0  0  0  0  0  0
  185.7370  177.1910  145.9260 C   0  0  0  0  0  3  0  0  0  0  0  0
  189.8130  175.0850  147.3010 C   0  0  0  0  0  3  0  0  0  0  0  0
  188.6300  175.6950  147.5580 N   0  0  0  0  0  0  0  0  0  0  0  0
  185.5050  177.6710  142.2800 C   0  0  0  0  0  0  0  0  0  0  0  0
  186.9240  177.3640  141.8850 C   0  0  0  0  0  2  0  0  0  0  0  0
  184.5690  178.1990  141.2760 C   0  0  0  0  0  0  0  0  0  0  0  0
  183.2060  178.2380  141.5480 O   0  0  0  0  0  1  0  0  0  0  0  0
  184.9880  178.6220  140.1640 O   0  0  0  0  0  0  0  0  0  0  0  0
  189.9200  174.9890  143.5540 C   0  0  0  0  0  2  0  0  0  0  0  0
  192.4010  175.5070  143.3920 C   0  0  0  0  0  0  0  0  0  0  0  0
  192.1670  176.6860  143.0100 O   0  0  0  0  0  0  0  0  0  0  0  0
  193.7480  175.0740  143.6100 N   0  0  0  0  0  0  0  0  0  0  0  0
  193.9920  173.8110  144.0660 O   0  0  0  0  0  0  0  0  0  0  0  0
  196.0720  175.4620  144.2210 C   0  0  0  0  0  2  0  0  0  0  0  0
  191.3210  174.5950  143.6120 N   0  0  0  0  0  2  0  0  0  0  0  0
  194.8640  176.0080  143.4660 C   0  0  0  0  0  2  0  0  0  0  0  0
  193.3710  174.3500  146.2170 F   0  0  0  0  0  0  0  0  0  0  0  0
  195.6250  174.8810  145.5640 C   0  0  0  0  0  2  0  0  0  0  0  0
  194.4160  173.9360  145.4090 C   0  0  2  0  0  3  0  0  0  0  0  0
  1  7  1  0  0  0  0
  2  7  2  0  0  0  0
  2  8  1  0  0  0  0
  3  8  2  0  0  0  0
  3  9  1  0  0  0  0
  4  5  1  0  0  0  0
  4 12  2  0  0  0  0
  6  2  1  0  0  0  0
  7 10  1  0  0  0  0
  8  4  1  0  0  0  0
  9 11  2  0  0  0  0
 10  5  2  0  0  0  0
 11 12  1  0  0  0  0
 13  1  2  0  0  0  0
 14 13  1  0  0  0  0
 14  6  1  0  0  0  0
 15 16  1  0  0  0  0
 15 13  1  0  0  0  0
 17 15  2  0  0  0  0
 18 24  1  0  0  0  0
 18  3  1  0  0  0  0
 19 21  1  0  0  0  0
 19 24  1  0  0  0  0
 20 19  2  0  0  0  0
 21 22  1  0  0  0  0
 22 28  1  0  0  0  0
 23 27  1  0  0  0  0
 25 21  1  0  0  0  0
 25 23  1  0  0  0  0
 28 27  1  0  0  0  0
 28 26  1  1  0  0  0
M  END
>  <MODEL>
4

>  <REMARK>
 VINA RESULT:      -7.8      1.828      2.170
  Name = 
  3 active torsions:
  status: ('A' for Active; 'I' for Inactive)
    1  A    between atoms: C_3  and  C_7
    2  A    between atoms: C_7  and  N_14
    3  A    between atoms: C_13  and  C_26
                            x       y       z     vdW  Elec       q    Type
                         _______ _______ _______ _____ _____    ______ ____

>  <TORSDO>
F 3

$$$$
=
 OpenBabel11062419573D

 28 31  0  0  1  0  0  0  0  0999 V2000
  192.8490  174.3940  145.4180 C   0  0  0  0  0  3  0  0  0  0  0  0
  190.8880  175.0010  143.9830 C   0  0  0  0  0  0  0  0  0  0  0  0
  188.8940  175.5170  142.5210 C   0  0  0  0  0  0  0  0  0  0  0  0
  189.4460  173.2240  143.1190 C   0  0  0  0  0  0  0  0  0  0  0  0
  190.2260  172.2760  143.7800 C   0  0  0  0  0  3  0  0  0  0  0  0
  191.2620  176.4430  144.2290 C   0  0  0  0  0  2  0  0  0  0  0  0
  191.6620  174.0150  144.6350 C   0  0  0  0  0  0  0  0  0  0  0  0
  189.7510  174.6120  143.2140 C   0  0  0  0  0  0  0  0  0  0  0  0
  187.8170  175.0230  141.7830 C   0  0  0  0  0  3  0  0  0  0  0  0
  191.3250  172.6680  144.5340 C   0  0  0  0  0  3  0  0  0  0  0  0
  187.5750  173.6560  141.7240 C   0  0  0  0  0  3  0  0  0  0  0  0
  188.3840  172.7960  142.3880 N   0  0  0  0  0  0  0  0  0  0  0  0
  193.3520  175.6330  145.3520 C   0  0  0  0  0  0  0  0  0  0  0  0
  192.7740  176.6230  144.3780 C   0  0  0  0  0  2  0  0  0  0  0  0
  194.5430  175.9970  146.1380 C   0  0  0  0  0  0  0  0  0  0  0  0
  194.5660  177.1880  146.8550 O   0  0  0  0  0  1  0  0  0  0  0  0
  195.5480  175.2360  146.1730 O   0  0  0  0  0  0  0  0  0  0  0  0
  189.0460  177.0060  142.5460 C   0  0  0  0  0  2  0  0  0  0  0  0
  187.0110  178.2030  143.4820 C   0  0  0  0  0  0  0  0  0  0  0  0
  186.5510  178.4030  142.3250 O   0  0  0  0  0  0  0  0  0  0  0  0
  186.2620  178.6040  144.6340 N   0  0  0  0  0  0  0  0  0  0  0  0
  186.7440  178.3440  145.8840 O   0  0  0  0  0  0  0  0  0  0  0  0
  184.1780  179.0410  145.8140 C   0  0  0  0  0  2  0  0  0  0  0  0
  188.2840  177.5730  143.6510 N   0  0  0  0  0  2  0  0  0  0  0  0
  184.9250  179.1800  144.4920 C   0  0  0  0  0  2  0  0  0  0  0  0
  186.1700  176.1170  145.7630 F   0  0  0  0  0  0  0  0  0  0  0  0
  184.4410  177.6590  146.4160 C   0  0  0  0  0  2  0  0  0  0  0  0
  185.9450  177.3120  146.4260 C   0  0  2  0  0  3  0  0  0  0  0  0
  2  6  1  0  0  0  0
  2  7  1  0  0  0  0
  3 18  1  0  0  0  0
  3  8  1  0  0  0  0
  4  8  1  0  0  0  0
  4  5  2  0  0  0  0
  5 10  1  0  0  0  0
  6 14  1  0  0  0  0
  7  1  1  0  0  0  0
  8  2  2  0  0  0  0
  9  3  2  0  0  0  0
 10  7  2  0  0  0  0
 11  9  1  0  0  0  0
 11 12  2  0  0  0  0
 12  4  1  0  0  0  0
 13  1  2  0  0  0  0
 13 15  1  0  0  0  0
 14 13  1  0  0  0  0
 15 17  2  0  0  0  0
 15 16  1  0  0  0  0
 18 24  1  0  0  0  0
 19 24  1  0  0  0  0
 19 21  1  0  0  0  0
 20 19  2  0  0  0  0
 21 22  1  0  0  0  0
 22 28  1  0  0  0  0
 23 27  1  0  0  0  0
 25 21  1  0  0  0  0
 25 23  1  0  0  0  0
 27 28  1  0  0  0  0
 28 26  1  6  0  0  0
M  END
>  <MODEL>
5

>  <REMARK>
 VINA RESULT:      -7.8      2.995      8.212
  Name = 
  3 active torsions:
  status: ('A' for Active; 'I' for Inactive)
    1  A    between atoms: C_3  and  C_7
    2  A    between atoms: C_7  and  N_14
    3  A    between atoms: C_13  and  C_26
                            x       y       z     vdW  Elec       q    Type
                         _______ _______ _______ _____ _____    ______ ____

>  <TORSDO>
F 3

$$$$
=
 OpenBabel11062419573D

 28 31  0  0  1  0  0  0  0  0999 V2000
  189.0220  177.5110  147.4710 C   0  0  0  0  0  3  0  0  0  0  0  0
  187.6750  177.8780  145.3910 C   0  0  0  0  0  0  0  0  0  0  0  0
  186.2360  178.2540  143.3500 C   0  0  0  0  0  0  0  0  0  0  0  0
  185.2920  178.3960  145.5890 C   0  0  0  0  0  0  0  0  0  0  0  0
  185.4010  178.3490  146.9780 C   0  0  0  0  0  3  0  0  0  0  0  0
  188.9660  177.7080  144.6270 C   0  0  0  0  0  2  0  0  0  0  0  0
  187.7510  177.8320  146.8020 C   0  0  0  0  0  0  0  0  0  0  0  0
  186.4300  178.1730  144.7610 C   0  0  0  0  0  0  0  0  0  0  0  0
  184.9660  178.5330  142.8410 C   0  0  0  0  0  3  0  0  0  0  0  0
  186.6220  178.0710  147.5810 C   0  0  0  0  0  3  0  0  0  0  0  0
  183.8940  178.7350  143.7010 C   0  0  0  0  0  3  0  0  0  0  0  0
  184.0790  178.6660  145.0410 N   0  0  0  0  0  0  0  0  0  0  0  0
  190.0680  177.0420  146.7790 C   0  0  0  0  0  0  0  0  0  0  0  0
  189.9120  176.7230  145.3170 C   0  0  0  0  0  2  0  0  0  0  0  0
  191.3310  176.7210  147.4630 C   0  0  0  0  0  0  0  0  0  0  0  0
  191.5650  177.1940  148.7490 O   0  0  0  0  0  1  0  0  0  0  0  0
  192.2080  176.0150  146.8960 O   0  0  0  0  0  0  0  0  0  0  0  0
  187.3280  178.0870  142.3390 C   0  0  0  0  0  2  0  0  0  0  0  0
  187.7310  176.0410  140.8900 C   0  0  0  0  0  0  0  0  0  0  0  0
  187.4040  176.6710  139.8470 O   0  0  0  0  0  0  0  0  0  0  0  0
  188.1910  174.6890  140.8000 N   0  0  0  0  0  0  0  0  0  0  0  0
  188.5860  174.0280  141.9270 O   0  0  0  0  0  0  0  0  0  0  0  0
  189.3050  172.8550  139.6510 C   0  0  0  0  0  2  0  0  0  0  0  0
  187.6460  176.6760  142.1690 N   0  0  0  0  0  2  0  0  0  0  0  0
  188.3600  174.0420  139.4990 C   0  0  0  0  0  2  0  0  0  0  0  0
  190.5950  175.1500  142.0140 F   0  0  0  0  0  0  0  0  0  0  0  0
  190.4740  173.2350  140.5620 C   0  0  0  0  0  2  0  0  0  0  0  0
  189.9930  173.9120  141.8630 C   0  0  2  0  0  3  0  0  0  0  0  0
  2  7  1  0  0  0  0
  3  8  1  0  0  0  0
  4  5  2  0  0  0  0
  5 10  1  0  0  0  0
  6 14  1  0  0  0  0
  6  2  1  0  0  0  0
  7  1  1  0  0  0  0
  7 10  2  0  0  0  0
  8  2  2  0  0  0  0
  8  4  1  0  0  0  0
  9  3  2  0  0  0  0
  9 11  1  0  0  0  0
 11 12  2  0  0  0  0
 12  4  1  0  0  0  0
 13 15  1  0  0  0  0
 13  1  2  0  0  0  0
 14 13  1  0  0  0  0
 15 16  1  0  0  0  0
 17 15  2  0  0  0  0
 18  3  1  0  0  0  0
 19 24  1  0  0  0  0
 20 19  2  0  0  0  0
 21 19  1  0  0  0  0
 21 22  1  0  0  0  0
 23 27  1  0  0  0  0
 24 18  1  0  0  0  0
 25 23  1  0  0  0  0
 25 21  1  0  0  0  0
 27 28  1  0  0  0  0
 28 22  1  0  0  0  0
 28 26  1  6  0  0  0
M  END
>  <MODEL>
6

>  <REMARK>
 VINA RESULT:      -7.7      3.061      6.131
  Name = 
  3 active torsions:
  status: ('A' for Active; 'I' for Inactive)
    1  A    between atoms: C_3  and  C_7
    2  A    between atoms: C_7  and  N_14
    3  A    between atoms: C_13  and  C_26
                            x       y       z     vdW  Elec       q    Type
                         _______ _______ _______ _____ _____    ______ ____

>  <TORSDO>
F 3

$$$$
=
 OpenBabel11062419573D

 28 31  0  0  1  0  0  0  0  0999 V2000
  186.7390  177.7940  143.6430 C   0  0  0  0  0  3  0  0  0  0  0  0
  189.0500  177.1540  144.3630 C   0  0  0  0  0  0  0  0  0  0  0  0
  191.3570  176.5300  145.1820 C   0  0  0  0  0  0  0  0  0  0  0  0
  189.5910  177.1210  146.7490 C   0  0  0  0  0  0  0  0  0  0  0  0
  188.2810  177.4960  147.0460 C   0  0  0  0  0  3  0  0  0  0  0  0
  189.3430  176.9010  142.9030 C   0  0  0  0  0  2  0  0  0  0  0  0
  187.7320  177.5400  144.6980 C   0  0  0  0  0  0  0  0  0  0  0  0
  190.0050  176.9290  145.3990 C   0  0  0  0  0  0  0  0  0  0  0  0
  192.2110  176.3560  146.2730 C   0  0  0  0  0  3  0  0  0  0  0  0
  187.3580  177.7020  146.0290 C   0  0  0  0  0  3  0  0  0  0  0  0
  191.7480  176.5650  147.5660 C   0  0  0  0  0  3  0  0  0  0  0  0
  190.4620  176.9360  147.7740 N   0  0  0  0  0  0  0  0  0  0  0  0
  187.1030  177.8860  142.3580 C   0  0  0  0  0  0  0  0  0  0  0  0
  188.5620  177.8490  141.9920 C   0  0  0  0  0  2  0  0  0  0  0  0
  186.0990  178.1450  141.3140 C   0  0  0  0  0  0  0  0  0  0  0  0
  186.3780  177.8390  139.9880 O   0  0  0  0  0  0  0  0  0  0  0  0
  184.9770  178.6410  141.6090 O   0  0  0  0  0  1  0  0  0  0  0  0
  191.9450  176.2470  143.8350 C   0  0  0  0  0  2  0  0  0  0  0  0
  194.2770  175.4060  143.2880 C   0  0  0  0  0  0  0  0  0  0  0  0
  194.4640  176.3450  142.4680 O   0  0  0  0  0  0  0  0  0  0  0  0
  195.3270  174.4730  143.5650 N   0  0  0  0  0  0  0  0  0  0  0  0
  195.1340  173.4840  144.4860 O   0  0  0  0  0  0  0  0  0  0  0  0
  197.6720  173.8580  143.7840 C   0  0  0  0  0  2  0  0  0  0  0  0
  193.0160  175.2670  143.9470 N   0  0  0  0  0  2  0  0  0  0  0  0
  196.6500  174.6370  142.9630 C   0  0  0  0  0  2  0  0  0  0  0  0
  195.3830  174.9360  146.2570 F   0  0  0  0  0  0  0  0  0  0  0  0
  197.3940  174.0520  145.2770 C   0  0  0  0  0  2  0  0  0  0  0  0
  195.9070  173.8240  145.6200 C   0  0  2  0  0  3  0  0  0  0  0  0
  1  7  1  0  0  0  0
  2  7  2  0  0  0  0
  2  8  1  0  0  0  0
  3  8  2  0  0  0  0
  3  9  1  0  0  0  0
  4  5  1  0  0  0  0
  4 12  2  0  0  0  0
  6  2  1  0  0  0  0
  7 10  1  0  0  0  0
  8  4  1  0  0  0  0
  9 11  2  0  0  0  0
 10  5  2  0  0  0  0
 11 12  1  0  0  0  0
 13  1  2  0  0  0  0
 14 13  1  0  0  0  0
 14  6  1  0  0  0  0
 15 17  1  0  0  0  0
 15 13  1  0  0  0  0
 16 15  2  0  0  0  0
 18 24  1  0  0  0  0
 18  3  1  0  0  0  0
 19 21  1  0  0  0  0
 19 24  1  0  0  0  0
 20 19  2  0  0  0  0
 21 22  1  0  0  0  0
 22 28  1  0  0  0  0
 23 27  1  0  0  0  0
 25 21  1  0  0  0  0
 25 23  1  0  0  0  0
 27 28  1  0  0  0  0
 28 26  1  6  0  0  0
M  END
>  <MODEL>
7

>  <REMARK>
 VINA RESULT:      -7.7      2.273      3.434
  Name = 
  3 active torsions:
  status: ('A' for Active; 'I' for Inactive)
    1  A    between atoms: C_3  and  C_7
    2  A    between atoms: C_7  and  N_14
    3  A    between atoms: C_13  and  C_26
                            x       y       z     vdW  Elec       q    Type
                         _______ _______ _______ _____ _____    ______ ____

>  <TORSDO>
F 3

$$$$
=
 OpenBabel11062419573D

 28 31  0  0  1  0  0  0  0  0999 V2000
  186.3240  178.2760  145.0000 C   0  0  0  0  0  3  0  0  0  0  0  0
  187.8910  176.4190  144.3940 C   0  0  0  0  0  0  0  0  0  0  0  0
  189.4440  174.5560  143.6890 C   0  0  0  0  0  0  0  0  0  0  0  0
  188.2220  175.8580  142.0360 C   0  0  0  0  0  0  0  0  0  0  0  0
  187.3440  176.8800  141.6740 C   0  0  0  0  0  3  0  0  0  0  0  0
  188.1970  176.3090  145.8690 C   0  0  0  0  0  2  0  0  0  0  0  0
  187.0020  177.4430  143.9940 C   0  0  0  0  0  0  0  0  0  0  0  0
  188.5260  175.6090  143.4050 C   0  0  0  0  0  0  0  0  0  0  0  0
  189.9920  173.8150  142.6390 C   0  0  0  0  0  3  0  0  0  0  0  0
  186.7400  177.6680  142.6460 C   0  0  0  0  0  3  0  0  0  0  0  0
  189.6510  174.1020  141.3240 C   0  0  0  0  0  3  0  0  0  0  0  0
  188.7850  175.1080  141.0530 N   0  0  0  0  0  0  0  0  0  0  0  0
  186.3510  177.9510  146.2990 C   0  0  0  0  0  0  0  0  0  0  0  0
  186.9810  176.6550  146.7310 C   0  0  0  0  0  2  0  0  0  0  0  0
  185.6650  178.7920  147.2920 C   0  0  0  0  0  0  0  0  0  0  0  0
  186.3780  179.7450  148.0090 O   0  0  0  0  0  1  0  0  0  0  0  0
  184.4280  178.6620  147.5010 O   0  0  0  0  0  0  0  0  0  0  0  0
  189.9030  174.1870  145.0640 C   0  0  0  0  0  2  0  0  0  0  0  0
  192.4300  174.0000  145.2280 C   0  0  0  0  0  0  0  0  0  0  0  0
  192.3880  172.7560  145.0250 O   0  0  0  0  0  0  0  0  0  0  0  0
  193.6910  174.6660  145.3590 N   0  0  0  0  0  0  0  0  0  0  0  0
  193.7310  176.0190  145.5340 O   0  0  0  0  0  0  0  0  0  0  0  0
  196.0630  174.9210  144.8740 C   0  0  0  0  0  2  0  0  0  0  0  0
  191.2190  174.7540  145.3260 N   0  0  0  0  0  2  0  0  0  0  0  0
  194.9440  173.9320  145.1860 C   0  0  0  0  0  2  0  0  0  0  0  0
  193.2680  176.4290  143.3150 F   0  0  0  0  0  0  0  0  0  0  0  0
  195.5610  175.9780  143.8880 C   0  0  0  0  0  2  0  0  0  0  0  0
  194.2050  176.5740  144.3230 C   0  0  2  0  0  3  0  0  0  0  0  0
  1 13  2  0  0  0  0
  2  6  1  0  0  0  0
  3 18  1  0  0  0  0
  4  8  1  0  0  0  0
  5  4  2  0  0  0  0
  5 10  1  0  0  0  0
  6 14  1  0  0  0  0
  7  2  1  0  0  0  0
  7  1  1  0  0  0  0
  8  3  1  0  0  0  0
  8  2  2  0  0  0  0
  9  3  2  0  0  0  0
 10  7  2  0  0  0  0
 11  9  1  0  0  0  0
 12 11  2  0  0  0  0
 12  4  1  0  0  0  0
 13 14  1  0  0  0  0
 13 15  1  0  0  0  0
 15 17  2  0  0  0  0
 15 16  1  0  0  0  0
 18 24  1  0  0  0  0
 19 24  1  0  0  0  0
 19 21  1  0  0  0  0
 20 19  2  0  0  0  0
 21 22  1  0  0  0  0
 23 25  1  0  0  0  0
 25 21  1  0  0  0  0
 27 28  1  0  0  0  0
 27 23  1  0  0  0  0
 28 26  1  6  0  0  0
 28 22  1  0  0  0  0
M  END
>  <MODEL>
8

>  <REMARK>
 VINA RESULT:      -7.7      3.083      4.720
  Name = 
  3 active torsions:
  status: ('A' for Active; 'I' for Inactive)
    1  A    between atoms: C_3  and  C_7
    2  A    between atoms: C_7  and  N_14
    3  A    between atoms: C_13  and  C_26
                            x       y       z     vdW  Elec       q    Type
                         _______ _______ _______ _____ _____    ______ ____

>  <TORSDO>
F 3

$$$$
=
 OpenBabel11062419573D

 28 31  0  0  1  0  0  0  0  0999 V2000
  186.0620  177.6110  141.3860 C   0  0  0  0  0  3  0  0  0  0  0  0
  186.7040  177.3470  143.7930 C   0  0  0  0  0  0  0  0  0  0  0  0
  187.2990  177.1600  146.2400 C   0  0  0  0  0  0  0  0  0  0  0  0
  185.7060  178.8280  145.4640 C   0  0  0  0  0  0  0  0  0  0  0  0
  184.9630  179.4510  144.4620 C   0  0  0  0  0  3  0  0  0  0  0  0
  187.5370  176.1660  143.3530 C   0  0  0  0  0  2  0  0  0  0  0  0
  185.9420  178.0030  142.8000 C   0  0  0  0  0  0  0  0  0  0  0  0
  186.5870  177.7520  145.1550 C   0  0  0  0  0  0  0  0  0  0  0  0
  187.1190  177.6510  147.5350 C   0  0  0  0  0  3  0  0  0  0  0  0
  185.0780  179.0400  143.1390 C   0  0  0  0  0  3  0  0  0  0  0  0
  186.2490  178.7080  147.7710 C   0  0  0  0  0  3  0  0  0  0  0  0
  185.5660  179.2660  146.7420 N   0  0  0  0  0  0  0  0  0  0  0  0
  187.0420  176.7950  140.9760 C   0  0  0  0  0  0  0  0  0  0  0  0
  188.1070  176.3630  141.9470 C   0  0  0  0  0  2  0  0  0  0  0  0
  187.1520  176.4160  139.5590 C   0  0  0  0  0  0  0  0  0  0  0  0
  187.8060  175.2430  139.2010 O   0  0  0  0  0  1  0  0  0  0  0  0
  186.6550  177.1440  138.6570 O   0  0  0  0  0  0  0  0  0  0  0  0
  188.2320  175.9980  146.1000 C   0  0  0  0  0  2  0  0  0  0  0  0
  190.7220  176.0690  146.5900 C   0  0  0  0  0  0  0  0  0  0  0  0
  190.5730  175.3780  147.6350 O   0  0  0  0  0  0  0  0  0  0  0  0
  192.0330  176.4570  146.1640 N   0  0  0  0  0  0  0  0  0  0  0  0
  192.1910  177.1660  145.0090 O   0  0  0  0  0  0  0  0  0  0  0  0
  194.4360  176.1150  145.9750 C   0  0  0  0  0  2  0  0  0  0  0  0
  189.5830  176.4660  145.8230 N   0  0  0  0  0  2  0  0  0  0  0  0
  193.2190  176.0000  146.8880 C   0  0  0  0  0  2  0  0  0  0  0  0
  191.8560  175.3060  143.6930 F   0  0  0  0  0  0  0  0  0  0  0  0
  194.0730  175.6430  144.5650 C   0  0  0  0  0  2  0  0  0  0  0  0
  192.7620  176.2850  144.0630 C   0  0  2  0  0  3  0  0  0  0  0  0
  1  7  1  0  0  0  0
  2  8  1  0  0  0  0
  3  9  1  0  0  0  0
  4 12  2  0  0  0  0
  5  4  1  0  0  0  0
  6  2  1  0  0  0  0
  7 10  1  0  0  0  0
  7  2  2  0  0  0  0
  8  4  1  0  0  0  0
  8  3  2  0  0  0  0
  9 11  2  0  0  0  0
 10  5  2  0  0  0  0
 12 11  1  0  0  0  0
 13  1  2  0  0  0  0
 13 14  1  0  0  0  0
 14  6  1  0  0  0  0
 15 13  1  0  0  0  0
 16 15  1  0  0  0  0
 17 15  2  0  0  0  0
 18  3  1  0  0  0  0
 19 20  2  0  0  0  0
 21 19  1  0  0  0  0
 21 25  1  0  0  0  0
 22 21  1  0  0  0  0
 23 25  1  0  0  0  0
 24 18  1  0  0  0  0
 24 19  1  0  0  0  0
 27 23  1  0  0  0  0
 28 26  1  1  0  0  0
 28 27  1  0  0  0  0
 28 22  1  0  0  0  0
M  END
>  <MODEL>
9

>  <REMARK>
 VINA RESULT:      -7.7      2.058      2.917
  Name = 
  3 active torsions:
  status: ('A' for Active; 'I' for Inactive)
    1  A    between atoms: C_3  and  C_7
    2  A    between atoms: C_7  and  N_14
    3  A    between atoms: C_13  and  C_26
                            x       y       z     vdW  Elec       q    Type
                         _______ _______ _______ _____ _____    ______ ____

>  <TORSDO>
F 3

$$$$
