=
 OpenBabel11062418573D

 33 35  0  0  1  0  0  0  0  0999 V2000
  187.9020  176.3710  145.8980 C   0  0  0  0  0  0  0  0  0  0  0  0
  189.1360  174.7520  147.2280 C   0  0  0  0  0  3  0  0  0  0  0  0
  188.1420  175.7170  147.1140 C   0  0  0  0  0  3  0  0  0  0  0  0
  186.8970  177.3700  145.7840 C   0  0  0  0  0  0  0  0  0  0  0  0
  188.4850  176.7070  143.5570 C   0  0  0  0  0  3  0  0  0  0  0  0
  186.7190  178.0120  144.5510 C   0  0  0  0  0  3  0  0  0  0  0  0
  187.5000  177.6830  143.4460 C   0  0  0  0  0  0  0  0  0  0  0  0
  188.6980  176.0280  144.7650 C   0  0  0  0  0  0  0  0  0  0  0  0
  189.9100  174.4160  146.1220 C   0  0  0  0  0  3  0  0  0  0  0  0
  189.7090  175.0320  144.8790 C   0  0  0  0  0  0  0  0  0  0  0  0
  190.5700  174.6020  143.7410 C   0  0  0  0  0  0  0  0  0  0  0  0
  192.1580  174.4140  141.1750 C   0  0  1  0  0  3  0  0  0  0  0  0
  191.2470  172.9570  141.7370 P   0  0  2  0  0  0  0  0  0  0  0  0
  190.2350  173.5630  143.0310 N   0  0  0  0  0  0  0  0  0  0  0  0
  192.2020  171.9150  142.2780 O   0  0  0  0  0  0  0  0  0  0  0  0
  191.8390  175.3390  143.4810 C   0  0  0  0  0  3  0  0  0  0  0  0
  192.5700  175.2330  142.3620 C   0  0  0  0  0  3  0  0  0  0  0  0
  194.2950  173.6980  139.7430 C   0  0  0  0  0  0  0  0  0  0  0  0
  193.3320  174.0230  140.3910 C   0  0  0  0  0  0  0  0  0  0  0  0
  196.1970  174.3260  138.2990 C   0  0  0  0  0  1  0  0  0  0  0  0
  195.4130  173.3200  138.9910 N   0  0  0  0  0  2  0  0  0  0  0  0
  190.3100  172.3150  140.4760 O   0  0  0  0  0  0  0  0  0  0  0  0
  188.2620  173.2720  140.1830 O   0  0  0  0  0  1  0  0  0  0  0  0
  189.8540  173.4370  138.4280 C   0  0  0  0  0  1  0  0  0  0  0  0
  189.6260  173.4010  139.9250 C   0  0  2  0  0  3  0  0  0  0  0  0
  186.4810  178.5880  147.9420 O   0  0  0  0  0  1  0  0  0  0  0  0
  184.8130  177.4100  146.9350 O   0  0  0  0  0  0  0  0  0  0  0  0
  186.0140  177.7870  146.9060 C   0  0  0  0  0  0  0  0  0  0  0  0
  187.3090  178.4050  142.1600 C   0  0  0  0  0  2  0  0  0  0  0  0
  185.9800  178.8160  142.0440 O   0  0  0  0  0  0  0  0  0  0  0  0
  185.4240  178.0630  140.6360 P   0  0  0  0  0  0  0  0  0  0  0  0
  186.3860  177.2930  139.7600 O   0  0  0  0  0  0  0  0  0  0  0  0
  183.9640  178.1540  140.2550 O   0  0  0  0  0  0  0  0  0  0  0  0
  1  3  2  0  0  0  0
  3  2  1  0  0  0  0
  4  1  1  0  0  0  0
  4 28  1  0  0  0  0
  5  8  1  0  0  0  0
  6  4  2  0  0  0  0
  7  5  2  0  0  0  0
  7  6  1  0  0  0  0
  8 10  2  0  0  0  0
  8  1  1  0  0  0  0
  9  2  2  0  0  0  0
 10  9  1  0  0  0  0
 11 10  1  0  0  0  0
 12 19  1  1  0  0  0
 12 13  1  0  0  0  0
 12 17  1  0  0  0  0
 13 15  2  1  0  0  0
 13 14  1  0  0  0  0
 14 11  2  0  0  0  0
 16 11  1  0  0  0  0
 17 16  2  0  0  0  0
 18 19  3  0  0  0  0
 20 21  1  0  0  0  0
 21 18  1  0  0  0  0
 22 13  1  0  0  0  0
 25 24  1  6  0  0  0
 25 23  1  0  0  0  0
 25 22  1  0  0  0  0
 28 27  2  0  0  0  0
 28 26  1  0  0  0  0
 29  7  1  0  0  0  0
 30 29  1  0  0  0  0
 31 30  1  0  0  0  0
 32 31  2  0  0  0  0
 33 31  2  0  0  0  0
M  END
>  <MODEL>
1

>  <REMARK>
 VINA RESULT:      -6.6      0.000      0.000
  Name = 
  9 active torsions:
  status: ('A' for Active; 'I' for Inactive)
    1  A    between atoms: O_4  and  P_14
    2  A    between atoms: O_4  and  C_29
    3  A    between atoms: P_7  and  O_17
    4  A    between atoms: C_9  and  O_17
    5  A    between atoms: C_9  and  C_24
    6  A    between atoms: C_10  and  C_28
    7  A    between atoms: C_11  and  C_25
    8  A    between atoms: C_12  and  C_32
    9  A    between atoms: N_21  and  C_23
                            x       y       z     vdW  Elec       q    Type
                         _______ _______ _______ _____ _____    ______ ____

>  <TORSDO>
F 9

$$$$
=
 OpenBabel11062418573D

 33 35  0  0  1  0  0  0  0  0999 V2000
  194.4170  174.0580  145.4850 C   0  0  0  0  0  0  0  0  0  0  0  0
  194.7170  176.2650  146.4620 C   0  0  0  0  0  3  0  0  0  0  0  0
  195.2420  175.0560  146.0200 C   0  0  0  0  0  3  0  0  0  0  0  0
  194.9510  172.8150  145.0480 C   0  0  0  0  0  0  0  0  0  0  0  0
  192.1810  173.2900  144.8970 C   0  0  0  0  0  3  0  0  0  0  0  0
  194.0750  171.8410  144.5480 C   0  0  0  0  0  3  0  0  0  0  0  0
  192.7050  172.0750  144.4680 C   0  0  0  0  0  0  0  0  0  0  0  0
  193.0140  174.3020  145.3970 C   0  0  0  0  0  0  0  0  0  0  0  0
  193.3490  176.5020  146.3730 C   0  0  0  0  0  3  0  0  0  0  0  0
  192.4760  175.5430  145.8400 C   0  0  0  0  0  0  0  0  0  0  0  0
  191.0280  175.8840  145.7650 C   0  0  0  0  0  0  0  0  0  0  0  0
  188.0140  175.9400  145.9990 C   0  0  1  0  0  3  0  0  0  0  0  0
  188.7710  176.4780  144.4470 P   0  0  2  0  0  0  0  0  0  0  0  0
  190.4470  175.9970  144.6040 N   0  0  0  0  0  0  0  0  0  0  0  0
  188.6810  177.9830  144.3120 O   0  0  0  0  0  0  0  0  0  0  0  0
  190.2860  176.1560  147.0290 C   0  0  0  0  0  3  0  0  0  0  0  0
  188.9510  176.2200  147.1350 C   0  0  0  0  0  3  0  0  0  0  0  0
  185.6760  177.1690  146.3870 C   0  0  0  0  0  0  0  0  0  0  0  0
  186.7320  176.6160  146.2140 C   0  0  0  0  0  0  0  0  0  0  0  0
  183.9890  178.8110  145.6420 C   0  0  0  0  0  1  0  0  0  0  0  0
  184.4490  177.8130  146.5880 N   0  0  0  0  0  2  0  0  0  0  0  0
  188.0340  175.7120  143.1250 O   0  0  0  0  0  0  0  0  0  0  0  0
  185.9030  176.4560  142.8070 O   0  0  0  0  0  1  0  0  0  0  0  0
  187.4490  176.6410  141.0140 C   0  0  0  0  0  1  0  0  0  0  0  0
  187.2450  176.6900  142.5150 C   0  0  2  0  0  3  0  0  0  0  0  0
  196.9780  171.9020  146.2200 O   0  0  0  0  0  1  0  0  0  0  0  0
  197.1310  172.7100  144.0960 O   0  0  0  0  0  0  0  0  0  0  0  0
  196.3980  172.4750  145.0940 C   0  0  0  0  0  0  0  0  0  0  0  0
  191.7980  171.0100  143.9640 C   0  0  0  0  0  2  0  0  0  0  0  0
  191.8130  171.0010  142.5680 O   0  0  0  0  0  0  0  0  0  0  0  0
  190.2770  171.5460  142.1220 P   0  0  0  0  0  0  0  0  0  0  0  0
  189.9390  171.7400  140.6600 O   0  0  0  0  0  0  0  0  0  0  0  0
  189.2380  171.8350  143.1810 O   0  0  0  0  0  0  0  0  0  0  0  0
  1  3  1  0  0  0  0
  3  2  2  0  0  0  0
  4 28  1  0  0  0  0
  4  1  2  0  0  0  0
  5  8  2  0  0  0  0
  6  4  1  0  0  0  0
  7  6  2  0  0  0  0
  7  5  1  0  0  0  0
  8  1  1  0  0  0  0
  8 10  1  0  0  0  0
  9  2  1  0  0  0  0
 10  9  2  0  0  0  0
 11 10  1  0  0  0  0
 11 16  1  0  0  0  0
 12 19  1  1  0  0  0
 12 17  1  0  0  0  0
 13 15  2  6  0  0  0
 13 14  1  0  0  0  0
 13 12  1  0  0  0  0
 14 11  2  0  0  0  0
 16 17  2  0  0  0  0
 18 21  1  0  0  0  0
 19 18  3  0  0  0  0
 20 21  1  0  0  0  0
 22 13  1  0  0  0  0
 25 24  1  6  0  0  0
 25 23  1  0  0  0  0
 25 22  1  0  0  0  0
 27 28  2  0  0  0  0
 28 26  1  0  0  0  0
 29  7  1  0  0  0  0
 30 29  1  0  0  0  0
 31 30  1  0  0  0  0
 31 33  2  0  0  0  0
 32 31  2  0  0  0  0
M  END
>  <MODEL>
2

>  <REMARK>
 VINA RESULT:      -6.6      3.505      8.173
  Name = 
  9 active torsions:
  status: ('A' for Active; 'I' for Inactive)
    1  A    between atoms: O_4  and  P_14
    2  A    between atoms: O_4  and  C_29
    3  A    between atoms: P_7  and  O_17
    4  A    between atoms: C_9  and  O_17
    5  A    between atoms: C_9  and  C_24
    6  A    between atoms: C_10  and  C_28
    7  A    between atoms: C_11  and  C_25
    8  A    between atoms: C_12  and  C_32
    9  A    between atoms: N_21  and  C_23
                            x       y       z     vdW  Elec       q    Type
                         _______ _______ _______ _____ _____    ______ ____

>  <TORSDO>
F 9

$$$$
=
 OpenBabel11062418573D

 33 35  0  0  1  0  0  0  0  0999 V2000
  188.0730  176.2430  145.9500 C   0  0  0  0  0  0  0  0  0  0  0  0
  189.3100  174.8420  147.5070 C   0  0  0  0  0  3  0  0  0  0  0  0
  188.1970  175.6160  147.1980 C   0  0  0  0  0  3  0  0  0  0  0  0
  186.9430  177.0480  145.6390 C   0  0  0  0  0  0  0  0  0  0  0  0
  189.0090  176.7280  143.7550 C   0  0  0  0  0  3  0  0  0  0  0  0
  186.8850  177.6750  144.3870 C   0  0  0  0  0  3  0  0  0  0  0  0
  187.9030  177.5150  143.4510 C   0  0  0  0  0  0  0  0  0  0  0  0
  189.1140  176.0720  144.9900 C   0  0  0  0  0  0  0  0  0  0  0  0
  190.3230  174.6740  146.5680 C   0  0  0  0  0  3  0  0  0  0  0  0
  190.2480  175.2720  145.3010 C   0  0  0  0  0  0  0  0  0  0  0  0
  191.3680  175.0270  144.3490 C   0  0  0  0  0  0  0  0  0  0  0  0
  193.6610  173.8650  142.7580 C   0  0  1  0  0  3  0  0  0  0  0  0
  193.7340  175.6080  143.2330 P   0  0  2  0  0  0  0  0  0  0  0  0
  192.4230  175.7900  144.3800 N   0  0  0  0  0  0  0  0  0  0  0  0
  193.4890  176.4920  142.0300 O   0  0  0  0  0  0  0  0  0  0  0  0
  191.2240  173.9470  143.3320 C   0  0  0  0  0  3  0  0  0  0  0  0
  192.2290  173.4520  142.5940 C   0  0  0  0  0  3  0  0  0  0  0  0
  195.0190  173.4350  140.4990 C   0  0  0  0  0  0  0  0  0  0  0  0
  194.4050  173.6320  141.5180 C   0  0  0  0  0  0  0  0  0  0  0  0
  197.0280  173.8280  139.1190 C   0  0  0  0  0  1  0  0  0  0  0  0
  195.7310  173.2080  139.3170 N   0  0  0  0  0  2  0  0  0  0  0  0
  195.2290  175.9700  143.9490 O   0  0  0  0  0  0  0  0  0  0  0  0
  195.3130  175.2810  146.1210 O   0  0  0  0  0  1  0  0  0  0  0  0
  196.9520  174.4650  144.6060 C   0  0  0  0  0  1  0  0  0  0  0  0
  195.5110  174.8950  144.7960 C   0  0  2  0  0  3  0  0  0  0  0  0
  185.8620  178.2520  147.5620 O   0  0  0  0  0  1  0  0  0  0  0  0
  184.7660  176.5740  146.4800 O   0  0  0  0  0  0  0  0  0  0  0  0
  185.8080  177.2770  146.5730 C   0  0  0  0  0  0  0  0  0  0  0  0
  187.8270  178.2190  142.1430 C   0  0  0  0  0  2  0  0  0  0  0  0
  186.5400  178.7240  141.9550 O   0  0  0  0  0  0  0  0  0  0  0  0
  185.9380  177.8710  140.6250 P   0  0  0  0  0  0  0  0  0  0  0  0
  184.4840  178.0100  140.2340 O   0  0  0  0  0  0  0  0  0  0  0  0
  186.8530  176.9730  139.8240 O   0  0  0  0  0  0  0  0  0  0  0  0
  1  3  2  0  0  0  0
  3  2  1  0  0  0  0
  4  1  1  0  0  0  0
  4 28  1  0  0  0  0
  5  8  1  0  0  0  0
  6  4  2  0  0  0  0
  7  5  2  0  0  0  0
  7  6  1  0  0  0  0
  8 10  2  0  0  0  0
  8  1  1  0  0  0  0
  9  2  2  0  0  0  0
 10  9  1  0  0  0  0
 11 14  2  0  0  0  0
 11 10  1  0  0  0  0
 12 19  1  6  0  0  0
 12 13  1  0  0  0  0
 13 15  2  6  0  0  0
 13 22  1  0  0  0  0
 13 14  1  0  0  0  0
 16 11  1  0  0  0  0
 17 12  1  0  0  0  0
 17 16  2  0  0  0  0
 18 19  3  0  0  0  0
 20 21  1  0  0  0  0
 21 18  1  0  0  0  0
 22 25  1  0  0  0  0
 25 24  1  1  0  0  0
 25 23  1  0  0  0  0
 27 28  2  0  0  0  0
 28 26  1  0  0  0  0
 29  7  1  0  0  0  0
 30 29  1  0  0  0  0
 31 30  1  0  0  0  0
 32 31  2  0  0  0  0
 33 31  2  0  0  0  0
M  END
>  <MODEL>
3

>  <REMARK>
 VINA RESULT:      -6.5      2.289      3.373
  Name = 
  9 active torsions:
  status: ('A' for Active; 'I' for Inactive)
    1  A    between atoms: O_4  and  P_14
    2  A    between atoms: O_4  and  C_29
    3  A    between atoms: P_7  and  O_17
    4  A    between atoms: C_9  and  O_17
    5  A    between atoms: C_9  and  C_24
    6  A    between atoms: C_10  and  C_28
    7  A    between atoms: C_11  and  C_25
    8  A    between atoms: C_12  and  C_32
    9  A    between atoms: N_21  and  C_23
                            x       y       z     vdW  Elec       q    Type
                         _______ _______ _______ _____ _____    ______ ____

>  <TORSDO>
F 9

$$$$
=
 OpenBabel11062418573D

 33 35  0  0  1  0  0  0  0  0999 V2000
  186.4710  177.7460  143.0630 C   0  0  0  0  0  0  0  0  0  0  0  0
  186.4920  177.5350  140.6400 C   0  0  0  0  0  3  0  0  0  0  0  0
  186.0570  178.1760  141.7950 C   0  0  0  0  0  3  0  0  0  0  0  0
  186.0140  178.3900  144.2450 C   0  0  0  0  0  0  0  0  0  0  0  0
  187.7450  176.1780  144.4230 C   0  0  0  0  0  3  0  0  0  0  0  0
  186.4370  177.9000  145.4880 C   0  0  0  0  0  3  0  0  0  0  0  0
  187.2980  176.8090  145.5800 C   0  0  0  0  0  0  0  0  0  0  0  0
  187.3580  176.6330  143.1540 C   0  0  0  0  0  0  0  0  0  0  0  0
  187.3600  176.4510  140.7310 C   0  0  0  0  0  3  0  0  0  0  0  0
  187.8130  175.9840  141.9730 C   0  0  0  0  0  0  0  0  0  0  0  0
  188.7530  174.8280  141.9800 C   0  0  0  0  0  0  0  0  0  0  0  0
  190.3130  172.3220  142.6360 C   0  0  1  0  0  3  0  0  0  0  0  0
  191.1950  173.7260  141.9160 P   0  0  2  0  0  0  0  0  0  0  0  0
  190.0390  175.0390  141.9920 N   0  0  0  0  0  0  0  0  0  0  0  0
  191.5510  173.4400  140.4730 O   0  0  0  0  0  0  0  0  0  0  0  0
  188.1970  173.4470  141.9060 C   0  0  0  0  0  3  0  0  0  0  0  0
  188.8920  172.3280  142.1580 C   0  0  0  0  0  3  0  0  0  0  0  0
  191.5010  170.0200  141.9890 C   0  0  0  0  0  0  0  0  0  0  0  0
  190.9660  171.0600  142.2830 C   0  0  0  0  0  0  0  0  0  0  0  0
  193.0350  168.1770  142.5790 C   0  0  0  0  0  1  0  0  0  0  0  0
  192.1200  168.8130  141.6490 N   0  0  0  0  0  2  0  0  0  0  0  0
  192.5880  174.0830  142.8170 O   0  0  0  0  0  0  0  0  0  0  0  0
  192.3850  175.6820  144.4300 O   0  0  0  0  0  1  0  0  0  0  0  0
  192.8730  173.4540  145.0940 C   0  0  0  0  0  1  0  0  0  0  0  0
  192.1400  174.3460  144.1140 C   0  0  2  0  0  3  0  0  0  0  0  0
  183.7140  179.4040  144.2280 O   0  0  0  0  0  0  0  0  0  0  0  0
  185.5670  180.7290  144.2620 O   0  0  0  0  0  1  0  0  0  0  0  0
  185.0950  179.5600  144.2470 C   0  0  0  0  0  0  0  0  0  0  0  0
  187.7040  176.2930  146.9140 C   0  0  0  0  0  2  0  0  0  0  0  0
  189.0010  176.7150  147.2070 O   0  0  0  0  0  0  0  0  0  0  0  0
  189.9110  175.2910  147.2580 P   0  0  0  0  0  0  0  0  0  0  0  0
  191.2820  175.2930  147.8960 O   0  0  0  0  0  0  0  0  0  0  0  0
  189.3520  174.0140  146.6730 O   0  0  0  0  0  0  0  0  0  0  0  0
  1  8  1  0  0  0  0
  1  4  1  0  0  0  0
  2  9  2  0  0  0  0
  2  3  1  0  0  0  0
  3  1  2  0  0  0  0
  4 28  1  0  0  0  0
  4  6  2  0  0  0  0
  5  7  2  0  0  0  0
  6  7  1  0  0  0  0
  7 29  1  0  0  0  0
  8  5  1  0  0  0  0
  9 10  1  0  0  0  0
 10 11  1  0  0  0  0
 10  8  2  0  0  0  0
 11 14  2  0  0  0  0
 12 19  1  6  0  0  0
 13 15  2  6  0  0  0
 13 14  1  0  0  0  0
 13 12  1  0  0  0  0
 13 22  1  0  0  0  0
 16 11  1  0  0  0  0
 16 17  2  0  0  0  0
 17 12  1  0  0  0  0
 18 19  3  0  0  0  0
 21 18  1  0  0  0  0
 21 20  1  0  0  0  0
 22 25  1  0  0  0  0
 25 23  1  0  0  0  0
 25 24  1  1  0  0  0
 26 28  2  0  0  0  0
 28 27  1  0  0  0  0
 29 30  1  0  0  0  0
 30 31  1  0  0  0  0
 31 32  2  0  0  0  0
 33 31  2  0  0  0  0
M  END
>  <MODEL>
4

>  <REMARK>
 VINA RESULT:      -6.4      3.266      5.223
  Name = 
  9 active torsions:
  status: ('A' for Active; 'I' for Inactive)
    1  A    between atoms: O_4  and  P_14
    2  A    between atoms: O_4  and  C_29
    3  A    between atoms: P_7  and  O_17
    4  A    between atoms: C_9  and  O_17
    5  A    between atoms: C_9  and  C_24
    6  A    between atoms: C_10  and  C_28
    7  A    between atoms: C_11  and  C_25
    8  A    between atoms: C_12  and  C_32
    9  A    between atoms: N_21  and  C_23
                            x       y       z     vdW  Elec       q    Type
                         _______ _______ _______ _____ _____    ______ ____

>  <TORSDO>
F 9

$$$$
=
 OpenBabel11062418573D

 33 35  0  0  1  0  0  0  0  0999 V2000
  187.6160  177.1070  145.6380 C   0  0  0  0  0  0  0  0  0  0  0  0
  188.9480  177.7400  147.5720 C   0  0  0  0  0  3  0  0  0  0  0  0
  187.7280  177.6900  146.9070 C   0  0  0  0  0  3  0  0  0  0  0  0
  186.3730  177.0700  144.9490 C   0  0  0  0  0  0  0  0  0  0  0  0
  188.6830  176.0070  143.7450 C   0  0  0  0  0  3  0  0  0  0  0  0
  186.3260  176.5010  143.6700 C   0  0  0  0  0  3  0  0  0  0  0  0
  187.4660  175.9700  143.0730 C   0  0  0  0  0  0  0  0  0  0  0  0
  188.7850  176.5580  145.0300 C   0  0  0  0  0  0  0  0  0  0  0  0
  190.0850  177.2010  146.9800 C   0  0  0  0  0  3  0  0  0  0  0  0
  190.0310  176.5990  145.7150 C   0  0  0  0  0  0  0  0  0  0  0  0
  191.2920  176.0310  145.1600 C   0  0  0  0  0  0  0  0  0  0  0  0
  193.4770  174.9210  143.3890 C   0  0  1  0  0  3  0  0  0  0  0  0
  193.2330  174.1880  145.0230 P   0  0  2  0  0  0  0  0  0  0  0  0
  191.7170  174.8700  145.5720 N   0  0  0  0  0  0  0  0  0  0  0  0
  194.3500  174.6010  145.9580 O   0  0  0  0  0  0  0  0  0  0  0  0
  192.0790  176.8400  144.1870 C   0  0  0  0  0  3  0  0  0  0  0  0
  193.0750  176.3650  143.4250 C   0  0  0  0  0  3  0  0  0  0  0  0
  196.0200  174.6780  142.6140 C   0  0  0  0  0  0  0  0  0  0  0  0
  194.8710  174.7890  142.9610 C   0  0  0  0  0  0  0  0  0  0  0  0
  197.7770  175.0630  140.9220 C   0  0  0  0  0  1  0  0  0  0  0  0
  197.3540  174.5500  142.2110 N   0  0  0  0  0  2  0  0  0  0  0  0
  193.1400  172.4970  144.9120 O   0  0  0  0  0  0  0  0  0  0  0  0
  191.0640  171.6920  144.4200 O   0  0  0  0  0  1  0  0  0  0  0  0
  192.8390  171.2570  142.9030 C   0  0  0  0  0  1  0  0  0  0  0  0
  192.2300  172.2380  143.8840 C   0  0  2  0  0  3  0  0  0  0  0  0
  184.5150  178.7620  144.9940 O   0  0  0  0  0  0  0  0  0  0  0  0
  184.5390  177.0250  146.4670 O   0  0  0  0  0  1  0  0  0  0  0  0
  185.1040  177.6110  145.5060 C   0  0  0  0  0  0  0  0  0  0  0  0
  187.3900  175.4020  141.7000 C   0  0  0  0  0  2  0  0  0  0  0  0
  188.6450  174.9270  141.3180 O   0  0  0  0  0  0  0  0  0  0  0  0
  188.4360  173.2580  141.1510 P   0  0  0  0  0  0  0  0  0  0  0  0
  188.1850  172.6610  139.7850 O   0  0  0  0  0  0  0  0  0  0  0  0
  188.5060  172.3610  142.3660 O   0  0  0  0  0  0  0  0  0  0  0  0
  1  3  1  0  0  0  0
  3  2  2  0  0  0  0
  4 28  1  0  0  0  0
  4  1  2  0  0  0  0
  5  8  2  0  0  0  0
  6  4  1  0  0  0  0
  7  6  2  0  0  0  0
  7  5  1  0  0  0  0
  8  1  1  0  0  0  0
  8 10  1  0  0  0  0
  9  2  1  0  0  0  0
 10  9  2  0  0  0  0
 11 14  2  0  0  0  0
 11 10  1  0  0  0  0
 12 19  1  1  0  0  0
 12 17  1  0  0  0  0
 12 13  1  0  0  0  0
 13 14  1  0  0  0  0
 13 15  2  1  0  0  0
 16 11  1  0  0  0  0
 17 16  2  0  0  0  0
 18 19  3  0  0  0  0
 20 21  1  0  0  0  0
 21 18  1  0  0  0  0
 22 13  1  0  0  0  0
 25 24  1  6  0  0  0
 25 23  1  0  0  0  0
 25 22  1  0  0  0  0
 26 28  2  0  0  0  0
 28 27  1  0  0  0  0
 29  7  1  0  0  0  0
 30 29  1  0  0  0  0
 31 30  1  0  0  0  0
 31 33  2  0  0  0  0
 32 31  2  0  0  0  0
M  END
>  <MODEL>
5

>  <REMARK>
 VINA RESULT:      -6.1      2.747      3.599
  Name = 
  9 active torsions:
  status: ('A' for Active; 'I' for Inactive)
    1  A    between atoms: O_4  and  P_14
    2  A    between atoms: O_4  and  C_29
    3  A    between atoms: P_7  and  O_17
    4  A    between atoms: C_9  and  O_17
    5  A    between atoms: C_9  and  C_24
    6  A    between atoms: C_10  and  C_28
    7  A    between atoms: C_11  and  C_25
    8  A    between atoms: C_12  and  C_32
    9  A    between atoms: N_21  and  C_23
                            x       y       z     vdW  Elec       q    Type
                         _______ _______ _______ _____ _____    ______ ____

>  <TORSDO>
F 9

$$$$
=
 OpenBabel11062418573D

 33 35  0  0  1  0  0  0  0  0999 V2000
  192.4420  174.2350  144.9820 C   0  0  0  0  0  0  0  0  0  0  0  0
  192.6460  176.3890  146.0940 C   0  0  0  0  0  3  0  0  0  0  0  0
  193.1420  175.1210  145.8130 C   0  0  0  0  0  3  0  0  0  0  0  0
  192.9400  172.9320  144.7070 C   0  0  0  0  0  0  0  0  0  0  0  0
  190.4800  173.7610  143.6190 C   0  0  0  0  0  3  0  0  0  0  0  0
  192.1840  172.0780  143.8930 C   0  0  0  0  0  3  0  0  0  0  0  0
  190.9690  172.4870  143.3500 C   0  0  0  0  0  0  0  0  0  0  0  0
  191.2010  174.6580  144.4210 C   0  0  0  0  0  0  0  0  0  0  0  0
  191.4370  176.8010  145.5430 C   0  0  0  0  0  3  0  0  0  0  0  0
  190.6980  175.9600  144.6990 C   0  0  0  0  0  0  0  0  0  0  0  0
  189.4220  176.4850  144.1380 C   0  0  0  0  0  0  0  0  0  0  0  0
  187.2840  178.0680  142.7010 C   0  0  1  0  0  3  0  0  0  0  0  0
  186.9130  177.4060  144.3420 P   0  0  2  0  0  0  0  0  0  0  0  0
  188.4660  176.8610  144.9400 N   0  0  0  0  0  0  0  0  0  0  0  0
  185.9640  176.2320  144.2340 O   0  0  0  0  0  0  0  0  0  0  0  0
  189.2420  176.5070  142.6580 C   0  0  0  0  0  3  0  0  0  0  0  0
  188.2740  177.1750  142.0150 C   0  0  0  0  0  3  0  0  0  0  0  0
  185.0590  178.2930  141.2420 C   0  0  0  0  0  0  0  0  0  0  0  0
  186.0630  178.1890  141.9010 C   0  0  0  0  0  0  0  0  0  0  0  0
  182.5930  178.2830  141.1100 C   0  0  0  0  0  1  0  0  0  0  0  0
  183.8920  178.4140  140.4780 N   0  0  0  0  0  2  0  0  0  0  0  0
  186.2620  178.6130  145.3410 O   0  0  0  0  0  0  0  0  0  0  0  0
  184.1310  178.6470  146.1500 O   0  0  0  0  0  1  0  0  0  0  0  0
  185.8800  177.9270  147.5870 C   0  0  0  0  0  1  0  0  0  0  0  0
  185.3460  177.9620  146.1700 C   0  0  2  0  0  3  0  0  0  0  0  0
  195.4500  172.9290  144.8370 O   0  0  0  0  0  0  0  0  0  0  0  0
  194.2210  171.4670  146.0790 O   0  0  0  0  0  1  0  0  0  0  0  0
  194.2260  172.4090  145.2420 C   0  0  0  0  0  0  0  0  0  0  0  0
  190.1740  171.5460  142.5160 C   0  0  0  0  0  2  0  0  0  0  0  0
  189.3930  172.2640  141.6100 O   0  0  0  0  0  0  0  0  0  0  0  0
  190.0720  171.9240  140.0990 P   0  0  0  0  0  0  0  0  0  0  0  0
  189.1970  171.8970  138.8660 O   0  0  0  0  0  0  0  0  0  0  0  0
  191.5540  171.6510  139.9790 O   0  0  0  0  0  0  0  0  0  0  0  0
  1  3  2  0  0  0  0
  3  2  1  0  0  0  0
  4  1  1  0  0  0  0
  4 28  1  0  0  0  0
  5  8  1  0  0  0  0
  6  4  2  0  0  0  0
  7  5  2  0  0  0  0
  7  6  1  0  0  0  0
  8 10  2  0  0  0  0
  8  1  1  0  0  0  0
  9  2  2  0  0  0  0
 10  9  1  0  0  0  0
 11 10  1  0  0  0  0
 11 14  2  0  0  0  0
 12 19  1  6  0  0  0
 12 13  1  0  0  0  0
 13 15  2  6  0  0  0
 13 14  1  0  0  0  0
 13 22  1  0  0  0  0
 16 11  1  0  0  0  0
 17 16  2  0  0  0  0
 17 12  1  0  0  0  0
 18 19  3  0  0  0  0
 21 20  1  0  0  0  0
 21 18  1  0  0  0  0
 22 25  1  0  0  0  0
 23 25  1  0  0  0  0
 25 24  1  1  0  0  0
 26 28  2  0  0  0  0
 28 27  1  0  0  0  0
 29  7  1  0  0  0  0
 30 29  1  0  0  0  0
 31 30  1  0  0  0  0
 32 31  2  0  0  0  0
 33 31  2  0  0  0  0
M  END
>  <MODEL>
6

>  <REMARK>
 VINA RESULT:      -6.0      3.475      7.835
  Name = 
  9 active torsions:
  status: ('A' for Active; 'I' for Inactive)
    1  A    between atoms: O_4  and  P_14
    2  A    between atoms: O_4  and  C_29
    3  A    between atoms: P_7  and  O_17
    4  A    between atoms: C_9  and  O_17
    5  A    between atoms: C_9  and  C_24
    6  A    between atoms: C_10  and  C_28
    7  A    between atoms: C_11  and  C_25
    8  A    between atoms: C_12  and  C_32
    9  A    between atoms: N_21  and  C_23
                            x       y       z     vdW  Elec       q    Type
                         _______ _______ _______ _____ _____    ______ ____

>  <TORSDO>
F 9

$$$$
=
 OpenBabel11062418573D

 33 35  0  0  1  0  0  0  0  0999 V2000
  187.2130  177.0440  143.0970 C   0  0  0  0  0  0  0  0  0  0  0  0
  187.3730  176.1120  140.8560 C   0  0  0  0  0  3  0  0  0  0  0  0
  186.7710  176.9710  141.7680 C   0  0  0  0  0  3  0  0  0  0  0  0
  186.5880  177.9100  144.0350 C   0  0  0  0  0  0  0  0  0  0  0  0
  188.7210  176.2610  144.8410 C   0  0  0  0  0  3  0  0  0  0  0  0
  187.0520  177.9210  145.3570 C   0  0  0  0  0  3  0  0  0  0  0  0
  188.1100  177.1100  145.7580 C   0  0  0  0  0  0  0  0  0  0  0  0
  188.3010  176.2170  143.5040 C   0  0  0  0  0  0  0  0  0  0  0  0
  188.4370  175.3090  141.2540 C   0  0  0  0  0  3  0  0  0  0  0  0
  188.9250  175.3460  142.5680 C   0  0  0  0  0  0  0  0  0  0  0  0
  190.0780  174.4650  142.9060 C   0  0  0  0  0  0  0  0  0  0  0  0
  192.1460  172.7450  144.2870 C   0  0  1  0  0  3  0  0  0  0  0  0
  192.6840  173.8440  142.9550 P   0  0  2  0  0  0  0  0  0  0  0  0
  191.2930  174.8650  142.6600 N   0  0  0  0  0  0  0  0  0  0  0  0
  193.0070  173.0440  141.7120 O   0  0  0  0  0  0  0  0  0  0  0  0
  189.8090  173.1090  143.4640 C   0  0  0  0  0  3  0  0  0  0  0  0
  190.7280  172.3240  144.0430 C   0  0  0  0  0  3  0  0  0  0  0  0
  193.7370  170.6070  144.4530 C   0  0  0  0  0  0  0  0  0  0  0  0
  193.0200  171.5730  144.3800 C   0  0  0  0  0  0  0  0  0  0  0  0
  194.6080  168.7000  145.7570 C   0  0  0  0  0  1  0  0  0  0  0  0
  194.5680  169.4850  144.5380 N   0  0  0  0  0  2  0  0  0  0  0  0
  194.0260  174.7610  143.4430 O   0  0  0  0  0  0  0  0  0  0  0  0
  193.5020  176.6660  144.5810 O   0  0  0  0  0  1  0  0  0  0  0  0
  194.8020  175.0090  145.6790 C   0  0  0  0  0  1  0  0  0  0  0  0
  193.6870  175.2890  144.6910 C   0  0  2  0  0  3  0  0  0  0  0  0
  185.5330  180.1870  143.8910 O   0  0  0  0  0  1  0  0  0  0  0  0
  184.3850  178.3320  143.2350 O   0  0  0  0  0  0  0  0  0  0  0  0
  185.4530  178.8120  143.7000 C   0  0  0  0  0  0  0  0  0  0  0  0
  188.5580  177.1200  147.1760 C   0  0  0  0  0  2  0  0  0  0  0  0
  189.8040  177.7430  147.2720 O   0  0  0  0  0  0  0  0  0  0  0  0
  190.8840  176.4850  147.6050 P   0  0  0  0  0  0  0  0  0  0  0  0
  190.3660  175.0800  147.8140 O   0  0  0  0  0  0  0  0  0  0  0  0
  192.3670  176.7640  147.6880 O   0  0  0  0  0  0  0  0  0  0  0  0
  1  8  1  0  0  0  0
  1  4  1  0  0  0  0
  2  9  2  0  0  0  0
  2  3  1  0  0  0  0
  3  1  2  0  0  0  0
  4  6  2  0  0  0  0
  5  7  2  0  0  0  0
  6  7  1  0  0  0  0
  7 29  1  0  0  0  0
  8  5  1  0  0  0  0
  9 10  1  0  0  0  0
 10 11  1  0  0  0  0
 10  8  2  0  0  0  0
 11 16  1  0  0  0  0
 12 19  1  6  0  0  0
 13 15  2  6  0  0  0
 13 22  1  0  0  0  0
 13 12  1  0  0  0  0
 14 11  2  0  0  0  0
 14 13  1  0  0  0  0
 16 17  2  0  0  0  0
 17 12  1  0  0  0  0
 18 21  1  0  0  0  0
 19 18  3  0  0  0  0
 21 20  1  0  0  0  0
 22 25  1  0  0  0  0
 23 25  1  0  0  0  0
 25 24  1  1  0  0  0
 27 28  2  0  0  0  0
 28 26  1  0  0  0  0
 28  4  1  0  0  0  0
 29 30  1  0  0  0  0
 30 31  1  0  0  0  0
 31 33  2  0  0  0  0
 31 32  2  0  0  0  0
M  END
>  <MODEL>
7

>  <REMARK>
 VINA RESULT:      -6.0      3.401      5.480
  Name = 
  9 active torsions:
  status: ('A' for Active; 'I' for Inactive)
    1  A    between atoms: O_4  and  P_14
    2  A    between atoms: O_4  and  C_29
    3  A    between atoms: P_7  and  O_17
    4  A    between atoms: C_9  and  O_17
    5  A    between atoms: C_9  and  C_24
    6  A    between atoms: C_10  and  C_28
    7  A    between atoms: C_11  and  C_25
    8  A    between atoms: C_12  and  C_32
    9  A    between atoms: N_21  and  C_23
                            x       y       z     vdW  Elec       q    Type
                         _______ _______ _______ _____ _____    ______ ____

>  <TORSDO>
F 9

$$$$
=
 OpenBabel11062418573D

 33 35  0  0  1  0  0  0  0  0999 V2000
  187.9450  176.2840  145.9720 C   0  0  0  0  0  0  0  0  0  0  0  0
  189.1480  174.5720  147.2110 C   0  0  0  0  0  3  0  0  0  0  0  0
  188.2920  175.6670  147.1820 C   0  0  0  0  0  3  0  0  0  0  0  0
  187.0840  177.4150  145.9420 C   0  0  0  0  0  0  0  0  0  0  0  0
  188.1700  176.4060  143.5500 C   0  0  0  0  0  3  0  0  0  0  0  0
  186.7940  178.0100  144.7070 C   0  0  0  0  0  3  0  0  0  0  0  0
  187.3260  177.5110  143.5220 C   0  0  0  0  0  0  0  0  0  0  0  0
  188.4860  175.7670  144.7580 C   0  0  0  0  0  0  0  0  0  0  0  0
  189.6720  174.0660  146.0260 C   0  0  0  0  0  3  0  0  0  0  0  0
  189.3530  174.6390  144.7860 C   0  0  0  0  0  0  0  0  0  0  0  0
  189.9430  174.0260  143.5640 C   0  0  0  0  0  0  0  0  0  0  0  0
  190.8430  172.1550  141.3650 C   0  0  1  0  0  3  0  0  0  0  0  0
  191.9740  173.4570  141.9100 P   0  0  2  0  0  0  0  0  0  0  0  0
  191.2300  174.0830  143.3660 N   0  0  0  0  0  0  0  0  0  0  0  0
  192.0590  174.5500  140.8670 O   0  0  0  0  0  0  0  0  0  0  0  0
  189.0330  173.4130  142.5550 C   0  0  0  0  0  3  0  0  0  0  0  0
  189.4280  172.6130  141.5530 C   0  0  0  0  0  3  0  0  0  0  0  0
  191.2910  171.5230  138.8100 C   0  0  0  0  0  0  0  0  0  0  0  0
  191.0860  171.8080  139.9630 C   0  0  0  0  0  0  0  0  0  0  0  0
  190.4730  171.3450  136.4870 C   0  0  0  0  0  1  0  0  0  0  0  0
  191.5280  171.1940  137.4710 N   0  0  0  0  0  2  0  0  0  0  0  0
  193.5110  172.8160  142.2340 O   0  0  0  0  0  0  0  0  0  0  0  0
  195.1400  174.2330  141.5020 O   0  0  0  0  0  1  0  0  0  0  0  0
  195.1600  173.5600  143.7800 C   0  0  0  0  0  1  0  0  0  0  0  0
  194.3110  173.9100  142.5750 C   0  0  2  0  0  3  0  0  0  0  0  0
  187.2060  178.8030  148.0340 O   0  0  0  0  0  1  0  0  0  0  0  0
  185.2500  177.8190  147.4070 O   0  0  0  0  0  0  0  0  0  0  0  0
  186.4680  178.0180  147.1550 C   0  0  0  0  0  0  0  0  0  0  0  0
  187.0250  178.1850  142.2300 C   0  0  0  0  0  2  0  0  0  0  0  0
  186.2270  177.3550  141.4410 O   0  0  0  0  0  0  0  0  0  0  0  0
  184.7120  178.1060  141.4310 P   0  0  0  0  0  0  0  0  0  0  0  0
  184.1530  178.6590  140.1390 O   0  0  0  0  0  0  0  0  0  0  0  0
  183.9140  178.2190  142.7090 O   0  0  0  0  0  0  0  0  0  0  0  0
  1  3  2  0  0  0  0
  3  2  1  0  0  0  0
  4  1  1  0  0  0  0
  4 28  1  0  0  0  0
  5  8  1  0  0  0  0
  6  4  2  0  0  0  0
  7  5  2  0  0  0  0
  7  6  1  0  0  0  0
  8 10  2  0  0  0  0
  8  1  1  0  0  0  0
  9  2  2  0  0  0  0
 10  9  1  0  0  0  0
 11 10  1  0  0  0  0
 12 19  1  6  0  0  0
 12 17  1  0  0  0  0
 12 13  1  0  0  0  0
 13 15  2  6  0  0  0
 13 22  1  0  0  0  0
 13 14  1  0  0  0  0
 14 11  2  0  0  0  0
 16 11  1  0  0  0  0
 17 16  2  0  0  0  0
 18 19  3  0  0  0  0
 20 21  1  0  0  0  0
 21 18  1  0  0  0  0
 22 25  1  0  0  0  0
 23 25  1  0  0  0  0
 25 24  1  1  0  0  0
 28 27  2  0  0  0  0
 28 26  1  0  0  0  0
 29  7  1  0  0  0  0
 30 29  1  0  0  0  0
 31 30  1  0  0  0  0
 31 33  2  0  0  0  0
 32 31  2  0  0  0  0
M  END
>  <MODEL>
8

>  <REMARK>
 VINA RESULT:      -6.0      1.935      3.061
  Name = 
  9 active torsions:
  status: ('A' for Active; 'I' for Inactive)
    1  A    between atoms: O_4  and  P_14
    2  A    between atoms: O_4  and  C_29
    3  A    between atoms: P_7  and  O_17
    4  A    between atoms: C_9  and  O_17
    5  A    between atoms: C_9  and  C_24
    6  A    between atoms: C_10  and  C_28
    7  A    between atoms: C_11  and  C_25
    8  A    between atoms: C_12  and  C_32
    9  A    between atoms: N_21  and  C_23
                            x       y       z     vdW  Elec       q    Type
                         _______ _______ _______ _____ _____    ______ ____

>  <TORSDO>
F 9

$$$$
=
 OpenBabel11062418573D

 33 35  0  0  1  0  0  0  0  0999 V2000
  187.1400  176.7750  144.0370 C   0  0  0  0  0  0  0  0  0  0  0  0
  186.6560  176.9000  141.6570 C   0  0  0  0  0  3  0  0  0  0  0  0
  186.3830  177.2730  142.9680 C   0  0  0  0  0  3  0  0  0  0  0  0
  186.8510  177.1430  145.3800 C   0  0  0  0  0  0  0  0  0  0  0  0
  188.9410  175.3410  144.8300 C   0  0  0  0  0  3  0  0  0  0  0  0
  187.6220  176.5910  146.4120 C   0  0  0  0  0  3  0  0  0  0  0  0
  188.6600  175.7020  146.1430 C   0  0  0  0  0  0  0  0  0  0  0  0
  188.2070  175.8700  143.7590 C   0  0  0  0  0  0  0  0  0  0  0  0
  187.6990  176.0200  141.3870 C   0  0  0  0  0  3  0  0  0  0  0  0
  188.4940  175.4950  142.4170 C   0  0  0  0  0  0  0  0  0  0  0  0
  189.6010  174.5730  142.0400 C   0  0  0  0  0  0  0  0  0  0  0  0
  191.6080  172.3180  141.8700 C   0  0  1  0  0  3  0  0  0  0  0  0
  192.1630  173.9990  141.5020 P   0  0  2  0  0  0  0  0  0  0  0  0
  190.8290  175.0080  142.0190 N   0  0  0  0  0  0  0  0  0  0  0  0
  192.3870  174.1650  140.0150 O   0  0  0  0  0  0  0  0  0  0  0  0
  189.2690  173.1790  141.6290 C   0  0  0  0  0  3  0  0  0  0  0  0
  190.1580  172.1820  141.5140 C   0  0  0  0  0  3  0  0  0  0  0  0
  193.0700  170.5220  140.5410 C   0  0  0  0  0  0  0  0  0  0  0  0
  192.4080  171.3330  141.1390 C   0  0  0  0  0  0  0  0  0  0  0  0
  193.5330  168.1680  139.9570 C   0  0  0  0  0  1  0  0  0  0  0  0
  193.8390  169.5820  139.8460 N   0  0  0  0  0  2  0  0  0  0  0  0
  193.5770  174.3630  142.3660 O   0  0  0  0  0  0  0  0  0  0  0  0
  193.8210  176.0820  143.8450 O   0  0  0  0  0  1  0  0  0  0  0  0
  193.4380  173.8970  144.6960 C   0  0  0  0  0  1  0  0  0  0  0  0
  193.1470  174.8890  143.5870 C   0  0  2  0  0  3  0  0  0  0  0  0
  185.8920  179.4560  145.5880 O   0  0  0  0  0  0  0  0  0  0  0  0
  184.6980  177.6400  146.2670 O   0  0  0  0  0  1  0  0  0  0  0  0
  185.7640  178.0830  145.7640 C   0  0  0  0  0  0  0  0  0  0  0  0
  189.4380  175.1090  147.2630 C   0  0  0  0  0  2  0  0  0  0  0  0
  190.7590  174.9060  146.8620 O   0  0  0  0  0  0  0  0  0  0  0  0
  191.5930  176.2570  147.4430 P   0  0  0  0  0  0  0  0  0  0  0  0
  193.0210  176.5060  147.0110 O   0  0  0  0  0  0  0  0  0  0  0  0
  190.9110  177.2190  148.3880 O   0  0  0  0  0  0  0  0  0  0  0  0
  1  4  1  0  0  0  0
  2  3  1  0  0  0  0
  3  1  2  0  0  0  0
  4 28  1  0  0  0  0
  4  6  2  0  0  0  0
  5  7  2  0  0  0  0
  7  6  1  0  0  0  0
  7 29  1  0  0  0  0
  8  1  1  0  0  0  0
  8  5  1  0  0  0  0
  9  2  2  0  0  0  0
  9 10  1  0  0  0  0
 10  8  2  0  0  0  0
 11 10  1  0  0  0  0
 12 19  1  6  0  0  0
 13 15  2  6  0  0  0
 13 12  1  0  0  0  0
 13 14  1  0  0  0  0
 13 22  1  0  0  0  0
 14 11  2  0  0  0  0
 16 11  1  0  0  0  0
 17 16  2  0  0  0  0
 17 12  1  0  0  0  0
 18 19  3  0  0  0  0
 21 20  1  0  0  0  0
 21 18  1  0  0  0  0
 22 25  1  0  0  0  0
 25 23  1  0  0  0  0
 25 24  1  1  0  0  0
 26 28  2  0  0  0  0
 28 27  1  0  0  0  0
 30 29  1  0  0  0  0
 30 31  1  0  0  0  0
 31 33  2  0  0  0  0
 32 31  2  0  0  0  0
M  END
>  <MODEL>
9

>  <REMARK>
 VINA RESULT:      -6.0      3.041      5.027
  Name = 
  9 active torsions:
  status: ('A' for Active; 'I' for Inactive)
    1  A    between atoms: O_4  and  P_14
    2  A    between atoms: O_4  and  C_29
    3  A    between atoms: P_7  and  O_17
    4  A    between atoms: C_9  and  O_17
    5  A    between atoms: C_9  and  C_24
    6  A    between atoms: C_10  and  C_28
    7  A    between atoms: C_11  and  C_25
    8  A    between atoms: C_12  and  C_32
    9  A    between atoms: N_21  and  C_23
                            x       y       z     vdW  Elec       q    Type
                         _______ _______ _______ _____ _____    ______ ____

>  <TORSDO>
F 9

$$$$
