=
 OpenBabel11062421023D

 38 44  0  0  1  0  0  0  0  0999 V2000
  188.3790  177.8520  146.8550 C   0  0  2  0  0  3  0  0  0  0  0  0
  185.1930  176.8910  146.3110 C   0  0  2  0  0  3  0  0  0  0  0  0
  184.6630  177.9470  147.1780 O   0  0  0  0  0  0  0  0  0  0  0  0
  187.4750  176.3890  145.3950 N   0  0  0  0  0  0  0  0  0  0  0  0
  188.2840  176.6140  146.2840 C   0  0  0  0  0  0  0  0  0  0  0  0
  185.9430  177.4820  143.9890 C   0  0  2  0  0  3  0  0  0  0  0  0
  185.7380  177.1730  147.6880 C   0  0  2  0  0  3  0  0  0  0  0  0
  186.2390  177.1330  145.2690 C   0  0  1  0  0  3  0  0  0  0  0  0
  189.7720  177.7100  147.5770 C   0  0  0  0  0  2  0  0  0  0  0  0
  190.4510  176.3380  147.0370 C   0  0  1  0  0  3  0  0  0  0  0  0
  187.0500  178.0930  147.7860 C   0  0  0  0  0  2  0  0  0  0  0  0
  184.6320  177.8670  143.7270 O   0  0  0  0  0  1  0  0  0  0  0  0
  189.3120  175.6750  146.4870 N   0  0  0  0  0  2  0  0  0  0  0  0
  186.2480  178.4930  141.7410 C   0  0  0  0  0  2  0  0  0  0  0  0
  187.0980  177.0060  139.6860 C   0  0  1  0  0  3  0  0  0  0  0  0
  187.8540  174.8120  140.3400 O   0  0  0  0  0  0  0  0  0  0  0  0
  186.8640  177.4910  142.7460 C   0  0  1  0  0  0  0  0  0  0  0  0
  185.9610  177.9120  140.2910 C   0  0  0  0  0  2  0  0  0  0  0  0
  188.2240  178.1030  143.0680 C   0  0  0  0  0  1  0  0  0  0  0  0
  188.2350  174.1910  141.5510 C   0  0  0  0  0  2  0  0  0  0  0  0
  186.9690  176.1160  142.0000 C   0  0  1  0  0  3  0  0  0  0  0  0
  187.7890  176.1640  140.7400 C   0  0  2  0  0  3  0  0  0  0  0  0
  186.6030  176.3200  138.4250 C   0  0  0  0  0  1  0  0  0  0  0  0
  187.6610  175.0160  142.7130 C   0  0  0  0  0  2  0  0  0  0  0  0
  191.4970  176.2560  145.9530 C   0  0  0  0  0  2  0  0  0  0  0  0
  192.6780  175.2620  146.0270 C   0  0  2  0  0  3  0  0  0  0  0  0
  193.7380  176.3930  144.2100 C   0  0  0  0  0  2  0  0  0  0  0  0
  194.2550  177.0850  145.5020 C   0  0  0  0  0  2  0  0  0  0  0  0
  193.7140  176.1500  146.6440 C   0  0  0  0  0  2  0  0  0  0  0  0
  193.0740  175.0660  144.5640 C   0  0  1  0  0  0  0  0  0  0  0  0
  194.2640  172.8550  145.4660 C   0  0  0  0  0  2  0  0  0  0  0  0
  196.5910  174.7570  144.6490 C   0  0  0  0  0  2  0  0  0  0  0  0
  195.4260  174.5000  143.7210 C   0  0  0  0  0  2  0  0  0  0  0  0
  195.7230  172.4520  145.6640 C   0  0  0  0  0  2  0  0  0  0  0  0
  194.1570  173.9360  144.3670 C   0  0  0  0  0  3  0  0  0  0  0  0
  196.6530  173.7010  145.7790 C   0  0  0  0  0  2  0  0  0  0  0  0
  191.8610  175.1460  142.4220 C   0  0  0  0  0  1  0  0  0  0  0  0
  191.9010  174.7150  143.7160 O   0  0  0  0  0  0  0  0  0  0  0  0
  1  9  1  1  0  0  0
  1 11  1  0  0  0  0
  2  3  1  6  0  0  0
  2  7  1  0  0  0  0
  3  7  1  0  0  0  0
  4  5  2  0  0  0  0
  5 13  1  0  0  0  0
  5  1  1  0  0  0  0
  6 12  1  6  0  0  0
  7 11  1  6  0  0  0
  8  6  1  6  0  0  0
  8  4  1  0  0  0  0
  8  2  1  0  0  0  0
 10 25  1  6  0  0  0
 10  9  1  0  0  0  0
 13 10  1  0  0  0  0
 14 17  1  0  0  0  0
 15 23  1  6  0  0  0
 15 18  1  0  0  0  0
 15 22  1  0  0  0  0
 16 20  1  0  0  0  0
 17 19  1  1  0  0  0
 17  6  1  0  0  0  0
 18 14  1  0  0  0  0
 20 24  1  0  0  0  0
 21 24  1  1  0  0  0
 21 17  1  0  0  0  0
 22 16  1  6  0  0  0
 22 21  1  0  0  0  0
 26 25  1  6  0  0  0
 26 29  1  0  0  0  0
 27 30  1  0  0  0  0
 27 28  1  0  0  0  0
 28 29  1  0  0  0  0
 30 38  1  6  0  0  0
 30 26  1  0  0  0  0
 31 34  1  0  0  0  0
 32 36  1  0  0  0  0
 33 35  1  0  0  0  0
 33 32  1  0  0  0  0
 34 36  1  0  0  0  0
 35 30  1  0  0  0  0
 35 31  1  0  0  0  0
 37 38  1  0  0  0  0
M  END
>  <MODEL>
1

>  <REMARK>
 VINA RESULT:      -8.8      0.000      0.000
  Name = 
  5 active torsions:
  status: ('A' for Active; 'I' for Inactive)
    1  A    between atoms: C_1  and  C_27
    2  A    between atoms: C_11  and  C_21
    3  A    between atoms: C_27  and  C_30
    4  A    between atoms: C_32  and  C_34
    5  A    between atoms: C_34  and  O_38
                            x       y       z     vdW  Elec       q    Type
                         _______ _______ _______ _____ _____    ______ ____

>  <TORSDO>
F 5

$$$$
=
 OpenBabel11062421023D

 38 44  0  0  1  0  0  0  0  0999 V2000
  189.2280  177.6190  146.9910 C   0  0  2  0  0  3  0  0  0  0  0  0
  185.8870  178.0800  146.9830 C   0  0  2  0  0  3  0  0  0  0  0  0
  185.9970  179.3310  147.7380 O   0  0  0  0  0  0  0  0  0  0  0  0
  187.5640  176.5690  145.8870 N   0  0  0  0  0  0  0  0  0  0  0  0
  188.5340  176.4990  146.6280 C   0  0  0  0  0  0  0  0  0  0  0  0
  186.4030  178.0910  144.5260 C   0  0  2  0  0  3  0  0  0  0  0  0
  186.7290  178.2160  148.2270 C   0  0  2  0  0  3  0  0  0  0  0  0
  186.7430  177.7580  145.7980 C   0  0  1  0  0  3  0  0  0  0  0  0
  190.5400  176.9540  147.5540 C   0  0  0  0  0  2  0  0  0  0  0  0
  190.4890  175.3830  147.1490 C   0  0  1  0  0  3  0  0  0  0  0  0
  188.2970  178.4870  148.0270 C   0  0  0  0  0  2  0  0  0  0  0  0
  185.3420  178.9780  144.3670 O   0  0  0  0  0  1  0  0  0  0  0  0
  189.1020  175.2300  146.8460 N   0  0  0  0  0  2  0  0  0  0  0  0
  186.2130  176.3430  142.7710 C   0  0  0  0  0  2  0  0  0  0  0  0
  188.4080  175.2620  141.6870 C   0  0  1  0  0  3  0  0  0  0  0  0
  190.4400  176.4030  142.3030 O   0  0  0  0  0  0  0  0  0  0  0  0
  187.0160  177.5960  143.1950 C   0  0  1  0  0  0  0  0  0  0  0  0
  187.0810  175.0390  142.5040 C   0  0  0  0  0  2  0  0  0  0  0  0
  186.7530  178.5830  142.0620 C   0  0  0  0  0  1  0  0  0  0  0  0
  190.7690  177.6610  142.8570 C   0  0  0  0  0  2  0  0  0  0  0  0
  188.5180  177.1550  143.2900 C   0  0  1  0  0  3  0  0  0  0  0  0
  189.0720  176.5850  142.0130 C   0  0  2  0  0  3  0  0  0  0  0  0
  189.2570  174.0030  141.7150 C   0  0  0  0  0  1  0  0  0  0  0  0
  189.5150  178.2200  143.5480 C   0  0  0  0  0  2  0  0  0  0  0  0
  191.2050  174.7670  145.9730 C   0  0  0  0  0  2  0  0  0  0  0  0
  192.6350  174.1920  146.0930 C   0  0  2  0  0  3  0  0  0  0  0  0
  193.2610  175.3490  144.0990 C   0  0  0  0  0  2  0  0  0  0  0  0
  193.5670  176.3230  145.2700 C   0  0  0  0  0  2  0  0  0  0  0  0
  193.3620  175.4220  146.5420 C   0  0  0  0  0  2  0  0  0  0  0  0
  193.0420  173.9400  144.6420 C   0  0  1  0  0  0  0  0  0  0  0  0
  194.7910  172.1960  145.6500 C   0  0  0  0  0  2  0  0  0  0  0  0
  196.4900  174.6770  144.8410 C   0  0  0  0  0  2  0  0  0  0  0  0
  195.4870  174.0690  143.8870 C   0  0  0  0  0  2  0  0  0  0  0  0
  196.2950  172.2430  145.9040 C   0  0  0  0  0  2  0  0  0  0  0  0
  194.4140  173.1730  144.5140 C   0  0  0  0  0  3  0  0  0  0  0  0
  196.8150  173.7120  146.0060 C   0  0  0  0  0  2  0  0  0  0  0  0
  192.3950  172.3930  142.8370 C   0  0  0  0  0  1  0  0  0  0  0  0
  192.0160  173.1470  143.9090 O   0  0  0  0  0  0  0  0  0  0  0  0
  1  9  1  1  0  0  0
  1 11  1  0  0  0  0
  2  3  1  6  0  0  0
  2  7  1  0  0  0  0
  3  7  1  0  0  0  0
  4  5  2  0  0  0  0
  5 13  1  0  0  0  0
  5  1  1  0  0  0  0
  6 12  1  6  0  0  0
  7 11  1  6  0  0  0
  8  6  1  6  0  0  0
  8  4  1  0  0  0  0
  8  2  1  0  0  0  0
 10 25  1  6  0  0  0
 10  9  1  0  0  0  0
 13 10  1  0  0  0  0
 14 17  1  0  0  0  0
 15 23  1  1  0  0  0
 15 22  1  0  0  0  0
 15 18  1  0  0  0  0
 16 20  1  0  0  0  0
 17 19  1  6  0  0  0
 17 21  1  0  0  0  0
 17  6  1  0  0  0  0
 18 14  1  0  0  0  0
 20 24  1  0  0  0  0
 21 24  1  6  0  0  0
 22 16  1  1  0  0  0
 22 21  1  0  0  0  0
 26 25  1  6  0  0  0
 26 29  1  0  0  0  0
 27 30  1  0  0  0  0
 27 28  1  0  0  0  0
 28 29  1  0  0  0  0
 30 38  1  6  0  0  0
 30 26  1  0  0  0  0
 31 34  1  0  0  0  0
 32 36  1  0  0  0  0
 33 35  1  0  0  0  0
 33 32  1  0  0  0  0
 34 36  1  0  0  0  0
 35 30  1  0  0  0  0
 35 31  1  0  0  0  0
 37 38  1  0  0  0  0
M  END
>  <MODEL>
2

>  <REMARK>
 VINA RESULT:      -8.7      1.430      1.991
  Name = 
  5 active torsions:
  status: ('A' for Active; 'I' for Inactive)
    1  A    between atoms: C_1  and  C_27
    2  A    between atoms: C_11  and  C_21
    3  A    between atoms: C_27  and  C_30
    4  A    between atoms: C_32  and  C_34
    5  A    between atoms: C_34  and  O_38
                            x       y       z     vdW  Elec       q    Type
                         _______ _______ _______ _____ _____    ______ ____

>  <TORSDO>
F 5

$$$$
=
 OpenBabel11062421023D

 38 44  0  0  1  0  0  0  0  0999 V2000
  193.1150  175.8830  144.7000 C   0  0  2  0  0  3  0  0  0  0  0  0
  195.9050  174.5370  143.3670 C   0  0  2  0  0  3  0  0  0  0  0  0
  196.5820  174.5030  144.6660 O   0  0  0  0  0  0  0  0  0  0  0  0
  193.5490  175.0290  142.6580 N   0  0  0  0  0  0  0  0  0  0  0  0
  193.1490  175.9640  143.3360 C   0  0  0  0  0  0  0  0  0  0  0  0
  194.1950  172.7780  142.8360 C   0  0  2  0  0  3  0  0  0  0  0  0
  195.9340  175.7140  144.3090 C   0  0  2  0  0  3  0  0  0  0  0  0
  194.5010  174.0610  143.1590 C   0  0  1  0  0  3  0  0  0  0  0  0
  192.1750  177.1060  145.0200 C   0  0  0  0  0  2  0  0  0  0  0  0
  191.5440  177.6030  143.6100 C   0  0  1  0  0  3  0  0  0  0  0  0
  194.6580  175.9300  145.2570 C   0  0  0  0  0  2  0  0  0  0  0  0
  195.2130  171.8360  142.9530 O   0  0  0  0  0  1  0  0  0  0  0  0
  192.4440  176.9920  142.6840 N   0  0  0  0  0  2  0  0  0  0  0  0
  192.7430  172.5980  140.8290 C   0  0  0  0  0  2  0  0  0  0  0  0
  190.0840  172.8030  141.0520 C   0  0  1  0  0  3  0  0  0  0  0  0
  189.3120  172.7880  143.3350 O   0  0  0  0  0  0  0  0  0  0  0  0
  192.8560  172.1990  142.3200 C   0  0  1  0  0  0  0  0  0  0  0  0
  191.4150  173.3740  140.4320 C   0  0  0  0  0  2  0  0  0  0  0  0
  192.8920  170.6740  142.2760 C   0  0  0  0  0  1  0  0  0  0  0  0
  189.8540  172.4190  144.5870 C   0  0  0  0  0  2  0  0  0  0  0  0
  191.5800  172.7650  143.0330 C   0  0  1  0  0  3  0  0  0  0  0  0
  190.2830  172.2670  142.4560 C   0  0  2  0  0  3  0  0  0  0  0  0
  188.9370  173.7660  140.8040 C   0  0  0  0  0  1  0  0  0  0  0  0
  191.3850  172.3940  144.4540 C   0  0  0  0  0  2  0  0  0  0  0  0
  190.1710  177.2440  143.0990 C   0  0  0  0  0  2  0  0  0  0  0  0
  188.8970  177.9630  143.5960 C   0  0  2  0  0  3  0  0  0  0  0  0
  187.7460  175.8710  143.6590 C   0  0  0  0  0  2  0  0  0  0  0  0
  188.3810  176.0500  145.0650 C   0  0  0  0  0  2  0  0  0  0  0  0
  188.9080  177.5300  145.0300 C   0  0  0  0  0  2  0  0  0  0  0  0
  187.7640  177.2010  142.9100 C   0  0  1  0  0  0  0  0  0  0  0  0
  186.3170  179.4110  143.2830 C   0  0  0  0  0  2  0  0  0  0  0  0
  185.3050  177.4020  145.4360 C   0  0  0  0  0  2  0  0  0  0  0  0
  185.4500  176.9910  143.9890 C   0  0  0  0  0  2  0  0  0  0  0  0
  185.2430  179.8060  144.2920 C   0  0  0  0  0  2  0  0  0  0  0  0
  186.3540  177.8740  143.1230 C   0  0  0  0  0  3  0  0  0  0  0  0
  185.3270  178.9410  145.5900 C   0  0  0  0  0  2  0  0  0  0  0  0
  186.9140  177.1040  140.6000 C   0  0  0  0  0  1  0  0  0  0  0  0
  187.9870  177.0810  141.4420 O   0  0  0  0  0  0  0  0  0  0  0  0
  1  9  1  1  0  0  0
  1 11  1  0  0  0  0
  2  7  1  0  0  0  0
  2  3  1  1  0  0  0
  4  8  1  0  0  0  0
  4  5  2  0  0  0  0
  5  1  1  0  0  0  0
  6 12  1  6  0  0  0
  7  3  1  0  0  0  0
  7 11  1  1  0  0  0
  8  6  1  6  0  0  0
  8  2  1  0  0  0  0
 10 25  1  6  0  0  0
 10  9  1  0  0  0  0
 13  5  1  0  0  0  0
 13 10  1  0  0  0  0
 14 17  1  0  0  0  0
 15 23  1  1  0  0  0
 15 22  1  0  0  0  0
 16 20  1  0  0  0  0
 17 19  1  1  0  0  0
 17  6  1  0  0  0  0
 17 21  1  0  0  0  0
 18 14  1  0  0  0  0
 18 15  1  0  0  0  0
 21 24  1  1  0  0  0
 22 21  1  0  0  0  0
 22 16  1  1  0  0  0
 24 20  1  0  0  0  0
 26 25  1  6  0  0  0
 26 29  1  0  0  0  0
 27 28  1  0  0  0  0
 29 28  1  0  0  0  0
 30 38  1  6  0  0  0
 30 35  1  0  0  0  0
 30 26  1  0  0  0  0
 30 27  1  0  0  0  0
 31 34  1  0  0  0  0
 32 36  1  0  0  0  0
 33 32  1  0  0  0  0
 34 36  1  0  0  0  0
 35 31  1  0  0  0  0
 35 33  1  0  0  0  0
 37 38  1  0  0  0  0
M  END
>  <MODEL>
3

>  <REMARK>
 VINA RESULT:      -8.5      2.592      7.900
  Name = 
  5 active torsions:
  status: ('A' for Active; 'I' for Inactive)
    1  A    between atoms: C_1  and  C_27
    2  A    between atoms: C_11  and  C_21
    3  A    between atoms: C_27  and  C_30
    4  A    between atoms: C_32  and  C_34
    5  A    between atoms: C_34  and  O_38
                            x       y       z     vdW  Elec       q    Type
                         _______ _______ _______ _____ _____    ______ ____

>  <TORSDO>
F 5

$$$$
=
 OpenBabel11062421023D

 38 44  0  0  1  0  0  0  0  0999 V2000
  190.7470  172.7650  141.5970 C   0  0  2  0  0  3  0  0  0  0  0  0
  192.0180  169.7810  142.5200 C   0  0  2  0  0  3  0  0  0  0  0  0
  191.9920  169.2770  141.1440 O   0  0  0  0  0  0  0  0  0  0  0  0
  191.6380  172.0430  143.5390 N   0  0  0  0  0  0  0  0  0  0  0  0
  190.7010  172.5590  142.9470 C   0  0  0  0  0  0  0  0  0  0  0  0
  193.8570  171.3470  143.2090 C   0  0  2  0  0  3  0  0  0  0  0  0
  190.8160  169.9150  141.6200 C   0  0  2  0  0  3  0  0  0  0  0  0
  192.5540  171.1290  142.8900 C   0  0  1  0  0  3  0  0  0  0  0  0
  189.5530  173.7810  141.4380 C   0  0  0  0  0  2  0  0  0  0  0  0
  189.1180  174.2420  142.9320 C   0  0  1  0  0  3  0  0  0  0  0  0
  190.6250  171.3090  140.8490 C   0  0  0  0  0  2  0  0  0  0  0  0
  194.7540  170.3190  142.9330 O   0  0  0  0  0  1  0  0  0  0  0  0
  189.7190  173.2100  143.7160 N   0  0  0  0  0  2  0  0  0  0  0  0
  194.1980  172.4890  145.3870 C   0  0  0  0  0  2  0  0  0  0  0  0
  194.0480  175.1550  145.5630 C   0  0  1  0  0  3  0  0  0  0  0  0
  193.9400  176.2500  143.4180 O   0  0  0  0  0  0  0  0  0  0  0  0
  194.5010  172.5860  143.8730 C   0  0  1  0  0  0  0  0  0  0  0  0
  193.4820  173.7580  146.0200 C   0  0  0  0  0  2  0  0  0  0  0  0
  196.0230  172.5200  143.8120 C   0  0  0  0  0  1  0  0  0  0  0  0
  194.2170  175.8880  142.0790 C   0  0  0  0  0  2  0  0  0  0  0  0
  193.9240  173.9620  143.3890 C   0  0  1  0  0  3  0  0  0  0  0  0
  194.4900  175.1530  144.1130 C   0  0  2  0  0  3  0  0  0  0  0  0
  193.1310  176.2700  146.0350 C   0  0  0  0  0  1  0  0  0  0  0  0
  194.2110  174.3550  141.9890 C   0  0  0  0  0  2  0  0  0  0  0  0
  189.5440  175.5240  143.6020 C   0  0  0  0  0  2  0  0  0  0  0  0
  188.5720  176.7100  143.7980 C   0  0  2  0  0  3  0  0  0  0  0  0
  189.9490  177.5410  145.5650 C   0  0  0  0  0  2  0  0  0  0  0  0
  190.4780  178.2050  144.2640 C   0  0  0  0  0  2  0  0  0  0  0  0
  189.3930  177.8090  143.1980 C   0  0  0  0  0  2  0  0  0  0  0  0
  188.5740  176.9290  145.3110 C   0  0  1  0  0  0  0  0  0  0  0  0
  187.0670  177.9470  147.2630 C   0  0  0  0  0  2  0  0  0  0  0  0
  185.1250  177.5400  144.8630 C   0  0  0  0  0  2  0  0  0  0  0  0
  186.4590  178.2300  144.6840 C   0  0  0  0  0  2  0  0  0  0  0  0
  185.5810  178.2720  147.3830 C   0  0  0  0  0  2  0  0  0  0  0  0
  187.5000  177.9840  145.7800 C   0  0  0  0  0  3  0  0  0  0  0  0
  184.7310  177.4580  146.3570 C   0  0  0  0  0  2  0  0  0  0  0  0
  189.2470  175.2030  146.9350 C   0  0  0  0  0  1  0  0  0  0  0  0
  188.3130  175.6640  146.0530 O   0  0  0  0  0  0  0  0  0  0  0  0
  1 11  1  6  0  0  0
  1  5  1  0  0  0  0
  2  3  1  6  0  0  0
  2  8  1  0  0  0  0
  3  7  1  0  0  0  0
  5  4  2  0  0  0  0
  5 13  1  0  0  0  0
  6 12  1  1  0  0  0
  6 17  1  0  0  0  0
  7 11  1  6  0  0  0
  7  2  1  0  0  0  0
  8  6  1  1  0  0  0
  8  4  1  0  0  0  0
  9  1  1  0  0  0  0
  9 10  1  0  0  0  0
 10 25  1  1  0  0  0
 10 13  1  0  0  0  0
 14 18  1  0  0  0  0
 15 18  1  0  0  0  0
 15 23  1  6  0  0  0
 17 19  1  6  0  0  0
 17 14  1  0  0  0  0
 20 16  1  0  0  0  0
 21 24  1  6  0  0  0
 21 17  1  0  0  0  0
 21 22  1  0  0  0  0
 22 16  1  6  0  0  0
 22 15  1  0  0  0  0
 24 20  1  0  0  0  0
 26 25  1  1  0  0  0
 26 30  1  0  0  0  0
 28 27  1  0  0  0  0
 29 26  1  0  0  0  0
 29 28  1  0  0  0  0
 30 27  1  0  0  0  0
 30 35  1  0  0  0  0
 30 38  1  1  0  0  0
 31 34  1  0  0  0  0
 32 36  1  0  0  0  0
 33 32  1  0  0  0  0
 33 35  1  0  0  0  0
 35 31  1  0  0  0  0
 36 34  1  0  0  0  0
 38 37  1  0  0  0  0
M  END
>  <MODEL>
4

>  <REMARK>
 VINA RESULT:      -8.4      2.746      8.486
  Name = 
  5 active torsions:
  status: ('A' for Active; 'I' for Inactive)
    1  A    between atoms: C_1  and  C_27
    2  A    between atoms: C_11  and  C_21
    3  A    between atoms: C_27  and  C_30
    4  A    between atoms: C_32  and  C_34
    5  A    between atoms: C_34  and  O_38
                            x       y       z     vdW  Elec       q    Type
                         _______ _______ _______ _____ _____    ______ ____

>  <TORSDO>
F 5

$$$$
=
 OpenBabel11062421023D

 38 44  0  0  1  0  0  0  0  0999 V2000
  192.0330  171.9130  142.7930 C   0  0  2  0  0  3  0  0  0  0  0  0
  193.9760  169.7660  144.5190 C   0  0  2  0  0  3  0  0  0  0  0  0
  193.9090  168.7570  143.4580 O   0  0  0  0  0  0  0  0  0  0  0  0
  193.2510  172.1630  144.6750 N   0  0  0  0  0  0  0  0  0  0  0  0
  192.1720  172.2570  144.1080 C   0  0  0  0  0  0  0  0  0  0  0  0
  195.5180  171.7270  144.2410 C   0  0  2  0  0  3  0  0  0  0  0  0
  192.6840  169.3520  143.8610 C   0  0  2  0  0  3  0  0  0  0  0  0
  194.2610  171.2120  144.2610 C   0  0  1  0  0  3  0  0  0  0  0  0
  190.6460  172.5940  142.4810 C   0  0  0  0  0  2  0  0  0  0  0  0
  190.2860  173.5420  143.7480 C   0  0  1  0  0  3  0  0  0  0  0  0
  192.1330  170.2800  142.6750 C   0  0  0  0  0  2  0  0  0  0  0  0
  196.5720  170.8190  144.2130 O   0  0  0  0  0  1  0  0  0  0  0  0
  191.1640  173.0080  144.7400 N   0  0  0  0  0  2  0  0  0  0  0  0
  196.0010  173.6320  145.7600 C   0  0  0  0  0  2  0  0  0  0  0  0
  195.2470  176.1150  145.1080 C   0  0  1  0  0  3  0  0  0  0  0  0
  194.4500  176.3090  142.8410 O   0  0  0  0  0  0  0  0  0  0  0  0
  195.9620  173.2090  144.2720 C   0  0  1  0  0  0  0  0  0  0  0  0
  195.1410  174.9170  146.1240 C   0  0  0  0  0  2  0  0  0  0  0  0
  197.4110  173.3630  143.8220 C   0  0  0  0  0  1  0  0  0  0  0  0
  194.5320  175.5260  141.6670 C   0  0  0  0  0  2  0  0  0  0  0  0
  194.9840  174.2000  143.5500 C   0  0  1  0  0  3  0  0  0  0  0  0
  195.3770  175.6470  143.6720 C   0  0  2  0  0  3  0  0  0  0  0  0
  194.2010  177.1680  145.4310 C   0  0  0  0  0  1  0  0  0  0  0  0
  194.8810  174.0870  142.0760 C   0  0  0  0  0  2  0  0  0  0  0  0
  190.5100  175.0330  143.8070 C   0  0  0  0  0  2  0  0  0  0  0  0
  189.3370  176.0400  143.7710 C   0  0  2  0  0  3  0  0  0  0  0  0
  190.6110  177.5620  145.1010 C   0  0  0  0  0  2  0  0  0  0  0  0
  190.9400  177.9100  143.6230 C   0  0  0  0  0  2  0  0  0  0  0  0
  189.9020  177.0470  142.8170 C   0  0  0  0  0  2  0  0  0  0  0  0
  189.3690  176.6770  145.1600 C   0  0  1  0  0  0  0  0  0  0  0  0
  187.6020  177.6970  146.8790 C   0  0  0  0  0  2  0  0  0  0  0  0
  185.9130  176.7520  144.4390 C   0  0  0  0  0  2  0  0  0  0  0  0
  187.1550  177.5930  144.2530 C   0  0  0  0  0  2  0  0  0  0  0  0
  186.0820  177.8260  146.8710 C   0  0  0  0  0  2  0  0  0  0  0  0
  188.1350  177.6210  145.4300 C   0  0  0  0  0  3  0  0  0  0  0  0
  185.4230  176.7900  145.9060 C   0  0  0  0  0  2  0  0  0  0  0  0
  190.3800  175.6920  147.1780 C   0  0  0  0  0  1  0  0  0  0  0  0
  189.3920  175.6500  146.2390 O   0  0  0  0  0  0  0  0  0  0  0  0
  1  9  1  1  0  0  0
  1  5  1  0  0  0  0
  2  3  1  6  0  0  0
  3  7  1  0  0  0  0
  5  4  2  0  0  0  0
  5 13  1  0  0  0  0
  6 12  1  1  0  0  0
  6 17  1  0  0  0  0
  7 11  1  6  0  0  0
  7  2  1  0  0  0  0
  8  6  1  1  0  0  0
  8  2  1  0  0  0  0
  8  4  1  0  0  0  0
  9 10  1  0  0  0  0
 10 25  1  6  0  0  0
 10 13  1  0  0  0  0
 11  1  1  0  0  0  0
 14 18  1  0  0  0  0
 15 23  1  6  0  0  0
 15 18  1  0  0  0  0
 17 19  1  6  0  0  0
 17 14  1  0  0  0  0
 20 24  1  0  0  0  0
 20 16  1  0  0  0  0
 21 24  1  6  0  0  0
 21 22  1  0  0  0  0
 21 17  1  0  0  0  0
 22 16  1  6  0  0  0
 22 15  1  0  0  0  0
 26 25  1  1  0  0  0
 26 30  1  0  0  0  0
 27 30  1  0  0  0  0
 28 27  1  0  0  0  0
 29 28  1  0  0  0  0
 29 26  1  0  0  0  0
 30 35  1  0  0  0  0
 30 38  1  1  0  0  0
 32 36  1  0  0  0  0
 33 32  1  0  0  0  0
 33 35  1  0  0  0  0
 34 31  1  0  0  0  0
 35 31  1  0  0  0  0
 36 34  1  0  0  0  0
 38 37  1  0  0  0  0
M  END
>  <MODEL>
5

>  <REMARK>
 VINA RESULT:      -8.0      2.831      8.711
  Name = 
  5 active torsions:
  status: ('A' for Active; 'I' for Inactive)
    1  A    between atoms: C_1  and  C_27
    2  A    between atoms: C_11  and  C_21
    3  A    between atoms: C_27  and  C_30
    4  A    between atoms: C_32  and  C_34
    5  A    between atoms: C_34  and  O_38
                            x       y       z     vdW  Elec       q    Type
                         _______ _______ _______ _____ _____    ______ ____

>  <TORSDO>
F 5

$$$$
=
 OpenBabel11062421023D

 38 44  0  0  1  0  0  0  0  0999 V2000
  193.2550  175.3630  145.5930 C   0  0  2  0  0  3  0  0  0  0  0  0
  195.8470  173.9670  143.9490 C   0  0  2  0  0  3  0  0  0  0  0  0
  196.6890  173.9720  145.1480 O   0  0  0  0  0  0  0  0  0  0  0  0
  193.4170  174.4420  143.5410 N   0  0  0  0  0  0  0  0  0  0  0  0
  193.1090  175.4000  144.2350 C   0  0  0  0  0  0  0  0  0  0  0  0
  194.0840  172.1960  143.7050 C   0  0  2  0  0  3  0  0  0  0  0  0
  195.9990  175.1730  144.8400 C   0  0  2  0  0  3  0  0  0  0  0  0
  194.4290  173.4880  143.9430 C   0  0  1  0  0  3  0  0  0  0  0  0
  192.3640  176.5980  145.9960 C   0  0  0  0  0  2  0  0  0  0  0  0
  191.5520  177.0520  144.6660 C   0  0  1  0  0  3  0  0  0  0  0  0
  194.8580  175.4230  145.9400 C   0  0  0  0  0  2  0  0  0  0  0  0
  195.1100  171.2560  143.7160 O   0  0  0  0  0  1  0  0  0  0  0  0
  192.3230  176.4080  143.6490 N   0  0  0  0  0  2  0  0  0  0  0  0
  192.7130  170.1300  143.8570 C   0  0  0  0  0  2  0  0  0  0  0  0
  191.0780  169.4340  141.8570 C   0  0  1  0  0  3  0  0  0  0  0  0
  190.8270  171.1510  140.1830 O   0  0  0  0  0  0  0  0  0  0  0  0
  192.6900  171.6050  143.3880 C   0  0  1  0  0  0  0  0  0  0  0  0
  192.3180  169.0600  142.7510 C   0  0  0  0  0  2  0  0  0  0  0  0
  191.6090  172.2360  144.2600 C   0  0  0  0  0  1  0  0  0  0  0  0
  191.0880  172.5390  140.1070 C   0  0  0  0  0  2  0  0  0  0  0  0
  192.3180  171.5850  141.8650 C   0  0  1  0  0  3  0  0  0  0  0  0
  191.0020  170.9190  141.5640 C   0  0  2  0  0  3  0  0  0  0  0  0
  190.9600  168.4630  140.6950 C   0  0  0  0  0  1  0  0  0  0  0  0
  192.0950  172.8960  141.2110 C   0  0  0  0  0  2  0  0  0  0  0  0
  190.1240  176.6800  144.3520 C   0  0  0  0  0  2  0  0  0  0  0  0
  188.9330  177.5690  144.7780 C   0  0  2  0  0  3  0  0  0  0  0  0
  187.8750  175.6680  145.7640 C   0  0  0  0  0  2  0  0  0  0  0  0
  188.7380  176.3050  146.8880 C   0  0  0  0  0  2  0  0  0  0  0  0
  189.2050  177.6630  146.2470 C   0  0  0  0  0  2  0  0  0  0  0  0
  187.7230  176.6510  144.6070 C   0  0  1  0  0  0  0  0  0  0  0  0
  186.3400  178.9330  144.6060 C   0  0  0  0  0  2  0  0  0  0  0  0
  185.5760  177.5190  147.2730 C   0  0  0  0  0  2  0  0  0  0  0  0
  185.5490  176.7760  145.9570 C   0  0  0  0  0  2  0  0  0  0  0  0
  185.3930  179.5880  145.6060 C   0  0  0  0  0  2  0  0  0  0  0  0
  186.3510  177.4010  144.8110 C   0  0  0  0  0  3  0  0  0  0  0  0
  185.6240  179.0500  147.0540 C   0  0  0  0  0  2  0  0  0  0  0  0
  186.5350  176.0410  142.5370 C   0  0  0  0  0  1  0  0  0  0  0  0
  187.6930  176.0200  143.2580 O   0  0  0  0  0  0  0  0  0  0  0  0
  1 11  1  6  0  0  0
  1  9  1  0  0  0  0
  2  7  1  0  0  0  0
  2  3  1  1  0  0  0
  4  8  1  0  0  0  0
  4  5  2  0  0  0  0
  5  1  1  0  0  0  0
  6 12  1  6  0  0  0
  7  3  1  0  0  0  0
  7 11  1  1  0  0  0
  8  6  1  6  0  0  0
  8  2  1  0  0  0  0
 10 25  1  1  0  0  0
 10  9  1  0  0  0  0
 13  5  1  0  0  0  0
 13 10  1  0  0  0  0
 15 23  1  6  0  0  0
 15 18  1  0  0  0  0
 17  6  1  0  0  0  0
 17 14  1  0  0  0  0
 17 19  1  1  0  0  0
 18 14  1  0  0  0  0
 20 16  1  0  0  0  0
 20 24  1  0  0  0  0
 21 24  1  1  0  0  0
 21 17  1  0  0  0  0
 22 16  1  6  0  0  0
 22 15  1  0  0  0  0
 22 21  1  0  0  0  0
 26 25  1  6  0  0  0
 26 29  1  0  0  0  0
 27 28  1  0  0  0  0
 29 28  1  0  0  0  0
 30 38  1  6  0  0  0
 30 26  1  0  0  0  0
 30 35  1  0  0  0  0
 30 27  1  0  0  0  0
 31 35  1  0  0  0  0
 31 34  1  0  0  0  0
 33 32  1  0  0  0  0
 34 36  1  0  0  0  0
 35 33  1  0  0  0  0
 36 32  1  0  0  0  0
 37 38  1  0  0  0  0
M  END
>  <MODEL>
6

>  <REMARK>
 VINA RESULT:      -7.9      3.002      8.184
  Name = 
  5 active torsions:
  status: ('A' for Active; 'I' for Inactive)
    1  A    between atoms: C_1  and  C_27
    2  A    between atoms: C_11  and  C_21
    3  A    between atoms: C_27  and  C_30
    4  A    between atoms: C_32  and  C_34
    5  A    between atoms: C_34  and  O_38
                            x       y       z     vdW  Elec       q    Type
                         _______ _______ _______ _____ _____    ______ ____

>  <TORSDO>
F 5

$$$$
=
 OpenBabel11062421023D

 38 44  0  0  1  0  0  0  0  0999 V2000
  194.1540  176.0040  144.0570 C   0  0  2  0  0  3  0  0  0  0  0  0
  196.1430  175.6440  141.3580 C   0  0  2  0  0  3  0  0  0  0  0  0
  197.3570  175.6480  142.1770 O   0  0  0  0  0  0  0  0  0  0  0  0
  193.6940  175.5440  141.8980 N   0  0  0  0  0  0  0  0  0  0  0  0
  193.5050  176.2480  142.8800 C   0  0  0  0  0  0  0  0  0  0  0  0
  194.7570  173.5530  141.2450 C   0  0  2  0  0  3  0  0  0  0  0  0
  196.4030  176.6670  142.4350 C   0  0  2  0  0  3  0  0  0  0  0  0
  194.9330  174.8260  141.6870 C   0  0  1  0  0  3  0  0  0  0  0  0
  193.2770  176.8750  145.0340 C   0  0  0  0  0  2  0  0  0  0  0  0
  191.9600  177.3380  144.2060 C   0  0  1  0  0  3  0  0  0  0  0  0
  195.7330  176.4110  143.8700 C   0  0  0  0  0  2  0  0  0  0  0  0
  195.8600  172.9230  140.6780 O   0  0  0  0  0  1  0  0  0  0  0  0
  192.3930  177.1090  142.8640 N   0  0  0  0  0  2  0  0  0  0  0  0
  192.3390  173.5710  140.6750 C   0  0  0  0  0  2  0  0  0  0  0  0
  190.5550  172.3900  142.2820 C   0  0  1  0  0  3  0  0  0  0  0  0
  191.5670  171.0610  144.0210 O   0  0  0  0  0  0  0  0  0  0  0  0
  193.4720  172.6910  141.2540 C   0  0  1  0  0  0  0  0  0  0  0  0
  191.0540  173.7170  141.5970 C   0  0  0  0  0  2  0  0  0  0  0  0
  193.5710  171.5400  140.2580 C   0  0  0  0  0  1  0  0  0  0  0  0
  192.8440  170.5060  144.2590 C   0  0  0  0  0  2  0  0  0  0  0  0
  193.0010  172.2340  142.6780 C   0  0  1  0  0  3  0  0  0  0  0  0
  191.7000  171.4790  142.6800 C   0  0  2  0  0  3  0  0  0  0  0  0
  189.4900  172.7040  143.3170 C   0  0  0  0  0  1  0  0  0  0  0  0
  193.8620  171.2600  143.3890 C   0  0  0  0  0  2  0  0  0  0  0  0
  190.6070  176.6740  144.2860 C   0  0  0  0  0  2  0  0  0  0  0  0
  189.3150  177.4770  144.5620 C   0  0  2  0  0  3  0  0  0  0  0  0
  188.4730  175.6610  145.8660 C   0  0  0  0  0  2  0  0  0  0  0  0
  189.2400  176.5770  146.8580 C   0  0  0  0  0  2  0  0  0  0  0  0
  189.5550  177.8510  145.9920 C   0  0  0  0  0  2  0  0  0  0  0  0
  188.2220  176.4080  144.5590 C   0  0  1  0  0  0  0  0  0  0  0  0
  186.6000  178.5060  144.2650 C   0  0  0  0  0  2  0  0  0  0  0  0
  185.8920  177.3130  147.0530 C   0  0  0  0  0  2  0  0  0  0  0  0
  185.9980  176.4330  145.8280 C   0  0  0  0  0  2  0  0  0  0  0  0
  185.5490  179.1550  145.1600 C   0  0  0  0  0  2  0  0  0  0  0  0
  186.7690  177.0160  144.6410 C   0  0  0  0  0  3  0  0  0  0  0  0
  185.7810  178.8070  146.6650 C   0  0  0  0  0  2  0  0  0  0  0  0
  187.8460  176.0630  142.1500 C   0  0  0  0  0  1  0  0  0  0  0  0
  188.2840  175.5570  143.3380 O   0  0  0  0  0  0  0  0  0  0  0  0
  1 11  1  6  0  0  0
  1  9  1  0  0  0  0
  2  8  1  0  0  0  0
  2  3  1  1  0  0  0
  2  7  1  0  0  0  0
  3  7  1  0  0  0  0
  4  5  2  0  0  0  0
  5  1  1  0  0  0  0
  6 12  1  6  0  0  0
  6 17  1  0  0  0  0
  7 11  1  1  0  0  0
  8  6  1  6  0  0  0
  8  4  1  0  0  0  0
 10 25  1  1  0  0  0
 10  9  1  0  0  0  0
 13  5  1  0  0  0  0
 13 10  1  0  0  0  0
 14 17  1  0  0  0  0
 14 18  1  0  0  0  0
 15 22  1  0  0  0  0
 15 23  1  1  0  0  0
 16 20  1  0  0  0  0
 17 19  1  6  0  0  0
 17 21  1  0  0  0  0
 18 15  1  0  0  0  0
 21 22  1  0  0  0  0
 21 24  1  6  0  0  0
 22 16  1  1  0  0  0
 24 20  1  0  0  0  0
 26 25  1  1  0  0  0
 26 29  1  0  0  0  0
 27 28  1  0  0  0  0
 29 28  1  0  0  0  0
 30 38  1  6  0  0  0
 30 26  1  0  0  0  0
 30 35  1  0  0  0  0
 30 27  1  0  0  0  0
 31 35  1  0  0  0  0
 31 34  1  0  0  0  0
 33 32  1  0  0  0  0
 34 36  1  0  0  0  0
 35 33  1  0  0  0  0
 36 32  1  0  0  0  0
 37 38  1  0  0  0  0
M  END
>  <MODEL>
7

>  <REMARK>
 VINA RESULT:      -7.9      2.841      8.143
  Name = 
  5 active torsions:
  status: ('A' for Active; 'I' for Inactive)
    1  A    between atoms: C_1  and  C_27
    2  A    between atoms: C_11  and  C_21
    3  A    between atoms: C_27  and  C_30
    4  A    between atoms: C_32  and  C_34
    5  A    between atoms: C_34  and  O_38
                            x       y       z     vdW  Elec       q    Type
                         _______ _______ _______ _____ _____    ______ ____

>  <TORSDO>
F 5

$$$$
=
 OpenBabel11062421023D

 38 44  0  0  1  0  0  0  0  0999 V2000
  191.5190  172.2160  140.4680 C   0  0  2  0  0  3  0  0  0  0  0  0
  188.6410  173.6680  139.4800 C   0  0  2  0  0  3  0  0  0  0  0  0
  188.0170  172.3740  139.1910 O   0  0  0  0  0  0  0  0  0  0  0  0
  190.7800  174.3420  140.6040 N   0  0  0  0  0  0  0  0  0  0  0  0
  191.6470  173.5580  140.2450 C   0  0  0  0  0  0  0  0  0  0  0  0
  188.8010  174.4380  141.8650 C   0  0  2  0  0  3  0  0  0  0  0  0
  189.3260  172.5860  138.6840 C   0  0  2  0  0  3  0  0  0  0  0  0
  189.3930  173.9520  140.7420 C   0  0  1  0  0  3  0  0  0  0  0  0
  193.0060  171.7570  140.2160 C   0  0  0  0  0  2  0  0  0  0  0  0
  193.9080  173.1030  140.1210 C   0  0  1  0  0  3  0  0  0  0  0  0
  190.3550  171.6360  139.4680 C   0  0  0  0  0  2  0  0  0  0  0  0
  187.4090  174.4250  141.9000 O   0  0  0  0  0  1  0  0  0  0  0  0
  192.8990  174.0860  139.8830 N   0  0  0  0  0  2  0  0  0  0  0  0
  190.1300  173.8690  143.8850 C   0  0  0  0  0  2  0  0  0  0  0  0
  189.6020  175.0390  146.2320 C   0  0  1  0  0  3  0  0  0  0  0  0
  188.0470  176.8730  146.0590 O   0  0  0  0  0  0  0  0  0  0  0  0
  189.4590  175.0410  143.1280 C   0  0  1  0  0  0  0  0  0  0  0  0
  189.6950  173.7030  145.4040 C   0  0  0  0  0  2  0  0  0  0  0  0
  190.6330  175.9440  142.7640 C   0  0  0  0  0  1  0  0  0  0  0  0
  187.5480  177.6840  145.0150 C   0  0  0  0  0  2  0  0  0  0  0  0
  188.4570  175.7080  144.1330 C   0  0  1  0  0  3  0  0  0  0  0  0
  189.0990  176.2020  145.4010 C   0  0  2  0  0  3  0  0  0  0  0  0
  188.9450  174.7760  147.5760 C   0  0  0  0  0  1  0  0  0  0  0  0
  187.7850  176.9500  143.6860 C   0  0  0  0  0  2  0  0  0  0  0  0
  194.7370  173.6740  141.2450 C   0  0  0  0  0  2  0  0  0  0  0  0
  194.1280  174.0040  142.6270 C   0  0  2  0  0  3  0  0  0  0  0  0
  196.2500  174.8180  143.3620 C   0  0  0  0  0  2  0  0  0  0  0  0
  195.5100  176.0430  142.7560 C   0  0  0  0  0  2  0  0  0  0  0  0
  194.0560  175.4950  142.5180 C   0  0  0  0  0  2  0  0  0  0  0  0
  195.2590  173.6830  143.6030 C   0  0  1  0  0  0  0  0  0  0  0  0
  193.3180  173.5180  145.4250 C   0  0  0  0  0  2  0  0  0  0  0  0
  194.8200  176.1670  146.0730 C   0  0  0  0  0  2  0  0  0  0  0  0
  195.5720  174.8750  145.8480 C   0  0  0  0  0  2  0  0  0  0  0  0
  192.8600  174.4300  146.5590 C   0  0  0  0  0  2  0  0  0  0  0  0
  194.8100  173.7680  145.1120 C   0  0  0  0  0  3  0  0  0  0  0  0
  193.3160  175.9060  146.3290 C   0  0  0  0  0  2  0  0  0  0  0  0
  197.1430  172.0960  143.5910 C   0  0  0  0  0  1  0  0  0  0  0  0
  195.8140  172.3190  143.3770 O   0  0  0  0  0  0  0  0  0  0  0  0
  1 11  1  6  0  0  0
  2  3  1  1  0  0  0
  2  8  1  0  0  0  0
  4  8  1  0  0  0  0
  5  1  1  0  0  0  0
  5  4  2  0  0  0  0
  6 12  1  6  0  0  0
  6 17  1  0  0  0  0
  7  3  1  0  0  0  0
  7 11  1  1  0  0  0
  7  2  1  0  0  0  0
  8  6  1  6  0  0  0
  9  1  1  0  0  0  0
 10  9  1  0  0  0  0
 10 25  1  1  0  0  0
 13 10  1  0  0  0  0
 13  5  1  0  0  0  0
 14 18  1  0  0  0  0
 15 23  1  1  0  0  0
 17 19  1  6  0  0  0
 17 14  1  0  0  0  0
 17 21  1  0  0  0  0
 18 15  1  0  0  0  0
 20 16  1  0  0  0  0
 21 24  1  6  0  0  0
 21 22  1  0  0  0  0
 22 16  1  1  0  0  0
 22 15  1  0  0  0  0
 24 20  1  0  0  0  0
 26 25  1  6  0  0  0
 26 30  1  0  0  0  0
 27 30  1  0  0  0  0
 28 27  1  0  0  0  0
 29 26  1  0  0  0  0
 29 28  1  0  0  0  0
 30 38  1  6  0  0  0
 30 35  1  0  0  0  0
 31 34  1  0  0  0  0
 32 36  1  0  0  0  0
 33 32  1  0  0  0  0
 35 31  1  0  0  0  0
 35 33  1  0  0  0  0
 36 34  1  0  0  0  0
 38 37  1  0  0  0  0
M  END
>  <MODEL>
8

>  <REMARK>
 VINA RESULT:      -7.8      2.811      6.220
  Name = 
  5 active torsions:
  status: ('A' for Active; 'I' for Inactive)
    1  A    between atoms: C_1  and  C_27
    2  A    between atoms: C_11  and  C_21
    3  A    between atoms: C_27  and  C_30
    4  A    between atoms: C_32  and  C_34
    5  A    between atoms: C_34  and  O_38
                            x       y       z     vdW  Elec       q    Type
                         _______ _______ _______ _____ _____    ______ ____

>  <TORSDO>
F 5

$$$$
=
 OpenBabel11062421023D

 38 44  0  0  1  0  0  0  0  0999 V2000
  193.7470  175.8260  144.1170 C   0  0  2  0  0  3  0  0  0  0  0  0
  195.7400  175.0060  141.5240 C   0  0  2  0  0  3  0  0  0  0  0  0
  196.9470  175.0690  142.3530 O   0  0  0  0  0  0  0  0  0  0  0  0
  193.2850  175.0910  142.0350 N   0  0  0  0  0  0  0  0  0  0  0  0
  193.1210  175.9330  142.9070 C   0  0  0  0  0  0  0  0  0  0  0  0
  194.2590  172.9840  141.6800 C   0  0  2  0  0  3  0  0  0  0  0  0
  196.0380  176.1560  142.4530 C   0  0  2  0  0  3  0  0  0  0  0  0
  194.4910  174.2960  141.9450 C   0  0  1  0  0  3  0  0  0  0  0  0
  192.9020  176.8630  144.9500 C   0  0  0  0  0  2  0  0  0  0  0  0
  191.6160  177.2640  144.0460 C   0  0  1  0  0  3  0  0  0  0  0  0
  195.3440  176.1320  143.8990 C   0  0  0  0  0  2  0  0  0  0  0  0
  195.3380  172.2320  141.2230 O   0  0  0  0  0  1  0  0  0  0  0  0
  192.0500  176.8320  142.7560 N   0  0  0  0  0  2  0  0  0  0  0  0
  193.3220  170.7140  142.0530 C   0  0  0  0  0  2  0  0  0  0  0  0
  191.1990  169.8750  140.6590 C   0  0  1  0  0  3  0  0  0  0  0  0
  190.1470  171.6210  139.3720 O   0  0  0  0  0  0  0  0  0  0  0  0
  192.9370  172.1890  141.7890 C   0  0  1  0  0  0  0  0  0  0  0  0
  192.7130  169.6590  141.0340 C   0  0  0  0  0  2  0  0  0  0  0  0
  192.1570  172.5810  143.0400 C   0  0  0  0  0  1  0  0  0  0  0  0
  190.1740  173.0350  139.3690 C   0  0  0  0  0  2  0  0  0  0  0  0
  192.0600  172.1970  140.4890 C   0  0  1  0  0  3  0  0  0  0  0  0
  190.8250  171.3410  140.5770 C   0  0  2  0  0  3  0  0  0  0  0  0
  190.8130  168.9670  139.5040 C   0  0  0  0  0  1  0  0  0  0  0  0
  191.4470  173.4890  140.1000 C   0  0  0  0  0  2  0  0  0  0  0  0
  190.2330  176.6800  144.1960 C   0  0  0  0  0  2  0  0  0  0  0  0
  189.0220  177.5390  144.6270 C   0  0  2  0  0  3  0  0  0  0  0  0
  188.2560  175.7520  146.0160 C   0  0  0  0  0  2  0  0  0  0  0  0
  189.1780  176.6230  146.9130 C   0  0  0  0  0  2  0  0  0  0  0  0
  189.4470  177.8890  146.0200 C   0  0  0  0  0  2  0  0  0  0  0  0
  187.8880  176.5220  144.7510 C   0  0  1  0  0  0  0  0  0  0  0  0
  186.3360  178.6890  144.6390 C   0  0  0  0  0  2  0  0  0  0  0  0
  185.9310  177.5440  147.5060 C   0  0  0  0  0  2  0  0  0  0  0  0
  185.8430  176.6540  146.2880 C   0  0  0  0  0  2  0  0  0  0  0  0
  185.4350  179.3900  145.6510 C   0  0  0  0  0  2  0  0  0  0  0  0
  186.4850  177.1950  145.0070 C   0  0  0  0  0  3  0  0  0  0  0  0
  185.8380  179.0390  147.1180 C   0  0  0  0  0  2  0  0  0  0  0  0
  186.9460  176.0890  142.5160 C   0  0  0  0  0  1  0  0  0  0  0  0
  187.7640  175.6800  143.5280 O   0  0  0  0  0  0  0  0  0  0  0  0
  1 11  1  6  0  0  0
  1  9  1  0  0  0  0
  2  8  1  0  0  0  0
  2  3  1  1  0  0  0
  2  7  1  0  0  0  0
  3  7  1  0  0  0  0
  4  5  2  0  0  0  0
  5  1  1  0  0  0  0
  6 12  1  6  0  0  0
  6 17  1  0  0  0  0
  7 11  1  1  0  0  0
  8  6  1  6  0  0  0
  8  4  1  0  0  0  0
 10 25  1  1  0  0  0
 10  9  1  0  0  0  0
 13  5  1  0  0  0  0
 13 10  1  0  0  0  0
 15 23  1  6  0  0  0
 15 18  1  0  0  0  0
 17 14  1  0  0  0  0
 17 19  1  1  0  0  0
 18 14  1  0  0  0  0
 20 16  1  0  0  0  0
 20 24  1  0  0  0  0
 21 24  1  1  0  0  0
 21 22  1  0  0  0  0
 21 17  1  0  0  0  0
 22 16  1  6  0  0  0
 22 15  1  0  0  0  0
 26 25  1  6  0  0  0
 26 30  1  0  0  0  0
 26 29  1  0  0  0  0
 27 28  1  0  0  0  0
 29 28  1  0  0  0  0
 30 38  1  6  0  0  0
 30 35  1  0  0  0  0
 30 27  1  0  0  0  0
 31 35  1  0  0  0  0
 31 34  1  0  0  0  0
 33 32  1  0  0  0  0
 34 36  1  0  0  0  0
 35 33  1  0  0  0  0
 36 32  1  0  0  0  0
 37 38  1  0  0  0  0
M  END
>  <MODEL>
9

>  <REMARK>
 VINA RESULT:      -7.8      3.143      8.171
  Name = 
  5 active torsions:
  status: ('A' for Active; 'I' for Inactive)
    1  A    between atoms: C_1  and  C_27
    2  A    between atoms: C_11  and  C_21
    3  A    between atoms: C_27  and  C_30
    4  A    between atoms: C_32  and  C_34
    5  A    between atoms: C_34  and  O_38
                            x       y       z     vdW  Elec       q    Type
                         _______ _______ _______ _____ _____    ______ ____

>  <TORSDO>
F 5

$$$$
