=
 OpenBabel11062418263D

 48 54  0  0  1  0  0  0  0  0999 V2000
  194.1900  176.1880  144.6320 O   0  0  0  0  0  0  0  0  0  0  0  0
  190.1120  170.4310  138.9540 C   0  0  0  0  0  2  0  0  0  0  0  0
  191.6040  168.8600  140.0830 C   0  0  0  0  0  2  0  0  0  0  0  0
  191.3160  171.2170  139.4810 C   0  0  2  0  0  0  0  0  0  0  0  0
  194.2500  172.3900  137.5900 N   0  0  0  0  0  0  0  0  0  0  0  0
  189.5380  175.4790  141.6730 C   0  0  0  0  0  2  0  0  0  0  0  0
  192.7440  174.5930  146.2480 C   0  0  0  0  0  2  0  0  0  0  0  0
  190.1930  177.1060  147.2220 C   0  0  0  0  0  2  0  0  0  0  0  0
  189.4050  173.4990  143.7680 O   0  0  0  0  0  1  0  0  0  0  0  0
  190.5520  172.4620  141.4260 C   0  0  0  0  0  3  0  0  0  0  0  0
  195.4500  173.9220  143.0530 C   0  0  0  0  0  1  0  0  0  0  0  0
  194.2190  172.7530  139.9210 C   0  0  0  0  0  2  0  0  0  0  0  0
  192.6180  170.9130  138.7580 C   0  0  2  0  0  3  0  0  0  0  0  0
  194.5590  175.8510  141.7300 C   0  0  0  0  0  2  0  0  0  0  0  0
  190.5970  173.6580  139.2660 C   0  0  0  0  0  1  0  0  0  0  0  0
  194.4500  175.2510  140.3210 C   0  0  0  0  0  2  0  0  0  0  0  0
  188.9000  176.5230  145.4920 C   0  0  0  0  0  0  0  0  0  0  0  0
  188.8370  177.0910  146.6570 N   0  0  0  0  0  0  0  0  0  0  0  0
  190.7120  175.2090  142.2600 O   0  0  0  0  0  0  0  0  0  0  0  0
  192.2980  170.2280  140.1390 C   0  0  2  0  0  0  0  0  0  0  0  0
  189.7030  173.7840  142.3160 P   0  0  2  0  0  0  0  0  0  0  0  0
  187.7630  175.7960  143.3820 N   0  0  0  0  0  2  0  0  0  0  0  0
  190.2430  176.0730  145.1510 C   0  0  0  0  0  3  0  0  0  0  0  0
  190.9600  172.5120  140.1480 C   0  0  0  0  0  0  0  0  0  0  0  0
  193.6190  172.0990  138.6960 C   0  0  0  0  0  0  0  0  0  0  0  0
  193.4650  175.2130  143.9210 C   0  0  2  0  0  3  0  0  0  0  0  0
  193.5300  174.0260  140.4000 C   0  0  2  0  0  3  0  0  0  0  0  0
  191.0100  176.4220  146.1730 C   0  0  0  0  0  0  0  0  0  0  0  0
  193.2390  173.8350  141.8700 C   0  0  0  0  0  2  0  0  0  0  0  0
  192.4740  176.1150  146.2840 C   0  0  2  0  0  3  0  0  0  0  0  0
  187.7500  176.4400  144.6340 N   0  0  0  0  0  2  0  0  0  0  0  0
  193.1810  174.0640  144.8810 C   0  0  0  0  0  2  0  0  0  0  0  0
  188.7430  176.4670  142.5410 C   0  0  2  0  0  3  0  0  0  0  0  0
  190.4410  168.9530  139.1000 C   0  0  0  0  0  2  0  0  0  0  0  0
  194.1850  174.7170  142.6670 C   0  0  2  0  0  0  0  0  0  0  0  0
  193.2710  176.9190  145.3210 N   0  0  0  0  0  2  0  0  0  0  0  0
  187.2430  178.4380  142.3620 C   0  0  0  0  0  3  0  0  0  0  0  0
  188.1000  177.4720  141.5910 C   0  0  2  0  0  3  0  0  0  0  0  0
  186.0480  178.4630  141.8780 N   0  0  0  0  0  0  0  0  0  0  0  0
  187.1390  176.8740  140.6720 N   0  0  0  0  0  0  0  0  0  0  0  0
  186.0190  177.5090  140.8210 C   0  0  0  0  0  3  0  0  0  0  0  0
  194.8370  170.7150  136.1090 O   0  0  0  0  0  0  0  0  0  0  0  0
  194.1980  171.7850  136.2830 C   0  0  0  0  0  0  0  0  0  0  0  0
  191.9590  172.2610  135.5880 O   0  0  0  0  0  1  0  0  0  0  0  0
  193.3010  172.2970  135.1780 C   0  0  0  0  0  2  0  0  0  0  0  0
  193.5840  170.2580  141.0240 C   0  0  0  0  0  2  0  0  0  0  0  0
  194.1320  170.6820  143.3690 O   0  0  0  0  0  1  0  0  0  0  0  0
  193.2190  170.0450  142.5160 C   0  0  0  0  0  2  0  0  0  0  0  0
  1 36  1  0  0  0  0
  2 34  1  0  0  0  0
  3 20  1  0  0  0  0
  4  2  1  6  0  0  0
  4 20  1  0  0  0  0
  4 24  1  0  0  0  0
  5 25  2  0  0  0  0
  6 19  1  0  0  0  0
 10 21  1  0  0  0  0
 13 25  1  1  0  0  0
 13  4  1  0  0  0  0
 13 20  1  0  0  0  0
 14 35  1  0  0  0  0
 15 24  1  0  0  0  0
 16 27  1  0  0  0  0
 16 14  1  0  0  0  0
 17 18  2  0  0  0  0
 18  8  1  0  0  0  0
 19 21  1  0  0  0  0
 20 46  1  1  0  0  0
 21  9  1  1  0  0  0
 22 31  1  0  0  0  0
 23 17  1  0  0  0  0
 23 28  2  0  0  0  0
 24 10  2  0  0  0  0
 25 12  1  0  0  0  0
 26  1  1  0  0  0  0
 26 32  1  1  0  0  0
 27 12  1  1  0  0  0
 27 29  1  0  0  0  0
 28 30  1  0  0  0  0
 28  8  1  0  0  0  0
 29 35  1  0  0  0  0
 30  7  1  6  0  0  0
 31 17  1  0  0  0  0
 32  7  1  0  0  0  0
 33  6  1  6  0  0  0
 33 22  1  0  0  0  0
 34  3  1  0  0  0  0
 35 11  1  1  0  0  0
 35 26  1  0  0  0  0
 36 30  1  0  0  0  0
 38 37  1  1  0  0  0
 38 33  1  0  0  0  0
 39 37  2  0  0  0  0
 40 41  2  0  0  0  0
 40 38  1  0  0  0  0
 41 39  1  0  0  0  0
 42 43  2  0  0  0  0
 43  5  1  0  0  0  0
 45 44  1  0  0  0  0
 45 43  1  0  0  0  0
 46 48  1  0  0  0  0
 48 47  1  0  0  0  0
M  END
>  <MODEL>
1

>  <REMARK>
 VINA RESULT:      -7.3      0.000      0.000
  Name = 
  5 active torsions:
  status: ('A' for Active; 'I' for Inactive)
    1  A    between atoms: C_7  and  C_45
    2  A    between atoms: N_8  and  C_28
    3  A    between atoms: C_21  and  C_26
    4  A    between atoms: C_21  and  C_43
    5  A    between atoms: C_28  and  C_34
                            x       y       z     vdW  Elec       q    Type
                         _______ _______ _______ _____ _____    ______ ____

>  <TORSDO>
F 5

$$$$
=
 OpenBabel11062418263D

 48 54  0  0  1  0  0  0  0  0999 V2000
  195.5300  176.9820  144.6550 O   0  0  0  0  0  0  0  0  0  0  0  0
  192.8380  169.8990  139.6950 C   0  0  0  0  0  2  0  0  0  0  0  0
  194.8640  168.9380  140.6630 C   0  0  0  0  0  2  0  0  0  0  0  0
  193.7880  171.0480  140.0440 C   0  0  2  0  0  0  0  0  0  0  0  0
  195.9720  172.9420  137.7630 N   0  0  0  0  0  0  0  0  0  0  0  0
  191.0280  174.6900  142.3360 C   0  0  0  0  0  2  0  0  0  0  0  0
  194.8490  175.1270  146.4830 C   0  0  0  0  0  2  0  0  0  0  0  0
  191.7680  176.7920  147.7110 C   0  0  0  0  0  2  0  0  0  0  0  0
  191.7600  172.9040  144.4810 O   0  0  0  0  0  1  0  0  0  0  0  0
  192.8990  172.1210  142.0380 C   0  0  0  0  0  3  0  0  0  0  0  0
  197.2460  175.1160  142.9850 C   0  0  0  0  0  1  0  0  0  0  0  0
  196.0950  173.4260  140.0680 C   0  0  0  0  0  2  0  0  0  0  0  0
  195.0280  171.1130  139.1680 C   0  0  2  0  0  3  0  0  0  0  0  0
  195.6530  176.5890  141.7390 C   0  0  0  0  0  2  0  0  0  0  0  0
  192.3220  173.1320  139.8600 C   0  0  0  0  0  1  0  0  0  0  0  0
  195.5770  175.8950  140.3710 C   0  0  0  0  0  2  0  0  0  0  0  0
  190.5350  175.7310  146.1770 C   0  0  0  0  0  0  0  0  0  0  0  0
  190.4300  176.3260  147.3260 N   0  0  0  0  0  0  0  0  0  0  0  0
  192.2860  174.8320  142.7740 O   0  0  0  0  0  0  0  0  0  0  0  0
  195.0980  170.4530  140.5960 C   0  0  2  0  0  0  0  0  0  0  0  0
  191.7860  173.1720  142.9950 P   0  0  2  0  0  0  0  0  0  0  0  0
  189.4490  174.5560  144.2500 N   0  0  0  0  0  2  0  0  0  0  0  0
  191.9030  175.6940  145.6780 C   0  0  0  0  0  3  0  0  0  0  0  0
  193.1230  172.2120  140.7170 C   0  0  0  0  0  0  0  0  0  0  0  0
  195.5940  172.5430  138.9480 C   0  0  0  0  0  0  0  0  0  0  0  0
  195.0700  175.7870  144.0680 C   0  0  2  0  0  3  0  0  0  0  0  0
  195.1010  174.4550  140.5990 C   0  0  2  0  0  3  0  0  0  0  0  0
  192.6330  176.3270  146.5840 C   0  0  0  0  0  0  0  0  0  0  0  0
  195.0540  174.2780  142.0990 C   0  0  0  0  0  2  0  0  0  0  0  0
  194.1230  176.4910  146.5140 C   0  0  2  0  0  3  0  0  0  0  0  0
  189.3780  175.2440  145.4750 N   0  0  0  0  0  2  0  0  0  0  0  0
  195.2710  174.6720  145.0850 C   0  0  0  0  0  2  0  0  0  0  0  0
  190.0680  175.4400  143.2730 C   0  0  2  0  0  3  0  0  0  0  0  0
  193.6270  168.6050  139.8360 C   0  0  0  0  0  2  0  0  0  0  0  0
  195.7620  175.4570  142.7450 C   0  0  2  0  0  0  0  0  0  0  0  0
  194.5130  177.4380  145.4370 N   0  0  0  0  0  2  0  0  0  0  0  0
  188.7370  177.5080  142.9260 C   0  0  0  0  0  3  0  0  0  0  0  0
  189.0400  176.1360  142.3870 C   0  0  2  0  0  3  0  0  0  0  0  0
  187.4670  177.6520  143.1000 N   0  0  0  0  0  0  0  0  0  0  0  0
  187.7270  175.5010  142.4080 N   0  0  0  0  0  0  0  0  0  0  0  0
  186.8670  176.4090  142.7480 C   0  0  0  0  0  3  0  0  0  0  0  0
  194.9050  172.3180  135.8090 O   0  0  0  0  0  0  0  0  0  0  0  0
  195.9630  172.2680  136.4890 C   0  0  0  0  0  0  0  0  0  0  0  0
  197.7920  170.7580  136.8000 O   0  0  0  0  0  1  0  0  0  0  0  0
  197.1990  171.6420  135.8830 C   0  0  0  0  0  2  0  0  0  0  0  0
  196.4020  170.9340  141.3070 C   0  0  0  0  0  2  0  0  0  0  0  0
  197.0360  171.6720  143.5500 O   0  0  0  0  0  1  0  0  0  0  0  0
  196.2920  170.7200  142.8390 C   0  0  0  0  0  2  0  0  0  0  0  0
  1 36  1  0  0  0  0
  2 34  1  0  0  0  0
  4  2  1  6  0  0  0
  4 20  1  0  0  0  0
  4 24  1  0  0  0  0
  5 25  2  0  0  0  0
  6 19  1  0  0  0  0
 10 21  1  0  0  0  0
 13 25  1  1  0  0  0
 13  4  1  0  0  0  0
 13 20  1  0  0  0  0
 14 35  1  0  0  0  0
 15 24  1  0  0  0  0
 16 27  1  0  0  0  0
 16 14  1  0  0  0  0
 17 18  2  0  0  0  0
 18  8  1  0  0  0  0
 19 21  1  0  0  0  0
 20  3  1  0  0  0  0
 20 46  1  1  0  0  0
 21  9  1  1  0  0  0
 22 31  1  0  0  0  0
 23 17  1  0  0  0  0
 23 28  2  0  0  0  0
 24 10  2  0  0  0  0
 25 12  1  0  0  0  0
 26  1  1  0  0  0  0
 26 32  1  1  0  0  0
 27 12  1  6  0  0  0
 27 29  1  0  0  0  0
 28  8  1  0  0  0  0
 29 35  1  0  0  0  0
 30  7  1  6  0  0  0
 30 28  1  0  0  0  0
 31 17  1  0  0  0  0
 32  7  1  0  0  0  0
 33  6  1  6  0  0  0
 33 22  1  0  0  0  0
 34  3  1  0  0  0  0
 35 11  1  1  0  0  0
 35 26  1  0  0  0  0
 36 30  1  0  0  0  0
 37 39  2  0  0  0  0
 38 40  1  0  0  0  0
 38 37  1  1  0  0  0
 38 33  1  0  0  0  0
 40 41  2  0  0  0  0
 41 39  1  0  0  0  0
 42 43  2  0  0  0  0
 43  5  1  0  0  0  0
 45 43  1  0  0  0  0
 45 44  1  0  0  0  0
 46 48  1  0  0  0  0
 48 47  1  0  0  0  0
M  END
>  <MODEL>
2

>  <REMARK>
 VINA RESULT:      -7.1      1.863      2.374
  Name = 
  5 active torsions:
  status: ('A' for Active; 'I' for Inactive)
    1  A    between atoms: C_7  and  C_45
    2  A    between atoms: N_8  and  C_28
    3  A    between atoms: C_21  and  C_26
    4  A    between atoms: C_21  and  C_43
    5  A    between atoms: C_28  and  C_34
                            x       y       z     vdW  Elec       q    Type
                         _______ _______ _______ _____ _____    ______ ____

>  <TORSDO>
F 5

$$$$
=
 OpenBabel11062418263D

 48 54  0  0  1  0  0  0  0  0999 V2000
  188.3540  172.4220  141.3970 O   0  0  0  0  0  0  0  0  0  0  0  0
  196.7260  175.2330  143.4040 C   0  0  0  0  0  2  0  0  0  0  0  0
  197.0200  174.8370  141.0120 C   0  0  0  0  0  2  0  0  0  0  0  0
  195.6970  174.1860  142.9670 C   0  0  2  0  0  0  0  0  0  0  0  0
  195.8600  170.5350  143.4260 N   0  0  0  0  0  0  0  0  0  0  0  0
  191.2160  175.4460  145.0800 C   0  0  0  0  0  2  0  0  0  0  0  0
  188.5710  174.7840  140.1250 C   0  0  0  0  0  2  0  0  0  0  0  0
  186.2590  176.7020  142.3030 C   0  0  0  0  0  2  0  0  0  0  0  0
  191.2960  176.9710  142.6310 O   0  0  0  0  0  1  0  0  0  0  0  0
  193.5380  175.3010  142.8930 C   0  0  0  0  0  3  0  0  0  0  0  0
  190.9880  171.3090  140.3780 C   0  0  0  0  0  1  0  0  0  0  0  0
  194.0390  171.4180  142.2130 C   0  0  0  0  0  2  0  0  0  0  0  0
  196.3030  172.8430  142.5940 C   0  0  2  0  0  3  0  0  0  0  0  0
  190.5100  171.0040  142.8150 C   0  0  0  0  0  2  0  0  0  0  0  0
  194.0880  174.0430  144.9460 C   0  0  0  0  0  1  0  0  0  0  0  0
  191.9030  170.6880  143.3780 C   0  0  0  0  0  2  0  0  0  0  0  0
  187.9450  177.2760  143.6550 C   0  0  0  0  0  0  0  0  0  0  0  0
  186.7520  177.6520  143.3090 N   0  0  0  0  0  0  0  0  0  0  0  0
  190.9330  174.7420  143.9760 O   0  0  0  0  0  0  0  0  0  0  0  0
  195.9150  173.8770  141.4730 C   0  0  2  0  0  0  0  0  0  0  0  0
  192.0310  176.0370  143.5630 P   0  0  2  0  0  0  0  0  0  0  0  0
  189.9800  177.6010  145.0790 N   0  0  0  0  0  2  0  0  0  0  0  0
  188.4010  176.0960  142.9350 C   0  0  0  0  0  3  0  0  0  0  0  0
  194.3200  174.4080  143.5190 C   0  0  0  0  0  0  0  0  0  0  0  0
  195.3870  171.6180  142.8680 C   0  0  0  0  0  0  0  0  0  0  0  0
  189.6080  173.0310  141.5980 C   0  0  2  0  0  3  0  0  0  0  0  0
  192.8300  171.8600  143.0310 C   0  0  2  0  0  3  0  0  0  0  0  0
  187.4010  175.7520  142.1370 C   0  0  0  0  0  0  0  0  0  0  0  0
  192.0140  172.7680  142.1420 C   0  0  0  0  0  2  0  0  0  0  0  0
  187.4410  174.6100  141.1640 C   0  0  2  0  0  3  0  0  0  0  0  0
  188.6690  177.9470  144.7010 N   0  0  0  0  0  2  0  0  0  0  0  0
  189.8400  173.9900  140.4370 C   0  0  0  0  0  2  0  0  0  0  0  0
  189.9670  176.2180  145.5330 C   0  0  2  0  0  3  0  0  0  0  0  0
  197.6980  175.4180  142.2490 C   0  0  0  0  0  2  0  0  0  0  0  0
  190.7550  172.0290  141.7220 C   0  0  2  0  0  0  0  0  0  0  0  0
  187.4250  173.3000  141.8650 N   0  0  0  0  0  2  0  0  0  0  0  0
  190.3650  177.3930  147.6850 C   0  0  0  0  0  3  0  0  0  0  0  0
  189.9060  176.1070  147.0530 C   0  0  2  0  0  3  0  0  0  0  0  0
  191.3120  177.1660  148.5300 N   0  0  0  0  0  0  0  0  0  0  0  0
  190.8480  175.1400  147.6050 N   0  0  0  0  0  0  0  0  0  0  0  0
  191.5720  175.7660  148.4790 C   0  0  0  0  0  3  0  0  0  0  0  0
  197.9410  169.5790  143.1140 O   0  0  0  0  0  0  0  0  0  0  0  0
  197.1840  170.2120  143.8950 C   0  0  0  0  0  0  0  0  0  0  0  0
  196.6890  171.1000  146.0590 O   0  0  0  0  0  1  0  0  0  0  0  0
  197.7380  170.7250  145.2050 C   0  0  0  0  0  2  0  0  0  0  0  0
  195.2020  173.1140  140.3130 C   0  0  0  0  0  2  0  0  0  0  0  0
  193.4550  174.5410  139.3680 O   0  0  0  0  0  1  0  0  0  0  0  0
  194.7760  174.1040  139.1960 C   0  0  0  0  0  2  0  0  0  0  0  0
  1 26  1  0  0  0  0
  1 36  1  0  0  0  0
  3 20  1  0  0  0  0
  3 34  1  0  0  0  0
  4  2  1  1  0  0  0
  4 24  1  0  0  0  0
  5 43  1  0  0  0  0
  7 32  1  0  0  0  0
  8 18  1  0  0  0  0
 10 24  2  0  0  0  0
 10 21  1  0  0  0  0
 12 25  1  0  0  0  0
 12 27  1  0  0  0  0
 13 25  1  6  0  0  0
 13  4  1  0  0  0  0
 14 16  1  0  0  0  0
 17 31  1  0  0  0  0
 18 17  2  0  0  0  0
 19  6  1  0  0  0  0
 20 46  1  6  0  0  0
 20 13  1  0  0  0  0
 20  4  1  0  0  0  0
 21  9  1  6  0  0  0
 21 19  1  0  0  0  0
 22 33  1  0  0  0  0
 23 17  1  0  0  0  0
 24 15  1  0  0  0  0
 25  5  2  0  0  0  0
 26 32  1  6  0  0  0
 26 35  1  0  0  0  0
 27 29  1  6  0  0  0
 27 16  1  0  0  0  0
 28  8  1  0  0  0  0
 28 23  2  0  0  0  0
 30  7  1  1  0  0  0
 30 36  1  0  0  0  0
 30 28  1  0  0  0  0
 31 22  1  0  0  0  0
 33  6  1  1  0  0  0
 33 38  1  0  0  0  0
 34  2  1  0  0  0  0
 35 11  1  6  0  0  0
 35 29  1  0  0  0  0
 35 14  1  0  0  0  0
 37 39  2  0  0  0  0
 38 40  1  0  0  0  0
 38 37  1  1  0  0  0
 40 41  2  0  0  0  0
 41 39  1  0  0  0  0
 42 43  2  0  0  0  0
 43 45  1  0  0  0  0
 45 44  1  0  0  0  0
 48 47  1  0  0  0  0
 48 46  1  0  0  0  0
M  END
>  <MODEL>
3

>  <REMARK>
 VINA RESULT:      -7.0      2.443      6.253
  Name = 
  5 active torsions:
  status: ('A' for Active; 'I' for Inactive)
    1  A    between atoms: C_7  and  C_45
    2  A    between atoms: N_8  and  C_28
    3  A    between atoms: C_21  and  C_26
    4  A    between atoms: C_21  and  C_43
    5  A    between atoms: C_28  and  C_34
                            x       y       z     vdW  Elec       q    Type
                         _______ _______ _______ _____ _____    ______ ____

>  <TORSDO>
F 5

$$$$
=
 OpenBabel11062418263D

 48 54  0  0  1  0  0  0  0  0999 V2000
  189.6070  173.1890  144.3140 O   0  0  0  0  0  0  0  0  0  0  0  0
  194.6060  174.0680  136.8140 C   0  0  0  0  0  2  0  0  0  0  0  0
  192.5070  175.0010  135.9840 C   0  0  0  0  0  2  0  0  0  0  0  0
  193.4630  173.4700  137.6390 C   0  0  2  0  0  0  0  0  0  0  0  0
  191.9320  170.1390  137.2920 N   0  0  0  0  0  0  0  0  0  0  0  0
  194.8620  173.6230  142.5540 C   0  0  0  0  0  2  0  0  0  0  0  0
  189.8730  175.8510  144.0160 C   0  0  0  0  0  2  0  0  0  0  0  0
  192.1580  176.4160  146.8850 C   0  0  0  0  0  2  0  0  0  0  0  0
  193.6910  176.2160  142.0710 O   0  0  0  0  0  1  0  0  0  0  0  0
  193.5150  174.5570  139.8140 C   0  0  0  0  0  3  0  0  0  0  0  0
  188.7690  172.6650  141.4440 C   0  0  0  0  0  1  0  0  0  0  0  0
  191.0050  171.6230  138.8740 C   0  0  0  0  0  2  0  0  0  0  0  0
  192.5790  172.5080  136.8640 C   0  0  2  0  0  3  0  0  0  0  0  0
  190.4920  171.1270  142.4070 C   0  0  0  0  0  2  0  0  0  0  0  0
  194.6460  172.3700  139.6190 C   0  0  0  0  0  1  0  0  0  0  0  0
  191.0940  170.4890  141.1460 C   0  0  0  0  0  2  0  0  0  0  0  0
  193.9440  176.0920  145.5770 C   0  0  0  0  0  0  0  0  0  0  0  0
  193.5950  176.6540  146.6950 N   0  0  0  0  0  0  0  0  0  0  0  0
  193.5230  173.6350  142.5380 O   0  0  0  0  0  0  0  0  0  0  0  0
  192.1270  174.0000  137.0830 C   0  0  2  0  0  0  0  0  0  0  0  0
  194.1190  174.8940  141.4820 P   0  0  2  0  0  0  0  0  0  0  0  0
  195.7330  175.5020  143.9270 N   0  0  0  0  0  2  0  0  0  0  0  0
  192.8290  175.4600  144.8860 C   0  0  0  0  0  3  0  0  0  0  0  0
  193.7260  173.4310  139.1150 C   0  0  0  0  0  0  0  0  0  0  0  0
  191.9470  171.3740  137.7180 C   0  0  0  0  0  0  0  0  0  0  0  0
  190.3740  173.5330  143.1840 C   0  0  2  0  0  3  0  0  0  0  0  0
  191.6390  171.6180  140.2620 C   0  0  2  0  0  3  0  0  0  0  0  0
  191.7720  175.6470  145.6620 C   0  0  0  0  0  0  0  0  0  0  0  0
  191.2150  172.9000  140.9380 C   0  0  0  0  0  2  0  0  0  0  0  0
  190.3780  175.2040  145.3250 C   0  0  2  0  0  3  0  0  0  0  0  0
  195.3160  176.0610  145.1490 N   0  0  0  0  0  2  0  0  0  0  0  0
  189.9890  174.9510  142.7850 C   0  0  0  0  0  2  0  0  0  0  0  0
  195.3650  174.0940  143.9280 C   0  0  2  0  0  3  0  0  0  0  0  0
  193.9770  174.7950  135.6350 C   0  0  0  0  0  2  0  0  0  0  0  0
  190.1980  172.5640  142.0150 C   0  0  2  0  0  0  0  0  0  0  0  0
  190.2500  173.7250  145.3880 N   0  0  0  0  0  2  0  0  0  0  0  0
  196.3970  171.8560  143.6210 C   0  0  0  0  0  3  0  0  0  0  0  0
  196.5340  173.1890  144.3040 C   0  0  2  0  0  3  0  0  0  0  0  0
  196.4500  170.9010  144.4860 N   0  0  0  0  0  0  0  0  0  0  0  0
  196.5500  172.8130  145.7130 N   0  0  0  0  0  0  0  0  0  0  0  0
  196.5720  171.5180  145.7630 C   0  0  0  0  0  3  0  0  0  0  0  0
  193.6260  169.1360  136.0810 O   0  0  0  0  0  0  0  0  0  0  0  0
  192.4380  169.5500  136.0780 C   0  0  0  0  0  0  0  0  0  0  0  0
  190.8400  170.4330  134.5330 O   0  0  0  0  0  1  0  0  0  0  0  0
  191.5660  169.2800  134.8720 C   0  0  0  0  0  2  0  0  0  0  0  0
  190.6140  174.0130  137.4690 C   0  0  0  0  0  2  0  0  0  0  0  0
  189.3470  173.4210  135.4630 O   0  0  0  0  0  1  0  0  0  0  0  0
  189.7550  174.4930  136.2690 C   0  0  0  0  0  2  0  0  0  0  0  0
  1 36  1  0  0  0  0
  3 20  1  0  0  0  0
  4  2  1  6  0  0  0
  4 24  1  0  0  0  0
  5 25  2  0  0  0  0
 10 21  1  0  0  0  0
 13 20  1  0  0  0  0
 13  4  1  0  0  0  0
 13 25  1  1  0  0  0
 16 14  1  0  0  0  0
 17 18  2  0  0  0  0
 18  8  1  0  0  0  0
 19  6  1  0  0  0  0
 20 46  1  1  0  0  0
 20  4  1  0  0  0  0
 21  9  1  1  0  0  0
 21 19  1  0  0  0  0
 22 33  1  0  0  0  0
 22 31  1  0  0  0  0
 23 17  1  0  0  0  0
 23 28  2  0  0  0  0
 24 15  1  0  0  0  0
 24 10  2  0  0  0  0
 25 12  1  0  0  0  0
 26 32  1  6  0  0  0
 26  1  1  0  0  0  0
 27 12  1  6  0  0  0
 27 29  1  0  0  0  0
 27 16  1  0  0  0  0
 28  8  1  0  0  0  0
 29 35  1  0  0  0  0
 30  7  1  6  0  0  0
 30 36  1  0  0  0  0
 30 28  1  0  0  0  0
 31 17  1  0  0  0  0
 32  7  1  0  0  0  0
 33  6  1  6  0  0  0
 33 38  1  0  0  0  0
 34  3  1  0  0  0  0
 34  2  1  0  0  0  0
 35 11  1  6  0  0  0
 35 14  1  0  0  0  0
 35 26  1  0  0  0  0
 37 39  2  0  0  0  0
 38 37  1  6  0  0  0
 38 40  1  0  0  0  0
 39 41  1  0  0  0  0
 40 41  2  0  0  0  0
 43 42  2  0  0  0  0
 43  5  1  0  0  0  0
 44 45  1  0  0  0  0
 45 43  1  0  0  0  0
 47 48  1  0  0  0  0
 48 46  1  0  0  0  0
M  END
>  <MODEL>
4

>  <REMARK>
 VINA RESULT:      -6.8      2.671      6.090
  Name = 
  5 active torsions:
  status: ('A' for Active; 'I' for Inactive)
    1  A    between atoms: C_7  and  C_45
    2  A    between atoms: N_8  and  C_28
    3  A    between atoms: C_21  and  C_26
    4  A    between atoms: C_21  and  C_43
    5  A    between atoms: C_28  and  C_34
                            x       y       z     vdW  Elec       q    Type
                         _______ _______ _______ _____ _____    ______ ____

>  <TORSDO>
F 5

$$$$
=
 OpenBabel11062418263D

 48 54  0  0  1  0  0  0  0  0999 V2000
  192.9220  169.6820  141.9360 O   0  0  0  0  0  0  0  0  0  0  0  0
  190.6820  177.7140  145.4720 C   0  0  0  0  0  2  0  0  0  0  0  0
  188.9230  176.3510  146.4780 C   0  0  0  0  0  2  0  0  0  0  0  0
  190.4500  176.4990  144.5690 C   0  0  2  0  0  0  0  0  0  0  0  0
  188.5380  176.3560  141.4250 N   0  0  0  0  0  0  0  0  0  0  0  0
  195.0320  174.6540  143.2520 C   0  0  0  0  0  2  0  0  0  0  0  0
  193.4130  169.3960  144.5670 C   0  0  0  0  0  2  0  0  0  0  0  0
  197.1160  169.3320  144.3450 C   0  0  0  0  0  2  0  0  0  0  0  0
  194.4600  173.3860  145.7810 O   0  0  0  0  0  1  0  0  0  0  0  0
  192.3270  174.9910  144.9130 C   0  0  0  0  0  3  0  0  0  0  0  0
  190.1430  170.8520  142.2930 C   0  0  0  0  0  1  0  0  0  0  0  0
  189.4330  174.3430  142.2680 C   0  0  0  0  0  2  0  0  0  0  0  0
  189.1150  176.5130  143.8450 C   0  0  2  0  0  3  0  0  0  0  0  0
  191.6390  171.9990  140.6460 C   0  0  0  0  0  2  0  0  0  0  0  0
  192.4510  176.5230  142.9800 C   0  0  0  0  0  1  0  0  0  0  0  0
  190.9500  173.3610  140.4820 C   0  0  0  0  0  2  0  0  0  0  0  0
  197.2090  171.5550  144.5710 C   0  0  0  0  0  0  0  0  0  0  0  0
  197.9350  170.4900  144.7260 N   0  0  0  0  0  0  0  0  0  0  0  0
  194.1730  173.6290  143.1790 O   0  0  0  0  0  0  0  0  0  0  0  0
  189.2970  175.6630  145.1570 C   0  0  2  0  0  0  0  0  0  0  0  0
  194.0220  174.3920  144.7440 P   0  0  2  0  0  0  0  0  0  0  0  0
  196.9930  174.0490  144.6530 N   0  0  0  0  0  2  0  0  0  0  0  0
  195.8570  171.2600  144.1170 C   0  0  0  0  0  3  0  0  0  0  0  0
  191.7090  175.8450  144.0820 C   0  0  0  0  0  0  0  0  0  0  0  0
  189.1180  175.8090  142.4600 C   0  0  0  0  0  0  0  0  0  0  0  0
  192.6370  170.8500  142.6690 C   0  0  2  0  0  3  0  0  0  0  0  0
  190.8680  174.0180  141.8650 C   0  0  2  0  0  3  0  0  0  0  0  0
  195.8030  169.9440  143.9790 C   0  0  0  0  0  0  0  0  0  0  0  0
  191.3650  172.9740  142.8370 C   0  0  0  0  0  2  0  0  0  0  0  0
  194.5770  169.1790  143.5740 C   0  0  2  0  0  3  0  0  0  0  0  0
  197.7540  172.8710  144.7680 N   0  0  0  0  0  2  0  0  0  0  0  0
  192.3840  170.4330  144.1120 C   0  0  0  0  0  2  0  0  0  0  0  0
  196.4710  174.1170  143.2960 C   0  0  2  0  0  3  0  0  0  0  0  0
  189.5530  177.7400  146.4910 C   0  0  0  0  0  2  0  0  0  0  0  0
  191.4540  171.6430  142.1110 C   0  0  2  0  0  0  0  0  0  0  0  0
  194.2390  169.4130  142.1460 N   0  0  0  0  0  2  0  0  0  0  0  0
  196.4330  176.0620  141.7510 C   0  0  0  0  0  3  0  0  0  0  0  0
  197.3080  175.0230  142.3980 C   0  0  2  0  0  3  0  0  0  0  0  0
  196.5800  176.0380  140.4700 N   0  0  0  0  0  0  0  0  0  0  0  0
  197.8750  174.3370  141.2430 N   0  0  0  0  0  0  0  0  0  0  0  0
  197.4940  174.9840  140.1870 C   0  0  0  0  0  3  0  0  0  0  0  0
  188.4930  178.6670  141.4290 O   0  0  0  0  0  0  0  0  0  0  0  0
  187.8330  177.6060  141.2850 C   0  0  0  0  0  0  0  0  0  0  0  0
  186.3010  177.4210  139.4580 O   0  0  0  0  0  1  0  0  0  0  0  0
  186.3920  177.6890  140.8340 C   0  0  0  0  0  2  0  0  0  0  0  0
  188.6270  174.2690  144.9480 C   0  0  0  0  0  2  0  0  0  0  0  0
  189.3160  171.9410  145.2430 O   0  0  0  0  0  1  0  0  0  0  0  0
  189.3030  173.2040  145.8520 C   0  0  0  0  0  2  0  0  0  0  0  0
  1 36  1  0  0  0  0
  1 26  1  0  0  0  0
  2 34  1  0  0  0  0
  3 34  1  0  0  0  0
  4 20  1  0  0  0  0
  4  2  1  1  0  0  0
  5 25  2  0  0  0  0
  8 18  1  0  0  0  0
 12 25  1  0  0  0  0
 13 25  1  6  0  0  0
 13  4  1  0  0  0  0
 13 20  1  0  0  0  0
 14 35  1  0  0  0  0
 15 24  1  0  0  0  0
 16 14  1  0  0  0  0
 17 18  2  0  0  0  0
 17 31  1  0  0  0  0
 19  6  1  0  0  0  0
 19 21  1  0  0  0  0
 20 46  1  6  0  0  0
 20  3  1  0  0  0  0
 21 10  1  0  0  0  0
 21  9  1  1  0  0  0
 22 31  1  0  0  0  0
 23 17  1  0  0  0  0
 24  4  1  0  0  0  0
 24 10  2  0  0  0  0
 26 32  1  1  0  0  0
 27 16  1  6  0  0  0
 27 12  1  0  0  0  0
 27 29  1  0  0  0  0
 28 23  2  0  0  0  0
 28  8  1  0  0  0  0
 30 28  1  0  0  0  0
 30  7  1  1  0  0  0
 32  7  1  0  0  0  0
 33  6  1  1  0  0  0
 33 22  1  0  0  0  0
 35 11  1  1  0  0  0
 35 26  1  0  0  0  0
 35 29  1  0  0  0  0
 36 30  1  0  0  0  0
 38 37  1  6  0  0  0
 38 33  1  0  0  0  0
 39 37  2  0  0  0  0
 40 38  1  0  0  0  0
 41 39  1  0  0  0  0
 41 40  2  0  0  0  0
 43  5  1  0  0  0  0
 43 42  2  0  0  0  0
 44 45  1  0  0  0  0
 45 43  1  0  0  0  0
 46 48  1  0  0  0  0
 47 48  1  0  0  0  0
M  END
>  <MODEL>
5

>  <REMARK>
 VINA RESULT:      -6.7      3.032      7.939
  Name = 
  5 active torsions:
  status: ('A' for Active; 'I' for Inactive)
    1  A    between atoms: C_7  and  C_45
    2  A    between atoms: N_8  and  C_28
    3  A    between atoms: C_21  and  C_26
    4  A    between atoms: C_21  and  C_43
    5  A    between atoms: C_28  and  C_34
                            x       y       z     vdW  Elec       q    Type
                         _______ _______ _______ _____ _____    ______ ____

>  <TORSDO>
F 5

$$$$
=
 OpenBabel11062418263D

 48 54  0  0  1  0  0  0  0  0999 V2000
  194.9880  175.0250  146.3980 O   0  0  0  0  0  0  0  0  0  0  0  0
  187.5020  176.1510  141.4280 C   0  0  0  0  0  2  0  0  0  0  0  0
  188.2080  178.4830  141.5870 C   0  0  0  0  0  2  0  0  0  0  0  0
  188.3410  176.3060  142.6990 C   0  0  2  0  0  0  0  0  0  0  0  0
  187.1480  176.6010  146.1700 N   0  0  0  0  0  0  0  0  0  0  0  0
  191.5900  172.3630  142.8960 C   0  0  0  0  0  2  0  0  0  0  0  0
  195.9110  175.8390  144.0040 C   0  0  0  0  0  2  0  0  0  0  0  0
  197.4030  172.6080  142.9550 C   0  0  0  0  0  2  0  0  0  0  0  0
  192.9540  174.3230  141.2760 O   0  0  0  0  0  1  0  0  0  0  0  0
  190.5060  175.2950  142.2460 C   0  0  0  0  0  3  0  0  0  0  0  0
  192.8940  177.2080  146.6510 C   0  0  0  0  0  1  0  0  0  0  0  0
  189.4660  176.7900  145.7780 C   0  0  0  0  0  2  0  0  0  0  0  0
  187.6680  177.1220  143.7890 C   0  0  2  0  0  3  0  0  0  0  0  0
  192.1630  174.8830  147.2180 C   0  0  0  0  0  2  0  0  0  0  0  0
  188.8320  173.9010  143.4080 C   0  0  0  0  0  1  0  0  0  0  0  0
  190.6340  175.0020  147.1540 C   0  0  0  0  0  2  0  0  0  0  0  0
  195.4790  171.9840  142.0000 C   0  0  0  0  0  0  0  0  0  0  0  0
  196.7540  171.7410  141.9630 N   0  0  0  0  0  0  0  0  0  0  0  0
  192.1570  173.3600  143.5880 O   0  0  0  0  0  0  0  0  0  0  0  0
  188.7390  177.7870  142.8470 C   0  0  2  0  0  0  0  0  0  0  0  0
  191.6900  173.9510  142.0110 P   0  0  2  0  0  0  0  0  0  0  0  0
  193.1640  171.4810  141.1880 N   0  0  0  0  0  2  0  0  0  0  0  0
  195.1260  173.0220  142.9580 C   0  0  0  0  0  3  0  0  0  0  0  0
  189.3440  175.2110  142.9120 C   0  0  0  0  0  0  0  0  0  0  0  0
  188.0550  176.7180  145.2380 C   0  0  0  0  0  0  0  0  0  0  0  0
  193.9550  175.2500  145.4680 C   0  0  2  0  0  3  0  0  0  0  0  0
  190.2570  175.4870  145.7480 C   0  0  2  0  0  3  0  0  0  0  0  0
  196.2640  173.3890  143.5280 C   0  0  0  0  0  0  0  0  0  0  0  0
  191.5680  175.7910  145.0620 C   0  0  0  0  0  2  0  0  0  0  0  0
  196.3930  174.4770  144.5530 C   0  0  2  0  0  3  0  0  0  0  0  0
  194.5470  171.2250  141.2110 N   0  0  0  0  0  2  0  0  0  0  0  0
  194.4880  176.2160  144.4180 C   0  0  0  0  0  2  0  0  0  0  0  0
  192.6530  171.3120  142.5410 C   0  0  2  0  0  3  0  0  0  0  0  0
  187.2110  177.5500  140.9070 C   0  0  0  0  0  2  0  0  0  0  0  0
  192.6720  175.7830  146.1060 C   0  0  2  0  0  0  0  0  0  0  0  0
  195.7920  174.0730  145.8510 N   0  0  0  0  0  2  0  0  0  0  0  0
  192.8530  168.8730  142.1150 C   0  0  0  0  0  3  0  0  0  0  0  0
  192.0100  169.9450  142.7510 C   0  0  2  0  0  3  0  0  0  0  0  0
  192.1440  168.1660  141.3030 N   0  0  0  0  0  0  0  0  0  0  0  0
  190.7370  169.7860  142.0570 N   0  0  0  0  0  0  0  0  0  0  0  0
  190.8380  168.7340  141.3070 C   0  0  0  0  0  3  0  0  0  0  0  0
  185.0150  176.0370  146.8630 O   0  0  0  0  0  0  0  0  0  0  0  0
  185.7180  176.7780  146.1270 C   0  0  0  0  0  0  0  0  0  0  0  0
  184.0650  178.5060  146.1490 O   0  0  0  0  0  1  0  0  0  0  0  0
  185.0520  177.8980  145.3580 C   0  0  0  0  0  2  0  0  0  0  0  0
  189.6910  178.6700  143.7150 C   0  0  0  0  0  2  0  0  0  0  0  0
  192.0510  179.2320  144.0210 O   0  0  0  0  0  1  0  0  0  0  0  0
  191.1360  178.6200  143.1530 C   0  0  0  0  0  2  0  0  0  0  0  0
  3 20  1  0  0  0  0
  4  2  1  6  0  0  0
  4 20  1  0  0  0  0
  4 24  1  0  0  0  0
  4 13  1  0  0  0  0
  6 19  1  0  0  0  0
  7 32  1  0  0  0  0
  8 28  1  0  0  0  0
 10 24  2  0  0  0  0
 13 25  1  1  0  0  0
 16 14  1  0  0  0  0
 17 23  1  0  0  0  0
 18 17  2  0  0  0  0
 18  8  1  0  0  0  0
 20 46  1  1  0  0  0
 20 13  1  0  0  0  0
 21  9  1  1  0  0  0
 21 10  1  0  0  0  0
 21 19  1  0  0  0  0
 22 31  1  0  0  0  0
 22 33  1  0  0  0  0
 23 28  2  0  0  0  0
 24 15  1  0  0  0  0
 25 12  1  0  0  0  0
 25  5  2  0  0  0  0
 26 32  1  6  0  0  0
 26 35  1  0  0  0  0
 26  1  1  0  0  0  0
 27 29  1  6  0  0  0
 27 12  1  0  0  0  0
 27 16  1  0  0  0  0
 28 30  1  0  0  0  0
 29 35  1  0  0  0  0
 30  7  1  6  0  0  0
 30 36  1  0  0  0  0
 31 17  1  0  0  0  0
 33 38  1  0  0  0  0
 33  6  1  6  0  0  0
 34  2  1  0  0  0  0
 34  3  1  0  0  0  0
 35 11  1  1  0  0  0
 35 14  1  0  0  0  0
 36  1  1  0  0  0  0
 38 37  1  6  0  0  0
 39 41  1  0  0  0  0
 39 37  2  0  0  0  0
 40 38  1  0  0  0  0
 41 40  2  0  0  0  0
 43  5  1  0  0  0  0
 43 42  2  0  0  0  0
 45 43  1  0  0  0  0
 45 44  1  0  0  0  0
 48 46  1  0  0  0  0
 48 47  1  0  0  0  0
M  END
>  <MODEL>
6

>  <REMARK>
 VINA RESULT:      -6.6      3.064      8.251
  Name = 
  5 active torsions:
  status: ('A' for Active; 'I' for Inactive)
    1  A    between atoms: C_7  and  C_45
    2  A    between atoms: N_8  and  C_28
    3  A    between atoms: C_21  and  C_26
    4  A    between atoms: C_21  and  C_43
    5  A    between atoms: C_28  and  C_34
                            x       y       z     vdW  Elec       q    Type
                         _______ _______ _______ _____ _____    ______ ____

>  <TORSDO>
F 5

$$$$
=
 OpenBabel11062418263D

 48 54  0  0  1  0  0  0  0  0999 V2000
  190.2090  172.2730  143.6060 O   0  0  0  0  0  0  0  0  0  0  0  0
  195.9440  175.2900  137.2790 C   0  0  0  0  0  2  0  0  0  0  0  0
  193.8380  175.6890  136.1060 C   0  0  0  0  0  2  0  0  0  0  0  0
  194.9010  174.3160  137.8340 C   0  0  2  0  0  0  0  0  0  0  0  0
  194.4880  170.7480  137.0200 N   0  0  0  0  0  0  0  0  0  0  0  0
  195.3300  174.3260  142.9280 C   0  0  0  0  0  2  0  0  0  0  0  0
  189.7350  174.9210  143.5060 C   0  0  0  0  0  2  0  0  0  0  0  0
  191.2300  175.7870  146.7900 C   0  0  0  0  0  2  0  0  0  0  0  0
  193.5550  176.5310  142.3630 O   0  0  0  0  0  1  0  0  0  0  0  0
  194.2600  175.1380  140.0310 C   0  0  0  0  0  3  0  0  0  0  0  0
  190.0640  171.8470  140.6040 C   0  0  0  0  0  1  0  0  0  0  0  0
  192.9130  171.7420  138.4670 C   0  0  0  0  0  2  0  0  0  0  0  0
  194.4810  173.2350  136.8520 C   0  0  2  0  0  3  0  0  0  0  0  0
  191.9690  170.7500  141.8010 C   0  0  0  0  0  2  0  0  0  0  0  0
  195.9940  173.3810  139.9450 C   0  0  0  0  0  1  0  0  0  0  0  0
  192.9370  170.4420  140.6500 C   0  0  0  0  0  2  0  0  0  0  0  0
  193.2290  176.1100  145.8400 C   0  0  0  0  0  0  0  0  0  0  0  0
  192.5460  176.4310  146.8960 N   0  0  0  0  0  0  0  0  0  0  0  0
  194.0690  173.9690  142.6520 O   0  0  0  0  0  0  0  0  0  0  0  0
  193.5840  174.5120  137.0570 C   0  0  2  0  0  0  0  0  0  0  0  0
  194.4440  175.4490  141.8000 P   0  0  2  0  0  0  0  0  0  0  0  0
  195.3680  176.2160  144.5410 N   0  0  0  0  0  2  0  0  0  0  0  0
  192.4820  175.2710  144.9130 C   0  0  0  0  0  3  0  0  0  0  0  0
  194.9060  174.1940  139.3280 C   0  0  0  0  0  0  0  0  0  0  0  0
  194.0710  171.8870  137.5050 C   0  0  0  0  0  0  0  0  0  0  0  0
  191.0250  172.9340  142.6670 C   0  0  2  0  0  3  0  0  0  0  0  0
  193.2730  171.7640  139.9500 C   0  0  2  0  0  3  0  0  0  0  0  0
  191.3000  175.0750  145.4770 C   0  0  0  0  0  0  0  0  0  0  0  0
  192.3850  172.8000  140.5960 C   0  0  0  0  0  2  0  0  0  0  0  0
  190.1750  174.3030  144.8530 C   0  0  2  0  0  3  0  0  0  0  0  0
  194.6030  176.5050  145.6860 N   0  0  0  0  0  2  0  0  0  0  0  0
  190.3170  174.2240  142.2750 C   0  0  0  0  0  2  0  0  0  0  0  0
  195.4310  174.7690  144.3960 C   0  0  2  0  0  3  0  0  0  0  0  0
  195.3420  175.9360  136.0400 C   0  0  0  0  0  2  0  0  0  0  0  0
  191.3410  172.0840  141.4360 C   0  0  2  0  0  0  0  0  0  0  0  0
  190.4740  172.8480  144.8110 N   0  0  0  0  0  2  0  0  0  0  0  0
  197.3650  173.2840  143.9220 C   0  0  0  0  0  3  0  0  0  0  0  0
  196.7310  174.1870  144.9440 C   0  0  2  0  0  3  0  0  0  0  0  0
  197.5940  172.1220  144.4290 N   0  0  0  0  0  0  0  0  0  0  0  0
  196.5350  173.2840  146.0720 N   0  0  0  0  0  0  0  0  0  0  0  0
  197.0960  172.1580  145.7630 C   0  0  0  0  0  3  0  0  0  0  0  0
  194.8360  170.5040  134.7470 O   0  0  0  0  0  0  0  0  0  0  0  0
  195.3440  170.4540  135.8980 C   0  0  0  0  0  0  0  0  0  0  0  0
  197.4370  171.3770  136.5940 O   0  0  0  0  0  1  0  0  0  0  0  0
  196.8350  170.2380  136.0380 C   0  0  0  0  0  2  0  0  0  0  0  0
  192.0900  174.0660  137.1410 C   0  0  0  0  0  2  0  0  0  0  0  0
  189.8730  174.5400  136.2240 O   0  0  0  0  0  1  0  0  0  0  0  0
  191.2400  174.8270  136.0900 C   0  0  0  0  0  2  0  0  0  0  0  0
  1 36  1  0  0  0  0
  3 20  1  0  0  0  0
  4  2  1  6  0  0  0
  4 24  1  0  0  0  0
  5 25  2  0  0  0  0
  8 18  1  0  0  0  0
 10 21  1  0  0  0  0
 13 20  1  0  0  0  0
 13 25  1  1  0  0  0
 13  4  1  0  0  0  0
 16 14  1  0  0  0  0
 17 18  2  0  0  0  0
 19  6  1  0  0  0  0
 20 46  1  1  0  0  0
 20  4  1  0  0  0  0
 21  9  1  1  0  0  0
 21 19  1  0  0  0  0
 22 31  1  0  0  0  0
 23 28  2  0  0  0  0
 23 17  1  0  0  0  0
 24 15  1  0  0  0  0
 24 10  2  0  0  0  0
 25 12  1  0  0  0  0
 26 32  1  6  0  0  0
 26  1  1  0  0  0  0
 27 12  1  6  0  0  0
 27 29  1  0  0  0  0
 27 16  1  0  0  0  0
 28  8  1  0  0  0  0
 29 35  1  0  0  0  0
 30  7  1  6  0  0  0
 30 28  1  0  0  0  0
 31 17  1  0  0  0  0
 32  7  1  0  0  0  0
 33  6  1  6  0  0  0
 33 22  1  0  0  0  0
 33 38  1  0  0  0  0
 34  3  1  0  0  0  0
 34  2  1  0  0  0  0
 35 11  1  6  0  0  0
 35 14  1  0  0  0  0
 35 26  1  0  0  0  0
 36 30  1  0  0  0  0
 37 39  2  0  0  0  0
 38 37  1  6  0  0  0
 38 40  1  0  0  0  0
 39 41  1  0  0  0  0
 41 40  2  0  0  0  0
 42 43  2  0  0  0  0
 43 45  1  0  0  0  0
 43  5  1  0  0  0  0
 45 44  1  0  0  0  0
 48 47  1  0  0  0  0
 48 46  1  0  0  0  0
M  END
>  <MODEL>
7

>  <REMARK>
 VINA RESULT:      -6.5      2.781      6.211
  Name = 
  5 active torsions:
  status: ('A' for Active; 'I' for Inactive)
    1  A    between atoms: C_7  and  C_45
    2  A    between atoms: N_8  and  C_28
    3  A    between atoms: C_21  and  C_26
    4  A    between atoms: C_21  and  C_43
    5  A    between atoms: C_28  and  C_34
                            x       y       z     vdW  Elec       q    Type
                         _______ _______ _______ _____ _____    ______ ____

>  <TORSDO>
F 5

$$$$
=
 OpenBabel11062418263D

 48 54  0  0  1  0  0  0  0  0999 V2000
  190.2130  171.3630  138.9460 O   0  0  0  0  0  0  0  0  0  0  0  0
  196.8510  173.8840  144.5680 C   0  0  0  0  0  2  0  0  0  0  0  0
  196.0320  171.9370  145.7940 C   0  0  0  0  0  2  0  0  0  0  0  0
  195.3840  173.6670  144.1860 C   0  0  2  0  0  0  0  0  0  0  0  0
  192.4350  175.4870  145.4320 N   0  0  0  0  0  0  0  0  0  0  0  0
  195.0180  174.1540  139.1100 C   0  0  0  0  0  2  0  0  0  0  0  0
  192.0160  169.3730  138.7600 C   0  0  0  0  0  2  0  0  0  0  0  0
  193.1940  170.1300  135.3230 C   0  0  0  0  0  2  0  0  0  0  0  0
  195.7410  171.3880  139.5050 O   0  0  0  0  0  1  0  0  0  0  0  0
  195.3660  172.7250  141.9440 C   0  0  0  0  0  3  0  0  0  0  0  0
  190.1650  171.4180  141.9800 C   0  0  0  0  0  1  0  0  0  0  0  0
  192.0780  173.6770  143.9630 C   0  0  0  0  0  2  0  0  0  0  0  0
  194.4030  173.9630  145.3080 C   0  0  2  0  0  3  0  0  0  0  0  0
  190.3110  173.6310  140.8220 C   0  0  0  0  0  2  0  0  0  0  0  0
  195.0510  175.1660  142.1450 C   0  0  0  0  0  1  0  0  0  0  0  0
  190.8000  174.5520  141.9490 C   0  0  0  0  0  2  0  0  0  0  0  0
  194.7790  171.4900  136.1230 C   0  0  0  0  0  0  0  0  0  0  0  0
  194.4850  170.7840  135.0740 N   0  0  0  0  0  0  0  0  0  0  0  0
  194.0070  173.3630  139.4920 O   0  0  0  0  0  0  0  0  0  0  0  0
  194.8350  172.4800  145.0020 C   0  0  2  0  0  0  0  0  0  0  0  0
  195.5020  172.7340  140.1430 P   0  0  2  0  0  0  0  0  0  0  0  0
  196.3230  173.0820  137.2870 N   0  0  0  0  0  2  0  0  0  0  0  0
  193.7830  171.3800  137.1800 C   0  0  0  0  0  3  0  0  0  0  0  0
  195.1050  173.7900  142.7180 C   0  0  0  0  0  0  0  0  0  0  0  0
  193.0140  174.4770  144.8400 C   0  0  0  0  0  0  0  0  0  0  0  0
  191.3440  171.5800  139.7570 C   0  0  2  0  0  3  0  0  0  0  0  0
  192.1300  173.9930  142.4710 C   0  0  2  0  0  3  0  0  0  0  0  0
  192.8410  170.5790  136.7050 C   0  0  0  0  0  0  0  0  0  0  0  0
  192.3230  172.6770  141.7550 C   0  0  0  0  0  2  0  0  0  0  0  0
  191.6310  170.1380  137.4730 C   0  0  2  0  0  3  0  0  0  0  0  0
  195.9430  172.3340  136.1580 N   0  0  0  0  0  2  0  0  0  0  0  0
  191.9760  170.2220  140.0320 C   0  0  0  0  0  2  0  0  0  0  0  0
  195.2440  174.0080  137.5970 C   0  0  2  0  0  3  0  0  0  0  0  0
  197.1470  172.9770  145.7520 C   0  0  0  0  0  2  0  0  0  0  0  0
  191.0220  172.3110  141.0610 C   0  0  2  0  0  0  0  0  0  0  0  0
  190.6750  171.2590  137.6690 N   0  0  0  0  0  2  0  0  0  0  0  0
  194.8700  175.5680  135.7000 C   0  0  0  0  0  3  0  0  0  0  0  0
  195.5080  175.4090  137.0540 C   0  0  2  0  0  3  0  0  0  0  0  0
  195.7420  175.9610  134.8360 N   0  0  0  0  0  0  0  0  0  0  0  0
  196.9140  175.6660  136.7630 N   0  0  0  0  0  0  0  0  0  0  0  0
  196.9870  176.0390  135.5240 C   0  0  0  0  0  3  0  0  0  0  0  0
  192.0920  176.4100  147.5240 O   0  0  0  0  0  0  0  0  0  0  0  0
  192.8640  176.3110  146.5340 C   0  0  0  0  0  0  0  0  0  0  0  0
  194.5650  177.5400  145.3880 O   0  0  0  0  0  1  0  0  0  0  0  0
  194.2420  176.9280  146.6100 C   0  0  0  0  0  2  0  0  0  0  0  0
  193.5680  171.5690  145.0490 C   0  0  0  0  0  2  0  0  0  0  0  0
  192.6890  169.6710  143.7820 O   0  0  0  0  0  1  0  0  0  0  0  0
  193.8510  170.2140  144.3500 C   0  0  0  0  0  2  0  0  0  0  0  0
  1 26  1  0  0  0  0
  2 34  1  0  0  0  0
  4  2  1  1  0  0  0
  4 20  1  0  0  0  0
  4 13  1  0  0  0  0
  5 43  1  0  0  0  0
  6 19  1  0  0  0  0
  7 32  1  0  0  0  0
  8 28  1  0  0  0  0
 10 24  2  0  0  0  0
 12 25  1  0  0  0  0
 13 25  1  6  0  0  0
 14 35  1  0  0  0  0
 14 16  1  0  0  0  0
 15 24  1  0  0  0  0
 16 27  1  0  0  0  0
 17 31  1  0  0  0  0
 17 23  1  0  0  0  0
 18  8  1  0  0  0  0
 18 17  2  0  0  0  0
 19 21  1  0  0  0  0
 20 46  1  6  0  0  0
 20 13  1  0  0  0  0
 20  3  1  0  0  0  0
 21  9  1  6  0  0  0
 21 10  1  0  0  0  0
 22 33  1  0  0  0  0
 24  4  1  0  0  0  0
 25  5  2  0  0  0  0
 26 32  1  1  0  0  0
 26 35  1  0  0  0  0
 27 29  1  6  0  0  0
 27 12  1  0  0  0  0
 28 23  2  0  0  0  0
 28 30  1  0  0  0  0
 30 36  1  0  0  0  0
 30  7  1  1  0  0  0
 31 22  1  0  0  0  0
 33  6  1  1  0  0  0
 34  3  1  0  0  0  0
 35 29  1  0  0  0  0
 35 11  1  1  0  0  0
 36  1  1  0  0  0  0
 38 37  1  6  0  0  0
 38 33  1  0  0  0  0
 39 41  1  0  0  0  0
 39 37  2  0  0  0  0
 40 38  1  0  0  0  0
 41 40  2  0  0  0  0
 43 45  1  0  0  0  0
 43 42  2  0  0  0  0
 44 45  1  0  0  0  0
 47 48  1  0  0  0  0
 48 46  1  0  0  0  0
M  END
>  <MODEL>
8

>  <REMARK>
 VINA RESULT:      -6.5      3.170      8.721
  Name = 
  5 active torsions:
  status: ('A' for Active; 'I' for Inactive)
    1  A    between atoms: C_7  and  C_45
    2  A    between atoms: N_8  and  C_28
    3  A    between atoms: C_21  and  C_26
    4  A    between atoms: C_21  and  C_43
    5  A    between atoms: C_28  and  C_34
                            x       y       z     vdW  Elec       q    Type
                         _______ _______ _______ _____ _____    ______ ____

>  <TORSDO>
F 5

$$$$
=
 OpenBabel11062418263D

 48 54  0  0  1  0  0  0  0  0999 V2000
  193.2170  168.9140  140.0120 O   0  0  0  0  0  0  0  0  0  0  0  0
  193.5950  176.7020  144.6190 C   0  0  0  0  0  2  0  0  0  0  0  0
  194.6760  175.2410  146.2520 C   0  0  0  0  0  2  0  0  0  0  0  0
  193.1000  175.2730  144.3770 C   0  0  2  0  0  0  0  0  0  0  0  0
  189.8930  173.7900  145.4150 N   0  0  0  0  0  0  0  0  0  0  0  0
  193.2170  174.4320  139.3360 C   0  0  0  0  0  2  0  0  0  0  0  0
  195.8460  169.4850  140.1140 C   0  0  0  0  0  2  0  0  0  0  0  0
  196.2740  170.3510  136.5310 C   0  0  0  0  0  2  0  0  0  0  0  0
  195.8860  173.7830  140.2230 O   0  0  0  0  0  1  0  0  0  0  0  0
  194.2120  174.4690  142.3690 C   0  0  0  0  0  3  0  0  0  0  0  0
  192.7180  169.3530  142.9740 C   0  0  0  0  0  1  0  0  0  0  0  0
  191.4680  172.3900  144.3550 C   0  0  0  0  0  2  0  0  0  0  0  0
  192.1980  174.7370  145.4760 C   0  0  2  0  0  3  0  0  0  0  0  0
  191.0650  170.3720  141.3960 C   0  0  0  0  0  2  0  0  0  0  0  0
  191.9410  175.4020  142.1040 C   0  0  0  0  0  1  0  0  0  0  0  0
  190.3640  171.4070  142.2880 C   0  0  0  0  0  2  0  0  0  0  0  0
  195.7940  172.4950  136.9510 C   0  0  0  0  0  0  0  0  0  0  0  0
  196.3970  171.7440  136.0810 N   0  0  0  0  0  0  0  0  0  0  0  0
  193.3320  173.2340  139.9260 O   0  0  0  0  0  0  0  0  0  0  0  0
  193.7230  174.3500  145.4420 C   0  0  2  0  0  0  0  0  0  0  0  0
  194.5260  174.3200  140.5970 P   0  0  2  0  0  0  0  0  0  0  0  0
  195.0430  174.7690  137.6850 N   0  0  0  0  0  2  0  0  0  0  0  0
  195.2390  171.7400  138.0660 C   0  0  0  0  0  3  0  0  0  0  0  0
  193.0620  174.8720  142.9320 C   0  0  0  0  0  0  0  0  0  0  0  0
  191.1290  173.7150  144.9990 C   0  0  0  0  0  0  0  0  0  0  0  0
  193.4840  170.1160  140.6960 C   0  0  2  0  0  3  0  0  0  0  0  0
  191.4330  172.3630  142.8300 C   0  0  2  0  0  3  0  0  0  0  0  0
  195.5190  170.4700  137.8160 C   0  0  0  0  0  0  0  0  0  0  0  0
  192.7550  171.7890  142.3760 C   0  0  0  0  0  2  0  0  0  0  0  0
  195.1810  169.3270  138.7270 C   0  0  2  0  0  3  0  0  0  0  0  0
  195.6500  173.9110  136.7490 N   0  0  0  0  0  2  0  0  0  0  0  0
  194.9220  170.0490  141.1940 C   0  0  0  0  0  2  0  0  0  0  0  0
  193.6670  174.3300  137.8700 C   0  0  2  0  0  3  0  0  0  0  0  0
  194.3510  176.6980  145.9400 C   0  0  0  0  0  2  0  0  0  0  0  0
  192.5140  170.3860  141.8470 C   0  0  2  0  0  0  0  0  0  0  0  0
  193.7170  169.0720  138.7560 N   0  0  0  0  0  2  0  0  0  0  0  0
  192.1560  174.3320  135.8990 C   0  0  0  0  0  3  0  0  0  0  0  0
  192.6800  175.1510  137.0470 C   0  0  2  0  0  3  0  0  0  0  0  0
  192.3350  174.9530  134.7840 N   0  0  0  0  0  0  0  0  0  0  0  0
  193.2930  176.2830  136.3610 N   0  0  0  0  0  0  0  0  0  0  0  0
  193.0140  176.1640  135.1010 C   0  0  0  0  0  3  0  0  0  0  0  0
  189.2060  174.4270  147.5290 O   0  0  0  0  0  0  0  0  0  0  0  0
  189.2490  174.7220  146.3060 C   0  0  0  0  0  0  0  0  0  0  0  0
  188.0050  176.6840  146.8750 O   0  0  0  0  0  1  0  0  0  0  0  0
  188.7640  176.0830  145.8580 C   0  0  0  0  0  2  0  0  0  0  0  0
  193.8600  172.8240  145.7430 C   0  0  0  0  0  2  0  0  0  0  0  0
  195.4950  171.0060  145.7460 O   0  0  0  0  0  1  0  0  0  0  0  0
  195.2450  172.3040  145.2770 C   0  0  0  0  0  2  0  0  0  0  0  0
  1 26  1  0  0  0  0
  2 34  1  0  0  0  0
  4  2  1  1  0  0  0
  4 20  1  0  0  0  0
  4 13  1  0  0  0  0
  5 43  1  0  0  0  0
  6 19  1  0  0  0  0
  7 32  1  0  0  0  0
  8 28  1  0  0  0  0
 10 24  2  0  0  0  0
 12 25  1  0  0  0  0
 13 25  1  6  0  0  0
 14 35  1  0  0  0  0
 14 16  1  0  0  0  0
 15 24  1  0  0  0  0
 17 23  1  0  0  0  0
 18  8  1  0  0  0  0
 18 17  2  0  0  0  0
 19 21  1  0  0  0  0
 20 13  1  0  0  0  0
 20 46  1  6  0  0  0
 20  3  1  0  0  0  0
 21  9  1  1  0  0  0
 21 10  1  0  0  0  0
 22 33  1  0  0  0  0
 24  4  1  0  0  0  0
 25  5  2  0  0  0  0
 26 32  1  1  0  0  0
 26 35  1  0  0  0  0
 27 16  1  1  0  0  0
 27 12  1  0  0  0  0
 28 23  2  0  0  0  0
 28 30  1  0  0  0  0
 29 27  1  0  0  0  0
 30 36  1  0  0  0  0
 30  7  1  1  0  0  0
 31 17  1  0  0  0  0
 31 22  1  0  0  0  0
 33  6  1  1  0  0  0
 34  3  1  0  0  0  0
 35 29  1  0  0  0  0
 35 11  1  1  0  0  0
 36  1  1  0  0  0  0
 38 37  1  6  0  0  0
 38 33  1  0  0  0  0
 39 41  1  0  0  0  0
 39 37  2  0  0  0  0
 40 38  1  0  0  0  0
 41 40  2  0  0  0  0
 43 42  2  0  0  0  0
 45 43  1  0  0  0  0
 45 44  1  0  0  0  0
 48 46  1  0  0  0  0
 48 47  1  0  0  0  0
M  END
>  <MODEL>
9

>  <REMARK>
 VINA RESULT:      -6.4      3.139      8.433
  Name = 
  5 active torsions:
  status: ('A' for Active; 'I' for Inactive)
    1  A    between atoms: C_7  and  C_45
    2  A    between atoms: N_8  and  C_28
    3  A    between atoms: C_21  and  C_26
    4  A    between atoms: C_21  and  C_43
    5  A    between atoms: C_28  and  C_34
                            x       y       z     vdW  Elec       q    Type
                         _______ _______ _______ _____ _____    ______ ____

>  <TORSDO>
F 5

$$$$
