=
 OpenBabel11062419163D

 50 54  0  0  1  0  0  0  0  0999 V2000
  189.1810  176.3070  144.5480 N   0  0  0  0  0  0  0  0  0  0  0  0
  194.1440  174.1300  144.3010 C   0  0  0  0  0  0  0  0  0  0  0  0
  191.8710  175.4030  147.0560 C   0  0  0  0  0  2  0  0  0  0  0  0
  193.6070  173.0040  139.6770 C   0  0  0  0  0  0  0  0  0  0  0  0
  188.9990  173.3940  141.2120 N   0  0  0  0  0  2  0  0  0  0  0  0
  195.2210  174.0650  138.4680 N   0  0  0  0  0  0  0  0  0  0  0  0
  193.9740  173.3870  138.4540 C   0  0  0  0  0  0  0  0  0  0  0  0
  190.2610  175.7440  145.1240 C   0  0  0  0  0  0  0  0  0  0  0  0
  189.5600  173.2530  142.5170 C   0  0  0  0  0  0  0  0  0  0  0  0
  189.9870  172.1300  142.8970 O   0  0  0  0  0  0  0  0  0  0  0  0
  188.7290  172.2880  140.3010 C   0  0  0  0  0  2  0  0  0  0  0  0
  192.5570  171.2940  140.9010 O   0  0  0  0  0  0  0  0  0  0  0  0
  191.0980  172.5090  139.5450 N   0  0  0  0  0  0  0  0  0  0  0  0
  194.7210  173.3390  140.6220 C   0  0  1  0  0  3  0  0  0  0  0  0
  191.7040  173.6180  144.7510 C   0  0  0  0  0  2  0  0  0  0  0  0
  190.0070  171.5820  139.8440 C   0  0  0  0  0  2  0  0  0  0  0  0
  195.6380  174.0650  139.6920 C   0  0  0  0  0  0  0  0  0  0  0  0
  188.7920  175.5210  143.5220 C   0  0  0  0  0  0  0  0  0  0  0  0
  189.6510  174.4200  143.4270 C   0  0  0  0  0  0  0  0  0  0  0  0
  190.8310  173.6960  138.7380 C   0  0  0  0  0  1  0  0  0  0  0  0
  196.6240  174.5260  143.9700 C   0  0  0  0  0  1  0  0  0  0  0  0
  194.3090  174.2090  141.8140 C   0  0  2  0  0  3  0  0  0  0  0  0
  194.0740  173.3280  143.0330 C   0  0  0  0  0  2  0  0  0  0  0  0
  190.9870  176.3750  146.2880 C   0  0  0  0  0  2  0  0  0  0  0  0
  192.9970  174.3060  145.0920 C   0  0  0  0  0  0  0  0  0  0  0  0
  190.5990  174.5840  144.4320 C   0  0  0  0  0  0  0  0  0  0  0  0
  195.3720  175.4620  145.8590 N   0  0  0  0  0  0  0  0  0  0  0  0
  194.2730  175.6570  146.5890 N   0  0  0  0  0  0  0  0  0  0  0  0
  193.2880  173.0250  137.1810 C   0  0  0  0  0  1  0  0  0  0  0  0
  192.4140  172.2170  140.0540 C   0  0  0  0  0  0  0  0  0  0  0  0
  193.1820  174.9910  141.5410 O   0  0  0  0  0  1  0  0  0  0  0  0
  193.0860  175.0960  146.2470 C   0  0  0  0  0  0  0  0  0  0  0  0
  195.3530  174.7120  144.7270 C   0  0  0  0  0  0  0  0  0  0  0  0
  196.9370  174.6750  140.0990 C   0  0  0  0  0  2  0  0  0  0  0  0
  197.9050  173.5980  140.5510 C   0  0  0  0  0  1  0  0  0  0  0  0
  187.5870  175.8610  142.6740 C   0  0  1  0  0  3  0  0  0  0  0  0
  186.3670  175.9290  143.3820 O   0  0  0  0  0  0  0  0  0  0  0  0
  185.6320  177.0290  142.9150 C   0  0  0  0  0  2  0  0  0  0  0  0
  184.8350  177.6510  144.0520 C   0  0  0  0  0  2  0  0  0  0  0  0
  184.8750  179.7120  145.4100 F   0  0  0  0  0  0  0  0  0  0  0  0
  185.2350  179.0740  144.2660 C   0  0  0  0  0  0  0  0  0  0  0  0
  185.9060  179.6580  143.4300 O   0  0  0  0  0  0  0  0  0  0  0  0
  187.7780  176.9080  141.5800 C   0  0  0  0  0  2  0  0  0  0  0  0
  186.2980  177.5140  139.5020 C   0  0  0  0  0  1  0  0  0  0  0  0
  187.4530  176.1850  139.9440 S   0  0  0  0  0  0  0  0  0  0  0  0
  188.5590  177.5640  144.9490 C   0  0  0  0  0  2  0  0  0  0  0  0
  188.1990  177.5190  146.4240 C   0  0  0  0  0  2  0  0  0  0  0  0
  187.0580  176.5420  146.6580 C   0  0  0  0  0  2  0  0  0  0  0  0
  186.3850  178.4790  147.9860 N   0  0  0  0  0  1  0  0  0  0  0  0
  186.0070  177.1340  147.5860 C   0  0  0  0  0  2  0  0  0  0  0  0
  1 46  1  0  0  0  0
  1  8  1  0  0  0  0
  2 33  2  0  0  0  0
  2 25  1  0  0  0  0
  4 30  1  0  0  0  0
  5  9  1  0  0  0  0
  6 17  2  0  0  0  0
  7  6  1  0  0  0  0
  7  4  2  0  0  0  0
  8 24  1  0  0  0  0
  9 10  2  0  0  0  0
  9 19  1  0  0  0  0
 11  5  1  0  0  0  0
 13 16  1  0  0  0  0
 13 30  1  0  0  0  0
 14  4  1  6  0  0  0
 14 22  1  0  0  0  0
 15 25  1  0  0  0  0
 16 11  1  0  0  0  0
 17 34  1  0  0  0  0
 17 14  1  0  0  0  0
 18  1  1  0  0  0  0
 19 18  2  0  0  0  0
 19 26  1  0  0  0  0
 20 13  1  0  0  0  0
 21 33  1  0  0  0  0
 22 31  1  6  0  0  0
 22 23  1  0  0  0  0
 23  2  1  0  0  0  0
 24  3  1  0  0  0  0
 25 32  2  0  0  0  0
 26 15  1  0  0  0  0
 26  8  2  0  0  0  0
 27 28  2  0  0  0  0
 29  7  1  0  0  0  0
 30 12  2  0  0  0  0
 32 28  1  0  0  0  0
 32  3  1  0  0  0  0
 33 27  1  0  0  0  0
 34 35  1  0  0  0  0
 36 43  1  1  0  0  0
 36 37  1  0  0  0  0
 36 18  1  0  0  0  0
 38 37  1  0  0  0  0
 38 39  1  0  0  0  0
 39 41  1  0  0  0  0
 41 40  1  0  0  0  0
 42 41  2  0  0  0  0
 44 45  1  0  0  0  0
 45 43  1  0  0  0  0
 46 47  1  0  0  0  0
 47 48  1  0  0  0  0
 48 50  1  0  0  0  0
 50 49  1  0  0  0  0
M  END
>  <MODEL>
1

>  <REMARK>
 VINA RESULT:      -7.0      0.000      0.000
  Name = 
  12 active torsions:
  status: ('A' for Active; 'I' for Inactive)
    1  A    between atoms: N_1  and  C_39
    2  A    between atoms: C_13  and  C_21
    3  A    between atoms: C_13  and  C_37
    4  A    between atoms: C_22  and  C_23
    5  A    between atoms: C_24  and  C_27
    6  A    between atoms: O_25  and  C_27
    7  A    between atoms: O_25  and  C_32
    8  A    between atoms: C_27  and  C_33
    9  A    between atoms: C_32  and  C_34
   10  A    between atoms: C_33  and  S_41
   11  A    between atoms: C_34  and  C_42
   12  A    between atoms: C_37  and  C_39
                            x       y       z     vdW  Elec       q    Type
                         _______ _______ _______ _____ _____    ______ ____

>  <TORSDO>
F 12

$$$$
=
 OpenBabel11062419163D

 50 54  0  0  1  0  0  0  0  0999 V2000
  188.3010  176.9540  144.2950 N   0  0  0  0  0  0  0  0  0  0  0  0
  193.1990  174.8060  145.2120 C   0  0  0  0  0  0  0  0  0  0  0  0
  190.4990  176.4160  147.3320 C   0  0  0  0  0  2  0  0  0  0  0  0
  193.4610  173.0680  140.7560 C   0  0  0  0  0  0  0  0  0  0  0  0
  188.6610  173.6200  141.3950 N   0  0  0  0  0  2  0  0  0  0  0  0
  195.2760  173.9730  139.7180 N   0  0  0  0  0  0  0  0  0  0  0  0
  194.0400  173.2880  139.5760 C   0  0  0  0  0  0  0  0  0  0  0  0
  189.2560  176.4820  145.1210 C   0  0  0  0  0  0  0  0  0  0  0  0
  188.9840  173.6590  142.7860 C   0  0  0  0  0  0  0  0  0  0  0  0
  189.3210  172.6000  143.3810 O   0  0  0  0  0  0  0  0  0  0  0  0
  188.5380  172.3990  140.6070 C   0  0  0  0  0  2  0  0  0  0  0  0
  192.1880  171.5280  141.9940 O   0  0  0  0  0  0  0  0  0  0  0  0
  191.0050  172.5390  140.2540 N   0  0  0  0  0  0  0  0  0  0  0  0
  194.3970  173.5360  141.8290 C   0  0  1  0  0  3  0  0  0  0  0  0
  190.7100  174.3370  145.2920 C   0  0  0  0  0  2  0  0  0  0  0  0
  189.8650  171.6500  140.4790 C   0  0  0  0  0  2  0  0  0  0  0  0
  195.4730  174.1390  140.9850 C   0  0  0  0  0  0  0  0  0  0  0  0
  188.0860  176.0340  143.3300 C   0  0  0  0  0  0  0  0  0  0  0  0
  188.9320  174.9380  143.5340 C   0  0  0  0  0  0  0  0  0  0  0  0
  190.9010  173.6050  139.2630 C   0  0  0  0  0  1  0  0  0  0  0  0
  195.7040  175.1750  145.2700 C   0  0  0  0  0  1  0  0  0  0  0  0
  193.7960  174.5540  142.8040 C   0  0  2  0  0  3  0  0  0  0  0  0
  193.3390  173.8420  144.0680 C   0  0  0  0  0  2  0  0  0  0  0  0
  189.7770  177.2690  146.2990 C   0  0  0  0  0  2  0  0  0  0  0  0
  191.9340  175.0760  145.7590 C   0  0  0  0  0  0  0  0  0  0  0  0
  189.6920  175.2430  144.6590 C   0  0  0  0  0  0  0  0  0  0  0  0
  194.1550  176.3440  146.7700 N   0  0  0  0  0  0  0  0  0  0  0  0
  192.9490  176.6260  147.2630 N   0  0  0  0  0  0  0  0  0  0  0  0
  193.5820  172.7530  138.2630 C   0  0  0  0  0  1  0  0  0  0  0  0
  192.2080  172.3290  141.0200 C   0  0  0  0  0  0  0  0  0  0  0  0
  192.7460  175.2830  142.2360 O   0  0  0  0  0  1  0  0  0  0  0  0
  191.8320  176.0140  146.7960 C   0  0  0  0  0  0  0  0  0  0  0  0
  194.3230  175.4500  145.7610 C   0  0  0  0  0  0  0  0  0  0  0  0
  196.6900  174.8090  141.5280 C   0  0  0  0  0  2  0  0  0  0  0  0
  196.6140  176.3070  141.2960 C   0  0  0  0  0  1  0  0  0  0  0  0
  187.0530  176.2470  142.2470 C   0  0  1  0  0  3  0  0  0  0  0  0
  185.7620  176.5740  142.7180 O   0  0  0  0  0  0  0  0  0  0  0  0
  185.2690  177.6570  141.9760 C   0  0  0  0  0  2  0  0  0  0  0  0
  183.8730  178.0300  142.4530 C   0  0  0  0  0  2  0  0  0  0  0  0
  181.6050  178.3400  141.5280 F   0  0  0  0  0  0  0  0  0  0  0  0
  182.9290  178.1420  141.3000 C   0  0  0  0  0  0  0  0  0  0  0  0
  183.3460  178.0830  140.1540 O   0  0  0  0  0  0  0  0  0  0  0  0
  187.5040  176.9840  140.9880 C   0  0  0  0  0  2  0  0  0  0  0  0
  186.4200  177.0830  138.6030 C   0  0  0  0  0  1  0  0  0  0  0  0
  187.4110  175.8860  139.5420 S   0  0  0  0  0  0  0  0  0  0  0  0
  187.6390  178.2480  144.4100 C   0  0  0  0  0  2  0  0  0  0  0  0
  186.6860  178.2400  145.5930 C   0  0  0  0  0  2  0  0  0  0  0  0
  185.5750  179.2570  145.3810 C   0  0  0  0  0  2  0  0  0  0  0  0
  184.4620  178.3200  147.3440 N   0  0  0  0  0  1  0  0  0  0  0  0
  184.2620  178.7710  145.9770 C   0  0  0  0  0  2  0  0  0  0  0  0
  1 46  1  0  0  0  0
  1  8  1  0  0  0  0
  2 25  2  0  0  0  0
  2 33  1  0  0  0  0
  4 30  1  0  0  0  0
  5  9  1  0  0  0  0
  6 17  2  0  0  0  0
  7  6  1  0  0  0  0
  7  4  2  0  0  0  0
  8 24  1  0  0  0  0
  9 10  2  0  0  0  0
  9 19  1  0  0  0  0
 11  5  1  0  0  0  0
 13 16  1  0  0  0  0
 13 30  1  0  0  0  0
 14  4  1  6  0  0  0
 14 22  1  0  0  0  0
 15 25  1  0  0  0  0
 16 11  1  0  0  0  0
 17 34  1  0  0  0  0
 17 14  1  0  0  0  0
 18 19  2  0  0  0  0
 18  1  1  0  0  0  0
 19 26  1  0  0  0  0
 20 13  1  0  0  0  0
 21 33  1  0  0  0  0
 22 31  1  6  0  0  0
 22 23  1  0  0  0  0
 23  2  1  0  0  0  0
 24  3  1  0  0  0  0
 25 32  1  0  0  0  0
 26  8  2  0  0  0  0
 26 15  1  0  0  0  0
 27 28  1  0  0  0  0
 29  7  1  0  0  0  0
 30 12  2  0  0  0  0
 32 28  2  0  0  0  0
 32  3  1  0  0  0  0
 33 27  2  0  0  0  0
 35 34  1  0  0  0  0
 36 43  1  6  0  0  0
 36 37  1  0  0  0  0
 36 18  1  0  0  0  0
 38 39  1  0  0  0  0
 38 37  1  0  0  0  0
 41 40  1  0  0  0  0
 41 39  1  0  0  0  0
 42 41  2  0  0  0  0
 44 45  1  0  0  0  0
 45 43  1  0  0  0  0
 46 47  1  0  0  0  0
 48 47  1  0  0  0  0
 48 50  1  0  0  0  0
 50 49  1  0  0  0  0
M  END
>  <MODEL>
2

>  <REMARK>
 VINA RESULT:      -6.9      1.545      1.795
  Name = 
  12 active torsions:
  status: ('A' for Active; 'I' for Inactive)
    1  A    between atoms: N_1  and  C_39
    2  A    between atoms: C_13  and  C_21
    3  A    between atoms: C_13  and  C_37
    4  A    between atoms: C_22  and  C_23
    5  A    between atoms: C_24  and  C_27
    6  A    between atoms: O_25  and  C_27
    7  A    between atoms: O_25  and  C_32
    8  A    between atoms: C_27  and  C_33
    9  A    between atoms: C_32  and  C_34
   10  A    between atoms: C_33  and  S_41
   11  A    between atoms: C_34  and  C_42
   12  A    between atoms: C_37  and  C_39
                            x       y       z     vdW  Elec       q    Type
                         _______ _______ _______ _____ _____    ______ ____

>  <TORSDO>
F 12

$$$$
=
 OpenBabel11062419163D

 50 54  0  0  1  0  0  0  0  0999 V2000
  190.9760  176.3440  144.4380 N   0  0  0  0  0  0  0  0  0  0  0  0
  195.5350  174.3370  142.2900 C   0  0  0  0  0  0  0  0  0  0  0  0
  194.4510  175.5480  145.7150 C   0  0  0  0  0  2  0  0  0  0  0  0
  193.3050  173.1660  138.2160 C   0  0  0  0  0  0  0  0  0  0  0  0
  189.6270  173.4080  141.4030 N   0  0  0  0  0  2  0  0  0  0  0  0
  194.2950  174.2750  136.4890 N   0  0  0  0  0  0  0  0  0  0  0  0
  193.1610  173.5540  136.9490 C   0  0  0  0  0  0  0  0  0  0  0  0
  192.2120  175.8220  144.5510 C   0  0  0  0  0  0  0  0  0  0  0  0
  190.6510  173.2930  142.3930 C   0  0  0  0  0  0  0  0  0  0  0  0
  191.2280  172.1870  142.5710 O   0  0  0  0  0  0  0  0  0  0  0  0
  189.0660  172.2870  140.6570 C   0  0  0  0  0  2  0  0  0  0  0  0
  192.8630  171.4280  139.7350 O   0  0  0  0  0  0  0  0  0  0  0  0
  190.9550  172.5850  139.0520 N   0  0  0  0  0  0  0  0  0  0  0  0
  194.6850  173.5440  138.6640 C   0  0  1  0  0  3  0  0  0  0  0  0
  193.4730  173.7440  143.6370 C   0  0  0  0  0  2  0  0  0  0  0  0
  190.0940  171.6220  139.7400 C   0  0  0  0  0  2  0  0  0  0  0  0
  195.1490  174.2960  137.4590 C   0  0  0  0  0  0  0  0  0  0  0  0
  190.2500  175.5390  143.6330 C   0  0  0  0  0  0  0  0  0  0  0  0
  191.0430  174.4680  143.2070 C   0  0  0  0  0  0  0  0  0  0  0  0
  190.3590  173.7570  138.4190 C   0  0  0  0  0  1  0  0  0  0  0  0
  197.6850  174.8150  141.0360 C   0  0  0  0  0  1  0  0  0  0  0  0
  194.7310  174.4070  139.9300 C   0  0  2  0  0  3  0  0  0  0  0  0
  195.0110  173.5260  141.1390 C   0  0  0  0  0  2  0  0  0  0  0  0
  193.3070  176.4840  145.3520 C   0  0  0  0  0  2  0  0  0  0  0  0
  194.7740  174.4780  143.4610 C   0  0  0  0  0  0  0  0  0  0  0  0
  192.2980  174.6700  143.7730 C   0  0  0  0  0  0  0  0  0  0  0  0
  197.2210  175.7190  143.2680 N   0  0  0  0  0  0  0  0  0  0  0  0
  196.4800  175.8810  144.3640 N   0  0  0  0  0  0  0  0  0  0  0  0
  192.0530  173.1610  136.0330 C   0  0  0  0  0  1  0  0  0  0  0  0
  192.3750  172.3410  139.0160 C   0  0  0  0  0  0  0  0  0  0  0  0
  193.5600  175.1490  140.1160 O   0  0  0  0  0  1  0  0  0  0  0  0
  195.2730  175.2770  144.4990 C   0  0  0  0  0  0  0  0  0  0  0  0
  196.7950  174.9620  142.2240 C   0  0  0  0  0  0  0  0  0  0  0  0
  196.4830  174.9520  137.3420 C   0  0  0  0  0  2  0  0  0  0  0  0
  196.5430  175.8030  136.0870 C   0  0  0  0  0  1  0  0  0  0  0  0
  188.8010  175.8330  143.3140 C   0  0  1  0  0  3  0  0  0  0  0  0
  187.9220  175.7310  144.4140 O   0  0  0  0  0  0  0  0  0  0  0  0
  186.9420  176.7280  144.3070 C   0  0  0  0  0  2  0  0  0  0  0  0
  186.1600  176.8420  145.6070 C   0  0  0  0  0  2  0  0  0  0  0  0
  186.1610  179.2600  145.1130 F   0  0  0  0  0  0  0  0  0  0  0  0
  185.5940  178.2150  145.7700 C   0  0  0  0  0  0  0  0  0  0  0  0
  184.6110  178.3980  146.4700 O   0  0  0  0  0  0  0  0  0  0  0  0
  188.5190  176.9780  142.3450 C   0  0  0  0  0  2  0  0  0  0  0  0
  186.5870  177.8380  140.7950 C   0  0  0  0  0  1  0  0  0  0  0  0
  187.6440  176.3640  140.8740 S   0  0  0  0  0  0  0  0  0  0  0  0
  190.5130  177.5820  145.0560 C   0  0  0  0  0  2  0  0  0  0  0  0
  189.7640  177.2730  146.3400 C   0  0  0  0  0  2  0  0  0  0  0  0
  190.7440  177.0330  147.4770 C   0  0  0  0  0  2  0  0  0  0  0  0
  189.5990  174.8780  147.3600 N   0  0  0  0  0  1  0  0  0  0  0  0
  190.7650  175.5670  147.8870 C   0  0  0  0  0  2  0  0  0  0  0  0
  1  8  1  0  0  0  0
  1 46  1  0  0  0  0
  2 25  1  0  0  0  0
  4 14  1  0  0  0  0
  4 30  1  0  0  0  0
  5  9  1  0  0  0  0
  6  7  1  0  0  0  0
  6 17  2  0  0  0  0
  7  4  2  0  0  0  0
  8 24  1  0  0  0  0
  9 10  2  0  0  0  0
  9 19  1  0  0  0  0
 11  5  1  0  0  0  0
 13 16  1  0  0  0  0
 14 17  1  6  0  0  0
 14 22  1  0  0  0  0
 15 26  1  0  0  0  0
 16 11  1  0  0  0  0
 18  1  1  0  0  0  0
 19 18  2  0  0  0  0
 19 26  1  0  0  0  0
 20 13  1  0  0  0  0
 21 33  1  0  0  0  0
 22 31  1  1  0  0  0
 22 23  1  0  0  0  0
 23  2  1  0  0  0  0
 24  3  1  0  0  0  0
 25 15  1  0  0  0  0
 25 32  2  0  0  0  0
 26  8  2  0  0  0  0
 27 28  2  0  0  0  0
 28 32  1  0  0  0  0
 29  7  1  0  0  0  0
 30 13  1  0  0  0  0
 30 12  2  0  0  0  0
 32  3  1  0  0  0  0
 33  2  2  0  0  0  0
 33 27  1  0  0  0  0
 34 17  1  0  0  0  0
 35 34  1  0  0  0  0
 36 43  1  1  0  0  0
 36 18  1  0  0  0  0
 36 37  1  0  0  0  0
 38 37  1  0  0  0  0
 38 39  1  0  0  0  0
 39 41  1  0  0  0  0
 40 41  1  0  0  0  0
 41 42  2  0  0  0  0
 44 45  1  0  0  0  0
 45 43  1  0  0  0  0
 46 47  1  0  0  0  0
 47 48  1  0  0  0  0
 48 50  1  0  0  0  0
 49 50  1  0  0  0  0
M  END
>  <MODEL>
3

>  <REMARK>
 VINA RESULT:      -6.5      1.655      2.328
  Name = 
  12 active torsions:
  status: ('A' for Active; 'I' for Inactive)
    1  A    between atoms: N_1  and  C_39
    2  A    between atoms: C_13  and  C_21
    3  A    between atoms: C_13  and  C_37
    4  A    between atoms: C_22  and  C_23
    5  A    between atoms: C_24  and  C_27
    6  A    between atoms: O_25  and  C_27
    7  A    between atoms: O_25  and  C_32
    8  A    between atoms: C_27  and  C_33
    9  A    between atoms: C_32  and  C_34
   10  A    between atoms: C_33  and  S_41
   11  A    between atoms: C_34  and  C_42
   12  A    between atoms: C_37  and  C_39
                            x       y       z     vdW  Elec       q    Type
                         _______ _______ _______ _____ _____    ______ ____

>  <TORSDO>
F 12

$$$$
=
 OpenBabel11062419163D

 50 54  0  0  1  0  0  0  0  0999 V2000
  194.2090  175.0530  145.3270 N   0  0  0  0  0  0  0  0  0  0  0  0
  194.9550  170.2810  142.8560 C   0  0  0  0  0  0  0  0  0  0  0  0
  196.2610  171.9430  146.0030 C   0  0  0  0  0  2  0  0  0  0  0  0
  191.3740  171.1170  139.7860 C   0  0  0  0  0  0  0  0  0  0  0  0
  190.2890  174.0720  143.5060 N   0  0  0  0  0  2  0  0  0  0  0  0
  192.2020  171.0880  137.6640 N   0  0  0  0  0  0  0  0  0  0  0  0
  191.1350  171.4650  138.5220 C   0  0  0  0  0  0  0  0  0  0  0  0
  194.6590  173.7830  145.3070 C   0  0  0  0  0  0  0  0  0  0  0  0
  191.1820  173.2440  144.2520 C   0  0  0  0  0  0  0  0  0  0  0  0
  190.8280  172.0800  144.5830 O   0  0  0  0  0  0  0  0  0  0  0  0
  188.9010  173.7380  143.2090 C   0  0  0  0  0  2  0  0  0  0  0  0
  190.3800  170.3150  141.7600 O   0  0  0  0  0  0  0  0  0  0  0  0
  189.7650  172.5010  141.2200 N   0  0  0  0  0  0  0  0  0  0  0  0
  192.6570  170.3420  139.8210 C   0  0  1  0  0  3  0  0  0  0  0  0
  193.6880  171.4490  144.7140 C   0  0  0  0  0  2  0  0  0  0  0  0
  188.7760  172.5150  142.2980 C   0  0  0  0  0  2  0  0  0  0  0  0
  193.0770  170.4770  138.3930 C   0  0  0  0  0  0  0  0  0  0  0  0
  192.9200  175.0510  144.9290 C   0  0  0  0  0  0  0  0  0  0  0  0
  192.5250  173.7410  144.6350 C   0  0  0  0  0  0  0  0  0  0  0  0
  190.0030  173.7150  140.4470 C   0  0  0  0  0  1  0  0  0  0  0  0
  196.2260  168.9740  141.0970 C   0  0  0  0  0  1  0  0  0  0  0  0
  193.7130  170.8970  140.7820 C   0  0  2  0  0  3  0  0  0  0  0  0
  193.6720  170.1200  142.0900 C   0  0  0  0  0  2  0  0  0  0  0  0
  196.0790  173.4150  145.6620 C   0  0  0  0  0  2  0  0  0  0  0  0
  194.9640  170.9610  144.0850 C   0  0  0  0  0  0  0  0  0  0  0  0
  193.6450  172.9440  144.8520 C   0  0  0  0  0  0  0  0  0  0  0  0
  197.3110  169.9510  143.0680 N   0  0  0  0  0  0  0  0  0  0  0  0
  197.3230  170.6270  144.2160 N   0  0  0  0  0  0  0  0  0  0  0  0
  189.8580  172.0210  137.9940 C   0  0  0  0  0  1  0  0  0  0  0  0
  190.4750  171.2770  140.9490 C   0  0  0  0  0  0  0  0  0  0  0  0
  193.5590  172.2680  141.0140 O   0  0  0  0  0  1  0  0  0  0  0  0
  196.1840  171.1320  144.7530 C   0  0  0  0  0  0  0  0  0  0  0  0
  196.1640  169.7530  142.3670 C   0  0  0  0  0  0  0  0  0  0  0  0
  194.3380  169.9130  137.8320 C   0  0  0  0  0  2  0  0  0  0  0  0
  194.3120  168.3970  137.8960 C   0  0  0  0  0  1  0  0  0  0  0  0
  192.1080  176.3250  144.8580 C   0  0  1  0  0  3  0  0  0  0  0  0
  191.8440  176.7850  143.5490 O   0  0  0  0  0  0  0  0  0  0  0  0
  190.8990  177.8190  143.6130 C   0  0  0  0  0  2  0  0  0  0  0  0
  189.8330  177.6250  142.5450 C   0  0  0  0  0  2  0  0  0  0  0  0
  188.3040  177.9720  144.4530 F   0  0  0  0  0  0  0  0  0  0  0  0
  188.4670  177.8490  143.1090 C   0  0  0  0  0  0  0  0  0  0  0  0
  187.5020  177.9470  142.3690 O   0  0  0  0  0  0  0  0  0  0  0  0
  190.9650  176.4800  145.8570 C   0  0  0  0  0  2  0  0  0  0  0  0
  189.6180  174.8100  147.3660 C   0  0  0  0  0  1  0  0  0  0  0  0
  191.2950  175.5070  147.3570 S   0  0  0  0  0  0  0  0  0  0  0  0
  194.9930  176.2290  145.6890 C   0  0  0  0  0  2  0  0  0  0  0  0
  195.3040  177.0480  144.4490 C   0  0  0  0  0  2  0  0  0  0  0  0
  196.4390  176.4080  143.6650 C   0  0  0  0  0  2  0  0  0  0  0  0
  196.1290  176.8750  141.2870 N   0  0  0  0  0  1  0  0  0  0  0  0
  195.9500  175.8750  142.3250 C   0  0  0  0  0  2  0  0  0  0  0  0
  1 46  1  0  0  0  0
  2 25  1  0  0  0  0
  4 14  1  0  0  0  0
  4 30  1  0  0  0  0
  5  9  1  0  0  0  0
  6 17  2  0  0  0  0
  6  7  1  0  0  0  0
  7  4  2  0  0  0  0
  8  1  1  0  0  0  0
  8 24  1  0  0  0  0
  9 10  2  0  0  0  0
  9 19  1  0  0  0  0
 11  5  1  0  0  0  0
 13 16  1  0  0  0  0
 14 17  1  6  0  0  0
 14 22  1  0  0  0  0
 15 26  1  0  0  0  0
 16 11  1  0  0  0  0
 18  1  1  0  0  0  0
 19 26  1  0  0  0  0
 19 18  2  0  0  0  0
 20 13  1  0  0  0  0
 21 33  1  0  0  0  0
 22 31  1  1  0  0  0
 22 23  1  0  0  0  0
 23  2  1  0  0  0  0
 24  3  1  0  0  0  0
 25 15  1  0  0  0  0
 25 32  2  0  0  0  0
 26  8  2  0  0  0  0
 27 28  2  0  0  0  0
 28 32  1  0  0  0  0
 29  7  1  0  0  0  0
 30 13  1  0  0  0  0
 30 12  2  0  0  0  0
 32  3  1  0  0  0  0
 33  2  2  0  0  0  0
 33 27  1  0  0  0  0
 34 35  1  0  0  0  0
 34 17  1  0  0  0  0
 36 18  1  0  0  0  0
 36 43  1  6  0  0  0
 37 38  1  0  0  0  0
 37 36  1  0  0  0  0
 39 41  1  0  0  0  0
 39 38  1  0  0  0  0
 41 40  1  0  0  0  0
 42 41  2  0  0  0  0
 43 45  1  0  0  0  0
 45 44  1  0  0  0  0
 47 46  1  0  0  0  0
 48 47  1  0  0  0  0
 49 50  1  0  0  0  0
 50 48  1  0  0  0  0
M  END
>  <MODEL>
4

>  <REMARK>
 VINA RESULT:      -6.4      2.926      5.349
  Name = 
  12 active torsions:
  status: ('A' for Active; 'I' for Inactive)
    1  A    between atoms: N_1  and  C_39
    2  A    between atoms: C_13  and  C_21
    3  A    between atoms: C_13  and  C_37
    4  A    between atoms: C_22  and  C_23
    5  A    between atoms: C_24  and  C_27
    6  A    between atoms: O_25  and  C_27
    7  A    between atoms: O_25  and  C_32
    8  A    between atoms: C_27  and  C_33
    9  A    between atoms: C_32  and  C_34
   10  A    between atoms: C_33  and  S_41
   11  A    between atoms: C_34  and  C_42
   12  A    between atoms: C_37  and  C_39
                            x       y       z     vdW  Elec       q    Type
                         _______ _______ _______ _____ _____    ______ ____

>  <TORSDO>
F 12

$$$$
=
 OpenBabel11062419163D

 50 54  0  0  1  0  0  0  0  0999 V2000
  191.5360  173.0630  138.5150 N   0  0  0  0  0  0  0  0  0  0  0  0
  189.8850  173.9700  143.6030 C   0  0  0  0  0  0  0  0  0  0  0  0
  188.1920  173.3250  140.2730 C   0  0  0  0  0  2  0  0  0  0  0  0
  194.3420  173.5540  145.3070 C   0  0  0  0  0  0  0  0  0  0  0  0
  194.5950  171.1390  141.0820 N   0  0  0  0  0  2  0  0  0  0  0  0
  194.9260  175.5060  146.3270 N   0  0  0  0  0  0  0  0  0  0  0  0
  195.3640  174.2790  145.7620 C   0  0  0  0  0  0  0  0  0  0  0  0
  190.5870  173.0780  139.4710 C   0  0  0  0  0  0  0  0  0  0  0  0
  193.1710  171.0970  141.1720 C   0  0  0  0  0  0  0  0  0  0  0  0
  192.6180  170.3320  142.0080 O   0  0  0  0  0  0  0  0  0  0  0  0
  195.4980  170.2370  141.7900 C   0  0  0  0  0  2  0  0  0  0  0  0
  193.5150  171.3660  145.0760 O   0  0  0  0  0  0  0  0  0  0  0  0
  195.3540  171.8220  143.7130 N   0  0  0  0  0  0  0  0  0  0  0  0
  193.0720  174.2640  145.6660 C   0  0  1  0  0  3  0  0  0  0  0  0
  190.3290  172.1600  141.8870 C   0  0  0  0  0  2  0  0  0  0  0  0
  195.4330  170.4190  143.3070 C   0  0  0  0  0  2  0  0  0  0  0  0
  193.6350  175.5160  146.2540 C   0  0  0  0  0  0  0  0  0  0  0  0
  192.6020  172.3830  138.9890 C   0  0  0  0  0  0  0  0  0  0  0  0
  192.3370  171.9520  140.2940 C   0  0  0  0  0  0  0  0  0  0  0  0
  196.2480  172.7990  143.1010 C   0  0  0  0  0  1  0  0  0  0  0  0
  189.3110  175.6840  145.3790 C   0  0  0  0  0  1  0  0  0  0  0  0
  192.1450  174.5550  144.4800 C   0  0  2  0  0  3  0  0  0  0  0  0
  191.0600  173.4900  144.4060 C   0  0  0  0  0  2  0  0  0  0  0  0
  189.2650  173.7860  139.2980 C   0  0  0  0  0  2  0  0  0  0  0  0
  189.5700  173.3620  142.3770 C   0  0  0  0  0  0  0  0  0  0  0  0
  191.0630  172.4210  140.6030 C   0  0  0  0  0  0  0  0  0  0  0  0
  188.0420  175.4580  143.2920 N   0  0  0  0  0  0  0  0  0  0  0  0
  187.7680  174.9030  142.1120 N   0  0  0  0  0  0  0  0  0  0  0  0
  196.7830  173.8330  145.8500 C   0  0  0  0  0  1  0  0  0  0  0  0
  194.3920  172.1980  144.7180 C   0  0  0  0  0  0  0  0  0  0  0  0
  192.8380  174.6440  143.2680 O   0  0  0  0  0  1  0  0  0  0  0  0
  188.4930  173.8630  141.6320 C   0  0  0  0  0  0  0  0  0  0  0  0
  189.0740  175.0240  144.0620 C   0  0  0  0  0  0  0  0  0  0  0  0
  192.8100  176.6460  146.7710 C   0  0  0  0  0  2  0  0  0  0  0  0
  191.8240  176.1450  147.8100 C   0  0  0  0  0  1  0  0  0  0  0  0
  193.8410  172.1650  138.1510 C   0  0  1  0  0  3  0  0  0  0  0  0
  195.0090  172.7810  138.6530 O   0  0  0  0  0  0  0  0  0  0  0  0
  195.0100  174.1310  138.2730 C   0  0  0  0  0  2  0  0  0  0  0  0
  195.7440  174.9690  139.3090 C   0  0  0  0  0  2  0  0  0  0  0  0
  193.4830  175.1670  140.2800 F   0  0  0  0  0  0  0  0  0  0  0  0
  194.7880  175.5460  140.3010 C   0  0  0  0  0  0  0  0  0  0  0  0
  195.1780  176.3350  141.1470 O   0  0  0  0  0  0  0  0  0  0  0  0
  194.0330  170.7810  137.5370 C   0  0  0  0  0  2  0  0  0  0  0  0
  195.6840  169.2380  136.2070 C   0  0  0  0  0  1  0  0  0  0  0  0
  195.7580  170.2390  137.7210 S   0  0  0  0  0  0  0  0  0  0  0  0
  191.4370  173.6990  137.2070 C   0  0  0  0  0  2  0  0  0  0  0  0
  191.2710  172.6440  136.1270 C   0  0  0  0  0  2  0  0  0  0  0  0
  189.9530  171.9080  136.3080 C   0  0  0  0  0  2  0  0  0  0  0  0
  189.6910  170.0210  137.8370 N   0  0  0  0  0  1  0  0  0  0  0  0
  190.1790  170.4190  136.5280 C   0  0  0  0  0  2  0  0  0  0  0  0
  1 18  1  0  0  0  0
  1  8  1  0  0  0  0
  2 33  1  0  0  0  0
  2 23  1  0  0  0  0
  3 32  1  0  0  0  0
  4  7  2  0  0  0  0
  5  9  1  0  0  0  0
  5 11  1  0  0  0  0
  7 29  1  0  0  0  0
  7  6  1  0  0  0  0
  8 26  2  0  0  0  0
  9 10  2  0  0  0  0
 11 16  1  0  0  0  0
 13 30  1  0  0  0  0
 14  4  1  6  0  0  0
 14 17  1  0  0  0  0
 15 25  1  0  0  0  0
 16 13  1  0  0  0  0
 17  6  2  0  0  0  0
 17 34  1  0  0  0  0
 18 19  2  0  0  0  0
 19 26  1  0  0  0  0
 19  9  1  0  0  0  0
 20 13  1  0  0  0  0
 22 31  1  6  0  0  0
 22 14  1  0  0  0  0
 23 22  1  0  0  0  0
 24  8  1  0  0  0  0
 24  3  1  0  0  0  0
 25  2  2  0  0  0  0
 26 15  1  0  0  0  0
 27 33  2  0  0  0  0
 28 27  1  0  0  0  0
 30 12  2  0  0  0  0
 30  4  1  0  0  0  0
 32 28  2  0  0  0  0
 32 25  1  0  0  0  0
 33 21  1  0  0  0  0
 34 35  1  0  0  0  0
 36 43  1  1  0  0  0
 36 37  1  0  0  0  0
 36 18  1  0  0  0  0
 38 37  1  0  0  0  0
 38 39  1  0  0  0  0
 39 41  1  0  0  0  0
 40 41  1  0  0  0  0
 41 42  2  0  0  0  0
 43 45  1  0  0  0  0
 44 45  1  0  0  0  0
 46  1  1  0  0  0  0
 47 48  1  0  0  0  0
 47 46  1  0  0  0  0
 48 50  1  0  0  0  0
 50 49  1  0  0  0  0
M  END
>  <MODEL>
5

>  <REMARK>
 VINA RESULT:      -6.3      3.510      8.128
  Name = 
  12 active torsions:
  status: ('A' for Active; 'I' for Inactive)
    1  A    between atoms: N_1  and  C_39
    2  A    between atoms: C_13  and  C_21
    3  A    between atoms: C_13  and  C_37
    4  A    between atoms: C_22  and  C_23
    5  A    between atoms: C_24  and  C_27
    6  A    between atoms: O_25  and  C_27
    7  A    between atoms: O_25  and  C_32
    8  A    between atoms: C_27  and  C_33
    9  A    between atoms: C_32  and  C_34
   10  A    between atoms: C_33  and  S_41
   11  A    between atoms: C_34  and  C_42
   12  A    between atoms: C_37  and  C_39
                            x       y       z     vdW  Elec       q    Type
                         _______ _______ _______ _____ _____    ______ ____

>  <TORSDO>
F 12

$$$$
=
 OpenBabel11062419163D

 50 54  0  0  1  0  0  0  0  0999 V2000
  190.1770  172.1420  139.3530 N   0  0  0  0  0  0  0  0  0  0  0  0
  190.4950  174.6200  144.1680 C   0  0  0  0  0  0  0  0  0  0  0  0
  187.7100  173.6990  141.7660 C   0  0  0  0  0  2  0  0  0  0  0  0
  195.1050  173.4230  144.6740 C   0  0  0  0  0  0  0  0  0  0  0  0
  193.4980  170.1150  141.4770 N   0  0  0  0  0  2  0  0  0  0  0  0
  196.3440  175.3270  144.8580 N   0  0  0  0  0  0  0  0  0  0  0  0
  196.3350  173.9310  144.5980 C   0  0  0  0  0  0  0  0  0  0  0  0
  189.6160  172.6350  140.4740 C   0  0  0  0  0  0  0  0  0  0  0  0
  192.2010  170.4810  141.9490 C   0  0  0  0  0  0  0  0  0  0  0  0
  191.8230  170.1110  143.0940 O   0  0  0  0  0  0  0  0  0  0  0  0
  194.4000  169.1940  142.1600 C   0  0  0  0  0  2  0  0  0  0  0  0
  193.8570  171.5490  145.3480 O   0  0  0  0  0  0  0  0  0  0  0  0
  195.1950  171.1610  143.4750 N   0  0  0  0  0  0  0  0  0  0  0  0
  194.1790  174.5140  145.1220 C   0  0  1  0  0  3  0  0  0  0  0  0
  190.0030  172.4090  143.0320 C   0  0  0  0  0  2  0  0  0  0  0  0
  194.8740  169.7340  143.5100 C   0  0  0  0  0  2  0  0  0  0  0  0
  195.1270  175.6690  145.1290 C   0  0  0  0  0  0  0  0  0  0  0  0
  191.1940  171.3290  139.7110 C   0  0  0  0  0  0  0  0  0  0  0  0
  191.2980  171.3010  141.1060 C   0  0  0  0  0  0  0  0  0  0  0  0
  196.0020  171.6900  142.3810 C   0  0  0  0  0  1  0  0  0  0  0  0
  190.8670  176.7900  145.4220 C   0  0  0  0  0  1  0  0  0  0  0  0
  192.9840  174.7600  144.1940 C   0  0  2  0  0  3  0  0  0  0  0  0
  191.7580  174.0410  144.7380 C   0  0  0  0  0  2  0  0  0  0  0  0
  188.4670  173.6130  140.4500 C   0  0  0  0  0  2  0  0  0  0  0  0
  189.6860  173.8520  143.3140 C   0  0  0  0  0  0  0  0  0  0  0  0
  190.3090  172.1560  141.5830 C   0  0  0  0  0  0  0  0  0  0  0  0
  188.9620  176.4350  143.9180 N   0  0  0  0  0  0  0  0  0  0  0  0
  188.2160  175.7170  143.0800 N   0  0  0  0  0  0  0  0  0  0  0  0
  197.5950  173.1510  144.4390 C   0  0  0  0  0  1  0  0  0  0  0  0
  194.7050  172.0070  144.5350 C   0  0  0  0  0  0  0  0  0  0  0  0
  193.2430  174.3730  142.8750 O   0  0  0  0  0  1  0  0  0  0  0  0
  188.5360  174.4370  142.7650 C   0  0  0  0  0  0  0  0  0  0  0  0
  190.0910  175.9310  144.4810 C   0  0  0  0  0  0  0  0  0  0  0  0
  194.7440  177.0680  145.4760 C   0  0  0  0  0  2  0  0  0  0  0  0
  194.1910  177.1270  146.8880 C   0  0  0  0  0  1  0  0  0  0  0  0
  192.0240  170.5950  138.6830 C   0  0  1  0  0  3  0  0  0  0  0  0
  193.3930  170.9400  138.6740 O   0  0  0  0  0  0  0  0  0  0  0  0
  193.5370  172.2150  138.1090 C   0  0  0  0  0  2  0  0  0  0  0  0
  194.5500  173.0310  138.8990 C   0  0  0  0  0  2  0  0  0  0  0  0
  192.6240  174.2820  139.8040 F   0  0  0  0  0  0  0  0  0  0  0  0
  193.9300  174.2820  139.4280 C   0  0  0  0  0  0  0  0  0  0  0  0
  194.5960  175.2980  139.5480 O   0  0  0  0  0  0  0  0  0  0  0  0
  191.7120  169.1170  138.4590 C   0  0  0  0  0  2  0  0  0  0  0  0
  191.3010  169.7770  135.9550 C   0  0  0  0  0  1  0  0  0  0  0  0
  192.3340  168.5740  136.8400 S   0  0  0  0  0  0  0  0  0  0  0  0
  189.7720  172.4580  137.9880 C   0  0  0  0  0  2  0  0  0  0  0  0
  190.3670  173.7890  137.5630 C   0  0  0  0  0  2  0  0  0  0  0  0
  190.5410  173.8310  136.0530 C   0  0  0  0  0  2  0  0  0  0  0  0
  192.3260  175.4660  136.3880 N   0  0  0  0  0  1  0  0  0  0  0  0
  191.1420  175.1560  135.6050 C   0  0  0  0  0  2  0  0  0  0  0  0
  1 18  1  0  0  0  0
  1  8  1  0  0  0  0
  2 33  1  0  0  0  0
  2 23  1  0  0  0  0
  3 32  1  0  0  0  0
  5  9  1  0  0  0  0
  5 11  1  0  0  0  0
  6 17  2  0  0  0  0
  7  4  2  0  0  0  0
  7  6  1  0  0  0  0
  8 26  2  0  0  0  0
  9 10  2  0  0  0  0
 11 16  1  0  0  0  0
 13 16  1  0  0  0  0
 13 30  1  0  0  0  0
 14  4  1  6  0  0  0
 14 17  1  0  0  0  0
 15 25  1  0  0  0  0
 17 34  1  0  0  0  0
 18 19  2  0  0  0  0
 19 26  1  0  0  0  0
 19  9  1  0  0  0  0
 20 13  1  0  0  0  0
 22 31  1  6  0  0  0
 22 23  1  0  0  0  0
 22 14  1  0  0  0  0
 24  8  1  0  0  0  0
 24  3  1  0  0  0  0
 25  2  2  0  0  0  0
 26 15  1  0  0  0  0
 27 33  2  0  0  0  0
 28 27  1  0  0  0  0
 29  7  1  0  0  0  0
 30  4  1  0  0  0  0
 30 12  2  0  0  0  0
 32 28  2  0  0  0  0
 32 25  1  0  0  0  0
 33 21  1  0  0  0  0
 34 35  1  0  0  0  0
 36 43  1  1  0  0  0
 36 18  1  0  0  0  0
 37 36  1  0  0  0  0
 38 37  1  0  0  0  0
 38 39  1  0  0  0  0
 39 41  1  0  0  0  0
 41 42  2  0  0  0  0
 41 40  1  0  0  0  0
 44 45  1  0  0  0  0
 45 43  1  0  0  0  0
 46  1  1  0  0  0  0
 47 46  1  0  0  0  0
 48 47  1  0  0  0  0
 50 48  1  0  0  0  0
 50 49  1  0  0  0  0
M  END
>  <MODEL>
6

>  <REMARK>
 VINA RESULT:      -6.2      3.589      7.485
  Name = 
  12 active torsions:
  status: ('A' for Active; 'I' for Inactive)
    1  A    between atoms: N_1  and  C_39
    2  A    between atoms: C_13  and  C_21
    3  A    between atoms: C_13  and  C_37
    4  A    between atoms: C_22  and  C_23
    5  A    between atoms: C_24  and  C_27
    6  A    between atoms: O_25  and  C_27
    7  A    between atoms: O_25  and  C_32
    8  A    between atoms: C_27  and  C_33
    9  A    between atoms: C_32  and  C_34
   10  A    between atoms: C_33  and  S_41
   11  A    between atoms: C_34  and  C_42
   12  A    between atoms: C_37  and  C_39
                            x       y       z     vdW  Elec       q    Type
                         _______ _______ _______ _____ _____    ______ ____

>  <TORSDO>
F 12

$$$$
=
 OpenBabel11062419163D

 50 54  0  0  1  0  0  0  0  0999 V2000
  193.3480  170.6970  138.9870 N   0  0  0  0  0  0  0  0  0  0  0  0
  194.7720  175.4230  141.2400 C   0  0  0  0  0  0  0  0  0  0  0  0
  195.7390  173.5020  138.1180 C   0  0  0  0  0  2  0  0  0  0  0  0
  191.2390  175.1470  144.4630 C   0  0  0  0  0  0  0  0  0  0  0  0
  189.6530  172.2220  140.9030 N   0  0  0  0  0  2  0  0  0  0  0  0
  192.1470  175.1460  146.5530 N   0  0  0  0  0  0  0  0  0  0  0  0
  191.0090  174.8760  145.7480 C   0  0  0  0  0  0  0  0  0  0  0  0
  193.9510  171.9010  138.9410 C   0  0  0  0  0  0  0  0  0  0  0  0
  190.6110  172.9060  140.0940 C   0  0  0  0  0  0  0  0  0  0  0  0
  190.3900  174.0930  139.7300 O   0  0  0  0  0  0  0  0  0  0  0  0
  188.3290  172.7370  141.2340 C   0  0  0  0  0  2  0  0  0  0  0  0
  190.2750  175.9970  142.4950 O   0  0  0  0  0  0  0  0  0  0  0  0
  189.4170  173.9250  143.1420 N   0  0  0  0  0  0  0  0  0  0  0  0
  192.6060  175.7540  144.3540 C   0  0  1  0  0  3  0  0  0  0  0  0
  193.2990  174.3580  139.4750 C   0  0  0  0  0  2  0  0  0  0  0  0
  188.3920  173.9960  142.1000 C   0  0  0  0  0  2  0  0  0  0  0  0
  193.0610  175.6180  145.7700 C   0  0  0  0  0  0  0  0  0  0  0  0
  192.0850  170.8740  139.4290 C   0  0  0  0  0  0  0  0  0  0  0  0
  191.8660  172.2330  139.6850 C   0  0  0  0  0  0  0  0  0  0  0  0
  189.5340  172.7180  143.9530 C   0  0  0  0  0  1  0  0  0  0  0  0
  196.2630  176.6220  142.9010 C   0  0  0  0  0  1  0  0  0  0  0  0
  193.5470  175.0390  143.3790 C   0  0  2  0  0  3  0  0  0  0  0  0
  193.5500  175.7690  142.0430 C   0  0  0  0  0  2  0  0  0  0  0  0
  195.3900  172.0780  138.5230 C   0  0  0  0  0  2  0  0  0  0  0  0
  194.6490  174.7050  140.0390 C   0  0  0  0  0  0  0  0  0  0  0  0
  193.0670  172.8760  139.3970 C   0  0  0  0  0  0  0  0  0  0  0  0
  197.1410  175.4490  140.9340 N   0  0  0  0  0  0  0  0  0  0  0  0
  197.0240  174.7370  139.8140 N   0  0  0  0  0  0  0  0  0  0  0  0
  189.6950  174.5020  146.3420 C   0  0  0  0  0  1  0  0  0  0  0  0
  190.2820  175.0600  143.3390 C   0  0  0  0  0  0  0  0  0  0  0  0
  193.2160  173.6910  143.2060 O   0  0  0  0  0  1  0  0  0  0  0  0
  195.8120  174.3600  139.3360 C   0  0  0  0  0  0  0  0  0  0  0  0
  196.0550  175.8130  141.6650 C   0  0  0  0  0  0  0  0  0  0  0  0
  194.4040  176.0390  146.2650 C   0  0  0  0  0  2  0  0  0  0  0  0
  194.5650  177.5420  146.1320 C   0  0  0  0  0  1  0  0  0  0  0  0
  191.1260  169.7150  139.5780 C   0  0  1  0  0  3  0  0  0  0  0  0
  190.6680  169.1670  138.3600 O   0  0  0  0  0  0  0  0  0  0  0  0
  189.6880  170.0150  137.8220 C   0  0  0  0  0  2  0  0  0  0  0  0
  190.0670  170.4280  136.4080 C   0  0  0  0  0  2  0  0  0  0  0  0
  191.8490  172.1330  136.2840 F   0  0  0  0  0  0  0  0  0  0  0  0
  190.5230  171.8510  136.3730 C   0  0  0  0  0  0  0  0  0  0  0  0
  189.7090  172.7600  136.3990 O   0  0  0  0  0  0  0  0  0  0  0  0
  191.4170  168.7080  140.6880 C   0  0  0  0  0  2  0  0  0  0  0  0
  193.5150  168.7650  142.2590 C   0  0  0  0  0  1  0  0  0  0  0  0
  191.8870  169.5680  142.2190 S   0  0  0  0  0  0  0  0  0  0  0  0
  193.9660  169.4220  138.6440 C   0  0  0  0  0  2  0  0  0  0  0  0
  193.8180  169.1540  137.1570 C   0  0  0  0  0  2  0  0  0  0  0  0
  195.1580  168.7620  136.5550 C   0  0  0  0  0  2  0  0  0  0  0  0
  196.9990  170.2050  135.8500 N   0  0  0  0  0  1  0  0  0  0  0  0
  195.6360  169.8000  135.5500 C   0  0  0  0  0  2  0  0  0  0  0  0
  1 18  1  0  0  0  0
  2 33  1  0  0  0  0
  2 23  1  0  0  0  0
  3 24  1  0  0  0  0
  3 32  1  0  0  0  0
  4  7  2  0  0  0  0
  5 11  1  0  0  0  0
  7 29  1  0  0  0  0
  7  6  1  0  0  0  0
  8  1  1  0  0  0  0
  8 26  2  0  0  0  0
  9  5  1  0  0  0  0
 10  9  2  0  0  0  0
 11 16  1  0  0  0  0
 12 30  2  0  0  0  0
 13 30  1  0  0  0  0
 13 20  1  0  0  0  0
 14  4  1  1  0  0  0
 14 17  1  0  0  0  0
 15 25  1  0  0  0  0
 16 13  1  0  0  0  0
 17 34  1  0  0  0  0
 17  6  2  0  0  0  0
 18 36  1  0  0  0  0
 18 19  2  0  0  0  0
 19  9  1  0  0  0  0
 22 31  1  6  0  0  0
 22 14  1  0  0  0  0
 23 22  1  0  0  0  0
 24  8  1  0  0  0  0
 25  2  2  0  0  0  0
 26 15  1  0  0  0  0
 26 19  1  0  0  0  0
 27 33  2  0  0  0  0
 28 27  1  0  0  0  0
 30  4  1  0  0  0  0
 32 28  2  0  0  0  0
 32 25  1  0  0  0  0
 33 21  1  0  0  0  0
 35 34  1  0  0  0  0
 36 43  1  6  0  0  0
 37 36  1  0  0  0  0
 38 37  1  0  0  0  0
 39 38  1  0  0  0  0
 40 41  1  0  0  0  0
 41 42  2  0  0  0  0
 41 39  1  0  0  0  0
 43 45  1  0  0  0  0
 45 44  1  0  0  0  0
 46  1  1  0  0  0  0
 47 46  1  0  0  0  0
 48 47  1  0  0  0  0
 50 49  1  0  0  0  0
 50 48  1  0  0  0  0
M  END
>  <MODEL>
7

>  <REMARK>
 VINA RESULT:      -6.1      3.632      8.432
  Name = 
  12 active torsions:
  status: ('A' for Active; 'I' for Inactive)
    1  A    between atoms: N_1  and  C_39
    2  A    between atoms: C_13  and  C_21
    3  A    between atoms: C_13  and  C_37
    4  A    between atoms: C_22  and  C_23
    5  A    between atoms: C_24  and  C_27
    6  A    between atoms: O_25  and  C_27
    7  A    between atoms: O_25  and  C_32
    8  A    between atoms: C_27  and  C_33
    9  A    between atoms: C_32  and  C_34
   10  A    between atoms: C_33  and  S_41
   11  A    between atoms: C_34  and  C_42
   12  A    between atoms: C_37  and  C_39
                            x       y       z     vdW  Elec       q    Type
                         _______ _______ _______ _____ _____    ______ ____

>  <TORSDO>
F 12

$$$$
=
 OpenBabel11062419163D

 50 54  0  0  1  0  0  0  0  0999 V2000
  189.1220  175.1860  142.8630 N   0  0  0  0  0  0  0  0  0  0  0  0
  192.4090  171.7500  140.2520 C   0  0  0  0  0  0  0  0  0  0  0  0
  189.1920  173.5810  139.4340 C   0  0  0  0  0  2  0  0  0  0  0  0
  195.7400  172.0600  143.6800 C   0  0  0  0  0  0  0  0  0  0  0  0
  193.1980  176.1710  144.3000 N   0  0  0  0  0  2  0  0  0  0  0  0
  196.0910  169.9860  144.5550 N   0  0  0  0  0  0  0  0  0  0  0  0
  196.2490  171.3880  144.7130 C   0  0  0  0  0  0  0  0  0  0  0  0
  189.5480  174.5690  141.7440 C   0  0  0  0  0  0  0  0  0  0  0  0
  192.7320  175.9280  142.9720 C   0  0  0  0  0  0  0  0  0  0  0  0
  193.5060  176.1100  141.9930 O   0  0  0  0  0  0  0  0  0  0  0  0
  194.4840  176.7750  144.6300 C   0  0  0  0  0  2  0  0  0  0  0  0
  196.0450  173.9300  142.2890 O   0  0  0  0  0  0  0  0  0  0  0  0
  195.4480  174.4760  144.4780 N   0  0  0  0  0  0  0  0  0  0  0  0
  195.2770  171.0640  142.6600 C   0  0  1  0  0  3  0  0  0  0  0  0
  191.8220  174.1970  140.5450 C   0  0  0  0  0  2  0  0  0  0  0  0
  195.6660  175.8980  144.2100 C   0  0  0  0  0  2  0  0  0  0  0  0
  195.5210  169.7960  143.4110 C   0  0  0  0  0  0  0  0  0  0  0  0
  190.1920  175.7340  143.4770 C   0  0  0  0  0  0  0  0  0  0  0  0
  191.3470  175.4560  142.7360 C   0  0  0  0  0  0  0  0  0  0  0  0
  194.9160  174.0630  145.7730 C   0  0  0  0  0  1  0  0  0  0  0  0
  193.0320  169.3370  139.7940 C   0  0  0  0  0  1  0  0  0  0  0  0
  193.8100  171.2090  142.2430 C   0  0  2  0  0  3  0  0  0  0  0  0
  193.7240  171.9880  140.9390 C   0  0  0  0  0  2  0  0  0  0  0  0
  188.6190  173.8150  140.8240 C   0  0  0  0  0  2  0  0  0  0  0  0
  191.4840  172.7970  140.1110 C   0  0  0  0  0  0  0  0  0  0  0  0
  190.9320  174.6920  141.6500 C   0  0  0  0  0  0  0  0  0  0  0  0
  190.8680  170.2950  139.1500 N   0  0  0  0  0  0  0  0  0  0  0  0
  189.9770  171.2810  139.0500 N   0  0  0  0  0  0  0  0  0  0  0  0
  197.0460  171.9720  145.8290 C   0  0  0  0  0  1  0  0  0  0  0  0
  195.7750  173.5200  143.4510 C   0  0  0  0  0  0  0  0  0  0  0  0
  193.0290  171.8130  143.2350 O   0  0  0  0  0  1  0  0  0  0  0  0
  190.2490  172.5300  139.5040 C   0  0  0  0  0  0  0  0  0  0  0  0
  192.0810  170.4840  139.7310 C   0  0  0  0  0  0  0  0  0  0  0  0
  195.2080  168.4350  142.8860 C   0  0  0  0  0  2  0  0  0  0  0  0
  195.9710  168.1790  141.5990 C   0  0  0  0  0  1  0  0  0  0  0  0
  190.0550  176.5210  144.7600 C   0  0  1  0  0  3  0  0  0  0  0  0
  189.3170  177.7190  144.6420 O   0  0  0  0  0  0  0  0  0  0  0  0
  188.4770  177.8480  145.7570 C   0  0  0  0  0  2  0  0  0  0  0  0
  187.0730  178.2370  145.3180 C   0  0  0  0  0  2  0  0  0  0  0  0
  184.7410  177.4860  145.6210 F   0  0  0  0  0  0  0  0  0  0  0  0
  186.0530  177.3380  145.9390 C   0  0  0  0  0  0  0  0  0  0  0  0
  186.3960  176.4570  146.7100 O   0  0  0  0  0  0  0  0  0  0  0  0
  189.8270  175.7280  146.0440 C   0  0  0  0  0  2  0  0  0  0  0  0
  191.2190  176.7730  148.0050 C   0  0  0  0  0  1  0  0  0  0  0  0
  191.4110  175.3750  146.8630 S   0  0  0  0  0  0  0  0  0  0  0  0
  187.7450  175.2280  143.3410 C   0  0  0  0  0  2  0  0  0  0  0  0
  186.8520  175.8780  142.2980 C   0  0  0  0  0  2  0  0  0  0  0  0
  187.3690  177.2660  141.9530 C   0  0  0  0  0  2  0  0  0  0  0  0
  184.9880  177.7050  142.2840 N   0  0  0  0  0  1  0  0  0  0  0  0
  186.2220  178.2430  141.7360 C   0  0  0  0  0  2  0  0  0  0  0  0
  1 46  1  0  0  0  0
  1 18  1  0  0  0  0
  2 23  1  0  0  0  0
  3 32  1  0  0  0  0
  3 24  1  0  0  0  0
  4  7  2  0  0  0  0
  5 11  1  0  0  0  0
  6  7  1  0  0  0  0
  7 29  1  0  0  0  0
  8  1  1  0  0  0  0
  9  5  1  0  0  0  0
 10  9  2  0  0  0  0
 12 30  2  0  0  0  0
 13 20  1  0  0  0  0
 14 17  1  1  0  0  0
 14  4  1  0  0  0  0
 15 26  1  0  0  0  0
 16 13  1  0  0  0  0
 16 11  1  0  0  0  0
 17  6  2  0  0  0  0
 18 36  1  0  0  0  0
 19  9  1  0  0  0  0
 19 18  2  0  0  0  0
 22 14  1  0  0  0  0
 22 31  1  1  0  0  0
 23 22  1  0  0  0  0
 24  8  1  0  0  0  0
 25  2  1  0  0  0  0
 25 15  1  0  0  0  0
 26  8  2  0  0  0  0
 26 19  1  0  0  0  0
 27 33  1  0  0  0  0
 28 27  2  0  0  0  0
 28 32  1  0  0  0  0
 30  4  1  0  0  0  0
 30 13  1  0  0  0  0
 32 25  2  0  0  0  0
 33 21  1  0  0  0  0
 33  2  2  0  0  0  0
 34 17  1  0  0  0  0
 35 34  1  0  0  0  0
 36 43  1  1  0  0  0
 37 36  1  0  0  0  0
 37 38  1  0  0  0  0
 39 38  1  0  0  0  0
 39 41  1  0  0  0  0
 40 41  1  0  0  0  0
 41 42  2  0  0  0  0
 43 45  1  0  0  0  0
 45 44  1  0  0  0  0
 47 46  1  0  0  0  0
 48 47  1  0  0  0  0
 50 48  1  0  0  0  0
 50 49  1  0  0  0  0
M  END
>  <MODEL>
8

>  <REMARK>
 VINA RESULT:      -6.0      2.719      5.855
  Name = 
  12 active torsions:
  status: ('A' for Active; 'I' for Inactive)
    1  A    between atoms: N_1  and  C_39
    2  A    between atoms: C_13  and  C_21
    3  A    between atoms: C_13  and  C_37
    4  A    between atoms: C_22  and  C_23
    5  A    between atoms: C_24  and  C_27
    6  A    between atoms: O_25  and  C_27
    7  A    between atoms: O_25  and  C_32
    8  A    between atoms: C_27  and  C_33
    9  A    between atoms: C_32  and  C_34
   10  A    between atoms: C_33  and  S_41
   11  A    between atoms: C_34  and  C_42
   12  A    between atoms: C_37  and  C_39
                            x       y       z     vdW  Elec       q    Type
                         _______ _______ _______ _____ _____    ______ ____

>  <TORSDO>
F 12

$$$$
=
 OpenBabel11062419163D

 50 54  0  0  1  0  0  0  0  0999 V2000
  195.1780  174.5750  144.4390 N   0  0  0  0  0  0  0  0  0  0  0  0
  195.0190  170.8050  140.5410 C   0  0  0  0  0  0  0  0  0  0  0  0
  197.4910  171.8340  143.2250 C   0  0  0  0  0  2  0  0  0  0  0  0
  190.4060  171.7040  139.6200 C   0  0  0  0  0  0  0  0  0  0  0  0
  190.9200  173.3720  144.1700 N   0  0  0  0  0  2  0  0  0  0  0  0
  190.2040  172.3660  137.4490 N   0  0  0  0  0  0  0  0  0  0  0  0
  189.6100  172.3090  138.7380 C   0  0  0  0  0  0  0  0  0  0  0  0
  195.6440  173.4580  143.8470 C   0  0  0  0  0  0  0  0  0  0  0  0
  192.0980  172.5640  144.1920 C   0  0  0  0  0  0  0  0  0  0  0  0
  191.9950  171.3090  144.2630 O   0  0  0  0  0  0  0  0  0  0  0  0
  189.5670  172.8710  144.3780 C   0  0  0  0  0  2  0  0  0  0  0  0
  190.4410  170.2610  141.4740 O   0  0  0  0  0  0  0  0  0  0  0  0
  189.5260  172.3580  141.9350 N   0  0  0  0  0  0  0  0  0  0  0  0
  191.6130  171.1990  138.8880 C   0  0  1  0  0  3  0  0  0  0  0  0
  194.6470  171.2100  143.0140 C   0  0  0  0  0  2  0  0  0  0  0  0
  189.1200  171.9160  143.2690 C   0  0  0  0  0  2  0  0  0  0  0  0
  191.3450  171.7650  137.5310 C   0  0  0  0  0  0  0  0  0  0  0  0
  193.8480  174.4340  144.6210 C   0  0  0  0  0  0  0  0  0  0  0  0
  193.4400  173.1900  144.1270 C   0  0  0  0  0  0  0  0  0  0  0  0
  189.3250  173.7500  141.5470 C   0  0  0  0  0  1  0  0  0  0  0  0
  195.4490  170.2430  138.1080 C   0  0  0  0  0  1  0  0  0  0  0  0
  192.9530  171.6800  139.4540 C   0  0  2  0  0  3  0  0  0  0  0  0
  193.5420  170.6050  140.3560 C   0  0  0  0  0  2  0  0  0  0  0  0
  197.0920  173.2830  143.4590 C   0  0  0  0  0  2  0  0  0  0  0  0
  195.5350  171.1420  141.8030 C   0  0  0  0  0  0  0  0  0  0  0  0
  194.5830  172.5870  143.6110 C   0  0  0  0  0  0  0  0  0  0  0  0
  197.2390  170.8770  139.6600 N   0  0  0  0  0  0  0  0  0  0  0  0
  197.7210  171.2320  140.8510 N   0  0  0  0  0  0  0  0  0  0  0  0
  188.2010  172.7310  138.9760 C   0  0  0  0  0  1  0  0  0  0  0  0
  190.1100  171.3960  141.0350 C   0  0  0  0  0  0  0  0  0  0  0  0
  192.8390  172.8950  140.1390 O   0  0  0  0  0  1  0  0  0  0  0  0
  196.9140  171.3640  141.9330 C   0  0  0  0  0  0  0  0  0  0  0  0
  195.9140  170.6510  139.4650 C   0  0  0  0  0  0  0  0  0  0  0  0
  192.2560  171.6050  136.3600 C   0  0  0  0  0  2  0  0  0  0  0  0
  192.6740  172.9640  135.8300 C   0  0  0  0  0  1  0  0  0  0  0  0
  193.0180  175.5100  145.2840 C   0  0  1  0  0  3  0  0  0  0  0  0
  193.1630  175.5870  146.6860 O   0  0  0  0  0  0  0  0  0  0  0  0
  192.0900  174.9160  147.2910 C   0  0  0  0  0  2  0  0  0  0  0  0
  190.9830  175.8990  147.6410 C   0  0  0  0  0  2  0  0  0  0  0  0
  188.9210  174.5410  147.6380 F   0  0  0  0  0  0  0  0  0  0  0  0
  189.6870  175.4810  147.0250 C   0  0  0  0  0  0  0  0  0  0  0  0
  189.3010  175.9990  145.9890 O   0  0  0  0  0  0  0  0  0  0  0  0
  192.9000  176.8460  144.5550 C   0  0  0  0  0  2  0  0  0  0  0  0
  190.8980  178.2520  143.6120 C   0  0  0  0  0  1  0  0  0  0  0  0
  191.7420  176.7090  143.1610 S   0  0  0  0  0  0  0  0  0  0  0  0
  195.9720  175.7470  144.7920 C   0  0  0  0  0  2  0  0  0  0  0  0
  195.8760  176.7910  143.6930 C   0  0  0  0  0  2  0  0  0  0  0  0
  197.0110  176.6130  142.6970 C   0  0  0  0  0  2  0  0  0  0  0  0
  195.0260  176.3980  141.2890 N   0  0  0  0  0  1  0  0  0  0  0  0
  196.4790  176.4150  141.2850 C   0  0  0  0  0  2  0  0  0  0  0  0
  1 18  1  0  0  0  0
  1 46  1  0  0  0  0
  2 25  1  0  0  0  0
  3 24  1  0  0  0  0
  4 30  1  0  0  0  0
  5  9  1  0  0  0  0
  5 11  1  0  0  0  0
  6 17  2  0  0  0  0
  6  7  1  0  0  0  0
  7 29  1  0  0  0  0
  7  4  2  0  0  0  0
  8  1  1  0  0  0  0
  9 10  2  0  0  0  0
 13 16  1  0  0  0  0
 14 17  1  6  0  0  0
 14 22  1  0  0  0  0
 14  4  1  0  0  0  0
 15 26  1  0  0  0  0
 16 11  1  0  0  0  0
 18 36  1  0  0  0  0
 19  9  1  0  0  0  0
 19 18  2  0  0  0  0
 20 13  1  0  0  0  0
 21 33  1  0  0  0  0
 22 31  1  1  0  0  0
 22 23  1  0  0  0  0
 23  2  1  0  0  0  0
 24  8  1  0  0  0  0
 25 32  2  0  0  0  0
 25 15  1  0  0  0  0
 26  8  2  0  0  0  0
 26 19  1  0  0  0  0
 27 28  2  0  0  0  0
 28 32  1  0  0  0  0
 30 12  2  0  0  0  0
 30 13  1  0  0  0  0
 32  3  1  0  0  0  0
 33 27  1  0  0  0  0
 33  2  2  0  0  0  0
 34 17  1  0  0  0  0
 35 34  1  0  0  0  0
 36 43  1  6  0  0  0
 36 37  1  0  0  0  0
 37 38  1  0  0  0  0
 38 39  1  0  0  0  0
 41 40  1  0  0  0  0
 41 39  1  0  0  0  0
 42 41  2  0  0  0  0
 45 44  1  0  0  0  0
 45 43  1  0  0  0  0
 47 46  1  0  0  0  0
 48 47  1  0  0  0  0
 50 49  1  0  0  0  0
 50 48  1  0  0  0  0
M  END
>  <MODEL>
9

>  <REMARK>
 VINA RESULT:      -5.9      3.184      6.170
  Name = 
  12 active torsions:
  status: ('A' for Active; 'I' for Inactive)
    1  A    between atoms: N_1  and  C_39
    2  A    between atoms: C_13  and  C_21
    3  A    between atoms: C_13  and  C_37
    4  A    between atoms: C_22  and  C_23
    5  A    between atoms: C_24  and  C_27
    6  A    between atoms: O_25  and  C_27
    7  A    between atoms: O_25  and  C_32
    8  A    between atoms: C_27  and  C_33
    9  A    between atoms: C_32  and  C_34
   10  A    between atoms: C_33  and  S_41
   11  A    between atoms: C_34  and  C_42
   12  A    between atoms: C_37  and  C_39
                            x       y       z     vdW  Elec       q    Type
                         _______ _______ _______ _____ _____    ______ ____

>  <TORSDO>
F 12

$$$$
