=
 OpenBabel11062420073D

 35 39  0  0  1  0  0  0  0  0999 V2000
  191.2120  175.3160  147.2170 C   0  0  0  0  0  2  0  0  0  0  0  0
  188.9870  175.3480  145.9140 C   0  0  2  0  0  3  0  0  0  0  0  0
  190.7760  176.7710  147.2070 C   0  0  0  0  0  2  0  0  0  0  0  0
  190.4110  175.8570  146.0460 C   0  0  0  0  0  0  0  0  0  0  0  0
  191.0870  176.0590  144.6820 C   0  0  2  0  0  0  0  0  0  0  0  0
  191.4790  177.3960  144.5440 O   0  0  0  0  0  1  0  0  0  0  0  0
  188.9070  174.9490  144.4460 C   0  0  0  0  0  2  0  0  0  0  0  0
  189.9550  175.7770  143.7010 C   0  0  0  0  0  2  0  0  0  0  0  0
  194.0690  173.0940  145.4970 C   0  0  0  0  0  2  0  0  0  0  0  0
  194.0650  176.6970  144.8180 C   0  0  0  0  0  3  0  0  0  0  0  0
  192.6260  172.2460  142.0110 C   0  0  0  0  0  1  0  0  0  0  0  0
  193.1530  173.1600  143.0950 C   0  0  2  0  0  3  0  0  0  0  0  0
  193.6380  175.4350  144.8220 C   0  0  0  0  0  0  0  0  0  0  0  0
  194.5170  174.4190  145.2260 O   0  0  0  0  0  0  0  0  0  0  0  0
  193.7680  172.3140  144.2140 C   0  0  0  0  0  2  0  0  0  0  0  0
  195.3590  177.0170  145.2160 O   0  0  0  0  0  1  0  0  0  0  0  0
  192.0490  174.0600  143.5720 C   0  0  0  0  0  3  0  0  0  0  0  0
  192.2490  175.1140  144.3800 C   0  0  0  0  0  0  0  0  0  0  0  0
  184.1240  178.3870  146.9800 O   0  0  0  0  0  1  0  0  0  0  0  0
  187.8050  177.4690  145.2630 O   0  0  0  0  0  0  0  0  0  0  0  0
  186.0930  177.2230  147.6480 C   0  0  0  0  0  2  0  0  0  0  0  0
  186.8640  178.4260  145.3800 O   0  0  0  0  0  0  0  0  0  0  0  0
  185.0230  177.4010  146.5650 C   0  0  2  0  0  3  0  0  0  0  0  0
  185.6410  177.7690  145.2040 C   0  0  1  0  0  3  0  0  0  0  0  0
  187.9610  176.4090  146.1810 C   0  0  0  0  0  0  0  0  0  0  0  0
  187.1740  176.2600  147.2560 C   0  0  0  0  0  3  0  0  0  0  0  0
  184.7640  178.5600  144.4110 O   0  0  0  0  0  0  0  0  0  0  0  0
  181.6780  177.9550  140.3400 N   0  0  0  0  0  1  0  0  0  0  0  0
  185.9910  177.5690  139.6820 C   0  0  0  0  0  1  0  0  0  0  0  0
  183.9130  178.1880  141.0240 C   0  0  0  0  0  0  0  0  0  0  0  0
  184.6860  178.4130  143.0260 C   0  0  0  0  0  0  0  0  0  0  0  0
  185.3160  178.1500  140.8280 N   0  0  0  0  0  0  0  0  0  0  0  0
  185.9010  178.2640  142.1530 C   0  0  0  0  0  2  0  0  0  0  0  0
  183.0540  177.9680  140.0800 N   0  0  0  0  0  0  0  0  0  0  0  0
  183.5600  178.3680  142.3840 N   0  0  0  0  0  0  0  0  0  0  0  0
  2  4  1  0  0  0  0
  2 25  1  6  0  0  0
  3  1  1  0  0  0  0
  4  3  1  0  0  0  0
  4  1  1  0  0  0  0
  5  6  1  6  0  0  0
  5  4  1  0  0  0  0
  7  2  1  0  0  0  0
  8  7  1  0  0  0  0
  8  5  1  0  0  0  0
 10 13  2  0  0  0  0
 10 16  1  0  0  0  0
 12 11  1  6  0  0  0
 12 17  1  0  0  0  0
 12 15  1  0  0  0  0
 13 14  1  0  0  0  0
 14  9  1  0  0  0  0
 15  9  1  0  0  0  0
 17 18  2  0  0  0  0
 18  5  1  0  0  0  0
 18 13  1  0  0  0  0
 20 22  1  0  0  0  0
 20 25  1  0  0  0  0
 23 19  1  1  0  0  0
 23 21  1  0  0  0  0
 24 27  1  1  0  0  0
 24 22  1  0  0  0  0
 24 23  1  0  0  0  0
 25 26  2  0  0  0  0
 26 21  1  0  0  0  0
 29 32  1  0  0  0  0
 30 35  1  0  0  0  0
 31 27  1  0  0  0  0
 32 30  1  0  0  0  0
 32 33  1  0  0  0  0
 33 31  1  0  0  0  0
 34 28  1  0  0  0  0
 34 30  2  0  0  0  0
 35 31  2  0  0  0  0
M  END
>  <MODEL>
1

>  <REMARK>
 VINA RESULT:      -8.9      0.000      0.000
  Name = 
  4 active torsions:
  status: ('A' for Active; 'I' for Inactive)
    1  A    between atoms: C_2  and  C_31
    2  A    between atoms: C_14  and  C_30
    3  A    between atoms: C_17  and  O_19
    4  A    between atoms: O_19  and  C_29
                            x       y       z     vdW  Elec       q    Type
                         _______ _______ _______ _____ _____    ______ ____

>  <TORSDO>
F 4

$$$$
=
 OpenBabel11062420073D

 35 39  0  0  1  0  0  0  0  0999 V2000
  191.7080  175.3220  147.2750 C   0  0  0  0  0  2  0  0  0  0  0  0
  189.4860  175.2340  145.9690 C   0  0  2  0  0  3  0  0  0  0  0  0
  191.1950  176.7510  147.2650 C   0  0  0  0  0  2  0  0  0  0  0  0
  190.8810  175.8180  146.1030 C   0  0  0  0  0  0  0  0  0  0  0  0
  191.5470  176.0570  144.7410 C   0  0  2  0  0  0  0  0  0  0  0  0
  191.8680  177.4120  144.6030 O   0  0  0  0  0  1  0  0  0  0  0  0
  189.4300  174.8310  144.5010 C   0  0  0  0  0  2  0  0  0  0  0  0
  190.4330  175.7140  143.7580 C   0  0  0  0  0  2  0  0  0  0  0  0
  195.6360  174.7890  144.9020 C   0  0  0  0  0  2  0  0  0  0  0  0
  193.4470  176.2790  142.3670 C   0  0  0  0  0  3  0  0  0  0  0  0
  193.4980  171.5740  145.1280 C   0  0  0  0  0  1  0  0  0  0  0  0
  193.8800  172.9370  144.5920 C   0  0  2  0  0  3  0  0  0  0  0  0
  193.7980  175.6020  143.4590 C   0  0  0  0  0  0  0  0  0  0  0  0
  195.1490  175.2820  143.6570 O   0  0  0  0  0  0  0  0  0  0  0  0
  195.2620  173.3200  145.1260 C   0  0  0  0  0  2  0  0  0  0  0  0
  194.3990  176.6770  141.4340 O   0  0  0  0  0  1  0  0  0  0  0  0
  192.8110  173.9310  144.9460 C   0  0  0  0  0  3  0  0  0  0  0  0
  192.7590  175.1750  144.4410 C   0  0  0  0  0  0  0  0  0  0  0  0
  184.4450  178.0370  146.8370 O   0  0  0  0  0  1  0  0  0  0  0  0
  188.3020  177.3800  145.4100 O   0  0  0  0  0  0  0  0  0  0  0  0
  186.3780  176.8600  147.5810 C   0  0  0  0  0  2  0  0  0  0  0  0
  187.3230  178.2990  145.5260 O   0  0  0  0  0  0  0  0  0  0  0  0
  185.4110  177.1180  146.4200 C   0  0  2  0  0  3  0  0  0  0  0  0
  186.1440  177.6320  145.1680 C   0  0  1  0  0  3  0  0  0  0  0  0
  188.4040  176.2390  146.2340 C   0  0  0  0  0  0  0  0  0  0  0  0
  187.5240  175.9660  147.2070 C   0  0  0  0  0  3  0  0  0  0  0  0
  185.3210  178.4770  144.3720 O   0  0  0  0  0  0  0  0  0  0  0  0
  182.1830  177.9440  140.3320 N   0  0  0  0  0  1  0  0  0  0  0  0
  186.4750  177.4210  139.6380 C   0  0  0  0  0  1  0  0  0  0  0  0
  184.4300  178.1120  140.9950 C   0  0  0  0  0  0  0  0  0  0  0  0
  185.2260  178.3240  142.9890 C   0  0  0  0  0  0  0  0  0  0  0  0
  185.8290  178.0290  140.7870 N   0  0  0  0  0  0  0  0  0  0  0  0
  186.4280  178.1330  142.1050 C   0  0  0  0  0  2  0  0  0  0  0  0
  183.5550  177.9130  140.0590 N   0  0  0  0  0  0  0  0  0  0  0  0
  184.0940  178.3110  142.3570 N   0  0  0  0  0  0  0  0  0  0  0  0
  2  4  1  0  0  0  0
  2 25  1  6  0  0  0
  3  1  1  0  0  0  0
  4  3  1  0  0  0  0
  4  1  1  0  0  0  0
  5  6  1  6  0  0  0
  5  4  1  0  0  0  0
  7  2  1  0  0  0  0
  8  7  1  0  0  0  0
  8  5  1  0  0  0  0
  9 15  1  0  0  0  0
 10 13  2  0  0  0  0
 12 17  1  0  0  0  0
 12 15  1  0  0  0  0
 12 11  1  1  0  0  0
 13 14  1  0  0  0  0
 13 18  1  0  0  0  0
 14  9  1  0  0  0  0
 16 10  1  0  0  0  0
 18  5  1  0  0  0  0
 18 17  2  0  0  0  0
 20 22  1  0  0  0  0
 20 25  1  0  0  0  0
 23 19  1  1  0  0  0
 23 21  1  0  0  0  0
 24 27  1  1  0  0  0
 24 22  1  0  0  0  0
 24 23  1  0  0  0  0
 25 26  2  0  0  0  0
 26 21  1  0  0  0  0
 29 32  1  0  0  0  0
 30 35  1  0  0  0  0
 31 27  1  0  0  0  0
 32 30  1  0  0  0  0
 32 33  1  0  0  0  0
 33 31  1  0  0  0  0
 34 28  1  0  0  0  0
 34 30  2  0  0  0  0
 35 31  2  0  0  0  0
M  END
>  <MODEL>
2

>  <REMARK>
 VINA RESULT:      -8.8      1.122      1.309
  Name = 
  4 active torsions:
  status: ('A' for Active; 'I' for Inactive)
    1  A    between atoms: C_2  and  C_31
    2  A    between atoms: C_14  and  C_30
    3  A    between atoms: C_17  and  O_19
    4  A    between atoms: O_19  and  C_29
                            x       y       z     vdW  Elec       q    Type
                         _______ _______ _______ _____ _____    ______ ____

>  <TORSDO>
F 4

$$$$
=
 OpenBabel11062420073D

 35 39  0  0  1  0  0  0  0  0999 V2000
  191.9990  175.7700  142.6770 C   0  0  0  0  0  2  0  0  0  0  0  0
  191.5300  176.8660  144.9650 C   0  0  2  0  0  3  0  0  0  0  0  0
  190.5850  175.3510  143.0380 C   0  0  0  0  0  2  0  0  0  0  0  0
  191.6120  175.5970  144.1350 C   0  0  0  0  0  0  0  0  0  0  0  0
  192.1600  174.4090  144.9380 C   0  0  2  0  0  0  0  0  0  0  0  0
  191.2170  173.3750  144.9550 O   0  0  0  0  0  1  0  0  0  0  0  0
  192.3310  176.5060  146.2090 C   0  0  0  0  0  2  0  0  0  0  0  0
  192.2840  174.9830  146.3450 C   0  0  0  0  0  2  0  0  0  0  0  0
  195.7260  174.2300  142.5690 C   0  0  0  0  0  2  0  0  0  0  0  0
  192.7290  172.1550  142.9660 C   0  0  0  0  0  3  0  0  0  0  0  0
  196.8310  173.6630  146.2320 C   0  0  0  0  0  1  0  0  0  0  0  0
  195.9450  173.4790  145.0190 C   0  0  2  0  0  3  0  0  0  0  0  0
  193.6720  173.0430  143.2760 C   0  0  0  0  0  0  0  0  0  0  0  0
  194.8050  173.1490  142.4550 O   0  0  0  0  0  0  0  0  0  0  0  0
  196.6350  174.0850  143.7940 C   0  0  0  0  0  2  0  0  0  0  0  0
  192.8490  171.3450  141.8420 O   0  0  0  0  0  1  0  0  0  0  0  0
  194.5930  174.0750  145.2920 C   0  0  0  0  0  3  0  0  0  0  0  0
  193.5290  173.8930  144.4930 C   0  0  0  0  0  0  0  0  0  0  0  0
  186.0390  176.8450  146.9300 O   0  0  0  0  0  1  0  0  0  0  0  0
  189.2400  177.7480  144.4230 O   0  0  0  0  0  0  0  0  0  0  0  0
  188.3860  177.1670  147.1840 C   0  0  0  0  0  2  0  0  0  0  0  0
  187.9440  178.0170  144.6800 O   0  0  0  0  0  0  0  0  0  0  0  0
  187.2730  176.4590  146.4030 C   0  0  2  0  0  3  0  0  0  0  0  0
  187.3420  176.7720  144.8970 C   0  0  1  0  0  3  0  0  0  0  0  0
  190.1290  177.2060  145.3760 C   0  0  0  0  0  0  0  0  0  0  0  0
  189.7550  176.9060  146.6270 C   0  0  0  0  0  3  0  0  0  0  0  0
  186.0600  176.7290  144.2800 O   0  0  0  0  0  0  0  0  0  0  0  0
  182.7190  178.5160  140.8010 N   0  0  0  0  0  1  0  0  0  0  0  0
  186.6570  177.2520  139.3580 C   0  0  0  0  0  1  0  0  0  0  0  0
  184.9510  177.8700  141.1500 C   0  0  0  0  0  0  0  0  0  0  0  0
  185.8640  177.1280  142.9580 C   0  0  0  0  0  0  0  0  0  0  0  0
  186.2590  177.5310  140.7260 N   0  0  0  0  0  0  0  0  0  0  0  0
  186.9230  176.9880  141.8990 C   0  0  0  0  0  2  0  0  0  0  0  0
  184.0150  178.2530  140.3400 N   0  0  0  0  0  0  0  0  0  0  0  0
  184.7460  177.6270  142.5300 N   0  0  0  0  0  0  0  0  0  0  0  0
  1  3  1  0  0  0  0
  1  4  1  0  0  0  0
  2 25  1  1  0  0  0
  2  7  1  0  0  0  0
  3  4  1  0  0  0  0
  4  5  1  0  0  0  0
  4  2  1  0  0  0  0
  5  6  1  6  0  0  0
  5  8  1  0  0  0  0
  7  8  1  0  0  0  0
  9 15  1  0  0  0  0
 10 13  2  0  0  0  0
 12 17  1  0  0  0  0
 12 11  1  1  0  0  0
 13 18  1  0  0  0  0
 14  9  1  0  0  0  0
 14 13  1  0  0  0  0
 15 12  1  0  0  0  0
 16 10  1  0  0  0  0
 18  5  1  0  0  0  0
 18 17  2  0  0  0  0
 20 22  1  0  0  0  0
 20 25  1  0  0  0  0
 22 24  1  0  0  0  0
 23 19  1  1  0  0  0
 23 21  1  0  0  0  0
 24 27  1  1  0  0  0
 24 23  1  0  0  0  0
 25 26  2  0  0  0  0
 26 21  1  0  0  0  0
 29 32  1  0  0  0  0
 30 35  1  0  0  0  0
 31 27  1  0  0  0  0
 32 30  1  0  0  0  0
 32 33  1  0  0  0  0
 33 31  1  0  0  0  0
 34 28  1  0  0  0  0
 34 30  2  0  0  0  0
 35 31  2  0  0  0  0
M  END
>  <MODEL>
3

>  <REMARK>
 VINA RESULT:      -8.2      1.901      3.133
  Name = 
  4 active torsions:
  status: ('A' for Active; 'I' for Inactive)
    1  A    between atoms: C_2  and  C_31
    2  A    between atoms: C_14  and  C_30
    3  A    between atoms: C_17  and  O_19
    4  A    between atoms: O_19  and  C_29
                            x       y       z     vdW  Elec       q    Type
                         _______ _______ _______ _____ _____    ______ ____

>  <TORSDO>
F 4

$$$$
=
 OpenBabel11062420073D

 35 39  0  0  1  0  0  0  0  0999 V2000
  191.1110  176.5590  143.4490 C   0  0  0  0  0  2  0  0  0  0  0  0
  190.0300  176.2240  145.7660 C   0  0  2  0  0  3  0  0  0  0  0  0
  189.6140  176.6560  143.2090 C   0  0  0  0  0  2  0  0  0  0  0  0
  190.1530  175.7700  144.3230 C   0  0  0  0  0  0  0  0  0  0  0  0
  190.0680  174.2430  144.1830 C   0  0  2  0  0  0  0  0  0  0  0  0
  188.9940  173.9050  143.3520 O   0  0  0  0  0  1  0  0  0  0  0  0
  190.1760  174.9220  146.5430 C   0  0  0  0  0  2  0  0  0  0  0  0
  189.7490  173.7930  145.6040 C   0  0  0  0  0  2  0  0  0  0  0  0
  193.8800  173.8900  142.2600 C   0  0  0  0  0  2  0  0  0  0  0  0
  190.4900  172.6480  141.6190 C   0  0  0  0  0  3  0  0  0  0  0  0
  194.1650  171.9440  145.5900 C   0  0  0  0  0  1  0  0  0  0  0  0
  193.4920  172.3840  144.3080 C   0  0  2  0  0  3  0  0  0  0  0  0
  191.5290  173.1190  142.3080 C   0  0  0  0  0  0  0  0  0  0  0  0
  192.7860  173.1760  141.6890 O   0  0  0  0  0  0  0  0  0  0  0  0
  194.5030  173.1400  143.4410 C   0  0  0  0  0  2  0  0  0  0  0  0
  190.6350  172.2260  140.3020 O   0  0  0  0  0  1  0  0  0  0  0  0
  192.2710  173.1940  144.6370 C   0  0  0  0  0  3  0  0  0  0  0  0
  191.3530  173.5540  143.7240 C   0  0  0  0  0  0  0  0  0  0  0  0
  184.3510  177.3230  146.5140 O   0  0  0  0  0  1  0  0  0  0  0  0
  188.3180  178.0420  145.4720 O   0  0  0  0  0  0  0  0  0  0  0  0
  186.4880  176.5790  147.2590 C   0  0  0  0  0  2  0  0  0  0  0  0
  187.1110  178.6180  145.6340 O   0  0  0  0  0  0  0  0  0  0  0  0
  185.5650  176.8070  146.0570 C   0  0  2  0  0  3  0  0  0  0  0  0
  186.1990  177.7510  145.0190 C   0  0  1  0  0  3  0  0  0  0  0  0
  188.6900  176.8220  146.0780 C   0  0  0  0  0  0  0  0  0  0  0  0
  187.8630  176.1250  146.8690 C   0  0  0  0  0  3  0  0  0  0  0  0
  185.2220  178.4920  144.2980 O   0  0  0  0  0  0  0  0  0  0  0  0
  181.8840  177.9660  140.4190 N   0  0  0  0  0  1  0  0  0  0  0  0
  186.1400  177.4880  139.5010 C   0  0  0  0  0  1  0  0  0  0  0  0
  184.1610  178.1480  140.9680 C   0  0  0  0  0  0  0  0  0  0  0  0
  185.0570  178.3500  142.9200 C   0  0  0  0  0  0  0  0  0  0  0  0
  185.5480  178.0800  140.6870 N   0  0  0  0  0  0  0  0  0  0  0  0
  186.2140  178.1770  141.9740 C   0  0  0  0  0  2  0  0  0  0  0  0
  183.2410  177.9500  140.0770 N   0  0  0  0  0  0  0  0  0  0  0  0
  183.8940  178.3320  142.3470 N   0  0  0  0  0  0  0  0  0  0  0  0
  1  4  1  0  0  0  0
  2 25  1  6  0  0  0
  2  7  1  0  0  0  0
  3  1  1  0  0  0  0
  3  4  1  0  0  0  0
  4  2  1  0  0  0  0
  5  6  1  6  0  0  0
  5  4  1  0  0  0  0
  5  8  1  0  0  0  0
  8  7  1  0  0  0  0
  9 15  1  0  0  0  0
 10 13  2  0  0  0  0
 12 17  1  0  0  0  0
 12 11  1  1  0  0  0
 13 18  1  0  0  0  0
 14  9  1  0  0  0  0
 14 13  1  0  0  0  0
 15 12  1  0  0  0  0
 16 10  1  0  0  0  0
 18  5  1  0  0  0  0
 18 17  2  0  0  0  0
 20 22  1  0  0  0  0
 20 25  1  0  0  0  0
 23 19  1  1  0  0  0
 23 21  1  0  0  0  0
 24 27  1  1  0  0  0
 24 22  1  0  0  0  0
 24 23  1  0  0  0  0
 25 26  2  0  0  0  0
 26 21  1  0  0  0  0
 29 32  1  0  0  0  0
 30 35  1  0  0  0  0
 31 27  1  0  0  0  0
 32 30  1  0  0  0  0
 32 33  1  0  0  0  0
 33 31  1  0  0  0  0
 34 28  1  0  0  0  0
 34 30  2  0  0  0  0
 35 31  2  0  0  0  0
M  END
>  <MODEL>
4

>  <REMARK>
 VINA RESULT:      -8.0      1.770      2.728
  Name = 
  4 active torsions:
  status: ('A' for Active; 'I' for Inactive)
    1  A    between atoms: C_2  and  C_31
    2  A    between atoms: C_14  and  C_30
    3  A    between atoms: C_17  and  O_19
    4  A    between atoms: O_19  and  C_29
                            x       y       z     vdW  Elec       q    Type
                         _______ _______ _______ _____ _____    ______ ____

>  <TORSDO>
F 4

$$$$
=
 OpenBabel11062420073D

 35 39  0  0  1  0  0  0  0  0999 V2000
  193.6180  174.7190  145.7630 C   0  0  0  0  0  2  0  0  0  0  0  0
  191.1370  174.5550  145.0790 C   0  0  2  0  0  3  0  0  0  0  0  0
  193.0570  176.1160  145.9610 C   0  0  0  0  0  2  0  0  0  0  0  0
  192.4900  175.2120  144.8750 C   0  0  0  0  0  0  0  0  0  0  0  0
  192.7620  175.5390  143.4000 C   0  0  2  0  0  0  0  0  0  0  0  0
  192.9740  176.9150  143.2530 O   0  0  0  0  0  1  0  0  0  0  0  0
  190.7140  174.2060  143.6580 C   0  0  0  0  0  2  0  0  0  0  0  0
  191.4450  175.1720  142.7250 C   0  0  0  0  0  2  0  0  0  0  0  0
  195.9890  172.7300  143.1890 C   0  0  0  0  0  2  0  0  0  0  0  0
  195.6750  176.3810  143.0850 C   0  0  0  0  0  3  0  0  0  0  0  0
  193.9460  172.2740  139.9370 C   0  0  0  0  0  1  0  0  0  0  0  0
  194.6270  173.0640  141.0350 C   0  0  2  0  0  3  0  0  0  0  0  0
  195.3200  175.1030  142.9730 C   0  0  0  0  0  0  0  0  0  0  0  0
  196.3100  174.1110  143.0480 O   0  0  0  0  0  0  0  0  0  0  0  0
  195.4860  172.1180  141.8780 C   0  0  0  0  0  2  0  0  0  0  0  0
  197.0040  176.7410  143.2840 O   0  0  0  0  0  1  0  0  0  0  0  0
  193.5910  173.7980  141.8380 C   0  0  0  0  0  3  0  0  0  0  0  0
  193.8900  174.7400  142.7480 C   0  0  0  0  0  0  0  0  0  0  0  0
  186.2860  177.1820  146.9740 O   0  0  0  0  0  1  0  0  0  0  0  0
  190.0300  176.8090  145.1890 O   0  0  0  0  0  0  0  0  0  0  0  0
  188.1960  175.7850  147.2560 C   0  0  0  0  0  2  0  0  0  0  0  0
  189.1030  177.6940  145.6060 O   0  0  0  0  0  0  0  0  0  0  0  0
  187.1850  176.3790  146.2680 C   0  0  2  0  0  3  0  0  0  0  0  0
  187.8770  177.1870  145.1570 C   0  0  1  0  0  3  0  0  0  0  0  0
  190.1190  175.4850  145.6690 C   0  0  0  0  0  0  0  0  0  0  0  0
  189.2760  174.9890  146.5860 C   0  0  0  0  0  3  0  0  0  0  0  0
  187.0570  178.2420  144.6680 O   0  0  0  0  0  0  0  0  0  0  0  0
  186.7670  177.6130  139.5700 N   0  0  0  0  0  1  0  0  0  0  0  0
  183.0240  178.3030  141.7370 C   0  0  0  0  0  1  0  0  0  0  0  0
  185.5110  177.7740  141.5490 C   0  0  0  0  0  0  0  0  0  0  0  0
  186.2190  178.0750  143.5650 C   0  0  0  0  0  0  0  0  0  0  0  0
  184.3100  177.9180  142.2870 N   0  0  0  0  0  0  0  0  0  0  0  0
  184.7200  178.1580  143.6590 C   0  0  0  0  0  2  0  0  0  0  0  0
  185.5490  177.6900  140.2560 N   0  0  0  0  0  0  0  0  0  0  0  0
  186.6650  177.8580  142.3670 N   0  0  0  0  0  0  0  0  0  0  0  0
  1  3  1  0  0  0  0
  2 25  1  6  0  0  0
  4  2  1  0  0  0  0
  4  1  1  0  0  0  0
  4  3  1  0  0  0  0
  5  6  1  6  0  0  0
  5  4  1  0  0  0  0
  7  2  1  0  0  0  0
  8  5  1  0  0  0  0
  8  7  1  0  0  0  0
 10 16  1  0  0  0  0
 12 11  1  6  0  0  0
 12 17  1  0  0  0  0
 12 15  1  0  0  0  0
 13 14  1  0  0  0  0
 13 10  2  0  0  0  0
 14  9  1  0  0  0  0
 15  9  1  0  0  0  0
 17 18  2  0  0  0  0
 18 13  1  0  0  0  0
 18  5  1  0  0  0  0
 20 22  1  0  0  0  0
 20 25  1  0  0  0  0
 23 19  1  1  0  0  0
 23 21  1  0  0  0  0
 24 27  1  1  0  0  0
 24 22  1  0  0  0  0
 24 23  1  0  0  0  0
 25 26  2  0  0  0  0
 26 21  1  0  0  0  0
 28 34  1  0  0  0  0
 29 32  1  0  0  0  0
 30 32  1  0  0  0  0
 30 35  1  0  0  0  0
 31 33  1  0  0  0  0
 31 27  1  0  0  0  0
 32 33  1  0  0  0  0
 34 30  2  0  0  0  0
 35 31  2  0  0  0  0
M  END
>  <MODEL>
5

>  <REMARK>
 VINA RESULT:      -7.9      1.761      2.583
  Name = 
  4 active torsions:
  status: ('A' for Active; 'I' for Inactive)
    1  A    between atoms: C_2  and  C_31
    2  A    between atoms: C_14  and  C_30
    3  A    between atoms: C_17  and  O_19
    4  A    between atoms: O_19  and  C_29
                            x       y       z     vdW  Elec       q    Type
                         _______ _______ _______ _____ _____    ______ ____

>  <TORSDO>
F 4

$$$$
=
 OpenBabel11062420073D

 35 39  0  0  1  0  0  0  0  0999 V2000
  189.2550  174.8940  143.6290 C   0  0  0  0  0  2  0  0  0  0  0  0
  190.6130  174.8190  145.8210 C   0  0  2  0  0  3  0  0  0  0  0  0
  190.6580  175.3330  143.2450 C   0  0  0  0  0  2  0  0  0  0  0  0
  190.1190  175.6310  144.6370 C   0  0  0  0  0  0  0  0  0  0  0  0
  189.7810  177.0790  145.0230 C   0  0  2  0  0  0  0  0  0  0  0  0
  190.5640  177.9620  144.2710 O   0  0  0  0  0  1  0  0  0  0  0  0
  190.2790  175.7150  147.0060 C   0  0  0  0  0  2  0  0  0  0  0  0
  190.2240  177.1500  146.4800 C   0  0  0  0  0  2  0  0  0  0  0  0
  185.5840  176.4450  144.4380 C   0  0  0  0  0  2  0  0  0  0  0  0
  188.2740  178.1040  142.5790 C   0  0  0  0  0  3  0  0  0  0  0  0
  185.9040  178.8710  147.4330 C   0  0  0  0  0  1  0  0  0  0  0  0
  186.2380  178.3310  146.0590 C   0  0  2  0  0  3  0  0  0  0  0  0
  187.6180  177.5950  143.6200 C   0  0  0  0  0  0  0  0  0  0  0  0
  186.2750  177.2200  143.4620 O   0  0  0  0  0  0  0  0  0  0  0  0
  185.2000  177.2770  145.6660 C   0  0  0  0  0  2  0  0  0  0  0  0
  187.6530  178.2570  141.3440 O   0  0  0  0  0  1  0  0  0  0  0  0
  187.6460  177.8070  146.0560 C   0  0  0  0  0  3  0  0  0  0  0  0
  188.3010  177.4510  144.9390 C   0  0  0  0  0  0  0  0  0  0  0  0
  196.3890  175.1750  145.0920 O   0  0  0  0  0  1  0  0  0  0  0  0
  192.6060  173.4350  145.1630 O   0  0  0  0  0  0  0  0  0  0  0  0
  194.3820  175.4700  146.3420 C   0  0  0  0  0  2  0  0  0  0  0  0
  193.9220  173.1800  145.0250 O   0  0  0  0  0  0  0  0  0  0  0  0
  195.0090  175.3390  144.9490 C   0  0  2  0  0  3  0  0  0  0  0  0
  194.4030  174.1670  144.1560 C   0  0  1  0  0  3  0  0  0  0  0  0
  192.0950  174.5900  145.7930 C   0  0  0  0  0  0  0  0  0  0  0  0
  192.8840  175.5430  146.3090 C   0  0  0  0  0  3  0  0  0  0  0  0
  195.3300  173.6040  143.2350 O   0  0  0  0  0  0  0  0  0  0  0  0
  193.6180  174.7850  138.5300 N   0  0  0  0  0  1  0  0  0  0  0  0
  197.8480  175.5260  139.3850 C   0  0  0  0  0  1  0  0  0  0  0  0
  195.4370  174.9760  140.0040 C   0  0  0  0  0  0  0  0  0  0  0  0
  195.6200  174.2140  142.0140 C   0  0  0  0  0  0  0  0  0  0  0  0
  196.7800  175.2800  140.3360 N   0  0  0  0  0  0  0  0  0  0  0  0
  196.9800  174.7590  141.6770 C   0  0  0  0  0  2  0  0  0  0  0  0
  194.9340  175.1610  138.8240 N   0  0  0  0  0  0  0  0  0  0  0  0
  194.7460  174.3370  141.0630 N   0  0  0  0  0  0  0  0  0  0  0  0
  1  4  1  0  0  0  0
  2 25  1  6  0  0  0
  2  7  1  0  0  0  0
  3  1  1  0  0  0  0
  3  4  1  0  0  0  0
  4  5  1  0  0  0  0
  4  2  1  0  0  0  0
  5  6  1  6  0  0  0
  5  8  1  0  0  0  0
  8  7  1  0  0  0  0
  9 15  1  0  0  0  0
 10 13  2  0  0  0  0
 12 11  1  1  0  0  0
 13 18  1  0  0  0  0
 14 13  1  0  0  0  0
 14  9  1  0  0  0  0
 15 12  1  0  0  0  0
 16 10  1  0  0  0  0
 17 12  1  0  0  0  0
 18  5  1  0  0  0  0
 18 17  2  0  0  0  0
 20 25  1  0  0  0  0
 22 20  1  0  0  0  0
 23 19  1  1  0  0  0
 23 21  1  0  0  0  0
 24 27  1  6  0  0  0
 24 23  1  0  0  0  0
 24 22  1  0  0  0  0
 25 26  2  0  0  0  0
 26 21  1  0  0  0  0
 28 34  1  0  0  0  0
 29 32  1  0  0  0  0
 30 32  1  0  0  0  0
 30 35  1  0  0  0  0
 31 27  1  0  0  0  0
 32 33  1  0  0  0  0
 33 31  1  0  0  0  0
 34 30  2  0  0  0  0
 35 31  2  0  0  0  0
M  END
>  <MODEL>
6

>  <REMARK>
 VINA RESULT:      -7.7      4.249      8.691
  Name = 
  4 active torsions:
  status: ('A' for Active; 'I' for Inactive)
    1  A    between atoms: C_2  and  C_31
    2  A    between atoms: C_14  and  C_30
    3  A    between atoms: C_17  and  O_19
    4  A    between atoms: O_19  and  C_29
                            x       y       z     vdW  Elec       q    Type
                         _______ _______ _______ _____ _____    ______ ____

>  <TORSDO>
F 4

$$$$
=
 OpenBabel11062420073D

 35 39  0  0  1  0  0  0  0  0999 V2000
  192.9510  173.7430  141.9300 C   0  0  0  0  0  2  0  0  0  0  0  0
  191.8330  173.6510  144.2520 C   0  0  2  0  0  3  0  0  0  0  0  0
  192.4420  175.1520  142.1840 C   0  0  0  0  0  2  0  0  0  0  0  0
  191.7050  173.9560  142.7700 C   0  0  0  0  0  0  0  0  0  0  0  0
  190.3280  173.5680  142.2130 C   0  0  2  0  0  0  0  0  0  0  0  0
  189.7010  174.6990  141.6760 O   0  0  0  0  0  1  0  0  0  0  0  0
  190.6120  172.7830  144.5240 C   0  0  0  0  0  2  0  0  0  0  0  0
  189.5690  173.1350  143.4620 C   0  0  0  0  0  2  0  0  0  0  0  0
  191.5690  171.3360  138.7730 C   0  0  0  0  0  2  0  0  0  0  0  0
  188.6200  173.3080  139.7000 C   0  0  0  0  0  3  0  0  0  0  0  0
  190.9490  168.7450  141.5770 C   0  0  0  0  0  1  0  0  0  0  0  0
  190.6410  169.9710  140.7440 C   0  0  2  0  0  3  0  0  0  0  0  0
  189.7180  172.5700  139.8580 C   0  0  0  0  0  0  0  0  0  0  0  0
  190.2730  171.9290  138.7400 O   0  0  0  0  0  0  0  0  0  0  0  0
  191.5740  170.0050  139.5310 C   0  0  0  0  0  2  0  0  0  0  0  0
  188.0290  173.4570  138.4500 O   0  0  0  0  0  1  0  0  0  0  0  0
  190.7410  171.1980  141.6040 C   0  0  0  0  0  3  0  0  0  0  0  0
  190.3280  172.4140  141.2100 C   0  0  0  0  0  0  0  0  0  0  0  0
  191.2390  177.5020  148.5920 O   0  0  0  0  0  1  0  0  0  0  0  0
  190.8470  175.9050  144.7660 O   0  0  0  0  0  0  0  0  0  0  0  0
  192.5170  176.0610  147.1900 C   0  0  0  0  0  2  0  0  0  0  0  0
  190.6520  177.0100  145.5130 O   0  0  0  0  0  0  0  0  0  0  0  0
  191.1390  176.3620  147.7910 C   0  0  2  0  0  3  0  0  0  0  0  0
  190.0690  176.5570  146.7030 C   0  0  1  0  0  3  0  0  0  0  0  0
  191.7520  174.8790  145.1100 C   0  0  0  0  0  0  0  0  0  0  0  0
  192.4990  174.9140  146.2220 C   0  0  0  0  0  3  0  0  0  0  0  0
  189.0360  177.4440  147.1160 O   0  0  0  0  0  0  0  0  0  0  0  0
  186.2260  176.2450  142.9780 N   0  0  0  0  0  1  0  0  0  0  0  0
  184.2300  178.4150  146.2150 C   0  0  0  0  0  1  0  0  0  0  0  0
  186.1350  177.0810  145.1710 C   0  0  0  0  0  0  0  0  0  0  0  0
  187.7620  177.4090  146.5490 C   0  0  0  0  0  0  0  0  0  0  0  0
  185.4970  177.7100  146.2680 N   0  0  0  0  0  0  0  0  0  0  0  0
  186.5520  177.9910  147.2260 C   0  0  0  0  0  2  0  0  0  0  0  0
  185.5340  176.8110  144.0550 N   0  0  0  0  0  0  0  0  0  0  0  0
  187.5230  176.8950  145.3830 N   0  0  0  0  0  0  0  0  0  0  0  0
  1  3  1  0  0  0  0
  1  4  1  0  0  0  0
  2  7  1  0  0  0  0
  2 25  1  1  0  0  0
  3  4  1  0  0  0  0
  4  2  1  0  0  0  0
  5  6  1  6  0  0  0
  5  4  1  0  0  0  0
  5  8  1  0  0  0  0
  8  7  1  0  0  0  0
  9 15  1  0  0  0  0
 10 13  2  0  0  0  0
 12 11  1  1  0  0  0
 12 17  1  0  0  0  0
 13 18  1  0  0  0  0
 14  9  1  0  0  0  0
 14 13  1  0  0  0  0
 15 12  1  0  0  0  0
 16 10  1  0  0  0  0
 18 17  2  0  0  0  0
 18  5  1  0  0  0  0
 20 25  1  0  0  0  0
 20 22  1  0  0  0  0
 21 23  1  0  0  0  0
 22 24  1  0  0  0  0
 23 19  1  6  0  0  0
 24 27  1  1  0  0  0
 24 23  1  0  0  0  0
 25 26  2  0  0  0  0
 26 21  1  0  0  0  0
 28 34  1  0  0  0  0
 29 32  1  0  0  0  0
 30 35  1  0  0  0  0
 30 32  1  0  0  0  0
 31 27  1  0  0  0  0
 31 33  1  0  0  0  0
 32 33  1  0  0  0  0
 34 30  2  0  0  0  0
 35 31  2  0  0  0  0
M  END
>  <MODEL>
7

>  <REMARK>
 VINA RESULT:      -7.7      3.235      5.572
  Name = 
  4 active torsions:
  status: ('A' for Active; 'I' for Inactive)
    1  A    between atoms: C_2  and  C_31
    2  A    between atoms: C_14  and  C_30
    3  A    between atoms: C_17  and  O_19
    4  A    between atoms: O_19  and  C_29
                            x       y       z     vdW  Elec       q    Type
                         _______ _______ _______ _____ _____    ______ ____

>  <TORSDO>
F 4

$$$$
=
 OpenBabel11062420073D

 35 39  0  0  1  0  0  0  0  0999 V2000
  188.8810  175.1860  147.2630 C   0  0  0  0  0  2  0  0  0  0  0  0
  191.0040  176.2000  146.2070 C   0  0  2  0  0  3  0  0  0  0  0  0
  189.3190  174.1850  146.2070 C   0  0  0  0  0  2  0  0  0  0  0  0
  189.5950  175.6700  146.0140 C   0  0  0  0  0  0  0  0  0  0  0  0
  188.8210  176.4490  144.9410 C   0  0  2  0  0  0  0  0  0  0  0  0
  188.4220  175.5790  143.9200 O   0  0  0  0  0  1  0  0  0  0  0  0
  190.9740  177.5200  145.4480 C   0  0  0  0  0  2  0  0  0  0  0  0
  189.8760  177.4010  144.3900 C   0  0  0  0  0  2  0  0  0  0  0  0
  184.7930  177.1980  146.1970 C   0  0  0  0  0  2  0  0  0  0  0  0
  186.8390  178.0640  143.2800 C   0  0  0  0  0  3  0  0  0  0  0  0
  187.0660  179.1850  148.6140 C   0  0  0  0  0  1  0  0  0  0  0  0
  186.6130  178.6670  147.2670 C   0  0  2  0  0  3  0  0  0  0  0  0
  186.5510  177.7120  144.5320 C   0  0  0  0  0  0  0  0  0  0  0  0
  185.2200  177.7860  144.9710 O   0  0  0  0  0  0  0  0  0  0  0  0
  185.2340  178.0180  147.4130 C   0  0  0  0  0  2  0  0  0  0  0  0
  185.8430  178.4900  142.4070 O   0  0  0  0  0  1  0  0  0  0  0  0
  187.6510  177.7320  146.7150 C   0  0  0  0  0  3  0  0  0  0  0  0
  187.6370  177.2690  145.4540 C   0  0  0  0  0  0  0  0  0  0  0  0
  195.6120  173.9760  143.4070 O   0  0  0  0  0  1  0  0  0  0  0  0
  191.6610  174.3140  144.6810 O   0  0  0  0  0  0  0  0  0  0  0  0
  194.4930  174.7890  145.3470 C   0  0  0  0  0  2  0  0  0  0  0  0
  192.5330  173.5210  144.0270 O   0  0  0  0  0  0  0  0  0  0  0  0
  194.5690  174.8100  143.8160 C   0  0  2  0  0  3  0  0  0  0  0  0
  193.2410  174.3740  143.1710 C   0  0  1  0  0  3  0  0  0  0  0  0
  192.0500  175.3160  145.5950 C   0  0  0  0  0  0  0  0  0  0  0  0
  193.3330  175.5700  145.8900 C   0  0  0  0  0  3  0  0  0  0  0  0
  193.4360  173.7520  141.9060 O   0  0  0  0  0  0  0  0  0  0  0  0
  188.5670  174.5390  140.4470 N   0  0  0  0  0  1  0  0  0  0  0  0
  190.4410  170.7570  139.2760 C   0  0  0  0  0  1  0  0  0  0  0  0
  190.4350  173.1380  140.1890 C   0  0  0  0  0  0  0  0  0  0  0  0
  192.3670  173.2930  141.1360 C   0  0  0  0  0  0  0  0  0  0  0  0
  191.0940  171.9610  139.7560 N   0  0  0  0  0  0  0  0  0  0  0  0
  192.4000  171.9870  140.3910 C   0  0  0  0  0  2  0  0  0  0  0  0
  189.1880  173.3900  139.9420 N   0  0  0  0  0  0  0  0  0  0  0  0
  191.2510  173.9430  141.0210 N   0  0  0  0  0  0  0  0  0  0  0  0
  2 25  1  6  0  0  0
  3  1  1  0  0  0  0
  4  3  1  0  0  0  0
  4  2  1  0  0  0  0
  4  1  1  0  0  0  0
  5  6  1  6  0  0  0
  5 18  1  0  0  0  0
  5  4  1  0  0  0  0
  7  2  1  0  0  0  0
  8  5  1  0  0  0  0
  8  7  1  0  0  0  0
  9 15  1  0  0  0  0
 10 13  2  0  0  0  0
 12 15  1  0  0  0  0
 12 11  1  1  0  0  0
 13 14  1  0  0  0  0
 13 18  1  0  0  0  0
 14  9  1  0  0  0  0
 16 10  1  0  0  0  0
 17 12  1  0  0  0  0
 18 17  2  0  0  0  0
 20 25  1  0  0  0  0
 21 26  1  0  0  0  0
 22 20  1  0  0  0  0
 23 19  1  1  0  0  0
 23 21  1  0  0  0  0
 24 27  1  6  0  0  0
 24 23  1  0  0  0  0
 24 22  1  0  0  0  0
 25 26  2  0  0  0  0
 29 32  1  0  0  0  0
 30 35  1  0  0  0  0
 31 27  1  0  0  0  0
 32 30  1  0  0  0  0
 32 33  1  0  0  0  0
 33 31  1  0  0  0  0
 34 30  2  0  0  0  0
 34 28  1  0  0  0  0
 35 31  2  0  0  0  0
M  END
>  <MODEL>
8

>  <REMARK>
 VINA RESULT:      -7.6      2.913      7.778
  Name = 
  4 active torsions:
  status: ('A' for Active; 'I' for Inactive)
    1  A    between atoms: C_2  and  C_31
    2  A    between atoms: C_14  and  C_30
    3  A    between atoms: C_17  and  O_19
    4  A    between atoms: O_19  and  C_29
                            x       y       z     vdW  Elec       q    Type
                         _______ _______ _______ _____ _____    ______ ____

>  <TORSDO>
F 4

$$$$
=
 OpenBabel11062420073D

 35 39  0  0  1  0  0  0  0  0999 V2000
  189.3240  174.7620  143.8750 C   0  0  0  0  0  2  0  0  0  0  0  0
  190.6340  174.9430  146.0900 C   0  0  2  0  0  3  0  0  0  0  0  0
  190.7340  175.1580  143.4730 C   0  0  0  0  0  2  0  0  0  0  0  0
  190.1650  175.6130  144.8100 C   0  0  0  0  0  0  0  0  0  0  0  0
  189.8180  177.0930  145.0200 C   0  0  2  0  0  0  0  0  0  0  0  0
  190.6170  177.8870  144.1890 O   0  0  0  0  0  1  0  0  0  0  0  0
  190.2720  175.9680  147.1570 C   0  0  0  0  0  2  0  0  0  0  0  0
  190.2290  177.3330  146.4680 C   0  0  0  0  0  2  0  0  0  0  0  0
  185.6520  176.3990  144.3030 C   0  0  0  0  0  2  0  0  0  0  0  0
  188.4010  177.9910  142.4740 C   0  0  0  0  0  3  0  0  0  0  0  0
  185.8380  178.9640  147.1910 C   0  0  0  0  0  1  0  0  0  0  0  0
  186.2290  178.3630  145.8580 C   0  0  2  0  0  3  0  0  0  0  0  0
  187.7080  177.5260  143.5110 C   0  0  0  0  0  0  0  0  0  0  0  0
  186.3750  177.1330  143.3190 O   0  0  0  0  0  0  0  0  0  0  0  0
  185.2140  177.2830  145.4750 C   0  0  0  0  0  2  0  0  0  0  0  0
  187.8270  178.0820  141.2100 O   0  0  0  0  0  1  0  0  0  0  0  0
  187.6390  177.8510  145.9340 C   0  0  0  0  0  3  0  0  0  0  0  0
  188.3400  177.4490  144.8610 C   0  0  0  0  0  0  0  0  0  0  0  0
  196.4050  175.0830  145.2630 O   0  0  0  0  0  1  0  0  0  0  0  0
  192.6260  173.4310  145.8420 O   0  0  0  0  0  0  0  0  0  0  0  0
  194.4030  175.7190  146.3870 C   0  0  0  0  0  2  0  0  0  0  0  0
  193.9430  173.1490  145.7760 O   0  0  0  0  0  0  0  0  0  0  0  0
  195.0250  175.1980  145.0860 C   0  0  2  0  0  3  0  0  0  0  0  0
  194.4180  173.8490  144.6600 C   0  0  1  0  0  3  0  0  0  0  0  0
  192.1160  174.7170  146.1210 C   0  0  0  0  0  0  0  0  0  0  0  0
  192.9050  175.7780  146.3420 C   0  0  0  0  0  3  0  0  0  0  0  0
  195.3420  173.0490  143.9320 O   0  0  0  0  0  0  0  0  0  0  0  0
  193.7510  168.1660  144.2200 N   0  0  0  0  0  1  0  0  0  0  0  0
  197.5020  169.1910  146.2350 C   0  0  0  0  0  1  0  0  0  0  0  0
  195.5430  169.6190  144.6600 C   0  0  0  0  0  0  0  0  0  0  0  0
  195.6580  171.7470  144.3210 C   0  0  0  0  0  0  0  0  0  0  0  0
  196.7930  169.9640  145.2320 N   0  0  0  0  0  0  0  0  0  0  0  0
  196.9170  171.4010  145.0660 C   0  0  0  0  0  2  0  0  0  0  0  0
  195.0190  168.4380  144.7480 N   0  0  0  0  0  0  0  0  0  0  0  0
  194.8790  170.7350  144.0930 N   0  0  0  0  0  0  0  0  0  0  0  0
  1  4  1  0  0  0  0
  2 25  1  6  0  0  0
  2  7  1  0  0  0  0
  3  1  1  0  0  0  0
  3  4  1  0  0  0  0
  4  5  1  0  0  0  0
  4  2  1  0  0  0  0
  5  6  1  6  0  0  0
  5  8  1  0  0  0  0
  8  7  1  0  0  0  0
  9 15  1  0  0  0  0
 10 13  2  0  0  0  0
 12 17  1  0  0  0  0
 12 11  1  1  0  0  0
 13 18  1  0  0  0  0
 14 13  1  0  0  0  0
 14  9  1  0  0  0  0
 15 12  1  0  0  0  0
 16 10  1  0  0  0  0
 18  5  1  0  0  0  0
 18 17  2  0  0  0  0
 20 25  1  0  0  0  0
 22 20  1  0  0  0  0
 23 19  1  1  0  0  0
 23 21  1  0  0  0  0
 24 27  1  1  0  0  0
 24 23  1  0  0  0  0
 24 22  1  0  0  0  0
 25 26  2  0  0  0  0
 26 21  1  0  0  0  0
 27 31  1  0  0  0  0
 28 34  1  0  0  0  0
 30 34  2  0  0  0  0
 30 32  1  0  0  0  0
 31 33  1  0  0  0  0
 32 29  1  0  0  0  0
 33 32  1  0  0  0  0
 35 31  2  0  0  0  0
 35 30  1  0  0  0  0
M  END
>  <MODEL>
9

>  <REMARK>
 VINA RESULT:      -7.6      5.176      9.590
  Name = 
  4 active torsions:
  status: ('A' for Active; 'I' for Inactive)
    1  A    between atoms: C_2  and  C_31
    2  A    between atoms: C_14  and  C_30
    3  A    between atoms: C_17  and  O_19
    4  A    between atoms: O_19  and  C_29
                            x       y       z     vdW  Elec       q    Type
                         _______ _______ _______ _____ _____    ______ ____

>  <TORSDO>
F 4

$$$$
