=
 OpenBabel11062419033D

 32 35  0  0  1  0  0  0  0  0999 V2000
  188.2690  176.2340  146.6450 C   0  0  1  0  0  3  0  0  0  0  0  0
  190.2890  177.1490  147.4300 O   0  0  0  0  0  1  0  0  0  0  0  0
  189.7740  177.0560  145.0880 C   0  0  1  0  0  3  0  0  0  0  0  0
  189.6010  175.6850  144.8670 O   0  0  0  0  0  0  0  0  0  0  0  0
  188.4200  175.3720  145.4740 N   0  0  0  0  0  2  0  0  0  0  0  0
  189.2760  177.3350  146.4840 C   0  0  1  0  0  3  0  0  0  0  0  0
  191.7860  176.6530  143.7070 C   0  0  1  0  0  3  0  0  0  0  0  0
  191.2250  177.4610  144.8580 C   0  0  1  0  0  3  0  0  0  0  0  0
  191.3690  178.0930  143.4880 C   0  0  0  0  0  2  0  0  0  0  0  0
  197.2690  174.1640  145.3150 C   0  0  0  0  0  2  0  0  0  0  0  0
  193.7000  173.3810  145.7520 C   0  0  0  0  0  2  0  0  0  0  0  0
  195.1880  172.7360  143.9720 O   0  0  0  0  0  0  0  0  0  0  0  0
  197.0750  172.6660  145.5170 C   0  0  0  0  0  2  0  0  0  0  0  0
  194.1270  172.2900  144.7700 C   0  0  0  0  0  2  0  0  0  0  0  0
  195.3700  175.5570  144.6160 C   0  0  0  0  0  0  0  0  0  0  0  0
  193.1840  174.5570  145.0540 N   0  0  0  0  0  0  0  0  0  0  0  0
  196.0240  176.2340  143.7760 O   0  0  0  0  0  0  0  0  0  0  0  0
  196.3170  171.9990  144.3620 C   0  0  0  0  0  2  0  0  0  0  0  0
  193.2330  176.5820  143.8360 N   0  0  0  0  0  2  0  0  0  0  0  0
  196.0440  174.8250  145.5930 O   0  0  0  0  0  0  0  0  0  0  0  0
  193.8940  175.5280  144.5420 C   0  0  0  0  0  0  0  0  0  0  0  0
  186.7510  177.7650  147.6960 O   0  0  0  0  0  1  0  0  0  0  0  0
  186.8470  176.7940  146.6980 C   0  0  1  0  0  3  0  0  0  0  0  0
  186.4510  178.6630  145.1870 N   0  0  0  0  0  0  0  0  0  0  0  0
  184.7320  179.7880  143.8910 C   0  0  0  0  0  1  0  0  0  0  0  0
  186.4530  177.3920  145.3870 C   0  0  0  0  0  0  0  0  0  0  0  0
  186.0040  176.6190  144.2880 N   0  0  0  0  0  2  0  0  0  0  0  0
  185.9910  178.9440  143.8350 C   0  0  2  0  0  3  0  0  0  0  0  0
  185.6670  177.5670  143.2380 C   0  0  1  0  0  3  0  0  0  0  0  0
  185.7710  177.8020  140.8030 N   0  0  0  0  0  1  0  0  0  0  0  0
  187.8820  177.8140  142.0120 C   0  0  0  0  0  1  0  0  0  0  0  0
  186.4630  177.2690  141.9640 C   0  0  1  0  0  3  0  0  0  0  0  0
  1 23  1  6  0  0  0
  3  4  1  1  0  0  0
  3  6  1  0  0  0  0
  4  5  1  0  0  0  0
  5  1  1  0  0  0  0
  6  1  1  0  0  0  0
  6  2  1  1  0  0  0
  7 19  1  1  0  0  0
  7  8  1  0  0  0  0
  8  9  1  6  0  0  0
  8  3  1  0  0  0  0
  9  7  1  0  0  0  0
 10 13  1  0  0  0  0
 10 20  1  0  0  0  0
 12 18  1  0  0  0  0
 12 14  1  0  0  0  0
 14 11  1  0  0  0  0
 15 20  1  0  0  0  0
 16 11  1  0  0  0  0
 17 15  2  0  0  0  0
 18 13  1  0  0  0  0
 19 21  1  0  0  0  0
 21 15  1  0  0  0  0
 21 16  2  0  0  0  0
 23 22  1  1  0  0  0
 24 26  2  0  0  0  0
 26 23  1  0  0  0  0
 27 26  1  0  0  0  0
 28 25  1  1  0  0  0
 28 24  1  0  0  0  0
 29 32  1  6  0  0  0
 29 28  1  0  0  0  0
 29 27  1  0  0  0  0
 30 32  1  0  0  0  0
 32 31  1  1  0  0  0
M  END
>  <MODEL>
1

>  <REMARK>
 VINA RESULT:      -7.5      0.000      0.000
  Name = 
  5 active torsions:
  status: ('A' for Active; 'I' for Inactive)
    1  A    between atoms: C_1  and  C_25
    2  A    between atoms: C_13  and  N_22
    3  A    between atoms: C_14  and  C_15
    4  A    between atoms: C_16  and  C_25
    5  A    between atoms: C_27  and  C_31
                            x       y       z     vdW  Elec       q    Type
                         _______ _______ _______ _____ _____    ______ ____

>  <TORSDO>
F 5

$$$$
=
 OpenBabel11062419033D

 32 35  0  0  1  0  0  0  0  0999 V2000
  189.1880  176.2630  144.8740 C   0  0  1  0  0  3  0  0  0  0  0  0
  190.5170  174.3360  145.1070 O   0  0  0  0  0  1  0  0  0  0  0  0
  191.2330  176.4690  145.9420 C   0  0  1  0  0  3  0  0  0  0  0  0
  191.2460  177.2600  144.7880 O   0  0  0  0  0  0  0  0  0  0  0  0
  189.9320  177.4560  144.4750 N   0  0  0  0  0  2  0  0  0  0  0  0
  190.0990  175.4870  145.7800 C   0  0  1  0  0  3  0  0  0  0  0  0
  193.6700  176.7110  145.5950 C   0  0  1  0  0  3  0  0  0  0  0  0
  192.5900  175.8120  146.1610 C   0  0  1  0  0  3  0  0  0  0  0  0
  193.4290  176.6680  147.0900 C   0  0  0  0  0  2  0  0  0  0  0  0
  197.6540  173.6440  141.9120 C   0  0  0  0  0  2  0  0  0  0  0  0
  194.4460  175.4130  141.5620 C   0  0  0  0  0  2  0  0  0  0  0  0
  196.6850  176.2810  141.3860 O   0  0  0  0  0  0  0  0  0  0  0  0
  197.4840  174.1590  140.4870 C   0  0  0  0  0  2  0  0  0  0  0  0
  195.3960  176.3730  140.8460 C   0  0  0  0  0  2  0  0  0  0  0  0
  196.3130  174.6130  143.7280 C   0  0  0  0  0  0  0  0  0  0  0  0
  194.2940  175.7640  142.9730 N   0  0  0  0  0  0  0  0  0  0  0  0
  197.2620  174.6720  144.5560 O   0  0  0  0  0  0  0  0  0  0  0  0
  197.4890  175.6900  140.4000 C   0  0  0  0  0  2  0  0  0  0  0  0
  194.8370  175.9060  145.2680 N   0  0  0  0  0  2  0  0  0  0  0  0
  196.4240  173.7970  142.6030 O   0  0  0  0  0  0  0  0  0  0  0  0
  195.1000  175.4290  143.9460 C   0  0  0  0  0  0  0  0  0  0  0  0
  188.2050  177.5240  146.6620 O   0  0  0  0  0  1  0  0  0  0  0  0
  187.9050  176.6680  145.6010 C   0  0  1  0  0  3  0  0  0  0  0  0
  186.4430  178.5000  144.9370 N   0  0  0  0  0  0  0  0  0  0  0  0
  184.1340  179.0640  144.4390 C   0  0  0  0  0  1  0  0  0  0  0  0
  186.9500  177.3470  144.6730 C   0  0  0  0  0  0  0  0  0  0  0  0
  186.4930  176.7600  143.4690 N   0  0  0  0  0  2  0  0  0  0  0  0
  185.5290  178.8860  143.8720 C   0  0  2  0  0  3  0  0  0  0  0  0
  185.5450  177.7020  142.8940 C   0  0  1  0  0  3  0  0  0  0  0  0
  186.9560  177.1670  140.9670 N   0  0  0  0  0  1  0  0  0  0  0  0
  184.8000  178.1990  140.5140 C   0  0  0  0  0  1  0  0  0  0  0  0
  185.9710  178.1040  141.4790 C   0  0  1  0  0  3  0  0  0  0  0  0
  1 23  1  1  0  0  0
  1  6  1  0  0  0  0
  3  4  1  6  0  0  0
  3  8  1  0  0  0  0
  5  4  1  0  0  0  0
  5  1  1  0  0  0  0
  6  2  1  6  0  0  0
  6  3  1  0  0  0  0
  7 19  1  1  0  0  0
  7  8  1  0  0  0  0
  7  9  1  0  0  0  0
  8  9  1  1  0  0  0
 10 20  1  0  0  0  0
 11 16  1  0  0  0  0
 13 10  1  0  0  0  0
 14 12  1  0  0  0  0
 14 11  1  0  0  0  0
 15 21  1  0  0  0  0
 15 17  2  0  0  0  0
 16 21  2  0  0  0  0
 18 13  1  0  0  0  0
 18 12  1  0  0  0  0
 20 15  1  0  0  0  0
 21 19  1  0  0  0  0
 23 22  1  1  0  0  0
 26 24  2  0  0  0  0
 26 23  1  0  0  0  0
 27 26  1  0  0  0  0
 28 25  1  1  0  0  0
 28 24  1  0  0  0  0
 29 32  1  6  0  0  0
 29 27  1  0  0  0  0
 29 28  1  0  0  0  0
 30 32  1  0  0  0  0
 32 31  1  6  0  0  0
M  END
>  <MODEL>
2

>  <REMARK>
 VINA RESULT:      -7.4      2.200      2.923
  Name = 
  5 active torsions:
  status: ('A' for Active; 'I' for Inactive)
    1  A    between atoms: C_1  and  C_25
    2  A    between atoms: C_13  and  N_22
    3  A    between atoms: C_14  and  C_15
    4  A    between atoms: C_16  and  C_25
    5  A    between atoms: C_27  and  C_31
                            x       y       z     vdW  Elec       q    Type
                         _______ _______ _______ _____ _____    ______ ____

>  <TORSDO>
F 5

$$$$
=
 OpenBabel11062419033D

 32 35  0  0  1  0  0  0  0  0999 V2000
  192.8920  176.0130  143.5200 C   0  0  1  0  0  3  0  0  0  0  0  0
  191.6170  177.7790  144.4100 O   0  0  0  0  0  1  0  0  0  0  0  0
  191.7460  175.6440  145.4990 C   0  0  1  0  0  3  0  0  0  0  0  0
  191.2510  174.7720  144.5230 O   0  0  0  0  0  0  0  0  0  0  0  0
  192.2270  174.7130  143.5700 N   0  0  0  0  0  2  0  0  0  0  0  0
  192.4810  176.7390  144.7670 C   0  0  1  0  0  3  0  0  0  0  0  0
  189.4770  175.1560  146.3530 C   0  0  1  0  0  3  0  0  0  0  0  0
  190.6200  176.1480  146.3930 C   0  0  1  0  0  3  0  0  0  0  0  0
  190.4110  175.1850  147.5450 C   0  0  0  0  0  2  0  0  0  0  0  0
  184.6170  178.9540  145.4640 C   0  0  0  0  0  2  0  0  0  0  0  0
  187.7030  178.0330  143.6840 C   0  0  0  0  0  2  0  0  0  0  0  0
  185.5190  177.0270  143.5550 O   0  0  0  0  0  0  0  0  0  0  0  0
  184.4540  179.1820  143.9650 C   0  0  0  0  0  2  0  0  0  0  0  0
  186.6420  177.3820  142.7970 C   0  0  0  0  0  2  0  0  0  0  0  0
  186.3900  177.4660  146.2860 C   0  0  0  0  0  0  0  0  0  0  0  0
  188.2040  177.0990  144.6910 N   0  0  0  0  0  0  0  0  0  0  0  0
  185.6720  176.8960  147.1520 O   0  0  0  0  0  0  0  0  0  0  0  0
  184.4800  177.8800  143.1560 C   0  0  0  0  0  2  0  0  0  0  0  0
  188.2390  175.8410  146.6910 N   0  0  0  0  0  2  0  0  0  0  0  0
  185.9830  178.6820  145.7390 O   0  0  0  0  0  0  0  0  0  0  0  0
  187.6470  176.8280  145.8420 C   0  0  0  0  0  0  0  0  0  0  0  0
  195.0310  176.6900  144.3670 O   0  0  0  0  0  1  0  0  0  0  0  0
  194.4080  175.8200  143.4710 C   0  0  1  0  0  3  0  0  0  0  0  0
  194.9560  173.5170  142.8980 N   0  0  0  0  0  0  0  0  0  0  0  0
  194.2230  171.2170  143.1670 C   0  0  0  0  0  1  0  0  0  0  0  0
  194.7840  174.4130  143.8050 C   0  0  0  0  0  0  0  0  0  0  0  0
  194.9300  173.9450  145.1340 N   0  0  0  0  0  2  0  0  0  0  0  0
  195.2800  172.2440  143.5240 C   0  0  2  0  0  3  0  0  0  0  0  0
  195.2390  172.5280  145.0330 C   0  0  1  0  0  3  0  0  0  0  0  0
  197.5480  171.7620  144.7660 N   0  0  0  0  0  1  0  0  0  0  0  0
  197.1140  173.3930  146.5180 C   0  0  0  0  0  1  0  0  0  0  0  0
  196.5630  172.2110  145.7340 C   0  0  1  0  0  3  0  0  0  0  0  0
  1 23  1  1  0  0  0
  1  5  1  0  0  0  0
  1  6  1  0  0  0  0
  3  4  1  6  0  0  0
  3  8  1  0  0  0  0
  5  4  1  0  0  0  0
  6  2  1  6  0  0  0
  6  3  1  0  0  0  0
  7  8  1  0  0  0  0
  7 19  1  1  0  0  0
  7  9  1  0  0  0  0
  8  9  1  1  0  0  0
 10 20  1  0  0  0  0
 11 16  1  0  0  0  0
 13 10  1  0  0  0  0
 14 12  1  0  0  0  0
 14 11  1  0  0  0  0
 15 17  2  0  0  0  0
 16 21  2  0  0  0  0
 18 12  1  0  0  0  0
 18 13  1  0  0  0  0
 20 15  1  0  0  0  0
 21 15  1  0  0  0  0
 21 19  1  0  0  0  0
 23 26  1  0  0  0  0
 23 22  1  1  0  0  0
 24 28  1  0  0  0  0
 24 26  2  0  0  0  0
 26 27  1  0  0  0  0
 28 25  1  1  0  0  0
 28 29  1  0  0  0  0
 29 27  1  0  0  0  0
 29 32  1  6  0  0  0
 30 32  1  0  0  0  0
 32 31  1  6  0  0  0
M  END
>  <MODEL>
3

>  <REMARK>
 VINA RESULT:      -7.2      2.029      9.147
  Name = 
  5 active torsions:
  status: ('A' for Active; 'I' for Inactive)
    1  A    between atoms: C_1  and  C_25
    2  A    between atoms: C_13  and  N_22
    3  A    between atoms: C_14  and  C_15
    4  A    between atoms: C_16  and  C_25
    5  A    between atoms: C_27  and  C_31
                            x       y       z     vdW  Elec       q    Type
                         _______ _______ _______ _____ _____    ______ ____

>  <TORSDO>
F 5

$$$$
=
 OpenBabel11062419033D

 32 35  0  0  1  0  0  0  0  0999 V2000
  193.1680  175.9340  143.5700 C   0  0  1  0  0  3  0  0  0  0  0  0
  191.9280  177.7610  144.3810 O   0  0  0  0  0  1  0  0  0  0  0  0
  191.9800  175.6600  145.5400 C   0  0  1  0  0  3  0  0  0  0  0  0
  191.4780  174.7710  144.5830 O   0  0  0  0  0  0  0  0  0  0  0  0
  192.4670  174.6540  143.6500 N   0  0  0  0  0  2  0  0  0  0  0  0
  192.7570  176.7110  144.7860 C   0  0  1  0  0  3  0  0  0  0  0  0
  189.7280  175.2110  146.4590 C   0  0  1  0  0  3  0  0  0  0  0  0
  190.8530  176.2220  146.3970 C   0  0  1  0  0  3  0  0  0  0  0  0
  190.6730  175.3630  147.6330 C   0  0  0  0  0  2  0  0  0  0  0  0
  184.8340  178.8950  145.3130 C   0  0  0  0  0  2  0  0  0  0  0  0
  187.9400  177.9010  143.6090 C   0  0  0  0  0  2  0  0  0  0  0  0
  185.7680  176.8650  143.5300 O   0  0  0  0  0  0  0  0  0  0  0  0
  184.6780  179.0300  143.8020 C   0  0  0  0  0  2  0  0  0  0  0  0
  186.8910  177.1850  142.7580 C   0  0  0  0  0  2  0  0  0  0  0  0
  186.6180  177.4800  146.2330 C   0  0  0  0  0  0  0  0  0  0  0  0
  188.4450  177.0350  144.6740 N   0  0  0  0  0  0  0  0  0  0  0  0
  185.9010  176.9560  147.1290 O   0  0  0  0  0  0  0  0  0  0  0  0
  184.7230  177.6810  143.0740 C   0  0  0  0  0  2  0  0  0  0  0  0
  188.4810  175.9020  146.7470 N   0  0  0  0  0  2  0  0  0  0  0  0
  186.2010  178.6560  145.6110 O   0  0  0  0  0  0  0  0  0  0  0  0
  187.8840  176.8290  145.8360 C   0  0  0  0  0  0  0  0  0  0  0  0
  195.3170  176.6220  144.3840 O   0  0  0  0  0  1  0  0  0  0  0  0
  194.6790  175.6990  143.5540 C   0  0  1  0  0  3  0  0  0  0  0  0
  195.1720  174.0180  145.2470 N   0  0  0  0  0  0  0  0  0  0  0  0
  196.8880  172.4850  146.0250 C   0  0  0  0  0  1  0  0  0  0  0  0
  195.0150  174.3150  144.0050 C   0  0  0  0  0  0  0  0  0  0  0  0
  195.2360  173.2410  143.1080 N   0  0  0  0  0  2  0  0  0  0  0  0
  195.5250  172.6120  145.3730 C   0  0  2  0  0  3  0  0  0  0  0  0
  195.5910  172.0940  143.9280 C   0  0  1  0  0  3  0  0  0  0  0  0
  193.8110  170.6840  144.8420 N   0  0  0  0  0  1  0  0  0  0  0  0
  193.7460  171.1480  142.4540 C   0  0  0  0  0  1  0  0  0  0  0  0
  194.6340  170.9270  143.6700 C   0  0  1  0  0  3  0  0  0  0  0  0
  1 23  1  1  0  0  0
  1  5  1  0  0  0  0
  1  6  1  0  0  0  0
  3  4  1  6  0  0  0
  3  8  1  0  0  0  0
  5  4  1  0  0  0  0
  6  2  1  6  0  0  0
  6  3  1  0  0  0  0
  7 19  1  1  0  0  0
  7  9  1  0  0  0  0
  8  7  1  0  0  0  0
  8  9  1  1  0  0  0
 10 20  1  0  0  0  0
 11 16  1  0  0  0  0
 13 10  1  0  0  0  0
 14 12  1  0  0  0  0
 14 11  1  0  0  0  0
 15 17  2  0  0  0  0
 16 21  2  0  0  0  0
 18 12  1  0  0  0  0
 18 13  1  0  0  0  0
 20 15  1  0  0  0  0
 21 15  1  0  0  0  0
 21 19  1  0  0  0  0
 23 26  1  0  0  0  0
 23 22  1  1  0  0  0
 24 28  1  0  0  0  0
 26 24  2  0  0  0  0
 27 29  1  0  0  0  0
 27 26  1  0  0  0  0
 28 25  1  6  0  0  0
 29 32  1  1  0  0  0
 29 28  1  0  0  0  0
 32 31  1  6  0  0  0
 32 30  1  0  0  0  0
M  END
>  <MODEL>
4

>  <REMARK>
 VINA RESULT:      -7.1      1.985      8.942
  Name = 
  5 active torsions:
  status: ('A' for Active; 'I' for Inactive)
    1  A    between atoms: C_1  and  C_25
    2  A    between atoms: C_13  and  N_22
    3  A    between atoms: C_14  and  C_15
    4  A    between atoms: C_16  and  C_25
    5  A    between atoms: C_27  and  C_31
                            x       y       z     vdW  Elec       q    Type
                         _______ _______ _______ _____ _____    ______ ____

>  <TORSDO>
F 5

$$$$
=
 OpenBabel11062419033D

 32 35  0  0  1  0  0  0  0  0999 V2000
  187.7860  177.3590  141.6270 C   0  0  1  0  0  3  0  0  0  0  0  0
  188.1340  175.2220  140.7040 O   0  0  0  0  0  1  0  0  0  0  0  0
  189.1620  175.8860  142.7690 C   0  0  1  0  0  3  0  0  0  0  0  0
  189.9140  177.0050  142.3910 O   0  0  0  0  0  0  0  0  0  0  0  0
  188.9970  177.9870  142.1510 N   0  0  0  0  0  2  0  0  0  0  0  0
  187.9200  175.8910  141.9130 C   0  0  1  0  0  3  0  0  0  0  0  0
  191.0600  174.6160  143.7180 C   0  0  1  0  0  3  0  0  0  0  0  0
  189.9900  174.6130  142.6470 C   0  0  1  0  0  3  0  0  0  0  0  0
  189.8170  173.7690  143.8940 C   0  0  0  0  0  2  0  0  0  0  0  0
  196.9970  172.7890  143.2100 C   0  0  0  0  0  2  0  0  0  0  0  0
  195.1480  175.6510  144.5990 C   0  0  0  0  0  2  0  0  0  0  0  0
  195.7650  173.5820  145.6650 O   0  0  0  0  0  0  0  0  0  0  0  0
  197.7990  173.4490  144.3260 C   0  0  0  0  0  2  0  0  0  0  0  0
  195.6290  174.9600  145.8750 C   0  0  0  0  0  2  0  0  0  0  0  0
  194.5780  173.1830  143.0500 C   0  0  0  0  0  0  0  0  0  0  0  0
  193.8140  175.1920  144.2130 N   0  0  0  0  0  0  0  0  0  0  0  0
  194.2800  171.9840  142.7980 O   0  0  0  0  0  0  0  0  0  0  0  0
  197.1400  173.3050  145.7030 C   0  0  0  0  0  2  0  0  0  0  0  0
  192.1650  173.7730  143.2900 N   0  0  0  0  0  2  0  0  0  0  0  0
  195.8920  173.6200  142.8890 O   0  0  0  0  0  0  0  0  0  0  0  0
  193.5340  174.1100  143.5350 C   0  0  0  0  0  0  0  0  0  0  0  0
  185.3920  177.4110  141.7620 O   0  0  0  0  0  1  0  0  0  0  0  0
  186.5550  177.9430  142.3200 C   0  0  1  0  0  3  0  0  0  0  0  0
  185.7310  176.8580  144.3400 N   0  0  0  0  0  0  0  0  0  0  0  0
  184.7450  177.2900  146.5170 C   0  0  0  0  0  1  0  0  0  0  0  0
  186.5740  177.6580  143.7870 C   0  0  0  0  0  0  0  0  0  0  0  0
  187.4790  178.2760  144.6840 N   0  0  0  0  0  2  0  0  0  0  0  0
  185.9750  176.8070  145.7740 C   0  0  2  0  0  3  0  0  0  0  0  0
  187.1390  177.7820  146.0080 C   0  0  1  0  0  3  0  0  0  0  0  0
  188.2200  175.6700  146.6090 N   0  0  0  0  0  1  0  0  0  0  0  0
  189.6700  177.5370  146.0370 C   0  0  0  0  0  1  0  0  0  0  0  0
  188.3510  177.1150  146.6650 C   0  0  1  0  0  3  0  0  0  0  0  0
  1  6  1  0  0  0  0
  1  5  1  0  0  0  0
  1 23  1  1  0  0  0
  3  4  1  6  0  0  0
  5  4  1  0  0  0  0
  6  2  1  6  0  0  0
  6  3  1  0  0  0  0
  7 19  1  6  0  0  0
  7  9  1  0  0  0  0
  8  3  1  0  0  0  0
  8  7  1  0  0  0  0
  8  9  1  1  0  0  0
 10 13  1  0  0  0  0
 11 14  1  0  0  0  0
 12 18  1  0  0  0  0
 12 14  1  0  0  0  0
 13 18  1  0  0  0  0
 15 21  1  0  0  0  0
 16 11  1  0  0  0  0
 17 15  2  0  0  0  0
 19 21  1  0  0  0  0
 20 15  1  0  0  0  0
 20 10  1  0  0  0  0
 21 16  2  0  0  0  0
 23 22  1  6  0  0  0
 23 26  1  0  0  0  0
 24 28  1  0  0  0  0
 26 24  2  0  0  0  0
 26 27  1  0  0  0  0
 27 29  1  0  0  0  0
 28 29  1  0  0  0  0
 28 25  1  1  0  0  0
 29 32  1  6  0  0  0
 30 32  1  0  0  0  0
 32 31  1  6  0  0  0
M  END
>  <MODEL>
5

>  <REMARK>
 VINA RESULT:      -7.0      2.174      3.789
  Name = 
  5 active torsions:
  status: ('A' for Active; 'I' for Inactive)
    1  A    between atoms: C_1  and  C_25
    2  A    between atoms: C_13  and  N_22
    3  A    between atoms: C_14  and  C_15
    4  A    between atoms: C_16  and  C_25
    5  A    between atoms: C_27  and  C_31
                            x       y       z     vdW  Elec       q    Type
                         _______ _______ _______ _____ _____    ______ ____

>  <TORSDO>
F 5

$$$$
=
 OpenBabel11062419033D

 32 35  0  0  1  0  0  0  0  0999 V2000
  190.1030  176.5670  143.9850 C   0  0  1  0  0  3  0  0  0  0  0  0
  190.7930  175.5780  146.0050 O   0  0  0  0  0  1  0  0  0  0  0  0
  192.3020  176.8630  144.6510 C   0  0  1  0  0  3  0  0  0  0  0  0
  192.2880  176.1700  143.4360 O   0  0  0  0  0  0  0  0  0  0  0  0
  191.0620  176.4250  142.8920 N   0  0  0  0  0  2  0  0  0  0  0  0
  190.9160  176.7390  145.2350 C   0  0  1  0  0  3  0  0  0  0  0  0
  194.6750  176.1760  144.7530 C   0  0  1  0  0  3  0  0  0  0  0  0
  193.4040  176.3370  145.5610 C   0  0  1  0  0  3  0  0  0  0  0  0
  194.5100  177.3670  145.6740 C   0  0  0  0  0  2  0  0  0  0  0  0
  197.1910  170.5500  145.6870 C   0  0  0  0  0  2  0  0  0  0  0  0
  194.5930  172.0410  143.5490 C   0  0  0  0  0  2  0  0  0  0  0  0
  196.9500  171.7970  143.1260 O   0  0  0  0  0  0  0  0  0  0  0  0
  197.0130  169.7280  144.4160 C   0  0  0  0  0  2  0  0  0  0  0  0
  195.6870  171.7420  142.5240 C   0  0  0  0  0  2  0  0  0  0  0  0
  196.3910  172.8720  145.7600 C   0  0  0  0  0  0  0  0  0  0  0  0
  194.7060  173.4010  144.0720 N   0  0  0  0  0  0  0  0  0  0  0  0
  197.4060  173.3270  146.3550 O   0  0  0  0  0  0  0  0  0  0  0  0
  197.4390  170.4830  143.1510 C   0  0  0  0  0  2  0  0  0  0  0  0
  195.5230  175.1820  145.3930 N   0  0  0  0  0  2  0  0  0  0  0  0
  196.1390  171.5010  145.7670 O   0  0  0  0  0  0  0  0  0  0  0  0
  195.4900  173.7960  145.0410 C   0  0  0  0  0  0  0  0  0  0  0  0
  188.8950  177.8820  142.3830 O   0  0  0  0  0  1  0  0  0  0  0  0
  189.2110  177.7850  143.7390 C   0  0  1  0  0  3  0  0  0  0  0  0
  187.9410  177.8110  145.8180 N   0  0  0  0  0  0  0  0  0  0  0  0
  186.5140  176.4590  147.2440 C   0  0  0  0  0  1  0  0  0  0  0  0
  187.9500  177.7010  144.5360 C   0  0  0  0  0  0  0  0  0  0  0  0
  186.6840  177.4440  143.9550 N   0  0  0  0  0  2  0  0  0  0  0  0
  186.5820  177.6540  146.3130 C   0  0  2  0  0  3  0  0  0  0  0  0
  185.7380  177.3820  145.0580 C   0  0  1  0  0  3  0  0  0  0  0  0
  183.9490  178.6630  146.1300 N   0  0  0  0  0  1  0  0  0  0  0  0
  185.1020  179.7130  144.2630 C   0  0  0  0  0  1  0  0  0  0  0  0
  184.6140  178.4040  144.8650 C   0  0  1  0  0  3  0  0  0  0  0  0
  1 23  1  6  0  0  0
  1  6  1  0  0  0  0
  3  4  1  6  0  0  0
  3  6  1  0  0  0  0
  3  8  1  0  0  0  0
  5  4  1  0  0  0  0
  5  1  1  0  0  0  0
  6  2  1  1  0  0  0
  7 19  1  1  0  0  0
  7  8  1  0  0  0  0
  7  9  1  0  0  0  0
  8  9  1  1  0  0  0
 10 20  1  0  0  0  0
 11 16  1  0  0  0  0
 12 18  1  0  0  0  0
 13 10  1  0  0  0  0
 14 12  1  0  0  0  0
 14 11  1  0  0  0  0
 15 20  1  0  0  0  0
 15 17  2  0  0  0  0
 16 21  2  0  0  0  0
 18 13  1  0  0  0  0
 21 19  1  0  0  0  0
 21 15  1  0  0  0  0
 23 22  1  6  0  0  0
 23 26  1  0  0  0  0
 24 28  1  0  0  0  0
 26 24  2  0  0  0  0
 27 26  1  0  0  0  0
 27 29  1  0  0  0  0
 28 25  1  1  0  0  0
 29 32  1  6  0  0  0
 29 28  1  0  0  0  0
 32 31  1  1  0  0  0
 32 30  1  0  0  0  0
M  END
>  <MODEL>
6

>  <REMARK>
 VINA RESULT:      -7.0      2.058      3.272
  Name = 
  5 active torsions:
  status: ('A' for Active; 'I' for Inactive)
    1  A    between atoms: C_1  and  C_25
    2  A    between atoms: C_13  and  N_22
    3  A    between atoms: C_14  and  C_15
    4  A    between atoms: C_16  and  C_25
    5  A    between atoms: C_27  and  C_31
                            x       y       z     vdW  Elec       q    Type
                         _______ _______ _______ _____ _____    ______ ____

>  <TORSDO>
F 5

$$$$
=
 OpenBabel11062419033D

 32 35  0  0  1  0  0  0  0  0999 V2000
  189.7220  175.9490  144.9130 C   0  0  1  0  0  3  0  0  0  0  0  0
  191.1490  174.1230  145.3190 O   0  0  0  0  0  1  0  0  0  0  0  0
  191.7130  176.3460  146.0290 C   0  0  1  0  0  3  0  0  0  0  0  0
  191.7210  177.0580  144.8240 O   0  0  0  0  0  0  0  0  0  0  0  0
  190.4100  177.1550  144.4570 N   0  0  0  0  0  2  0  0  0  0  0  0
  190.6420  175.2910  145.8980 C   0  0  1  0  0  3  0  0  0  0  0  0
  194.1130  176.4700  145.4450 C   0  0  1  0  0  3  0  0  0  0  0  0
  193.0960  175.7860  146.3350 C   0  0  1  0  0  3  0  0  0  0  0  0
  193.9790  176.8830  146.8960 C   0  0  0  0  0  2  0  0  0  0  0  0
  197.9340  172.4870  142.5500 C   0  0  0  0  0  2  0  0  0  0  0  0
  194.6870  174.0930  141.8990 C   0  0  0  0  0  2  0  0  0  0  0  0
  196.9000  174.8730  141.3620 O   0  0  0  0  0  0  0  0  0  0  0  0
  197.6790  172.5830  141.0500 C   0  0  0  0  0  2  0  0  0  0  0  0
  195.5830  174.8130  140.8910 C   0  0  0  0  0  2  0  0  0  0  0  0
  196.6790  173.9280  144.0940 C   0  0  0  0  0  0  0  0  0  0  0  0
  194.6070  174.8250  143.1620 N   0  0  0  0  0  0  0  0  0  0  0  0
  197.6710  174.2150  144.8190 O   0  0  0  0  0  0  0  0  0  0  0  0
  197.6580  174.0280  140.5380 C   0  0  0  0  0  2  0  0  0  0  0  0
  195.2710  175.6040  145.2920 N   0  0  0  0  0  2  0  0  0  0  0  0
  196.7400  172.8300  143.2380 O   0  0  0  0  0  0  0  0  0  0  0  0
  195.4690  174.7750  144.1430 C   0  0  0  0  0  0  0  0  0  0  0  0
  188.6150  177.1950  146.6380 O   0  0  0  0  0  1  0  0  0  0  0  0
  188.3930  176.3260  145.5690 C   0  0  1  0  0  3  0  0  0  0  0  0
  187.0690  176.3710  143.5250 N   0  0  0  0  0  0  0  0  0  0  0  0
  186.8280  177.4990  141.3870 C   0  0  0  0  0  1  0  0  0  0  0  0
  187.4710  176.9740  144.5880 C   0  0  0  0  0  0  0  0  0  0  0  0
  187.0110  178.3070  144.7230 N   0  0  0  0  0  2  0  0  0  0  0  0
  186.2130  177.2600  142.7530 C   0  0  2  0  0  3  0  0  0  0  0  0
  186.1940  178.5740  143.5490 C   0  0  1  0  0  3  0  0  0  0  0  0
  183.7950  178.3210  143.1370 N   0  0  0  0  0  1  0  0  0  0  0  0
  184.4900  178.7450  145.4300 C   0  0  0  0  0  1  0  0  0  0  0  0
  184.7820  179.0000  143.9590 C   0  0  1  0  0  3  0  0  0  0  0  0
  1 23  1  1  0  0  0
  1  6  1  0  0  0  0
  3  4  1  6  0  0  0
  3  8  1  0  0  0  0
  5  4  1  0  0  0  0
  5  1  1  0  0  0  0
  6  2  1  6  0  0  0
  6  3  1  0  0  0  0
  7 19  1  1  0  0  0
  7  8  1  0  0  0  0
  7  9  1  0  0  0  0
  8  9  1  1  0  0  0
 10 20  1  0  0  0  0
 11 16  1  0  0  0  0
 13 10  1  0  0  0  0
 14 12  1  0  0  0  0
 14 11  1  0  0  0  0
 15 21  1  0  0  0  0
 15 17  2  0  0  0  0
 16 21  2  0  0  0  0
 18 13  1  0  0  0  0
 18 12  1  0  0  0  0
 20 15  1  0  0  0  0
 21 19  1  0  0  0  0
 23 22  1  1  0  0  0
 24 26  2  0  0  0  0
 26 27  1  0  0  0  0
 26 23  1  0  0  0  0
 28 25  1  6  0  0  0
 28 24  1  0  0  0  0
 28 29  1  0  0  0  0
 29 32  1  1  0  0  0
 29 27  1  0  0  0  0
 30 32  1  0  0  0  0
 32 31  1  1  0  0  0
M  END
>  <MODEL>
7

>  <REMARK>
 VINA RESULT:      -6.9      2.219      3.137
  Name = 
  5 active torsions:
  status: ('A' for Active; 'I' for Inactive)
    1  A    between atoms: C_1  and  C_25
    2  A    between atoms: C_13  and  N_22
    3  A    between atoms: C_14  and  C_15
    4  A    between atoms: C_16  and  C_25
    5  A    between atoms: C_27  and  C_31
                            x       y       z     vdW  Elec       q    Type
                         _______ _______ _______ _____ _____    ______ ____

>  <TORSDO>
F 5

$$$$
=
 OpenBabel11062419033D

 32 35  0  0  1  0  0  0  0  0999 V2000
  192.8880  175.8820  143.8000 C   0  0  1  0  0  3  0  0  0  0  0  0
  191.5590  177.6260  144.6540 O   0  0  0  0  0  1  0  0  0  0  0  0
  191.6870  175.4900  145.7420 C   0  0  1  0  0  3  0  0  0  0  0  0
  191.2370  174.6140  144.7490 O   0  0  0  0  0  0  0  0  0  0  0  0
  192.2420  174.5720  143.8270 N   0  0  0  0  0  2  0  0  0  0  0  0
  192.4280  176.5990  145.0360 C   0  0  1  0  0  3  0  0  0  0  0  0
  189.3340  175.0690  146.3750 C   0  0  1  0  0  3  0  0  0  0  0  0
  190.5260  175.9740  146.6020 C   0  0  1  0  0  3  0  0  0  0  0  0
  190.1720  174.9160  147.6270 C   0  0  0  0  0  2  0  0  0  0  0  0
  184.6050  179.0100  145.4000 C   0  0  0  0  0  2  0  0  0  0  0  0
  187.6750  177.9710  143.6580 C   0  0  0  0  0  2  0  0  0  0  0  0
  185.4620  177.0330  143.5220 O   0  0  0  0  0  0  0  0  0  0  0  0
  184.4630  179.2260  143.8980 C   0  0  0  0  0  2  0  0  0  0  0  0
  186.6020  177.3440  142.7690 C   0  0  0  0  0  2  0  0  0  0  0  0
  186.3230  177.4760  146.2540 C   0  0  0  0  0  0  0  0  0  0  0  0
  188.1380  177.0330  144.6800 N   0  0  0  0  0  0  0  0  0  0  0  0
  185.5800  176.9380  147.1200 O   0  0  0  0  0  0  0  0  0  0  0  0
  184.4540  177.9150  143.1030 C   0  0  0  0  0  2  0  0  0  0  0  0
  188.1150  175.7970  146.6940 N   0  0  0  0  0  2  0  0  0  0  0  0
  185.9590  178.6980  145.6900 O   0  0  0  0  0  0  0  0  0  0  0  0
  187.5620  176.7930  145.8290 C   0  0  0  0  0  0  0  0  0  0  0  0
  194.7720  174.6380  144.6120 O   0  0  0  0  0  1  0  0  0  0  0  0
  194.4080  175.7120  143.7980 C   0  0  1  0  0  3  0  0  0  0  0  0
  195.9710  174.7710  142.1840 N   0  0  0  0  0  0  0  0  0  0  0  0
  197.6130  175.3590  140.4940 C   0  0  0  0  0  1  0  0  0  0  0  0
  194.9240  175.4820  142.4150 C   0  0  0  0  0  0  0  0  0  0  0  0
  194.3380  176.0640  141.2640 N   0  0  0  0  0  2  0  0  0  0  0  0
  196.2460  174.7560  140.7550 C   0  0  2  0  0  3  0  0  0  0  0  0
  195.1590  175.6490  140.1380 C   0  0  1  0  0  3  0  0  0  0  0  0
  195.0480  174.7960  137.8460 N   0  0  0  0  0  1  0  0  0  0  0  0
  193.8580  173.5420  139.5570 C   0  0  0  0  0  1  0  0  0  0  0  0
  194.3120  174.9170  139.0920 C   0  0  1  0  0  3  0  0  0  0  0  0
  1 23  1  1  0  0  0
  1  5  1  0  0  0  0
  1  6  1  0  0  0  0
  3  4  1  6  0  0  0
  3  8  1  0  0  0  0
  5  4  1  0  0  0  0
  6  2  1  6  0  0  0
  6  3  1  0  0  0  0
  7  8  1  0  0  0  0
  7 19  1  1  0  0  0
  7  9  1  0  0  0  0
  8  9  1  1  0  0  0
 10 20  1  0  0  0  0
 11 16  1  0  0  0  0
 13 10  1  0  0  0  0
 14 12  1  0  0  0  0
 14 11  1  0  0  0  0
 15 17  2  0  0  0  0
 16 21  2  0  0  0  0
 18 12  1  0  0  0  0
 18 13  1  0  0  0  0
 20 15  1  0  0  0  0
 21 15  1  0  0  0  0
 21 19  1  0  0  0  0
 23 22  1  1  0  0  0
 24 26  2  0  0  0  0
 26 23  1  0  0  0  0
 27 26  1  0  0  0  0
 28 25  1  1  0  0  0
 28 24  1  0  0  0  0
 29 32  1  6  0  0  0
 29 28  1  0  0  0  0
 29 27  1  0  0  0  0
 30 32  1  0  0  0  0
 32 31  1  1  0  0  0
M  END
>  <MODEL>
8

>  <REMARK>
 VINA RESULT:      -6.9      2.894      8.827
  Name = 
  5 active torsions:
  status: ('A' for Active; 'I' for Inactive)
    1  A    between atoms: C_1  and  C_25
    2  A    between atoms: C_13  and  N_22
    3  A    between atoms: C_14  and  C_15
    4  A    between atoms: C_16  and  C_25
    5  A    between atoms: C_27  and  C_31
                            x       y       z     vdW  Elec       q    Type
                         _______ _______ _______ _____ _____    ______ ____

>  <TORSDO>
F 5

$$$$
=
 OpenBabel11062419033D

 32 35  0  0  1  0  0  0  0  0999 V2000
  194.7180  176.1140  145.3510 C   0  0  1  0  0  3  0  0  0  0  0  0
  193.8160  177.1690  147.2510 O   0  0  0  0  0  1  0  0  0  0  0  0
  192.4710  175.7940  145.8150 C   0  0  1  0  0  3  0  0  0  0  0  0
  192.5890  176.4370  144.5780 O   0  0  0  0  0  0  0  0  0  0  0  0
  193.8660  176.1890  144.1660 N   0  0  0  0  0  2  0  0  0  0  0  0
  193.7910  175.9750  146.5230 C   0  0  1  0  0  3  0  0  0  0  0  0
  190.0620  175.4830  146.2770 C   0  0  1  0  0  3  0  0  0  0  0  0
  191.2760  176.3320  146.5910 C   0  0  1  0  0  3  0  0  0  0  0  0
  190.8010  175.2910  147.5850 C   0  0  0  0  0  2  0  0  0  0  0  0
  185.2250  179.1200  144.7850 C   0  0  0  0  0  2  0  0  0  0  0  0
  188.1810  177.7110  143.1060 C   0  0  0  0  0  2  0  0  0  0  0  0
  185.9760  176.7720  143.3380 O   0  0  0  0  0  0  0  0  0  0  0  0
  184.9770  178.9960  143.2860 C   0  0  0  0  0  2  0  0  0  0  0  0
  187.0560  176.9040  142.4570 C   0  0  0  0  0  2  0  0  0  0  0  0
  187.0180  177.8110  145.8360 C   0  0  0  0  0  0  0  0  0  0  0  0
  188.7260  177.0230  144.2760 N   0  0  0  0  0  0  0  0  0  0  0  0
  186.3440  177.4820  146.8500 O   0  0  0  0  0  0  0  0  0  0  0  0
  184.9300  177.5410  142.8060 C   0  0  0  0  0  2  0  0  0  0  0  0
  188.8590  176.2670  146.5110 N   0  0  0  0  0  2  0  0  0  0  0  0
  186.6000  178.8770  145.0410 O   0  0  0  0  0  0  0  0  0  0  0  0
  188.2340  177.0470  145.4870 C   0  0  0  0  0  0  0  0  0  0  0  0
  195.1030  173.8150  145.9150 O   0  0  0  0  0  1  0  0  0  0  0  0
  195.6530  174.9080  145.2440 C   0  0  1  0  0  3  0  0  0  0  0  0
  195.3060  173.5460  143.2550 N   0  0  0  0  0  0  0  0  0  0  0  0
  196.4270  172.0600  141.6940 C   0  0  0  0  0  1  0  0  0  0  0  0
  195.8990  174.5400  143.8170 C   0  0  0  0  0  0  0  0  0  0  0  0
  196.8310  175.2160  142.9930 N   0  0  0  0  0  2  0  0  0  0  0  0
  195.7700  173.4140  141.8820 C   0  0  2  0  0  3  0  0  0  0  0  0
  196.8170  174.5260  141.7140 C   0  0  1  0  0  3  0  0  0  0  0  0
  196.1000  176.7910  141.1220 N   0  0  0  0  0  1  0  0  0  0  0  0
  197.6140  175.6670  139.5850 C   0  0  0  0  0  1  0  0  0  0  0  0
  196.4760  175.4970  140.5790 C   0  0  1  0  0  3  0  0  0  0  0  0
  1 23  1  6  0  0  0
  1  6  1  0  0  0  0
  3  4  1  6  0  0  0
  3  6  1  0  0  0  0
  3  8  1  0  0  0  0
  5  4  1  0  0  0  0
  5  1  1  0  0  0  0
  6  2  1  1  0  0  0
  7 19  1  1  0  0  0
  7  8  1  0  0  0  0
  7  9  1  0  0  0  0
  8  9  1  1  0  0  0
 10 20  1  0  0  0  0
 11 16  1  0  0  0  0
 13 10  1  0  0  0  0
 14 11  1  0  0  0  0
 14 12  1  0  0  0  0
 15 17  2  0  0  0  0
 16 21  2  0  0  0  0
 18 13  1  0  0  0  0
 18 12  1  0  0  0  0
 20 15  1  0  0  0  0
 21 15  1  0  0  0  0
 21 19  1  0  0  0  0
 23 22  1  1  0  0  0
 24 26  2  0  0  0  0
 26 23  1  0  0  0  0
 27 26  1  0  0  0  0
 28 25  1  1  0  0  0
 28 24  1  0  0  0  0
 29 32  1  6  0  0  0
 29 28  1  0  0  0  0
 29 27  1  0  0  0  0
 32 31  1  6  0  0  0
 32 30  1  0  0  0  0
M  END
>  <MODEL>
9

>  <REMARK>
 VINA RESULT:      -6.8      2.548      8.995
  Name = 
  5 active torsions:
  status: ('A' for Active; 'I' for Inactive)
    1  A    between atoms: C_1  and  C_25
    2  A    between atoms: C_13  and  N_22
    3  A    between atoms: C_14  and  C_15
    4  A    between atoms: C_16  and  C_25
    5  A    between atoms: C_27  and  C_31
                            x       y       z     vdW  Elec       q    Type
                         _______ _______ _______ _____ _____    ______ ____

>  <TORSDO>
F 5

$$$$
