=
 OpenBabel11062420483D

 45 53  0  0  1  0  0  0  0  0999 V2000
  192.5770  173.1110  144.1690 C   0  0  1  0  0  0  0  0  0  0  0  0
  193.2860  172.2380  143.1220 C   0  0  2  0  0  3  0  0  0  0  0  0
  194.0410  172.4700  146.0140 O   0  0  0  0  0  0  0  0  0  0  0  0
  190.6010  175.0110  143.8320 C   0  0  1  0  0  3  0  0  0  0  0  0
  188.1870  177.7660  142.4600 O   0  0  0  0  0  0  0  0  0  0  0  0
  190.1010  177.2250  143.8830 C   0  0  1  0  0  3  0  0  0  0  0  0
  195.6270  170.6640  145.7860 C   0  0  0  0  0  2  0  0  0  0  0  0
  194.7540  171.6770  145.0770 C   0  0  0  0  0  0  0  0  0  0  0  0
  189.0510  175.5560  142.1430 C   0  0  0  0  0  0  0  0  0  0  0  0
  191.3930  173.7720  143.6350 C   0  0  2  0  0  0  0  0  0  0  0  0
  188.2580  175.2520  141.1240 C   0  0  0  0  0  2  0  0  0  0  0  0
  191.2640  172.7260  144.5630 O   0  0  0  0  0  0  0  0  0  0  0  0
  190.7270  173.4060  142.3450 C   0  0  2  0  0  3  0  0  0  0  0  0
  192.4400  171.7880  142.0730 O   0  0  0  0  0  0  0  0  0  0  0  0
  191.8650  172.9270  141.4530 C   0  0  0  0  0  2  0  0  0  0  0  0
  191.1800  176.2740  143.9920 O   0  0  0  0  0  0  0  0  0  0  0  0
  194.0050  171.0990  143.8420 C   0  0  2  0  0  3  0  0  0  0  0  0
  189.0410  176.9010  142.7920 C   0  0  0  0  0  0  0  0  0  0  0  0
  196.2600  171.8510  145.0750 C   0  0  0  0  0  2  0  0  0  0  0  0
  193.3920  173.5620  145.3810 C   0  0  1  0  0  3  0  0  0  0  0  0
  190.3580  174.8940  142.3250 C   0  0  2  0  0  3  0  0  0  0  0  0
  193.8970  175.8530  145.9350 O   0  0  0  0  0  1  0  0  0  0  0  0
  194.3310  174.7640  145.1810 C   0  0  2  0  0  3  0  0  0  0  0  0
  194.5540  175.1670  143.7190 C   0  0  1  0  0  3  0  0  0  0  0  0
  194.0220  176.4250  143.4890 F   0  0  0  0  0  0  0  0  0  0  0  0
  196.3590  174.0950  142.3440 C   0  0  0  0  0  3  0  0  0  0  0  0
  196.4920  176.5400  142.8640 C   0  0  0  0  0  2  0  0  0  0  0  0
  196.4910  174.3860  141.0480 C   0  0  0  0  0  3  0  0  0  0  0  0
  196.0450  175.1600  143.3640 C   0  0  1  0  0  3  0  0  0  0  0  0
  196.3730  175.7060  140.5910 O   0  0  0  0  0  0  0  0  0  0  0  0
  195.9660  176.7730  141.4490 C   0  0  0  0  0  2  0  0  0  0  0  0
  189.4550  177.4920  145.2520 C   0  0  2  0  0  3  0  0  0  0  0  0
  190.3980  177.3040  146.2660 O   0  0  0  0  0  1  0  0  0  0  0  0
  188.5270  175.4990  146.3020 O   0  0  0  0  0  1  0  0  0  0  0  0
  188.2320  176.5800  145.4660 C   0  0  1  0  0  3  0  0  0  0  0  0
  184.2830  178.8310  146.0360 C   0  0  0  0  0  2  0  0  0  0  0  0
  185.6330  176.8990  145.5870 C   0  0  2  0  0  3  0  0  0  0  0  0
  184.5330  177.4230  146.4950 C   0  0  0  0  0  2  0  0  0  0  0  0
  187.1370  178.0240  147.1880 O   0  0  0  0  0  1  0  0  0  0  0  0
  186.9880  177.3130  145.9870 C   0  0  1  0  0  0  0  0  0  0  0  0
  186.2760  178.0600  144.9190 N   0  0  2  0  0  0  0  0  0  0  0  0
  185.6000  179.2540  145.4300 C   0  0  0  0  0  2  0  0  0  0  0  0
  194.9320  170.3610  142.8730 C   0  0  0  0  0  2  0  0  0  0  0  0
  193.3850  168.6500  143.4910 O   0  0  0  0  0  1  0  0  0  0  0  0
  194.4980  168.9160  142.6920 C   0  0  0  0  0  2  0  0  0  0  0  0
  1 12  1  1  0  0  0
  1 20  1  0  0  0  0
  2 14  1  6  0  0  0
  2 17  1  0  0  0  0
  2  1  1  0  0  0  0
  4 16  1  6  0  0  0
  5 18  2  0  0  0  0
  6 16  1  0  0  0  0
  6 32  1  1  0  0  0
  8  7  1  0  0  0  0
  8  3  1  0  0  0  0
  9 18  1  0  0  0  0
 10  4  1  0  0  0  0
 10  1  1  0  0  0  0
 10 12  1  1  0  0  0
 11  9  2  0  0  0  0
 13 15  1  6  0  0  0
 13 10  1  0  0  0  0
 15 14  1  0  0  0  0
 17 43  1  6  0  0  0
 17  8  1  0  0  0  0
 18  6  1  0  0  0  0
 19  8  1  0  0  0  0
 19  7  1  0  0  0  0
 20 23  1  6  0  0  0
 20  3  1  0  0  0  0
 21  9  1  1  0  0  0
 21 13  1  0  0  0  0
 21  4  1  0  0  0  0
 23 22  1  1  0  0  0
 24 25  1  1  0  0  0
 24 23  1  0  0  0  0
 26 29  1  0  0  0  0
 27 29  1  0  0  0  0
 28 26  2  0  0  0  0
 29 24  1  6  0  0  0
 30 28  1  0  0  0  0
 30 31  1  0  0  0  0
 31 27  1  0  0  0  0
 32 35  1  0  0  0  0
 32 33  1  1  0  0  0
 35 40  1  0  0  0  0
 35 34  1  1  0  0  0
 36 38  1  0  0  0  0
 37 40  1  0  0  0  0
 37 38  1  1  0  0  0
 40 39  1  1  0  0  0
 41 42  1  1  0  0  0
 41 37  1  0  0  0  0
 41 40  1  0  0  0  0
 42 36  1  0  0  0  0
 45 43  1  0  0  0  0
 45 44  1  0  0  0  0
M  END
>  <MODEL>
1

>  <REMARK>
 VINA RESULT:      -8.1      0.000      0.000
  Name = 
  8 active torsions:
  status: ('A' for Active; 'I' for Inactive)
    1  A    between atoms: C_6  and  C_16
    2  A    between atoms: C_6  and  C_21
    3  A    between atoms: C_16  and  C_41
    4  A    between atoms: C_17  and  C_35
    5  A    between atoms: C_20  and  C_44
    6  A    between atoms: C_32  and  C_36
    7  A    between atoms: C_32  and  C_38
    8  A    between atoms: C_35  and  C_44
                            x       y       z     vdW  Elec       q    Type
                         _______ _______ _______ _____ _____    ______ ____

>  <TORSDO>
F 8

$$$$
=
 OpenBabel11062420483D

 45 53  0  0  1  0  0  0  0  0999 V2000
  193.8890  175.4240  143.4340 C   0  0  1  0  0  0  0  0  0  0  0  0
  195.1800  175.1170  144.2090 C   0  0  2  0  0  3  0  0  0  0  0  0
  194.8440  174.9740  141.2330 O   0  0  0  0  0  0  0  0  0  0  0  0
  191.3400  175.9060  144.3800 C   0  0  1  0  0  3  0  0  0  0  0  0
  188.0400  176.0570  146.4760 O   0  0  0  0  0  0  0  0  0  0  0  0
  189.2240  175.1010  144.5620 C   0  0  1  0  0  3  0  0  0  0  0  0
  197.2170  174.6400  140.9410 C   0  0  0  0  0  2  0  0  0  0  0  0
  196.0500  174.6410  141.9050 C   0  0  0  0  0  0  0  0  0  0  0  0
  190.3910  176.5110  146.4500 C   0  0  0  0  0  0  0  0  0  0  0  0
  192.8210  175.9080  144.2990 C   0  0  2  0  0  0  0  0  0  0  0  0
  190.4200  177.1100  147.6330 C   0  0  0  0  0  2  0  0  0  0  0  0
  193.4540  176.7800  143.3980 O   0  0  0  0  0  0  0  0  0  0  0  0
  193.0180  176.3820  145.7060 C   0  0  2  0  0  3  0  0  0  0  0  0
  195.3090  175.8320  145.4300 O   0  0  0  0  0  0  0  0  0  0  0  0
  194.1740  175.5420  146.2310 C   0  0  0  0  0  2  0  0  0  0  0  0
  190.5590  174.7750  144.1210 O   0  0  0  0  0  0  0  0  0  0  0  0
  196.3700  175.3110  143.2730 C   0  0  2  0  0  3  0  0  0  0  0  0
  189.1440  175.9120  145.8860 C   0  0  0  0  0  0  0  0  0  0  0  0
  196.6890  173.3270  141.5010 C   0  0  0  0  0  2  0  0  0  0  0  0
  193.7140  174.7670  142.0660 C   0  0  1  0  0  3  0  0  0  0  0  0
  191.5890  175.8570  145.8900 C   0  0  2  0  0  3  0  0  0  0  0  0
  191.9730  173.2070  141.4720 O   0  0  0  0  0  1  0  0  0  0  0  0
  193.2370  173.3040  142.0520 C   0  0  2  0  0  3  0  0  0  0  0  0
  193.2660  172.6080  143.4170 C   0  0  1  0  0  3  0  0  0  0  0  0
  192.0340  172.0300  143.6790 F   0  0  0  0  0  0  0  0  0  0  0  0
  194.3080  170.7650  144.7630 C   0  0  0  0  0  3  0  0  0  0  0  0
  194.2650  170.5950  142.2660 C   0  0  0  0  0  2  0  0  0  0  0  0
  193.7320  169.5620  144.8320 C   0  0  0  0  0  3  0  0  0  0  0  0
  194.3630  171.5400  143.4710 C   0  0  1  0  0  3  0  0  0  0  0  0
  193.1830  168.9600  143.6920 O   0  0  0  0  0  0  0  0  0  0  0  0
  193.0780  169.6490  142.4450 C   0  0  0  0  0  2  0  0  0  0  0  0
  188.4120  175.7580  143.4350 C   0  0  2  0  0  3  0  0  0  0  0  0
  188.8140  175.2450  142.1980 O   0  0  0  0  0  1  0  0  0  0  0  0
  189.4440  177.7480  142.4780 O   0  0  0  0  0  1  0  0  0  0  0  0
  188.5700  177.2910  143.4690 C   0  0  1  0  0  3  0  0  0  0  0  0
  184.2930  178.8790  143.8730 C   0  0  0  0  0  2  0  0  0  0  0  0
  186.5520  178.5250  144.5980 C   0  0  2  0  0  3  0  0  0  0  0  0
  185.5180  179.6090  144.3420 C   0  0  0  0  0  2  0  0  0  0  0  0
  186.9780  178.7190  142.1740 O   0  0  0  0  0  1  0  0  0  0  0  0
  187.2440  178.0590  143.3850 C   0  0  1  0  0  0  0  0  0  0  0  0
  186.0990  177.2820  143.9220 N   0  0  2  0  0  0  0  0  0  0  0  0
  184.8380  177.6140  143.2540 C   0  0  0  0  0  2  0  0  0  0  0  0
  197.6470  174.7680  143.9180 C   0  0  0  0  0  2  0  0  0  0  0  0
  197.8140  172.4950  144.6300 O   0  0  0  0  0  1  0  0  0  0  0  0
  197.3250  173.7490  144.9980 C   0  0  0  0  0  2  0  0  0  0  0  0
  1 12  1  6  0  0  0
  1  2  1  0  0  0  0
  1 10  1  0  0  0  0
  2 14  1  1  0  0  0
  3  8  1  0  0  0  0
  3 20  1  0  0  0  0
  4 16  1  6  0  0  0
  4 21  1  0  0  0  0
  6 32  1  6  0  0  0
  6 18  1  0  0  0  0
  7 19  1  0  0  0  0
  7  8  1  0  0  0  0
  8 17  1  0  0  0  0
  9 11  2  0  0  0  0
 10 12  1  6  0  0  0
 10  4  1  0  0  0  0
 10 13  1  0  0  0  0
 13 21  1  0  0  0  0
 13 15  1  1  0  0  0
 14 15  1  0  0  0  0
 16  6  1  0  0  0  0
 17 43  1  1  0  0  0
 17  2  1  0  0  0  0
 18  9  1  0  0  0  0
 18  5  2  0  0  0  0
 19  8  1  0  0  0  0
 20 23  1  1  0  0  0
 20  1  1  0  0  0  0
 21  9  1  1  0  0  0
 23 22  1  1  0  0  0
 23 24  1  0  0  0  0
 24 25  1  6  0  0  0
 26 28  2  0  0  0  0
 27 31  1  0  0  0  0
 27 29  1  0  0  0  0
 29 24  1  1  0  0  0
 29 26  1  0  0  0  0
 30 28  1  0  0  0  0
 31 30  1  0  0  0  0
 32 33  1  6  0  0  0
 32 35  1  0  0  0  0
 35 34  1  6  0  0  0
 36 38  1  0  0  0  0
 37 38  1  6  0  0  0
 40 39  1  6  0  0  0
 40 35  1  0  0  0  0
 40 41  1  0  0  0  0
 40 37  1  0  0  0  0
 41 42  1  6  0  0  0
 41 37  1  0  0  0  0
 42 36  1  0  0  0  0
 43 45  1  0  0  0  0
 44 45  1  0  0  0  0
M  END
>  <MODEL>
2

>  <REMARK>
 VINA RESULT:      -7.6      1.869      4.615
  Name = 
  8 active torsions:
  status: ('A' for Active; 'I' for Inactive)
    1  A    between atoms: C_6  and  C_16
    2  A    between atoms: C_6  and  C_21
    3  A    between atoms: C_16  and  C_41
    4  A    between atoms: C_17  and  C_35
    5  A    between atoms: C_20  and  C_44
    6  A    between atoms: C_32  and  C_36
    7  A    between atoms: C_32  and  C_38
    8  A    between atoms: C_35  and  C_44
                            x       y       z     vdW  Elec       q    Type
                         _______ _______ _______ _____ _____    ______ ____

>  <TORSDO>
F 8

$$$$
=
 OpenBabel11062420483D

 45 53  0  0  1  0  0  0  0  0999 V2000
  191.9550  172.6220  143.1290 C   0  0  1  0  0  0  0  0  0  0  0  0
  193.1010  171.9290  142.3750 C   0  0  2  0  0  3  0  0  0  0  0  0
  192.9610  172.3660  145.3380 O   0  0  0  0  0  0  0  0  0  0  0  0
  189.7750  173.9980  142.1390 C   0  0  1  0  0  3  0  0  0  0  0  0
  187.2770  176.0900  139.9750 O   0  0  0  0  0  0  0  0  0  0  0  0
  188.7970  176.0320  141.8890 C   0  0  1  0  0  3  0  0  0  0  0  0
  194.9110  170.9820  145.6740 C   0  0  0  0  0  2  0  0  0  0  0  0
  194.0630  171.7530  144.6850 C   0  0  0  0  0  0  0  0  0  0  0  0
  188.6670  174.1430  140.0650 C   0  0  0  0  0  0  0  0  0  0  0  0
  190.8470  172.9790  142.2530 C   0  0  2  0  0  0  0  0  0  0  0  0
  188.2720  173.6480  138.8990 C   0  0  0  0  0  2  0  0  0  0  0  0
  190.7050  171.9430  143.1900 O   0  0  0  0  0  0  0  0  0  0  0  0
  190.6590  172.4510  140.8640 C   0  0  2  0  0  3  0  0  0  0  0  0
  192.6980  171.2800  141.1770 O   0  0  0  0  0  0  0  0  0  0  0  0
  192.0750  172.2440  140.3430 C   0  0  0  0  0  2  0  0  0  0  0  0
  189.9890  175.3640  142.3510 O   0  0  0  0  0  0  0  0  0  0  0  0
  193.8300  171.0000  143.3430 C   0  0  2  0  0  3  0  0  0  0  0  0
  188.1780  175.4550  140.5850 C   0  0  0  0  0  0  0  0  0  0  0  0
  195.4320  172.2770  145.0680 C   0  0  0  0  0  2  0  0  0  0  0  0
  192.2840  173.2670  144.4750 C   0  0  1  0  0  3  0  0  0  0  0  0
  189.9860  173.8100  140.6350 C   0  0  2  0  0  3  0  0  0  0  0  0
  194.0040  174.6680  143.5310 O   0  0  0  0  0  1  0  0  0  0  0  0
  192.9470  174.6540  144.4400 C   0  0  2  0  0  3  0  0  0  0  0  0
  193.3960  175.1840  145.8060 C   0  0  1  0  0  3  0  0  0  0  0  0
  194.7610  175.4210  145.7970 F   0  0  0  0  0  0  0  0  0  0  0  0
  191.4330  176.6650  145.3020 C   0  0  0  0  0  3  0  0  0  0  0  0
  192.2580  176.4680  147.6570 C   0  0  0  0  0  2  0  0  0  0  0  0
  190.2100  176.3410  145.7270 C   0  0  0  0  0  3  0  0  0  0  0  0
  192.6480  176.4700  146.1740 C   0  0  1  0  0  3  0  0  0  0  0  0
  190.0060  175.8360  147.0190 O   0  0  0  0  0  0  0  0  0  0  0  0
  191.0930  175.5050  147.8850 C   0  0  0  0  0  2  0  0  0  0  0  0
  187.7580  176.1550  143.0140 C   0  0  2  0  0  3  0  0  0  0  0  0
  186.5930  175.4680  142.6610 O   0  0  0  0  0  1  0  0  0  0  0  0
  187.2620  178.3770  142.1450 O   0  0  0  0  0  1  0  0  0  0  0  0
  187.4500  177.6350  143.3150 C   0  0  1  0  0  3  0  0  0  0  0  0
  184.5450  177.9370  146.8430 C   0  0  0  0  0  2  0  0  0  0  0  0
  186.3930  178.6480  145.4890 C   0  0  2  0  0  3  0  0  0  0  0  0
  185.0690  179.1130  146.0700 C   0  0  0  0  0  2  0  0  0  0  0  0
  184.9810  177.6990  143.7000 O   0  0  0  0  0  1  0  0  0  0  0  0
  186.2600  177.8480  144.2600 C   0  0  1  0  0  0  0  0  0  0  0  0
  186.4390  177.1650  145.5670 N   0  0  2  0  0  0  0  0  0  0  0  0
  185.1650  176.7450  146.1540 C   0  0  0  0  0  2  0  0  0  0  0  0
  195.1280  170.4910  142.7120 C   0  0  0  0  0  2  0  0  0  0  0  0
  193.9480  168.4560  143.1240 O   0  0  0  0  0  1  0  0  0  0  0  0
  195.0900  168.9840  142.5220 C   0  0  0  0  0  2  0  0  0  0  0  0
  1 12  1  1  0  0  0
  1 20  1  0  0  0  0
  2 14  1  6  0  0  0
  2  1  1  0  0  0  0
  2 17  1  0  0  0  0
  4 10  1  0  0  0  0
  4 16  1  1  0  0  0
  5 18  2  0  0  0  0
  6 16  1  0  0  0  0
  6 32  1  1  0  0  0
  8 19  1  0  0  0  0
  8  3  1  0  0  0  0
  8  7  1  0  0  0  0
  9 18  1  0  0  0  0
 10  1  1  0  0  0  0
 10 12  1  1  0  0  0
 11  9  2  0  0  0  0
 13 15  1  6  0  0  0
 13 10  1  0  0  0  0
 15 14  1  0  0  0  0
 17 43  1  6  0  0  0
 17  8  1  0  0  0  0
 18  6  1  0  0  0  0
 19  7  1  0  0  0  0
 20 23  1  6  0  0  0
 20  3  1  0  0  0  0
 21  9  1  6  0  0  0
 21 13  1  0  0  0  0
 21  4  1  0  0  0  0
 23 22  1  6  0  0  0
 23 24  1  0  0  0  0
 24 25  1  6  0  0  0
 26 28  2  0  0  0  0
 26 29  1  0  0  0  0
 27 31  1  0  0  0  0
 28 30  1  0  0  0  0
 29 24  1  6  0  0  0
 29 27  1  0  0  0  0
 30 31  1  0  0  0  0
 32 33  1  6  0  0  0
 32 35  1  0  0  0  0
 35 34  1  6  0  0  0
 35 40  1  0  0  0  0
 37 41  1  0  0  0  0
 37 38  1  1  0  0  0
 38 36  1  0  0  0  0
 40 39  1  6  0  0  0
 40 37  1  0  0  0  0
 40 41  1  0  0  0  0
 41 42  1  1  0  0  0
 42 36  1  0  0  0  0
 45 43  1  0  0  0  0
 45 44  1  0  0  0  0
M  END
>  <MODEL>
3

>  <REMARK>
 VINA RESULT:      -7.6      2.012      3.408
  Name = 
  8 active torsions:
  status: ('A' for Active; 'I' for Inactive)
    1  A    between atoms: C_6  and  C_16
    2  A    between atoms: C_6  and  C_21
    3  A    between atoms: C_16  and  C_41
    4  A    between atoms: C_17  and  C_35
    5  A    between atoms: C_20  and  C_44
    6  A    between atoms: C_32  and  C_36
    7  A    between atoms: C_32  and  C_38
    8  A    between atoms: C_35  and  C_44
                            x       y       z     vdW  Elec       q    Type
                         _______ _______ _______ _____ _____    ______ ____

>  <TORSDO>
F 8

$$$$
=
 OpenBabel11062420483D

 45 53  0  0  1  0  0  0  0  0999 V2000
  194.0300  175.6780  143.5730 C   0  0  1  0  0  0  0  0  0  0  0  0
  195.4530  175.2520  143.9660 C   0  0  2  0  0  3  0  0  0  0  0  0
  194.5550  176.0450  141.2170 O   0  0  0  0  0  0  0  0  0  0  0  0
  191.6980  175.6050  145.0510 C   0  0  1  0  0  3  0  0  0  0  0  0
  188.8610  174.7840  147.6160 O   0  0  0  0  0  0  0  0  0  0  0  0
  189.6790  174.6020  145.3190 C   0  0  1  0  0  3  0  0  0  0  0  0
  196.8350  176.0320  140.4250 C   0  0  0  0  0  2  0  0  0  0  0  0
  195.8760  175.6210  141.5210 C   0  0  0  0  0  0  0  0  0  0  0  0
  191.1500  175.4270  147.3350 C   0  0  0  0  0  0  0  0  0  0  0  0
  193.1360  175.7630  144.7200 C   0  0  2  0  0  0  0  0  0  0  0  0
  191.3910  175.6140  148.6270 C   0  0  0  0  0  2  0  0  0  0  0  0
  193.5610  176.9290  144.0650 O   0  0  0  0  0  0  0  0  0  0  0  0
  193.5880  175.7750  146.1490 C   0  0  2  0  0  3  0  0  0  0  0  0
  195.7960  175.5460  145.3130 O   0  0  0  0  0  0  0  0  0  0  0  0
  194.8440  174.9150  146.1560 C   0  0  0  0  0  2  0  0  0  0  0  0
  190.9110  174.5530  144.5710 O   0  0  0  0  0  0  0  0  0  0  0  0
  196.4350  175.8410  142.9560 C   0  0  2  0  0  3  0  0  0  0  0  0
  189.8340  174.9340  146.8300 C   0  0  0  0  0  0  0  0  0  0  0  0
  196.4580  174.5680  140.6000 C   0  0  0  0  0  2  0  0  0  0  0  0
  193.6110  175.4820  142.1160 C   0  0  1  0  0  3  0  0  0  0  0  0
  192.2340  175.0950  146.3910 C   0  0  2  0  0  3  0  0  0  0  0  0
  194.2430  173.1740  141.8230 O   0  0  0  0  0  1  0  0  0  0  0  0
  193.1790  174.0670  141.7000 C   0  0  2  0  0  3  0  0  0  0  0  0
  192.5470  173.9730  140.3070 C   0  0  1  0  0  3  0  0  0  0  0  0
  193.5290  174.0680  139.3340 F   0  0  0  0  0  0  0  0  0  0  0  0
  190.8440  172.4210  141.3000 C   0  0  0  0  0  3  0  0  0  0  0  0
  190.9980  172.6540  138.8130 C   0  0  0  0  0  2  0  0  0  0  0  0
  189.5400  172.7010  141.2230 C   0  0  0  0  0  3  0  0  0  0  0  0
  191.7720  172.6620  140.1370 C   0  0  1  0  0  3  0  0  0  0  0  0
  188.9800  173.2020  140.0390 O   0  0  0  0  0  0  0  0  0  0  0  0
  189.7820  173.5740  138.9180 C   0  0  0  0  0  2  0  0  0  0  0  0
  188.6480  175.5130  144.6330 C   0  0  2  0  0  3  0  0  0  0  0  0
  188.8860  175.5450  143.2560 O   0  0  0  0  0  1  0  0  0  0  0  0
  189.0730  177.8860  144.2800 O   0  0  0  0  0  1  0  0  0  0  0  0
  188.6920  176.9330  145.2290 C   0  0  1  0  0  3  0  0  0  0  0  0
  184.4850  178.4040  146.2880 C   0  0  0  0  0  2  0  0  0  0  0  0
  186.0870  176.8050  145.4930 C   0  0  2  0  0  3  0  0  0  0  0  0
  184.9770  177.0030  146.5120 C   0  0  0  0  0  2  0  0  0  0  0  0
  187.4940  177.9080  147.1950 O   0  0  0  0  0  1  0  0  0  0  0  0
  187.3830  177.3690  145.9040 C   0  0  1  0  0  0  0  0  0  0  0  0
  186.5010  178.1410  144.9920 N   0  0  2  0  0  0  0  0  0  0  0  0
  185.6810  179.1200  145.7090 C   0  0  0  0  0  2  0  0  0  0  0  0
  197.8260  175.2340  143.1530 C   0  0  0  0  0  2  0  0  0  0  0  0
  197.9390  172.8490  143.1060 O   0  0  0  0  0  1  0  0  0  0  0  0
  197.7530  173.9430  143.9520 C   0  0  0  0  0  2  0  0  0  0  0  0
  1  2  1  0  0  0  0
  1 12  1  6  0  0  0
  1 10  1  0  0  0  0
  2 14  1  1  0  0  0
  3  8  1  0  0  0  0
  3 20  1  0  0  0  0
  4 16  1  6  0  0  0
  4 21  1  0  0  0  0
  6 32  1  6  0  0  0
  6 18  1  0  0  0  0
  7 19  1  0  0  0  0
  7  8  1  0  0  0  0
  8 17  1  0  0  0  0
  9 11  2  0  0  0  0
 10 12  1  6  0  0  0
 10  4  1  0  0  0  0
 10 13  1  0  0  0  0
 13 15  1  6  0  0  0
 13 21  1  0  0  0  0
 14 15  1  0  0  0  0
 16  6  1  0  0  0  0
 17 43  1  6  0  0  0
 17  2  1  0  0  0  0
 18  9  1  0  0  0  0
 18  5  2  0  0  0  0
 19  8  1  0  0  0  0
 20 23  1  6  0  0  0
 20  1  1  0  0  0  0
 21  9  1  1  0  0  0
 23 22  1  6  0  0  0
 24 25  1  6  0  0  0
 24 23  1  0  0  0  0
 27 31  1  0  0  0  0
 27 29  1  0  0  0  0
 28 26  2  0  0  0  0
 29 24  1  1  0  0  0
 29 26  1  0  0  0  0
 30 28  1  0  0  0  0
 31 30  1  0  0  0  0
 32 33  1  6  0  0  0
 32 35  1  0  0  0  0
 35 34  1  6  0  0  0
 35 40  1  0  0  0  0
 36 38  1  0  0  0  0
 37 40  1  0  0  0  0
 37 38  1  1  0  0  0
 40 39  1  1  0  0  0
 41 37  1  0  0  0  0
 41 42  1  1  0  0  0
 41 40  1  0  0  0  0
 42 36  1  0  0  0  0
 43 45  1  0  0  0  0
 44 45  1  0  0  0  0
M  END
>  <MODEL>
4

>  <REMARK>
 VINA RESULT:      -7.5      2.407      4.843
  Name = 
  8 active torsions:
  status: ('A' for Active; 'I' for Inactive)
    1  A    between atoms: C_6  and  C_16
    2  A    between atoms: C_6  and  C_21
    3  A    between atoms: C_16  and  C_41
    4  A    between atoms: C_17  and  C_35
    5  A    between atoms: C_20  and  C_44
    6  A    between atoms: C_32  and  C_36
    7  A    between atoms: C_32  and  C_38
    8  A    between atoms: C_35  and  C_44
                            x       y       z     vdW  Elec       q    Type
                         _______ _______ _______ _____ _____    ______ ____

>  <TORSDO>
F 8

$$$$
=
 OpenBabel11062420483D

 45 53  0  0  1  0  0  0  0  0999 V2000
  190.6490  172.6480  142.9360 C   0  0  1  0  0  0  0  0  0  0  0  0
  190.9440  171.7780  141.7050 C   0  0  2  0  0  3  0  0  0  0  0  0
  191.9550  171.2850  144.4840 O   0  0  0  0  0  0  0  0  0  0  0  0
  189.3970  175.1040  143.0980 C   0  0  1  0  0  3  0  0  0  0  0  0
  187.9370  178.6670  142.4090 O   0  0  0  0  0  0  0  0  0  0  0  0
  189.6660  177.3230  143.4960 C   0  0  1  0  0  3  0  0  0  0  0  0
  192.8280  169.1310  143.8270 C   0  0  0  0  0  2  0  0  0  0  0  0
  192.2890  170.4700  143.3690 C   0  0  0  0  0  0  0  0  0  0  0  0
  187.9900  176.3800  141.7040 C   0  0  0  0  0  0  0  0  0  0  0  0
  189.7140  173.7270  142.6460 C   0  0  2  0  0  0  0  0  0  0  0  0
  187.0640  176.5130  140.7620 C   0  0  0  0  0  2  0  0  0  0  0  0
  189.3170  172.6400  143.4400 O   0  0  0  0  0  0  0  0  0  0  0  0
  188.8660  173.8070  141.4130 C   0  0  2  0  0  3  0  0  0  0  0  0
  189.9180  171.7970  140.7220 O   0  0  0  0  0  0  0  0  0  0  0  0
  189.7080  173.1440  140.3310 C   0  0  0  0  0  2  0  0  0  0  0  0
  190.3730  176.0750  143.3450 O   0  0  0  0  0  0  0  0  0  0  0  0
  191.2970  170.3690  142.1750 C   0  0  2  0  0  3  0  0  0  0  0  0
  188.4770  177.5340  142.5160 C   0  0  0  0  0  0  0  0  0  0  0  0
  193.7620  170.1560  143.2000 C   0  0  0  0  0  2  0  0  0  0  0  0
  191.6590  172.6140  144.0830 C   0  0  1  0  0  3  0  0  0  0  0  0
  189.0120  175.3180  141.6320 C   0  0  2  0  0  3  0  0  0  0  0  0
  192.9510  174.4880  144.8770 O   0  0  0  0  0  1  0  0  0  0  0  0
  192.9250  173.4720  143.9220 C   0  0  2  0  0  3  0  0  0  0  0  0
  193.1400  174.0400  142.5150 C   0  0  1  0  0  3  0  0  0  0  0  0
  193.2200  175.4220  142.5700 F   0  0  0  0  0  0  0  0  0  0  0  0
  194.7870  174.2360  140.6320 C   0  0  0  0  0  3  0  0  0  0  0  0
  195.5700  173.4620  142.8800 C   0  0  0  0  0  2  0  0  0  0  0  0
  195.7340  175.1770  140.6520 C   0  0  0  0  0  3  0  0  0  0  0  0
  194.4110  173.4710  141.8760 C   0  0  1  0  0  3  0  0  0  0  0  0
  196.4390  175.4660  141.8290 O   0  0  0  0  0  0  0  0  0  0  0  0
  196.0880  174.8850  143.0850 C   0  0  0  0  0  2  0  0  0  0  0  0
  189.2540  177.5550  144.9590 C   0  0  2  0  0  3  0  0  0  0  0  0
  190.3540  177.3600  145.7990 O   0  0  0  0  0  1  0  0  0  0  0  0
  188.5030  175.6230  146.2410 O   0  0  0  0  0  1  0  0  0  0  0  0
  188.0920  176.6220  145.3530 C   0  0  1  0  0  3  0  0  0  0  0  0
  184.0670  178.6660  146.1290 C   0  0  0  0  0  2  0  0  0  0  0  0
  185.5170  176.7800  145.8160 C   0  0  2  0  0  3  0  0  0  0  0  0
  184.5100  177.3870  146.7790 C   0  0  0  0  0  2  0  0  0  0  0  0
  187.1170  178.2800  146.9500 O   0  0  0  0  0  1  0  0  0  0  0  0
  186.8690  177.3520  145.9260 C   0  0  1  0  0  0  0  0  0  0  0  0
  185.9490  177.8400  144.8680 N   0  0  2  0  0  0  0  0  0  0  0  0
  185.2410  179.0590  145.2650 C   0  0  0  0  0  2  0  0  0  0  0  0
  191.8480  169.5430  141.0100 C   0  0  0  0  0  2  0  0  0  0  0  0
  190.5730  168.4710  139.2990 O   0  0  0  0  0  1  0  0  0  0  0  0
  190.9080  168.4050  140.6520 C   0  0  0  0  0  2  0  0  0  0  0  0
  1 12  1  1  0  0  0
  1 20  1  0  0  0  0
  2 14  1  6  0  0  0
  2 17  1  0  0  0  0
  2  1  1  0  0  0  0
  4 16  1  6  0  0  0
  5 18  2  0  0  0  0
  6 32  1  1  0  0  0
  8  7  1  0  0  0  0
  8  3  1  0  0  0  0
  9 18  1  0  0  0  0
 10  1  1  0  0  0  0
 10  4  1  0  0  0  0
 10 12  1  1  0  0  0
 11  9  2  0  0  0  0
 13 15  1  6  0  0  0
 13 21  1  0  0  0  0
 13 10  1  0  0  0  0
 15 14  1  0  0  0  0
 16  6  1  0  0  0  0
 17 43  1  6  0  0  0
 17  8  1  0  0  0  0
 18  6  1  0  0  0  0
 19  8  1  0  0  0  0
 19  7  1  0  0  0  0
 20 23  1  6  0  0  0
 20  3  1  0  0  0  0
 21  9  1  1  0  0  0
 21  4  1  0  0  0  0
 23 22  1  1  0  0  0
 24 25  1  1  0  0  0
 24 23  1  0  0  0  0
 26 28  2  0  0  0  0
 26 29  1  0  0  0  0
 27 31  1  0  0  0  0
 28 30  1  0  0  0  0
 29 24  1  1  0  0  0
 29 27  1  0  0  0  0
 30 31  1  0  0  0  0
 32 35  1  0  0  0  0
 32 33  1  1  0  0  0
 35 40  1  0  0  0  0
 35 34  1  1  0  0  0
 36 38  1  0  0  0  0
 37 40  1  0  0  0  0
 37 38  1  1  0  0  0
 40 39  1  1  0  0  0
 41 42  1  1  0  0  0
 41 37  1  0  0  0  0
 41 40  1  0  0  0  0
 42 36  1  0  0  0  0
 44 45  1  0  0  0  0
 45 43  1  0  0  0  0
M  END
>  <MODEL>
5

>  <REMARK>
 VINA RESULT:      -7.4      1.686      2.218
  Name = 
  8 active torsions:
  status: ('A' for Active; 'I' for Inactive)
    1  A    between atoms: C_6  and  C_16
    2  A    between atoms: C_6  and  C_21
    3  A    between atoms: C_16  and  C_41
    4  A    between atoms: C_17  and  C_35
    5  A    between atoms: C_20  and  C_44
    6  A    between atoms: C_32  and  C_36
    7  A    between atoms: C_32  and  C_38
    8  A    between atoms: C_35  and  C_44
                            x       y       z     vdW  Elec       q    Type
                         _______ _______ _______ _____ _____    ______ ____

>  <TORSDO>
F 8

$$$$
=
 OpenBabel11062420483D

 45 53  0  0  1  0  0  0  0  0999 V2000
  193.3330  174.8520  142.1900 C   0  0  1  0  0  0  0  0  0  0  0  0
  194.7860  174.3610  142.2870 C   0  0  2  0  0  3  0  0  0  0  0  0
  193.1550  174.5320  139.7770 O   0  0  0  0  0  0  0  0  0  0  0  0
  191.5430  175.4590  144.2040 C   0  0  1  0  0  3  0  0  0  0  0  0
  189.5550  175.6950  147.5640 O   0  0  0  0  0  0  0  0  0  0  0  0
  189.6470  174.8260  145.2800 C   0  0  1  0  0  3  0  0  0  0  0  0
  195.0950  174.0230  138.4340 C   0  0  0  0  0  2  0  0  0  0  0  0
  194.4840  174.0340  139.8190 C   0  0  0  0  0  0  0  0  0  0  0  0
  191.6870  175.9440  146.5040 C   0  0  0  0  0  0  0  0  0  0  0  0
  192.8240  175.3410  143.4650 C   0  0  2  0  0  0  0  0  0  0  0  0
  192.3080  176.4240  147.5750 C   0  0  0  0  0  2  0  0  0  0  0  0
  193.0920  176.2360  142.4180 O   0  0  0  0  0  0  0  0  0  0  0  0
  193.6780  175.6610  144.6540 C   0  0  2  0  0  3  0  0  0  0  0  0
  195.5260  174.9440  143.3510 O   0  0  0  0  0  0  0  0  0  0  0  0
  194.8370  174.6780  144.5620 C   0  0  0  0  0  2  0  0  0  0  0  0
  190.5990  174.4300  144.2720 O   0  0  0  0  0  0  0  0  0  0  0  0
  195.4530  174.5410  140.9250 C   0  0  2  0  0  3  0  0  0  0  0  0
  190.2580  175.5120  146.5350 C   0  0  0  0  0  0  0  0  0  0  0  0
  194.7160  172.7140  139.1100 C   0  0  0  0  0  2  0  0  0  0  0  0
  192.4930  174.3440  141.0190 C   0  0  1  0  0  3  0  0  0  0  0  0
  192.4260  175.2450  145.4360 C   0  0  2  0  0  3  0  0  0  0  0  0
  192.8020  172.0670  141.7480 O   0  0  0  0  0  1  0  0  0  0  0  0
  191.8890  172.9360  141.1530 C   0  0  2  0  0  3  0  0  0  0  0  0
  191.3440  172.3460  139.8490 C   0  0  1  0  0  3  0  0  0  0  0  0
  191.9980  171.1590  139.5560 F   0  0  0  0  0  0  0  0  0  0  0  0
  189.1310  173.2530  140.6080 C   0  0  0  0  0  3  0  0  0  0  0  0
  189.2410  171.8310  138.5510 C   0  0  0  0  0  2  0  0  0  0  0  0
  188.5000  174.1910  139.8980 C   0  0  0  0  0  3  0  0  0  0  0  0
  189.8340  172.0990  139.9400 C   0  0  1  0  0  3  0  0  0  0  0  0
  188.4410  174.1200  138.5000 O   0  0  0  0  0  0  0  0  0  0  0  0
  189.1670  173.1370  137.7590 C   0  0  0  0  0  2  0  0  0  0  0  0
  188.5040  175.6550  144.6710 C   0  0  2  0  0  3  0  0  0  0  0  0
  188.4990  175.5050  143.2810 O   0  0  0  0  0  1  0  0  0  0  0  0
  189.2060  177.9000  144.0340 O   0  0  0  0  0  1  0  0  0  0  0  0
  188.6390  177.1400  145.0610 C   0  0  1  0  0  3  0  0  0  0  0  0
  184.6180  178.2200  146.9710 C   0  0  0  0  0  2  0  0  0  0  0  0
  186.9990  177.9240  146.9490 C   0  0  2  0  0  3  0  0  0  0  0  0
  185.9080  178.9410  147.2390 C   0  0  0  0  0  2  0  0  0  0  0  0
  186.7070  178.6610  144.6120 O   0  0  0  0  0  1  0  0  0  0  0  0
  187.3250  177.7880  145.5200 C   0  0  1  0  0  0  0  0  0  0  0  0
  186.4020  176.8160  146.1600 N   0  0  2  0  0  0  0  0  0  0  0  0
  184.9950  177.1680  145.9560 C   0  0  0  0  0  2  0  0  0  0  0  0
  196.8090  173.8310  140.9010 C   0  0  0  0  0  2  0  0  0  0  0  0
  197.4290  176.0390  140.2340 O   0  0  0  0  0  1  0  0  0  0  0  0
  197.9410  174.8200  140.6790 C   0  0  0  0  0  2  0  0  0  0  0  0
  1  2  1  0  0  0  0
  1 12  1  6  0  0  0
  1 10  1  0  0  0  0
  2 14  1  1  0  0  0
  3  8  1  0  0  0  0
  3 20  1  0  0  0  0
  4 16  1  6  0  0  0
  4 21  1  0  0  0  0
  6 32  1  6  0  0  0
  6 18  1  0  0  0  0
  7 19  1  0  0  0  0
  7  8  1  0  0  0  0
  8 17  1  0  0  0  0
  9 18  1  0  0  0  0
  9 11  2  0  0  0  0
 10 12  1  6  0  0  0
 10  4  1  0  0  0  0
 10 13  1  0  0  0  0
 13 15  1  1  0  0  0
 13 21  1  0  0  0  0
 14 15  1  0  0  0  0
 16  6  1  0  0  0  0
 17 43  1  1  0  0  0
 17  2  1  0  0  0  0
 18  5  2  0  0  0  0
 19  8  1  0  0  0  0
 20 23  1  1  0  0  0
 20  1  1  0  0  0  0
 21  9  1  1  0  0  0
 23 22  1  6  0  0  0
 24 25  1  1  0  0  0
 24 23  1  0  0  0  0
 27 29  1  0  0  0  0
 28 26  2  0  0  0  0
 29 24  1  6  0  0  0
 29 26  1  0  0  0  0
 30 28  1  0  0  0  0
 31 30  1  0  0  0  0
 31 27  1  0  0  0  0
 32 33  1  6  0  0  0
 32 35  1  0  0  0  0
 35 34  1  6  0  0  0
 35 40  1  0  0  0  0
 36 38  1  0  0  0  0
 37 38  1  6  0  0  0
 40 39  1  6  0  0  0
 40 41  1  0  0  0  0
 40 37  1  0  0  0  0
 41 42  1  6  0  0  0
 41 37  1  0  0  0  0
 42 36  1  0  0  0  0
 44 45  1  0  0  0  0
 45 43  1  0  0  0  0
M  END
>  <MODEL>
6

>  <REMARK>
 VINA RESULT:      -7.3      2.527      5.282
  Name = 
  8 active torsions:
  status: ('A' for Active; 'I' for Inactive)
    1  A    between atoms: C_6  and  C_16
    2  A    between atoms: C_6  and  C_21
    3  A    between atoms: C_16  and  C_41
    4  A    between atoms: C_17  and  C_35
    5  A    between atoms: C_20  and  C_44
    6  A    between atoms: C_32  and  C_36
    7  A    between atoms: C_32  and  C_38
    8  A    between atoms: C_35  and  C_44
                            x       y       z     vdW  Elec       q    Type
                         _______ _______ _______ _____ _____    ______ ____

>  <TORSDO>
F 8

$$$$
=
 OpenBabel11062420483D

 45 53  0  0  1  0  0  0  0  0999 V2000
  191.8000  172.8460  140.8890 C   0  0  1  0  0  0  0  0  0  0  0  0
  191.4360  171.5300  140.1850 C   0  0  2  0  0  3  0  0  0  0  0  0
  190.0740  174.1700  139.7800 O   0  0  0  0  0  0  0  0  0  0  0  0
  193.5550  173.3030  142.9720 C   0  0  1  0  0  3  0  0  0  0  0  0
  195.8460  173.0170  146.1300 O   0  0  0  0  0  0  0  0  0  0  0  0
  193.7590  173.8510  145.1650 C   0  0  1  0  0  3  0  0  0  0  0  0
  188.8040  173.2770  137.9320 C   0  0  0  0  0  2  0  0  0  0  0  0
  189.6740  172.9710  139.1320 C   0  0  0  0  0  0  0  0  0  0  0  0
  195.3430  172.1320  143.9630 C   0  0  0  0  0  0  0  0  0  0  0  0
  192.9790  172.7190  141.7350 C   0  0  2  0  0  0  0  0  0  0  0  0
  196.3620  171.2820  143.9300 C   0  0  0  0  0  2  0  0  0  0  0  0
  193.0390  173.4550  140.5410 O   0  0  0  0  0  0  0  0  0  0  0  0
  193.9390  171.5690  141.6860 C   0  0  2  0  0  3  0  0  0  0  0  0
  192.5300  170.6380  140.0200 O   0  0  0  0  0  0  0  0  0  0  0  0
  193.0780  170.3740  141.3020 C   0  0  0  0  0  2  0  0  0  0  0  0
  192.8060  173.5450  144.1270 O   0  0  0  0  0  0  0  0  0  0  0  0
  190.7290  171.8580  138.8720 C   0  0  2  0  0  3  0  0  0  0  0  0
  195.0540  172.9900  145.1490 C   0  0  0  0  0  0  0  0  0  0  0  0
  188.1920  172.6590  139.1810 C   0  0  0  0  0  2  0  0  0  0  0  0
  190.7020  173.9000  141.0240 C   0  0  1  0  0  3  0  0  0  0  0  0
  194.1190  171.8940  143.1740 C   0  0  2  0  0  3  0  0  0  0  0  0
  189.4220  172.3500  142.3560 O   0  0  0  0  0  1  0  0  0  0  0  0
  189.6860  173.7060  142.1620 C   0  0  2  0  0  3  0  0  0  0  0  0
  188.3830  174.4970  142.0010 C   0  0  1  0  0  3  0  0  0  0  0  0
  187.2950  173.6520  142.1440 F   0  0  0  0  0  0  0  0  0  0  0  0
  189.1490  176.8080  142.6110 C   0  0  0  0  0  3  0  0  0  0  0  0
  186.8390  176.0690  143.2320 C   0  0  0  0  0  2  0  0  0  0  0  0
  188.6210  177.8800  142.0140 C   0  0  0  0  0  3  0  0  0  0  0  0
  188.2960  175.6350  143.0230 C   0  0  1  0  0  3  0  0  0  0  0  0
  187.2420  177.9670  141.7780 O   0  0  0  0  0  0  0  0  0  0  0  0
  186.3590  176.8700  142.0230 C   0  0  0  0  0  2  0  0  0  0  0  0
  194.0690  175.3560  145.2090 C   0  0  2  0  0  3  0  0  0  0  0  0
  195.4510  175.5580  145.1520 O   0  0  0  0  0  1  0  0  0  0  0  0
  194.1760  177.1480  146.8570 O   0  0  0  0  0  1  0  0  0  0  0  0
  193.4740  176.0000  146.4770 C   0  0  1  0  0  3  0  0  0  0  0  0
  188.9180  176.2390  146.8810 C   0  0  0  0  0  2  0  0  0  0  0  0
  191.1800  176.6480  147.5660 C   0  0  2  0  0  3  0  0  0  0  0  0
  189.8640  177.3420  147.2590 C   0  0  0  0  0  2  0  0  0  0  0  0
  191.5170  176.7680  145.1240 O   0  0  0  0  0  1  0  0  0  0  0  0
  191.9760  176.3200  146.3720 C   0  0  1  0  0  0  0  0  0  0  0  0
  191.1250  175.2760  146.9990 N   0  0  2  0  0  0  0  0  0  0  0  0
  189.8210  175.1550  146.3440 C   0  0  0  0  0  2  0  0  0  0  0  0
  190.1200  170.5900  138.2660 C   0  0  0  0  0  2  0  0  0  0  0  0
  190.0310  170.7200  135.8840 O   0  0  0  0  0  1  0  0  0  0  0  0
  190.7900  170.2360  136.9490 C   0  0  0  0  0  2  0  0  0  0  0  0
  1 12  1  6  0  0  0
  1 20  1  0  0  0  0
  1 10  1  0  0  0  0
  2 14  1  6  0  0  0
  2  1  1  0  0  0  0
  3 20  1  0  0  0  0
  4 21  1  0  0  0  0
  4 16  1  1  0  0  0
  6 32  1  6  0  0  0
  7  8  1  0  0  0  0
  7 19  1  0  0  0  0
  8 19  1  0  0  0  0
  8  3  1  0  0  0  0
  9 18  1  0  0  0  0
 10 12  1  6  0  0  0
 10  4  1  0  0  0  0
 11  9  2  0  0  0  0
 13 15  1  1  0  0  0
 13 10  1  0  0  0  0
 13 21  1  0  0  0  0
 14 15  1  0  0  0  0
 16  6  1  0  0  0  0
 17 43  1  1  0  0  0
 17  8  1  0  0  0  0
 17  2  1  0  0  0  0
 18  6  1  0  0  0  0
 18  5  2  0  0  0  0
 20 23  1  1  0  0  0
 21  9  1  6  0  0  0
 23 22  1  6  0  0  0
 24 25  1  1  0  0  0
 24 23  1  0  0  0  0
 26 29  1  0  0  0  0
 28 26  2  0  0  0  0
 29 24  1  6  0  0  0
 29 27  1  0  0  0  0
 30 28  1  0  0  0  0
 30 31  1  0  0  0  0
 31 27  1  0  0  0  0
 32 33  1  1  0  0  0
 32 35  1  0  0  0  0
 35 34  1  6  0  0  0
 36 38  1  0  0  0  0
 37 38  1  6  0  0  0
 40 39  1  6  0  0  0
 40 35  1  0  0  0  0
 40 41  1  0  0  0  0
 40 37  1  0  0  0  0
 41 42  1  6  0  0  0
 41 37  1  0  0  0  0
 42 36  1  0  0  0  0
 44 45  1  0  0  0  0
 45 43  1  0  0  0  0
M  END
>  <MODEL>
7

>  <REMARK>
 VINA RESULT:      -7.2      2.837      6.650
  Name = 
  8 active torsions:
  status: ('A' for Active; 'I' for Inactive)
    1  A    between atoms: C_6  and  C_16
    2  A    between atoms: C_6  and  C_21
    3  A    between atoms: C_16  and  C_41
    4  A    between atoms: C_17  and  C_35
    5  A    between atoms: C_20  and  C_44
    6  A    between atoms: C_32  and  C_36
    7  A    between atoms: C_32  and  C_38
    8  A    between atoms: C_35  and  C_44
                            x       y       z     vdW  Elec       q    Type
                         _______ _______ _______ _____ _____    ______ ____

>  <TORSDO>
F 8

$$$$
=
 OpenBabel11062420483D

 45 53  0  0  1  0  0  0  0  0999 V2000
  192.3220  174.8680  145.1990 C   0  0  1  0  0  0  0  0  0  0  0  0
  192.0750  176.1240  146.0500 C   0  0  2  0  0  3  0  0  0  0  0  0
  190.2870  173.7210  145.9070 O   0  0  0  0  0  0  0  0  0  0  0  0
  194.2420  174.3990  143.2700 C   0  0  1  0  0  3  0  0  0  0  0  0
  196.9380  174.7050  140.4520 O   0  0  0  0  0  0  0  0  0  0  0  0
  194.6420  174.1160  141.0530 C   0  0  1  0  0  3  0  0  0  0  0  0
  188.9390  174.5670  147.7230 C   0  0  0  0  0  2  0  0  0  0  0  0
  189.9940  174.8750  146.6810 C   0  0  0  0  0  0  0  0  0  0  0  0
  196.3000  175.3710  142.6620 C   0  0  0  0  0  0  0  0  0  0  0  0
  193.6070  174.9050  144.5120 C   0  0  2  0  0  0  0  0  0  0  0  0
  197.4240  176.0250  142.9290 C   0  0  0  0  0  2  0  0  0  0  0  0
  193.4000  174.0200  145.5810 O   0  0  0  0  0  0  0  0  0  0  0  0
  194.7150  175.8600  144.8340 C   0  0  2  0  0  3  0  0  0  0  0  0
  193.2610  176.7890  146.4610 O   0  0  0  0  0  0  0  0  0  0  0  0
  194.0040  177.1230  145.3000 C   0  0  0  0  0  2  0  0  0  0  0  0
  193.6200  174.4400  142.0180 O   0  0  0  0  0  0  0  0  0  0  0  0
  191.1630  175.7510  147.2160 C   0  0  2  0  0  3  0  0  0  0  0  0
  196.0400  174.7360  141.3350 C   0  0  0  0  0  0  0  0  0  0  0  0
  188.5950  175.4370  146.5220 C   0  0  0  0  0  2  0  0  0  0  0  0
  191.1040  174.0420  144.7910 C   0  0  1  0  0  3  0  0  0  0  0  0
  195.0350  175.7070  143.3420 C   0  0  2  0  0  3  0  0  0  0  0  0
  190.5530  173.7900  142.4570 O   0  0  0  0  0  1  0  0  0  0  0  0
  190.2850  174.5520  143.5940 C   0  0  2  0  0  3  0  0  0  0  0  0
  190.4450  176.0470  143.2980 C   0  0  1  0  0  3  0  0  0  0  0  0
  190.8730  176.2280  141.9930 F   0  0  0  0  0  0  0  0  0  0  0  0
  189.1330  178.1300  142.8120 C   0  0  0  0  0  3  0  0  0  0  0  0
  187.9320  175.9510  143.0790 C   0  0  0  0  0  2  0  0  0  0  0  0
  188.5270  178.2940  141.6330 C   0  0  0  0  0  3  0  0  0  0  0  0
  189.1290  176.8000  143.5220 C   0  0  1  0  0  3  0  0  0  0  0  0
  187.8350  177.2370  141.0260 O   0  0  0  0  0  0  0  0  0  0  0  0
  187.8630  175.9100  141.5530 C   0  0  0  0  0  2  0  0  0  0  0  0
  194.7230  172.5990  140.8170 C   0  0  2  0  0  3  0  0  0  0  0  0
  195.0710  172.3430  139.4880 O   0  0  0  0  0  1  0  0  0  0  0  0
  192.7030  171.4830  140.0350 O   0  0  0  0  0  1  0  0  0  0  0  0
  193.3870  171.9180  141.1740 C   0  0  1  0  0  3  0  0  0  0  0  0
  193.0570  168.9560  144.6520 C   0  0  0  0  0  2  0  0  0  0  0  0
  192.3480  169.9820  142.6020 C   0  0  2  0  0  3  0  0  0  0  0  0
  192.6920  168.6410  143.2300 C   0  0  0  0  0  2  0  0  0  0  0  0
  194.7870  170.1610  142.2690 O   0  0  0  0  0  1  0  0  0  0  0  0
  193.5220  170.7600  142.1720 C   0  0  1  0  0  0  0  0  0  0  0  0
  192.8830  171.0550  143.4800 N   0  0  2  0  0  0  0  0  0  0  0  0
  193.5540  170.3800  144.5930 C   0  0  0  0  0  2  0  0  0  0  0  0
  190.6810  177.0130  147.9360 C   0  0  0  0  0  2  0  0  0  0  0  0
  191.1910  178.5600  149.6820 O   0  0  0  0  0  1  0  0  0  0  0  0
  191.5680  177.3370  149.1260 C   0  0  0  0  0  2  0  0  0  0  0  0
  1 12  1  1  0  0  0
  1  2  1  0  0  0  0
  2 14  1  1  0  0  0
  2 17  1  0  0  0  0
  3  8  1  0  0  0  0
  4 16  1  6  0  0  0
  4 21  1  0  0  0  0
  4 10  1  0  0  0  0
  5 18  2  0  0  0  0
  6 32  1  1  0  0  0
  6 18  1  0  0  0  0
  6 16  1  0  0  0  0
  8 17  1  0  0  0  0
  8  7  1  0  0  0  0
  9 11  2  0  0  0  0
 10 13  1  0  0  0  0
 10  1  1  0  0  0  0
 10 12  1  1  0  0  0
 13 15  1  6  0  0  0
 15 14  1  0  0  0  0
 17 43  1  6  0  0  0
 18  9  1  0  0  0  0
 19  8  1  0  0  0  0
 19  7  1  0  0  0  0
 20 23  1  6  0  0  0
 20  1  1  0  0  0  0
 20  3  1  0  0  0  0
 21  9  1  1  0  0  0
 21 13  1  0  0  0  0
 23 22  1  6  0  0  0
 24 25  1  6  0  0  0
 24 23  1  0  0  0  0
 26 29  1  0  0  0  0
 27 29  1  0  0  0  0
 28 26  2  0  0  0  0
 29 24  1  6  0  0  0
 30 31  1  0  0  0  0
 30 28  1  0  0  0  0
 31 27  1  0  0  0  0
 32 33  1  6  0  0  0
 32 35  1  0  0  0  0
 35 34  1  6  0  0  0
 35 40  1  0  0  0  0
 37 38  1  1  0  0  0
 37 41  1  0  0  0  0
 38 36  1  0  0  0  0
 40 39  1  1  0  0  0
 40 37  1  0  0  0  0
 40 41  1  0  0  0  0
 41 42  1  1  0  0  0
 42 36  1  0  0  0  0
 43 45  1  0  0  0  0
 45 44  1  0  0  0  0
M  END
>  <MODEL>
8

>  <REMARK>
 VINA RESULT:      -7.1      2.711      7.921
  Name = 
  8 active torsions:
  status: ('A' for Active; 'I' for Inactive)
    1  A    between atoms: C_6  and  C_16
    2  A    between atoms: C_6  and  C_21
    3  A    between atoms: C_16  and  C_41
    4  A    between atoms: C_17  and  C_35
    5  A    between atoms: C_20  and  C_44
    6  A    between atoms: C_32  and  C_36
    7  A    between atoms: C_32  and  C_38
    8  A    between atoms: C_35  and  C_44
                            x       y       z     vdW  Elec       q    Type
                         _______ _______ _______ _____ _____    ______ ____

>  <TORSDO>
F 8

$$$$
=
 OpenBabel11062420483D

 45 53  0  0  1  0  0  0  0  0999 V2000
  192.5650  175.1440  144.9400 C   0  0  1  0  0  0  0  0  0  0  0  0
  192.6570  175.8160  146.3180 C   0  0  2  0  0  3  0  0  0  0  0  0
  190.2400  174.4440  145.1920 O   0  0  0  0  0  0  0  0  0  0  0  0
  194.3670  175.1670  142.8470 C   0  0  1  0  0  3  0  0  0  0  0  0
  197.1950  176.0410  140.2890 O   0  0  0  0  0  0  0  0  0  0  0  0
  194.7960  175.9260  140.7500 C   0  0  1  0  0  3  0  0  0  0  0  0
  189.1020  174.6190  147.3140 C   0  0  0  0  0  2  0  0  0  0  0  0
  190.2620  175.0850  146.4590 C   0  0  0  0  0  0  0  0  0  0  0  0
  196.6550  175.6670  142.5910 C   0  0  0  0  0  0  0  0  0  0  0  0
  193.8400  175.1440  144.2330 C   0  0  2  0  0  0  0  0  0  0  0  0
  197.9050  175.7410  143.0310 C   0  0  0  0  0  2  0  0  0  0  0  0
  193.3120  173.9480  144.7430 O   0  0  0  0  0  0  0  0  0  0  0  0
  195.1630  175.4410  144.8700 C   0  0  2  0  0  3  0  0  0  0  0  0
  193.9610  175.8100  146.8820 O   0  0  0  0  0  0  0  0  0  0  0  0
  194.8380  176.4470  145.9660 C   0  0  0  0  0  2  0  0  0  0  0  0
  193.8630  176.0050  141.8480 O   0  0  0  0  0  0  0  0  0  0  0  0
  191.6060  175.1950  147.2350 C   0  0  2  0  0  3  0  0  0  0  0  0
  196.2960  175.8860  141.1580 C   0  0  0  0  0  0  0  0  0  0  0  0
  189.1090  176.0290  146.7400 C   0  0  0  0  0  2  0  0  0  0  0  0
  191.1810  175.0260  144.3030 C   0  0  1  0  0  3  0  0  0  0  0  0
  195.5110  175.9690  143.4730 C   0  0  2  0  0  3  0  0  0  0  0  0
  190.6920  177.3830  144.4510 O   0  0  0  0  0  1  0  0  0  0  0  0
  190.6280  176.2780  143.6020 C   0  0  2  0  0  3  0  0  0  0  0  0
  189.2180  176.1180  143.0220 C   0  0  1  0  0  3  0  0  0  0  0  0
  188.5630  175.0720  143.6520 F   0  0  0  0  0  0  0  0  0  0  0  0
  188.1590  178.0610  141.8400 C   0  0  0  0  0  3  0  0  0  0  0  0
  187.0810  177.1340  143.9000 C   0  0  0  0  0  2  0  0  0  0  0  0
  186.9990  177.9150  141.1950 C   0  0  0  0  0  3  0  0  0  0  0  0
  188.4050  177.4080  143.1760 C   0  0  1  0  0  3  0  0  0  0  0  0
  185.9510  177.1720  141.7550 O   0  0  0  0  0  0  0  0  0  0  0  0
  186.1140  176.4180  142.9580 C   0  0  0  0  0  2  0  0  0  0  0  0
  194.4300  174.7820  139.7910 C   0  0  2  0  0  3  0  0  0  0  0  0
  195.3640  173.7490  139.9070 O   0  0  0  0  0  1  0  0  0  0  0  0
  195.5060  174.9710  137.6130 O   0  0  0  0  0  1  0  0  0  0  0  0
  194.3540  175.2900  138.3380 C   0  0  1  0  0  3  0  0  0  0  0  0
  191.0150  172.9440  136.2590 C   0  0  0  0  0  2  0  0  0  0  0  0
  192.1860  173.8280  138.1560 C   0  0  2  0  0  3  0  0  0  0  0  0
  190.8230  173.7880  137.4850 C   0  0  0  0  0  2  0  0  0  0  0  0
  192.6260  175.6690  136.5720 O   0  0  0  0  0  1  0  0  0  0  0  0
  193.1120  174.8130  137.5730 C   0  0  1  0  0  0  0  0  0  0  0  0
  193.2030  173.3870  137.1670 N   0  0  2  0  0  0  0  0  0  0  0  0
  192.4770  173.1140  135.9250 C   0  0  0  0  0  2  0  0  0  0  0  0
  191.4840  176.0050  148.5280 C   0  0  0  0  0  2  0  0  0  0  0  0
  191.3660  178.2190  149.4150 O   0  0  0  0  0  1  0  0  0  0  0  0
  191.6660  177.4900  148.2630 C   0  0  0  0  0  2  0  0  0  0  0  0
  1 12  1  1  0  0  0
  1  2  1  0  0  0  0
  2 14  1  1  0  0  0
  2 17  1  0  0  0  0
  3  8  1  0  0  0  0
  4 16  1  6  0  0  0
  4 21  1  0  0  0  0
  4 10  1  0  0  0  0
  5 18  2  0  0  0  0
  6 32  1  1  0  0  0
  6 18  1  0  0  0  0
  6 16  1  0  0  0  0
  8 19  1  0  0  0  0
  8 17  1  0  0  0  0
  8  7  1  0  0  0  0
  9 11  2  0  0  0  0
 10 12  1  1  0  0  0
 10 13  1  0  0  0  0
 10  1  1  0  0  0  0
 13 15  1  1  0  0  0
 15 14  1  0  0  0  0
 17 43  1  1  0  0  0
 18  9  1  0  0  0  0
 19  7  1  0  0  0  0
 20 23  1  1  0  0  0
 20  1  1  0  0  0  0
 20  3  1  0  0  0  0
 21  9  1  6  0  0  0
 21 13  1  0  0  0  0
 23 22  1  1  0  0  0
 24 23  1  0  0  0  0
 24 25  1  1  0  0  0
 26 29  1  0  0  0  0
 28 30  1  0  0  0  0
 28 26  2  0  0  0  0
 29 24  1  6  0  0  0
 29 27  1  0  0  0  0
 30 31  1  0  0  0  0
 31 27  1  0  0  0  0
 32 33  1  6  0  0  0
 35 34  1  6  0  0  0
 35 32  1  0  0  0  0
 36 38  1  0  0  0  0
 37 38  1  6  0  0  0
 40 39  1  6  0  0  0
 40 37  1  0  0  0  0
 40 35  1  0  0  0  0
 41 42  1  6  0  0  0
 41 40  1  0  0  0  0
 41 37  1  0  0  0  0
 42 36  1  0  0  0  0
 45 43  1  0  0  0  0
 45 44  1  0  0  0  0
M  END
>  <MODEL>
9

>  <REMARK>
 VINA RESULT:      -7.1      3.321      8.268
  Name = 
  8 active torsions:
  status: ('A' for Active; 'I' for Inactive)
    1  A    between atoms: C_6  and  C_16
    2  A    between atoms: C_6  and  C_21
    3  A    between atoms: C_16  and  C_41
    4  A    between atoms: C_17  and  C_35
    5  A    between atoms: C_20  and  C_44
    6  A    between atoms: C_32  and  C_36
    7  A    between atoms: C_32  and  C_38
    8  A    between atoms: C_35  and  C_44
                            x       y       z     vdW  Elec       q    Type
                         _______ _______ _______ _____ _____    ______ ____

>  <TORSDO>
F 8

$$$$
