=
 OpenBabel11062420133D

 52 57  0  0  1  0  0  0  0  0999 V2000
  189.9290  172.4050  144.5700 C   0  0  0  0  0  1  0  0  0  0  0  0
  187.8450  174.5590  142.1070 C   0  0  0  0  0  2  0  0  0  0  0  0
  188.8980  174.9680  143.1490 C   0  0  1  0  0  3  0  0  0  0  0  0
  188.3380  174.6710  140.7370 N   0  0  0  0  0  0  0  0  0  0  0  0
  189.5480  173.8500  138.8360 N   0  0  0  0  0  0  0  0  0  0  0  0
  190.2570  172.8170  138.6100 N   0  0  0  0  0  0  0  0  0  0  0  0
  189.5910  172.5360  140.7540 C   0  0  0  0  0  0  0  0  0  0  0  0
  190.2950  172.7920  143.1530 C   0  0  1  0  0  3  0  0  0  0  0  0
  190.2950  171.9880  139.7780 C   0  0  0  0  0  0  0  0  0  0  0  0
  189.4130  172.0350  142.1590 C   0  0  0  0  0  2  0  0  0  0  0  0
  189.0730  173.7630  140.1670 C   0  0  0  0  0  0  0  0  0  0  0  0
  190.2780  174.3170  142.9720 C   0  0  0  0  0  2  0  0  0  0  0  0
  189.7710  176.9580  144.4020 C   0  0  0  0  0  0  0  0  0  0  0  0
  190.3850  178.0550  144.2680 O   0  0  0  0  0  0  0  0  0  0  0  0
  189.5020  174.8630  147.3380 C   0  0  0  0  0  3  0  0  0  0  0  0
  189.8590  176.2600  145.6570 N   0  0  0  0  0  0  0  0  0  0  0  0
  189.0190  176.4200  143.2910 N   0  0  0  0  0  0  0  0  0  0  0  0
  189.0930  175.2310  146.0640 C   0  0  0  0  0  3  0  0  0  0  0  0
  190.7240  176.5750  146.6060 N   0  0  0  0  0  0  0  0  0  0  0  0
  190.5350  175.7330  147.6450 C   0  0  0  0  0  3  0  0  0  0  0  0
  188.6820  177.2750  142.1570 C   0  0  0  0  0  2  0  0  0  0  0  0
  187.5470  178.2190  142.5230 C   0  0  0  0  0  2  0  0  0  0  0  0
  186.6520  177.5680  143.3770 O   0  0  0  0  0  0  0  0  0  0  0  0
  186.2570  178.5160  144.2590 N   0  0  0  0  0  2  0  0  0  0  0  0
  185.2400  177.9000  145.0940 C   0  0  0  0  0  2  0  0  0  0  0  0
  185.8310  176.7320  145.8670 C   0  0  0  0  0  2  0  0  0  0  0  0
  186.0960  177.1440  147.3040 C   0  0  0  0  0  2  0  0  0  0  0  0
  187.2660  177.9020  147.3650 O   0  0  0  0  0  1  0  0  0  0  0  0
  191.0370  170.6930  139.8640 C   0  0  0  0  0  2  0  0  0  0  0  0
  195.8930  170.2800  142.1490 C   0  0  0  0  0  2  0  0  0  0  0  0
  193.2140  169.6670  140.5050 C   0  0  0  0  0  2  0  0  0  0  0  0
  192.8760  172.1300  140.6240 C   0  0  0  0  0  2  0  0  0  0  0  0
  194.5150  169.8900  142.6860 C   0  0  0  0  0  2  0  0  0  0  0  0
  192.2150  170.7730  140.8210 C   0  0  1  0  0  3  0  0  0  0  0  0
  195.1370  172.7430  141.6230 C   0  0  2  0  0  3  0  0  0  0  0  0
  195.9060  171.4740  141.1850 C   0  0  2  0  0  3  0  0  0  0  0  0
  195.7350  171.0800  139.7270 C   0  0  0  0  0  1  0  0  0  0  0  0
  193.7320  168.9660  141.7530 C   0  0  0  0  0  2  0  0  0  0  0  0
  193.6390  172.5470  141.8710 C   0  0  0  0  0  2  0  0  0  0  0  0
  196.0780  175.0310  141.0240 C   0  0  0  0  0  0  0  0  0  0  0  0
  196.3390  175.8630  140.1160 O   0  0  0  0  0  0  0  0  0  0  0  0
  195.3540  173.8450  140.6920 N   0  0  0  0  0  2  0  0  0  0  0  0
  196.5420  175.2620  142.4390 C   0  0  2  0  0  3  0  0  0  0  0  0
  195.4400  175.9540  143.2290 C   0  0  2  0  0  3  0  0  0  0  0  0
  196.6600  176.7410  142.7810 C   0  0  0  0  0  2  0  0  0  0  0  0
  193.3620  174.2840  145.0250 C   0  0  0  0  0  2  0  0  0  0  0  0
  193.5300  171.9240  145.3490 O   0  0  0  0  0  1  0  0  0  0  0  0
  195.5640  173.1040  144.9600 C   0  0  0  0  0  2  0  0  0  0  0  0
  194.1820  173.1320  145.6000 C   0  0  1  0  0  3  0  0  0  0  0  0
  194.0570  175.6150  145.3200 C   0  0  0  0  0  2  0  0  0  0  0  0
  195.4710  175.6430  144.7410 C   0  0  1  0  0  3  0  0  0  0  0  0
  196.2980  174.4250  145.2120 C   0  0  0  0  0  2  0  0  0  0  0  0
  2  3  1  0  0  0  0
  3 17  1  6  0  0  0
  4  2  1  0  0  0  0
  5 11  1  0  0  0  0
  6  5  2  0  0  0  0
  6  9  1  0  0  0  0
  7 10  1  0  0  0  0
  8  1  1  1  0  0  0
  9 29  1  0  0  0  0
  9  7  2  0  0  0  0
 10  8  1  0  0  0  0
 11  4  2  0  0  0  0
 11  7  1  0  0  0  0
 12  3  1  0  0  0  0
 12  8  1  0  0  0  0
 13 16  1  0  0  0  0
 14 13  2  0  0  0  0
 15 20  1  0  0  0  0
 16 18  1  0  0  0  0
 16 19  1  0  0  0  0
 17 13  1  0  0  0  0
 18 15  2  0  0  0  0
 19 20  2  0  0  0  0
 21 22  1  0  0  0  0
 21 17  1  0  0  0  0
 22 23  1  0  0  0  0
 23 24  1  0  0  0  0
 24 25  1  0  0  0  0
 25 26  1  0  0  0  0
 26 27  1  0  0  0  0
 27 28  1  0  0  0  0
 30 33  1  0  0  0  0
 31 34  1  0  0  0  0
 31 38  1  0  0  0  0
 32 34  1  0  0  0  0
 32 39  1  0  0  0  0
 34 29  1  6  0  0  0
 35 42  1  6  0  0  0
 35 39  1  0  0  0  0
 36 37  1  6  0  0  0
 36 35  1  0  0  0  0
 36 30  1  0  0  0  0
 38 33  1  0  0  0  0
 41 40  2  0  0  0  0
 42 40  1  0  0  0  0
 43 40  1  6  0  0  0
 43 45  1  0  0  0  0
 43 44  1  0  0  0  0
 44 45  1  1  0  0  0
 44 51  1  0  0  0  0
 46 50  1  0  0  0  0
 46 49  1  0  0  0  0
 48 52  1  0  0  0  0
 48 49  1  0  0  0  0
 49 47  1  6  0  0  0
 51 52  1  6  0  0  0
 51 50  1  0  0  0  0
M  END
>  <MODEL>
1

>  <REMARK>
 VINA RESULT:      -7.3      0.000      0.000
  Name = 
  13 active torsions:
  status: ('A' for Active; 'I' for Inactive)
    1  A    between atoms: N_1  and  O_19
    2  A    between atoms: N_1  and  C_28
    3  A    between atoms: C_3  and  N_39
    4  A    between atoms: C_3  and  C_48
    5  A    between atoms: C_4  and  C_8
    6  A    between atoms: C_6  and  C_25
    7  A    between atoms: C_6  and  C_28
    8  A    between atoms: C_13  and  N_39
    9  A    between atoms: O_19  and  C_48
   10  A    between atoms: C_27  and  C_30
   11  A    between atoms: C_30  and  C_43
   12  A    between atoms: C_32  and  N_42
   13  A    between atoms: C_36  and  C_37
                            x       y       z     vdW  Elec       q    Type
                         _______ _______ _______ _____ _____    ______ ____

>  <TORSDO>
F 13

$$$$
=
 OpenBabel11062420133D

 52 57  0  0  1  0  0  0  0  0999 V2000
  188.9120  173.2740  140.0670 C   0  0  0  0  0  1  0  0  0  0  0  0
  192.4260  171.6400  140.2310 C   0  0  0  0  0  2  0  0  0  0  0  0
  191.9590  172.9450  139.5670 C   0  0  1  0  0  3  0  0  0  0  0  0
  193.2150  171.8750  141.4360 N   0  0  0  0  0  0  0  0  0  0  0  0
  193.4370  172.3470  143.7770 N   0  0  0  0  0  0  0  0  0  0  0  0
  192.6160  172.6000  144.7170 N   0  0  0  0  0  0  0  0  0  0  0  0
  191.2770  172.2930  142.9190 C   0  0  0  0  0  0  0  0  0  0  0  0
  189.9710  173.4790  141.1300 C   0  0  1  0  0  3  0  0  0  0  0  0
  191.2750  172.5690  144.2120 C   0  0  0  0  0  0  0  0  0  0  0  0
  190.1010  172.2200  141.9880 C   0  0  0  0  0  2  0  0  0  0  0  0
  192.6870  172.1300  142.5970 C   0  0  0  0  0  0  0  0  0  0  0  0
  191.2930  173.9560  140.5110 C   0  0  0  0  0  2  0  0  0  0  0  0
  192.6440  174.3900  137.6340 C   0  0  0  0  0  0  0  0  0  0  0  0
  193.3650  175.3760  137.3060 O   0  0  0  0  0  0  0  0  0  0  0  0
  189.6670  173.1300  136.0120 C   0  0  0  0  0  3  0  0  0  0  0  0
  191.4560  174.1120  136.8710 N   0  0  0  0  0  0  0  0  0  0  0  0
  193.0130  173.5850  138.7760 N   0  0  0  0  0  0  0  0  0  0  0  0
  190.7160  172.9900  136.9110 C   0  0  0  0  0  3  0  0  0  0  0  0
  190.9450  174.9540  135.9880 N   0  0  0  0  0  0  0  0  0  0  0  0
  189.8450  174.3830  135.4510 C   0  0  0  0  0  3  0  0  0  0  0  0
  194.3590  173.6810  139.3310 C   0  0  0  0  0  2  0  0  0  0  0  0
  194.4890  174.9250  140.1970 C   0  0  0  0  0  2  0  0  0  0  0  0
  195.7260  174.9170  140.8480 O   0  0  0  0  0  0  0  0  0  0  0  0
  195.4300  174.7590  142.1600 N   0  0  0  0  0  2  0  0  0  0  0  0
  194.3930  175.7310  142.4640 C   0  0  0  0  0  2  0  0  0  0  0  0
  194.3090  175.9570  143.9650 C   0  0  0  0  0  2  0  0  0  0  0  0
  195.6410  175.6240  144.6140 C   0  0  0  0  0  2  0  0  0  0  0  0
  195.4220  174.8850  145.7780 O   0  0  0  0  0  1  0  0  0  0  0  0
  190.0590  172.8190  145.0450 C   0  0  0  0  0  2  0  0  0  0  0  0
  190.2420  178.1910  144.7590 C   0  0  0  0  0  2  0  0  0  0  0  0
  191.0490  175.1040  145.0370 C   0  0  0  0  0  2  0  0  0  0  0  0
  188.7880  174.6870  144.0860 C   0  0  0  0  0  2  0  0  0  0  0  0
  190.0920  177.2730  145.9740 C   0  0  0  0  0  2  0  0  0  0  0  0
  189.7630  174.3030  145.1900 C   0  0  1  0  0  3  0  0  0  0  0  0
  188.2010  177.0990  143.5150 C   0  0  2  0  0  3  0  0  0  0  0  0
  189.6430  177.6520  143.4540 C   0  0  2  0  0  3  0  0  0  0  0  0
  190.6220  176.8310  142.6300 C   0  0  0  0  0  1  0  0  0  0  0  0
  191.1830  176.2080  146.0770 C   0  0  0  0  0  2  0  0  0  0  0  0
  187.9910  175.9230  144.4730 C   0  0  0  0  0  2  0  0  0  0  0  0
  186.6870  177.5030  141.5090 C   0  0  0  0  0  0  0  0  0  0  0  0
  186.4240  177.2250  140.3080 O   0  0  0  0  0  0  0  0  0  0  0  0
  187.7030  176.7610  142.1860 N   0  0  0  0  0  2  0  0  0  0  0  0
  185.9650  178.6170  142.2190 C   0  0  2  0  0  3  0  0  0  0  0  0
  185.1570  178.0430  143.3760 C   0  0  2  0  0  3  0  0  0  0  0  0
  184.4500  178.4960  142.1080 C   0  0  0  0  0  2  0  0  0  0  0  0
  184.3660  177.4760  146.4380 C   0  0  0  0  0  2  0  0  0  0  0  0
  185.9850  177.0500  148.1410 O   0  0  0  0  0  1  0  0  0  0  0  0
  186.6720  178.4300  146.3230 C   0  0  0  0  0  2  0  0  0  0  0  0
  185.5340  178.0260  147.2510 C   0  0  1  0  0  3  0  0  0  0  0  0
  183.8480  178.5500  145.4800 C   0  0  0  0  0  2  0  0  0  0  0  0
  184.9520  179.0350  144.5410 C   0  0  1  0  0  3  0  0  0  0  0  0
  186.2000  179.4950  145.3280 C   0  0  0  0  0  2  0  0  0  0  0  0
  2  4  1  0  0  0  0
  3 17  1  1  0  0  0
  3  2  1  0  0  0  0
  3 12  1  0  0  0  0
  4 11  2  0  0  0  0
  5  6  2  0  0  0  0
  7  9  2  0  0  0  0
  8  1  1  6  0  0  0
  8 10  1  0  0  0  0
  9  6  1  0  0  0  0
  9 29  1  0  0  0  0
 10  7  1  0  0  0  0
 11  7  1  0  0  0  0
 11  5  1  0  0  0  0
 12  8  1  0  0  0  0
 13 17  1  0  0  0  0
 14 13  2  0  0  0  0
 15 18  2  0  0  0  0
 16 18  1  0  0  0  0
 16 13  1  0  0  0  0
 17 21  1  0  0  0  0
 19 16  1  0  0  0  0
 20 19  2  0  0  0  0
 20 15  1  0  0  0  0
 21 22  1  0  0  0  0
 22 23  1  0  0  0  0
 23 24  1  0  0  0  0
 24 25  1  0  0  0  0
 25 26  1  0  0  0  0
 26 27  1  0  0  0  0
 27 28  1  0  0  0  0
 30 33  1  0  0  0  0
 31 34  1  0  0  0  0
 31 38  1  0  0  0  0
 32 39  1  0  0  0  0
 32 34  1  0  0  0  0
 33 38  1  0  0  0  0
 34 29  1  6  0  0  0
 35 42  1  6  0  0  0
 35 39  1  0  0  0  0
 36 37  1  1  0  0  0
 36 35  1  0  0  0  0
 36 30  1  0  0  0  0
 40 42  1  0  0  0  0
 41 40  2  0  0  0  0
 43 40  1  6  0  0  0
 43 44  1  0  0  0  0
 44 45  1  6  0  0  0
 44 51  1  0  0  0  0
 45 43  1  0  0  0  0
 46 49  1  0  0  0  0
 48 49  1  0  0  0  0
 49 47  1  1  0  0  0
 50 46  1  0  0  0  0
 51 52  1  1  0  0  0
 51 50  1  0  0  0  0
 52 48  1  0  0  0  0
M  END
>  <MODEL>
2

>  <REMARK>
 VINA RESULT:      -6.9      2.338      8.517
  Name = 
  13 active torsions:
  status: ('A' for Active; 'I' for Inactive)
    1  A    between atoms: N_1  and  O_19
    2  A    between atoms: N_1  and  C_28
    3  A    between atoms: C_3  and  N_39
    4  A    between atoms: C_3  and  C_48
    5  A    between atoms: C_4  and  C_8
    6  A    between atoms: C_6  and  C_25
    7  A    between atoms: C_6  and  C_28
    8  A    between atoms: C_13  and  N_39
    9  A    between atoms: O_19  and  C_48
   10  A    between atoms: C_27  and  C_30
   11  A    between atoms: C_30  and  C_43
   12  A    between atoms: C_32  and  N_42
   13  A    between atoms: C_36  and  C_37
                            x       y       z     vdW  Elec       q    Type
                         _______ _______ _______ _____ _____    ______ ____

>  <TORSDO>
F 13

$$$$
=
 OpenBabel11062420133D

 52 57  0  0  1  0  0  0  0  0999 V2000
  189.9700  172.3470  144.5480 C   0  0  0  0  0  1  0  0  0  0  0  0
  188.0440  174.6000  142.0450 C   0  0  0  0  0  2  0  0  0  0  0  0
  189.0900  174.9570  143.1140 C   0  0  1  0  0  3  0  0  0  0  0  0
  188.5740  174.6930  140.6880 N   0  0  0  0  0  0  0  0  0  0  0  0
  189.7910  173.8230  138.8130 N   0  0  0  0  0  0  0  0  0  0  0  0
  190.4580  172.7600  138.5990 N   0  0  0  0  0  0  0  0  0  0  0  0
  189.7290  172.5040  140.7260 C   0  0  0  0  0  0  0  0  0  0  0  0
  190.3870  172.7210  143.1420 C   0  0  1  0  0  3  0  0  0  0  0  0
  190.4310  171.9270  139.7650 C   0  0  0  0  0  0  0  0  0  0  0  0
  189.4950  172.0070  142.1240 C   0  0  0  0  0  2  0  0  0  0  0  0
  189.2810  173.7540  140.1320 C   0  0  0  0  0  0  0  0  0  0  0  0
  190.4430  174.2460  142.9670 C   0  0  0  0  0  2  0  0  0  0  0  0
  189.9800  176.9050  144.4190 C   0  0  0  0  0  0  0  0  0  0  0  0
  190.6540  177.9710  144.3230 O   0  0  0  0  0  0  0  0  0  0  0  0
  189.4320  174.8320  147.3320 C   0  0  0  0  0  3  0  0  0  0  0  0
  189.9580  176.2060  145.6770 N   0  0  0  0  0  0  0  0  0  0  0  0
  189.2730  176.4020  143.2630 N   0  0  0  0  0  0  0  0  0  0  0  0
  189.1200  175.2170  146.0350 C   0  0  0  0  0  3  0  0  0  0  0  0
  190.7790  176.4810  146.6760 N   0  0  0  0  0  0  0  0  0  0  0  0
  190.4850  175.6520  147.7020 C   0  0  0  0  0  3  0  0  0  0  0  0
  189.0480  177.2700  142.1120 C   0  0  0  0  0  2  0  0  0  0  0  0
  187.6530  177.8760  142.1680 C   0  0  0  0  0  2  0  0  0  0  0  0
  187.1330  177.9760  140.8740 O   0  0  0  0  0  0  0  0  0  0  0  0
  185.8560  177.5350  140.9740 N   0  0  0  0  0  2  0  0  0  0  0  0
  185.2470  178.2910  142.0550 C   0  0  0  0  0  2  0  0  0  0  0  0
  183.7380  178.1110  142.0360 C   0  0  0  0  0  2  0  0  0  0  0  0
  183.1700  178.6340  140.7280 C   0  0  0  0  0  2  0  0  0  0  0  0
  182.4990  177.6070  140.0650 O   0  0  0  0  0  1  0  0  0  0  0  0
  191.1110  170.5990  139.8640 C   0  0  0  0  0  2  0  0  0  0  0  0
  196.0840  170.2020  141.8840 C   0  0  0  0  0  2  0  0  0  0  0  0
  193.3540  169.6150  140.3180 C   0  0  0  0  0  2  0  0  0  0  0  0
  192.9300  172.0440  140.6570 C   0  0  0  0  0  2  0  0  0  0  0  0
  194.7490  169.7120  142.4490 C   0  0  0  0  0  2  0  0  0  0  0  0
  192.3310  170.6490  140.7700 C   0  0  1  0  0  3  0  0  0  0  0  0
  195.2130  172.6660  141.6010 C   0  0  2  0  0  3  0  0  0  0  0  0
  196.0060  171.4700  141.0240 C   0  0  2  0  0  3  0  0  0  0  0  0
  195.7800  171.1890  139.5480 C   0  0  0  0  0  1  0  0  0  0  0  0
  193.9570  168.8370  141.4780 C   0  0  0  0  0  2  0  0  0  0  0  0
  193.7370  172.3890  141.8990 C   0  0  0  0  0  2  0  0  0  0  0  0
  196.0060  175.0450  141.1670 C   0  0  0  0  0  0  0  0  0  0  0  0
  196.1970  175.9600  140.3230 O   0  0  0  0  0  0  0  0  0  0  0  0
  195.3440  173.8480  140.7570 N   0  0  0  0  0  2  0  0  0  0  0  0
  196.4910  175.1920  142.5860 C   0  0  2  0  0  3  0  0  0  0  0  0
  195.3830  175.7900  143.4430 C   0  0  2  0  0  3  0  0  0  0  0  0
  196.5690  176.6470  143.0300 C   0  0  0  0  0  2  0  0  0  0  0  0
  193.3970  173.9310  145.1530 C   0  0  0  0  0  2  0  0  0  0  0  0
  193.6450  171.5610  145.3070 O   0  0  0  0  0  1  0  0  0  0  0  0
  195.6330  172.8320  144.9660 C   0  0  0  0  0  2  0  0  0  0  0  0
  194.2640  172.7690  145.6300 C   0  0  1  0  0  3  0  0  0  0  0  0
  194.0550  175.2590  145.5300 C   0  0  0  0  0  2  0  0  0  0  0  0
  195.4560  175.3740  144.9280 C   0  0  1  0  0  3  0  0  0  0  0  0
  196.3290  174.1550  145.2970 C   0  0  0  0  0  2  0  0  0  0  0  0
  2  3  1  0  0  0  0
  3 17  1  6  0  0  0
  4  2  1  0  0  0  0
  5 11  1  0  0  0  0
  6  5  2  0  0  0  0
  6  9  1  0  0  0  0
  7 10  1  0  0  0  0
  8  1  1  1  0  0  0
  9 29  1  0  0  0  0
  9  7  2  0  0  0  0
 10  8  1  0  0  0  0
 11  4  2  0  0  0  0
 11  7  1  0  0  0  0
 12  3  1  0  0  0  0
 12  8  1  0  0  0  0
 13 16  1  0  0  0  0
 14 13  2  0  0  0  0
 15 20  1  0  0  0  0
 16 18  1  0  0  0  0
 16 19  1  0  0  0  0
 17 13  1  0  0  0  0
 18 15  2  0  0  0  0
 19 20  2  0  0  0  0
 21 22  1  0  0  0  0
 21 17  1  0  0  0  0
 23 24  1  0  0  0  0
 23 22  1  0  0  0  0
 24 25  1  0  0  0  0
 26 25  1  0  0  0  0
 27 26  1  0  0  0  0
 28 27  1  0  0  0  0
 30 33  1  0  0  0  0
 31 34  1  0  0  0  0
 31 38  1  0  0  0  0
 32 34  1  0  0  0  0
 32 39  1  0  0  0  0
 34 29  1  6  0  0  0
 35 42  1  6  0  0  0
 35 39  1  0  0  0  0
 36 37  1  6  0  0  0
 36 35  1  0  0  0  0
 36 30  1  0  0  0  0
 38 33  1  0  0  0  0
 41 40  2  0  0  0  0
 42 40  1  0  0  0  0
 43 40  1  6  0  0  0
 43 45  1  0  0  0  0
 43 44  1  0  0  0  0
 44 45  1  1  0  0  0
 44 51  1  0  0  0  0
 46 50  1  0  0  0  0
 46 49  1  0  0  0  0
 48 52  1  0  0  0  0
 48 49  1  0  0  0  0
 49 47  1  6  0  0  0
 51 52  1  6  0  0  0
 51 50  1  0  0  0  0
M  END
>  <MODEL>
3

>  <REMARK>
 VINA RESULT:      -6.9      1.311      1.870
  Name = 
  13 active torsions:
  status: ('A' for Active; 'I' for Inactive)
    1  A    between atoms: N_1  and  O_19
    2  A    between atoms: N_1  and  C_28
    3  A    between atoms: C_3  and  N_39
    4  A    between atoms: C_3  and  C_48
    5  A    between atoms: C_4  and  C_8
    6  A    between atoms: C_6  and  C_25
    7  A    between atoms: C_6  and  C_28
    8  A    between atoms: C_13  and  N_39
    9  A    between atoms: O_19  and  C_48
   10  A    between atoms: C_27  and  C_30
   11  A    between atoms: C_30  and  C_43
   12  A    between atoms: C_32  and  N_42
   13  A    between atoms: C_36  and  C_37
                            x       y       z     vdW  Elec       q    Type
                         _______ _______ _______ _____ _____    ______ ____

>  <TORSDO>
F 13

$$$$
=
 OpenBabel11062420133D

 52 57  0  0  1  0  0  0  0  0999 V2000
  186.0760  177.0430  141.9930 C   0  0  0  0  0  1  0  0  0  0  0  0
  189.5460  177.4880  143.6700 C   0  0  0  0  0  2  0  0  0  0  0  0
  188.1520  177.2960  144.2890 C   0  0  1  0  0  3  0  0  0  0  0  0
  190.3830  176.2980  143.7950 N   0  0  0  0  0  0  0  0  0  0  0  0
  191.1150  174.1260  143.0890 N   0  0  0  0  0  0  0  0  0  0  0  0
  190.7550  173.3180  142.1740 N   0  0  0  0  0  0  0  0  0  0  0  0
  189.3690  175.0840  141.8910 C   0  0  0  0  0  0  0  0  0  0  0  0
  187.0610  175.9550  142.3670 C   0  0  1  0  0  3  0  0  0  0  0  0
  189.6800  173.8890  141.4170 C   0  0  0  0  0  0  0  0  0  0  0  0
  188.2710  176.0020  141.4340 C   0  0  0  0  0  2  0  0  0  0  0  0
  190.3020  175.2800  142.9900 C   0  0  0  0  0  0  0  0  0  0  0  0
  187.4170  176.0190  143.8600 C   0  0  0  0  0  2  0  0  0  0  0  0
  186.9080  177.6330  146.4410 C   0  0  0  0  0  0  0  0  0  0  0  0
  186.7640  177.1830  147.6140 O   0  0  0  0  0  0  0  0  0  0  0  0
  184.5690  179.5450  144.4520 C   0  0  0  0  0  3  0  0  0  0  0  0
  185.8050  178.3160  145.8170 N   0  0  0  0  0  0  0  0  0  0  0  0
  188.1590  177.4310  145.7470 N   0  0  0  0  0  0  0  0  0  0  0  0
  185.8470  179.0630  144.6990 C   0  0  0  0  0  3  0  0  0  0  0  0
  184.5750  178.3050  146.3020 N   0  0  0  0  0  0  0  0  0  0  0  0
  183.7940  179.0450  145.4840 C   0  0  0  0  0  3  0  0  0  0  0  0
  189.3490  177.0300  146.4920 C   0  0  0  0  0  2  0  0  0  0  0  0
  189.2920  175.5460  146.8240 C   0  0  0  0  0  2  0  0  0  0  0  0
  190.3060  175.2300  147.7340 O   0  0  0  0  0  0  0  0  0  0  0  0
  191.3700  175.9710  147.3440 N   0  0  0  0  0  2  0  0  0  0  0  0
  192.3600  175.0320  146.8440 C   0  0  0  0  0  2  0  0  0  0  0  0
  193.2250  175.6950  145.7840 C   0  0  0  0  0  2  0  0  0  0  0  0
  194.5490  176.1240  146.3910 C   0  0  0  0  0  2  0  0  0  0  0  0
  194.7170  177.4990  146.2200 O   0  0  0  0  0  1  0  0  0  0  0  0
  189.0140  173.2130  140.2620 C   0  0  0  0  0  2  0  0  0  0  0  0
  191.3940  170.4140  136.3280 C   0  0  0  0  0  2  0  0  0  0  0  0
  189.2460  171.5750  138.4000 C   0  0  0  0  0  2  0  0  0  0  0  0
  190.9040  173.4040  138.7080 C   0  0  0  0  0  2  0  0  0  0  0  0
  191.2250  170.0800  137.8120 C   0  0  0  0  0  2  0  0  0  0  0  0
  189.9990  172.4120  139.4250 C   0  0  1  0  0  3  0  0  0  0  0  0
  192.5050  172.7400  136.8410 C   0  0  2  0  0  3  0  0  0  0  0  0
  191.5070  171.9090  136.0020 C   0  0  2  0  0  3  0  0  0  0  0  0
  190.1670  172.5740  135.7340 C   0  0  0  0  0  1  0  0  0  0  0  0
  189.7770  170.1520  138.2960 C   0  0  0  0  0  2  0  0  0  0  0  0
  192.2340  172.7610  138.3480 C   0  0  0  0  0  2  0  0  0  0  0  0
  193.8520  174.8280  136.2900 C   0  0  0  0  0  0  0  0  0  0  0  0
  193.8860  175.9410  135.7010 O   0  0  0  0  0  0  0  0  0  0  0  0
  192.6230  174.1020  136.3310 N   0  0  0  0  0  2  0  0  0  0  0  0
  195.0920  174.2500  136.9200 C   0  0  2  0  0  3  0  0  0  0  0  0
  195.5570  175.1560  138.0520 C   0  0  2  0  0  3  0  0  0  0  0  0
  196.3130  175.1420  136.7330 C   0  0  0  0  0  2  0  0  0  0  0  0
  196.5470  176.2150  140.9200 C   0  0  0  0  0  2  0  0  0  0  0  0
  195.1910  176.1110  142.8830 O   0  0  0  0  0  1  0  0  0  0  0  0
  194.8160  174.4390  141.2250 C   0  0  0  0  0  2  0  0  0  0  0  0
  195.8380  175.3200  141.9320 C   0  0  1  0  0  3  0  0  0  0  0  0
  197.2830  175.3540  139.8910 C   0  0  0  0  0  2  0  0  0  0  0  0
  196.3210  174.4110  139.1680 C   0  0  1  0  0  3  0  0  0  0  0  0
  195.5000  173.5670  140.1690 C   0  0  0  0  0  2  0  0  0  0  0  0
  2  4  1  0  0  0  0
  2  3  1  0  0  0  0
  3 17  1  1  0  0  0
  6  5  2  0  0  0  0
  7 11  1  0  0  0  0
  8  1  1  6  0  0  0
  8 12  1  0  0  0  0
  9  7  2  0  0  0  0
  9  6  1  0  0  0  0
 10  7  1  0  0  0  0
 10  8  1  0  0  0  0
 11  5  1  0  0  0  0
 11  4  2  0  0  0  0
 12  3  1  0  0  0  0
 13 14  2  0  0  0  0
 15 18  2  0  0  0  0
 15 20  1  0  0  0  0
 16 19  1  0  0  0  0
 16 13  1  0  0  0  0
 17 13  1  0  0  0  0
 17 21  1  0  0  0  0
 18 16  1  0  0  0  0
 20 19  2  0  0  0  0
 21 22  1  0  0  0  0
 22 23  1  0  0  0  0
 24 23  1  0  0  0  0
 25 24  1  0  0  0  0
 26 27  1  0  0  0  0
 26 25  1  0  0  0  0
 28 27  1  0  0  0  0
 29  9  1  0  0  0  0
 30 33  1  0  0  0  0
 31 34  1  0  0  0  0
 32 34  1  0  0  0  0
 33 38  1  0  0  0  0
 34 29  1  6  0  0  0
 35 42  1  6  0  0  0
 35 39  1  0  0  0  0
 36 37  1  1  0  0  0
 36 30  1  0  0  0  0
 36 35  1  0  0  0  0
 38 31  1  0  0  0  0
 39 32  1  0  0  0  0
 40 42  1  0  0  0  0
 41 40  2  0  0  0  0
 43 40  1  6  0  0  0
 43 44  1  0  0  0  0
 44 45  1  6  0  0  0
 44 51  1  0  0  0  0
 45 43  1  0  0  0  0
 46 49  1  0  0  0  0
 48 49  1  0  0  0  0
 49 47  1  1  0  0  0
 50 46  1  0  0  0  0
 51 50  1  1  0  0  0
 51 52  1  0  0  0  0
 52 48  1  0  0  0  0
M  END
>  <MODEL>
4

>  <REMARK>
 VINA RESULT:      -6.4      2.550      5.374
  Name = 
  13 active torsions:
  status: ('A' for Active; 'I' for Inactive)
    1  A    between atoms: N_1  and  O_19
    2  A    between atoms: N_1  and  C_28
    3  A    between atoms: C_3  and  N_39
    4  A    between atoms: C_3  and  C_48
    5  A    between atoms: C_4  and  C_8
    6  A    between atoms: C_6  and  C_25
    7  A    between atoms: C_6  and  C_28
    8  A    between atoms: C_13  and  N_39
    9  A    between atoms: O_19  and  C_48
   10  A    between atoms: C_27  and  C_30
   11  A    between atoms: C_30  and  C_43
   12  A    between atoms: C_32  and  N_42
   13  A    between atoms: C_36  and  C_37
                            x       y       z     vdW  Elec       q    Type
                         _______ _______ _______ _____ _____    ______ ____

>  <TORSDO>
F 13

$$$$
=
 OpenBabel11062420133D

 52 57  0  0  1  0  0  0  0  0999 V2000
  193.5080  171.9190  145.0390 C   0  0  0  0  0  1  0  0  0  0  0  0
  196.7590  173.2850  143.4210 C   0  0  0  0  0  2  0  0  0  0  0  0
  195.4970  172.6860  142.7800 C   0  0  1  0  0  3  0  0  0  0  0  0
  196.8530  174.7300  143.2310 N   0  0  0  0  0  0  0  0  0  0  0  0
  196.3090  176.9930  143.8090 N   0  0  0  0  0  0  0  0  0  0  0  0
  195.5430  177.5340  144.6710 N   0  0  0  0  0  0  0  0  0  0  0  0
  195.2790  175.3180  145.0500 C   0  0  0  0  0  0  0  0  0  0  0  0
  193.7910  173.3420  144.6070 C   0  0  1  0  0  3  0  0  0  0  0  0
  194.8980  176.5190  145.4520 C   0  0  0  0  0  0  0  0  0  0  0  0
  194.8080  173.9830  145.5520 C   0  0  0  0  0  2  0  0  0  0  0  0
  196.2180  175.5900  143.9720 C   0  0  0  0  0  0  0  0  0  0  0  0
  194.1850  173.4050  143.1240 C   0  0  0  0  0  2  0  0  0  0  0  0
  194.9830  171.3790  140.7020 C   0  0  0  0  0  0  0  0  0  0  0  0
  194.5690  171.4830  139.5110 O   0  0  0  0  0  0  0  0  0  0  0  0
  194.8770  168.4990  142.8870 C   0  0  0  0  0  3  0  0  0  0  0  0
  194.7720  170.1420  141.4060 N   0  0  0  0  0  0  0  0  0  0  0  0
  195.6310  172.5060  141.3330 N   0  0  0  0  0  0  0  0  0  0  0  0
  195.3460  169.7650  142.5630 C   0  0  0  0  0  3  0  0  0  0  0  0
  193.9730  169.1830  140.9700 N   0  0  0  0  0  0  0  0  0  0  0  0
  194.0110  168.1670  141.8590 C   0  0  0  0  0  3  0  0  0  0  0  0
  196.1130  173.6180  140.5200 C   0  0  0  0  0  2  0  0  0  0  0  0
  197.4530  173.2720  139.8880 C   0  0  0  0  0  2  0  0  0  0  0  0
  197.8770  174.3300  139.0780 O   0  0  0  0  0  0  0  0  0  0  0  0
  197.2800  174.1150  137.8820 N   0  0  0  0  0  2  0  0  0  0  0  0
  197.2700  175.3960  137.1950 C   0  0  0  0  0  2  0  0  0  0  0  0
  196.3350  175.3420  135.9980 C   0  0  0  0  0  2  0  0  0  0  0  0
  196.8520  176.2490  134.8950 C   0  0  0  0  0  2  0  0  0  0  0  0
  196.4310  177.5580  135.1310 O   0  0  0  0  0  1  0  0  0  0  0  0
  193.9320  176.7980  146.5580 C   0  0  0  0  0  2  0  0  0  0  0  0
  188.7460  175.3640  146.6870 C   0  0  0  0  0  2  0  0  0  0  0  0
  191.6640  176.3980  147.5050 C   0  0  0  0  0  2  0  0  0  0  0  0
  192.0060  176.6040  145.0490 C   0  0  0  0  0  2  0  0  0  0  0  0
  190.0040  174.5400  146.9690 C   0  0  0  0  0  2  0  0  0  0  0  0
  192.6050  176.0870  146.3490 C   0  0  1  0  0  3  0  0  0  0  0  0
  189.6120  176.1230  144.3240 C   0  0  2  0  0  3  0  0  0  0  0  0
  188.9170  176.4880  145.6560 C   0  0  2  0  0  3  0  0  0  0  0  0
  189.3360  177.8140  146.2680 C   0  0  0  0  0  1  0  0  0  0  0  0
  190.9260  175.1670  148.0130 C   0  0  0  0  0  2  0  0  0  0  0  0
  191.0410  175.5890  144.4560 C   0  0  0  0  0  2  0  0  0  0  0  0
  188.6770  177.3060  142.2740 C   0  0  0  0  0  0  0  0  0  0  0  0
  188.6170  178.3690  141.6000 O   0  0  0  0  0  0  0  0  0  0  0  0
  189.5750  177.2370  143.3820 N   0  0  0  0  0  2  0  0  0  0  0  0
  187.7980  176.1300  141.9380 C   0  0  2  0  0  3  0  0  0  0  0  0
  188.5590  175.1670  141.0370 C   0  0  2  0  0  3  0  0  0  0  0  0
  187.4680  176.0510  140.4530 C   0  0  0  0  0  2  0  0  0  0  0  0
  190.1260  172.4570  140.3120 C   0  0  0  0  0  2  0  0  0  0  0  0
  191.5480  171.3250  141.8620 O   0  0  0  0  0  1  0  0  0  0  0  0
  189.7400  172.5780  142.7780 C   0  0  0  0  0  2  0  0  0  0  0  0
  190.2230  171.6980  141.6330 C   0  0  1  0  0  3  0  0  0  0  0  0
  188.6710  172.8440  140.0420 C   0  0  0  0  0  2  0  0  0  0  0  0
  188.1040  173.6980  141.1750 C   0  0  1  0  0  3  0  0  0  0  0  0
  188.2890  173.0090  142.5460 C   0  0  0  0  0  2  0  0  0  0  0  0
  3 17  1  6  0  0  0
  3 12  1  0  0  0  0
  3  2  1  0  0  0  0
  4  2  1  0  0  0  0
  4 11  2  0  0  0  0
  5 11  1  0  0  0  0
  5  6  2  0  0  0  0
  6  9  1  0  0  0  0
  7  9  2  0  0  0  0
  7 10  1  0  0  0  0
  8  1  1  1  0  0  0
  8 10  1  0  0  0  0
  9 29  1  0  0  0  0
 11  7  1  0  0  0  0
 12  8  1  0  0  0  0
 13 17  1  0  0  0  0
 13 16  1  0  0  0  0
 14 13  2  0  0  0  0
 16 18  1  0  0  0  0
 18 15  2  0  0  0  0
 19 16  1  0  0  0  0
 19 20  2  0  0  0  0
 20 15  1  0  0  0  0
 21 17  1  0  0  0  0
 22 21  1  0  0  0  0
 23 22  1  0  0  0  0
 24 23  1  0  0  0  0
 25 24  1  0  0  0  0
 26 25  1  0  0  0  0
 27 28  1  0  0  0  0
 27 26  1  0  0  0  0
 30 33  1  0  0  0  0
 31 38  1  0  0  0  0
 32 34  1  0  0  0  0
 33 38  1  0  0  0  0
 34 29  1  1  0  0  0
 34 31  1  0  0  0  0
 35 42  1  6  0  0  0
 35 39  1  0  0  0  0
 35 36  1  0  0  0  0
 36 37  1  1  0  0  0
 36 30  1  0  0  0  0
 39 32  1  0  0  0  0
 40 42  1  0  0  0  0
 41 40  2  0  0  0  0
 43 40  1  6  0  0  0
 44 45  1  6  0  0  0
 44 51  1  0  0  0  0
 44 43  1  0  0  0  0
 45 43  1  0  0  0  0
 46 49  1  0  0  0  0
 49 47  1  1  0  0  0
 49 48  1  0  0  0  0
 50 46  1  0  0  0  0
 51 50  1  6  0  0  0
 51 52  1  0  0  0  0
 52 48  1  0  0  0  0
M  END
>  <MODEL>
5

>  <REMARK>
 VINA RESULT:      -6.4      2.568      9.158
  Name = 
  13 active torsions:
  status: ('A' for Active; 'I' for Inactive)
    1  A    between atoms: N_1  and  O_19
    2  A    between atoms: N_1  and  C_28
    3  A    between atoms: C_3  and  N_39
    4  A    between atoms: C_3  and  C_48
    5  A    between atoms: C_4  and  C_8
    6  A    between atoms: C_6  and  C_25
    7  A    between atoms: C_6  and  C_28
    8  A    between atoms: C_13  and  N_39
    9  A    between atoms: O_19  and  C_48
   10  A    between atoms: C_27  and  C_30
   11  A    between atoms: C_30  and  C_43
   12  A    between atoms: C_32  and  N_42
   13  A    between atoms: C_36  and  C_37
                            x       y       z     vdW  Elec       q    Type
                         _______ _______ _______ _____ _____    ______ ____

>  <TORSDO>
F 13

$$$$
=
 OpenBabel11062420133D

 52 57  0  0  1  0  0  0  0  0999 V2000
  189.5950  173.1860  145.4570 C   0  0  0  0  0  1  0  0  0  0  0  0
  187.7380  173.9910  142.1480 C   0  0  0  0  0  2  0  0  0  0  0  0
  188.6440  174.8690  143.0260 C   0  0  1  0  0  3  0  0  0  0  0  0
  188.3850  173.5840  140.9040 N   0  0  0  0  0  0  0  0  0  0  0  0
  189.8430  172.1730  139.6250 N   0  0  0  0  0  0  0  0  0  0  0  0
  190.6140  171.1990  139.9060 N   0  0  0  0  0  0  0  0  0  0  0  0
  189.7090  171.7480  141.9060 C   0  0  0  0  0  0  0  0  0  0  0  0
  190.1120  173.0020  144.0460 C   0  0  1  0  0  3  0  0  0  0  0  0
  190.5440  170.9150  141.3090 C   0  0  0  0  0  0  0  0  0  0  0  0
  189.3840  171.8390  143.3700 C   0  0  0  0  0  2  0  0  0  0  0  0
  189.2170  172.5880  140.8240 C   0  0  0  0  0  0  0  0  0  0  0  0
  190.0580  174.3190  143.2590 C   0  0  0  0  0  2  0  0  0  0  0  0
  189.1780  177.2770  143.4770 C   0  0  0  0  0  0  0  0  0  0  0  0
  189.7750  178.2910  143.0140 O   0  0  0  0  0  0  0  0  0  0  0  0
  188.3590  176.5130  146.9170 C   0  0  0  0  0  3  0  0  0  0  0  0
  189.0200  177.1530  144.9020 N   0  0  0  0  0  0  0  0  0  0  0  0
  188.6910  176.2600  142.5730 N   0  0  0  0  0  0  0  0  0  0  0  0
  188.2160  176.2940  145.5530 C   0  0  0  0  0  3  0  0  0  0  0  0
  189.6590  177.9150  145.7740 N   0  0  0  0  0  0  0  0  0  0  0  0
  189.2800  177.5430  147.0160 C   0  0  0  0  0  3  0  0  0  0  0  0
  188.5750  176.5490  141.1470 C   0  0  0  0  0  2  0  0  0  0  0  0
  187.4020  177.4820  140.8870 C   0  0  0  0  0  2  0  0  0  0  0  0
  186.3430  177.1510  141.7380 O   0  0  0  0  0  0  0  0  0  0  0  0
  185.6520  178.3050  141.9010 N   0  0  0  0  0  2  0  0  0  0  0  0
  184.6910  178.0590  142.9630 C   0  0  0  0  0  2  0  0  0  0  0  0
  185.3690  178.1680  144.3190 C   0  0  0  0  0  2  0  0  0  0  0  0
  184.3510  178.5570  145.3770 C   0  0  0  0  0  2  0  0  0  0  0  0
  184.4450  177.6820  146.4600 O   0  0  0  0  0  1  0  0  0  0  0  0
  191.3190  169.8290  141.9850 C   0  0  0  0  0  2  0  0  0  0  0  0
  196.4590  170.4730  140.5210 C   0  0  0  0  0  2  0  0  0  0  0  0
  193.4680  169.3670  140.8130 C   0  0  0  0  0  2  0  0  0  0  0  0
  193.0030  171.6050  141.7970 C   0  0  0  0  0  2  0  0  0  0  0  0
  195.8540  169.6530  141.6630 C   0  0  0  0  0  2  0  0  0  0  0  0
  192.8140  170.1050  141.9740 C   0  0  1  0  0  3  0  0  0  0  0  0
  195.2570  172.6800  141.2930 C   0  0  2  0  0  3  0  0  0  0  0  0
  195.6800  171.7390  140.1410 C   0  0  2  0  0  3  0  0  0  0  0  0
  194.6270  171.5050  139.0700 C   0  0  0  0  0  1  0  0  0  0  0  0
  194.7670  168.6790  141.2090 C   0  0  0  0  0  2  0  0  0  0  0  0
  194.3470  172.0500  142.3520 C   0  0  0  0  0  2  0  0  0  0  0  0
  194.8790  175.1960  141.3670 C   0  0  0  0  0  0  0  0  0  0  0  0
  194.4420  176.2190  140.7760 O   0  0  0  0  0  0  0  0  0  0  0  0
  194.6610  173.9100  140.7840 N   0  0  0  0  0  2  0  0  0  0  0  0
  195.6460  175.3200  142.6580 C   0  0  2  0  0  3  0  0  0  0  0  0
  194.7980  176.0580  143.6840 C   0  0  2  0  0  3  0  0  0  0  0  0
  195.9630  176.7670  143.0120 C   0  0  0  0  0  2  0  0  0  0  0  0
  193.0670  176.5190  146.3530 C   0  0  0  0  0  2  0  0  0  0  0  0
  191.4430  174.9530  147.1350 O   0  0  0  0  0  1  0  0  0  0  0  0
  193.2770  174.0720  145.8920 C   0  0  0  0  0  2  0  0  0  0  0  0
  192.8090  175.1170  146.8970 C   0  0  1  0  0  3  0  0  0  0  0  0
  194.5660  176.7160  146.1160 C   0  0  0  0  0  2  0  0  0  0  0  0
  195.1160  175.6720  145.1450 C   0  0  1  0  0  3  0  0  0  0  0  0
  194.7720  174.2380  145.6060 C   0  0  0  0  0  2  0  0  0  0  0  0
  2  3  1  0  0  0  0
  3 17  1  6  0  0  0
  3 12  1  0  0  0  0
  4  2  1  0  0  0  0
  5  6  2  0  0  0  0
  5 11  1  0  0  0  0
  6  9  1  0  0  0  0
  7 10  1  0  0  0  0
  8  1  1  1  0  0  0
  9  7  2  0  0  0  0
  9 29  1  0  0  0  0
 10  8  1  0  0  0  0
 11  4  2  0  0  0  0
 11  7  1  0  0  0  0
 12  8  1  0  0  0  0
 13 16  1  0  0  0  0
 14 13  2  0  0  0  0
 15 20  1  0  0  0  0
 16 18  1  0  0  0  0
 16 19  1  0  0  0  0
 17 13  1  0  0  0  0
 18 15  2  0  0  0  0
 19 20  2  0  0  0  0
 21 17  1  0  0  0  0
 22 21  1  0  0  0  0
 22 23  1  0  0  0  0
 23 24  1  0  0  0  0
 24 25  1  0  0  0  0
 25 26  1  0  0  0  0
 26 27  1  0  0  0  0
 27 28  1  0  0  0  0
 30 33  1  0  0  0  0
 31 38  1  0  0  0  0
 31 34  1  0  0  0  0
 32 34  1  0  0  0  0
 32 39  1  0  0  0  0
 34 29  1  6  0  0  0
 35 42  1  6  0  0  0
 35 39  1  0  0  0  0
 36 37  1  1  0  0  0
 36 30  1  0  0  0  0
 36 35  1  0  0  0  0
 38 33  1  0  0  0  0
 41 40  2  0  0  0  0
 42 40  1  0  0  0  0
 43 40  1  6  0  0  0
 43 45  1  0  0  0  0
 43 44  1  0  0  0  0
 44 45  1  1  0  0  0
 44 51  1  0  0  0  0
 46 49  1  0  0  0  0
 48 49  1  0  0  0  0
 49 47  1  6  0  0  0
 50 46  1  0  0  0  0
 51 52  1  1  0  0  0
 51 50  1  0  0  0  0
 52 48  1  0  0  0  0
M  END
>  <MODEL>
6

>  <REMARK>
 VINA RESULT:      -6.2      1.492      1.728
  Name = 
  13 active torsions:
  status: ('A' for Active; 'I' for Inactive)
    1  A    between atoms: N_1  and  O_19
    2  A    between atoms: N_1  and  C_28
    3  A    between atoms: C_3  and  N_39
    4  A    between atoms: C_3  and  C_48
    5  A    between atoms: C_4  and  C_8
    6  A    between atoms: C_6  and  C_25
    7  A    between atoms: C_6  and  C_28
    8  A    between atoms: C_13  and  N_39
    9  A    between atoms: O_19  and  C_48
   10  A    between atoms: C_27  and  C_30
   11  A    between atoms: C_30  and  C_43
   12  A    between atoms: C_32  and  N_42
   13  A    between atoms: C_36  and  C_37
                            x       y       z     vdW  Elec       q    Type
                         _______ _______ _______ _____ _____    ______ ____

>  <TORSDO>
F 13

$$$$
=
 OpenBabel11062420133D

 52 57  0  0  1  0  0  0  0  0999 V2000
  191.8200  172.5620  143.1170 C   0  0  0  0  0  1  0  0  0  0  0  0
  188.5000  174.4300  142.3880 C   0  0  0  0  0  2  0  0  0  0  0  0
  189.8810  174.9660  142.7980 C   0  0  1  0  0  3  0  0  0  0  0  0
  188.1830  174.7060  140.9900 N   0  0  0  0  0  0  0  0  0  0  0  0
  188.3110  174.2270  138.6430 N   0  0  0  0  0  0  0  0  0  0  0  0
  188.9220  173.3560  137.9440 N   0  0  0  0  0  0  0  0  0  0  0  0
  189.5200  172.8390  140.0640 C   0  0  0  0  0  0  0  0  0  0  0  0
  191.3370  173.0870  141.7830 C   0  0  1  0  0  3  0  0  0  0  0  0
  189.6720  172.4850  138.8000 C   0  0  0  0  0  0  0  0  0  0  0  0
  190.1700  172.2380  141.2770 C   0  0  0  0  0  2  0  0  0  0  0  0
  188.6190  173.9810  140.0030 C   0  0  0  0  0  0  0  0  0  0  0  0
  191.0330  174.5910  141.8550 C   0  0  0  0  0  2  0  0  0  0  0  0
  190.9960  177.0020  143.7480 C   0  0  0  0  0  0  0  0  0  0  0  0
  191.3210  178.1970  143.4920 O   0  0  0  0  0  0  0  0  0  0  0  0
  192.4700  174.7240  146.1390 C   0  0  0  0  0  3  0  0  0  0  0  0
  191.7760  176.2580  144.7010 N   0  0  0  0  0  0  0  0  0  0  0  0
  189.8710  176.4060  143.0640 N   0  0  0  0  0  0  0  0  0  0  0  0
  191.4450  175.0880  145.2760 C   0  0  0  0  0  3  0  0  0  0  0  0
  192.9480  176.6660  145.1590 N   0  0  0  0  0  0  0  0  0  0  0  0
  193.4000  175.7440  146.0370 C   0  0  0  0  0  3  0  0  0  0  0  0
  188.9160  177.2540  142.3560 C   0  0  0  0  0  2  0  0  0  0  0  0
  187.9110  177.8500  143.3300 C   0  0  0  0  0  2  0  0  0  0  0  0
  186.6120  177.5860  142.8840 O   0  0  0  0  0  0  0  0  0  0  0  0
  186.1220  176.6730  143.7550 N   0  0  0  0  0  2  0  0  0  0  0  0
  186.4370  177.1670  145.0850 C   0  0  0  0  0  2  0  0  0  0  0  0
  185.2220  177.0470  145.9910 C   0  0  0  0  0  2  0  0  0  0  0  0
  184.4840  178.3730  146.0450 C   0  0  0  0  0  2  0  0  0  0  0  0
  185.3580  179.4090  145.7130 O   0  0  0  0  0  1  0  0  0  0  0  0
  190.5070  171.3440  138.3120 C   0  0  0  0  0  2  0  0  0  0  0  0
  194.3570  173.9160  135.5660 C   0  0  0  0  0  2  0  0  0  0  0  0
  191.6320  172.4450  136.3810 C   0  0  0  0  0  2  0  0  0  0  0  0
  192.4030  172.8510  138.7120 C   0  0  0  0  0  2  0  0  0  0  0  0
  194.0960  172.4170  135.7280 C   0  0  0  0  0  2  0  0  0  0  0  0
  191.8400  171.8130  137.7510 C   0  0  1  0  0  3  0  0  0  0  0  0
  194.4090  174.3220  138.1620 C   0  0  2  0  0  3  0  0  0  0  0  0
  193.9460  174.7850  136.7610 C   0  0  2  0  0  3  0  0  0  0  0  0
  192.5140  175.2890  136.6810 C   0  0  0  0  0  1  0  0  0  0  0  0
  192.6720  172.0000  135.3630 C   0  0  0  0  0  2  0  0  0  0  0  0
  193.9170  172.9370  138.5900 C   0  0  0  0  0  2  0  0  0  0  0  0
  194.9180  175.5980  140.3060 C   0  0  0  0  0  0  0  0  0  0  0  0
  194.6250  176.5660  141.0570 O   0  0  0  0  0  0  0  0  0  0  0  0
  194.0810  175.3110  139.1850 N   0  0  0  0  0  2  0  0  0  0  0  0
  196.1460  174.7650  140.5640 C   0  0  2  0  0  3  0  0  0  0  0  0
  196.7690  175.1750  141.8920 C   0  0  2  0  0  3  0  0  0  0  0  0
  197.4220  175.5970  140.5850 C   0  0  0  0  0  2  0  0  0  0  0  0
  196.6690  174.1990  144.9520 C   0  0  0  0  0  2  0  0  0  0  0  0
  195.1320  172.5500  145.7400 O   0  0  0  0  0  1  0  0  0  0  0  0
  195.8040  172.3920  143.4580 C   0  0  0  0  0  2  0  0  0  0  0  0
  196.2160  172.7430  144.8820 C   0  0  1  0  0  3  0  0  0  0  0  0
  197.8750  174.4110  144.0340 C   0  0  0  0  0  2  0  0  0  0  0  0
  197.5460  174.0380  142.5890 C   0  0  1  0  0  3  0  0  0  0  0  0
  196.9740  172.6060  142.4940 C   0  0  0  0  0  2  0  0  0  0  0  0
  2  3  1  0  0  0  0
  3 17  1  6  0  0  0
  4  2  1  0  0  0  0
  5 11  1  0  0  0  0
  6  5  2  0  0  0  0
  6  9  1  0  0  0  0
  7 10  1  0  0  0  0
  8 12  1  0  0  0  0
  8  1  1  1  0  0  0
  9  7  2  0  0  0  0
 10  8  1  0  0  0  0
 11  7  1  0  0  0  0
 11  4  2  0  0  0  0
 12  3  1  0  0  0  0
 13 16  1  0  0  0  0
 14 13  2  0  0  0  0
 16 19  1  0  0  0  0
 16 18  1  0  0  0  0
 17 13  1  0  0  0  0
 18 15  2  0  0  0  0
 19 20  2  0  0  0  0
 20 15  1  0  0  0  0
 21 17  1  0  0  0  0
 21 22  1  0  0  0  0
 23 22  1  0  0  0  0
 23 24  1  0  0  0  0
 24 25  1  0  0  0  0
 25 26  1  0  0  0  0
 26 27  1  0  0  0  0
 28 27  1  0  0  0  0
 29  9  1  0  0  0  0
 30 33  1  0  0  0  0
 30 36  1  0  0  0  0
 31 34  1  0  0  0  0
 34 29  1  1  0  0  0
 34 32  1  0  0  0  0
 35 39  1  0  0  0  0
 35 42  1  1  0  0  0
 36 37  1  1  0  0  0
 36 35  1  0  0  0  0
 38 33  1  0  0  0  0
 38 31  1  0  0  0  0
 39 32  1  0  0  0  0
 40 41  2  0  0  0  0
 42 40  1  0  0  0  0
 43 40  1  6  0  0  0
 43 45  1  0  0  0  0
 43 44  1  0  0  0  0
 44 45  1  6  0  0  0
 44 51  1  0  0  0  0
 48 49  1  0  0  0  0
 49 46  1  0  0  0  0
 49 47  1  1  0  0  0
 50 46  1  0  0  0  0
 51 52  1  1  0  0  0
 51 50  1  0  0  0  0
 52 48  1  0  0  0  0
M  END
>  <MODEL>
7

>  <REMARK>
 VINA RESULT:      -6.1      2.205      3.047
  Name = 
  13 active torsions:
  status: ('A' for Active; 'I' for Inactive)
    1  A    between atoms: N_1  and  O_19
    2  A    between atoms: N_1  and  C_28
    3  A    between atoms: C_3  and  N_39
    4  A    between atoms: C_3  and  C_48
    5  A    between atoms: C_4  and  C_8
    6  A    between atoms: C_6  and  C_25
    7  A    between atoms: C_6  and  C_28
    8  A    between atoms: C_13  and  N_39
    9  A    between atoms: O_19  and  C_48
   10  A    between atoms: C_27  and  C_30
   11  A    between atoms: C_30  and  C_43
   12  A    between atoms: C_32  and  N_42
   13  A    between atoms: C_36  and  C_37
                            x       y       z     vdW  Elec       q    Type
                         _______ _______ _______ _____ _____    ______ ____

>  <TORSDO>
F 13

$$$$
=
 OpenBabel11062420133D

 52 57  0  0  1  0  0  0  0  0999 V2000
  191.3900  178.6370  143.7620 C   0  0  0  0  0  1  0  0  0  0  0  0
  188.8430  175.8680  144.7060 C   0  0  0  0  0  2  0  0  0  0  0  0
  189.0340  176.6460  143.3950 C   0  0  1  0  0  3  0  0  0  0  0  0
  189.2970  174.4830  144.6090 N   0  0  0  0  0  0  0  0  0  0  0  0
  190.9970  172.7920  144.6470 N   0  0  0  0  0  0  0  0  0  0  0  0
  192.2640  172.8050  144.7710 N   0  0  0  0  0  0  0  0  0  0  0  0
  191.7010  174.9920  144.9060 C   0  0  0  0  0  0  0  0  0  0  0  0
  191.5630  177.1410  143.6100 C   0  0  1  0  0  3  0  0  0  0  0  0
  192.7220  174.1530  144.9370 C   0  0  0  0  0  0  0  0  0  0  0  0
  191.7350  176.4920  144.9840 C   0  0  0  0  0  2  0  0  0  0  0  0
  190.5430  174.1300  144.7260 C   0  0  0  0  0  0  0  0  0  0  0  0
  190.4310  176.5340  142.7670 C   0  0  0  0  0  2  0  0  0  0  0  0
  186.9160  177.3000  142.2220 C   0  0  0  0  0  0  0  0  0  0  0  0
  186.3780  177.4180  141.0840 O   0  0  0  0  0  0  0  0  0  0  0  0
  186.0740  178.9940  145.3050 C   0  0  0  0  0  3  0  0  0  0  0  0
  186.4540  178.1330  143.3000 N   0  0  0  0  0  0  0  0  0  0  0  0
  187.9930  176.3540  142.4080 N   0  0  0  0  0  0  0  0  0  0  0  0
  186.7240  177.9830  144.6090 C   0  0  0  0  0  3  0  0  0  0  0  0
  185.6590  179.1760  143.1240 N   0  0  0  0  0  0  0  0  0  0  0  0
  185.4140  179.7270  144.3330 C   0  0  0  0  0  3  0  0  0  0  0  0
  188.2280  175.3120  141.4130 C   0  0  0  0  0  2  0  0  0  0  0  0
  187.7080  173.9730  141.9130 C   0  0  0  0  0  2  0  0  0  0  0  0
  188.0810  172.9630  141.0210 O   0  0  0  0  0  0  0  0  0  0  0  0
  189.3550  173.2580  140.6700 N   0  0  0  0  0  2  0  0  0  0  0  0
  190.2040  172.3180  141.3820 C   0  0  0  0  0  2  0  0  0  0  0  0
  190.4060  171.0610  140.5520 C   0  0  0  0  0  2  0  0  0  0  0  0
  191.8860  170.7410  140.4480 C   0  0  0  0  0  2  0  0  0  0  0  0
  192.5320  171.1270  141.6240 O   0  0  0  0  0  1  0  0  0  0  0  0
  194.1560  174.5360  145.1130 C   0  0  0  0  0  2  0  0  0  0  0  0
  197.4920  175.9360  141.1270 C   0  0  0  0  0  2  0  0  0  0  0  0
  196.2550  175.3040  144.0120 C   0  0  0  0  0  2  0  0  0  0  0  0
  194.4940  174.1130  142.7190 C   0  0  0  0  0  2  0  0  0  0  0  0
  196.5410  176.7950  141.9640 C   0  0  0  0  0  2  0  0  0  0  0  0
  194.7540  175.1110  143.8390 C   0  0  1  0  0  3  0  0  0  0  0  0
  195.5820  174.2740  140.4210 C   0  0  2  0  0  3  0  0  0  0  0  0
  197.0370  174.4890  140.8980 C   0  0  2  0  0  3  0  0  0  0  0  0
  197.5210  173.5240  141.9680 C   0  0  0  0  0  1  0  0  0  0  0  0
  196.7430  176.6410  143.4710 C   0  0  0  0  0  2  0  0  0  0  0  0
  194.4990  174.8050  141.3650 C   0  0  0  0  0  2  0  0  0  0  0  0
  194.7570  172.4350  138.8660 C   0  0  0  0  0  0  0  0  0  0  0  0
  194.7090  171.2010  138.6180 O   0  0  0  0  0  0  0  0  0  0  0  0
  195.3280  172.8740  140.1000 N   0  0  0  0  0  2  0  0  0  0  0  0
  194.2470  173.4430  137.8700 C   0  0  2  0  0  3  0  0  0  0  0  0
  193.8120  172.7260  136.5990 C   0  0  2  0  0  3  0  0  0  0  0  0
  195.1110  173.5160  136.6180 C   0  0  0  0  0  2  0  0  0  0  0  0
  190.8020  171.7980  135.9650 C   0  0  0  0  0  2  0  0  0  0  0  0
  188.9700  172.2410  137.4320 O   0  0  0  0  0  1  0  0  0  0  0  0
  190.7730  173.7990  137.4620 C   0  0  0  0  0  2  0  0  0  0  0  0
  189.9210  172.8590  136.6190 C   0  0  1  0  0  3  0  0  0  0  0  0
  191.8290  172.4680  135.0500 C   0  0  0  0  0  2  0  0  0  0  0  0
  192.6970  173.4600  135.8240 C   0  0  1  0  0  3  0  0  0  0  0  0
  191.8330  174.4840  136.5930 C   0  0  0  0  0  2  0  0  0  0  0  0
  3 17  1  6  0  0  0
  3  2  1  0  0  0  0
  4  2  1  0  0  0  0
  4 11  2  0  0  0  0
  5 11  1  0  0  0  0
  5  6  2  0  0  0  0
  6  9  1  0  0  0  0
  7  9  2  0  0  0  0
  7 10  1  0  0  0  0
  8  1  1  1  0  0  0
  8 10  1  0  0  0  0
  9 29  1  0  0  0  0
 11  7  1  0  0  0  0
 12  3  1  0  0  0  0
 12  8  1  0  0  0  0
 13 17  1  0  0  0  0
 13 16  1  0  0  0  0
 14 13  2  0  0  0  0
 16 18  1  0  0  0  0
 18 15  2  0  0  0  0
 19 16  1  0  0  0  0
 19 20  2  0  0  0  0
 20 15  1  0  0  0  0
 21 22  1  0  0  0  0
 21 17  1  0  0  0  0
 23 22  1  0  0  0  0
 24 23  1  0  0  0  0
 24 25  1  0  0  0  0
 26 25  1  0  0  0  0
 27 26  1  0  0  0  0
 27 28  1  0  0  0  0
 30 33  1  0  0  0  0
 32 34  1  0  0  0  0
 33 38  1  0  0  0  0
 34 31  1  0  0  0  0
 34 29  1  1  0  0  0
 35 42  1  1  0  0  0
 35 36  1  0  0  0  0
 35 39  1  0  0  0  0
 36 30  1  0  0  0  0
 36 37  1  1  0  0  0
 38 31  1  0  0  0  0
 39 32  1  0  0  0  0
 40 42  1  0  0  0  0
 41 40  2  0  0  0  0
 43 40  1  1  0  0  0
 44 45  1  6  0  0  0
 44 43  1  0  0  0  0
 45 43  1  0  0  0  0
 46 49  1  0  0  0  0
 49 47  1  1  0  0  0
 49 48  1  0  0  0  0
 50 46  1  0  0  0  0
 51 50  1  1  0  0  0
 51 52  1  0  0  0  0
 51 44  1  0  0  0  0
 52 48  1  0  0  0  0
M  END
>  <MODEL>
8

>  <REMARK>
 VINA RESULT:      -6.0      2.783      6.461
  Name = 
  13 active torsions:
  status: ('A' for Active; 'I' for Inactive)
    1  A    between atoms: N_1  and  O_19
    2  A    between atoms: N_1  and  C_28
    3  A    between atoms: C_3  and  N_39
    4  A    between atoms: C_3  and  C_48
    5  A    between atoms: C_4  and  C_8
    6  A    between atoms: C_6  and  C_25
    7  A    between atoms: C_6  and  C_28
    8  A    between atoms: C_13  and  N_39
    9  A    between atoms: O_19  and  C_48
   10  A    between atoms: C_27  and  C_30
   11  A    between atoms: C_30  and  C_43
   12  A    between atoms: C_32  and  N_42
   13  A    between atoms: C_36  and  C_37
                            x       y       z     vdW  Elec       q    Type
                         _______ _______ _______ _____ _____    ______ ____

>  <TORSDO>
F 13

$$$$
=
 OpenBabel11062420133D

 52 57  0  0  1  0  0  0  0  0999 V2000
  186.5220  176.7890  141.7840 C   0  0  0  0  0  1  0  0  0  0  0  0
  189.8630  176.4600  143.7280 C   0  0  0  0  0  2  0  0  0  0  0  0
  188.4090  176.4170  144.2230 C   0  0  1  0  0  3  0  0  0  0  0  0
  190.4990  175.1460  143.7420 N   0  0  0  0  0  0  0  0  0  0  0  0
  190.9550  172.9900  142.7940 N   0  0  0  0  0  0  0  0  0  0  0  0
  190.5580  172.3710  141.7550 N   0  0  0  0  0  0  0  0  0  0  0  0
  189.4810  174.3580  141.6270 C   0  0  0  0  0  0  0  0  0  0  0  0
  187.2970  175.5200  142.0680 C   0  0  1  0  0  3  0  0  0  0  0  0
  189.6490  173.1980  141.0160 C   0  0  0  0  0  0  0  0  0  0  0  0
  188.5770  175.4890  141.2310 C   0  0  0  0  0  2  0  0  0  0  0  0
  190.3360  174.2630  142.8020 C   0  0  0  0  0  0  0  0  0  0  0  0
  187.5290  175.3380  143.5750 C   0  0  0  0  0  2  0  0  0  0  0  0
  187.0890  176.7970  146.3220 C   0  0  0  0  0  0  0  0  0  0  0  0
  186.7270  176.2590  147.4070 O   0  0  0  0  0  0  0  0  0  0  0  0
  185.4970  179.4790  144.4900 C   0  0  0  0  0  3  0  0  0  0  0  0
  186.2540  177.8130  145.7370 N   0  0  0  0  0  0  0  0  0  0  0  0
  188.3110  176.3650  145.6830 N   0  0  0  0  0  0  0  0  0  0  0  0
  186.5860  178.6550  144.7420 C   0  0  0  0  0  3  0  0  0  0  0  0
  185.0190  178.0620  146.1400 N   0  0  0  0  0  0  0  0  0  0  0  0
  184.5270  179.0730  145.3910 C   0  0  0  0  0  3  0  0  0  0  0  0
  189.2870  175.5810  146.4330 C   0  0  0  0  0  2  0  0  0  0  0  0
  190.2790  176.4980  147.1340 C   0  0  0  0  0  2  0  0  0  0  0  0
  191.5550  175.9270  147.0940 O   0  0  0  0  0  0  0  0  0  0  0  0
  192.2950  176.7750  146.3410 N   0  0  0  0  0  2  0  0  0  0  0  0
  193.3740  175.9830  145.7750 C   0  0  0  0  0  2  0  0  0  0  0  0
  193.1780  174.5130  146.1090 C   0  0  0  0  0  2  0  0  0  0  0  0
  193.9640  173.6520  145.1370 C   0  0  0  0  0  2  0  0  0  0  0  0
  194.3130  174.4090  144.0180 O   0  0  0  0  0  1  0  0  0  0  0  0
  188.9910  172.7870  139.7380 C   0  0  0  0  0  2  0  0  0  0  0  0
  191.3840  171.7820  135.0220 C   0  0  0  0  0  2  0  0  0  0  0  0
  189.3050  171.8350  137.4580 C   0  0  0  0  0  2  0  0  0  0  0  0
  190.6320  173.7990  138.2180 C   0  0  0  0  0  2  0  0  0  0  0  0
  191.4440  171.0100  136.3420 C   0  0  0  0  0  2  0  0  0  0  0  0
  190.0050  172.4790  138.6480 C   0  0  1  0  0  3  0  0  0  0  0  0
  192.1080  174.0400  136.1560 C   0  0  2  0  0  3  0  0  0  0  0  0
  191.1890  173.2980  135.1580 C   0  0  2  0  0  3  0  0  0  0  0  0
  189.7300  173.7230  135.1750 C   0  0  0  0  0  1  0  0  0  0  0  0
  190.0690  170.6430  136.9000 C   0  0  0  0  0  2  0  0  0  0  0  0
  192.0070  173.5720  137.6110 C   0  0  0  0  0  2  0  0  0  0  0  0
  192.8230  176.3640  135.4020 C   0  0  0  0  0  0  0  0  0  0  0  0
  192.5070  177.5750  135.2620 O   0  0  0  0  0  0  0  0  0  0  0  0
  191.9210  175.4850  136.0780 N   0  0  0  0  0  2  0  0  0  0  0  0
  194.1180  175.8350  134.8450 C   0  0  2  0  0  3  0  0  0  0  0  0
  195.2200  175.9920  135.8840 C   0  0  2  0  0  3  0  0  0  0  0  0
  195.1720  176.9230  134.6830 C   0  0  0  0  0  2  0  0  0  0  0  0
  197.7220  175.4230  137.8190 C   0  0  0  0  0  2  0  0  0  0  0  0
  197.6160  173.9190  139.6720 O   0  0  0  0  0  1  0  0  0  0  0  0
  196.1830  173.4540  137.8250 C   0  0  0  0  0  2  0  0  0  0  0  0
  197.5380  173.9790  138.2790 C   0  0  1  0  0  3  0  0  0  0  0  0
  197.6660  175.4910  136.2920 C   0  0  0  0  0  2  0  0  0  0  0  0
  196.3440  174.9400  135.7600 C   0  0  1  0  0  3  0  0  0  0  0  0
  196.0680  173.5180  136.2990 C   0  0  0  0  0  2  0  0  0  0  0  0
  2  4  1  0  0  0  0
  2  3  1  0  0  0  0
  3 17  1  1  0  0  0
  5 11  1  0  0  0  0
  6  5  2  0  0  0  0
  7 11  1  0  0  0  0
  8  1  1  1  0  0  0
  8 12  1  0  0  0  0
  9  7  2  0  0  0  0
  9  6  1  0  0  0  0
 10  7  1  0  0  0  0
 10  8  1  0  0  0  0
 11  4  2  0  0  0  0
 12  3  1  0  0  0  0
 13 14  2  0  0  0  0
 15 18  2  0  0  0  0
 15 20  1  0  0  0  0
 16 19  1  0  0  0  0
 16 13  1  0  0  0  0
 17 13  1  0  0  0  0
 17 21  1  0  0  0  0
 18 16  1  0  0  0  0
 20 19  2  0  0  0  0
 21 22  1  0  0  0  0
 23 22  1  0  0  0  0
 24 23  1  0  0  0  0
 25 26  1  0  0  0  0
 25 24  1  0  0  0  0
 27 26  1  0  0  0  0
 28 27  1  0  0  0  0
 29  9  1  0  0  0  0
 30 36  1  0  0  0  0
 30 33  1  0  0  0  0
 31 34  1  0  0  0  0
 32 34  1  0  0  0  0
 33 38  1  0  0  0  0
 34 29  1  1  0  0  0
 35 42  1  1  0  0  0
 35 39  1  0  0  0  0
 36 37  1  1  0  0  0
 36 35  1  0  0  0  0
 38 31  1  0  0  0  0
 39 32  1  0  0  0  0
 40 42  1  0  0  0  0
 41 40  2  0  0  0  0
 43 40  1  1  0  0  0
 43 44  1  0  0  0  0
 44 45  1  6  0  0  0
 45 43  1  0  0  0  0
 46 49  1  0  0  0  0
 48 49  1  0  0  0  0
 49 47  1  1  0  0  0
 50 46  1  0  0  0  0
 51 44  1  0  0  0  0
 51 50  1  1  0  0  0
 51 52  1  0  0  0  0
 52 48  1  0  0  0  0
M  END
>  <MODEL>
9

>  <REMARK>
 VINA RESULT:      -5.9      3.284      6.207
  Name = 
  13 active torsions:
  status: ('A' for Active; 'I' for Inactive)
    1  A    between atoms: N_1  and  O_19
    2  A    between atoms: N_1  and  C_28
    3  A    between atoms: C_3  and  N_39
    4  A    between atoms: C_3  and  C_48
    5  A    between atoms: C_4  and  C_8
    6  A    between atoms: C_6  and  C_25
    7  A    between atoms: C_6  and  C_28
    8  A    between atoms: C_13  and  N_39
    9  A    between atoms: O_19  and  C_48
   10  A    between atoms: C_27  and  C_30
   11  A    between atoms: C_30  and  C_43
   12  A    between atoms: C_32  and  N_42
   13  A    between atoms: C_36  and  C_37
                            x       y       z     vdW  Elec       q    Type
                         _______ _______ _______ _____ _____    ______ ____

>  <TORSDO>
F 13

$$$$
