=
 OpenBabel11062419493D

 46 49  0  0  1  0  0  0  0  0999 V2000
  191.8400  176.3360  144.2200 C   0  0  2  0  0  3  0  0  0  0  0  0
  191.8280  177.0570  142.9310 N   0  0  0  0  0  2  0  0  0  0  0  0
  191.0450  177.5680  144.1430 C   0  0  1  0  0  3  0  0  0  0  0  0
  189.6300  177.0630  144.2190 C   0  0  1  0  0  3  0  0  0  0  0  0
  189.5320  177.4560  146.7760 C   0  0  0  0  0  2  0  0  0  0  0  0
  189.4460  176.6150  145.6930 C   0  0  0  0  0  3  0  0  0  0  0  0
  188.3310  178.2670  143.7270 S   0  0  0  0  0  0  0  0  0  0  0  0
  183.8470  178.3390  142.2490 C   0  0  0  0  0  2  0  0  0  0  0  0
  186.1360  177.5710  141.3490 C   0  0  2  0  0  3  0  0  0  0  0  0
  186.9770  177.1810  140.4000 N   0  0  0  0  0  2  0  0  0  0  0  0
  184.5480  178.7840  143.4270 N   0  0  0  0  0  2  0  0  0  0  0  0
  185.4930  177.7710  143.8060 C   0  0  1  0  0  3  0  0  0  0  0  0
  184.8030  178.3160  141.0140 C   0  0  1  0  0  3  0  0  0  0  0  0
  183.9550  177.7690  139.9870 N   0  0  0  0  0  1  0  0  0  0  0  0
  186.6610  177.6820  142.8280 C   0  0  2  0  0  3  0  0  0  0  0  0
  185.8310  176.5200  145.9750 C   0  0  0  0  0  3  0  0  0  0  0  0
  185.9920  176.4930  147.2850 C   0  0  0  0  0  3  0  0  0  0  0  0
  186.1150  177.7300  148.0850 C   0  0  0  0  0  2  0  0  0  0  0  0
  186.0050  178.9770  147.2760 C   0  0  0  0  0  0  0  0  0  0  0  0
  185.8050  178.8980  145.8960 N   0  0  0  0  0  0  0  0  0  0  0  0
  186.0670  180.1480  147.8580 O   0  0  0  0  0  0  0  0  0  0  0  0
  185.7750  177.7380  145.2320 C   0  0  0  0  0  0  0  0  0  0  0  0
  186.5240  176.9620  139.1250 C   0  0  0  0  0  3  0  0  0  0  0  0
  186.9530  176.0090  138.3890 O   0  0  0  0  0  0  0  0  0  0  0  0
  193.0160  176.6380  145.1540 C   0  0  0  0  0  2  0  0  0  0  0  0
  194.1140  175.5660  144.9800 C   0  0  2  0  0  0  0  0  0  0  0  0
  194.5870  175.0760  146.1550 F   0  0  0  0  0  0  0  0  0  0  0  0
  195.1950  176.3100  144.1280 C   0  0  0  0  0  1  0  0  0  0  0  0
  193.4590  173.1800  145.3290 C   0  0  0  0  0  1  0  0  0  0  0  0
  193.6130  174.2920  144.3000 C   0  0  2  0  0  3  0  0  0  0  0  0
  194.2100  173.7770  142.9620 C   0  0  0  0  0  2  0  0  0  0  0  0
  193.1230  173.0130  142.2250 C   0  0  0  0  0  2  0  0  0  0  0  0
  192.4660  173.9520  141.1670 C   0  0  0  0  0  2  0  0  0  0  0  0
  191.0950  173.4500  140.6820 C   0  0  1  0  0  3  0  0  0  0  0  0
  188.7920  174.4930  142.2400 C   0  0  0  0  0  2  0  0  0  0  0  0
  190.0780  174.2490  141.4700 C   0  0  1  0  0  3  0  0  0  0  0  0
  188.6800  172.1940  141.9050 O   0  0  0  0  0  1  0  0  0  0  0  0
  189.5020  173.1850  142.4440 C   0  0  2  0  0  0  0  0  0  0  0  0
  189.8560  173.0970  145.0010 N   0  0  0  0  0  0  0  0  0  0  0  0
  189.6800  173.1370  143.8900 C   0  0  0  0  0  0  0  0  0  0  0  0
  192.0760  173.7350  138.3820 C   0  0  0  0  0  1  0  0  0  0  0  0
  190.8750  173.4770  139.2060 N   0  0  0  0  0  0  0  0  0  0  0  0
  190.5340  172.1020  138.8220 C   0  0  0  0  0  2  0  0  0  0  0  0
  189.8620  170.6780  136.8080 C   0  0  0  0  0  1  0  0  0  0  0  0
  188.8670  172.7710  137.3180 O   0  0  0  0  0  1  0  0  0  0  0  0
  190.0420  172.0570  137.3980 C   0  0  1  0  0  3  0  0  0  0  0  0
  1 25  1  1  0  0  0
  2  3  1  0  0  0  0
  2  1  1  0  0  0  0
  3  4  1  6  0  0  0
  3  1  1  0  0  0  0
  4  6  1  1  0  0  0
  6  5  2  0  0  0  0
  7  4  1  0  0  0  0
  8 11  1  0  0  0  0
  9 10  1  6  0  0  0
  9 15  1  0  0  0  0
 11 12  1  0  0  0  0
 12 22  1  1  0  0  0
 13 14  1  6  0  0  0
 13  9  1  0  0  0  0
 13  8  1  0  0  0  0
 15  7  1  6  0  0  0
 15 12  1  0  0  0  0
 16 17  2  0  0  0  0
 17 18  1  0  0  0  0
 19 21  2  0  0  0  0
 19 18  1  0  0  0  0
 20 19  1  0  0  0  0
 22 20  2  0  0  0  0
 22 16  1  0  0  0  0
 23 10  1  0  0  0  0
 24 23  2  0  0  0  0
 26 28  1  6  0  0  0
 26 25  1  0  0  0  0
 26 27  1  0  0  0  0
 30 26  1  0  0  0  0
 30 29  1  1  0  0  0
 31 30  1  0  0  0  0
 32 31  1  0  0  0  0
 33 32  1  0  0  0  0
 34 33  1  6  0  0  0
 35 38  1  0  0  0  0
 36 34  1  6  0  0  0
 36 35  1  0  0  0  0
 36 38  1  0  0  0  0
 38 37  1  6  0  0  0
 38 40  1  0  0  0  0
 40 39  3  0  0  0  0
 41 42  1  0  0  0  0
 42 34  1  0  0  0  0
 43 42  1  0  0  0  0
 45 46  1  0  0  0  0
 46 44  1  1  0  0  0
 46 43  1  0  0  0  0
M  END
>  <MODEL>
1

>  <REMARK>
 VINA RESULT:      -6.4      0.000      0.000
  Name = 
  18 active torsions:
  status: ('A' for Active; 'I' for Inactive)
    1  A    between atoms: C_3  and  C_7
    2  A    between atoms: C_3  and  C_16
    3  A    between atoms: C_5  and  C_42
    4  A    between atoms: C_7  and  C_12
    5  A    between atoms: C_8  and  N_26
    6  A    between atoms: C_8  and  C_37
    7  A    between atoms: C_10  and  N_23
    8  A    between atoms: C_11  and  C_18
    9  A    between atoms: C_11  and  C_45
   10  A    between atoms: C_12  and  C_17
   11  A    between atoms: C_12  and  N_26
   12  A    between atoms: C_16  and  C_45
   13  A    between atoms: C_18  and  C_34
   14  A    between atoms: C_28  and  C_44
   15  A    between atoms: C_29  and  S_39
   16  A    between atoms: C_29  and  C_40
   17  A    between atoms: C_29  and  C_46
   18  A    between atoms: S_39  and  C_43
                            x       y       z     vdW  Elec       q    Type
                         _______ _______ _______ _____ _____    ______ ____

>  <TORSDO>
F 18

$$$$
=
 OpenBabel11062419493D

 46 49  0  0  1  0  0  0  0  0999 V2000
  192.2440  174.9750  145.8810 C   0  0  2  0  0  3  0  0  0  0  0  0
  193.6910  174.9720  145.5830 N   0  0  0  0  0  2  0  0  0  0  0  0
  192.6490  174.6560  144.5070 C   0  0  1  0  0  3  0  0  0  0  0  0
  192.3120  173.1950  144.3870 C   0  0  1  0  0  3  0  0  0  0  0  0
  189.9960  172.3470  143.5990 C   0  0  0  0  0  2  0  0  0  0  0  0
  190.7620  173.1380  144.4210 C   0  0  0  0  0  3  0  0  0  0  0  0
  192.9710  172.3490  142.8930 S   0  0  0  0  0  0  0  0  0  0  0  0
  193.8640  173.3910  138.3740 C   0  0  0  0  0  2  0  0  0  0  0  0
  191.8160  172.8060  139.8240 C   0  0  2  0  0  3  0  0  0  0  0  0
  190.5580  172.4330  140.0200 N   0  0  0  0  0  2  0  0  0  0  0  0
  194.6560  173.2270  139.5670 N   0  0  0  0  0  2  0  0  0  0  0  0
  193.9770  173.8680  140.6580 C   0  0  1  0  0  3  0  0  0  0  0  0
  192.5480  172.5540  138.4670 C   0  0  1  0  0  3  0  0  0  0  0  0
  191.8740  172.9180  137.2480 N   0  0  0  0  0  1  0  0  0  0  0  0
  192.7200  173.1080  141.0760 C   0  0  2  0  0  3  0  0  0  0  0  0
  194.9190  175.7370  142.0730 C   0  0  0  0  0  3  0  0  0  0  0  0
  195.7940  176.2020  142.9450 C   0  0  0  0  0  3  0  0  0  0  0  0
  196.7990  175.3300  143.5890 C   0  0  0  0  0  2  0  0  0  0  0  0
  196.7410  173.9130  143.1310 C   0  0  0  0  0  0  0  0  0  0  0  0
  195.7940  173.5260  142.1800 N   0  0  0  0  0  0  0  0  0  0  0  0
  197.5920  173.0340  143.5970 O   0  0  0  0  0  0  0  0  0  0  0  0
  194.8690  174.3600  141.6950 C   0  0  0  0  0  0  0  0  0  0  0  0
  189.7120  172.2750  138.9530 C   0  0  0  0  0  3  0  0  0  0  0  0
  189.3510  171.1290  138.5170 O   0  0  0  0  0  0  0  0  0  0  0  0
  191.5440  176.3360  145.8210 C   0  0  0  0  0  2  0  0  0  0  0  0
  190.5380  176.4630  146.9850 C   0  0  2  0  0  0  0  0  0  0  0  0
  190.2510  177.7480  147.3170 F   0  0  0  0  0  0  0  0  0  0  0  0
  191.2320  175.6570  148.1330 C   0  0  0  0  0  1  0  0  0  0  0  0
  188.9220  174.5960  147.3670 C   0  0  0  0  0  1  0  0  0  0  0  0
  189.1510  175.9190  146.6470 C   0  0  2  0  0  3  0  0  0  0  0  0
  188.5990  175.9010  145.1960 C   0  0  0  0  0  2  0  0  0  0  0  0
  187.2690  176.6350  145.1880 C   0  0  0  0  0  2  0  0  0  0  0  0
  186.4290  176.1590  143.9640 C   0  0  0  0  0  2  0  0  0  0  0  0
  185.5370  177.2670  143.3760 C   0  0  1  0  0  3  0  0  0  0  0  0
  185.6090  179.8280  144.8780 C   0  0  0  0  0  2  0  0  0  0  0  0
  185.8770  178.5120  144.1670 C   0  0  1  0  0  3  0  0  0  0  0  0
  183.4440  179.1590  144.3480 O   0  0  0  0  0  1  0  0  0  0  0  0
  184.5940  178.7290  145.0150 C   0  0  2  0  0  0  0  0  0  0  0  0
  184.3780  178.4360  147.5720 N   0  0  0  0  0  0  0  0  0  0  0  0
  184.4670  178.5840  146.4590 C   0  0  0  0  0  0  0  0  0  0  0  0
  184.4170  178.0480  141.2630 C   0  0  0  0  0  1  0  0  0  0  0  0
  185.6120  177.4490  141.8960 N   0  0  0  0  0  0  0  0  0  0  0  0
  186.6280  178.4830  141.6660 C   0  0  0  0  0  2  0  0  0  0  0  0
  189.0770  177.9040  142.1180 C   0  0  0  0  0  1  0  0  0  0  0  0
  187.6460  176.5680  140.7790 O   0  0  0  0  0  1  0  0  0  0  0  0
  187.9080  177.8640  141.1630 C   0  0  1  0  0  3  0  0  0  0  0  0
  1 25  1  6  0  0  0
  2  1  1  0  0  0  0
  3  4  1  1  0  0  0
  3  2  1  0  0  0  0
  3  1  1  0  0  0  0
  4  6  1  6  0  0  0
  5  6  2  0  0  0  0
  7  4  1  0  0  0  0
  8 13  1  0  0  0  0
  8 11  1  0  0  0  0
  9 10  1  1  0  0  0
  9 15  1  0  0  0  0
 11 12  1  0  0  0  0
 12 15  1  0  0  0  0
 12 22  1  1  0  0  0
 13 14  1  6  0  0  0
 13  9  1  0  0  0  0
 15  7  1  6  0  0  0
 16 17  2  0  0  0  0
 17 18  1  0  0  0  0
 19 18  1  0  0  0  0
 19 21  2  0  0  0  0
 20 19  1  0  0  0  0
 22 16  1  0  0  0  0
 22 20  2  0  0  0  0
 23 10  1  0  0  0  0
 24 23  2  0  0  0  0
 25 26  1  0  0  0  0
 26 27  1  0  0  0  0
 26 28  1  1  0  0  0
 30 26  1  0  0  0  0
 30 29  1  6  0  0  0
 31 30  1  0  0  0  0
 32 31  1  0  0  0  0
 33 32  1  0  0  0  0
 34 33  1  1  0  0  0
 35 38  1  0  0  0  0
 36 34  1  6  0  0  0
 36 35  1  0  0  0  0
 36 38  1  0  0  0  0
 38 37  1  6  0  0  0
 38 40  1  0  0  0  0
 40 39  3  0  0  0  0
 41 42  1  0  0  0  0
 42 34  1  0  0  0  0
 43 42  1  0  0  0  0
 45 46  1  0  0  0  0
 46 43  1  0  0  0  0
 46 44  1  1  0  0  0
M  END
>  <MODEL>
2

>  <REMARK>
 VINA RESULT:      -6.2      2.808      8.040
  Name = 
  18 active torsions:
  status: ('A' for Active; 'I' for Inactive)
    1  A    between atoms: C_3  and  C_7
    2  A    between atoms: C_3  and  C_16
    3  A    between atoms: C_5  and  C_42
    4  A    between atoms: C_7  and  C_12
    5  A    between atoms: C_8  and  N_26
    6  A    between atoms: C_8  and  C_37
    7  A    between atoms: C_10  and  N_23
    8  A    between atoms: C_11  and  C_18
    9  A    between atoms: C_11  and  C_45
   10  A    between atoms: C_12  and  C_17
   11  A    between atoms: C_12  and  N_26
   12  A    between atoms: C_16  and  C_45
   13  A    between atoms: C_18  and  C_34
   14  A    between atoms: C_28  and  C_44
   15  A    between atoms: C_29  and  S_39
   16  A    between atoms: C_29  and  C_40
   17  A    between atoms: C_29  and  C_46
   18  A    between atoms: S_39  and  C_43
                            x       y       z     vdW  Elec       q    Type
                         _______ _______ _______ _____ _____    ______ ____

>  <TORSDO>
F 18

$$$$
=
 OpenBabel11062419493D

 46 49  0  0  1  0  0  0  0  0999 V2000
  191.6930  177.1200  143.9870 C   0  0  2  0  0  3  0  0  0  0  0  0
  191.6540  178.5900  143.8420 N   0  0  0  0  0  2  0  0  0  0  0  0
  190.4990  177.8160  144.4820 C   0  0  1  0  0  3  0  0  0  0  0  0
  189.4320  177.3880  143.5120 C   0  0  1  0  0  3  0  0  0  0  0  0
  188.7740  174.9700  142.8620 C   0  0  0  0  0  2  0  0  0  0  0  0
  189.2200  175.8770  143.7920 C   0  0  0  0  0  3  0  0  0  0  0  0
  187.8450  178.3100  143.6220 S   0  0  0  0  0  0  0  0  0  0  0  0
  183.3680  178.2080  142.1230 C   0  0  0  0  0  2  0  0  0  0  0  0
  185.6970  177.5970  141.2050 C   0  0  2  0  0  3  0  0  0  0  0  0
  186.5600  177.2890  140.2470 N   0  0  0  0  0  2  0  0  0  0  0  0
  184.0410  178.6410  143.3210 N   0  0  0  0  0  2  0  0  0  0  0  0
  185.0360  177.6640  143.6660 C   0  0  1  0  0  3  0  0  0  0  0  0
  184.3290  178.2840  140.8930 C   0  0  1  0  0  3  0  0  0  0  0  0
  183.5130  177.7360  139.8410 N   0  0  0  0  0  1  0  0  0  0  0  0
  186.2110  177.6750  142.6910 C   0  0  2  0  0  3  0  0  0  0  0  0
  184.6970  178.4610  146.0390 C   0  0  0  0  0  3  0  0  0  0  0  0
  185.0190  178.4590  147.3190 C   0  0  0  0  0  3  0  0  0  0  0  0
  186.0560  177.5580  147.8660 C   0  0  0  0  0  2  0  0  0  0  0  0
  186.7050  176.7000  146.8350 C   0  0  0  0  0  0  0  0  0  0  0  0
  186.3120  176.7990  145.4980 N   0  0  0  0  0  0  0  0  0  0  0  0
  187.6620  175.8730  147.1720 O   0  0  0  0  0  0  0  0  0  0  0  0
  185.3150  177.5890  145.0910 C   0  0  0  0  0  0  0  0  0  0  0  0
  186.1230  177.0990  138.9610 C   0  0  0  0  0  3  0  0  0  0  0  0
  186.6890  176.2910  138.1480 O   0  0  0  0  0  0  0  0  0  0  0  0
  192.4230  176.5820  145.2210 C   0  0  0  0  0  2  0  0  0  0  0  0
  193.3780  175.4400  144.8110 C   0  0  2  0  0  0  0  0  0  0  0  0
  193.7150  174.6180  145.8380 F   0  0  0  0  0  0  0  0  0  0  0  0
  194.5950  176.2080  144.1960 C   0  0  0  0  0  1  0  0  0  0  0  0
  192.4620  173.1340  144.5240 C   0  0  0  0  0  1  0  0  0  0  0  0
  192.7540  174.4550  143.8250 C   0  0  2  0  0  3  0  0  0  0  0  0
  193.3150  174.2480  142.3910 C   0  0  0  0  0  2  0  0  0  0  0  0
  192.2190  174.6030  141.4000 C   0  0  0  0  0  2  0  0  0  0  0  0
  192.0550  173.4360  140.3800 C   0  0  0  0  0  2  0  0  0  0  0  0
  190.8120  172.5700  140.6480 C   0  0  1  0  0  3  0  0  0  0  0  0
  189.5970  171.4240  138.1920 C   0  0  0  0  0  2  0  0  0  0  0  0
  190.4860  171.9210  139.3190 C   0  0  1  0  0  3  0  0  0  0  0  0
  188.0440  172.5210  139.5320 O   0  0  0  0  0  1  0  0  0  0  0  0
  189.2450  172.7280  138.8500 C   0  0  2  0  0  0  0  0  0  0  0  0
  189.1590  174.3500  136.8410 N   0  0  0  0  0  0  0  0  0  0  0  0
  189.1770  173.6510  137.7240 C   0  0  0  0  0  0  0  0  0  0  0  0
  189.7010  171.4500  142.6090 C   0  0  0  0  0  1  0  0  0  0  0  0
  190.9190  171.6060  141.7830 N   0  0  0  0  0  0  0  0  0  0  0  0
  191.0460  170.2760  141.1750 C   0  0  0  0  0  2  0  0  0  0  0  0
  193.5090  170.4980  141.8240 C   0  0  0  0  0  1  0  0  0  0  0  0
  192.0350  168.9220  142.8120 O   0  0  0  0  0  1  0  0  0  0  0  0
  192.3090  169.5990  141.6440 C   0  0  1  0  0  3  0  0  0  0  0  0
  1  3  1  0  0  0  0
  1 25  1  1  0  0  0
  2  1  1  0  0  0  0
  2  3  1  0  0  0  0
  3  4  1  6  0  0  0
  4  7  1  0  0  0  0
  4  6  1  1  0  0  0
  5  6  2  0  0  0  0
  8 11  1  0  0  0  0
  9 10  1  6  0  0  0
  9 15  1  0  0  0  0
 11 12  1  0  0  0  0
 12 22  1  1  0  0  0
 13 14  1  6  0  0  0
 13  9  1  0  0  0  0
 13  8  1  0  0  0  0
 15  7  1  6  0  0  0
 15 12  1  0  0  0  0
 16 17  2  0  0  0  0
 17 18  1  0  0  0  0
 19 21  2  0  0  0  0
 19 18  1  0  0  0  0
 20 19  1  0  0  0  0
 22 20  2  0  0  0  0
 22 16  1  0  0  0  0
 23 10  1  0  0  0  0
 24 23  2  0  0  0  0
 26 28  1  6  0  0  0
 26 25  1  0  0  0  0
 26 27  1  0  0  0  0
 30 29  1  1  0  0  0
 30 26  1  0  0  0  0
 31 30  1  0  0  0  0
 32 31  1  0  0  0  0
 33 32  1  0  0  0  0
 34 33  1  6  0  0  0
 34 42  1  0  0  0  0
 35 38  1  0  0  0  0
 35 36  1  0  0  0  0
 36 34  1  1  0  0  0
 38 36  1  0  0  0  0
 38 37  1  1  0  0  0
 39 40  3  0  0  0  0
 40 38  1  0  0  0  0
 42 41  1  0  0  0  0
 43 46  1  0  0  0  0
 43 42  1  0  0  0  0
 46 44  1  1  0  0  0
 46 45  1  0  0  0  0
M  END
>  <MODEL>
3

>  <REMARK>
 VINA RESULT:      -6.0      1.718      3.030
  Name = 
  18 active torsions:
  status: ('A' for Active; 'I' for Inactive)
    1  A    between atoms: C_3  and  C_7
    2  A    between atoms: C_3  and  C_16
    3  A    between atoms: C_5  and  C_42
    4  A    between atoms: C_7  and  C_12
    5  A    between atoms: C_8  and  N_26
    6  A    between atoms: C_8  and  C_37
    7  A    between atoms: C_10  and  N_23
    8  A    between atoms: C_11  and  C_18
    9  A    between atoms: C_11  and  C_45
   10  A    between atoms: C_12  and  C_17
   11  A    between atoms: C_12  and  N_26
   12  A    between atoms: C_16  and  C_45
   13  A    between atoms: C_18  and  C_34
   14  A    between atoms: C_28  and  C_44
   15  A    between atoms: C_29  and  S_39
   16  A    between atoms: C_29  and  C_40
   17  A    between atoms: C_29  and  C_46
   18  A    between atoms: S_39  and  C_43
                            x       y       z     vdW  Elec       q    Type
                         _______ _______ _______ _____ _____    ______ ____

>  <TORSDO>
F 18

$$$$
=
 OpenBabel11062419493D

 46 49  0  0  1  0  0  0  0  0999 V2000
  193.5260  174.5250  144.6630 C   0  0  2  0  0  3  0  0  0  0  0  0
  192.8830  173.6620  143.6520 N   0  0  0  0  0  2  0  0  0  0  0  0
  193.9060  173.1080  144.6470 C   0  0  1  0  0  3  0  0  0  0  0  0
  195.3260  173.1440  144.1530 C   0  0  1  0  0  3  0  0  0  0  0  0
  196.8220  172.0410  145.9560 C   0  0  0  0  0  2  0  0  0  0  0  0
  196.1950  173.1490  145.4390 C   0  0  0  0  0  3  0  0  0  0  0  0
  195.8120  171.7690  143.0330 S   0  0  0  0  0  0  0  0  0  0  0  0
  191.7730  169.4180  142.3540 C   0  0  0  0  0  2  0  0  0  0  0  0
  193.4520  170.7650  140.9380 C   0  0  2  0  0  3  0  0  0  0  0  0
  193.8450  171.4230  139.8560 N   0  0  0  0  0  2  0  0  0  0  0  0
  192.6040  169.7250  143.4900 N   0  0  0  0  0  2  0  0  0  0  0  0
  193.9790  169.5450  143.1130 C   0  0  1  0  0  3  0  0  0  0  0  0
  191.9420  170.4980  141.2380 C   0  0  1  0  0  3  0  0  0  0  0  0
  191.1190  169.9710  140.1810 N   0  0  0  0  0  1  0  0  0  0  0  0
  194.4530  170.6260  142.1450 C   0  0  2  0  0  3  0  0  0  0  0  0
  196.1350  168.5930  144.0210 C   0  0  0  0  0  3  0  0  0  0  0  0
  196.8840  168.1660  145.0210 C   0  0  0  0  0  3  0  0  0  0  0  0
  196.4340  168.2470  146.4270 C   0  0  0  0  0  2  0  0  0  0  0  0
  195.0650  168.8160  146.5830 C   0  0  0  0  0  0  0  0  0  0  0  0
  194.3410  169.2120  145.4570 N   0  0  0  0  0  0  0  0  0  0  0  0
  194.5270  168.9200  147.7730 O   0  0  0  0  0  0  0  0  0  0  0  0
  194.8450  169.1730  144.2190 C   0  0  0  0  0  0  0  0  0  0  0  0
  193.0430  171.4630  138.7450 C   0  0  0  0  0  3  0  0  0  0  0  0
  192.4390  172.5220  138.3620 O   0  0  0  0  0  0  0  0  0  0  0  0
  192.7420  174.7480  145.9600 C   0  0  0  0  0  2  0  0  0  0  0  0
  192.5330  176.2600  146.1950 C   0  0  2  0  0  0  0  0  0  0  0  0
  192.1590  176.9370  145.0780 F   0  0  0  0  0  0  0  0  0  0  0  0
  193.9130  176.7160  146.7740 C   0  0  0  0  0  1  0  0  0  0  0  0
  191.0660  175.3530  148.0030 C   0  0  0  0  0  1  0  0  0  0  0  0
  191.3740  176.5700  147.1410 C   0  0  2  0  0  3  0  0  0  0  0  0
  190.0850  177.2920  146.6620 C   0  0  0  0  0  2  0  0  0  0  0  0
  189.1850  176.2610  146.0010 C   0  0  0  0  0  2  0  0  0  0  0  0
  188.9240  176.6830  144.5230 C   0  0  0  0  0  2  0  0  0  0  0  0
  187.4330  176.6760  144.1470 C   0  0  1  0  0  3  0  0  0  0  0  0
  185.9710  179.1490  144.9000 C   0  0  0  0  0  2  0  0  0  0  0  0
  186.9440  178.0800  144.4320 C   0  0  1  0  0  3  0  0  0  0  0  0
  184.8420  177.2140  145.5270 O   0  0  0  0  0  1  0  0  0  0  0  0
  186.0610  177.8750  145.6930 C   0  0  2  0  0  0  0  0  0  0  0  0
  186.5900  178.7100  148.0790 N   0  0  0  0  0  0  0  0  0  0  0  0
  186.3390  178.3530  147.0420 C   0  0  0  0  0  0  0  0  0  0  0  0
  186.2240  177.0650  141.9740 C   0  0  0  0  0  1  0  0  0  0  0  0
  187.1080  176.1880  142.7730 N   0  0  0  0  0  0  0  0  0  0  0  0
  188.3630  176.2490  142.0140 C   0  0  0  0  0  2  0  0  0  0  0  0
  188.1130  173.7050  142.0660 C   0  0  0  0  0  1  0  0  0  0  0  0
  188.1650  174.9720  140.0600 O   0  0  0  0  0  1  0  0  0  0  0  0
  188.6440  174.9250  141.3510 C   0  0  1  0  0  3  0  0  0  0  0  0
  1 25  1  1  0  0  0
  2  3  1  0  0  0  0
  2  1  1  0  0  0  0
  3  4  1  6  0  0  0
  3  1  1  0  0  0  0
  4  6  1  1  0  0  0
  6  5  2  0  0  0  0
  7  4  1  0  0  0  0
  8 11  1  0  0  0  0
  9 10  1  1  0  0  0
  9 13  1  0  0  0  0
  9 15  1  0  0  0  0
 12 11  1  0  0  0  0
 12 22  1  1  0  0  0
 13 14  1  6  0  0  0
 13  8  1  0  0  0  0
 15  7  1  1  0  0  0
 15 12  1  0  0  0  0
 16 22  1  0  0  0  0
 16 17  2  0  0  0  0
 17 18  1  0  0  0  0
 18 19  1  0  0  0  0
 19 21  2  0  0  0  0
 20 19  1  0  0  0  0
 22 20  2  0  0  0  0
 23 10  1  0  0  0  0
 24 23  2  0  0  0  0
 25 26  1  0  0  0  0
 26 28  1  1  0  0  0
 26 30  1  0  0  0  0
 27 26  1  0  0  0  0
 30 29  1  6  0  0  0
 31 30  1  0  0  0  0
 32 31  1  0  0  0  0
 33 32  1  0  0  0  0
 34 33  1  6  0  0  0
 35 38  1  0  0  0  0
 36 34  1  6  0  0  0
 36 35  1  0  0  0  0
 36 38  1  0  0  0  0
 38 37  1  6  0  0  0
 38 40  1  0  0  0  0
 40 39  3  0  0  0  0
 41 42  1  0  0  0  0
 42 34  1  0  0  0  0
 43 42  1  0  0  0  0
 45 46  1  0  0  0  0
 46 43  1  0  0  0  0
 46 44  1  1  0  0  0
M  END
>  <MODEL>
4

>  <REMARK>
 VINA RESULT:      -5.8      3.589      8.537
  Name = 
  18 active torsions:
  status: ('A' for Active; 'I' for Inactive)
    1  A    between atoms: C_3  and  C_7
    2  A    between atoms: C_3  and  C_16
    3  A    between atoms: C_5  and  C_42
    4  A    between atoms: C_7  and  C_12
    5  A    between atoms: C_8  and  N_26
    6  A    between atoms: C_8  and  C_37
    7  A    between atoms: C_10  and  N_23
    8  A    between atoms: C_11  and  C_18
    9  A    between atoms: C_11  and  C_45
   10  A    between atoms: C_12  and  C_17
   11  A    between atoms: C_12  and  N_26
   12  A    between atoms: C_16  and  C_45
   13  A    between atoms: C_18  and  C_34
   14  A    between atoms: C_28  and  C_44
   15  A    between atoms: C_29  and  S_39
   16  A    between atoms: C_29  and  C_40
   17  A    between atoms: C_29  and  C_46
   18  A    between atoms: S_39  and  C_43
                            x       y       z     vdW  Elec       q    Type
                         _______ _______ _______ _____ _____    ______ ____

>  <TORSDO>
F 18

$$$$
=
 OpenBabel11062419493D

 46 49  0  0  1  0  0  0  0  0999 V2000
  193.4600  174.2040  144.4640 C   0  0  2  0  0  3  0  0  0  0  0  0
  193.0230  173.3870  143.3150 N   0  0  0  0  0  2  0  0  0  0  0  0
  193.8390  172.7860  144.4620 C   0  0  1  0  0  3  0  0  0  0  0  0
  195.3270  172.8330  144.2500 C   0  0  1  0  0  3  0  0  0  0  0  0
  196.8440  173.4530  146.2540 C   0  0  0  0  0  2  0  0  0  0  0  0
  195.9380  172.6090  145.6580 C   0  0  0  0  0  3  0  0  0  0  0  0
  195.9940  171.6200  143.0390 S   0  0  0  0  0  0  0  0  0  0  0  0
  192.2540  168.8300  142.3110 C   0  0  0  0  0  2  0  0  0  0  0  0
  193.9360  170.1690  140.8900 C   0  0  2  0  0  3  0  0  0  0  0  0
  194.3700  170.7380  139.7730 N   0  0  0  0  0  2  0  0  0  0  0  0
  192.9460  169.3400  143.4670 N   0  0  0  0  0  2  0  0  0  0  0  0
  194.3600  169.2530  143.2300 C   0  0  1  0  0  3  0  0  0  0  0  0
  192.4330  169.7920  141.0930 C   0  0  1  0  0  3  0  0  0  0  0  0
  191.7600  169.0750  140.0420 N   0  0  0  0  0  1  0  0  0  0  0  0
  194.8280  170.2610  142.1830 C   0  0  2  0  0  3  0  0  0  0  0  0
  196.5360  168.7510  144.4120 C   0  0  0  0  0  3  0  0  0  0  0  0
  197.2300  168.5080  145.5080 C   0  0  0  0  0  3  0  0  0  0  0  0
  196.6170  168.5600  146.8520 C   0  0  0  0  0  2  0  0  0  0  0  0
  195.1600  168.8720  146.8310 C   0  0  0  0  0  0  0  0  0  0  0  0
  194.5090  169.0840  145.6140 N   0  0  0  0  0  0  0  0  0  0  0  0
  194.4800  168.9220  147.9500 O   0  0  0  0  0  0  0  0  0  0  0  0
  195.1490  169.0900  144.4410 C   0  0  0  0  0  0  0  0  0  0  0  0
  193.6740  170.5770  138.6030 C   0  0  0  0  0  3  0  0  0  0  0  0
  194.1150  170.9800  137.4720 O   0  0  0  0  0  0  0  0  0  0  0  0
  192.4440  174.3790  145.5960 C   0  0  0  0  0  2  0  0  0  0  0  0
  192.1200  175.8770  145.7860 C   0  0  2  0  0  0  0  0  0  0  0  0
  191.9010  176.5370  144.6190 F   0  0  0  0  0  0  0  0  0  0  0  0
  193.3600  176.4030  146.5820 C   0  0  0  0  0  1  0  0  0  0  0  0
  191.0790  176.3860  147.9990 C   0  0  0  0  0  1  0  0  0  0  0  0
  190.8060  176.1220  146.5250 C   0  0  2  0  0  3  0  0  0  0  0  0
  189.5550  175.2270  146.3100 C   0  0  0  0  0  2  0  0  0  0  0  0
  188.3370  176.1320  146.2260 C   0  0  0  0  0  2  0  0  0  0  0  0
  188.7050  177.4110  145.4150 C   0  0  0  0  0  2  0  0  0  0  0  0
  187.6810  177.7460  144.3170 C   0  0  1  0  0  3  0  0  0  0  0  0
  187.0580  175.4260  142.5700 C   0  0  0  0  0  2  0  0  0  0  0  0
  187.3150  176.4150  143.6940 C   0  0  1  0  0  3  0  0  0  0  0  0
  187.8610  177.2560  141.3780 O   0  0  0  0  0  1  0  0  0  0  0  0
  188.2010  176.3890  142.4200 C   0  0  2  0  0  0  0  0  0  0  0  0
  190.1960  174.8250  141.9230 N   0  0  0  0  0  0  0  0  0  0  0  0
  189.3340  175.5090  142.1600 C   0  0  0  0  0  0  0  0  0  0  0  0
  185.9280  179.4500  143.7170 C   0  0  0  0  0  1  0  0  0  0  0  0
  186.5040  178.5580  144.7480 N   0  0  0  0  0  0  0  0  0  0  0  0
  185.4110  177.6030  144.9670 C   0  0  0  0  0  2  0  0  0  0  0  0
  185.5580  178.4380  147.3780 C   0  0  0  0  0  1  0  0  0  0  0  0
  183.6600  178.7730  145.9930 O   0  0  0  0  0  1  0  0  0  0  0  0
  184.6960  177.9050  146.2590 C   0  0  1  0  0  3  0  0  0  0  0  0
  1 25  1  1  0  0  0
  2  3  1  0  0  0  0
  2  1  1  0  0  0  0
  3  4  1  6  0  0  0
  3  1  1  0  0  0  0
  4  6  1  1  0  0  0
  6  5  2  0  0  0  0
  7  4  1  0  0  0  0
  8 11  1  0  0  0  0
  9 10  1  1  0  0  0
  9 13  1  0  0  0  0
  9 15  1  0  0  0  0
 12 11  1  0  0  0  0
 12 22  1  1  0  0  0
 13 14  1  6  0  0  0
 13  8  1  0  0  0  0
 15  7  1  1  0  0  0
 15 12  1  0  0  0  0
 16 22  1  0  0  0  0
 16 17  2  0  0  0  0
 17 18  1  0  0  0  0
 19 18  1  0  0  0  0
 19 21  2  0  0  0  0
 20 19  1  0  0  0  0
 22 20  2  0  0  0  0
 23 10  1  0  0  0  0
 24 23  2  0  0  0  0
 25 26  1  0  0  0  0
 26 30  1  0  0  0  0
 26 28  1  1  0  0  0
 27 26  1  0  0  0  0
 30 29  1  1  0  0  0
 31 30  1  0  0  0  0
 32 31  1  0  0  0  0
 33 32  1  0  0  0  0
 34 42  1  0  0  0  0
 34 33  1  1  0  0  0
 35 36  1  0  0  0  0
 36 34  1  6  0  0  0
 38 37  1  6  0  0  0
 38 35  1  0  0  0  0
 38 36  1  0  0  0  0
 39 40  3  0  0  0  0
 40 38  1  0  0  0  0
 41 42  1  0  0  0  0
 42 43  1  0  0  0  0
 43 46  1  0  0  0  0
 45 46  1  0  0  0  0
 46 44  1  1  0  0  0
M  END
>  <MODEL>
5

>  <REMARK>
 VINA RESULT:      -5.8      3.807      9.238
  Name = 
  18 active torsions:
  status: ('A' for Active; 'I' for Inactive)
    1  A    between atoms: C_3  and  C_7
    2  A    between atoms: C_3  and  C_16
    3  A    between atoms: C_5  and  C_42
    4  A    between atoms: C_7  and  C_12
    5  A    between atoms: C_8  and  N_26
    6  A    between atoms: C_8  and  C_37
    7  A    between atoms: C_10  and  N_23
    8  A    between atoms: C_11  and  C_18
    9  A    between atoms: C_11  and  C_45
   10  A    between atoms: C_12  and  C_17
   11  A    between atoms: C_12  and  N_26
   12  A    between atoms: C_16  and  C_45
   13  A    between atoms: C_18  and  C_34
   14  A    between atoms: C_28  and  C_44
   15  A    between atoms: C_29  and  S_39
   16  A    between atoms: C_29  and  C_40
   17  A    between atoms: C_29  and  C_46
   18  A    between atoms: S_39  and  C_43
                            x       y       z     vdW  Elec       q    Type
                         _______ _______ _______ _____ _____    ______ ____

>  <TORSDO>
F 18

$$$$
=
 OpenBabel11062419493D

 46 49  0  0  1  0  0  0  0  0999 V2000
  195.6090  175.8450  144.0470 C   0  0  2  0  0  3  0  0  0  0  0  0
  196.9390  176.0980  143.4560 N   0  0  0  0  0  2  0  0  0  0  0  0
  195.6530  176.2870  142.6480 C   0  0  1  0  0  3  0  0  0  0  0  0
  195.2150  175.0620  141.8930 C   0  0  1  0  0  3  0  0  0  0  0  0
  196.1050  172.7020  142.4760 C   0  0  0  0  0  2  0  0  0  0  0  0
  195.5010  173.8770  142.8530 C   0  0  0  0  0  3  0  0  0  0  0  0
  193.4610  175.0560  141.3400 S   0  0  0  0  0  0  0  0  0  0  0  0
  190.5750  173.0120  138.2110 C   0  0  0  0  0  2  0  0  0  0  0  0
  192.8480  174.2250  138.1940 C   0  0  2  0  0  3  0  0  0  0  0  0
  193.8660  174.8480  137.6150 N   0  0  0  0  0  2  0  0  0  0  0  0
  190.5420  173.2600  139.6300 N   0  0  0  0  0  2  0  0  0  0  0  0
  191.8410  172.9760  140.1740 C   0  0  1  0  0  3  0  0  0  0  0  0
  191.4640  174.0730  137.4860 C   0  0  1  0  0  3  0  0  0  0  0  0
  191.4410  173.6060  136.1250 N   0  0  0  0  0  1  0  0  0  0  0  0
  192.8770  174.0150  139.7540 C   0  0  2  0  0  3  0  0  0  0  0  0
  192.6960  171.5440  142.0710 C   0  0  0  0  0  3  0  0  0  0  0  0
  192.6090  171.0810  143.3050 C   0  0  0  0  0  3  0  0  0  0  0  0
  191.5770  171.5580  144.2500 C   0  0  0  0  0  2  0  0  0  0  0  0
  190.6490  172.5650  143.6630 C   0  0  0  0  0  0  0  0  0  0  0  0
  190.8080  172.9680  142.3350 N   0  0  0  0  0  0  0  0  0  0  0  0
  189.6670  173.0530  144.3780 O   0  0  0  0  0  0  0  0  0  0  0  0
  191.8120  172.5440  141.5620 C   0  0  0  0  0  0  0  0  0  0  0  0
  193.9270  174.9440  136.2490 C   0  0  0  0  0  3  0  0  0  0  0  0
  193.8000  176.0520  135.6250 O   0  0  0  0  0  0  0  0  0  0  0  0
  194.9930  176.9980  144.8450 C   0  0  0  0  0  2  0  0  0  0  0  0
  194.1460  176.4390  146.0090 C   0  0  2  0  0  0  0  0  0  0  0  0
  194.1780  177.2130  147.1250 F   0  0  0  0  0  0  0  0  0  0  0  0
  194.7450  175.0090  146.2190 C   0  0  0  0  0  1  0  0  0  0  0  0
  192.1070  174.9980  145.9210 C   0  0  0  0  0  1  0  0  0  0  0  0
  192.6500  176.4040  145.7050 C   0  0  2  0  0  3  0  0  0  0  0  0
  192.0440  177.0800  144.4450 C   0  0  0  0  0  2  0  0  0  0  0  0
  190.6490  176.5160  144.2320 C   0  0  0  0  0  2  0  0  0  0  0  0
  189.5980  177.5370  144.7640 C   0  0  0  0  0  2  0  0  0  0  0  0
  188.1520  177.0220  144.6650 C   0  0  1  0  0  3  0  0  0  0  0  0
  187.5520  175.2050  142.3950 C   0  0  0  0  0  2  0  0  0  0  0  0
  188.1530  176.0540  143.5010 C   0  0  1  0  0  3  0  0  0  0  0  0
  185.6750  176.3610  143.1370 O   0  0  0  0  0  1  0  0  0  0  0  0
  186.9640  176.5650  142.6420 C   0  0  2  0  0  0  0  0  0  0  0  0
  187.0660  177.6950  140.3210 N   0  0  0  0  0  0  0  0  0  0  0  0
  187.0410  177.1940  141.3290 C   0  0  0  0  0  0  0  0  0  0  0  0
  188.5470  175.9350  146.9000 C   0  0  0  0  0  1  0  0  0  0  0  0
  187.5710  176.4600  145.9200 N   0  0  0  0  0  0  0  0  0  0  0  0
  186.9950  177.5980  146.6460 C   0  0  0  0  0  2  0  0  0  0  0  0
  184.4470  177.7890  146.5520 C   0  0  0  0  0  1  0  0  0  0  0  0
  185.9130  179.4880  145.7800 O   0  0  0  0  0  1  0  0  0  0  0  0
  185.7800  178.1250  145.9250 C   0  0  1  0  0  3  0  0  0  0  0  0
  1 25  1  1  0  0  0
  2  1  1  0  0  0  0
  3  4  1  6  0  0  0
  3  2  1  0  0  0  0
  3  1  1  0  0  0  0
  4  6  1  1  0  0  0
  5  6  2  0  0  0  0
  7  4  1  0  0  0  0
  8 11  1  0  0  0  0
  9 10  1  1  0  0  0
  9 15  1  0  0  0  0
 11 12  1  0  0  0  0
 12 22  1  1  0  0  0
 13 14  1  6  0  0  0
 13  9  1  0  0  0  0
 13  8  1  0  0  0  0
 15 12  1  0  0  0  0
 15  7  1  1  0  0  0
 16 17  2  0  0  0  0
 17 18  1  0  0  0  0
 19 18  1  0  0  0  0
 19 21  2  0  0  0  0
 20 19  1  0  0  0  0
 22 16  1  0  0  0  0
 22 20  2  0  0  0  0
 23 10  1  0  0  0  0
 24 23  2  0  0  0  0
 25 26  1  0  0  0  0
 26 28  1  1  0  0  0
 26 27  1  0  0  0  0
 30 29  1  6  0  0  0
 30 26  1  0  0  0  0
 31 30  1  0  0  0  0
 32 31  1  0  0  0  0
 32 33  1  0  0  0  0
 34 33  1  1  0  0  0
 34 42  1  0  0  0  0
 35 38  1  0  0  0  0
 35 36  1  0  0  0  0
 36 34  1  1  0  0  0
 38 37  1  1  0  0  0
 38 36  1  0  0  0  0
 39 40  3  0  0  0  0
 40 38  1  0  0  0  0
 42 43  1  0  0  0  0
 42 41  1  0  0  0  0
 45 46  1  0  0  0  0
 46 44  1  1  0  0  0
 46 43  1  0  0  0  0
M  END
>  <MODEL>
6

>  <REMARK>
 VINA RESULT:      -5.7      2.470      7.424
  Name = 
  18 active torsions:
  status: ('A' for Active; 'I' for Inactive)
    1  A    between atoms: C_3  and  C_7
    2  A    between atoms: C_3  and  C_16
    3  A    between atoms: C_5  and  C_42
    4  A    between atoms: C_7  and  C_12
    5  A    between atoms: C_8  and  N_26
    6  A    between atoms: C_8  and  C_37
    7  A    between atoms: C_10  and  N_23
    8  A    between atoms: C_11  and  C_18
    9  A    between atoms: C_11  and  C_45
   10  A    between atoms: C_12  and  C_17
   11  A    between atoms: C_12  and  N_26
   12  A    between atoms: C_16  and  C_45
   13  A    between atoms: C_18  and  C_34
   14  A    between atoms: C_28  and  C_44
   15  A    between atoms: C_29  and  S_39
   16  A    between atoms: C_29  and  C_40
   17  A    between atoms: C_29  and  C_46
   18  A    between atoms: S_39  and  C_43
                            x       y       z     vdW  Elec       q    Type
                         _______ _______ _______ _____ _____    ______ ____

>  <TORSDO>
F 18

$$$$
=
 OpenBabel11062419493D

 46 49  0  0  1  0  0  0  0  0999 V2000
  192.2070  176.6740  143.7370 C   0  0  2  0  0  3  0  0  0  0  0  0
  191.5470  177.9250  143.3100 N   0  0  0  0  0  2  0  0  0  0  0  0
  191.0600  177.1350  144.5270 C   0  0  1  0  0  3  0  0  0  0  0  0
  190.0010  176.1140  144.2150 C   0  0  1  0  0  3  0  0  0  0  0  0
  189.6720  175.2510  146.6340 C   0  0  0  0  0  2  0  0  0  0  0  0
  190.1170  175.0600  145.3480 C   0  0  0  0  0  3  0  0  0  0  0  0
  188.2850  176.7630  144.0900 S   0  0  0  0  0  3  0  0  0  0  0  0
  185.9050  177.9020  140.1730 C   0  0  0  0  0  2  0  0  0  0  0  0
  187.4540  176.0050  140.9760 C   0  0  2  0  0  3  0  0  0  0  0  0
  188.2400  174.9510  140.8040 N   0  0  0  0  0  2  0  0  0  0  0  0
  186.1080  178.5070  141.4650 N   0  0  0  0  0  2  0  0  0  0  0  0
  186.0130  177.4840  142.4690 C   0  0  1  0  0  3  0  0  0  0  0  0
  187.1090  176.9780  139.8030 C   0  0  1  0  0  3  0  0  0  0  0  0
  186.6790  176.4120  138.5500 N   0  0  0  0  0  1  0  0  0  0  0  0
  187.2090  176.5370  142.4370 C   0  0  0  0  0  0  0  0  0  0  0  0
  185.5550  179.3560  144.1040 C   0  0  0  0  0  3  0  0  0  0  0  0
  185.2210  179.7900  145.3050 C   0  0  0  0  0  3  0  0  0  0  0  0
  184.8200  178.8670  146.3890 C   0  0  0  0  0  2  0  0  0  0  0  0
  184.8670  177.4300  145.9970 C   0  0  0  0  0  0  0  0  0  0  0  0
  185.2640  177.0720  144.7070 N   0  0  0  0  0  0  0  0  0  0  0  0
  184.5650  176.4990  146.8670 O   0  0  0  0  0  0  0  0  0  0  0  0
  185.5440  177.9700  143.7570 C   0  0  0  0  0  0  0  0  0  0  0  0
  188.3810  174.3920  139.5600 C   0  0  0  0  0  3  0  0  0  0  0  0
  188.0430  173.1880  139.2980 O   0  0  0  0  0  0  0  0  0  0  0  0
  193.4400  176.8300  144.6310 C   0  0  0  0  0  2  0  0  0  0  0  0
  194.0730  175.4480  144.9000 C   0  0  2  0  0  0  0  0  0  0  0  0
  193.2130  174.4120  144.7220 F   0  0  0  0  0  0  0  0  0  0  0  0
  194.5960  175.5840  146.3680 C   0  0  0  0  0  1  0  0  0  0  0  0
  196.1890  176.2340  143.8270 C   0  0  0  0  0  1  0  0  0  0  0  0
  195.1860  175.0910  143.9160 C   0  0  2  0  0  3  0  0  0  0  0  0
  194.8940  174.4570  142.5290 C   0  0  0  0  0  2  0  0  0  0  0  0
  195.9400  173.3850  142.2710 C   0  0  0  0  0  2  0  0  0  0  0  0
  195.2250  172.0560  141.8800 C   0  0  0  0  0  2  0  0  0  0  0  0
  193.7750  172.2660  141.4110 C   0  0  1  0  0  3  0  0  0  0  0  0
  193.3900  172.1860  138.4670 C   0  0  0  0  0  2  0  0  0  0  0  0
  193.7980  172.0060  139.9200 C   0  0  1  0  0  3  0  0  0  0  0  0
  192.1870  173.8990  139.4820 O   0  0  0  0  0  1  0  0  0  0  0  0
  193.4870  173.4100  139.3330 C   0  0  2  0  0  0  0  0  0  0  0  0
  195.1040  174.9480  138.0320 N   0  0  0  0  0  0  0  0  0  0  0  0
  194.3980  174.2650  138.5820 C   0  0  0  0  0  0  0  0  0  0  0  0
  193.1520  170.9210  143.4450 C   0  0  0  0  0  1  0  0  0  0  0  0
  192.7310  171.4890  142.1450 N   0  0  0  0  0  0  0  0  0  0  0  0
  191.7140  172.4650  142.5550 C   0  0  0  0  0  2  0  0  0  0  0  0
  190.4110  171.0320  140.8870 C   0  0  0  0  0  1  0  0  0  0  0  0
  189.4240  172.0350  142.7970 O   0  0  0  0  0  1  0  0  0  0  0  0
  190.4100  172.1960  141.8490 C   0  0  1  0  0  3  0  0  0  0  0  0
  1  3  1  0  0  0  0
  1 25  1  1  0  0  0
  2  1  1  0  0  0  0
  2  3  1  0  0  0  0
  3  4  1  6  0  0  0
  4  6  1  1  0  0  0
  6  5  2  0  0  0  0
  7  4  1  0  0  0  0
  8 11  1  0  0  0  0
  9 10  1  1  0  0  0
  9 15  1  0  0  0  0
 11 12  1  0  0  0  0
 12 22  1  1  0  0  0
 13 14  1  6  0  0  0
 13  8  1  0  0  0  0
 13  9  1  0  0  0  0
 15 12  1  0  0  0  0
 15  7  2  0  0  0  0
 16 17  2  0  0  0  0
 17 18  1  0  0  0  0
 19 18  1  0  0  0  0
 19 21  2  0  0  0  0
 20 19  1  0  0  0  0
 22 16  1  0  0  0  0
 22 20  2  0  0  0  0
 23 10  1  0  0  0  0
 24 23  2  0  0  0  0
 25 26  1  0  0  0  0
 26 28  1  1  0  0  0
 27 26  1  0  0  0  0
 30 29  1  6  0  0  0
 30 26  1  0  0  0  0
 31 30  1  0  0  0  0
 32 31  1  0  0  0  0
 33 32  1  0  0  0  0
 34 33  1  1  0  0  0
 34 42  1  0  0  0  0
 35 38  1  0  0  0  0
 35 36  1  0  0  0  0
 36 34  1  1  0  0  0
 38 37  1  1  0  0  0
 38 36  1  0  0  0  0
 39 40  3  0  0  0  0
 40 38  1  0  0  0  0
 42 43  1  0  0  0  0
 42 41  1  0  0  0  0
 46 44  1  1  0  0  0
 46 43  1  0  0  0  0
 46 45  1  0  0  0  0
M  END
>  <MODEL>
7

>  <REMARK>
 VINA RESULT:      -5.6      2.099      3.558
  Name = 
  18 active torsions:
  status: ('A' for Active; 'I' for Inactive)
    1  A    between atoms: C_3  and  C_7
    2  A    between atoms: C_3  and  C_16
    3  A    between atoms: C_5  and  C_42
    4  A    between atoms: C_7  and  C_12
    5  A    between atoms: C_8  and  N_26
    6  A    between atoms: C_8  and  C_37
    7  A    between atoms: C_10  and  N_23
    8  A    between atoms: C_11  and  C_18
    9  A    between atoms: C_11  and  C_45
   10  A    between atoms: C_12  and  C_17
   11  A    between atoms: C_12  and  N_26
   12  A    between atoms: C_16  and  C_45
   13  A    between atoms: C_18  and  C_34
   14  A    between atoms: C_28  and  C_44
   15  A    between atoms: C_29  and  S_39
   16  A    between atoms: C_29  and  C_40
   17  A    between atoms: C_29  and  C_46
   18  A    between atoms: S_39  and  C_43
                            x       y       z     vdW  Elec       q    Type
                         _______ _______ _______ _____ _____    ______ ____

>  <TORSDO>
F 18

$$$$
=
 OpenBabel11062419493D

 46 49  0  0  1  0  0  0  0  0999 V2000
  192.3040  174.8680  145.4760 C   0  0  2  0  0  3  0  0  0  0  0  0
  193.4320  173.9450  145.7200 N   0  0  0  0  0  2  0  0  0  0  0  0
  193.4360  174.9250  144.5440 C   0  0  1  0  0  3  0  0  0  0  0  0
  192.8570  174.3640  143.2740 C   0  0  1  0  0  3  0  0  0  0  0  0
  192.6590  176.9000  142.7880 C   0  0  0  0  0  2  0  0  0  0  0  0
  192.6470  175.5960  142.3540 C   0  0  0  0  0  3  0  0  0  0  0  0
  193.8720  173.0800  142.4380 S   0  0  0  0  0  0  0  0  0  0  0  0
  196.9680  171.7920  145.7640 C   0  0  0  0  0  2  0  0  0  0  0  0
  195.0580  170.7060  144.4180 C   0  0  2  0  0  3  0  0  0  0  0  0
  194.1640  169.7600  144.1620 N   0  0  0  0  0  2  0  0  0  0  0  0
  196.6570  173.0150  145.0670 N   0  0  0  0  0  2  0  0  0  0  0  0
  196.4480  172.7100  143.6790 C   0  0  1  0  0  3  0  0  0  0  0  0
  195.7160  170.8600  145.8270 C   0  0  1  0  0  3  0  0  0  0  0  0
  196.2480  169.6840  146.4650 N   0  0  0  0  0  1  0  0  0  0  0  0
  195.1470  171.9440  143.4510 C   0  0  2  0  0  3  0  0  0  0  0  0
  196.4840  175.1680  143.0990 C   0  0  0  0  0  3  0  0  0  0  0  0
  196.6940  176.1560  142.2480 C   0  0  0  0  0  3  0  0  0  0  0  0
  197.2380  175.9210  140.8930 C   0  0  0  0  0  2  0  0  0  0  0  0
  197.4850  174.4830  140.5910 C   0  0  0  0  0  0  0  0  0  0  0  0
  197.2010  173.5090  141.5510 N   0  0  0  0  0  0  0  0  0  0  0  0
  197.9400  174.1250  139.4160 O   0  0  0  0  0  0  0  0  0  0  0  0
  196.7760  173.8070  142.7830 C   0  0  0  0  0  0  0  0  0  0  0  0
  194.1390  168.6140  144.9160 C   0  0  0  0  0  3  0  0  0  0  0  0
  193.0840  168.1910  145.5010 O   0  0  0  0  0  0  0  0  0  0  0  0
  192.3240  176.1830  146.2620 C   0  0  0  0  0  2  0  0  0  0  0  0
  191.0240  176.3250  147.0820 C   0  0  2  0  0  0  0  0  0  0  0  0
  191.0810  177.3010  148.0260 F   0  0  0  0  0  0  0  0  0  0  0  0
  190.8260  174.8900  147.6730 C   0  0  0  0  0  1  0  0  0  0  0  0
  190.2440  177.9190  145.3230 C   0  0  0  0  0  1  0  0  0  0  0  0
  189.8290  176.7810  146.2460 C   0  0  2  0  0  3  0  0  0  0  0  0
  188.4230  177.0100  146.8660 C   0  0  0  0  0  2  0  0  0  0  0  0
  187.4360  177.2190  145.7290 C   0  0  0  0  0  2  0  0  0  0  0  0
  187.5900  176.0600  144.6990 C   0  0  0  0  0  2  0  0  0  0  0  0
  186.8100  176.3030  143.3950 C   0  0  1  0  0  3  0  0  0  0  0  0
  185.9780  179.1140  142.9160 C   0  0  0  0  0  2  0  0  0  0  0  0
  186.6460  177.8060  143.3040 C   0  0  1  0  0  3  0  0  0  0  0  0
  184.3670  177.5750  142.2450 O   0  0  0  0  0  1  0  0  0  0  0  0
  185.1040  177.9760  143.3620 C   0  0  2  0  0  0  0  0  0  0  0  0
  183.7520  179.0610  145.2770 N   0  0  0  0  0  0  0  0  0  0  0  0
  184.3300  178.5690  144.4460 C   0  0  0  0  0  0  0  0  0  0  0  0
  187.5840  176.5940  141.0180 C   0  0  0  0  0  1  0  0  0  0  0  0
  187.3840  175.6810  142.1650 N   0  0  0  0  0  0  0  0  0  0  0  0
  188.7640  175.3110  142.5030 C   0  0  0  0  0  2  0  0  0  0  0  0
  187.8070  173.0570  141.7680 C   0  0  0  0  0  1  0  0  0  0  0  0
  189.9880  173.7990  141.1980 O   0  0  0  0  0  1  0  0  0  0  0  0
  189.0190  173.8620  142.1750 C   0  0  1  0  0  3  0  0  0  0  0  0
  1  2  1  0  0  0  0
  1 25  1  1  0  0  0
  3  4  1  6  0  0  0
  3  1  1  0  0  0  0
  3  2  1  0  0  0  0
  4  6  1  6  0  0  0
  6  5  2  0  0  0  0
  7  4  1  0  0  0  0
  8 13  1  0  0  0  0
  9 10  1  1  0  0  0
  9 13  1  0  0  0  0
 10 23  1  0  0  0  0
 11  8  1  0  0  0  0
 12 22  1  6  0  0  0
 12 11  1  0  0  0  0
 13 14  1  6  0  0  0
 15  7  1  1  0  0  0
 15 12  1  0  0  0  0
 15  9  1  0  0  0  0
 17 16  2  0  0  0  0
 18 17  1  0  0  0  0
 19 18  1  0  0  0  0
 19 20  1  0  0  0  0
 20 22  2  0  0  0  0
 21 19  2  0  0  0  0
 22 16  1  0  0  0  0
 23 24  2  0  0  0  0
 25 26  1  0  0  0  0
 26 28  1  1  0  0  0
 26 27  1  0  0  0  0
 30 29  1  1  0  0  0
 30 31  1  0  0  0  0
 30 26  1  0  0  0  0
 32 31  1  0  0  0  0
 33 32  1  0  0  0  0
 34 33  1  1  0  0  0
 35 36  1  0  0  0  0
 35 38  1  0  0  0  0
 36 38  1  0  0  0  0
 36 34  1  6  0  0  0
 38 37  1  6  0  0  0
 38 40  1  0  0  0  0
 40 39  3  0  0  0  0
 41 42  1  0  0  0  0
 42 43  1  0  0  0  0
 42 34  1  0  0  0  0
 45 46  1  0  0  0  0
 46 44  1  6  0  0  0
 46 43  1  0  0  0  0
M  END
>  <MODEL>
8

>  <REMARK>
 VINA RESULT:      -5.5      3.647      9.120
  Name = 
  18 active torsions:
  status: ('A' for Active; 'I' for Inactive)
    1  A    between atoms: C_3  and  C_7
    2  A    between atoms: C_3  and  C_16
    3  A    between atoms: C_5  and  C_42
    4  A    between atoms: C_7  and  C_12
    5  A    between atoms: C_8  and  N_26
    6  A    between atoms: C_8  and  C_37
    7  A    between atoms: C_10  and  N_23
    8  A    between atoms: C_11  and  C_18
    9  A    between atoms: C_11  and  C_45
   10  A    between atoms: C_12  and  C_17
   11  A    between atoms: C_12  and  N_26
   12  A    between atoms: C_16  and  C_45
   13  A    between atoms: C_18  and  C_34
   14  A    between atoms: C_28  and  C_44
   15  A    between atoms: C_29  and  S_39
   16  A    between atoms: C_29  and  C_40
   17  A    between atoms: C_29  and  C_46
   18  A    between atoms: S_39  and  C_43
                            x       y       z     vdW  Elec       q    Type
                         _______ _______ _______ _____ _____    ______ ____

>  <TORSDO>
F 18

$$$$
=
 OpenBabel11062419493D

 46 49  0  0  1  0  0  0  0  0999 V2000
  192.8260  174.2030  143.7810 C   0  0  2  0  0  3  0  0  0  0  0  0
  193.1420  175.1730  142.7130 N   0  0  0  0  0  2  0  0  0  0  0  0
  192.3860  173.8750  142.4200 C   0  0  1  0  0  3  0  0  0  0  0  0
  193.2720  172.7170  142.0490 C   0  0  1  0  0  3  0  0  0  0  0  0
  191.5980  170.8170  141.5130 C   0  0  0  0  0  2  0  0  0  0  0  0
  192.4400  171.4520  142.3920 C   0  0  0  0  0  3  0  0  0  0  0  0
  193.8400  172.6810  140.3000 S   0  0  0  0  0  0  0  0  0  0  0  0
  192.9960  174.6050  136.0710 C   0  0  0  0  0  2  0  0  0  0  0  0
  191.6300  173.7820  138.0950 C   0  0  2  0  0  3  0  0  0  0  0  0
  190.5180  173.4060  138.7130 N   0  0  0  0  0  2  0  0  0  0  0  0
  194.1700  174.1820  136.7920 N   0  0  0  0  0  2  0  0  0  0  0  0
  194.0420  174.6010  138.1600 C   0  0  1  0  0  3  0  0  0  0  0  0
  191.7430  173.7970  136.5370 C   0  0  1  0  0  3  0  0  0  0  0  0
  190.6870  174.4180  135.7810 N   0  0  0  0  0  1  0  0  0  0  0  0
  192.9780  173.8010  138.9070 C   0  0  2  0  0  3  0  0  0  0  0  0
  196.5090  174.1500  138.4660 C   0  0  0  0  0  3  0  0  0  0  0  0
  197.6430  174.3050  139.1240 C   0  0  0  0  0  3  0  0  0  0  0  0
  197.7570  175.2100  140.2880 C   0  0  0  0  0  2  0  0  0  0  0  0
  196.4770  175.8830  140.6470 C   0  0  0  0  0  0  0  0  0  0  0  0
  195.3220  175.6290  139.9040 N   0  0  0  0  0  0  0  0  0  0  0  0
  196.4230  176.6920  141.6760 O   0  0  0  0  0  0  0  0  0  0  0  0
  195.3150  174.8500  138.8180 C   0  0  0  0  0  0  0  0  0  0  0  0
  189.3100  173.4900  138.0690 C   0  0  0  0  0  3  0  0  0  0  0  0
  188.2140  173.0990  138.5960 O   0  0  0  0  0  0  0  0  0  0  0  0
  191.5550  174.4800  144.5910 C   0  0  0  0  0  2  0  0  0  0  0  0
  191.7530  175.7350  145.4680 C   0  0  2  0  0  0  0  0  0  0  0  0
  192.8940  176.4180  145.1890 F   0  0  0  0  0  0  0  0  0  0  0  0
  191.7070  175.1560  146.9210 C   0  0  0  0  0  1  0  0  0  0  0  0
  191.1680  177.7890  144.1710 C   0  0  0  0  0  1  0  0  0  0  0  0
  190.6920  176.8090  145.2350 C   0  0  2  0  0  3  0  0  0  0  0  0
  189.9640  177.5230  146.4070 C   0  0  0  0  0  2  0  0  0  0  0  0
  188.4760  177.5390  146.0980 C   0  0  0  0  0  2  0  0  0  0  0  0
  188.1520  176.3980  145.0860 C   0  0  0  0  0  2  0  0  0  0  0  0
  187.2900  176.8680  143.9010 C   0  0  1  0  0  3  0  0  0  0  0  0
  185.8850  179.4400  144.3820 C   0  0  0  0  0  2  0  0  0  0  0  0
  186.8460  178.2690  144.2640 C   0  0  1  0  0  3  0  0  0  0  0  0
  184.4600  177.7710  143.6100 O   0  0  0  0  0  1  0  0  0  0  0  0
  185.3550  178.0590  144.6430 C   0  0  2  0  0  0  0  0  0  0  0  0
  184.2750  178.2690  146.9800 N   0  0  0  0  0  0  0  0  0  0  0  0
  184.7650  178.1840  145.9700 C   0  0  0  0  0  0  0  0  0  0  0  0
  188.8070  175.5950  142.3480 C   0  0  0  0  0  1  0  0  0  0  0  0
  187.9200  176.7620  142.5520 N   0  0  0  0  0  0  0  0  0  0  0  0
  186.8260  176.4800  141.6150 C   0  0  0  0  0  2  0  0  0  0  0  0
  186.7260  177.0200  139.1180 C   0  0  0  0  0  1  0  0  0  0  0  0
  185.6880  178.3520  140.7850 O   0  0  0  0  0  1  0  0  0  0  0  0
  186.7670  177.5330  140.5380 C   0  0  1  0  0  3  0  0  0  0  0  0
  1 25  1  1  0  0  0
  2  1  1  0  0  0  0
  3  4  1  6  0  0  0
  3  2  1  0  0  0  0
  3  1  1  0  0  0  0
  4  6  1  6  0  0  0
  5  6  2  0  0  0  0
  7  4  1  0  0  0  0
  8 13  1  0  0  0  0
  8 11  1  0  0  0  0
  9 10  1  6  0  0  0
  9 15  1  0  0  0  0
 11 12  1  0  0  0  0
 12 22  1  1  0  0  0
 12 15  1  0  0  0  0
 13 14  1  6  0  0  0
 13  9  1  0  0  0  0
 15  7  1  6  0  0  0
 16 22  1  0  0  0  0
 16 17  2  0  0  0  0
 17 18  1  0  0  0  0
 18 19  1  0  0  0  0
 19 21  2  0  0  0  0
 20 19  1  0  0  0  0
 22 20  2  0  0  0  0
 23 24  2  0  0  0  0
 23 10  1  0  0  0  0
 25 26  1  0  0  0  0
 26 28  1  1  0  0  0
 27 26  1  0  0  0  0
 30 29  1  1  0  0  0
 30 26  1  0  0  0  0
 30 31  1  0  0  0  0
 32 31  1  0  0  0  0
 33 32  1  0  0  0  0
 34 33  1  1  0  0  0
 35 38  1  0  0  0  0
 36 34  1  6  0  0  0
 36 35  1  0  0  0  0
 36 38  1  0  0  0  0
 38 37  1  6  0  0  0
 38 40  1  0  0  0  0
 40 39  3  0  0  0  0
 41 42  1  0  0  0  0
 42 34  1  0  0  0  0
 43 42  1  0  0  0  0
 46 44  1  6  0  0  0
 46 45  1  0  0  0  0
 46 43  1  0  0  0  0
M  END
>  <MODEL>
9

>  <REMARK>
 VINA RESULT:      -5.4      3.052      8.090
  Name = 
  18 active torsions:
  status: ('A' for Active; 'I' for Inactive)
    1  A    between atoms: C_3  and  C_7
    2  A    between atoms: C_3  and  C_16
    3  A    between atoms: C_5  and  C_42
    4  A    between atoms: C_7  and  C_12
    5  A    between atoms: C_8  and  N_26
    6  A    between atoms: C_8  and  C_37
    7  A    between atoms: C_10  and  N_23
    8  A    between atoms: C_11  and  C_18
    9  A    between atoms: C_11  and  C_45
   10  A    between atoms: C_12  and  C_17
   11  A    between atoms: C_12  and  N_26
   12  A    between atoms: C_16  and  C_45
   13  A    between atoms: C_18  and  C_34
   14  A    between atoms: C_28  and  C_44
   15  A    between atoms: C_29  and  S_39
   16  A    between atoms: C_29  and  C_40
   17  A    between atoms: C_29  and  C_46
   18  A    between atoms: S_39  and  C_43
                            x       y       z     vdW  Elec       q    Type
                         _______ _______ _______ _____ _____    ______ ____

>  <TORSDO>
F 18

$$$$
