=
 OpenBabel11062418283D

 48 53  0  0  1  0  0  0  0  0999 V2000
  193.7530  174.5860  145.0700 C   0  0  1  0  0  3  0  0  0  0  0  0
  197.4270  172.3010  144.8660 C   0  0  0  0  0  2  0  0  0  0  0  0
  197.0650  169.6970  145.5530 O   0  0  0  0  0  0  0  0  0  0  0  0
  195.0700  173.7970  144.9510 C   0  0  2  0  0  3  0  0  0  0  0  0
  196.1960  171.5990  144.2630 C   0  0  1  0  0  3  0  0  0  0  0  0
  196.8060  168.3410  145.8280 C   0  0  0  0  0  2  0  0  0  0  0  0
  194.6420  170.0980  145.4690 C   0  0  2  0  0  3  0  0  0  0  0  0
  196.0000  170.1540  144.7400 C   0  0  2  0  0  3  0  0  0  0  0  0
  194.8710  172.3280  144.5440 C   0  0  1  0  0  3  0  0  0  0  0  0
  194.1520  171.5210  145.6090 C   0  0  0  0  0  2  0  0  0  0  0  0
  195.6280  168.1900  146.8100 C   0  0  0  0  0  2  0  0  0  0  0  0
  197.1020  172.9030  146.2280 C   0  0  0  0  0  2  0  0  0  0  0  0
  194.7590  169.4530  146.8500 C   0  0  0  0  0  2  0  0  0  0  0  0
  196.0600  174.0160  146.1130 C   0  0  0  0  0  2  0  0  0  0  0  0
  193.4140  175.0770  146.4760 C   0  0  0  0  0  2  0  0  0  0  0  0
  192.5140  176.2970  146.3900 C   0  0  0  0  0  2  0  0  0  0  0  0
  191.1250  176.0430  146.9660 C   0  0  0  0  0  0  0  0  0  0  0  0
  191.2090  175.0970  147.9920 O   0  0  0  0  0  1  0  0  0  0  0  0
  190.6190  177.2310  147.4950 O   0  0  0  0  0  1  0  0  0  0  0  0
  190.2430  175.5670  145.8920 N   0  0  0  0  0  0  0  0  0  0  0  0
  188.7730  177.0590  144.5820 C   0  0  0  0  0  0  0  0  0  0  0  0
  187.6790  177.0690  145.5950 C   0  0  0  0  0  1  0  0  0  0  0  0
  189.9380  176.4290  144.7750 C   0  0  0  0  0  3  0  0  0  0  0  0
  188.5860  177.8600  143.3410 C   0  0  0  0  0  2  0  0  0  0  0  0
  187.5580  177.2190  142.4220 C   0  0  0  0  0  2  0  0  0  0  0  0
  188.1090  174.9970  141.3440 C   0  0  0  0  0  0  0  0  0  0  0  0
  187.5420  174.3620  142.2770 O   0  0  0  0  0  0  0  0  0  0  0  0
  188.2340  176.4190  141.4140 N   0  0  0  0  0  2  0  0  0  0  0  0
  188.6070  174.3050  140.1970 N   0  0  0  0  0  2  0  0  0  0  0  0
  188.5330  172.8590  140.0630 C   0  0  0  0  0  2  0  0  0  0  0  0
  192.5670  171.5240  141.2360 N   0  0  0  0  0  2  0  0  0  0  0  0
  192.1610  172.7830  140.6250 C   0  0  0  0  0  2  0  0  0  0  0  0
  191.3310  170.7870  141.4330 C   0  0  0  0  0  2  0  0  0  0  0  0
  190.2110  171.7980  141.4570 C   0  0  1  0  0  3  0  0  0  0  0  0
  190.7790  173.0750  140.9900 N   0  0  2  0  0  0  0  0  0  0  0  0
  189.9280  172.2670  140.1030 C   0  0  2  0  0  3  0  0  0  0  0  0
  190.1480  173.3370  144.8920 C   0  0  0  0  0  1  0  0  0  0  0  0
  189.6550  174.2330  146.0060 C   0  0  0  0  0  2  0  0  0  0  0  0
  193.6340  175.7000  144.0250 C   0  0  0  0  0  2  0  0  0  0  0  0
  195.6230  175.9770  142.4320 N   0  0  0  0  0  2  0  0  0  0  0  0
  195.4680  177.1730  144.4160 O   0  0  0  0  0  0  0  0  0  0  0  0
  194.9510  176.3190  143.6480 C   0  0  0  0  0  0  0  0  0  0  0  0
  196.8590  173.4360  141.3580 O   0  0  0  0  0  0  0  0  0  0  0  0
  194.6630  175.1440  139.1150 C   0  0  0  0  0  2  0  0  0  0  0  0
  195.1060  175.0470  141.4330 C   0  0  2  0  0  3  0  0  0  0  0  0
  196.2160  174.3020  140.7790 C   0  0  0  0  0  0  0  0  0  0  0  0
  194.4130  175.8040  140.3960 N   0  0  0  0  0  2  0  0  0  0  0  0
  196.4000  174.6140  139.0520 S   0  0  0  0  0  0  0  0  0  0  0  0
  1 39  1  6  0  0  0
  1 15  1  0  0  0  0
  2 12  1  0  0  0  0
  3  6  1  0  0  0  0
  4  1  1  1  0  0  0
  4 14  1  0  0  0  0
  5  9  1  0  0  0  0
  5  8  1  0  0  0  0
  5  2  1  1  0  0  0
  6 11  1  0  0  0  0
  7 10  1  1  0  0  0
  7 13  1  0  0  0  0
  8  7  1  0  0  0  0
  8  3  1  1  0  0  0
  9  4  1  0  0  0  0
  9 10  1  1  0  0  0
 11 13  1  0  0  0  0
 14 12  1  0  0  0  0
 16 15  1  0  0  0  0
 16 17  1  0  0  0  0
 17 19  1  0  0  0  0
 17 18  1  0  0  0  0
 20 38  1  0  0  0  0
 20 17  1  0  0  0  0
 21 23  2  0  0  0  0
 21 22  1  0  0  0  0
 23 20  1  0  0  0  0
 24 21  1  0  0  0  0
 25 24  1  0  0  0  0
 26 28  1  0  0  0  0
 26 27  2  0  0  0  0
 28 25  1  0  0  0  0
 29 26  1  0  0  0  0
 30 29  1  0  0  0  0
 31 33  1  0  0  0  0
 32 31  1  0  0  0  0
 34 33  1  6  0  0  0
 35 32  1  6  0  0  0
 35 34  1  0  0  0  0
 36 30  1  1  0  0  0
 36 35  1  0  0  0  0
 36 34  1  0  0  0  0
 37 38  1  0  0  0  0
 40 42  1  0  0  0  0
 42 39  1  0  0  0  0
 42 41  2  0  0  0  0
 44 47  1  0  0  0  0
 45 40  1  1  0  0  0
 46 43  2  0  0  0  0
 46 45  1  0  0  0  0
 47 45  1  0  0  0  0
 48 44  1  0  0  0  0
 48 46  1  0  0  0  0
M  END
>  <MODEL>
1

>  <REMARK>
 VINA RESULT:      -6.5      0.000      0.000
  Name = 
  15 active torsions:
  status: ('A' for Active; 'I' for Inactive)
    1  A    between atoms: C_1  and  C_4
    2  A    between atoms: C_1  and  C_17
    3  A    between atoms: C_5  and  C_30
    4  A    between atoms: C_5  and  C_33
    5  A    between atoms: C_10  and  N_22
    6  A    between atoms: C_11  and  C_12
    7  A    between atoms: C_12  and  C_30
    8  A    between atoms: C_12  and  C_40
    9  A    between atoms: C_17  and  N_36
   10  A    between atoms: N_22  and  C_33
   11  A    between atoms: N_22  and  C_38
   12  A    between atoms: C_28  and  N_34
   13  A    between atoms: C_29  and  C_32
   14  A    between atoms: C_32  and  N_47
   15  A    between atoms: C_40  and  C_46
                            x       y       z     vdW  Elec       q    Type
                         _______ _______ _______ _____ _____    ______ ____

>  <TORSDO>
F 15

$$$$
=
 OpenBabel11062418283D

 48 53  0  0  1  0  0  0  0  0999 V2000
  190.4560  176.0670  145.1830 C   0  0  1  0  0  3  0  0  0  0  0  0
  187.5480  175.7790  141.9850 C   0  0  0  0  0  2  0  0  0  0  0  0
  188.3350  174.0720  140.0230 O   0  0  0  0  0  0  0  0  0  0  0  0
  189.3840  175.9630  144.0830 C   0  0  2  0  0  3  0  0  0  0  0  0
  188.1370  174.4320  142.4470 C   0  0  1  0  0  3  0  0  0  0  0  0
  188.7480  173.1100  139.0830 C   0  0  0  0  0  2  0  0  0  0  0  0
  190.1450  173.3280  141.5110 C   0  0  2  0  0  3  0  0  0  0  0  0
  188.6310  173.5380  141.3010 C   0  0  2  0  0  3  0  0  0  0  0  0
  189.3200  174.5770  143.4190 C   0  0  1  0  0  3  0  0  0  0  0  0
  190.5730  174.2530  142.6270 C   0  0  0  0  0  2  0  0  0  0  0  0
  190.2850  173.0380  139.0000 C   0  0  0  0  0  2  0  0  0  0  0  0
  188.6460  176.8170  141.7840 C   0  0  0  0  0  2  0  0  0  0  0  0
  190.9470  173.6360  140.2460 C   0  0  0  0  0  2  0  0  0  0  0  0
  189.3480  177.1510  143.1010 C   0  0  0  0  0  2  0  0  0  0  0  0
  191.7110  176.8470  144.7960 C   0  0  0  0  0  2  0  0  0  0  0  0
  192.9270  176.2210  145.4550 C   0  0  0  0  0  2  0  0  0  0  0  0
  194.1400  176.1830  144.5320 C   0  0  0  0  0  0  0  0  0  0  0  0
  193.7390  176.4560  143.2200 O   0  0  0  0  0  1  0  0  0  0  0  0
  195.0560  177.1580  144.9300 O   0  0  0  0  0  1  0  0  0  0  0  0
  194.7630  174.8560  144.6180 N   0  0  0  0  0  0  0  0  0  0  0  0
  193.7110  172.8130  143.7100 C   0  0  0  0  0  0  0  0  0  0  0  0
  192.8370  172.5910  144.8970 C   0  0  0  0  0  1  0  0  0  0  0  0
  194.5160  173.8760  143.5880 C   0  0  0  0  0  3  0  0  0  0  0  0
  193.6130  171.8520  142.5790 C   0  0  0  0  0  2  0  0  0  0  0  0
  194.8170  171.9620  141.6560 C   0  0  0  0  0  2  0  0  0  0  0  0
  194.7930  173.3640  139.5500 C   0  0  0  0  0  0  0  0  0  0  0  0
  195.4360  174.2920  140.1160 O   0  0  0  0  0  0  0  0  0  0  0  0
  194.3700  172.2210  140.2980 N   0  0  0  0  0  2  0  0  0  0  0  0
  194.5030  173.4340  138.1520 N   0  0  0  0  0  2  0  0  0  0  0  0
  194.8840  174.5710  137.3310 C   0  0  0  0  0  2  0  0  0  0  0  0
  191.3090  176.0530  135.2200 N   0  0  0  0  0  2  0  0  0  0  0  0
  191.4610  174.8530  136.0330 C   0  0  0  0  0  2  0  0  0  0  0  0
  192.6020  176.7150  135.2830 C   0  0  0  0  0  2  0  0  0  0  0  0
  193.2930  176.2180  136.5280 C   0  0  1  0  0  3  0  0  0  0  0  0
  192.5160  175.0650  137.0170 N   0  0  2  0  0  0  0  0  0  0  0  0
  193.7940  174.8610  136.3180 C   0  0  2  0  0  3  0  0  0  0  0  0
  196.9360  174.0030  145.3480 C   0  0  0  0  0  1  0  0  0  0  0  0
  195.5920  174.5440  145.7820 C   0  0  0  0  0  2  0  0  0  0  0  0
  189.8810  176.5300  146.5270 C   0  0  0  0  0  2  0  0  0  0  0  0
  187.3890  176.0700  146.9100 N   0  0  0  0  0  2  0  0  0  0  0  0
  189.0270  174.5610  147.5640 O   0  0  0  0  0  0  0  0  0  0  0  0
  188.7570  175.6700  147.0330 C   0  0  0  0  0  0  0  0  0  0  0  0
  186.6830  178.7340  148.1500 O   0  0  0  0  0  0  0  0  0  0  0  0
  185.0070  177.9740  145.0880 C   0  0  0  0  0  2  0  0  0  0  0  0
  186.9400  177.3000  146.2660 C   0  0  2  0  0  3  0  0  0  0  0  0
  186.1620  178.1410  147.2160 C   0  0  0  0  0  0  0  0  0  0  0  0
  186.0580  176.9590  145.1550 N   0  0  0  0  0  2  0  0  0  0  0  0
  184.4700  178.3820  146.7750 S   0  0  0  0  0  0  0  0  0  0  0  0
  1 15  1  6  0  0  0
  1 39  1  0  0  0  0
  4  1  1  6  0  0  0
  5  2  1  6  0  0  0
  5  9  1  0  0  0  0
  6  3  1  0  0  0  0
  7 13  1  6  0  0  0
  7 10  1  0  0  0  0
  8  3  1  6  0  0  0
  8  7  1  0  0  0  0
  8  5  1  0  0  0  0
  9 10  1  6  0  0  0
  9  4  1  0  0  0  0
 11  6  1  0  0  0  0
 11 13  1  0  0  0  0
 12  2  1  0  0  0  0
 12 14  1  0  0  0  0
 14  4  1  0  0  0  0
 15 16  1  0  0  0  0
 17 20  1  0  0  0  0
 17 19  1  0  0  0  0
 17 16  1  0  0  0  0
 18 17  1  0  0  0  0
 20 38  1  0  0  0  0
 21 22  1  0  0  0  0
 23 21  2  0  0  0  0
 23 20  1  0  0  0  0
 24 21  1  0  0  0  0
 25 24  1  0  0  0  0
 26 27  2  0  0  0  0
 26 28  1  0  0  0  0
 28 25  1  0  0  0  0
 29 26  1  0  0  0  0
 30 29  1  0  0  0  0
 31 33  1  0  0  0  0
 31 32  1  0  0  0  0
 34 33  1  6  0  0  0
 34 35  1  0  0  0  0
 35 32  1  6  0  0  0
 36 34  1  0  0  0  0
 36 35  1  0  0  0  0
 36 30  1  1  0  0  0
 37 38  1  0  0  0  0
 39 42  1  0  0  0  0
 40 42  1  0  0  0  0
 42 41  2  0  0  0  0
 44 47  1  0  0  0  0
 44 48  1  0  0  0  0
 45 40  1  1  0  0  0
 45 46  1  0  0  0  0
 46 43  2  0  0  0  0
 47 45  1  0  0  0  0
 48 46  1  0  0  0  0
M  END
>  <MODEL>
2

>  <REMARK>
 VINA RESULT:      -6.4      3.434      8.078
  Name = 
  15 active torsions:
  status: ('A' for Active; 'I' for Inactive)
    1  A    between atoms: C_1  and  C_4
    2  A    between atoms: C_1  and  C_17
    3  A    between atoms: C_5  and  C_30
    4  A    between atoms: C_5  and  C_33
    5  A    between atoms: C_10  and  N_22
    6  A    between atoms: C_11  and  C_12
    7  A    between atoms: C_12  and  C_30
    8  A    between atoms: C_12  and  C_40
    9  A    between atoms: C_17  and  N_36
   10  A    between atoms: N_22  and  C_33
   11  A    between atoms: N_22  and  C_38
   12  A    between atoms: C_28  and  N_34
   13  A    between atoms: C_29  and  C_32
   14  A    between atoms: C_32  and  N_47
   15  A    between atoms: C_40  and  C_46
                            x       y       z     vdW  Elec       q    Type
                         _______ _______ _______ _____ _____    ______ ____

>  <TORSDO>
F 15

$$$$
=
 OpenBabel11062418283D

 48 53  0  0  1  0  0  0  0  0999 V2000
  188.6450  175.0460  142.1420 C   0  0  1  0  0  3  0  0  0  0  0  0
  189.9540  174.7290  146.2590 C   0  0  0  0  0  2  0  0  0  0  0  0
  192.3870  175.8720  146.6610 O   0  0  0  0  0  0  0  0  0  0  0  0
  189.0620  174.9470  143.6210 C   0  0  2  0  0  3  0  0  0  0  0  0
  190.1760  176.1110  145.6140 C   0  0  1  0  0  3  0  0  0  0  0  0
  193.6040  176.5570  146.8330 C   0  0  0  0  0  2  0  0  0  0  0  0
  192.2100  176.8450  144.4110 C   0  0  2  0  0  3  0  0  0  0  0  0
  191.5890  176.6770  145.8130 C   0  0  2  0  0  3  0  0  0  0  0  0
  189.9110  176.1360  144.1000 C   0  0  1  0  0  3  0  0  0  0  0  0
  191.2690  176.1890  143.4250 C   0  0  0  0  0  2  0  0  0  0  0  0
  194.4500  176.5190  145.5460 C   0  0  0  0  0  2  0  0  0  0  0  0
  190.4210  173.6130  145.3330 C   0  0  0  0  0  2  0  0  0  0  0  0
  193.5920  176.1990  144.3150 C   0  0  0  0  0  2  0  0  0  0  0  0
  189.5870  173.5630  144.0520 C   0  0  0  0  0  2  0  0  0  0  0  0
  188.6590  173.7270  141.3720 C   0  0  0  0  0  2  0  0  0  0  0  0
  189.6920  173.7920  140.2610 C   0  0  0  0  0  2  0  0  0  0  0  0
  190.8110  172.7710  140.4390 C   0  0  0  0  0  0  0  0  0  0  0  0
  191.8080  173.3070  141.2600 O   0  0  0  0  0  1  0  0  0  0  0  0
  190.2980  171.6250  141.0490 O   0  0  0  0  0  1  0  0  0  0  0  0
  191.3550  172.4250  139.1190 N   0  0  0  0  0  0  0  0  0  0  0  0
  193.5960  173.1750  138.3990 C   0  0  0  0  0  0  0  0  0  0  0  0
  193.1500  174.5490  138.0300 C   0  0  0  0  0  1  0  0  0  0  0  0
  192.7790  172.2670  138.9470 C   0  0  0  0  0  3  0  0  0  0  0  0
  195.0350  172.8360  138.2260 C   0  0  0  0  0  2  0  0  0  0  0  0
  195.9030  174.0840  138.2620 C   0  0  0  0  0  2  0  0  0  0  0  0
  196.5420  174.7980  140.6050 C   0  0  0  0  0  0  0  0  0  0  0  0
  195.6450  175.6860  140.6180 O   0  0  0  0  0  0  0  0  0  0  0  0
  196.7820  174.0350  139.4190 N   0  0  0  0  0  2  0  0  0  0  0  0
  197.3090  174.5270  141.7800 N   0  0  0  0  0  2  0  0  0  0  0  0
  197.1350  175.2710  143.0160 C   0  0  0  0  0  2  0  0  0  0  0  0
  196.4760  171.7920  145.6420 N   0  0  0  0  0  2  0  0  0  0  0  0
  195.5780  172.9010  145.3480 C   0  0  0  0  0  2  0  0  0  0  0  0
  197.6570  172.0430  144.8330 C   0  0  0  0  0  2  0  0  0  0  0  0
  197.2350  172.9460  143.7010 C   0  0  1  0  0  3  0  0  0  0  0  0
  195.8840  173.4370  144.0270 N   0  0  2  0  0  0  0  0  0  0  0  0
  197.0560  174.3120  144.1870 C   0  0  2  0  0  3  0  0  0  0  0  0
  190.2810  170.8410  137.5970 C   0  0  0  0  0  1  0  0  0  0  0  0
  190.4330  172.2930  137.9920 C   0  0  0  0  0  2  0  0  0  0  0  0
  187.3330  175.8130  141.9470 C   0  0  0  0  0  2  0  0  0  0  0  0
  186.5980  177.9720  143.1180 N   0  0  0  0  0  2  0  0  0  0  0  0
  188.3400  177.9430  141.5840 O   0  0  0  0  0  0  0  0  0  0  0  0
  187.4530  177.2910  142.1940 C   0  0  0  0  0  0  0  0  0  0  0  0
  183.7030  178.7430  143.5170 O   0  0  0  0  0  0  0  0  0  0  0  0
  185.2140  176.9900  146.2390 C   0  0  0  0  0  2  0  0  0  0  0  0
  185.5710  177.3240  143.9290 C   0  0  2  0  0  3  0  0  0  0  0  0
  184.5140  178.2970  144.3170 C   0  0  0  0  0  0  0  0  0  0  0  0
  186.1820  176.8230  145.1550 N   0  0  0  0  0  2  0  0  0  0  0  0
  184.3870  178.5970  146.0520 S   0  0  0  0  0  0  0  0  0  0  0  0
  1 15  1  1  0  0  0
  3  6  1  0  0  0  0
  4  1  1  6  0  0  0
  4 14  1  0  0  0  0
  4  9  1  0  0  0  0
  5  8  1  0  0  0  0
  5  2  1  6  0  0  0
  7 10  1  6  0  0  0
  7  8  1  0  0  0  0
  8  3  1  1  0  0  0
  9 10  1  6  0  0  0
  9  5  1  0  0  0  0
 11  6  1  0  0  0  0
 12  2  1  0  0  0  0
 13  7  1  0  0  0  0
 13 11  1  0  0  0  0
 14 12  1  0  0  0  0
 16 17  1  0  0  0  0
 16 15  1  0  0  0  0
 17 19  1  0  0  0  0
 17 18  1  0  0  0  0
 20 17  1  0  0  0  0
 21 23  2  0  0  0  0
 22 21  1  0  0  0  0
 23 20  1  0  0  0  0
 24 25  1  0  0  0  0
 24 21  1  0  0  0  0
 25 28  1  0  0  0  0
 26 27  2  0  0  0  0
 26 29  1  0  0  0  0
 28 26  1  0  0  0  0
 29 30  1  0  0  0  0
 32 31  1  0  0  0  0
 33 31  1  0  0  0  0
 34 35  1  0  0  0  0
 34 36  1  0  0  0  0
 34 33  1  1  0  0  0
 35 36  1  0  0  0  0
 35 32  1  1  0  0  0
 36 30  1  6  0  0  0
 37 38  1  0  0  0  0
 38 20  1  0  0  0  0
 39  1  1  0  0  0  0
 39 42  1  0  0  0  0
 41 42  2  0  0  0  0
 42 40  1  0  0  0  0
 43 46  2  0  0  0  0
 45 40  1  6  0  0  0
 45 46  1  0  0  0  0
 45 47  1  0  0  0  0
 46 48  1  0  0  0  0
 47 44  1  0  0  0  0
 48 44  1  0  0  0  0
M  END
>  <MODEL>
3

>  <REMARK>
 VINA RESULT:      -6.3      3.252      8.500
  Name = 
  15 active torsions:
  status: ('A' for Active; 'I' for Inactive)
    1  A    between atoms: C_1  and  C_4
    2  A    between atoms: C_1  and  C_17
    3  A    between atoms: C_5  and  C_30
    4  A    between atoms: C_5  and  C_33
    5  A    between atoms: C_10  and  N_22
    6  A    between atoms: C_11  and  C_12
    7  A    between atoms: C_12  and  C_30
    8  A    between atoms: C_12  and  C_40
    9  A    between atoms: C_17  and  N_36
   10  A    between atoms: N_22  and  C_33
   11  A    between atoms: N_22  and  C_38
   12  A    between atoms: C_28  and  N_34
   13  A    between atoms: C_29  and  C_32
   14  A    between atoms: C_32  and  N_47
   15  A    between atoms: C_40  and  C_46
                            x       y       z     vdW  Elec       q    Type
                         _______ _______ _______ _____ _____    ______ ____

>  <TORSDO>
F 15

$$$$
=
 OpenBabel11062418283D

 48 53  0  0  1  0  0  0  0  0999 V2000
  189.2920  175.1010  143.0770 C   0  0  1  0  0  3  0  0  0  0  0  0
  193.1440  173.3380  142.1740 C   0  0  0  0  0  2  0  0  0  0  0  0
  193.0910  171.8450  139.9030 O   0  0  0  0  0  0  0  0  0  0  0  0
  190.6840  174.5210  142.7680 C   0  0  2  0  0  3  0  0  0  0  0  0
  192.4170  173.9580  140.9650 C   0  0  1  0  0  3  0  0  0  0  0  0
  193.0320  171.1610  138.6750 C   0  0  0  0  0  2  0  0  0  0  0  0
  190.8640  172.7770  139.4420 C   0  0  2  0  0  3  0  0  0  0  0  0
  192.3550  173.0430  139.7330 C   0  0  2  0  0  3  0  0  0  0  0  0
  190.9680  174.3750  141.2640 C   0  0  1  0  0  3  0  0  0  0  0  0
  190.0750  173.3410  140.6020 C   0  0  0  0  0  2  0  0  0  0  0  0
  191.6250  170.5850  138.4290 C   0  0  0  0  0  2  0  0  0  0  0  0
  192.1990  172.4680  142.9940 C   0  0  0  0  0  2  0  0  0  0  0  0
  190.5670  171.2850  139.2910 C   0  0  0  0  0  2  0  0  0  0  0  0
  191.0780  173.2980  143.6200 C   0  0  0  0  0  2  0  0  0  0  0  0
  188.9280  175.1640  144.5590 C   0  0  0  0  0  2  0  0  0  0  0  0
  189.3320  176.5110  145.1300 C   0  0  0  0  0  2  0  0  0  0  0  0
  189.4580  176.4910  146.6500 C   0  0  0  0  0  0  0  0  0  0  0  0
  188.7350  177.5570  147.1940 O   0  0  0  0  0  1  0  0  0  0  0  0
  188.9300  175.2960  147.1420 O   0  0  0  0  0  1  0  0  0  0  0  0
  190.8780  176.5880  147.0120 N   0  0  0  0  0  0  0  0  0  0  0  0
  192.8520  175.9770  145.6580 C   0  0  0  0  0  0  0  0  0  0  0  0
  192.9570  174.5980  146.2150 C   0  0  0  0  0  1  0  0  0  0  0  0
  191.8680  176.8220  145.9880 C   0  0  0  0  0  3  0  0  0  0  0  0
  193.8400  176.3920  144.6250 C   0  0  0  0  0  2  0  0  0  0  0  0
  195.2220  175.8340  144.9290 C   0  0  0  0  0  2  0  0  0  0  0  0
  196.4880  175.6550  142.7450 C   0  0  0  0  0  0  0  0  0  0  0  0
  196.6400  176.9070  142.6880 O   0  0  0  0  0  0  0  0  0  0  0  0
  195.7030  175.0720  143.7890 N   0  0  0  0  0  2  0  0  0  0  0  0
  197.1190  174.8060  141.7850 N   0  0  0  0  0  2  0  0  0  0  0  0
  197.9160  175.3250  140.6860 C   0  0  0  0  0  2  0  0  0  0  0  0
  195.5010  173.6090  137.4210 N   0  0  0  0  0  2  0  0  0  0  0  0
  196.2550  172.9220  138.4620 C   0  0  0  0  0  2  0  0  0  0  0  0
  195.6700  175.0240  137.7090 C   0  0  0  0  0  2  0  0  0  0  0  0
  196.0310  175.1380  139.1690 C   0  0  1  0  0  3  0  0  0  0  0  0
  196.3480  173.7780  139.6390 N   0  0  2  0  0  0  0  0  0  0  0  0
  197.4240  174.7450  139.3750 C   0  0  2  0  0  3  0  0  0  0  0  0
  191.5520  177.7300  149.0670 C   0  0  0  0  0  1  0  0  0  0  0  0
  191.2600  176.3990  148.4110 C   0  0  0  0  0  2  0  0  0  0  0  0
  189.0340  176.4320  142.3630 C   0  0  0  0  0  2  0  0  0  0  0  0
  186.6100  177.2270  142.1080 N   0  0  0  0  0  2  0  0  0  0  0  0
  187.6200  175.8530  140.5330 O   0  0  0  0  0  0  0  0  0  0  0  0
  187.7280  176.4780  141.6210 C   0  0  0  0  0  0  0  0  0  0  0  0
  185.8070  176.4730  144.9230 O   0  0  0  0  0  0  0  0  0  0  0  0
  185.4360  179.9290  144.0940 C   0  0  0  0  0  2  0  0  0  0  0  0
  186.6220  178.0370  143.3220 C   0  0  2  0  0  3  0  0  0  0  0  0
  185.6390  177.5200  144.3120 C   0  0  0  0  0  0  0  0  0  0  0  0
  186.2310  179.4020  142.9850 N   0  0  0  0  0  2  0  0  0  0  0  0
  184.3170  178.6270  144.6910 S   0  0  0  0  0  0  0  0  0  0  0  0
  1 39  1  1  0  0  0
  1 15  1  0  0  0  0
  2 12  1  0  0  0  0
  4  1  1  6  0  0  0
  4 14  1  0  0  0  0
  5  9  1  0  0  0  0
  5  2  1  1  0  0  0
  6  3  1  0  0  0  0
  7 13  1  1  0  0  0
  7  8  1  0  0  0  0
  7 10  1  0  0  0  0
  8  3  1  1  0  0  0
  8  5  1  0  0  0  0
  9 10  1  1  0  0  0
  9  4  1  0  0  0  0
 11  6  1  0  0  0  0
 11 13  1  0  0  0  0
 12 14  1  0  0  0  0
 15 16  1  0  0  0  0
 16 17  1  0  0  0  0
 17 20  1  0  0  0  0
 17 19  1  0  0  0  0
 17 18  1  0  0  0  0
 20 38  1  0  0  0  0
 21 23  2  0  0  0  0
 21 22  1  0  0  0  0
 23 20  1  0  0  0  0
 24 25  1  0  0  0  0
 24 21  1  0  0  0  0
 26 28  1  0  0  0  0
 27 26  2  0  0  0  0
 28 25  1  0  0  0  0
 29 26  1  0  0  0  0
 30 29  1  0  0  0  0
 31 33  1  0  0  0  0
 31 32  1  0  0  0  0
 34 33  1  6  0  0  0
 34 36  1  0  0  0  0
 34 35  1  0  0  0  0
 35 32  1  6  0  0  0
 36 35  1  0  0  0  0
 36 30  1  1  0  0  0
 38 37  1  0  0  0  0
 41 42  2  0  0  0  0
 42 40  1  0  0  0  0
 42 39  1  0  0  0  0
 44 48  1  0  0  0  0
 45 40  1  6  0  0  0
 45 46  1  0  0  0  0
 46 48  1  0  0  0  0
 46 43  2  0  0  0  0
 47 45  1  0  0  0  0
 47 44  1  0  0  0  0
M  END
>  <MODEL>
4

>  <REMARK>
 VINA RESULT:      -6.2      3.698      7.327
  Name = 
  15 active torsions:
  status: ('A' for Active; 'I' for Inactive)
    1  A    between atoms: C_1  and  C_4
    2  A    between atoms: C_1  and  C_17
    3  A    between atoms: C_5  and  C_30
    4  A    between atoms: C_5  and  C_33
    5  A    between atoms: C_10  and  N_22
    6  A    between atoms: C_11  and  C_12
    7  A    between atoms: C_12  and  C_30
    8  A    between atoms: C_12  and  C_40
    9  A    between atoms: C_17  and  N_36
   10  A    between atoms: N_22  and  C_33
   11  A    between atoms: N_22  and  C_38
   12  A    between atoms: C_28  and  N_34
   13  A    between atoms: C_29  and  C_32
   14  A    between atoms: C_32  and  N_47
   15  A    between atoms: C_40  and  C_46
                            x       y       z     vdW  Elec       q    Type
                         _______ _______ _______ _____ _____    ______ ____

>  <TORSDO>
F 15

$$$$
=
 OpenBabel11062418283D

 48 53  0  0  1  0  0  0  0  0999 V2000
  188.1410  175.4900  141.8210 C   0  0  1  0  0  3  0  0  0  0  0  0
  191.7320  177.2320  143.5030 C   0  0  0  0  0  2  0  0  0  0  0  0
  192.2070  176.3760  146.0390 O   0  0  0  0  0  0  0  0  0  0  0  0
  189.4420  176.1000  142.3730 C   0  0  2  0  0  3  0  0  0  0  0  0
  191.5660  175.7220  143.7580 C   0  0  1  0  0  3  0  0  0  0  0  0
  192.4550  175.8320  147.3120 C   0  0  0  0  0  2  0  0  0  0  0  0
  190.4480  174.6910  145.7110 C   0  0  2  0  0  3  0  0  0  0  0  0
  191.7760  175.3050  145.2210 C   0  0  2  0  0  3  0  0  0  0  0  0
  190.1880  175.1750  143.3480 C   0  0  1  0  0  3  0  0  0  0  0  0
  189.4170  174.9400  144.6330 C   0  0  0  0  0  2  0  0  0  0  0  0
  191.1390  175.4590  148.0220 C   0  0  0  0  0  2  0  0  0  0  0  0
  190.4380  177.9820  143.7960 C   0  0  0  0  0  2  0  0  0  0  0  0
  189.9820  175.3120  147.0280 C   0  0  0  0  0  2  0  0  0  0  0  0
  189.3220  177.5650  142.8380 C   0  0  0  0  0  2  0  0  0  0  0  0
  188.2500  174.0400  141.3530 C   0  0  0  0  0  2  0  0  0  0  0  0
  189.1610  173.9600  140.1410 C   0  0  0  0  0  2  0  0  0  0  0  0
  190.3340  173.0080  140.3510 C   0  0  0  0  0  0  0  0  0  0  0  0
  191.4910  173.7440  140.6240 O   0  0  0  0  0  1  0  0  0  0  0  0
  190.0670  172.1770  141.4390 O   0  0  0  0  0  1  0  0  0  0  0  0
  190.5100  172.1940  139.1400 N   0  0  0  0  0  0  0  0  0  0  0  0
  192.3410  172.7740  137.5870 C   0  0  0  0  0  0  0  0  0  0  0  0
  191.6650  173.9920  137.0550 C   0  0  0  0  0  1  0  0  0  0  0  0
  191.8250  172.0270  138.5700 C   0  0  0  0  0  3  0  0  0  0  0  0
  193.6890  172.4330  137.0560 C   0  0  0  0  0  2  0  0  0  0  0  0
  194.6960  173.5290  137.3640 C   0  0  0  0  0  2  0  0  0  0  0  0
  194.8600  174.2970  139.7700 C   0  0  0  0  0  0  0  0  0  0  0  0
  194.2780  175.3850  139.5010 O   0  0  0  0  0  0  0  0  0  0  0  0
  195.1840  173.3770  138.7250 N   0  0  0  0  0  2  0  0  0  0  0  0
  195.1780  173.9630  141.1220 N   0  0  0  0  0  2  0  0  0  0  0  0
  194.8960  174.8540  142.2350 C   0  0  0  0  0  2  0  0  0  0  0  0
  196.7990  173.8580  146.0850 N   0  0  0  0  0  2  0  0  0  0  0  0
  197.2100  173.4870  144.7380 C   0  0  0  0  0  2  0  0  0  0  0  0
  195.6220  174.6910  145.9020 C   0  0  0  0  0  2  0  0  0  0  0  0
  195.6820  175.2400  144.4990 C   0  0  1  0  0  3  0  0  0  0  0  0
  196.7390  174.4930  143.7930 N   0  0  2  0  0  0  0  0  0  0  0  0
  195.3200  174.2020  143.5360 C   0  0  2  0  0  3  0  0  0  0  0  0
  189.6400  170.2240  137.9800 C   0  0  0  0  0  1  0  0  0  0  0  0
  189.3270  171.6050  138.5130 C   0  0  0  0  0  2  0  0  0  0  0  0
  186.9440  175.7060  142.7540 C   0  0  0  0  0  2  0  0  0  0  0  0
  185.5080  177.6820  143.5290 N   0  0  0  0  0  2  0  0  0  0  0  0
  186.1740  177.4470  141.3180 O   0  0  0  0  0  0  0  0  0  0  0  0
  186.1910  176.9790  142.4870 C   0  0  0  0  0  0  0  0  0  0  0  0
  183.6320  178.5150  145.7480 O   0  0  0  0  0  0  0  0  0  0  0  0
  186.9250  177.5970  146.7860 C   0  0  0  0  0  2  0  0  0  0  0  0
  185.4970  177.2790  144.9320 C   0  0  2  0  0  3  0  0  0  0  0  0
  184.8380  178.3140  145.7740 C   0  0  0  0  0  0  0  0  0  0  0  0
  186.8730  177.1420  145.3970 N   0  0  0  0  0  2  0  0  0  0  0  0
  185.8950  179.0840  146.9610 S   0  0  0  0  0  0  0  0  0  0  0  0
  1 15  1  1  0  0  0
  1 39  1  0  0  0  0
  2 12  1  0  0  0  0
  3  6  1  0  0  0  0
  4  1  1  1  0  0  0
  4 14  1  0  0  0  0
  4  9  1  0  0  0  0
  5  2  1  1  0  0  0
  5  8  1  0  0  0  0
  6 11  1  0  0  0  0
  7 10  1  6  0  0  0
  7 13  1  0  0  0  0
  8  7  1  0  0  0  0
  8  3  1  1  0  0  0
  9  5  1  0  0  0  0
  9 10  1  1  0  0  0
 13 11  1  0  0  0  0
 14 12  1  0  0  0  0
 16 17  1  0  0  0  0
 16 15  1  0  0  0  0
 17 18  1  0  0  0  0
 17 19  1  0  0  0  0
 20 17  1  0  0  0  0
 21 23  2  0  0  0  0
 22 21  1  0  0  0  0
 23 20  1  0  0  0  0
 24 25  1  0  0  0  0
 24 21  1  0  0  0  0
 25 28  1  0  0  0  0
 26 29  1  0  0  0  0
 27 26  2  0  0  0  0
 28 26  1  0  0  0  0
 29 30  1  0  0  0  0
 32 31  1  0  0  0  0
 33 31  1  0  0  0  0
 34 33  1  1  0  0  0
 35 34  1  0  0  0  0
 35 32  1  1  0  0  0
 36 30  1  6  0  0  0
 36 35  1  0  0  0  0
 36 34  1  0  0  0  0
 37 38  1  0  0  0  0
 38 20  1  0  0  0  0
 41 42  2  0  0  0  0
 42 39  1  0  0  0  0
 42 40  1  0  0  0  0
 43 46  2  0  0  0  0
 44 48  1  0  0  0  0
 45 40  1  6  0  0  0
 45 47  1  0  0  0  0
 45 46  1  0  0  0  0
 46 48  1  0  0  0  0
 47 44  1  0  0  0  0
M  END
>  <MODEL>
5

>  <REMARK>
 VINA RESULT:      -6.1      3.456      8.434
  Name = 
  15 active torsions:
  status: ('A' for Active; 'I' for Inactive)
    1  A    between atoms: C_1  and  C_4
    2  A    between atoms: C_1  and  C_17
    3  A    between atoms: C_5  and  C_30
    4  A    between atoms: C_5  and  C_33
    5  A    between atoms: C_10  and  N_22
    6  A    between atoms: C_11  and  C_12
    7  A    between atoms: C_12  and  C_30
    8  A    between atoms: C_12  and  C_40
    9  A    between atoms: C_17  and  N_36
   10  A    between atoms: N_22  and  C_33
   11  A    between atoms: N_22  and  C_38
   12  A    between atoms: C_28  and  N_34
   13  A    between atoms: C_29  and  C_32
   14  A    between atoms: C_32  and  N_47
   15  A    between atoms: C_40  and  C_46
                            x       y       z     vdW  Elec       q    Type
                         _______ _______ _______ _____ _____    ______ ____

>  <TORSDO>
F 15

$$$$
=
 OpenBabel11062418283D

 48 53  0  0  1  0  0  0  0  0999 V2000
  190.6180  175.8860  145.5320 C   0  0  1  0  0  3  0  0  0  0  0  0
  189.7840  174.3080  141.5850 C   0  0  0  0  0  2  0  0  0  0  0  0
  190.2830  171.6410  141.4110 O   0  0  0  0  0  0  0  0  0  0  0  0
  190.2770  175.3530  144.1280 C   0  0  2  0  0  3  0  0  0  0  0  0
  189.2730  173.4390  142.7500 C   0  0  1  0  0  3  0  0  0  0  0  0
  190.4690  170.2470  141.4010 C   0  0  0  0  0  2  0  0  0  0  0  0
  190.5210  171.6110  143.8570 C   0  0  2  0  0  3  0  0  0  0  0  0
  189.6440  171.9530  142.6360 C   0  0  2  0  0  3  0  0  0  0  0  0
  189.7710  173.9010  144.1300 C   0  0  1  0  0  3  0  0  0  0  0  0
  190.8400  172.9130  144.5570 C   0  0  0  0  0  2  0  0  0  0  0  0
  191.5670  169.8260  142.3970 C   0  0  0  0  0  2  0  0  0  0  0  0
  191.2220  174.7530  141.8240 C   0  0  0  0  0  2  0  0  0  0  0  0
  191.8180  170.9100  143.4530 C   0  0  0  0  0  2  0  0  0  0  0  0
  191.3270  175.6690  143.0450 C   0  0  0  0  0  2  0  0  0  0  0  0
  192.0240  176.4630  145.6840 C   0  0  0  0  0  2  0  0  0  0  0  0
  193.0000  175.3530  146.0300 C   0  0  0  0  0  2  0  0  0  0  0  0
  194.4120  175.6350  145.5290 C   0  0  0  0  0  0  0  0  0  0  0  0
  194.5560  177.0040  145.2790 O   0  0  0  0  0  1  0  0  0  0  0  0
  195.3340  175.2620  146.5080 O   0  0  0  0  0  1  0  0  0  0  0  0
  194.6490  174.8560  144.3060 N   0  0  0  0  0  0  0  0  0  0  0  0
  196.1760  175.8200  142.6200 C   0  0  0  0  0  0  0  0  0  0  0  0
  197.4160  175.3280  143.2870 C   0  0  0  0  0  1  0  0  0  0  0  0
  194.9470  175.5340  143.0680 C   0  0  0  0  0  3  0  0  0  0  0  0
  196.3190  176.5890  141.3540 C   0  0  0  0  0  2  0  0  0  0  0  0
  196.7800  175.6930  140.2150 C   0  0  0  0  0  2  0  0  0  0  0  0
  195.2900  174.5540  138.5160 C   0  0  0  0  0  0  0  0  0  0  0  0
  195.7040  175.3090  137.5920 O   0  0  0  0  0  0  0  0  0  0  0  0
  195.7180  174.7650  139.8640 N   0  0  0  0  0  2  0  0  0  0  0  0
  194.4120  173.4660  138.2210 N   0  0  0  0  0  2  0  0  0  0  0  0
  193.9210  173.1990  136.8790 C   0  0  0  0  0  2  0  0  0  0  0  0
  189.7570  172.4540  138.1220 N   0  0  0  0  0  2  0  0  0  0  0  0
  190.8310  171.4960  137.8970 C   0  0  0  0  0  2  0  0  0  0  0  0
  190.3620  173.7560  137.8940 C   0  0  0  0  0  2  0  0  0  0  0  0
  191.8500  173.5910  138.0820 C   0  0  1  0  0  3  0  0  0  0  0  0
  192.1160  172.1420  138.1350 N   0  0  2  0  0  0  0  0  0  0  0  0
  192.4320  172.9160  136.9250 C   0  0  2  0  0  3  0  0  0  0  0  0
  194.4950  172.8100  142.9760 C   0  0  0  0  0  1  0  0  0  0  0  0
  194.5310  173.4000  144.3680 C   0  0  0  0  0  2  0  0  0  0  0  0
  189.5450  176.8300  146.0840 C   0  0  0  0  0  2  0  0  0  0  0  0
  187.0560  176.6030  146.6530 N   0  0  0  0  0  2  0  0  0  0  0  0
  188.6270  175.0660  147.3980 O   0  0  0  0  0  0  0  0  0  0  0  0
  188.3990  176.1200  146.7500 C   0  0  0  0  0  0  0  0  0  0  0  0
  185.9240  179.2290  147.6320 O   0  0  0  0  0  0  0  0  0  0  0  0
  184.9410  178.2660  144.3340 C   0  0  0  0  0  2  0  0  0  0  0  0
  186.6510  177.7780  145.8880 C   0  0  2  0  0  3  0  0  0  0  0  0
  185.6410  178.5740  146.6380 C   0  0  0  0  0  0  0  0  0  0  0  0
  186.0310  177.3420  144.6420 N   0  0  0  0  0  2  0  0  0  0  0  0
  184.0550  178.6680  145.8690 S   0  0  0  0  0  0  0  0  0  0  0  0
  1 15  1  6  0  0  0
  1 39  1  0  0  0  0
  2 12  1  0  0  0  0
  4  9  1  0  0  0  0
  4  1  1  1  0  0  0
  5  2  1  6  0  0  0
  5  9  1  0  0  0  0
  6  3  1  0  0  0  0
  6 11  1  0  0  0  0
  7 13  1  6  0  0  0
  7 10  1  0  0  0  0
  8  3  1  6  0  0  0
  8  5  1  0  0  0  0
  8  7  1  0  0  0  0
  9 10  1  6  0  0  0
 11 13  1  0  0  0  0
 12 14  1  0  0  0  0
 14  4  1  0  0  0  0
 15 16  1  0  0  0  0
 17 16  1  0  0  0  0
 17 19  1  0  0  0  0
 18 17  1  0  0  0  0
 20 38  1  0  0  0  0
 20 17  1  0  0  0  0
 21 23  2  0  0  0  0
 21 22  1  0  0  0  0
 23 20  1  0  0  0  0
 24 21  1  0  0  0  0
 25 24  1  0  0  0  0
 26 28  1  0  0  0  0
 27 26  2  0  0  0  0
 28 25  1  0  0  0  0
 29 26  1  0  0  0  0
 30 29  1  0  0  0  0
 32 31  1  0  0  0  0
 33 31  1  0  0  0  0
 34 33  1  6  0  0  0
 34 35  1  0  0  0  0
 35 32  1  6  0  0  0
 36 30  1  1  0  0  0
 36 34  1  0  0  0  0
 36 35  1  0  0  0  0
 37 38  1  0  0  0  0
 39 42  1  0  0  0  0
 40 42  1  0  0  0  0
 42 41  2  0  0  0  0
 44 47  1  0  0  0  0
 44 48  1  0  0  0  0
 45 46  1  0  0  0  0
 45 40  1  1  0  0  0
 46 43  2  0  0  0  0
 47 45  1  0  0  0  0
 48 46  1  0  0  0  0
M  END
>  <MODEL>
6

>  <REMARK>
 VINA RESULT:      -6.1      3.508      7.296
  Name = 
  15 active torsions:
  status: ('A' for Active; 'I' for Inactive)
    1  A    between atoms: C_1  and  C_4
    2  A    between atoms: C_1  and  C_17
    3  A    between atoms: C_5  and  C_30
    4  A    between atoms: C_5  and  C_33
    5  A    between atoms: C_10  and  N_22
    6  A    between atoms: C_11  and  C_12
    7  A    between atoms: C_12  and  C_30
    8  A    between atoms: C_12  and  C_40
    9  A    between atoms: C_17  and  N_36
   10  A    between atoms: N_22  and  C_33
   11  A    between atoms: N_22  and  C_38
   12  A    between atoms: C_28  and  N_34
   13  A    between atoms: C_29  and  C_32
   14  A    between atoms: C_32  and  N_47
   15  A    between atoms: C_40  and  C_46
                            x       y       z     vdW  Elec       q    Type
                         _______ _______ _______ _____ _____    ______ ____

>  <TORSDO>
F 15

$$$$
=
 OpenBabel11062418283D

 48 53  0  0  1  0  0  0  0  0999 V2000
  191.4120  171.2360  142.3810 C   0  0  1  0  0  3  0  0  0  0  0  0
  192.0630  168.5920  139.0130 C   0  0  0  0  0  2  0  0  0  0  0  0
  191.2310  169.6820  136.6660 O   0  0  0  0  0  0  0  0  0  0  0  0
  191.6910  170.2850  141.2030 C   0  0  2  0  0  3  0  0  0  0  0  0
  192.4530  170.0610  138.7650 C   0  0  1  0  0  3  0  0  0  0  0  0
  190.8700  170.3280  135.4700 C   0  0  0  0  0  2  0  0  0  0  0  0
  190.9760  171.8220  137.8470 C   0  0  2  0  0  3  0  0  0  0  0  0
  191.8970  170.6470  137.4600 C   0  0  2  0  0  3  0  0  0  0  0  0
  192.0090  171.0150  139.8880 C   0  0  1  0  0  3  0  0  0  0  0  0
  190.8210  171.7910  139.3510 C   0  0  0  0  0  2  0  0  0  0  0  0
  189.7210  171.3280  135.7040 C   0  0  0  0  0  2  0  0  0  0  0  0
  190.6920  168.4920  139.6710 C   0  0  0  0  0  2  0  0  0  0  0  0
  189.6030  171.7170  137.1820 C   0  0  0  0  0  2  0  0  0  0  0  0
  190.6960  169.1150  141.0680 C   0  0  0  0  0  2  0  0  0  0  0  0
  192.3890  172.4020  142.5210 C   0  0  0  0  0  2  0  0  0  0  0  0
  193.4150  172.0850  143.5930 C   0  0  0  0  0  2  0  0  0  0  0  0
  194.7550  172.7700  143.3440 C   0  0  0  0  0  0  0  0  0  0  0  0
  195.7100  171.8140  142.9840 O   0  0  0  0  0  1  0  0  0  0  0  0
  194.6200  173.6830  142.2970 O   0  0  0  0  0  1  0  0  0  0  0  0
  195.1630  173.4770  144.5660 N   0  0  0  0  0  0  0  0  0  0  0  0
  193.7120  175.2210  145.5440 C   0  0  0  0  0  0  0  0  0  0  0  0
  194.0860  176.2620  144.5460 C   0  0  0  0  0  1  0  0  0  0  0  0
  194.1630  173.9620  145.4850 C   0  0  0  0  0  3  0  0  0  0  0  0
  192.7260  175.5830  146.5990 C   0  0  0  0  0  2  0  0  0  0  0  0
  191.7160  176.5960  146.0820 C   0  0  0  0  0  2  0  0  0  0  0  0
  189.2640  176.7000  146.7020 C   0  0  0  0  0  0  0  0  0  0  0  0
  189.4380  177.7630  147.3610 O   0  0  0  0  0  0  0  0  0  0  0  0
  190.3820  176.0200  146.1250 N   0  0  0  0  0  2  0  0  0  0  0  0
  187.9480  176.1810  146.5020 N   0  0  0  0  0  2  0  0  0  0  0  0
  186.7660  176.8070  147.0710 C   0  0  0  0  0  2  0  0  0  0  0  0
  184.4380  179.1990  144.1910 N   0  0  0  0  0  2  0  0  0  0  0  0
  184.0490  178.7230  145.5110 C   0  0  0  0  0  2  0  0  0  0  0  0
  185.8120  178.7550  144.0210 C   0  0  0  0  0  2  0  0  0  0  0  0
  186.3750  178.5250  145.4020 C   0  0  1  0  0  3  0  0  0  0  0  0
  185.2390  178.5640  146.3390 N   0  0  2  0  0  0  0  0  0  0  0  0
  185.8500  177.2810  145.9590 C   0  0  2  0  0  3  0  0  0  0  0  0
  196.9350  173.4910  146.2520 C   0  0  0  0  0  1  0  0  0  0  0  0
  196.5880  173.7130  144.7970 C   0  0  0  0  0  2  0  0  0  0  0  0
  189.9520  171.6980  142.4350 C   0  0  0  0  0  2  0  0  0  0  0  0
  189.2530  173.8460  143.6460 N   0  0  0  0  0  2  0  0  0  0  0  0
  189.6040  171.8560  144.7880 O   0  0  0  0  0  0  0  0  0  0  0  0
  189.6030  172.4590  143.6830 C   0  0  0  0  0  0  0  0  0  0  0  0
  191.2010  175.8670  142.5260 O   0  0  0  0  0  0  0  0  0  0  0  0
  187.7730  176.4010  141.6710 C   0  0  0  0  0  2  0  0  0  0  0  0
  189.1590  174.6450  142.4290 C   0  0  2  0  0  3  0  0  0  0  0  0
  189.9780  175.8830  142.5440 C   0  0  0  0  0  0  0  0  0  0  0  0
  187.7720  175.0520  142.2340 N   0  0  0  0  0  2  0  0  0  0  0  0
  189.0560  177.3870  142.5010 S   0  0  0  0  0  0  0  0  0  0  0  0
  1 39  1  6  0  0  0
  1 15  1  0  0  0  0
  2 12  1  0  0  0  0
  4  1  1  1  0  0  0
  5  2  1  1  0  0  0
  5  9  1  0  0  0  0
  6 11  1  0  0  0  0
  6  3  1  0  0  0  0
  7 13  1  6  0  0  0
  7 10  1  0  0  0  0
  8  3  1  1  0  0  0
  8  7  1  0  0  0  0
  8  5  1  0  0  0  0
  9 10  1  6  0  0  0
  9  4  1  0  0  0  0
 11 13  1  0  0  0  0
 12 14  1  0  0  0  0
 14  4  1  0  0  0  0
 15 16  1  0  0  0  0
 17 16  1  0  0  0  0
 17 20  1  0  0  0  0
 18 17  1  0  0  0  0
 19 17  1  0  0  0  0
 20 38  1  0  0  0  0
 20 23  1  0  0  0  0
 21 24  1  0  0  0  0
 22 21  1  0  0  0  0
 23 21  2  0  0  0  0
 25 28  1  0  0  0  0
 25 24  1  0  0  0  0
 26 27  2  0  0  0  0
 28 26  1  0  0  0  0
 29 26  1  0  0  0  0
 29 30  1  0  0  0  0
 31 32  1  0  0  0  0
 33 31  1  0  0  0  0
 34 33  1  6  0  0  0
 34 36  1  0  0  0  0
 34 35  1  0  0  0  0
 35 32  1  6  0  0  0
 36 35  1  0  0  0  0
 36 30  1  1  0  0  0
 38 37  1  0  0  0  0
 39 42  1  0  0  0  0
 40 42  1  0  0  0  0
 42 41  2  0  0  0  0
 43 46  2  0  0  0  0
 44 47  1  0  0  0  0
 44 48  1  0  0  0  0
 45 46  1  0  0  0  0
 45 40  1  1  0  0  0
 47 45  1  0  0  0  0
 48 46  1  0  0  0  0
M  END
>  <MODEL>
7

>  <REMARK>
 VINA RESULT:      -6.0      3.093      7.811
  Name = 
  15 active torsions:
  status: ('A' for Active; 'I' for Inactive)
    1  A    between atoms: C_1  and  C_4
    2  A    between atoms: C_1  and  C_17
    3  A    between atoms: C_5  and  C_30
    4  A    between atoms: C_5  and  C_33
    5  A    between atoms: C_10  and  N_22
    6  A    between atoms: C_11  and  C_12
    7  A    between atoms: C_12  and  C_30
    8  A    between atoms: C_12  and  C_40
    9  A    between atoms: C_17  and  N_36
   10  A    between atoms: N_22  and  C_33
   11  A    between atoms: N_22  and  C_38
   12  A    between atoms: C_28  and  N_34
   13  A    between atoms: C_29  and  C_32
   14  A    between atoms: C_32  and  N_47
   15  A    between atoms: C_40  and  C_46
                            x       y       z     vdW  Elec       q    Type
                         _______ _______ _______ _____ _____    ______ ____

>  <TORSDO>
F 15

$$$$
=
 OpenBabel11062418283D

 48 53  0  0  1  0  0  0  0  0999 V2000
  193.2840  173.2320  142.2720 C   0  0  1  0  0  3  0  0  0  0  0  0
  189.4750  174.1800  144.1050 C   0  0  0  0  0  2  0  0  0  0  0  0
  189.7350  175.8890  146.2030 O   0  0  0  0  0  0  0  0  0  0  0  0
  191.9090  173.5750  142.8750 C   0  0  2  0  0  3  0  0  0  0  0  0
  190.4090  175.3870  143.8930 C   0  0  1  0  0  3  0  0  0  0  0  0
  189.9140  176.8440  147.2200 C   0  0  0  0  0  2  0  0  0  0  0  0
  192.0670  176.2460  145.5170 C   0  0  2  0  0  3  0  0  0  0  0  0
  190.5740  176.2790  145.1320 C   0  0  2  0  0  3  0  0  0  0  0  0
  191.8290  174.9980  143.4500 C   0  0  1  0  0  3  0  0  0  0  0  0
  192.7260  175.1890  144.6590 C   0  0  0  0  0  2  0  0  0  0  0  0
  191.2950  176.6920  147.8860 C   0  0  0  0  0  2  0  0  0  0  0  0
  190.2280  173.0080  144.7230 C   0  0  0  0  0  2  0  0  0  0  0  0
  192.2700  175.9140  146.9950 C   0  0  0  0  0  2  0  0  0  0  0  0
  191.3100  172.4790  143.7800 C   0  0  0  0  0  2  0  0  0  0  0  0
  193.4980  171.7570  141.9380 C   0  0  0  0  0  2  0  0  0  0  0  0
  193.2840  171.5320  140.4520 C   0  0  0  0  0  2  0  0  0  0  0  0
  192.3870  170.3310  140.1640 C   0  0  0  0  0  0  0  0  0  0  0  0
  193.1080  169.3700  139.4480 O   0  0  0  0  0  1  0  0  0  0  0  0
  191.9670  169.7680  141.3690 O   0  0  0  0  0  1  0  0  0  0  0  0
  191.2190  170.7820  139.3960 N   0  0  0  0  0  0  0  0  0  0  0  0
  189.8280  172.7400  139.9740 C   0  0  0  0  0  0  0  0  0  0  0  0
  190.5140  173.6590  139.0210 C   0  0  0  0  0  1  0  0  0  0  0  0
  190.1240  171.4380  140.0690 C   0  0  0  0  0  3  0  0  0  0  0  0
  188.7060  173.2830  140.7870 C   0  0  0  0  0  2  0  0  0  0  0  0
  188.1970  174.5970  140.2150 C   0  0  0  0  0  2  0  0  0  0  0  0
  187.3740  176.7520  141.2560 C   0  0  0  0  0  0  0  0  0  0  0  0
  186.6080  176.9750  140.2780 O   0  0  0  0  0  0  0  0  0  0  0  0
  188.2630  175.6320  141.2330 N   0  0  0  0  0  2  0  0  0  0  0  0
  187.3430  177.5990  142.4070 N   0  0  0  0  0  2  0  0  0  0  0  0
  186.4800  178.7650  142.4960 C   0  0  0  0  0  2  0  0  0  0  0  0
  185.1980  178.3490  146.6930 N   0  0  0  0  0  2  0  0  0  0  0  0
  184.3870  178.5940  145.5080 C   0  0  0  0  0  2  0  0  0  0  0  0
  186.5570  178.2170  146.1970 C   0  0  0  0  0  2  0  0  0  0  0  0
  186.4610  177.8390  144.7390 C   0  0  1  0  0  3  0  0  0  0  0  0
  185.0560  178.0370  144.3380 N   0  0  2  0  0  0  0  0  0  0  0  0
  186.0900  179.0060  143.9410 C   0  0  2  0  0  3  0  0  0  0  0  0
  190.0060  169.6160  137.6210 C   0  0  0  0  0  1  0  0  0  0  0  0
  191.1770  170.5110  137.9590 C   0  0  0  0  0  2  0  0  0  0  0  0
  193.6620  174.1490  141.1040 C   0  0  0  0  0  2  0  0  0  0  0  0
  195.9740  174.8800  140.2740 N   0  0  0  0  0  2  0  0  0  0  0  0
  195.1830  175.4750  142.3730 O   0  0  0  0  0  0  0  0  0  0  0  0
  194.9710  174.8630  141.2940 C   0  0  0  0  0  0  0  0  0  0  0  0
  197.5090  172.5720  139.0670 O   0  0  0  0  0  0  0  0  0  0  0  0
  196.2050  174.9380  136.7290 C   0  0  0  0  0  2  0  0  0  0  0  0
  195.8310  174.2590  138.9600 C   0  0  2  0  0  3  0  0  0  0  0  0
  197.1000  173.6010  138.5460 C   0  0  0  0  0  0  0  0  0  0  0  0
  195.5310  175.2950  137.9770 N   0  0  0  0  0  2  0  0  0  0  0  0
  197.8610  174.2960  137.1140 S   0  0  0  0  0  0  0  0  0  0  0  0
  1 39  1  6  0  0  0
  2 12  1  0  0  0  0
  3  6  1  0  0  0  0
  4  1  1  1  0  0  0
  4  9  1  0  0  0  0
  4 14  1  0  0  0  0
  5  2  1  1  0  0  0
  5  8  1  0  0  0  0
  6 11  1  0  0  0  0
  7 10  1  6  0  0  0
  7 13  1  0  0  0  0
  8  7  1  0  0  0  0
  8  3  1  1  0  0  0
  9  5  1  0  0  0  0
  9 10  1  1  0  0  0
 13 11  1  0  0  0  0
 14 12  1  0  0  0  0
 15  1  1  0  0  0  0
 16 15  1  0  0  0  0
 17 16  1  0  0  0  0
 17 19  1  0  0  0  0
 18 17  1  0  0  0  0
 20 23  1  0  0  0  0
 20 17  1  0  0  0  0
 21 23  2  0  0  0  0
 21 24  1  0  0  0  0
 22 21  1  0  0  0  0
 25 24  1  0  0  0  0
 25 28  1  0  0  0  0
 26 29  1  0  0  0  0
 27 26  2  0  0  0  0
 28 26  1  0  0  0  0
 29 30  1  0  0  0  0
 32 31  1  0  0  0  0
 33 31  1  0  0  0  0
 34 33  1  1  0  0  0
 35 34  1  0  0  0  0
 35 32  1  1  0  0  0
 36 30  1  6  0  0  0
 36 35  1  0  0  0  0
 36 34  1  0  0  0  0
 37 38  1  0  0  0  0
 38 20  1  0  0  0  0
 39 42  1  0  0  0  0
 40 42  1  0  0  0  0
 42 41  2  0  0  0  0
 44 48  1  0  0  0  0
 44 47  1  0  0  0  0
 45 40  1  1  0  0  0
 46 45  1  0  0  0  0
 46 43  2  0  0  0  0
 47 45  1  0  0  0  0
 48 46  1  0  0  0  0
M  END
>  <MODEL>
8

>  <REMARK>
 VINA RESULT:      -6.0      3.005      6.777
  Name = 
  15 active torsions:
  status: ('A' for Active; 'I' for Inactive)
    1  A    between atoms: C_1  and  C_4
    2  A    between atoms: C_1  and  C_17
    3  A    between atoms: C_5  and  C_30
    4  A    between atoms: C_5  and  C_33
    5  A    between atoms: C_10  and  N_22
    6  A    between atoms: C_11  and  C_12
    7  A    between atoms: C_12  and  C_30
    8  A    between atoms: C_12  and  C_40
    9  A    between atoms: C_17  and  N_36
   10  A    between atoms: N_22  and  C_33
   11  A    between atoms: N_22  and  C_38
   12  A    between atoms: C_28  and  N_34
   13  A    between atoms: C_29  and  C_32
   14  A    between atoms: C_32  and  N_47
   15  A    between atoms: C_40  and  C_46
                            x       y       z     vdW  Elec       q    Type
                         _______ _______ _______ _____ _____    ______ ____

>  <TORSDO>
F 15

$$$$
=
 OpenBabel11062418283D

 48 53  0  0  1  0  0  0  0  0999 V2000
  188.1020  175.7590  141.8650 C   0  0  1  0  0  3  0  0  0  0  0  0
  191.8240  177.2880  143.4690 C   0  0  0  0  0  2  0  0  0  0  0  0
  192.2900  176.4240  146.0040 O   0  0  0  0  0  0  0  0  0  0  0  0
  189.4480  176.2920  142.3890 C   0  0  2  0  0  3  0  0  0  0  0  0
  191.5690  175.7930  143.7400 C   0  0  1  0  0  3  0  0  0  0  0  0
  192.5270  175.8760  147.2770 C   0  0  0  0  0  2  0  0  0  0  0  0
  190.4250  174.8490  145.7210 C   0  0  2  0  0  3  0  0  0  0  0  0
  191.7790  175.3750  145.2020 C   0  0  2  0  0  3  0  0  0  0  0  0
  190.1530  175.3290  143.3590 C   0  0  1  0  0  3  0  0  0  0  0  0
  189.3920  175.1530  144.6600 C   0  0  0  0  0  2  0  0  0  0  0  0
  191.2030  175.5900  148.0130 C   0  0  0  0  0  2  0  0  0  0  0  0
  190.5840  178.1190  143.7780 C   0  0  0  0  0  2  0  0  0  0  0  0
  190.0210  175.5080  147.0400 C   0  0  0  0  0  2  0  0  0  0  0  0
  189.4270  177.7650  142.8430 C   0  0  0  0  0  2  0  0  0  0  0  0
  188.1330  174.3290  141.3300 C   0  0  0  0  0  2  0  0  0  0  0  0
  189.1630  174.2180  140.2210 C   0  0  0  0  0  2  0  0  0  0  0  0
  188.6110  173.5370  138.9730 C   0  0  0  0  0  0  0  0  0  0  0  0
  187.8140  172.4500  139.3470 O   0  0  0  0  0  1  0  0  0  0  0  0
  187.8240  174.4430  138.2610 O   0  0  0  0  0  1  0  0  0  0  0  0
  189.7330  173.0930  138.1350 N   0  0  0  0  0  0  0  0  0  0  0  0
  191.0760  171.1750  138.9240 C   0  0  0  0  0  0  0  0  0  0  0  0
  190.1550  170.1460  138.3630 C   0  0  0  0  0  1  0  0  0  0  0  0
  190.8920  172.4890  138.7470 C   0  0  0  0  0  3  0  0  0  0  0  0
  192.2960  170.7090  139.6370 C   0  0  0  0  0  2  0  0  0  0  0  0
  191.9780  170.3050  141.0680 C   0  0  0  0  0  2  0  0  0  0  0  0
  193.4300  171.6900  142.6100 C   0  0  0  0  0  0  0  0  0  0  0  0
  194.3500  170.8250  142.5810 O   0  0  0  0  0  0  0  0  0  0  0  0
  192.1850  171.4390  141.9540 N   0  0  0  0  0  2  0  0  0  0  0  0
  193.6330  172.9390  143.2740 N   0  0  0  0  0  2  0  0  0  0  0  0
  194.8650  173.2590  143.9770 C   0  0  0  0  0  2  0  0  0  0  0  0
  196.3650  176.7690  141.7700 N   0  0  0  0  0  2  0  0  0  0  0  0
  195.5800  175.6440  141.2780 C   0  0  0  0  0  2  0  0  0  0  0  0
  196.5220  176.5220  143.1940 C   0  0  0  0  0  2  0  0  0  0  0  0
  195.4040  175.5960  143.6080 C   0  0  1  0  0  3  0  0  0  0  0  0
  194.7860  175.0920  142.3690 N   0  0  2  0  0  0  0  0  0  0  0  0
  195.6850  174.2350  143.1570 C   0  0  2  0  0  3  0  0  0  0  0  0
  190.7440  174.2800  136.2510 C   0  0  0  0  0  1  0  0  0  0  0  0
  189.6640  173.3180  136.6920 C   0  0  0  0  0  2  0  0  0  0  0  0
  186.9530  175.9800  142.8550 C   0  0  0  0  0  2  0  0  0  0  0  0
  185.6180  178.0970  143.4070 N   0  0  0  0  0  2  0  0  0  0  0  0
  185.6130  177.1660  141.2800 O   0  0  0  0  0  0  0  0  0  0  0  0
  186.0270  177.0990  142.4670 C   0  0  0  0  0  0  0  0  0  0  0  0
  185.2020  176.1220  145.6560 O   0  0  0  0  0  0  0  0  0  0  0  0
  185.5800  179.5310  146.6570 C   0  0  0  0  0  2  0  0  0  0  0  0
  186.0690  178.1650  144.7930 C   0  0  2  0  0  3  0  0  0  0  0  0
  185.1940  177.3450  145.6740 C   0  0  0  0  0  0  0  0  0  0  0  0
  185.9850  179.5480  145.2520 N   0  0  0  0  0  2  0  0  0  0  0  0
  184.2990  178.2620  146.8880 S   0  0  0  0  0  0  0  0  0  0  0  0
  1 15  1  1  0  0  0
  1 39  1  0  0  0  0
  2 12  1  0  0  0  0
  3  6  1  0  0  0  0
  4  1  1  1  0  0  0
  4 14  1  0  0  0  0
  4  9  1  0  0  0  0
  5  2  1  1  0  0  0
  5  8  1  0  0  0  0
  6 11  1  0  0  0  0
  7 10  1  6  0  0  0
  7 13  1  0  0  0  0
  8  7  1  0  0  0  0
  8  3  1  1  0  0  0
  9  5  1  0  0  0  0
  9 10  1  1  0  0  0
 13 11  1  0  0  0  0
 14 12  1  0  0  0  0
 16 15  1  0  0  0  0
 17 18  1  0  0  0  0
 17 16  1  0  0  0  0
 19 17  1  0  0  0  0
 20 23  1  0  0  0  0
 20 17  1  0  0  0  0
 21 24  1  0  0  0  0
 22 21  1  0  0  0  0
 23 21  2  0  0  0  0
 24 25  1  0  0  0  0
 25 28  1  0  0  0  0
 26 29  1  0  0  0  0
 27 26  2  0  0  0  0
 28 26  1  0  0  0  0
 29 30  1  0  0  0  0
 31 33  1  0  0  0  0
 32 31  1  0  0  0  0
 34 33  1  6  0  0  0
 35 32  1  6  0  0  0
 35 36  1  0  0  0  0
 35 34  1  0  0  0  0
 36 34  1  0  0  0  0
 36 30  1  1  0  0  0
 37 38  1  0  0  0  0
 38 20  1  0  0  0  0
 41 42  2  0  0  0  0
 42 39  1  0  0  0  0
 42 40  1  0  0  0  0
 43 46  2  0  0  0  0
 44 48  1  0  0  0  0
 45 40  1  6  0  0  0
 45 47  1  0  0  0  0
 45 46  1  0  0  0  0
 46 48  1  0  0  0  0
 47 44  1  0  0  0  0
M  END
>  <MODEL>
9

>  <REMARK>
 VINA RESULT:      -6.0      3.401      8.507
  Name = 
  15 active torsions:
  status: ('A' for Active; 'I' for Inactive)
    1  A    between atoms: C_1  and  C_4
    2  A    between atoms: C_1  and  C_17
    3  A    between atoms: C_5  and  C_30
    4  A    between atoms: C_5  and  C_33
    5  A    between atoms: C_10  and  N_22
    6  A    between atoms: C_11  and  C_12
    7  A    between atoms: C_12  and  C_30
    8  A    between atoms: C_12  and  C_40
    9  A    between atoms: C_17  and  N_36
   10  A    between atoms: N_22  and  C_33
   11  A    between atoms: N_22  and  C_38
   12  A    between atoms: C_28  and  N_34
   13  A    between atoms: C_29  and  C_32
   14  A    between atoms: C_32  and  N_47
   15  A    between atoms: C_40  and  C_46
                            x       y       z     vdW  Elec       q    Type
                         _______ _______ _______ _____ _____    ______ ____

>  <TORSDO>
F 15

$$$$
