=
 OpenBabel11072408383D

 47 53  0  0  1  0  0  0  0  0999 V2000
  194.8430  172.7360  139.6350 C   0  0  0  0  0  2  0  0  0  0  0  0
  190.4130  176.2960  146.7030 C   0  0  2  0  0  3  0  0  0  0  0  0
  190.1670  175.2230  144.7490 C   0  0  2  0  0  3  0  0  0  0  0  0
  190.5260  172.3280  140.3160 C   0  0  0  0  0  0  0  0  0  0  0  0
  196.8890  173.8310  140.7430 C   0  0  2  0  0  0  0  0  0  0  0  0
  190.2450  175.0100  146.1470 O   0  0  0  0  0  0  0  0  0  0  0  0
  190.1190  177.3360  145.6550 C   0  0  0  0  0  2  0  0  0  0  0  0
  195.1030  174.4000  144.8080 C   0  0  0  0  0  2  0  0  0  0  0  0
  197.7060  175.0940  140.4770 C   0  0  0  0  0  2  0  0  0  0  0  0
  189.8060  172.0750  141.3660 C   0  0  0  0  0  0  0  0  0  0  0  0
  197.7240  172.6920  140.1720 C   0  0  0  0  0  1  0  0  0  0  0  0
  190.0270  172.1230  139.0270 O   0  0  0  0  0  1  0  0  0  0  0  0
  194.8110  174.8340  141.0090 C   0  0  0  0  0  0  0  0  0  0  0  0
  194.4250  174.8100  143.4950 C   0  0  0  0  0  2  0  0  0  0  0  0
  193.0730  176.5430  145.1900 O   0  0  0  0  0  1  0  0  0  0  0  0
  190.1990  172.9280  143.5850 C   0  0  1  0  0  3  0  0  0  0  0  0
  193.6100  172.8890  138.7260 C   0  0  0  0  0  2  0  0  0  0  0  0
  191.8730  172.9630  140.6100 C   0  0  2  0  0  3  0  0  0  0  0  0
  195.9510  174.8890  138.7640 C   0  0  0  0  0  2  0  0  0  0  0  0
  191.6450  173.2780  143.1400 C   0  0  0  0  0  2  0  0  0  0  0  0
  197.2010  175.6660  139.1530 C   0  0  0  0  0  2  0  0  0  0  0  0
  195.5890  174.0530  139.9840 C   0  0  2  0  0  0  0  0  0  0  0  0
  191.7620  173.9790  141.7590 C   0  0  0  0  0  2  0  0  0  0  0  0
  193.2150  174.5420  146.5140 C   0  0  0  0  0  3  0  0  0  0  0  0
  189.8150  176.6170  144.4340 N   0  0  2  0  0  0  0  0  0  0  0  0
  196.5060  173.7410  142.2570 C   0  0  1  0  0  3  0  0  0  0  0  0
  189.3530  174.1530  143.9970 C   0  0  0  0  0  2  0  0  0  0  0  0
  194.1160  173.8280  145.7900 C   0  0  0  0  0  3  0  0  0  0  0  0
  194.1720  175.8760  140.7170 O   0  0  0  0  0  0  0  0  0  0  0  0
  192.4570  173.6630  139.3740 C   0  0  0  0  0  2  0  0  0  0  0  0
  191.8100  176.4900  147.2460 C   0  0  0  0  0  0  0  0  0  0  0  0
  189.4220  172.0650  142.6100 C   0  0  0  0  0  3  0  0  0  0  0  0
  191.9420  177.1620  148.2680 O   0  0  0  0  0  0  0  0  0  0  0  0
  193.0440  176.0320  146.4960 C   0  0  2  0  0  3  0  0  0  0  0  0
  195.2560  174.5340  142.3230 N   0  0  0  0  0  0  0  0  0  0  0  0
  185.5360  178.8440  144.8910 C   0  0  2  0  0  3  0  0  0  0  0  0
  187.4410  177.5200  144.9500 C   0  0  1  0  0  3  0  0  0  0  0  0
  184.4950  179.5680  144.0230 C   0  0  0  0  0  1  0  0  0  0  0  0
  188.3990  176.7730  143.9790 C   0  0  1  0  0  3  0  0  0  0  0  0
  186.7550  178.2930  142.8390 C   0  0  0  0  0  2  0  0  0  0  0  0
  186.8510  178.6660  144.2560 N   0  0  1  0  0  0  0  0  0  0  0  0
  188.3350  177.5390  142.3160 S   0  0  0  0  0  0  0  0  0  0  0  0
  185.0430  177.5120  145.4480 C   0  0  0  0  0  2  0  0  0  0  0  0
  186.3070  176.6540  145.5270 C   0  0  0  0  0  2  0  0  0  0  0  0
  196.7150  172.1020  144.1230 F   0  0  0  0  0  0  0  0  0  0  0  0
  194.9170  171.9970  142.7640 F   0  0  0  0  0  0  0  0  0  0  0  0
  196.2700  172.2970  142.8280 C   0  0  0  0  0  3  0  0  0  0  0  0
  1 22  1  0  0  0  0
  2  7  1  6  0  0  0
  2 31  1  0  0  0  0
  3 27  1  1  0  0  0
  3  6  1  0  0  0  0
  4 18  1  0  0  0  0
  4 10  2  0  0  0  0
  5 11  1  6  0  0  0
  5 26  1  0  0  0  0
  6  2  1  0  0  0  0
  8 28  1  0  0  0  0
  9  5  1  0  0  0  0
 10 32  2  0  0  0  0
 12  4  1  0  0  0  0
 13 35  1  0  0  0  0
 14  8  1  0  0  0  0
 16 32  1  6  0  0  0
 16 27  1  0  0  0  0
 17 30  1  0  0  0  0
 17  1  1  0  0  0  0
 18 30  1  6  0  0  0
 18 23  1  0  0  0  0
 19 21  1  0  0  0  0
 20 16  1  0  0  0  0
 21  9  1  0  0  0  0
 22 19  1  6  0  0  0
 22  5  1  0  0  0  0
 22 13  1  0  0  0  0
 23 20  1  0  0  0  0
 25  3  1  0  0  0  0
 25  7  1  1  0  0  0
 26 35  1  0  0  0  0
 26 47  1  6  0  0  0
 28 24  2  0  0  0  0
 29 13  2  0  0  0  0
 31 33  2  0  0  0  0
 34 15  1  6  0  0  0
 34 24  1  0  0  0  0
 34 31  1  0  0  0  0
 35 14  1  0  0  0  0
 36 38  1  6  0  0  0
 36 43  1  0  0  0  0
 37 44  1  6  0  0  0
 39 42  1  6  0  0  0
 39 25  1  0  0  0  0
 39 37  1  0  0  0  0
 41 40  1  6  0  0  0
 41 36  1  0  0  0  0
 41 37  1  0  0  0  0
 42 40  1  0  0  0  0
 43 44  1  0  0  0  0
 46 47  1  0  0  0  0
 47 45  1  0  0  0  0
M  END
>  <MODEL>
1

>  <REMARK>
 VINA RESULT:      -9.8      0.000      0.000
  Name = 
  2 active torsions:
  status: ('A' for Active; 'I' for Inactive)
    1  A    between atoms: C_11  and  N_37
    2  A    between atoms: C_33  and  C_38
                            x       y       z     vdW  Elec       q    Type
                         _______ _______ _______ _____ _____    ______ ____

>  <TORSDO>
F 2

$$$$
=
 OpenBabel11072408383D

 47 53  0  0  1  0  0  0  0  0999 V2000
  194.9320  171.7860  138.7750 C   0  0  0  0  0  2  0  0  0  0  0  0
  192.0700  176.1270  146.2060 C   0  0  2  0  0  3  0  0  0  0  0  0
  191.4420  174.7810  144.5240 C   0  0  2  0  0  3  0  0  0  0  0  0
  190.9420  171.3100  140.5420 C   0  0  0  0  0  0  0  0  0  0  0  0
  197.0990  173.1040  139.1980 C   0  0  2  0  0  0  0  0  0  0  0  0
  191.8670  174.7700  145.8760 O   0  0  0  0  0  0  0  0  0  0  0  0
  191.4600  176.9970  145.1390 C   0  0  0  0  0  2  0  0  0  0  0  0
  196.2960  174.1670  143.4720 C   0  0  0  0  0  2  0  0  0  0  0  0
  197.7360  174.3490  138.5820 C   0  0  0  0  0  2  0  0  0  0  0  0
  190.5130  171.1790  141.7600 C   0  0  0  0  0  0  0  0  0  0  0  0
  197.8530  171.9300  138.5880 C   0  0  0  0  0  1  0  0  0  0  0  0
  190.1660  170.9070  139.4510 O   0  0  0  0  0  1  0  0  0  0  0  0
  195.0780  174.0530  139.8380 C   0  0  0  0  0  0  0  0  0  0  0  0
  195.2980  174.3620  142.3250 C   0  0  0  0  0  2  0  0  0  0  0  0
  194.2670  176.2620  144.0670 O   0  0  0  0  0  1  0  0  0  0  0  0
  191.3610  172.3490  143.6880 C   0  0  1  0  0  3  0  0  0  0  0  0
  193.5100  171.7630  138.1850 C   0  0  0  0  0  2  0  0  0  0  0  0
  192.2710  172.0320  140.4130 C   0  0  2  0  0  3  0  0  0  0  0  0
  195.6430  173.8370  137.3930 C   0  0  0  0  0  2  0  0  0  0  0  0
  192.6310  172.6890  142.8610 C   0  0  0  0  0  2  0  0  0  0  0  0
  196.8900  174.7090  137.3610 C   0  0  0  0  0  2  0  0  0  0  0  0
  195.6430  173.1670  138.7600 C   0  0  2  0  0  0  0  0  0  0  0  0
  192.3650  173.1940  141.4160 C   0  0  0  0  0  2  0  0  0  0  0  0
  194.8650  174.4740  145.5580 C   0  0  0  0  0  3  0  0  0  0  0  0
  190.9270  176.1030  144.1320 N   0  0  2  0  0  0  0  0  0  0  0  0
  197.0950  173.2130  140.7590 C   0  0  1  0  0  3  0  0  0  0  0  0
  190.5520  173.5850  144.1370 C   0  0  0  0  0  2  0  0  0  0  0  0
  195.6150  173.7000  144.7300 C   0  0  0  0  0  3  0  0  0  0  0  0
  194.3140  175.0180  139.5820 O   0  0  0  0  0  0  0  0  0  0  0  0
  192.4920  172.5740  138.9930 C   0  0  0  0  0  2  0  0  0  0  0  0
  193.5380  176.4490  146.3600 C   0  0  0  0  0  0  0  0  0  0  0  0
  190.4390  171.3280  143.0510 C   0  0  0  0  0  3  0  0  0  0  0  0
  193.8610  177.2620  147.2250 O   0  0  0  0  0  0  0  0  0  0  0  0
  194.5870  175.9390  145.3940 C   0  0  2  0  0  3  0  0  0  0  0  0
  195.8430  173.9580  141.0290 N   0  0  0  0  0  0  0  0  0  0  0  0
  186.7270  178.1670  145.3890 C   0  0  2  0  0  3  0  0  0  0  0  0
  188.6840  176.9480  145.1160 C   0  0  1  0  0  3  0  0  0  0  0  0
  185.4590  178.7350  144.7320 C   0  0  0  0  0  1  0  0  0  0  0  0
  189.4360  176.1390  144.0230 C   0  0  1  0  0  3  0  0  0  0  0  0
  187.4610  177.4360  143.1700 C   0  0  0  0  0  2  0  0  0  0  0  0
  187.8630  177.9760  144.4740 N   0  0  1  0  0  0  0  0  0  0  0  0
  188.9220  176.7000  142.3560 S   0  0  0  0  0  0  0  0  0  0  0  0
  186.4800  176.8880  146.1830 C   0  0  0  0  0  2  0  0  0  0  0  0
  187.7860  176.1040  146.0390 C   0  0  0  0  0  2  0  0  0  0  0  0
  195.8630  171.2720  141.7200 F   0  0  0  0  0  0  0  0  0  0  0  0
  197.9410  170.9570  140.8980 F   0  0  0  0  0  0  0  0  0  0  0  0
  197.1060  171.8550  141.5480 C   0  0  0  0  0  3  0  0  0  0  0  0
  2  7  1  6  0  0  0
  2 31  1  0  0  0  0
  3 27  1  1  0  0  0
  3  6  1  0  0  0  0
  4 10  2  0  0  0  0
  5 11  1  6  0  0  0
  5 26  1  0  0  0  0
  6  2  1  0  0  0  0
  8 28  1  0  0  0  0
  9  5  1  0  0  0  0
 10 32  2  0  0  0  0
 12  4  1  0  0  0  0
 13 35  1  0  0  0  0
 14  8  1  0  0  0  0
 16 20  1  6  0  0  0
 16 27  1  0  0  0  0
 17  1  1  0  0  0  0
 17 30  1  0  0  0  0
 18 30  1  6  0  0  0
 18  4  1  0  0  0  0
 18 23  1  0  0  0  0
 21 19  1  0  0  0  0
 21  9  1  0  0  0  0
 22 19  1  6  0  0  0
 22  1  1  0  0  0  0
 22  5  1  0  0  0  0
 22 13  1  0  0  0  0
 23 20  1  0  0  0  0
 25  3  1  0  0  0  0
 25  7  1  1  0  0  0
 26 35  1  0  0  0  0
 26 47  1  1  0  0  0
 28 24  2  0  0  0  0
 29 13  2  0  0  0  0
 31 33  2  0  0  0  0
 32 16  1  0  0  0  0
 34 15  1  6  0  0  0
 34 24  1  0  0  0  0
 34 31  1  0  0  0  0
 35 14  1  0  0  0  0
 36 38  1  6  0  0  0
 36 43  1  0  0  0  0
 37 44  1  6  0  0  0
 39 42  1  6  0  0  0
 39 25  1  0  0  0  0
 39 37  1  0  0  0  0
 41 40  1  6  0  0  0
 41 37  1  0  0  0  0
 41 36  1  0  0  0  0
 42 40  1  0  0  0  0
 44 43  1  0  0  0  0
 46 47  1  0  0  0  0
 47 45  1  0  0  0  0
M  END
>  <MODEL>
2

>  <REMARK>
 VINA RESULT:      -8.4      1.389      1.641
  Name = 
  2 active torsions:
  status: ('A' for Active; 'I' for Inactive)
    1  A    between atoms: C_11  and  N_37
    2  A    between atoms: C_33  and  C_38
                            x       y       z     vdW  Elec       q    Type
                         _______ _______ _______ _____ _____    ______ ____

>  <TORSDO>
F 2

$$$$
=
 OpenBabel11072408383D

 47 53  0  0  1  0  0  0  0  0999 V2000
  191.8640  175.5320  145.8670 C   0  0  0  0  0  2  0  0  0  0  0  0
  192.8410  171.1180  138.0050 C   0  0  2  0  0  3  0  0  0  0  0  0
  193.9390  172.1600  139.6600 C   0  0  2  0  0  3  0  0  0  0  0  0
  195.7270  174.3600  144.1450 C   0  0  0  0  0  0  0  0  0  0  0  0
  189.3590  175.3710  145.3080 C   0  0  2  0  0  0  0  0  0  0  0  0
  193.5320  170.8790  139.2120 O   0  0  0  0  0  0  0  0  0  0  0  0
  193.1010  172.5290  137.5500 C   0  0  0  0  0  2  0  0  0  0  0  0
  189.6630  172.1060  142.2600 C   0  0  0  0  0  2  0  0  0  0  0  0
  188.3170  176.3450  144.7590 C   0  0  0  0  0  2  0  0  0  0  0  0
  196.1600  173.2790  143.5710 C   0  0  0  0  0  0  0  0  0  0  0  0
  189.0970  175.3140  146.8070 C   0  0  0  0  0  1  0  0  0  0  0  0
  196.6110  175.2880  144.7050 O   0  0  0  0  0  1  0  0  0  0  0  0
  190.8830  175.5020  143.5590 C   0  0  0  0  0  0  0  0  0  0  0  0
  190.5340  173.3680  142.2730 C   0  0  0  0  0  2  0  0  0  0  0  0
  190.7730  172.7550  139.5750 O   0  0  0  0  0  1  0  0  0  0  0  0
  194.9180  171.9090  142.0270 C   0  0  1  0  0  3  0  0  0  0  0  0
  193.2020  176.2690  145.6730 C   0  0  0  0  0  2  0  0  0  0  0  0
  194.2280  174.5730  144.0460 C   0  0  2  0  0  3  0  0  0  0  0  0
  190.4660  177.5170  145.0120 C   0  0  0  0  0  2  0  0  0  0  0  0
  193.6220  172.5980  142.5350 C   0  0  0  0  0  2  0  0  0  0  0  0
  188.9860  177.7180  144.7180 C   0  0  0  0  0  2  0  0  0  0  0  0
  190.6960  176.0120  144.9630 C   0  0  2  0  0  0  0  0  0  0  0  0
  193.7020  174.1440  142.6670 C   0  0  0  0  0  2  0  0  0  0  0  0
  190.8570  170.5830  140.6020 C   0  0  0  0  0  3  0  0  0  0  0  0
  193.9380  173.1410  138.5620 N   0  0  2  0  0  0  0  0  0  0  0  0
  189.3040  174.0180  144.5240 C   0  0  1  0  0  3  0  0  0  0  0  0
  195.2110  172.1460  140.5290 C   0  0  0  0  0  2  0  0  0  0  0  0
  190.4530  170.8880  141.8630 C   0  0  0  0  0  3  0  0  0  0  0  0
  191.2410  176.2500  142.6150 O   0  0  0  0  0  0  0  0  0  0  0  0
  193.8410  176.0380  144.2990 C   0  0  0  0  0  2  0  0  0  0  0  0
  191.3550  170.8900  138.1600 C   0  0  0  0  0  0  0  0  0  0  0  0
  196.1590  172.1960  142.8490 C   0  0  0  0  0  3  0  0  0  0  0  0
  190.7450  170.4040  137.2080 O   0  0  0  0  0  0  0  0  0  0  0  0
  190.5780  171.3830  139.3630 C   0  0  2  0  0  3  0  0  0  0  0  0
  190.1920  174.2770  143.3660 N   0  0  0  0  0  0  0  0  0  0  0  0
  196.8770  174.3010  134.8890 C   0  0  2  0  0  3  0  0  0  0  0  0
  195.5580  173.3620  136.5520 C   0  0  1  0  0  3  0  0  0  0  0  0
  197.9280  175.3590  134.5200 C   0  0  0  0  0  1  0  0  0  0  0  0
  195.3120  173.4820  138.0830 C   0  0  1  0  0  3  0  0  0  0  0  0
  196.7750  175.2870  137.1290 C   0  0  0  0  0  2  0  0  0  0  0  0
  196.0270  174.6500  136.0380 N   0  0  1  0  0  0  0  0  0  0  0  0
  195.8110  175.1430  138.6740 S   0  0  0  0  0  0  0  0  0  0  0  0
  197.4610  172.9040  135.0800 C   0  0  0  0  0  2  0  0  0  0  0  0
  196.5650  172.2700  136.1460 C   0  0  0  0  0  2  0  0  0  0  0  0
  189.0440  171.6000  145.0660 F   0  0  0  0  0  0  0  0  0  0  0  0
  191.1140  172.4960  145.0040 F   0  0  0  0  0  0  0  0  0  0  0  0
  189.7830  172.7440  145.3070 C   0  0  0  0  0  3  0  0  0  0  0  0
  2  7  1  1  0  0  0
  2 31  1  0  0  0  0
  2  6  1  0  0  0  0
  3 27  1  6  0  0  0
  4 12  1  0  0  0  0
  5 11  1  1  0  0  0
  6  3  1  0  0  0  0
  8 14  1  0  0  0  0
  9  5  1  0  0  0  0
 10  4  2  0  0  0  0
 13 22  1  0  0  0  0
 14 35  1  0  0  0  0
 16 27  1  6  0  0  0
 16 20  1  0  0  0  0
 16 32  1  0  0  0  0
 17  1  1  0  0  0  0
 18 23  1  6  0  0  0
 18  4  1  0  0  0  0
 18 30  1  0  0  0  0
 20 23  1  0  0  0  0
 21  9  1  0  0  0  0
 21 19  1  0  0  0  0
 22 19  1  1  0  0  0
 22  5  1  0  0  0  0
 22  1  1  0  0  0  0
 24 28  2  0  0  0  0
 25  7  1  6  0  0  0
 25  3  1  0  0  0  0
 26 47  1  1  0  0  0
 26  5  1  0  0  0  0
 28  8  1  0  0  0  0
 29 13  2  0  0  0  0
 30 17  1  0  0  0  0
 31 34  1  0  0  0  0
 32 10  2  0  0  0  0
 33 31  2  0  0  0  0
 34 15  1  1  0  0  0
 34 24  1  0  0  0  0
 35 13  1  0  0  0  0
 35 26  1  0  0  0  0
 36 38  1  1  0  0  0
 36 43  1  0  0  0  0
 36 41  1  0  0  0  0
 37 44  1  1  0  0  0
 37 39  1  0  0  0  0
 39 25  1  0  0  0  0
 39 42  1  6  0  0  0
 40 42  1  0  0  0  0
 41 37  1  0  0  0  0
 41 40  1  1  0  0  0
 43 44  1  0  0  0  0
 45 47  1  0  0  0  0
 46 47  1  0  0  0  0
M  END
>  <MODEL>
3

>  <REMARK>
 VINA RESULT:      -8.1      2.919      9.103
  Name = 
  2 active torsions:
  status: ('A' for Active; 'I' for Inactive)
    1  A    between atoms: C_11  and  N_37
    2  A    between atoms: C_33  and  C_38
                            x       y       z     vdW  Elec       q    Type
                         _______ _______ _______ _____ _____    ______ ____

>  <TORSDO>
F 2

$$$$
=
 OpenBabel11072408383D

 47 53  0  0  1  0  0  0  0  0999 V2000
  196.3710  171.7520  144.6110 C   0  0  0  0  0  2  0  0  0  0  0  0
  188.4870  174.3610  140.9670 C   0  0  2  0  0  3  0  0  0  0  0  0
  190.1780  174.9920  142.2990 C   0  0  2  0  0  3  0  0  0  0  0  0
  194.7270  175.8100  144.9050 C   0  0  0  0  0  0  0  0  0  0  0  0
  195.7530  169.4750  143.5880 C   0  0  2  0  0  0  0  0  0  0  0  0
  189.7060  175.0700  140.9650 O   0  0  0  0  0  0  0  0  0  0  0  0
  188.0530  174.1150  142.3880 C   0  0  0  0  0  2  0  0  0  0  0  0
  192.6770  170.9630  140.6950 C   0  0  0  0  0  2  0  0  0  0  0  0
  195.1910  168.1660  144.1420 C   0  0  0  0  0  2  0  0  0  0  0  0
  194.1510  176.6060  144.0560 C   0  0  0  0  0  0  0  0  0  0  0  0
  197.2450  169.2230  143.4150 C   0  0  0  0  0  1  0  0  0  0  0  0
  195.3160  176.3000  146.0740 O   0  0  0  0  0  1  0  0  0  0  0  0
  194.0420  170.8850  144.2790 C   0  0  0  0  0  0  0  0  0  0  0  0
  192.7240  171.3340  142.1830 C   0  0  0  0  0  2  0  0  0  0  0  0
  190.0260  171.8210  141.7430 O   0  0  0  0  0  1  0  0  0  0  0  0
  192.5630  175.9550  142.3650 C   0  0  1  0  0  3  0  0  0  0  0  0
  196.2160  172.7480  145.7740 C   0  0  0  0  0  2  0  0  0  0  0  0
  194.5950  174.3340  144.5790 C   0  0  2  0  0  3  0  0  0  0  0  0
  195.5060  169.7590  145.9910 C   0  0  0  0  0  2  0  0  0  0  0  0
  193.0490  174.4900  142.5450 C   0  0  0  0  0  2  0  0  0  0  0  0
  195.1800  168.3090  145.6640 C   0  0  0  0  0  2  0  0  0  0  0  0
  195.4460  170.5060  144.6650 C   0  0  2  0  0  0  0  0  0  0  0  0
  193.2000  174.0170  144.0170 C   0  0  0  0  0  2  0  0  0  0  0  0
  191.0300  172.6460  139.7210 C   0  0  0  0  0  3  0  0  0  0  0  0
  189.0910  174.6640  143.2370 N   0  0  2  0  0  0  0  0  0  0  0  0
  194.9530  169.9140  142.3170 C   0  0  1  0  0  3  0  0  0  0  0  0
  191.0750  176.1710  142.7170 C   0  0  0  0  0  2  0  0  0  0  0  0
  192.2850  172.1380  139.8410 C   0  0  0  0  0  3  0  0  0  0  0  0
  193.1130  170.9740  145.1220 O   0  0  0  0  0  0  0  0  0  0  0  0
  194.8560  173.4510  145.8080 C   0  0  0  0  0  2  0  0  0  0  0  0
  188.6040  173.0480  140.2280 C   0  0  0  0  0  0  0  0  0  0  0  0
  193.4180  176.9990  143.0550 C   0  0  0  0  0  3  0  0  0  0  0  0
  187.6330  172.6660  139.5760 O   0  0  0  0  0  0  0  0  0  0  0  0
  189.7950  172.1260  140.3940 C   0  0  2  0  0  3  0  0  0  0  0  0
  193.8190  170.6730  142.8930 N   0  0  0  0  0  0  0  0  0  0  0  0
  185.4910  177.5320  144.7530 C   0  0  2  0  0  3  0  0  0  0  0  0
  187.2420  176.4160  143.7140 C   0  0  1  0  0  3  0  0  0  0  0  0
  184.9190  178.0990  146.0610 C   0  0  0  0  0  1  0  0  0  0  0  0
  188.6470  175.8390  144.0480 C   0  0  1  0  0  3  0  0  0  0  0  0
  187.3330  176.5800  146.0570 C   0  0  0  0  0  2  0  0  0  0  0  0
  186.4170  176.4010  144.9240 N   0  0  1  0  0  0  0  0  0  0  0  0
  188.7700  175.4730  145.8390 S   0  0  0  0  0  0  0  0  0  0  0  0
  186.1260  178.5920  143.8560 C   0  0  0  0  0  2  0  0  0  0  0  0
  187.2530  177.8440  143.1400 C   0  0  0  0  0  2  0  0  0  0  0  0
  195.4300  170.5420  139.9540 F   0  0  0  0  0  0  0  0  0  0  0  0
  195.4940  172.1370  141.5490 F   0  0  0  0  0  0  0  0  0  0  0  0
  195.7330  170.7970  141.2790 C   0  0  0  0  0  3  0  0  0  0  0  0
  1 17  1  0  0  0  0
  2  7  1  1  0  0  0
  3 27  1  1  0  0  0
  3 25  1  0  0  0  0
  4 12  1  0  0  0  0
  5 11  1  6  0  0  0
  5  9  1  0  0  0  0
  5 22  1  0  0  0  0
  6  2  1  0  0  0  0
  6  3  1  0  0  0  0
  8 14  1  0  0  0  0
  9 21  1  0  0  0  0
 10  4  2  0  0  0  0
 13 22  1  0  0  0  0
 13 29  2  0  0  0  0
 14 35  1  0  0  0  0
 16 20  1  1  0  0  0
 16 27  1  0  0  0  0
 16 32  1  0  0  0  0
 17 30  1  0  0  0  0
 18 23  1  1  0  0  0
 18  4  1  0  0  0  0
 18 30  1  0  0  0  0
 20 23  1  0  0  0  0
 21 19  1  0  0  0  0
 22  1  1  6  0  0  0
 22 19  1  0  0  0  0
 24 28  2  0  0  0  0
 24 34  1  0  0  0  0
 25  7  1  6  0  0  0
 25 39  1  0  0  0  0
 26 47  1  6  0  0  0
 26 35  1  0  0  0  0
 26  5  1  0  0  0  0
 28  8  1  0  0  0  0
 31 34  1  0  0  0  0
 31  2  1  0  0  0  0
 32 10  2  0  0  0  0
 33 31  2  0  0  0  0
 34 15  1  1  0  0  0
 35 13  1  0  0  0  0
 36 41  1  0  0  0  0
 36 38  1  1  0  0  0
 37 44  1  1  0  0  0
 37 39  1  0  0  0  0
 37 41  1  0  0  0  0
 39 42  1  1  0  0  0
 41 40  1  1  0  0  0
 42 40  1  0  0  0  0
 43 36  1  0  0  0  0
 44 43  1  0  0  0  0
 45 47  1  0  0  0  0
 47 46  1  0  0  0  0
M  END
>  <MODEL>
4

>  <REMARK>
 VINA RESULT:      -7.6      2.732      5.645
  Name = 
  2 active torsions:
  status: ('A' for Active; 'I' for Inactive)
    1  A    between atoms: C_11  and  N_37
    2  A    between atoms: C_33  and  C_38
                            x       y       z     vdW  Elec       q    Type
                         _______ _______ _______ _____ _____    ______ ____

>  <TORSDO>
F 2

$$$$
=
 OpenBabel11072408383D

 47 53  0  0  1  0  0  0  0  0999 V2000
  193.2640  173.2400  145.8820 C   0  0  0  0  0  2  0  0  0  0  0  0
  189.8140  171.5630  137.6630 C   0  0  2  0  0  3  0  0  0  0  0  0
  191.0430  170.7090  139.3350 C   0  0  2  0  0  3  0  0  0  0  0  0
  193.4180  169.3390  143.8770 C   0  0  0  0  0  0  0  0  0  0  0  0
  192.3840  175.6160  145.4420 C   0  0  2  0  0  0  0  0  0  0  0  0
  189.7270  170.7470  138.8110 O   0  0  0  0  0  0  0  0  0  0  0  0
  191.2620  171.7700  137.3060 C   0  0  0  0  0  2  0  0  0  0  0  0
  189.5460  174.5740  142.1400 C   0  0  0  0  0  2  0  0  0  0  0  0
  193.0270  176.9390  145.0240 C   0  0  0  0  0  2  0  0  0  0  0  0
  192.5540  168.6460  143.2000 C   0  0  0  0  0  0  0  0  0  0  0  0
  192.1640  175.7400  146.9440 C   0  0  0  0  0  1  0  0  0  0  0  0
  194.5360  168.7350  144.4600 O   0  0  0  0  0  1  0  0  0  0  0  0
  193.0710  174.3330  143.6320 C   0  0  0  0  0  0  0  0  0  0  0  0
  191.0100  174.1210  142.2050 C   0  0  0  0  0  2  0  0  0  0  0  0
  190.6550  173.9060  139.4600 O   0  0  0  0  0  1  0  0  0  0  0  0
  190.9640  169.5310  141.6210 C   0  0  1  0  0  3  0  0  0  0  0  0
  194.3810  172.2010  145.6760 C   0  0  0  0  0  2  0  0  0  0  0  0
  193.1730  170.8360  143.8720 C   0  0  2  0  0  3  0  0  0  0  0  0
  194.7770  175.2250  145.2550 C   0  0  0  0  0  2  0  0  0  0  0  0
  191.1980  170.9330  142.2470 C   0  0  0  0  0  2  0  0  0  0  0  0
  194.5380  176.7150  145.0550 C   0  0  0  0  0  2  0  0  0  0  0  0
  193.4190  174.5610  145.0790 C   0  0  2  0  0  0  0  0  0  0  0  0
  192.6840  171.3090  142.4930 C   0  0  0  0  0  2  0  0  0  0  0  0
  188.5550  173.1040  140.3100 C   0  0  0  0  0  3  0  0  0  0  0  0
  192.0390  171.0830  138.3170 N   0  0  2  0  0  0  0  0  0  0  0  0
  191.1260  175.3220  144.5600 C   0  0  1  0  0  3  0  0  0  0  0  0
  191.3640  169.4320  140.1320 C   0  0  0  0  0  2  0  0  0  0  0  0
  188.6500  173.4880  141.6100 C   0  0  0  0  0  3  0  0  0  0  0  0
  193.9460  174.2830  142.7300 O   0  0  0  0  0  0  0  0  0  0  0  0
  194.4340  171.6230  144.2570 C   0  0  0  0  0  2  0  0  0  0  0  0
  189.1390  172.8980  137.8770 C   0  0  0  0  0  0  0  0  0  0  0  0
  191.5640  168.3760  142.3980 C   0  0  0  0  0  3  0  0  0  0  0  0
  188.5470  173.4020  136.9230 O   0  0  0  0  0  0  0  0  0  0  0  0
  189.3030  173.6970  139.1530 C   0  0  2  0  0  3  0  0  0  0  0  0
  191.7080  174.6390  143.3810 N   0  0  0  0  0  0  0  0  0  0  0  0
  194.6100  169.0760  134.7330 C   0  0  2  0  0  3  0  0  0  0  0  0
  193.0570  169.8790  136.2610 C   0  0  1  0  0  3  0  0  0  0  0  0
  195.9530  168.3630  134.5130 C   0  0  0  0  0  1  0  0  0  0  0  0
  192.8070  169.9110  137.7950 C   0  0  1  0  0  3  0  0  0  0  0  0
  195.0780  169.0600  137.1370 C   0  0  0  0  0  2  0  0  0  0  0  0
  194.4970  169.7990  136.0100 N   0  0  1  0  0  0  0  0  0  0  0  0
  194.3910  169.7210  138.6960 S   0  0  0  0  0  0  0  0  0  0  0  0
  193.3990  168.1670  134.5430 C   0  0  0  0  0  2  0  0  0  0  0  0
  192.3610  168.7240  135.5190 C   0  0  0  0  0  2  0  0  0  0  0  0
  188.7160  174.7930  144.9070 F   0  0  0  0  0  0  0  0  0  0  0  0
  190.2130  173.1070  144.8480 F   0  0  0  0  0  0  0  0  0  0  0  0
  190.0140  174.4290  145.2170 C   0  0  0  0  0  3  0  0  0  0  0  0
  2  7  1  1  0  0  0
  2 31  1  0  0  0  0
  2  6  1  0  0  0  0
  3 27  1  6  0  0  0
  4 12  1  0  0  0  0
  5 11  1  1  0  0  0
  6  3  1  0  0  0  0
  8 14  1  0  0  0  0
  9 21  1  0  0  0  0
  9  5  1  0  0  0  0
 10  4  2  0  0  0  0
 13 22  1  0  0  0  0
 14 35  1  0  0  0  0
 16 27  1  6  0  0  0
 16 20  1  0  0  0  0
 16 32  1  0  0  0  0
 17  1  1  0  0  0  0
 18 23  1  6  0  0  0
 18  4  1  0  0  0  0
 18 30  1  0  0  0  0
 20 23  1  0  0  0  0
 21 19  1  0  0  0  0
 22 19  1  1  0  0  0
 22  5  1  0  0  0  0
 22  1  1  0  0  0  0
 24 28  2  0  0  0  0
 25  7  1  6  0  0  0
 25  3  1  0  0  0  0
 26 47  1  1  0  0  0
 26  5  1  0  0  0  0
 28  8  1  0  0  0  0
 29 13  2  0  0  0  0
 30 17  1  0  0  0  0
 31 34  1  0  0  0  0
 32 10  2  0  0  0  0
 33 31  2  0  0  0  0
 34 15  1  1  0  0  0
 34 24  1  0  0  0  0
 35 13  1  0  0  0  0
 35 26  1  0  0  0  0
 36 38  1  1  0  0  0
 36 41  1  0  0  0  0
 37 44  1  1  0  0  0
 37 39  1  0  0  0  0
 39 25  1  0  0  0  0
 39 42  1  1  0  0  0
 40 42  1  0  0  0  0
 41 37  1  0  0  0  0
 41 40  1  1  0  0  0
 43 36  1  0  0  0  0
 43 44  1  0  0  0  0
 45 47  1  0  0  0  0
 46 47  1  0  0  0  0
M  END
>  <MODEL>
5

>  <REMARK>
 VINA RESULT:      -7.2      4.147      8.846
  Name = 
  2 active torsions:
  status: ('A' for Active; 'I' for Inactive)
    1  A    between atoms: C_11  and  N_37
    2  A    between atoms: C_33  and  C_38
                            x       y       z     vdW  Elec       q    Type
                         _______ _______ _______ _____ _____    ______ ____

>  <TORSDO>
F 2

$$$$
