=
 OpenBabel11062421333D

 55 58  0  0  1  0  0  0  0  0999 V2000
  189.4740  173.9380  141.5850 C   0  0  0  0  0  2  0  0  0  0  0  0
  189.7420  172.3030  140.0930 C   0  0  1  0  0  3  0  0  0  0  0  0
  190.1970  174.5050  143.8490 N   0  0  0  0  0  0  0  0  0  0  0  0
  190.5550  170.4350  141.5940 O   0  0  0  0  0  0  0  0  0  0  0  0
  190.7560  171.1680  140.3870 C   0  0  2  0  0  3  0  0  0  0  0  0
  190.1780  173.6460  142.8910 C   0  0  0  0  0  0  0  0  0  0  0  0
  190.8330  172.3150  143.1110 C   0  0  0  0  0  2  0  0  0  0  0  0
  190.2580  173.5450  140.4970 O   0  0  0  0  0  0  0  0  0  0  0  0
  189.9320  171.1960  142.6020 C   0  0  0  0  0  2  0  0  0  0  0  0
  190.6290  176.8890  143.6580 C   0  0  0  0  0  1  0  0  0  0  0  0
  189.5690  175.8050  143.7640 C   0  0  2  0  0  3  0  0  0  0  0  0
  188.6070  176.0250  144.9430 C   0  0  1  0  0  3  0  0  0  0  0  0
  189.2650  174.6020  147.1190 C   0  0  0  0  0  3  0  0  0  0  0  0
  188.9660  175.2420  146.1380 C   0  0  0  0  0  0  0  0  0  0  0  0
  188.4560  177.5010  145.2930 C   0  0  0  0  0  2  0  0  0  0  0  0
  184.6020  178.3270  147.0160 C   0  0  0  0  0  3  0  0  0  0  0  0
  184.7870  178.5140  145.6450 C   0  0  0  0  0  3  0  0  0  0  0  0
  186.0350  178.2530  145.0570 C   0  0  0  0  0  0  0  0  0  0  0  0
  187.0970  177.7840  145.8590 C   0  0  0  0  0  0  0  0  0  0  0  0
  185.6590  177.8720  147.8100 C   0  0  0  0  0  3  0  0  0  0  0  0
  186.9020  177.6020  147.2330 C   0  0  0  0  0  3  0  0  0  0  0  0
  186.2200  178.4830  143.5880 C   0  0  2  0  0  3  0  0  0  0  0  0
  185.3100  179.4350  143.1280 O   0  0  0  0  0  1  0  0  0  0  0  0
  186.0540  177.2880  142.8860 O   0  0  0  0  0  0  0  0  0  0  0  0
  188.0850  178.3690  141.6430 O   0  0  0  0  0  1  0  0  0  0  0  0
  186.8570  177.5180  141.4070 P   0  0  0  0  0  0  0  0  0  0  0  0
  187.3360  176.0200  140.7710 O   0  0  0  0  0  1  0  0  0  0  0  0
  185.8380  178.3000  140.3010 O   0  0  0  0  0  0  0  0  0  0  0  0
  192.2330  171.5800  140.2040 C   0  0  1  0  0  3  0  0  0  0  0  0
  193.1120  170.5020  139.5480 C   0  0  1  0  0  3  0  0  0  0  0  0
  193.9170  169.6910  140.5510 C   0  0  0  0  0  1  0  0  0  0  0  0
  192.3370  169.6540  138.7550 O   0  0  0  0  0  0  0  0  0  0  0  0
  192.6560  169.9710  137.5180 O   0  0  0  0  0  1  0  0  0  0  0  0
  192.4080  172.9790  139.5970 C   0  0  0  0  0  2  0  0  0  0  0  0
  193.8540  173.4420  139.6210 C   0  0  0  0  0  2  0  0  0  0  0  0
  194.3210  173.6050  141.0530 C   0  0  0  0  0  2  0  0  0  0  0  0
  193.3600  174.5120  141.8020 C   0  0  0  0  0  2  0  0  0  0  0  0
  194.4120  176.6540  141.8180 O   0  0  0  0  0  1  0  0  0  0  0  0
  194.0950  175.5650  142.6200 C   0  0  2  0  0  3  0  0  0  0  0  0
  193.5900  173.9440  145.2460 S   0  0  0  0  0  0  0  0  0  0  0  0
  193.7200  175.6480  145.7340 C   0  0  0  0  0  0  0  0  0  0  0  0
  195.3870  174.9620  143.1710 C   0  0  1  0  0  3  0  0  0  0  0  0
  195.8180  175.4720  144.5620 C   0  0  2  0  0  3  0  0  0  0  0  0
  195.2140  174.0830  144.4050 C   0  0  1  0  0  0  0  0  0  0  0  0
  194.8050  176.2820  145.3150 C   0  0  0  0  0  0  0  0  0  0  0  0
  195.0200  177.6310  145.5810 O   0  0  0  0  0  1  0  0  0  0  0  0
  196.9880  170.9420  145.8250 C   0  0  0  0  0  1  0  0  0  0  0  0
  196.1820  172.9520  144.5320 C   0  0  0  0  0  0  0  0  0  0  0  0
  197.0730  172.7710  143.6540 O   0  0  0  0  0  0  0  0  0  0  0  0
  196.1040  172.0900  145.6680 N   0  0  0  0  0  2  0  0  0  0  0  0
  192.2620  175.5170  147.5770 F   0  0  0  0  0  0  0  0  0  0  0  0
  192.6330  176.3160  146.5100 C   0  0  0  0  0  2  0  0  0  0  0  0
  189.3930  172.3360  138.6150 C   0  0  0  0  0  2  0  0  0  0  0  0
  188.4770  174.0680  137.6010 C   0  0  0  0  0  1  0  0  0  0  0  0
  188.1740  172.9850  138.4270 O   0  0  0  0  0  0  0  0  0  0  0  0
  1  6  1  0  0  0  0
  2 53  1  6  0  0  0
  2  5  1  0  0  0  0
  2  8  1  0  0  0  0
  4  9  1  0  0  0  0
  5 29  1  1  0  0  0
  5  4  1  0  0  0  0
  6  7  1  0  0  0  0
  6  3  2  0  0  0  0
  8  1  1  0  0  0  0
  9  7  1  0  0  0  0
 11 10  1  1  0  0  0
 11  3  1  0  0  0  0
 11 12  1  0  0  0  0
 12 15  1  1  0  0  0
 12 14  1  0  0  0  0
 14 13  3  0  0  0  0
 15 19  1  0  0  0  0
 16 20  1  0  0  0  0
 17 16  2  0  0  0  0
 18 17  1  0  0  0  0
 18 19  2  0  0  0  0
 19 21  1  0  0  0  0
 21 20  2  0  0  0  0
 22 23  1  6  0  0  0
 22 18  1  0  0  0  0
 24 22  1  0  0  0  0
 26 25  1  0  0  0  0
 26 24  1  0  0  0  0
 27 26  1  0  0  0  0
 28 26  2  0  0  0  0
 29 34  1  6  0  0  0
 30 29  1  0  0  0  0
 30 31  1  1  0  0  0
 32 30  1  0  0  0  0
 33 32  1  0  0  0  0
 34 35  1  0  0  0  0
 35 36  1  0  0  0  0
 36 37  1  0  0  0  0
 37 39  1  0  0  0  0
 39 38  1  6  0  0  0
 40 41  1  0  0  0  0
 41 52  1  0  0  0  0
 42 39  1  1  0  0  0
 42 44  1  0  0  0  0
 42 43  1  0  0  0  0
 43 45  1  1  0  0  0
 44 48  1  1  0  0  0
 44 43  1  0  0  0  0
 44 40  1  0  0  0  0
 45 46  1  0  0  0  0
 45 41  2  0  0  0  0
 48 50  1  0  0  0  0
 49 48  2  0  0  0  0
 50 47  1  0  0  0  0
 52 51  1  0  0  0  0
 54 55  1  0  0  0  0
 55 53  1  0  0  0  0
M  END
>  <MODEL>
1

>  <REMARK>
 VINA RESULT:      -6.8      0.000      0.000
  Name = 
  21 active torsions:
  status: ('A' for Active; 'I' for Inactive)
    1  A    between atoms: C_1  and  O_6
    2  A    between atoms: C_1  and  C_7
    3  A    between atoms: C_2  and  C_14
    4  A    between atoms: C_2  and  O_16
    5  A    between atoms: C_7  and  C_38
    6  A    between atoms: C_7  and  C_49
    7  A    between atoms: C_12  and  C_34
    8  A    between atoms: C_12  and  C_49
    9  A    between atoms: C_13  and  C_32
   10  A    between atoms: C_15  and  C_24
   11  A    between atoms: C_17  and  C_46
   12  A    between atoms: C_21  and  O_28
   13  A    between atoms: C_21  and  C_36
   14  A    between atoms: C_23  and  C_32
   15  A    between atoms: C_23  and  C_43
   16  A    between atoms: P_25  and  O_28
   17  A    between atoms: C_26  and  C_45
   18  A    between atoms: N_30  and  C_37
   19  A    between atoms: C_32  and  C_37
   20  A    between atoms: C_34  and  C_47
   21  A    between atoms: C_45  and  C_47
                            x       y       z     vdW  Elec       q    Type
                         _______ _______ _______ _____ _____    ______ ____

>  <TORSDO>
F 21

$$$$
=
 OpenBabel11062421333D

 55 58  0  0  1  0  0  0  0  0999 V2000
  192.9950  174.0190  144.5480 C   0  0  0  0  0  2  0  0  0  0  0  0
  195.0870  173.3230  144.2160 C   0  0  1  0  0  3  0  0  0  0  0  0
  191.6960  176.0850  144.4160 N   0  0  0  0  0  0  0  0  0  0  0  0
  196.3280  175.5260  144.3030 O   0  0  0  0  0  0  0  0  0  0  0  0
  196.1220  174.3000  143.6040 C   0  0  2  0  0  3  0  0  0  0  0  0
  192.8450  175.5090  144.3390 C   0  0  0  0  0  0  0  0  0  0  0  0
  194.0540  176.3580  144.0810 C   0  0  0  0  0  2  0  0  0  0  0  0
  193.8400  173.4630  143.5850 O   0  0  0  0  0  0  0  0  0  0  0  0
  195.1890  175.9510  145.0150 C   0  0  0  0  0  2  0  0  0  0  0  0
  189.6730  175.1870  143.4120 C   0  0  0  0  0  1  0  0  0  0  0  0
  190.4680  175.3750  144.6940 C   0  0  2  0  0  3  0  0  0  0  0  0
  189.6630  176.0840  145.7960 C   0  0  1  0  0  3  0  0  0  0  0  0
  191.1410  176.6950  147.9490 C   0  0  0  0  0  3  0  0  0  0  0  0
  190.4730  176.4190  146.9800 C   0  0  0  0  0  0  0  0  0  0  0  0
  188.9390  177.3190  145.2730 C   0  0  0  0  0  2  0  0  0  0  0  0
  184.8410  177.3310  146.5800 C   0  0  0  0  0  3  0  0  0  0  0  0
  185.1300  177.6360  145.2490 C   0  0  0  0  0  3  0  0  0  0  0  0
  186.4590  177.6400  144.7960 C   0  0  0  0  0  0  0  0  0  0  0  0
  187.5000  177.3180  145.6930 C   0  0  0  0  0  0  0  0  0  0  0  0
  185.8760  177.0230  147.4690 C   0  0  0  0  0  3  0  0  0  0  0  0
  187.2000  177.0170  147.0260 C   0  0  0  0  0  3  0  0  0  0  0  0
  186.7500  177.9920  143.3690 C   0  0  2  0  0  3  0  0  0  0  0  0
  186.0670  179.1540  143.0080 O   0  0  0  0  0  1  0  0  0  0  0  0
  186.3830  176.9420  142.5260 O   0  0  0  0  0  0  0  0  0  0  0  0
  188.4620  178.0620  141.4020 O   0  0  0  0  0  1  0  0  0  0  0  0
  187.2750  177.1750  141.0990 P   0  0  0  0  0  0  0  0  0  0  0  0
  187.8330  175.6830  140.5170 O   0  0  0  0  0  1  0  0  0  0  0  0
  186.3100  177.9160  139.9180 O   0  0  0  0  0  0  0  0  0  0  0  0
  195.9530  174.5260  142.0850 C   0  0  1  0  0  3  0  0  0  0  0  0
  196.6020  175.8210  141.5660 C   0  0  1  0  0  3  0  0  0  0  0  0
  197.4560  175.6100  140.3270 C   0  0  0  0  0  1  0  0  0  0  0  0
  195.6280  176.7920  141.3200 O   0  0  0  0  0  0  0  0  0  0  0  0
  194.6890  176.1590  140.6490 O   0  0  0  0  0  1  0  0  0  0  0  0
  196.2780  173.2870  141.2410 C   0  0  0  0  0  2  0  0  0  0  0  0
  195.0490  172.7210  140.5510 C   0  0  0  0  0  2  0  0  0  0  0  0
  195.0380  173.1340  139.0930 C   0  0  0  0  0  2  0  0  0  0  0  0
  193.8730  172.4670  138.3830 C   0  0  0  0  0  2  0  0  0  0  0  0
  193.0920  174.6950  138.0350 O   0  0  0  0  0  1  0  0  0  0  0  0
  192.6700  173.3930  138.2720 C   0  0  2  0  0  3  0  0  0  0  0  0
  190.9370  170.8020  138.5170 S   0  0  0  0  0  0  0  0  0  0  0  0
  189.9910  171.9390  137.5320 C   0  0  0  0  0  0  0  0  0  0  0  0
  191.8860  173.3580  139.5840 C   0  0  1  0  0  3  0  0  0  0  0  0
  190.3500  173.3650  139.4410 C   0  0  2  0  0  3  0  0  0  0  0  0
  191.0820  172.0840  139.8210 C   0  0  1  0  0  0  0  0  0  0  0  0
  189.8120  173.1410  138.0590 C   0  0  0  0  0  0  0  0  0  0  0  0
  189.1300  174.1490  137.3830 O   0  0  0  0  0  1  0  0  0  0  0  0
  191.9530  170.6160  143.3020 C   0  0  0  0  0  1  0  0  0  0  0  0
  190.9350  171.6700  141.2480 C   0  0  0  0  0  0  0  0  0  0  0  0
  189.8560  171.8910  141.8700 O   0  0  0  0  0  0  0  0  0  0  0  0
  192.0170  171.0020  141.8970 N   0  0  0  0  0  2  0  0  0  0  0  0
  190.3210  172.1050  135.2080 F   0  0  0  0  0  0  0  0  0  0  0  0
  189.4950  171.5600  136.1750 C   0  0  0  0  0  2  0  0  0  0  0  0
  195.5740  171.8890  144.1010 C   0  0  0  0  0  2  0  0  0  0  0  0
  194.8690  170.5130  145.6740 C   0  0  0  0  0  1  0  0  0  0  0  0
  195.9040  171.3940  145.3620 O   0  0  0  0  0  0  0  0  0  0  0  0
  2 53  1  6  0  0  0
  3 11  1  0  0  0  0
  4  9  1  0  0  0  0
  5 29  1  6  0  0  0
  5  2  1  0  0  0  0
  5  4  1  0  0  0  0
  6  3  2  0  0  0  0
  6  1  1  0  0  0  0
  7  6  1  0  0  0  0
  7  9  1  0  0  0  0
  8  2  1  0  0  0  0
  8  1  1  0  0  0  0
 11 10  1  6  0  0  0
 11 12  1  0  0  0  0
 12 15  1  6  0  0  0
 12 14  1  0  0  0  0
 14 13  3  0  0  0  0
 15 19  1  0  0  0  0
 16 20  1  0  0  0  0
 17 16  2  0  0  0  0
 18 17  1  0  0  0  0
 18 19  2  0  0  0  0
 19 21  1  0  0  0  0
 21 20  2  0  0  0  0
 22 23  1  6  0  0  0
 22 18  1  0  0  0  0
 24 22  1  0  0  0  0
 26 25  1  0  0  0  0
 26 24  1  0  0  0  0
 27 26  1  0  0  0  0
 28 26  2  0  0  0  0
 29 34  1  6  0  0  0
 30 31  1  6  0  0  0
 30 29  1  0  0  0  0
 32 30  1  0  0  0  0
 33 32  1  0  0  0  0
 35 34  1  0  0  0  0
 36 35  1  0  0  0  0
 37 36  1  0  0  0  0
 39 38  1  1  0  0  0
 39 37  1  0  0  0  0
 40 44  1  0  0  0  0
 41 45  2  0  0  0  0
 41 40  1  0  0  0  0
 42 39  1  6  0  0  0
 42 44  1  0  0  0  0
 43 45  1  6  0  0  0
 43 42  1  0  0  0  0
 43 44  1  0  0  0  0
 44 48  1  1  0  0  0
 46 45  1  0  0  0  0
 48 49  2  0  0  0  0
 48 50  1  0  0  0  0
 50 47  1  0  0  0  0
 51 52  1  0  0  0  0
 52 41  1  0  0  0  0
 53 55  1  0  0  0  0
 55 54  1  0  0  0  0
M  END
>  <MODEL>
2

>  <REMARK>
 VINA RESULT:      -6.7      2.785      5.902
  Name = 
  21 active torsions:
  status: ('A' for Active; 'I' for Inactive)
    1  A    between atoms: C_1  and  O_6
    2  A    between atoms: C_1  and  C_7
    3  A    between atoms: C_2  and  C_14
    4  A    between atoms: C_2  and  O_16
    5  A    between atoms: C_7  and  C_38
    6  A    between atoms: C_7  and  C_49
    7  A    between atoms: C_12  and  C_34
    8  A    between atoms: C_12  and  C_49
    9  A    between atoms: C_13  and  C_32
   10  A    between atoms: C_15  and  C_24
   11  A    between atoms: C_17  and  C_46
   12  A    between atoms: C_21  and  O_28
   13  A    between atoms: C_21  and  C_36
   14  A    between atoms: C_23  and  C_32
   15  A    between atoms: C_23  and  C_43
   16  A    between atoms: P_25  and  O_28
   17  A    between atoms: C_26  and  C_45
   18  A    between atoms: N_30  and  C_37
   19  A    between atoms: C_32  and  C_37
   20  A    between atoms: C_34  and  C_47
   21  A    between atoms: C_45  and  C_47
                            x       y       z     vdW  Elec       q    Type
                         _______ _______ _______ _____ _____    ______ ____

>  <TORSDO>
F 21

$$$$
=
 OpenBabel11062421333D

 55 58  0  0  1  0  0  0  0  0999 V2000
  193.0320  174.0250  145.2230 C   0  0  0  0  0  2  0  0  0  0  0  0
  195.1970  173.4900  145.2030 C   0  0  1  0  0  3  0  0  0  0  0  0
  191.5510  175.7520  144.3310 N   0  0  0  0  0  0  0  0  0  0  0  0
  196.2140  175.7030  144.5150 O   0  0  0  0  0  0  0  0  0  0  0  0
  196.1670  174.2940  144.3010 C   0  0  2  0  0  3  0  0  0  0  0  0
  192.7520  175.3160  144.4880 C   0  0  0  0  0  0  0  0  0  0  0  0
  193.8870  176.1460  143.9660 C   0  0  0  0  0  2  0  0  0  0  0  0
  193.9800  173.2590  144.5400 O   0  0  0  0  0  0  0  0  0  0  0  0
  195.0010  176.2250  145.0040 C   0  0  0  0  0  2  0  0  0  0  0  0
  189.5000  174.6330  143.6600 C   0  0  0  0  0  1  0  0  0  0  0  0
  190.3820  175.0560  144.8230 C   0  0  2  0  0  3  0  0  0  0  0  0
  189.6340  175.9100  145.8600 C   0  0  1  0  0  3  0  0  0  0  0  0
  191.1930  176.7040  147.8930 C   0  0  0  0  0  3  0  0  0  0  0  0
  190.4890  176.3450  146.9780 C   0  0  0  0  0  0  0  0  0  0  0  0
  188.9340  177.1050  145.2220 C   0  0  0  0  0  2  0  0  0  0  0  0
  184.8730  177.3760  146.6150 C   0  0  0  0  0  3  0  0  0  0  0  0
  185.1560  177.6850  145.2830 C   0  0  0  0  0  3  0  0  0  0  0  0
  186.4730  177.6050  144.8020 C   0  0  0  0  0  0  0  0  0  0  0  0
  187.5060  177.1950  145.6720 C   0  0  0  0  0  0  0  0  0  0  0  0
  185.9010  176.9810  147.4760 C   0  0  0  0  0  3  0  0  0  0  0  0
  187.2130  176.8910  147.0060 C   0  0  0  0  0  3  0  0  0  0  0  0
  186.7600  177.9620  143.3760 C   0  0  2  0  0  3  0  0  0  0  0  0
  186.0480  179.1050  143.0110 O   0  0  0  0  0  1  0  0  0  0  0  0
  186.4230  176.9020  142.5330 O   0  0  0  0  0  0  0  0  0  0  0  0
  187.9150  175.7120  140.7450 O   0  0  0  0  0  1  0  0  0  0  0  0
  187.4180  177.0770  141.1670 P   0  0  0  0  0  0  0  0  0  0  0  0
  186.5330  177.7610  139.8930 O   0  0  0  0  0  0  0  0  0  0  0  0
  188.7440  178.0680  141.5300 O   0  0  0  0  0  1  0  0  0  0  0  0
  196.0640  173.9450  142.7990 C   0  0  1  0  0  3  0  0  0  0  0  0
  196.4030  175.1130  141.8570 C   0  0  1  0  0  3  0  0  0  0  0  0
  197.6410  174.8640  141.0110 C   0  0  0  0  0  1  0  0  0  0  0  0
  195.3120  175.4130  141.0380 O   0  0  0  0  0  0  0  0  0  0  0  0
  195.8210  175.5150  139.8280 O   0  0  0  0  0  1  0  0  0  0  0  0
  196.7560  172.6260  142.4280 C   0  0  0  0  0  2  0  0  0  0  0  0
  195.7660  171.5510  142.0150 C   0  0  0  0  0  2  0  0  0  0  0  0
  194.5330  172.1890  141.4080 C   0  0  0  0  0  2  0  0  0  0  0  0
  194.5870  172.0640  139.8950 C   0  0  0  0  0  2  0  0  0  0  0  0
  193.7440  170.0080  139.0240 O   0  0  0  0  0  1  0  0  0  0  0  0
  193.3840  171.3100  139.3450 C   0  0  2  0  0  3  0  0  0  0  0  0
  191.4110  173.6430  140.0140 S   0  0  0  0  0  0  0  0  0  0  0  0
  190.4420  172.1530  140.0350 C   0  0  0  0  0  0  0  0  0  0  0  0
  192.8870  172.0120  138.0800 C   0  0  1  0  0  3  0  0  0  0  0  0
  191.3690  171.9200  137.8230 C   0  0  2  0  0  3  0  0  0  0  0  0
  191.9870  173.2190  138.3240 C   0  0  1  0  0  0  0  0  0  0  0  0
  190.5350  171.3940  138.9530 C   0  0  0  0  0  0  0  0  0  0  0  0
  189.8690  170.1770  138.8460 O   0  0  0  0  0  1  0  0  0  0  0  0
  193.3760  176.2460  136.3390 C   0  0  0  0  0  1  0  0  0  0  0  0
  192.0810  174.3090  137.3080 C   0  0  0  0  0  0  0  0  0  0  0  0
  191.1680  174.4610  136.4460 O   0  0  0  0  0  0  0  0  0  0  0  0
  193.2020  175.1930  137.3330 N   0  0  0  0  0  2  0  0  0  0  0  0
  188.4710  172.5200  141.2680 F   0  0  0  0  0  0  0  0  0  0  0  0
  189.6340  171.7720  141.2320 C   0  0  0  0  0  2  0  0  0  0  0  0
  195.8250  172.1720  145.6210 C   0  0  0  0  0  2  0  0  0  0  0  0
  195.5800  170.0000  145.9140 C   0  0  0  0  0  1  0  0  0  0  0  0
  194.9120  171.1330  145.4490 O   0  0  0  0  0  0  0  0  0  0  0  0
  2 53  1  6  0  0  0
  3  6  2  0  0  0  0
  3 11  1  0  0  0  0
  4  9  1  0  0  0  0
  5 29  1  6  0  0  0
  5  4  1  0  0  0  0
  5  2  1  0  0  0  0
  6  1  1  0  0  0  0
  7  6  1  0  0  0  0
  7  9  1  0  0  0  0
  8  2  1  0  0  0  0
  8  1  1  0  0  0  0
 11 10  1  6  0  0  0
 11 12  1  0  0  0  0
 12 15  1  6  0  0  0
 12 14  1  0  0  0  0
 14 13  3  0  0  0  0
 15 19  1  0  0  0  0
 16 20  1  0  0  0  0
 17 16  2  0  0  0  0
 18 17  1  0  0  0  0
 18 19  2  0  0  0  0
 19 21  1  0  0  0  0
 21 20  2  0  0  0  0
 22 23  1  6  0  0  0
 22 18  1  0  0  0  0
 24 22  1  0  0  0  0
 25 26  1  0  0  0  0
 26 28  1  0  0  0  0
 26 24  1  0  0  0  0
 27 26  2  0  0  0  0
 29 34  1  6  0  0  0
 30 31  1  6  0  0  0
 30 29  1  0  0  0  0
 32 30  1  0  0  0  0
 33 32  1  0  0  0  0
 35 34  1  0  0  0  0
 36 35  1  0  0  0  0
 37 36  1  0  0  0  0
 39 38  1  6  0  0  0
 39 37  1  0  0  0  0
 40 41  1  0  0  0  0
 41 52  1  0  0  0  0
 42 44  1  0  0  0  0
 42 39  1  1  0  0  0
 43 42  1  0  0  0  0
 43 44  1  0  0  0  0
 43 45  1  1  0  0  0
 44 48  1  6  0  0  0
 44 40  1  0  0  0  0
 45 41  2  0  0  0  0
 46 45  1  0  0  0  0
 47 50  1  0  0  0  0
 48 50  1  0  0  0  0
 49 48  2  0  0  0  0
 52 51  1  0  0  0  0
 55 53  1  0  0  0  0
 55 54  1  0  0  0  0
M  END
>  <MODEL>
3

>  <REMARK>
 VINA RESULT:      -6.7      2.419      6.045
  Name = 
  21 active torsions:
  status: ('A' for Active; 'I' for Inactive)
    1  A    between atoms: C_1  and  O_6
    2  A    between atoms: C_1  and  C_7
    3  A    between atoms: C_2  and  C_14
    4  A    between atoms: C_2  and  O_16
    5  A    between atoms: C_7  and  C_38
    6  A    between atoms: C_7  and  C_49
    7  A    between atoms: C_12  and  C_34
    8  A    between atoms: C_12  and  C_49
    9  A    between atoms: C_13  and  C_32
   10  A    between atoms: C_15  and  C_24
   11  A    between atoms: C_17  and  C_46
   12  A    between atoms: C_21  and  O_28
   13  A    between atoms: C_21  and  C_36
   14  A    between atoms: C_23  and  C_32
   15  A    between atoms: C_23  and  C_43
   16  A    between atoms: P_25  and  O_28
   17  A    between atoms: C_26  and  C_45
   18  A    between atoms: N_30  and  C_37
   19  A    between atoms: C_32  and  C_37
   20  A    between atoms: C_34  and  C_47
   21  A    between atoms: C_45  and  C_47
                            x       y       z     vdW  Elec       q    Type
                         _______ _______ _______ _____ _____    ______ ____

>  <TORSDO>
F 21

$$$$
=
 OpenBabel11062421333D

 55 58  0  0  1  0  0  0  0  0999 V2000
  188.4040  174.6360  140.6100 C   0  0  0  0  0  2  0  0  0  0  0  0
  189.1660  172.6970  139.8160 C   0  0  1  0  0  3  0  0  0  0  0  0
  188.5010  175.9540  142.6650 N   0  0  0  0  0  0  0  0  0  0  0  0
  189.7460  171.5090  141.9740 O   0  0  0  0  0  0  0  0  0  0  0  0
  190.1710  171.8740  140.6630 C   0  0  2  0  0  3  0  0  0  0  0  0
  188.7900  174.8580  142.0540 C   0  0  0  0  0  0  0  0  0  0  0  0
  189.4840  173.7730  142.8230 C   0  0  0  0  0  2  0  0  0  0  0  0
  189.4600  174.0680  139.8930 O   0  0  0  0  0  0  0  0  0  0  0  0
  188.8320  172.4250  142.5310 C   0  0  0  0  0  2  0  0  0  0  0  0
  188.7890  178.1520  141.6690 C   0  0  0  0  0  1  0  0  0  0  0  0
  187.8040  177.0540  142.0370 C   0  0  2  0  0  3  0  0  0  0  0  0
  186.6570  177.5560  142.9310 C   0  0  1  0  0  3  0  0  0  0  0  0
  184.4140  178.0990  141.5640 C   0  0  0  0  0  3  0  0  0  0  0  0
  185.4250  177.8520  142.1790 C   0  0  0  0  0  0  0  0  0  0  0  0
  186.3670  176.6020  144.0830 C   0  0  0  0  0  2  0  0  0  0  0  0
  185.3580  178.7340  147.6800 C   0  0  0  0  0  3  0  0  0  0  0  0
  186.6820  178.3420  147.4720 C   0  0  0  0  0  3  0  0  0  0  0  0
  187.0380  177.6440  146.3070 C   0  0  0  0  0  0  0  0  0  0  0  0
  186.0520  177.3560  145.3400 C   0  0  0  0  0  0  0  0  0  0  0  0
  184.3810  178.4380  146.7250 C   0  0  0  0  0  3  0  0  0  0  0  0
  184.7280  177.7510  145.5590 C   0  0  0  0  0  3  0  0  0  0  0  0
  188.4600  177.2110  146.1130 C   0  0  2  0  0  3  0  0  0  0  0  0
  189.0840  178.0160  145.1590 O   0  0  0  0  0  1  0  0  0  0  0  0
  188.5100  175.8750  145.7150 O   0  0  0  0  0  0  0  0  0  0  0  0
  190.3910  176.1670  147.5070 O   0  0  0  0  0  1  0  0  0  0  0  0
  189.5520  175.1130  146.8190 P   0  0  0  0  0  0  0  0  0  0  0  0
  188.6470  174.2780  147.9850 O   0  0  0  0  0  1  0  0  0  0  0  0
  190.5700  174.0260  146.0110 O   0  0  0  0  0  0  0  0  0  0  0  0
  191.6070  172.4430  140.6620 C   0  0  1  0  0  3  0  0  0  0  0  0
  192.7090  171.3700  140.6190 C   0  0  1  0  0  3  0  0  0  0  0  0
  193.1730  170.9300  141.9980 C   0  0  0  0  0  1  0  0  0  0  0  0
  192.2880  170.2650  139.8770 O   0  0  0  0  0  0  0  0  0  0  0  0
  193.3670  169.8610  139.2400 O   0  0  0  0  0  1  0  0  0  0  0  0
  191.8130  173.5860  139.6590 C   0  0  0  0  0  2  0  0  0  0  0  0
  193.2790  173.8060  139.3270 C   0  0  0  0  0  2  0  0  0  0  0  0
  193.8180  174.9780  140.1220 C   0  0  0  0  0  2  0  0  0  0  0  0
  195.1290  174.5870  140.7810 C   0  0  0  0  0  2  0  0  0  0  0  0
  196.3870  176.4210  141.6480 O   0  0  0  0  0  1  0  0  0  0  0  0
  195.4410  175.4610  141.9880 C   0  0  2  0  0  3  0  0  0  0  0  0
  193.1670  174.2080  143.7300 S   0  0  0  0  0  0  0  0  0  0  0  0
  193.4210  175.8520  144.3560 C   0  0  0  0  0  0  0  0  0  0  0  0
  196.0040  174.5880  143.1100 C   0  0  1  0  0  3  0  0  0  0  0  0
  195.6910  175.0650  144.5430 C   0  0  2  0  0  3  0  0  0  0  0  0
  194.9560  173.8690  143.9540 C   0  0  1  0  0  0  0  0  0  0  0  0
  194.6710  176.1570  144.6710 C   0  0  0  0  0  0  0  0  0  0  0  0
  195.0280  177.4210  145.1310 O   0  0  0  0  0  1  0  0  0  0  0  0
  194.7990  170.5100  145.8850 C   0  0  0  0  0  1  0  0  0  0  0  0
  195.3670  172.5400  144.4990 C   0  0  0  0  0  0  0  0  0  0  0  0
  196.5000  172.0560  144.2150 O   0  0  0  0  0  0  0  0  0  0  0  0
  194.4760  171.8320  145.3600 N   0  0  0  0  0  2  0  0  0  0  0  0
  191.6970  176.9720  143.2110 F   0  0  0  0  0  0  0  0  0  0  0  0
  192.2940  176.8260  144.4500 C   0  0  0  0  0  2  0  0  0  0  0  0
  189.1860  172.2360  138.3690 C   0  0  0  0  0  2  0  0  0  0  0  0
  189.5790  173.3090  136.4820 C   0  0  0  0  0  1  0  0  0  0  0  0
  188.6760  173.2370  137.5430 O   0  0  0  0  0  0  0  0  0  0  0  0
  1  6  1  0  0  0  0
  2 53  1  6  0  0  0
  2  8  1  0  0  0  0
  2  5  1  0  0  0  0
  4  9  1  0  0  0  0
  5 29  1  1  0  0  0
  5  4  1  0  0  0  0
  6  3  2  0  0  0  0
  6  7  1  0  0  0  0
  8  1  1  0  0  0  0
  9  7  1  0  0  0  0
 11 10  1  1  0  0  0
 11  3  1  0  0  0  0
 11 12  1  0  0  0  0
 12 14  1  6  0  0  0
 12 15  1  0  0  0  0
 13 14  3  0  0  0  0
 15 19  1  0  0  0  0
 17 16  1  0  0  0  0
 18 17  2  0  0  0  0
 19 21  2  0  0  0  0
 19 18  1  0  0  0  0
 20 16  2  0  0  0  0
 21 20  1  0  0  0  0
 22 23  1  6  0  0  0
 22 18  1  0  0  0  0
 24 22  1  0  0  0  0
 24 26  1  0  0  0  0
 26 25  1  0  0  0  0
 26 27  1  0  0  0  0
 28 26  2  0  0  0  0
 29 34  1  6  0  0  0
 30 29  1  0  0  0  0
 30 31  1  1  0  0  0
 32 30  1  0  0  0  0
 33 32  1  0  0  0  0
 35 34  1  0  0  0  0
 35 36  1  0  0  0  0
 36 37  1  0  0  0  0
 37 39  1  0  0  0  0
 39 38  1  6  0  0  0
 40 44  1  0  0  0  0
 40 41  1  0  0  0  0
 41 52  1  0  0  0  0
 41 45  2  0  0  0  0
 42 39  1  6  0  0  0
 42 44  1  0  0  0  0
 42 43  1  0  0  0  0
 43 45  1  6  0  0  0
 44 48  1  1  0  0  0
 44 43  1  0  0  0  0
 45 46  1  0  0  0  0
 48 50  1  0  0  0  0
 49 48  2  0  0  0  0
 50 47  1  0  0  0  0
 51 52  1  0  0  0  0
 54 55  1  0  0  0  0
 55 53  1  0  0  0  0
M  END
>  <MODEL>
4

>  <REMARK>
 VINA RESULT:      -6.5      2.300      3.084
  Name = 
  21 active torsions:
  status: ('A' for Active; 'I' for Inactive)
    1  A    between atoms: C_1  and  O_6
    2  A    between atoms: C_1  and  C_7
    3  A    between atoms: C_2  and  C_14
    4  A    between atoms: C_2  and  O_16
    5  A    between atoms: C_7  and  C_38
    6  A    between atoms: C_7  and  C_49
    7  A    between atoms: C_12  and  C_34
    8  A    between atoms: C_12  and  C_49
    9  A    between atoms: C_13  and  C_32
   10  A    between atoms: C_15  and  C_24
   11  A    between atoms: C_17  and  C_46
   12  A    between atoms: C_21  and  O_28
   13  A    between atoms: C_21  and  C_36
   14  A    between atoms: C_23  and  C_32
   15  A    between atoms: C_23  and  C_43
   16  A    between atoms: P_25  and  O_28
   17  A    between atoms: C_26  and  C_45
   18  A    between atoms: N_30  and  C_37
   19  A    between atoms: C_32  and  C_37
   20  A    between atoms: C_34  and  C_47
   21  A    between atoms: C_45  and  C_47
                            x       y       z     vdW  Elec       q    Type
                         _______ _______ _______ _____ _____    ______ ____

>  <TORSDO>
F 21

$$$$
=
 OpenBabel11062421333D

 55 58  0  0  1  0  0  0  0  0999 V2000
  192.5050  174.1780  145.7440 C   0  0  0  0  0  2  0  0  0  0  0  0
  194.3410  172.9440  145.4650 C   0  0  1  0  0  3  0  0  0  0  0  0
  191.7470  176.4700  145.3630 N   0  0  0  0  0  0  0  0  0  0  0  0
  196.0880  174.7610  145.2310 O   0  0  0  0  0  0  0  0  0  0  0  0
  195.5510  173.5470  144.7070 C   0  0  2  0  0  3  0  0  0  0  0  0
  192.7130  175.6200  145.3400 C   0  0  0  0  0  0  0  0  0  0  0  0
  194.0790  176.1000  144.9470 C   0  0  0  0  0  2  0  0  0  0  0  0
  193.1350  173.3120  144.8470 O   0  0  0  0  0  0  0  0  0  0  0  0
  195.1270  175.5420  145.9020 C   0  0  0  0  0  2  0  0  0  0  0  0
  190.0930  174.6880  145.3820 C   0  0  0  0  0  1  0  0  0  0  0  0
  190.3980  176.1290  145.7590 C   0  0  2  0  0  3  0  0  0  0  0  0
  189.3870  177.1270  145.1700 C   0  0  1  0  0  3  0  0  0  0  0  0
  190.2480  178.2950  142.9140 C   0  0  0  0  0  3  0  0  0  0  0  0
  189.8620  177.7690  143.9320 C   0  0  0  0  0  0  0  0  0  0  0  0
  188.0160  176.4960  144.9570 C   0  0  0  0  0  2  0  0  0  0  0  0
  185.0880  178.4270  147.4480 C   0  0  0  0  0  3  0  0  0  0  0  0
  185.1520  178.7580  146.0930 C   0  0  0  0  0  3  0  0  0  0  0  0
  186.0980  178.1440  145.2580 C   0  0  0  0  0  0  0  0  0  0  0  0
  186.9750  177.1760  145.7940 C   0  0  0  0  0  0  0  0  0  0  0  0
  185.9660  177.4770  147.9780 C   0  0  0  0  0  3  0  0  0  0  0  0
  186.9060  176.8540  147.1540 C   0  0  0  0  0  3  0  0  0  0  0  0
  186.1660  178.5290  143.8110 C   0  0  2  0  0  3  0  0  0  0  0  0
  185.6380  179.8070  143.6260 O   0  0  0  0  0  1  0  0  0  0  0  0
  185.4660  177.6070  143.0310 O   0  0  0  0  0  0  0  0  0  0  0  0
  187.4020  178.5560  141.5500 O   0  0  0  0  0  1  0  0  0  0  0  0
  186.3630  177.4570  141.5960 P   0  0  0  0  0  0  0  0  0  0  0  0
  187.1470  175.9540  141.5590 O   0  0  0  0  0  1  0  0  0  0  0  0
  185.3430  177.5940  140.2490 O   0  0  0  0  0  0  0  0  0  0  0  0
  195.3620  173.6180  143.1760 C   0  0  1  0  0  3  0  0  0  0  0  0
  196.1170  174.7760  142.5000 C   0  0  1  0  0  3  0  0  0  0  0  0
  197.3790  174.3310  141.7800 C   0  0  0  0  0  1  0  0  0  0  0  0
  195.2760  175.4620  141.6220 O   0  0  0  0  0  0  0  0  0  0  0  0
  195.8580  176.6300  141.4470 O   0  0  0  0  0  1  0  0  0  0  0  0
  195.5420  172.2650  142.4730 C   0  0  0  0  0  2  0  0  0  0  0  0
  194.5700  172.0790  141.3210 C   0  0  0  0  0  2  0  0  0  0  0  0
  193.6310  170.9280  141.6170 C   0  0  0  0  0  2  0  0  0  0  0  0
  192.8110  170.6080  140.3800 C   0  0  0  0  0  2  0  0  0  0  0  0
  190.8150  169.6000  141.2140 O   0  0  0  0  0  1  0  0  0  0  0  0
  191.3170  170.7580  140.6350 C   0  0  2  0  0  3  0  0  0  0  0  0
  191.7010  173.6920  139.6220 S   0  0  0  0  0  0  0  0  0  0  0  0
  190.3660  173.7430  140.7940 C   0  0  0  0  0  0  0  0  0  0  0  0
  190.6020  170.9960  139.3040 C   0  0  1  0  0  3  0  0  0  0  0  0
  189.4710  172.0450  139.3370 C   0  0  2  0  0  3  0  0  0  0  0  0
  190.8120  172.3800  138.6980 C   0  0  1  0  0  0  0  0  0  0  0  0
  189.3800  172.8850  140.5760 C   0  0  0  0  0  0  0  0  0  0  0  0
  188.2900  172.7800  141.4360 O   0  0  0  0  0  1  0  0  0  0  0  0
  191.8370  171.7220  135.0170 C   0  0  0  0  0  1  0  0  0  0  0  0
  190.8070  172.4380  137.2060 C   0  0  0  0  0  0  0  0  0  0  0  0
  189.9270  173.1110  136.5950 O   0  0  0  0  0  0  0  0  0  0  0  0
  191.8170  171.7430  136.4750 N   0  0  0  0  0  2  0  0  0  0  0  0
  191.6590  175.2340  142.0760 F   0  0  0  0  0  0  0  0  0  0  0  0
  190.4060  174.6580  141.9730 C   0  0  0  0  0  2  0  0  0  0  0  0
  194.4550  171.4310  145.5330 C   0  0  0  0  0  2  0  0  0  0  0  0
  193.6700  169.4840  144.8570 C   0  0  0  0  0  1  0  0  0  0  0  0
  193.3560  170.8420  144.9100 O   0  0  0  0  0  0  0  0  0  0  0  0
  2 53  1  6  0  0  0
  3 11  1  0  0  0  0
  4  9  1  0  0  0  0
  5 29  1  6  0  0  0
  5  4  1  0  0  0  0
  5  2  1  0  0  0  0
  6  3  2  0  0  0  0
  6  1  1  0  0  0  0
  7  6  1  0  0  0  0
  7  9  1  0  0  0  0
  8  2  1  0  0  0  0
  8  1  1  0  0  0  0
 11 10  1  6  0  0  0
 12 14  1  6  0  0  0
 12 11  1  0  0  0  0
 13 14  3  0  0  0  0
 15 12  1  0  0  0  0
 15 19  1  0  0  0  0
 16 20  1  0  0  0  0
 17 16  2  0  0  0  0
 18 19  2  0  0  0  0
 18 17  1  0  0  0  0
 19 21  1  0  0  0  0
 21 20  2  0  0  0  0
 22 23  1  1  0  0  0
 22 18  1  0  0  0  0
 24 22  1  0  0  0  0
 25 26  1  0  0  0  0
 26 24  1  0  0  0  0
 27 26  1  0  0  0  0
 28 26  2  0  0  0  0
 29 34  1  6  0  0  0
 30 31  1  6  0  0  0
 30 29  1  0  0  0  0
 32 30  1  0  0  0  0
 33 32  1  0  0  0  0
 35 36  1  0  0  0  0
 35 34  1  0  0  0  0
 37 39  1  0  0  0  0
 37 36  1  0  0  0  0
 39 38  1  6  0  0  0
 40 41  1  0  0  0  0
 41 52  1  0  0  0  0
 42 43  1  0  0  0  0
 42 39  1  1  0  0  0
 43 45  1  1  0  0  0
 44 48  1  6  0  0  0
 44 42  1  0  0  0  0
 44 43  1  0  0  0  0
 44 40  1  0  0  0  0
 45 41  2  0  0  0  0
 45 46  1  0  0  0  0
 47 50  1  0  0  0  0
 49 48  2  0  0  0  0
 50 48  1  0  0  0  0
 52 51  1  0  0  0  0
 54 55  1  0  0  0  0
 55 53  1  0  0  0  0
M  END
>  <MODEL>
5

>  <REMARK>
 VINA RESULT:      -6.2      2.328      5.880
  Name = 
  21 active torsions:
  status: ('A' for Active; 'I' for Inactive)
    1  A    between atoms: C_1  and  O_6
    2  A    between atoms: C_1  and  C_7
    3  A    between atoms: C_2  and  C_14
    4  A    between atoms: C_2  and  O_16
    5  A    between atoms: C_7  and  C_38
    6  A    between atoms: C_7  and  C_49
    7  A    between atoms: C_12  and  C_34
    8  A    between atoms: C_12  and  C_49
    9  A    between atoms: C_13  and  C_32
   10  A    between atoms: C_15  and  C_24
   11  A    between atoms: C_17  and  C_46
   12  A    between atoms: C_21  and  O_28
   13  A    between atoms: C_21  and  C_36
   14  A    between atoms: C_23  and  C_32
   15  A    between atoms: C_23  and  C_43
   16  A    between atoms: P_25  and  O_28
   17  A    between atoms: C_26  and  C_45
   18  A    between atoms: N_30  and  C_37
   19  A    between atoms: C_32  and  C_37
   20  A    between atoms: C_34  and  C_47
   21  A    between atoms: C_45  and  C_47
                            x       y       z     vdW  Elec       q    Type
                         _______ _______ _______ _____ _____    ______ ____

>  <TORSDO>
F 21

$$$$
=
 OpenBabel11062421333D

 55 58  0  0  1  0  0  0  0  0999 V2000
  193.2330  175.1900  144.6950 C   0  0  0  0  0  2  0  0  0  0  0  0
  195.2970  174.9670  143.8800 C   0  0  1  0  0  3  0  0  0  0  0  0
  190.9190  174.9370  143.9510 N   0  0  0  0  0  0  0  0  0  0  0  0
  194.8230  175.0310  141.3950 O   0  0  0  0  0  0  0  0  0  0  0  0
  195.4920  174.3650  142.4650 C   0  0  2  0  0  3  0  0  0  0  0  0
  192.1710  174.9250  143.6520 C   0  0  0  0  0  0  0  0  0  0  0  0
  192.5620  174.6890  142.2230 C   0  0  0  0  0  2  0  0  0  0  0  0
  194.2870  174.2810  144.5750 O   0  0  0  0  0  0  0  0  0  0  0  0
  193.6420  175.6810  141.8040 C   0  0  0  0  0  2  0  0  0  0  0  0
  189.6890  173.9640  145.8090 C   0  0  0  0  0  1  0  0  0  0  0  0
  190.4240  175.1880  145.2860 C   0  0  2  0  0  3  0  0  0  0  0  0
  189.5600  176.4600  145.3180 C   0  0  1  0  0  3  0  0  0  0  0  0
  190.7100  178.5420  144.0780 C   0  0  0  0  0  3  0  0  0  0  0  0
  190.1900  177.6050  144.6370 C   0  0  0  0  0  0  0  0  0  0  0  0
  188.1580  176.2160  144.7740 C   0  0  0  0  0  2  0  0  0  0  0  0
  185.2960  178.5260  147.0050 C   0  0  0  0  0  3  0  0  0  0  0  0
  185.4510  178.7720  145.6390 C   0  0  0  0  0  3  0  0  0  0  0  0
  186.3780  178.0330  144.8880 C   0  0  0  0  0  0  0  0  0  0  0  0
  187.1420  177.0280  145.5190 C   0  0  0  0  0  0  0  0  0  0  0  0
  186.0620  177.5360  147.6290 C   0  0  0  0  0  3  0  0  0  0  0  0
  186.9820  176.7910  146.8890 C   0  0  0  0  0  3  0  0  0  0  0  0
  186.5460  178.3280  143.4280 C   0  0  2  0  0  3  0  0  0  0  0  0
  185.8230  179.4680  143.0790 O   0  0  0  0  0  1  0  0  0  0  0  0
  186.1220  177.2420  142.6620 O   0  0  0  0  0  0  0  0  0  0  0  0
  187.5720  175.8680  140.9750 O   0  0  0  0  0  1  0  0  0  0  0  0
  187.0860  177.2710  141.2630 P   0  0  0  0  0  0  0  0  0  0  0  0
  186.1730  177.8220  139.9450 O   0  0  0  0  0  0  0  0  0  0  0  0
  188.4200  178.2900  141.4920 O   0  0  0  0  0  1  0  0  0  0  0  0
  195.2960  172.8340  142.3990 C   0  0  1  0  0  3  0  0  0  0  0  0
  196.5520  172.0570  141.9690 C   0  0  1  0  0  3  0  0  0  0  0  0
  197.4760  172.8590  141.0680 C   0  0  0  0  0  1  0  0  0  0  0  0
  197.2500  171.5970  143.0880 O   0  0  0  0  0  0  0  0  0  0  0  0
  197.9410  170.5660  142.6490 O   0  0  0  0  0  1  0  0  0  0  0  0
  194.5980  172.2520  143.6360 C   0  0  0  0  0  2  0  0  0  0  0  0
  193.9490  170.9080  143.3540 C   0  0  0  0  0  2  0  0  0  0  0  0
  192.9620  171.0410  142.2120 C   0  0  0  0  0  2  0  0  0  0  0  0
  193.3830  170.1350  141.0670 C   0  0  0  0  0  2  0  0  0  0  0  0
  194.4210  171.3990  139.3290 O   0  0  0  0  0  1  0  0  0  0  0  0
  193.2210  170.8160  139.7150 C   0  0  2  0  0  3  0  0  0  0  0  0
  190.4360  169.8160  138.7050 S   0  0  0  0  0  0  0  0  0  0  0  0
  191.3410  170.3080  137.2560 C   0  0  0  0  0  0  0  0  0  0  0  0
  192.1540  171.9060  139.8260 C   0  0  1  0  0  3  0  0  0  0  0  0
  191.5360  172.3680  138.4900 C   0  0  2  0  0  3  0  0  0  0  0  0
  190.7460  171.4710  139.4340 C   0  0  1  0  0  0  0  0  0  0  0  0
  191.8520  171.5300  137.2880 C   0  0  0  0  0  0  0  0  0  0  0  0
  192.6230  172.0350  136.2440 O   0  0  0  0  0  1  0  0  0  0  0  0
  188.5640  172.7580  142.3700 C   0  0  0  0  0  1  0  0  0  0  0  0
  189.6340  172.1460  140.1680 C   0  0  0  0  0  0  0  0  0  0  0  0
  188.7260  172.7560  139.5340 O   0  0  0  0  0  0  0  0  0  0  0  0
  189.5960  172.0790  141.5930 N   0  0  0  0  0  2  0  0  0  0  0  0
  190.8160  169.7810  135.0230 F   0  0  0  0  0  0  0  0  0  0  0  0
  191.5520  169.3640  136.1180 C   0  0  0  0  0  2  0  0  0  0  0  0
  196.5980  174.9190  144.6620 C   0  0  0  0  0  2  0  0  0  0  0  0
  197.1910  173.3900  146.1370 C   0  0  0  0  0  1  0  0  0  0  0  0
  196.3540  174.4930  145.9670 O   0  0  0  0  0  0  0  0  0  0  0  0
  2  8  1  0  0  0  0
  2 53  1  1  0  0  0
  3 11  1  0  0  0  0
  4  9  1  0  0  0  0
  4  5  1  0  0  0  0
  5 29  1  1  0  0  0
  5  2  1  0  0  0  0
  6  3  2  0  0  0  0
  6  1  1  0  0  0  0
  7  6  1  0  0  0  0
  8  1  1  0  0  0  0
  9  7  1  0  0  0  0
 11 12  1  0  0  0  0
 11 10  1  6  0  0  0
 12 14  1  6  0  0  0
 13 14  3  0  0  0  0
 15 12  1  0  0  0  0
 15 19  1  0  0  0  0
 16 20  1  0  0  0  0
 17 16  2  0  0  0  0
 18 19  2  0  0  0  0
 18 17  1  0  0  0  0
 19 21  1  0  0  0  0
 21 20  2  0  0  0  0
 22 23  1  6  0  0  0
 22 18  1  0  0  0  0
 24 22  1  0  0  0  0
 25 26  1  0  0  0  0
 26 28  1  0  0  0  0
 26 24  1  0  0  0  0
 27 26  2  0  0  0  0
 29 34  1  1  0  0  0
 30 31  1  1  0  0  0
 30 29  1  0  0  0  0
 30 32  1  0  0  0  0
 33 32  1  0  0  0  0
 35 34  1  0  0  0  0
 36 35  1  0  0  0  0
 37 36  1  0  0  0  0
 39 38  1  1  0  0  0
 39 37  1  0  0  0  0
 40 44  1  0  0  0  0
 41 45  2  0  0  0  0
 41 40  1  0  0  0  0
 42 39  1  6  0  0  0
 43 45  1  6  0  0  0
 43 44  1  0  0  0  0
 43 42  1  0  0  0  0
 44 42  1  0  0  0  0
 44 48  1  1  0  0  0
 46 45  1  0  0  0  0
 48 50  1  0  0  0  0
 49 48  2  0  0  0  0
 50 47  1  0  0  0  0
 51 52  1  0  0  0  0
 52 41  1  0  0  0  0
 53 55  1  0  0  0  0
 55 54  1  0  0  0  0
M  END
>  <MODEL>
6

>  <REMARK>
 VINA RESULT:      -6.1      2.805      6.288
  Name = 
  21 active torsions:
  status: ('A' for Active; 'I' for Inactive)
    1  A    between atoms: C_1  and  O_6
    2  A    between atoms: C_1  and  C_7
    3  A    between atoms: C_2  and  C_14
    4  A    between atoms: C_2  and  O_16
    5  A    between atoms: C_7  and  C_38
    6  A    between atoms: C_7  and  C_49
    7  A    between atoms: C_12  and  C_34
    8  A    between atoms: C_12  and  C_49
    9  A    between atoms: C_13  and  C_32
   10  A    between atoms: C_15  and  C_24
   11  A    between atoms: C_17  and  C_46
   12  A    between atoms: C_21  and  O_28
   13  A    between atoms: C_21  and  C_36
   14  A    between atoms: C_23  and  C_32
   15  A    between atoms: C_23  and  C_43
   16  A    between atoms: P_25  and  O_28
   17  A    between atoms: C_26  and  C_45
   18  A    between atoms: N_30  and  C_37
   19  A    between atoms: C_32  and  C_37
   20  A    between atoms: C_34  and  C_47
   21  A    between atoms: C_45  and  C_47
                            x       y       z     vdW  Elec       q    Type
                         _______ _______ _______ _____ _____    ______ ____

>  <TORSDO>
F 21

$$$$
=
 OpenBabel11062421333D

 55 58  0  0  1  0  0  0  0  0999 V2000
  189.9570  174.0320  141.3670 C   0  0  0  0  0  2  0  0  0  0  0  0
  190.2850  172.2190  140.1110 C   0  0  1  0  0  3  0  0  0  0  0  0
  190.2460  174.7450  143.6870 N   0  0  0  0  0  0  0  0  0  0  0  0
  190.4450  170.4380  141.9010 O   0  0  0  0  0  0  0  0  0  0  0  0
  191.0180  170.9970  140.7200 C   0  0  2  0  0  3  0  0  0  0  0  0
  190.3030  173.7950  142.8200 C   0  0  0  0  0  0  0  0  0  0  0  0
  190.6760  172.4210  143.2900 C   0  0  0  0  0  2  0  0  0  0  0  0
  190.8880  173.4170  140.5270 O   0  0  0  0  0  0  0  0  0  0  0  0
  189.7430  171.3840  142.6730 C   0  0  0  0  0  2  0  0  0  0  0  0
  190.9920  177.0580  143.7050 C   0  0  0  0  0  1  0  0  0  0  0  0
  189.8640  176.1000  143.3570 C   0  0  2  0  0  3  0  0  0  0  0  0
  188.5340  176.4740  144.0320 C   0  0  1  0  0  3  0  0  0  0  0  0
  188.5120  175.9760  146.6680 C   0  0  0  0  0  3  0  0  0  0  0  0
  188.5240  176.2010  145.4800 C   0  0  0  0  0  0  0  0  0  0  0  0
  188.1350  177.9180  143.7550 C   0  0  0  0  0  2  0  0  0  0  0  0
  185.3660  178.0610  140.4660 C   0  0  0  0  0  3  0  0  0  0  0  0
  184.9990  178.6270  141.6890 C   0  0  0  0  0  3  0  0  0  0  0  0
  185.8820  178.5930  142.7790 C   0  0  0  0  0  0  0  0  0  0  0  0
  187.1530  177.9980  142.6250 C   0  0  0  0  0  0  0  0  0  0  0  0
  186.6210  177.4630  140.3210 C   0  0  0  0  0  3  0  0  0  0  0  0
  187.5110  177.4310  141.3970 C   0  0  0  0  0  3  0  0  0  0  0  0
  185.4600  179.1850  144.0890 C   0  0  2  0  0  3  0  0  0  0  0  0
  185.5680  180.5760  144.0480 O   0  0  0  0  0  1  0  0  0  0  0  0
  186.2450  178.6770  145.1250 O   0  0  0  0  0  0  0  0  0  0  0  0
  183.7840  178.7610  146.0080 O   0  0  0  0  0  0  0  0  0  0  0  0
  185.1460  178.1830  146.3230 P   0  0  0  0  0  0  0  0  0  0  0  0
  185.0370  176.4910  146.3420 O   0  0  0  0  0  1  0  0  0  0  0  0
  185.6500  178.7330  147.8450 O   0  0  0  0  0  1  0  0  0  0  0  0
  192.5450  171.1830  140.8560 C   0  0  1  0  0  3  0  0  0  0  0  0
  193.3520  169.8790  140.7380 C   0  0  1  0  0  3  0  0  0  0  0  0
  193.9540  169.6670  139.3590 C   0  0  0  0  0  1  0  0  0  0  0  0
  194.3500  169.8300  141.7130 O   0  0  0  0  0  0  0  0  0  0  0  0
  193.7070  169.5910  142.8370 O   0  0  0  0  0  1  0  0  0  0  0  0
  193.1000  172.3360  140.0080 C   0  0  0  0  0  2  0  0  0  0  0  0
  194.4100  172.8770  140.5540 C   0  0  0  0  0  2  0  0  0  0  0  0
  194.2230  174.3060  141.0230 C   0  0  0  0  0  2  0  0  0  0  0  0
  193.6390  174.3100  142.4250 C   0  0  0  0  0  2  0  0  0  0  0  0
  194.6740  176.4590  142.4940 O   0  0  0  0  0  1  0  0  0  0  0  0
  194.2490  175.4030  143.2910 C   0  0  2  0  0  3  0  0  0  0  0  0
  193.3730  173.7180  145.7750 S   0  0  0  0  0  0  0  0  0  0  0  0
  193.3570  175.4170  146.2990 C   0  0  0  0  0  0  0  0  0  0  0  0
  195.4540  174.8350  144.0430 C   0  0  1  0  0  3  0  0  0  0  0  0
  195.6270  175.3340  145.4930 C   0  0  2  0  0  3  0  0  0  0  0  0
  195.1090  173.9280  145.2200 C   0  0  1  0  0  0  0  0  0  0  0  0
  194.4730  176.0950  146.0750 C   0  0  0  0  0  0  0  0  0  0  0  0
  194.5910  177.4460  146.3900 O   0  0  0  0  0  1  0  0  0  0  0  0
  196.7180  170.4000  145.2470 C   0  0  0  0  0  1  0  0  0  0  0  0
  196.0830  172.8300  145.4940 C   0  0  0  0  0  0  0  0  0  0  0  0
  197.1520  173.0660  146.1270 O   0  0  0  0  0  0  0  0  0  0  0  0
  195.7860  171.5050  145.0520 N   0  0  0  0  0  2  0  0  0  0  0  0
  191.6090  175.1940  147.8580 F   0  0  0  0  0  0  0  0  0  0  0  0
  192.1320  176.0320  146.8900 C   0  0  0  0  0  2  0  0  0  0  0  0
  190.2780  172.1340  138.5950 C   0  0  0  0  0  2  0  0  0  0  0  0
  189.0060  173.6450  137.6120 C   0  0  0  0  0  1  0  0  0  0  0  0
  190.3120  173.4150  138.0450 O   0  0  0  0  0  0  0  0  0  0  0  0
  1  6  1  0  0  0  0
  2 53  1  6  0  0  0
  2  8  1  0  0  0  0
  2  5  1  0  0  0  0
  4  9  1  0  0  0  0
  5 29  1  1  0  0  0
  5  4  1  0  0  0  0
  6  7  1  0  0  0  0
  6  3  2  0  0  0  0
  8  1  1  0  0  0  0
  9  7  1  0  0  0  0
 11  3  1  0  0  0  0
 11 10  1  1  0  0  0
 11 12  1  0  0  0  0
 12 15  1  1  0  0  0
 12 14  1  0  0  0  0
 14 13  3  0  0  0  0
 16 17  1  0  0  0  0
 17 18  2  0  0  0  0
 18 22  1  0  0  0  0
 19 18  1  0  0  0  0
 19 15  1  0  0  0  0
 20 16  2  0  0  0  0
 20 21  1  0  0  0  0
 21 19  2  0  0  0  0
 22 23  1  6  0  0  0
 22 24  1  0  0  0  0
 24 26  1  0  0  0  0
 25 26  2  0  0  0  0
 26 27  1  0  0  0  0
 26 28  1  0  0  0  0
 29 34  1  6  0  0  0
 30 31  1  6  0  0  0
 30 29  1  0  0  0  0
 30 32  1  0  0  0  0
 32 33  1  0  0  0  0
 34 35  1  0  0  0  0
 35 36  1  0  0  0  0
 36 37  1  0  0  0  0
 37 39  1  0  0  0  0
 39 38  1  6  0  0  0
 40 41  1  0  0  0  0
 41 52  1  0  0  0  0
 42 39  1  6  0  0  0
 42 44  1  0  0  0  0
 42 43  1  0  0  0  0
 43 45  1  6  0  0  0
 44 43  1  0  0  0  0
 44 48  1  1  0  0  0
 44 40  1  0  0  0  0
 45 41  2  0  0  0  0
 45 46  1  0  0  0  0
 48 49  2  0  0  0  0
 50 47  1  0  0  0  0
 50 48  1  0  0  0  0
 52 51  1  0  0  0  0
 54 55  1  0  0  0  0
 55 53  1  0  0  0  0
M  END
>  <MODEL>
7

>  <REMARK>
 VINA RESULT:      -6.1      1.892      2.757
  Name = 
  21 active torsions:
  status: ('A' for Active; 'I' for Inactive)
    1  A    between atoms: C_1  and  O_6
    2  A    between atoms: C_1  and  C_7
    3  A    between atoms: C_2  and  C_14
    4  A    between atoms: C_2  and  O_16
    5  A    between atoms: C_7  and  C_38
    6  A    between atoms: C_7  and  C_49
    7  A    between atoms: C_12  and  C_34
    8  A    between atoms: C_12  and  C_49
    9  A    between atoms: C_13  and  C_32
   10  A    between atoms: C_15  and  C_24
   11  A    between atoms: C_17  and  C_46
   12  A    between atoms: C_21  and  O_28
   13  A    between atoms: C_21  and  C_36
   14  A    between atoms: C_23  and  C_32
   15  A    between atoms: C_23  and  C_43
   16  A    between atoms: P_25  and  O_28
   17  A    between atoms: C_26  and  C_45
   18  A    between atoms: N_30  and  C_37
   19  A    between atoms: C_32  and  C_37
   20  A    between atoms: C_34  and  C_47
   21  A    between atoms: C_45  and  C_47
                            x       y       z     vdW  Elec       q    Type
                         _______ _______ _______ _____ _____    ______ ____

>  <TORSDO>
F 21

$$$$
=
 OpenBabel11062421333D

 55 58  0  0  1  0  0  0  0  0999 V2000
  190.5880  174.1230  141.0550 C   0  0  0  0  0  2  0  0  0  0  0  0
  191.4220  172.1690  140.3800 C   0  0  1  0  0  3  0  0  0  0  0  0
  189.7000  175.1460  143.0890 N   0  0  0  0  0  0  0  0  0  0  0  0
  190.5780  170.6460  142.2170 O   0  0  0  0  0  0  0  0  0  0  0  0
  191.6920  171.0580  141.4280 C   0  0  2  0  0  3  0  0  0  0  0  0
  190.1430  174.0910  142.4990 C   0  0  0  0  0  0  0  0  0  0  0  0
  190.1660  172.8020  143.2650 C   0  0  0  0  0  2  0  0  0  0  0  0
  191.7870  173.4270  140.8870 O   0  0  0  0  0  0  0  0  0  0  0  0
  189.6260  171.6680  142.4000 C   0  0  0  0  0  2  0  0  0  0  0  0
  190.6800  177.3670  142.9610 C   0  0  0  0  0  1  0  0  0  0  0  0
  189.5980  176.4350  142.4400 C   0  0  2  0  0  3  0  0  0  0  0  0
  188.1830  177.0170  142.5990 C   0  0  1  0  0  3  0  0  0  0  0  0
  186.8850  177.2860  140.2670 C   0  0  0  0  0  3  0  0  0  0  0  0
  187.4700  177.1630  141.3180 C   0  0  0  0  0  0  0  0  0  0  0  0
  187.3440  176.2230  143.5940 C   0  0  0  0  0  2  0  0  0  0  0  0
  185.7380  178.7700  146.6660 C   0  0  0  0  0  3  0  0  0  0  0  0
  186.8450  177.9700  146.9570 C   0  0  0  0  0  3  0  0  0  0  0  0
  187.3890  177.1290  145.9730 C   0  0  0  0  0  0  0  0  0  0  0  0
  186.8180  177.1100  144.6820 C   0  0  0  0  0  0  0  0  0  0  0  0
  185.1690  178.7410  145.3900 C   0  0  0  0  0  3  0  0  0  0  0  0
  185.7070  177.9130  144.4020 C   0  0  0  0  0  3  0  0  0  0  0  0
  188.5620  176.2620  146.3110 C   0  0  2  0  0  3  0  0  0  0  0  0
  188.2090  175.3270  147.2850 O   0  0  0  0  0  1  0  0  0  0  0  0
  189.6270  177.0410  146.7640 O   0  0  0  0  0  0  0  0  0  0  0  0
  191.2310  175.6770  148.3160 O   0  0  0  0  0  1  0  0  0  0  0  0
  190.9530  175.9840  146.8610 P   0  0  0  0  0  0  0  0  0  0  0  0
  190.5990  174.5380  146.0480 O   0  0  0  0  0  0  0  0  0  0  0  0
  192.3250  176.6980  146.1670 O   0  0  0  0  0  1  0  0  0  0  0  0
  192.9490  171.3010  142.2920 C   0  0  1  0  0  3  0  0  0  0  0  0
  192.8560  170.7240  143.7150 C   0  0  1  0  0  3  0  0  0  0  0  0
  193.7650  169.5260  143.9380 C   0  0  0  0  0  1  0  0  0  0  0  0
  193.1220  171.7140  144.6630 O   0  0  0  0  0  0  0  0  0  0  0  0
  194.3130  171.4110  145.1360 O   0  0  0  0  0  1  0  0  0  0  0  0
  194.2620  170.9670  141.5710 C   0  0  0  0  0  2  0  0  0  0  0  0
  195.3200  172.0380  141.7710 C   0  0  0  0  0  2  0  0  0  0  0  0
  196.5290  171.7390  140.9070 C   0  0  0  0  0  2  0  0  0  0  0  0
  196.1090  171.6710  139.4490 C   0  0  0  0  0  2  0  0  0  0  0  0
  197.9410  171.9590  137.9480 O   0  0  0  0  0  1  0  0  0  0  0  0
  196.9080  172.6350  138.5830 C   0  0  2  0  0  3  0  0  0  0  0  0
  194.8690  174.9520  139.0890 S   0  0  0  0  0  0  0  0  0  0  0  0
  195.6140  175.2840  137.5090 C   0  0  0  0  0  0  0  0  0  0  0  0
  197.5040  173.7300  139.4680 C   0  0  1  0  0  3  0  0  0  0  0  0
  197.6380  175.1180  138.8070 C   0  0  2  0  0  3  0  0  0  0  0  0
  196.5430  174.8570  139.8340 C   0  0  1  0  0  0  0  0  0  0  0  0
  196.9380  175.2980  137.4930 C   0  0  0  0  0  0  0  0  0  0  0  0
  197.6600  175.4990  136.3190 O   0  0  0  0  0  1  0  0  0  0  0  0
  195.7870  176.4880  143.2700 C   0  0  0  0  0  1  0  0  0  0  0  0
  196.7650  175.4850  141.1710 C   0  0  0  0  0  0  0  0  0  0  0  0
  197.9380  175.6540  141.6120 O   0  0  0  0  0  0  0  0  0  0  0  0
  195.6390  175.9130  141.9380 N   0  0  0  0  0  2  0  0  0  0  0  0
  193.6440  176.1930  136.5970 F   0  0  0  0  0  0  0  0  0  0  0  0
  194.7800  175.4680  136.2840 C   0  0  0  0  0  2  0  0  0  0  0  0
  192.1770  171.8820  139.0940 C   0  0  0  0  0  2  0  0  0  0  0  0
  190.1510  171.6790  138.2440 C   0  0  0  0  0  1  0  0  0  0  0  0
  191.4000  172.2470  137.9950 O   0  0  0  0  0  0  0  0  0  0  0  0
  1  6  1  0  0  0  0
  2 53  1  6  0  0  0
  2  8  1  0  0  0  0
  2  5  1  0  0  0  0
  4  9  1  0  0  0  0
  5  4  1  0  0  0  0
  5 29  1  1  0  0  0
  6  3  2  0  0  0  0
  6  7  1  0  0  0  0
  8  1  1  0  0  0  0
  9  7  1  0  0  0  0
 11 12  1  0  0  0  0
 11 10  1  1  0  0  0
 11  3  1  0  0  0  0
 12 14  1  6  0  0  0
 12 15  1  0  0  0  0
 13 14  3  0  0  0  0
 15 19  1  0  0  0  0
 16 17  1  0  0  0  0
 18 22  1  0  0  0  0
 18 17  2  0  0  0  0
 19 18  1  0  0  0  0
 20 16  2  0  0  0  0
 21 19  2  0  0  0  0
 21 20  1  0  0  0  0
 22 24  1  0  0  0  0
 22 23  1  1  0  0  0
 24 26  1  0  0  0  0
 26 25  1  0  0  0  0
 27 26  2  0  0  0  0
 28 26  1  0  0  0  0
 29 34  1  6  0  0  0
 29 30  1  0  0  0  0
 30 31  1  6  0  0  0
 30 32  1  0  0  0  0
 32 33  1  0  0  0  0
 34 35  1  0  0  0  0
 36 35  1  0  0  0  0
 37 36  1  0  0  0  0
 39 38  1  1  0  0  0
 39 37  1  0  0  0  0
 40 44  1  0  0  0  0
 41 40  1  0  0  0  0
 42 39  1  6  0  0  0
 42 44  1  0  0  0  0
 43 45  1  6  0  0  0
 43 42  1  0  0  0  0
 43 44  1  0  0  0  0
 44 48  1  1  0  0  0
 45 41  2  0  0  0  0
 46 45  1  0  0  0  0
 48 49  2  0  0  0  0
 48 50  1  0  0  0  0
 50 47  1  0  0  0  0
 52 51  1  0  0  0  0
 52 41  1  0  0  0  0
 55 54  1  0  0  0  0
 55 53  1  0  0  0  0
M  END
>  <MODEL>
8

>  <REMARK>
 VINA RESULT:      -6.0      3.529      5.132
  Name = 
  21 active torsions:
  status: ('A' for Active; 'I' for Inactive)
    1  A    between atoms: C_1  and  O_6
    2  A    between atoms: C_1  and  C_7
    3  A    between atoms: C_2  and  C_14
    4  A    between atoms: C_2  and  O_16
    5  A    between atoms: C_7  and  C_38
    6  A    between atoms: C_7  and  C_49
    7  A    between atoms: C_12  and  C_34
    8  A    between atoms: C_12  and  C_49
    9  A    between atoms: C_13  and  C_32
   10  A    between atoms: C_15  and  C_24
   11  A    between atoms: C_17  and  C_46
   12  A    between atoms: C_21  and  O_28
   13  A    between atoms: C_21  and  C_36
   14  A    between atoms: C_23  and  C_32
   15  A    between atoms: C_23  and  C_43
   16  A    between atoms: P_25  and  O_28
   17  A    between atoms: C_26  and  C_45
   18  A    between atoms: N_30  and  C_37
   19  A    between atoms: C_32  and  C_37
   20  A    between atoms: C_34  and  C_47
   21  A    between atoms: C_45  and  C_47
                            x       y       z     vdW  Elec       q    Type
                         _______ _______ _______ _____ _____    ______ ____

>  <TORSDO>
F 21

$$$$
=
 OpenBabel11062421333D

 55 58  0  0  1  0  0  0  0  0999 V2000
  190.6960  173.9530  141.9180 C   0  0  0  0  0  2  0  0  0  0  0  0
  191.3980  172.4900  140.3890 C   0  0  1  0  0  3  0  0  0  0  0  0
  190.0680  173.9940  144.2790 N   0  0  0  0  0  0  0  0  0  0  0  0
  190.7260  170.3120  141.4880 O   0  0  0  0  0  0  0  0  0  0  0  0
  191.7550  171.0470  140.8280 C   0  0  2  0  0  3  0  0  0  0  0  0
  190.4150  173.3000  143.2520 C   0  0  0  0  0  0  0  0  0  0  0  0
  190.4900  171.8080  143.3900 C   0  0  0  0  0  2  0  0  0  0  0  0
  191.8500  173.4220  141.3370 O   0  0  0  0  0  0  0  0  0  0  0  0
  189.8270  171.1360  142.1930 C   0  0  0  0  0  2  0  0  0  0  0  0
  191.2600  176.0920  144.5730 C   0  0  0  0  0  1  0  0  0  0  0  0
  189.9280  175.4330  144.2550 C   0  0  2  0  0  3  0  0  0  0  0  0
  188.7980  175.8890  145.1940 C   0  0  1  0  0  3  0  0  0  0  0  0
  188.9490  174.7910  147.6370 C   0  0  0  0  0  3  0  0  0  0  0  0
  188.8830  175.2850  146.5360 C   0  0  0  0  0  0  0  0  0  0  0  0
  188.7100  177.4070  145.2920 C   0  0  0  0  0  2  0  0  0  0  0  0
  184.8280  178.6690  146.6500 C   0  0  0  0  0  3  0  0  0  0  0  0
  185.1120  178.6980  145.2830 C   0  0  0  0  0  3  0  0  0  0  0  0
  186.3710  178.2920  144.8130 C   0  0  0  0  0  0  0  0  0  0  0  0
  187.3430  177.8390  145.7310 C   0  0  0  0  0  0  0  0  0  0  0  0
  185.7970  178.2300  147.5570 C   0  0  0  0  0  3  0  0  0  0  0  0
  187.0510  177.8170  147.0990 C   0  0  0  0  0  3  0  0  0  0  0  0
  186.6640  178.3520  143.3450 C   0  0  2  0  0  3  0  0  0  0  0  0
  185.9320  179.3780  142.7470 O   0  0  0  0  0  1  0  0  0  0  0  0
  186.3580  177.1330  142.7390 O   0  0  0  0  0  0  0  0  0  0  0  0
  187.8100  175.5470  141.2500 O   0  0  0  0  0  1  0  0  0  0  0  0
  187.4250  177.0000  141.4240 P   0  0  0  0  0  0  0  0  0  0  0  0
  186.6680  177.5460  140.0090 O   0  0  0  0  0  0  0  0  0  0  0  0
  188.8220  177.9180  141.7070 O   0  0  0  0  0  1  0  0  0  0  0  0
  193.1070  170.9300  141.5660 C   0  0  1  0  0  3  0  0  0  0  0  0
  193.0530  170.0830  142.8490 C   0  0  1  0  0  3  0  0  0  0  0  0
  193.7690  168.7490  142.7190 C   0  0  0  0  0  1  0  0  0  0  0  0
  193.5650  170.8010  143.9320 O   0  0  0  0  0  0  0  0  0  0  0  0
  194.7600  170.2900  144.1360 O   0  0  0  0  0  1  0  0  0  0  0  0
  194.2820  170.5830  140.6420 C   0  0  0  0  0  2  0  0  0  0  0  0
  195.3130  171.6960  140.5750 C   0  0  0  0  0  2  0  0  0  0  0  0
  196.3360  171.3900  139.5010 C   0  0  0  0  0  2  0  0  0  0  0  0
  195.8200  171.8700  138.1550 C   0  0  0  0  0  2  0  0  0  0  0  0
  197.9090  172.3250  137.0940 O   0  0  0  0  0  1  0  0  0  0  0  0
  196.7350  172.9190  137.5380 C   0  0  2  0  0  3  0  0  0  0  0  0
  194.5860  175.1870  137.6660 S   0  0  0  0  0  0  0  0  0  0  0  0
  195.6750  175.6130  136.3270 C   0  0  0  0  0  0  0  0  0  0  0  0
  197.0810  173.9680  138.5950 C   0  0  1  0  0  3  0  0  0  0  0  0
  197.3370  175.3920  138.0590 C   0  0  2  0  0  3  0  0  0  0  0  0
  196.0370  175.0650  138.7810 C   0  0  1  0  0  0  0  0  0  0  0  0
  196.9660  175.6390  136.6270 C   0  0  0  0  0  0  0  0  0  0  0  0
  197.9400  175.9110  135.6700 O   0  0  0  0  0  1  0  0  0  0  0  0
  194.6630  175.7200  142.3470 C   0  0  0  0  0  1  0  0  0  0  0  0
  195.9220  175.6190  140.1630 C   0  0  0  0  0  0  0  0  0  0  0  0
  196.7950  176.4200  140.6050 O   0  0  0  0  0  0  0  0  0  0  0  0
  194.8060  175.2520  140.9730 N   0  0  0  0  0  2  0  0  0  0  0  0
  193.7720  175.9510  134.9850 F   0  0  0  0  0  0  0  0  0  0  0  0
  195.1520  175.8580  134.9510 C   0  0  0  0  0  2  0  0  0  0  0  0
  191.9970  172.7950  139.0270 C   0  0  0  0  0  2  0  0  0  0  0  0
  189.9850  173.0840  138.1700 C   0  0  0  0  0  1  0  0  0  0  0  0
  191.1500  172.3320  138.0200 O   0  0  0  0  0  0  0  0  0  0  0  0
  1  6  1  0  0  0  0
  2 53  1  6  0  0  0
  2  5  1  0  0  0  0
  2  8  1  0  0  0  0
  4  9  1  0  0  0  0
  5  4  1  0  0  0  0
  5 29  1  1  0  0  0
  6  7  1  0  0  0  0
  6  3  2  0  0  0  0
  8  1  1  0  0  0  0
  9  7  1  0  0  0  0
 11  3  1  0  0  0  0
 11 10  1  1  0  0  0
 11 12  1  0  0  0  0
 12 15  1  1  0  0  0
 12 14  1  0  0  0  0
 14 13  3  0  0  0  0
 15 19  1  0  0  0  0
 16 20  1  0  0  0  0
 17 16  2  0  0  0  0
 18 17  1  0  0  0  0
 18 19  2  0  0  0  0
 19 21  1  0  0  0  0
 21 20  2  0  0  0  0
 22 23  1  6  0  0  0
 22 18  1  0  0  0  0
 24 22  1  0  0  0  0
 25 26  1  0  0  0  0
 26 28  1  0  0  0  0
 26 24  1  0  0  0  0
 27 26  2  0  0  0  0
 29 34  1  6  0  0  0
 29 30  1  0  0  0  0
 30 31  1  6  0  0  0
 30 32  1  0  0  0  0
 32 33  1  0  0  0  0
 35 34  1  0  0  0  0
 36 35  1  0  0  0  0
 37 36  1  0  0  0  0
 39 38  1  1  0  0  0
 39 37  1  0  0  0  0
 40 44  1  0  0  0  0
 41 45  2  0  0  0  0
 41 40  1  0  0  0  0
 42 39  1  6  0  0  0
 42 44  1  0  0  0  0
 43 45  1  6  0  0  0
 43 42  1  0  0  0  0
 43 44  1  0  0  0  0
 44 48  1  1  0  0  0
 46 45  1  0  0  0  0
 48 49  2  0  0  0  0
 48 50  1  0  0  0  0
 50 47  1  0  0  0  0
 52 51  1  0  0  0  0
 52 41  1  0  0  0  0
 55 54  1  0  0  0  0
 55 53  1  0  0  0  0
M  END
>  <MODEL>
9

>  <REMARK>
 VINA RESULT:      -6.0      3.206      4.619
  Name = 
  21 active torsions:
  status: ('A' for Active; 'I' for Inactive)
    1  A    between atoms: C_1  and  O_6
    2  A    between atoms: C_1  and  C_7
    3  A    between atoms: C_2  and  C_14
    4  A    between atoms: C_2  and  O_16
    5  A    between atoms: C_7  and  C_38
    6  A    between atoms: C_7  and  C_49
    7  A    between atoms: C_12  and  C_34
    8  A    between atoms: C_12  and  C_49
    9  A    between atoms: C_13  and  C_32
   10  A    between atoms: C_15  and  C_24
   11  A    between atoms: C_17  and  C_46
   12  A    between atoms: C_21  and  O_28
   13  A    between atoms: C_21  and  C_36
   14  A    between atoms: C_23  and  C_32
   15  A    between atoms: C_23  and  C_43
   16  A    between atoms: P_25  and  O_28
   17  A    between atoms: C_26  and  C_45
   18  A    between atoms: N_30  and  C_37
   19  A    between atoms: C_32  and  C_37
   20  A    between atoms: C_34  and  C_47
   21  A    between atoms: C_45  and  C_47
                            x       y       z     vdW  Elec       q    Type
                         _______ _______ _______ _____ _____    ______ ____

>  <TORSDO>
F 21

$$$$
