=
 OpenBabel11062421383D

 52 58  0  0  1  0  0  0  0  0999 V2000
  190.7460  177.1860  144.9760 C   0  0  0  0  0  0  0  0  0  0  0  0
  190.4600  175.2610  142.4400 C   0  0  2  0  0  3  0  0  0  0  0  0
  185.4370  178.6560  143.3630 C   0  0  2  0  0  3  0  0  0  0  0  0
  191.4470  176.2160  142.8160 O   0  0  0  0  0  0  0  0  0  0  0  0
  185.0750  177.2470  142.8510 C   0  0  0  0  0  2  0  0  0  0  0  0
  186.6470  175.2460  142.4820 O   0  0  0  0  0  0  0  0  0  0  0  0
  191.0530  177.5820  146.1340 O   0  0  0  0  0  0  0  0  0  0  0  0
  188.7070  176.8760  143.5280 C   0  0  0  0  0  0  0  0  0  0  0  0
  189.0560  175.4680  143.0490 C   0  0  1  0  0  3  0  0  0  0  0  0
  191.7460  176.5050  144.1440 C   0  0  0  0  0  0  0  0  0  0  0  0
  187.3320  177.3490  143.3100 C   0  0  0  0  0  0  0  0  0  0  0  0
  189.4230  177.5400  144.4470 C   0  0  0  0  0  3  0  0  0  0  0  0
  186.3930  176.5630  142.8580 C   0  0  0  0  0  0  0  0  0  0  0  0
  187.9710  174.8470  142.1110 C   0  0  2  0  0  3  0  0  0  0  0  0
  192.9510  176.2110  144.6270 C   0  0  0  0  0  3  0  0  0  0  0  0
  186.8350  178.5990  143.6300 O   0  0  0  0  0  0  0  0  0  0  0  0
  190.9470  173.8540  142.6380 C   0  0  0  0  0  0  0  0  0  0  0  0
  191.6360  173.1980  141.6040 C   0  0  0  0  0  0  0  0  0  0  0  0
  190.6850  173.1790  143.8380 C   0  0  0  0  0  3  0  0  0  0  0  0
  191.7370  171.1790  142.9710 C   0  0  0  0  0  0  0  0  0  0  0  0
  191.0810  171.8510  144.0040 C   0  0  0  0  0  3  0  0  0  0  0  0
  192.0240  171.8610  141.7780 C   0  0  0  0  0  3  0  0  0  0  0  0
  192.8850  169.3870  144.2310 C   0  0  0  0  0  1  0  0  0  0  0  0
  192.0830  169.8370  143.1470 O   0  0  0  0  0  0  0  0  0  0  0  0
  191.9110  173.8830  140.4150 O   0  0  0  0  0  0  0  0  0  0  0  0
  192.6790  173.3210  139.3610 C   0  0  0  0  0  3  0  0  0  0  0  0
  193.3290  174.4360  138.5680 C   0  0  0  0  0  2  0  0  0  0  0  0
  192.0900  173.7490  138.0330 C   0  0  0  0  0  2  0  0  0  0  0  0
  194.3370  174.7670  142.7470 O   0  0  0  0  0  0  0  0  0  0  0  0
  195.2840  175.0680  143.5900 C   0  0  1  0  0  3  0  0  0  0  0  0
  193.9400  175.6120  143.7940 N   0  0  0  0  0  0  0  0  0  0  0  0
  195.5120  173.9370  144.4820 N   0  0  0  0  0  0  0  0  0  0  0  0
  195.9150  174.4740  145.7720 C   0  0  0  0  0  1  0  0  0  0  0  0
  197.7160  173.9590  143.0070 O   0  0  0  0  0  0  0  0  0  0  0  0
  196.8640  173.0460  143.8460 S   0  0  0  0  0  0  0  0  0  0  0  0
  197.7020  172.4990  144.9670 O   0  0  0  0  0  0  0  0  0  0  0  0
  195.8520  169.6870  142.1380 N   0  0  0  0  0  0  0  0  0  0  0  0
  196.3050  171.7150  142.8500 C   0  0  0  0  0  0  0  0  0  0  0  0
  195.7240  171.8530  141.6860 O   0  0  0  0  0  0  0  0  0  0  0  0
  196.4000  170.3760  143.1600 C   0  0  0  0  0  3  0  0  0  0  0  0
  194.7840  170.3430  139.9760 C   0  0  0  0  0  1  0  0  0  0  0  0
  195.4570  170.6380  141.2680 C   0  0  0  0  0  0  0  0  0  0  0  0
  188.1990  175.2020  140.6670 C   0  0  0  0  0  3  0  0  0  0  0  0
  188.3640  174.2950  139.6970 C   0  0  0  0  0  0  0  0  0  0  0  0
  188.5540  174.8050  138.2970 C   0  0  0  0  0  2  0  0  0  0  0  0
  186.8630  176.1790  137.4620 C   0  0  0  0  0  1  0  0  0  0  0  0
  187.3080  174.7980  137.5450 N   0  0  0  0  0  2  0  0  0  0  0  0
  188.3560  172.8210  139.9970 C   0  0  0  0  0  2  0  0  0  0  0  0
  188.8910  172.0240  138.8200 C   0  0  0  0  0  2  0  0  0  0  0  0
  189.8530  171.1120  139.2530 O   0  0  0  0  0  1  0  0  0  0  0  0
  184.6880  178.9610  144.6530 C   0  0  0  0  0  2  0  0  0  0  0  0
  185.6530  179.0660  145.8160 C   0  0  0  0  0  1  0  0  0  0  0  0
  1  7  2  0  0  0  0
  2 17  1  1  0  0  0
  2  4  1  0  0  0  0
  2  9  1  0  0  0  0
  3 16  1  0  0  0  0
  3 51  1  1  0  0  0
  4 10  1  0  0  0  0
  5 13  1  0  0  0  0
  5  3  1  0  0  0  0
  6 13  1  0  0  0  0
  8 12  2  0  0  0  0
  9  8  1  6  0  0  0
 10 15  2  0  0  0  0
 10  1  1  0  0  0  0
 11  8  1  0  0  0  0
 11 16  1  0  0  0  0
 12  1  1  0  0  0  0
 13 11  2  0  0  0  0
 14 43  1  6  0  0  0
 14  6  1  0  0  0  0
 14  9  1  0  0  0  0
 17 19  1  0  0  0  0
 18 22  1  0  0  0  0
 18 17  2  0  0  0  0
 19 21  2  0  0  0  0
 20 24  1  0  0  0  0
 20 21  1  0  0  0  0
 22 20  2  0  0  0  0
 24 23  1  0  0  0  0
 25 18  1  0  0  0  0
 26 25  1  0  0  0  0
 27 26  1  0  0  0  0
 28 27  1  0  0  0  0
 28 26  1  0  0  0  0
 29 30  1  0  0  0  0
 29 31  1  0  0  0  0
 30 31  1  0  0  0  0
 30 32  1  1  0  0  0
 31 15  1  0  0  0  0
 32 33  1  0  0  0  0
 34 35  2  0  0  0  0
 35 32  1  0  0  0  0
 35 36  2  0  0  0  0
 37 40  1  0  0  0  0
 38 40  2  0  0  0  0
 38 35  1  0  0  0  0
 39 38  1  0  0  0  0
 41 42  1  0  0  0  0
 42 39  1  0  0  0  0
 42 37  2  0  0  0  0
 44 48  1  0  0  0  0
 44 43  2  0  0  0  0
 45 44  1  0  0  0  0
 46 47  1  0  0  0  0
 47 45  1  0  0  0  0
 49 50  1  0  0  0  0
 49 48  1  0  0  0  0
 51 52  1  0  0  0  0
M  END
>  <MODEL>
1

>  <REMARK>
 VINA RESULT:      -5.9      0.000      0.000
  Name = 
  14 active torsions:
  status: ('A' for Active; 'I' for Inactive)
    1  A    between atoms: C_2  and  C_11
    2  A    between atoms: C_3  and  C_26
    3  A    between atoms: O_9  and  C_14
    4  A    between atoms: O_9  and  C_17
    5  A    between atoms: N_12  and  C_36
    6  A    between atoms: N_15  and  S_21
    7  A    between atoms: N_15  and  C_40
    8  A    between atoms: C_16  and  S_21
    9  A    between atoms: C_18  and  C_39
   10  A    between atoms: C_23  and  C_42
   11  A    between atoms: C_27  and  O_46
   12  A    between atoms: C_36  and  C_51
   13  A    between atoms: C_39  and  C_51
   14  A    between atoms: N_43  and  C_47
                            x       y       z     vdW  Elec       q    Type
                         _______ _______ _______ _____ _____    ______ ____

>  <TORSDO>
F 14

$$$$
=
 OpenBabel11062421383D

 52 58  0  0  1  0  0  0  0  0999 V2000
  188.8040  172.8990  140.5010 C   0  0  0  0  0  0  0  0  0  0  0  0
  191.2380  173.6310  142.4390 C   0  0  2  0  0  3  0  0  0  0  0  0
  186.1560  176.7870  143.7900 C   0  0  2  0  0  3  0  0  0  0  0  0
  190.6400  172.3920  142.0730 O   0  0  0  0  0  0  0  0  0  0  0  0
  187.4210  177.6440  144.0020 C   0  0  0  0  0  2  0  0  0  0  0  0
  189.8510  177.0470  143.4130 O   0  0  0  0  0  0  0  0  0  0  0  0
  188.1760  172.6150  139.4440 O   0  0  0  0  0  0  0  0  0  0  0  0
  188.8290  174.6530  142.3100 C   0  0  0  0  0  0  0  0  0  0  0  0
  190.3400  174.8800  142.3010 C   0  0  1  0  0  3  0  0  0  0  0  0
  190.0430  172.1830  140.8320 C   0  0  0  0  0  0  0  0  0  0  0  0
  187.9940  175.6480  143.0000 C   0  0  0  0  0  0  0  0  0  0  0  0
  188.1980  173.8560  141.4360 C   0  0  0  0  0  3  0  0  0  0  0  0
  188.4890  176.7610  143.4680 C   0  0  0  0  0  0  0  0  0  0  0  0
  190.8050  175.9850  143.3020 C   0  0  2  0  0  3  0  0  0  0  0  0
  190.5690  171.3000  139.9880 C   0  0  0  0  0  3  0  0  0  0  0  0
  186.6220  175.5990  143.1560 O   0  0  0  0  0  0  0  0  0  0  0  0
  192.5660  173.8270  141.7660 C   0  0  0  0  0  0  0  0  0  0  0  0
  193.7520  173.5150  142.4490 C   0  0  0  0  0  0  0  0  0  0  0  0
  192.6270  174.3540  140.4690 C   0  0  0  0  0  3  0  0  0  0  0  0
  195.0460  174.3210  140.5440 C   0  0  0  0  0  0  0  0  0  0  0  0
  193.8600  174.5970  139.8610 C   0  0  0  0  0  3  0  0  0  0  0  0
  194.9870  173.7680  141.8330 C   0  0  0  0  0  3  0  0  0  0  0  0
  197.3950  175.0880  140.6520 C   0  0  0  0  0  1  0  0  0  0  0  0
  196.2660  174.6140  139.9290 O   0  0  0  0  0  0  0  0  0  0  0  0
  193.6850  172.9710  143.7370 O   0  0  0  0  0  0  0  0  0  0  0  0
  194.7270  172.1870  144.2990 C   0  0  0  0  0  3  0  0  0  0  0  0
  194.3430  171.7850  145.7080 C   0  0  0  0  0  2  0  0  0  0  0  0
  195.3180  172.9210  145.4840 C   0  0  0  0  0  2  0  0  0  0  0  0
  192.7330  170.1760  141.2500 O   0  0  0  0  0  0  0  0  0  0  0  0
  193.0200  169.9520  139.9990 C   0  0  1  0  0  3  0  0  0  0  0  0
  191.7330  170.5600  140.3440 N   0  0  0  0  0  0  0  0  0  0  0  0
  193.9510  170.9710  139.5280 N   0  0  0  0  0  0  0  0  0  0  0  0
  193.5560  171.3280  138.1740 C   0  0  0  0  0  1  0  0  0  0  0  0
  195.3800  168.8260  138.9050 O   0  0  0  0  0  0  0  0  0  0  0  0
  195.5200  170.2280  139.4320 S   0  0  0  0  0  0  0  0  0  0  0  0
  196.4090  171.0060  138.5030 O   0  0  0  0  0  0  0  0  0  0  0  0
  197.5680  170.6080  142.7320 N   0  0  0  0  0  0  0  0  0  0  0  0
  196.2670  170.1670  141.0180 C   0  0  0  0  0  0  0  0  0  0  0  0
  195.9200  169.3380  141.9690 O   0  0  0  0  0  0  0  0  0  0  0  0
  197.2910  170.9730  141.4620 C   0  0  0  0  0  3  0  0  0  0  0  0
  196.6350  168.8910  144.2870 C   0  0  0  0  0  1  0  0  0  0  0  0
  196.7010  169.6080  142.9870 C   0  0  0  0  0  0  0  0  0  0  0  0
  191.0760  175.4300  144.6740 C   0  0  0  0  0  3  0  0  0  0  0  0
  192.2170  175.6310  145.3440 C   0  0  0  0  0  0  0  0  0  0  0  0
  192.3280  175.0350  146.7180 C   0  0  0  0  0  2  0  0  0  0  0  0
  191.4210  176.7010  148.0780 C   0  0  0  0  0  1  0  0  0  0  0  0
  191.1790  175.3700  147.5460 N   0  0  0  0  0  2  0  0  0  0  0  0
  193.3450  176.4250  144.7440 C   0  0  0  0  0  2  0  0  0  0  0  0
  194.4830  176.5880  145.7360 C   0  0  0  0  0  2  0  0  0  0  0  0
  194.8390  177.9320  145.8440 O   0  0  0  0  0  1  0  0  0  0  0  0
  185.1770  177.5020  142.8700 C   0  0  0  0  0  2  0  0  0  0  0  0
  185.4800  178.9860  142.8200 C   0  0  0  0  0  1  0  0  0  0  0  0
  1 10  1  0  0  0  0
  1 12  1  0  0  0  0
  2 17  1  6  0  0  0
  3 51  1  6  0  0  0
  3  5  1  0  0  0  0
  4  2  1  0  0  0  0
  6 13  1  0  0  0  0
  7  1  2  0  0  0  0
  8 11  1  0  0  0  0
  9  8  1  1  0  0  0
  9  2  1  0  0  0  0
  9 14  1  0  0  0  0
 10  4  1  0  0  0  0
 11 16  1  0  0  0  0
 11 13  2  0  0  0  0
 12  8  2  0  0  0  0
 13  5  1  0  0  0  0
 14  6  1  0  0  0  0
 14 43  1  1  0  0  0
 15 31  1  0  0  0  0
 15 10  2  0  0  0  0
 16  3  1  0  0  0  0
 17 18  1  0  0  0  0
 18 25  1  0  0  0  0
 19 17  2  0  0  0  0
 20 22  1  0  0  0  0
 21 19  1  0  0  0  0
 21 20  2  0  0  0  0
 22 18  2  0  0  0  0
 24 20  1  0  0  0  0
 24 23  1  0  0  0  0
 25 26  1  0  0  0  0
 26 28  1  0  0  0  0
 26 27  1  0  0  0  0
 28 27  1  0  0  0  0
 30 32  1  6  0  0  0
 30 31  1  0  0  0  0
 30 29  1  0  0  0  0
 31 29  1  0  0  0  0
 33 32  1  0  0  0  0
 34 35  2  0  0  0  0
 35 32  1  0  0  0  0
 35 38  1  0  0  0  0
 36 35  2  0  0  0  0
 37 42  2  0  0  0  0
 38 40  2  0  0  0  0
 38 39  1  0  0  0  0
 39 42  1  0  0  0  0
 40 37  1  0  0  0  0
 42 41  1  0  0  0  0
 43 44  2  0  0  0  0
 44 45  1  0  0  0  0
 45 47  1  0  0  0  0
 47 46  1  0  0  0  0
 48 44  1  0  0  0  0
 48 49  1  0  0  0  0
 49 50  1  0  0  0  0
 52 51  1  0  0  0  0
M  END
>  <MODEL>
2

>  <REMARK>
 VINA RESULT:      -5.9      2.483      5.859
  Name = 
  14 active torsions:
  status: ('A' for Active; 'I' for Inactive)
    1  A    between atoms: C_2  and  C_11
    2  A    between atoms: C_3  and  C_26
    3  A    between atoms: O_9  and  C_14
    4  A    between atoms: O_9  and  C_17
    5  A    between atoms: N_12  and  C_36
    6  A    between atoms: N_15  and  S_21
    7  A    between atoms: N_15  and  C_40
    8  A    between atoms: C_16  and  S_21
    9  A    between atoms: C_18  and  C_39
   10  A    between atoms: C_23  and  C_42
   11  A    between atoms: C_27  and  O_46
   12  A    between atoms: C_36  and  C_51
   13  A    between atoms: C_39  and  C_51
   14  A    between atoms: N_43  and  C_47
                            x       y       z     vdW  Elec       q    Type
                         _______ _______ _______ _____ _____    ______ ____

>  <TORSDO>
F 14

$$$$
=
 OpenBabel11062421383D

 52 58  0  0  1  0  0  0  0  0999 V2000
  190.4350  177.6000  144.9270 C   0  0  0  0  0  0  0  0  0  0  0  0
  190.2750  175.4980  142.5240 C   0  0  2  0  0  3  0  0  0  0  0  0
  185.1890  178.8930  142.9900 C   0  0  2  0  0  3  0  0  0  0  0  0
  191.2370  176.4880  142.8730 O   0  0  0  0  0  0  0  0  0  0  0  0
  184.8610  177.4470  142.5640 C   0  0  0  0  0  2  0  0  0  0  0  0
  186.4630  175.4430  142.4040 O   0  0  0  0  0  0  0  0  0  0  0  0
  190.6880  178.0790  146.0660 O   0  0  0  0  0  0  0  0  0  0  0  0
  188.4630  177.1660  143.4190 C   0  0  0  0  0  0  0  0  0  0  0  0
  188.8440  175.7310  143.0560 C   0  0  1  0  0  3  0  0  0  0  0  0
  191.4760  176.8730  144.1890 C   0  0  0  0  0  0  0  0  0  0  0  0
  187.0950  177.6070  143.1100 C   0  0  0  0  0  0  0  0  0  0  0  0
  189.1330  177.9010  144.3180 C   0  0  0  0  0  3  0  0  0  0  0  0
  186.1830  176.7810  142.6760 C   0  0  0  0  0  0  0  0  0  0  0  0
  187.8060  175.0340  142.1200 C   0  0  2  0  0  3  0  0  0  0  0  0
  192.6610  176.6270  144.7420 C   0  0  0  0  0  3  0  0  0  0  0  0
  186.5750  178.8710  143.3190 O   0  0  0  0  0  0  0  0  0  0  0  0
  190.7640  174.1140  142.8410 C   0  0  0  0  0  0  0  0  0  0  0  0
  190.4970  173.5460  144.0980 C   0  0  0  0  0  0  0  0  0  0  0  0
  191.5180  173.4000  141.9010 C   0  0  0  0  0  3  0  0  0  0  0  0
  191.7970  171.5780  143.4700 C   0  0  0  0  0  0  0  0  0  0  0  0
  192.0280  172.1390  142.2130 C   0  0  0  0  0  3  0  0  0  0  0  0
  191.0200  172.2800  144.4050 C   0  0  0  0  0  3  0  0  0  0  0  0
  192.3910  169.2620  142.8390 C   0  0  0  0  0  1  0  0  0  0  0  0
  192.3560  170.3340  143.7720 O   0  0  0  0  0  0  0  0  0  0  0  0
  189.7280  174.2560  145.0270 O   0  0  0  0  0  0  0  0  0  0  0  0
  189.6410  173.8910  146.3970 C   0  0  0  0  0  3  0  0  0  0  0  0
  188.8570  174.9480  147.1460 C   0  0  0  0  0  2  0  0  0  0  0  0
  190.3680  174.9220  147.2330 C   0  0  0  0  0  2  0  0  0  0  0  0
  194.1370  175.1000  143.0030 O   0  0  0  0  0  0  0  0  0  0  0  0
  195.0310  175.4010  143.9020 C   0  0  1  0  0  3  0  0  0  0  0  0
  193.6890  175.9820  143.9970 N   0  0  0  0  0  0  0  0  0  0  0  0
  195.1660  174.2890  144.8360 N   0  0  0  0  0  0  0  0  0  0  0  0
  195.4320  174.8550  146.1500 C   0  0  0  0  0  1  0  0  0  0  0  0
  197.5560  174.3130  143.6860 O   0  0  0  0  0  0  0  0  0  0  0  0
  196.5790  173.3910  144.3640 S   0  0  0  0  0  0  0  0  0  0  0  0
  197.2410  172.7880  145.5710 O   0  0  0  0  0  0  0  0  0  0  0  0
  195.8100  170.1130  142.3910 N   0  0  0  0  0  0  0  0  0  0  0  0
  196.1440  172.1070  143.2510 C   0  0  0  0  0  0  0  0  0  0  0  0
  195.6570  172.2980  142.0530 O   0  0  0  0  0  0  0  0  0  0  0  0
  196.2510  170.7550  143.4920 C   0  0  0  0  0  3  0  0  0  0  0  0
  194.9050  170.8680  140.1880 C   0  0  0  0  0  1  0  0  0  0  0  0
  195.4600  171.1040  141.5460 C   0  0  0  0  0  0  0  0  0  0  0  0
  188.0930  175.2890  140.6650 C   0  0  0  0  0  3  0  0  0  0  0  0
  188.3220  174.3180  139.7720 C   0  0  0  0  0  0  0  0  0  0  0  0
  188.5670  174.7300  138.3490 C   0  0  0  0  0  2  0  0  0  0  0  0
  186.8500  176.0570  137.4900 C   0  0  0  0  0  1  0  0  0  0  0  0
  187.3460  174.6920  137.5580 N   0  0  0  0  0  2  0  0  0  0  0  0
  188.3330  172.8700  140.1790 C   0  0  0  0  0  2  0  0  0  0  0  0
  188.8500  171.9930  139.0530 C   0  0  0  0  0  2  0  0  0  0  0  0
  190.1400  171.5490  139.3430 O   0  0  0  0  0  1  0  0  0  0  0  0
  184.3830  179.2800  144.2210 C   0  0  0  0  0  2  0  0  0  0  0  0
  185.1970  179.0630  145.4800 C   0  0  0  0  0  1  0  0  0  0  0  0
  1  7  2  0  0  0  0
  2 17  1  1  0  0  0
  2  4  1  0  0  0  0
  2  9  1  0  0  0  0
  3 16  1  0  0  0  0
  3 51  1  1  0  0  0
  4 10  1  0  0  0  0
  5 13  1  0  0  0  0
  5  3  1  0  0  0  0
  6 13  1  0  0  0  0
  8 12  2  0  0  0  0
  9  8  1  6  0  0  0
 10 15  2  0  0  0  0
 10  1  1  0  0  0  0
 11 16  1  0  0  0  0
 11  8  1  0  0  0  0
 12  1  1  0  0  0  0
 13 11  2  0  0  0  0
 14 43  1  6  0  0  0
 14  6  1  0  0  0  0
 14  9  1  0  0  0  0
 17 18  1  0  0  0  0
 18 22  2  0  0  0  0
 18 25  1  0  0  0  0
 19 21  1  0  0  0  0
 19 17  2  0  0  0  0
 20 24  1  0  0  0  0
 20 22  1  0  0  0  0
 21 20  2  0  0  0  0
 23 24  1  0  0  0  0
 25 26  1  0  0  0  0
 26 27  1  0  0  0  0
 26 28  1  0  0  0  0
 27 28  1  0  0  0  0
 29 30  1  0  0  0  0
 29 31  1  0  0  0  0
 30 31  1  0  0  0  0
 30 32  1  1  0  0  0
 31 15  1  0  0  0  0
 32 33  1  0  0  0  0
 34 35  2  0  0  0  0
 35 32  1  0  0  0  0
 35 36  2  0  0  0  0
 37 40  1  0  0  0  0
 38 40  2  0  0  0  0
 38 35  1  0  0  0  0
 39 38  1  0  0  0  0
 41 42  1  0  0  0  0
 42 39  1  0  0  0  0
 42 37  2  0  0  0  0
 44 48  1  0  0  0  0
 44 43  2  0  0  0  0
 45 44  1  0  0  0  0
 46 47  1  0  0  0  0
 47 45  1  0  0  0  0
 49 50  1  0  0  0  0
 49 48  1  0  0  0  0
 51 52  1  0  0  0  0
M  END
>  <MODEL>
3

>  <REMARK>
 VINA RESULT:      -5.9      1.076      2.423
  Name = 
  14 active torsions:
  status: ('A' for Active; 'I' for Inactive)
    1  A    between atoms: C_2  and  C_11
    2  A    between atoms: C_3  and  C_26
    3  A    between atoms: O_9  and  C_14
    4  A    between atoms: O_9  and  C_17
    5  A    between atoms: N_12  and  C_36
    6  A    between atoms: N_15  and  S_21
    7  A    between atoms: N_15  and  C_40
    8  A    between atoms: C_16  and  S_21
    9  A    between atoms: C_18  and  C_39
   10  A    between atoms: C_23  and  C_42
   11  A    between atoms: C_27  and  O_46
   12  A    between atoms: C_36  and  C_51
   13  A    between atoms: C_39  and  C_51
   14  A    between atoms: N_43  and  C_47
                            x       y       z     vdW  Elec       q    Type
                         _______ _______ _______ _____ _____    ______ ____

>  <TORSDO>
F 14

$$$$
=
 OpenBabel11062421383D

 52 58  0  0  1  0  0  0  0  0999 V2000
  190.3600  173.1200  140.2530 C   0  0  0  0  0  0  0  0  0  0  0  0
  193.1140  173.6770  141.7790 C   0  0  2  0  0  3  0  0  0  0  0  0
  193.7930  173.6630  135.6840 C   0  0  2  0  0  3  0  0  0  0  0  0
  191.8290  174.2870  141.8590 O   0  0  0  0  0  0  0  0  0  0  0  0
  195.0220  173.0510  136.3870 C   0  0  0  0  0  2  0  0  0  0  0  0
  195.3180  172.5280  138.8860 O   0  0  0  0  0  0  0  0  0  0  0  0
  189.2360  172.6150  139.9860 O   0  0  0  0  0  0  0  0  0  0  0  0
  192.6430  173.3850  139.2180 C   0  0  0  0  0  0  0  0  0  0  0  0
  193.4360  172.9560  140.4520 C   0  0  1  0  0  3  0  0  0  0  0  0
  190.6490  173.5900  141.6140 C   0  0  0  0  0  0  0  0  0  0  0  0
  193.3570  173.4380  137.9330 C   0  0  0  0  0  0  0  0  0  0  0  0
  191.3050  173.3400  139.1500 C   0  0  0  0  0  3  0  0  0  0  0  0
  194.5810  173.0020  137.8040 C   0  0  0  0  0  0  0  0  0  0  0  0
  194.9800  172.9340  140.2180 C   0  0  2  0  0  3  0  0  0  0  0  0
  189.7760  173.4060  142.6000 C   0  0  0  0  0  3  0  0  0  0  0  0
  192.8310  173.8400  136.7210 O   0  0  0  0  0  0  0  0  0  0  0  0
  193.3850  172.7980  142.9660 C   0  0  0  0  0  0  0  0  0  0  0  0
  193.8260  173.3650  144.1730 C   0  0  0  0  0  0  0  0  0  0  0  0
  193.2330  171.4090  142.8640 C   0  0  0  0  0  3  0  0  0  0  0  0
  194.0140  171.1320  145.1380 C   0  0  0  0  0  0  0  0  0  0  0  0
  193.5430  170.5820  143.9450 C   0  0  0  0  0  3  0  0  0  0  0  0
  194.1420  172.5250  145.2520 C   0  0  0  0  0  3  0  0  0  0  0  0
  195.5830  169.5560  146.2220 C   0  0  0  0  0  1  0  0  0  0  0  0
  194.3590  170.2780  146.1900 O   0  0  0  0  0  0  0  0  0  0  0  0
  193.9570  174.7550  144.2750 O   0  0  0  0  0  0  0  0  0  0  0  0
  193.4660  175.4970  145.3820 C   0  0  0  0  0  3  0  0  0  0  0  0
  193.7350  176.9700  145.1530 C   0  0  0  0  0  2  0  0  0  0  0  0
  194.6270  176.1730  146.0810 C   0  0  0  0  0  2  0  0  0  0  0  0
  190.0280  173.8290  145.3010 O   0  0  0  0  0  0  0  0  0  0  0  0
  190.1130  175.0450  144.8420 C   0  0  1  0  0  3  0  0  0  0  0  0
  190.0330  173.9240  143.9020 N   0  0  0  0  0  0  0  0  0  0  0  0
  188.8130  175.6970  144.9630 N   0  0  0  0  0  0  0  0  0  0  0  0
  188.8550  176.9020  144.1490 C   0  0  0  0  0  1  0  0  0  0  0  0
  188.4190  174.9870  147.4870 O   0  0  0  0  0  0  0  0  0  0  0  0
  188.6410  176.1960  146.6200 S   0  0  0  0  0  0  0  0  0  0  0  0
  189.8850  176.9000  147.0840 O   0  0  0  0  0  0  0  0  0  0  0  0
  185.9670  178.8960  147.5060 N   0  0  0  0  0  0  0  0  0  0  0  0
  187.2730  177.2800  146.7940 C   0  0  0  0  0  0  0  0  0  0  0  0
  186.1910  177.2320  146.0600 O   0  0  0  0  0  0  0  0  0  0  0  0
  187.1650  178.3070  147.7040 C   0  0  0  0  0  3  0  0  0  0  0  0
  184.0790  178.4990  145.9190 C   0  0  0  0  0  1  0  0  0  0  0  0
  185.4180  178.1990  146.4910 C   0  0  0  0  0  0  0  0  0  0  0  0
  195.6150  174.2700  140.4940 C   0  0  0  0  0  3  0  0  0  0  0  0
  196.8150  174.4170  141.0690 C   0  0  0  0  0  0  0  0  0  0  0  0
  197.3270  175.8160  141.2540 C   0  0  0  0  0  2  0  0  0  0  0  0
  196.9460  176.8980  143.2860 C   0  0  0  0  0  1  0  0  0  0  0  0
  196.3760  176.6500  141.9730 N   0  0  0  0  0  2  0  0  0  0  0  0
  197.6200  173.2260  141.5110 C   0  0  0  0  0  2  0  0  0  0  0  0
  197.3850  172.9260  142.9810 C   0  0  0  0  0  2  0  0  0  0  0  0
  196.8260  171.6580  143.1310 O   0  0  0  0  0  1  0  0  0  0  0  0
  193.2420  172.6990  134.6420 C   0  0  0  0  0  2  0  0  0  0  0  0
  193.9860  171.3800  134.6910 C   0  0  0  0  0  1  0  0  0  0  0  0
  1 10  1  0  0  0  0
  2  4  1  0  0  0  0
  2 17  1  1  0  0  0
  3 51  1  6  0  0  0
  3  5  1  0  0  0  0
  3 16  1  0  0  0  0
  5 13  1  0  0  0  0
  6 14  1  0  0  0  0
  7  1  2  0  0  0  0
  9  8  1  6  0  0  0
  9  2  1  0  0  0  0
 10  4  1  0  0  0  0
 10 15  2  0  0  0  0
 11  8  1  0  0  0  0
 12  8  2  0  0  0  0
 12  1  1  0  0  0  0
 13 11  2  0  0  0  0
 13  6  1  0  0  0  0
 14  9  1  0  0  0  0
 14 43  1  6  0  0  0
 15 31  1  0  0  0  0
 16 11  1  0  0  0  0
 17 18  1  0  0  0  0
 18 25  1  0  0  0  0
 18 22  2  0  0  0  0
 19 17  2  0  0  0  0
 19 21  1  0  0  0  0
 20 22  1  0  0  0  0
 20 24  1  0  0  0  0
 21 20  2  0  0  0  0
 24 23  1  0  0  0  0
 25 26  1  0  0  0  0
 26 28  1  0  0  0  0
 27 26  1  0  0  0  0
 27 28  1  0  0  0  0
 30 32  1  1  0  0  0
 30 29  1  0  0  0  0
 31 30  1  0  0  0  0
 31 29  1  0  0  0  0
 32 35  1  0  0  0  0
 33 32  1  0  0  0  0
 35 38  1  0  0  0  0
 35 36  2  0  0  0  0
 35 34  2  0  0  0  0
 37 40  1  0  0  0  0
 38 40  2  0  0  0  0
 39 42  1  0  0  0  0
 39 38  1  0  0  0  0
 41 42  1  0  0  0  0
 42 37  2  0  0  0  0
 43 44  2  0  0  0  0
 44 45  1  0  0  0  0
 44 48  1  0  0  0  0
 45 47  1  0  0  0  0
 47 46  1  0  0  0  0
 48 49  1  0  0  0  0
 49 50  1  0  0  0  0
 51 52  1  0  0  0  0
M  END
>  <MODEL>
4

>  <REMARK>
 VINA RESULT:      -5.6      3.113      8.760
  Name = 
  14 active torsions:
  status: ('A' for Active; 'I' for Inactive)
    1  A    between atoms: C_2  and  C_11
    2  A    between atoms: C_3  and  C_26
    3  A    between atoms: O_9  and  C_14
    4  A    between atoms: O_9  and  C_17
    5  A    between atoms: N_12  and  C_36
    6  A    between atoms: N_15  and  S_21
    7  A    between atoms: N_15  and  C_40
    8  A    between atoms: C_16  and  S_21
    9  A    between atoms: C_18  and  C_39
   10  A    between atoms: C_23  and  C_42
   11  A    between atoms: C_27  and  O_46
   12  A    between atoms: C_36  and  C_51
   13  A    between atoms: C_39  and  C_51
   14  A    between atoms: N_43  and  C_47
                            x       y       z     vdW  Elec       q    Type
                         _______ _______ _______ _____ _____    ______ ____

>  <TORSDO>
F 14

$$$$
=
 OpenBabel11062421383D

 52 58  0  0  1  0  0  0  0  0999 V2000
  196.2780  175.0570  142.2000 C   0  0  0  0  0  0  0  0  0  0  0  0
  193.2480  174.2220  141.6150 C   0  0  2  0  0  3  0  0  0  0  0  0
  196.8760  173.3860  136.7410 C   0  0  2  0  0  3  0  0  0  0  0  0
  194.1660  173.8560  142.6410 O   0  0  0  0  0  0  0  0  0  0  0  0
  195.4690  173.8570  136.3190 C   0  0  0  0  0  2  0  0  0  0  0  0
  193.5350  174.6180  137.8330 O   0  0  0  0  0  0  0  0  0  0  0  0
  197.2620  175.7120  142.6410 O   0  0  0  0  0  0  0  0  0  0  0  0
  195.3140  174.2810  140.0050 C   0  0  0  0  0  0  0  0  0  0  0  0
  193.8770  174.7120  140.2920 C   0  0  1  0  0  3  0  0  0  0  0  0
  195.1660  174.7120  143.0950 C   0  0  0  0  0  0  0  0  0  0  0  0
  195.6620  173.9520  138.6140 C   0  0  0  0  0  0  0  0  0  0  0  0
  196.3410  174.5470  140.8240 C   0  0  0  0  0  3  0  0  0  0  0  0
  194.8310  174.1510  137.6270 C   0  0  0  0  0  0  0  0  0  0  0  0
  192.9000  174.4390  139.1040 C   0  0  2  0  0  3  0  0  0  0  0  0
  195.1320  175.1600  144.3470 C   0  0  0  0  0  3  0  0  0  0  0  0
  196.8880  173.5020  138.1610 O   0  0  0  0  0  0  0  0  0  0  0  0
  192.2050  175.1770  142.1190 C   0  0  0  0  0  0  0  0  0  0  0  0
  190.8810  174.7420  142.2940 C   0  0  0  0  0  0  0  0  0  0  0  0
  192.5390  176.5130  142.3810 C   0  0  0  0  0  3  0  0  0  0  0  0
  190.2360  177.0060  142.9360 C   0  0  0  0  0  0  0  0  0  0  0  0
  191.5610  177.4200  142.7900 C   0  0  0  0  0  3  0  0  0  0  0  0
  189.9030  175.6630  142.6990 C   0  0  0  0  0  3  0  0  0  0  0  0
  187.9330  177.9010  142.8200 C   0  0  0  0  0  1  0  0  0  0  0  0
  189.2680  177.9450  143.3040 O   0  0  0  0  0  0  0  0  0  0  0  0
  190.5560  173.4030  142.0490 O   0  0  0  0  0  0  0  0  0  0  0  0
  189.7970  172.6150  142.9540 C   0  0  0  0  0  3  0  0  0  0  0  0
  190.7140  171.6330  143.6520 C   0  0  0  0  0  2  0  0  0  0  0  0
  189.8380  171.1680  142.5090 C   0  0  0  0  0  2  0  0  0  0  0  0
  192.8140  174.2340  145.4920 O   0  0  0  0  0  0  0  0  0  0  0  0
  193.3170  174.9410  146.4640 C   0  0  1  0  0  3  0  0  0  0  0  0
  194.0850  174.7650  145.2300 N   0  0  0  0  0  0  0  0  0  0  0  0
  192.6830  176.2550  146.4810 N   0  0  0  0  0  0  0  0  0  0  0  0
  193.6910  177.2180  146.8940 C   0  0  0  0  0  1  0  0  0  0  0  0
  191.5700  174.9330  148.4930 O   0  0  0  0  0  0  0  0  0  0  0  0
  191.4620  176.2190  147.7200 S   0  0  0  0  0  0  0  0  0  0  0  0
  191.6490  177.3700  148.6690 O   0  0  0  0  0  0  0  0  0  0  0  0
  188.0440  175.8270  145.8780 N   0  0  0  0  0  0  0  0  0  0  0  0
  189.8630  176.3220  147.0070 C   0  0  0  0  0  0  0  0  0  0  0  0
  189.0470  177.3320  147.1590 O   0  0  0  0  0  0  0  0  0  0  0  0
  189.2670  175.3660  146.2140 C   0  0  0  0  0  3  0  0  0  0  0  0
  186.7740  177.9140  146.3960 C   0  0  0  0  0  1  0  0  0  0  0  0
  187.9650  177.0290  146.4830 C   0  0  0  0  0  0  0  0  0  0  0  0
  192.3080  173.0570  139.1620 C   0  0  0  0  0  3  0  0  0  0  0  0
  191.0970  172.7480  138.6840 C   0  0  0  0  0  0  0  0  0  0  0  0
  190.6550  171.3160  138.7900 C   0  0  0  0  0  2  0  0  0  0  0  0
  191.0780  169.1600  139.5770 C   0  0  0  0  0  1  0  0  0  0  0  0
  191.6430  170.4950  139.4740 N   0  0  0  0  0  2  0  0  0  0  0  0
  190.2120  173.7940  138.0640 C   0  0  0  0  0  2  0  0  0  0  0  0
  188.7700  173.6180  138.5060 C   0  0  0  0  0  2  0  0  0  0  0  0
  188.5240  174.3700  139.6550 O   0  0  0  0  0  1  0  0  0  0  0  0
  197.9410  174.2980  136.1490 C   0  0  0  0  0  2  0  0  0  0  0  0
  197.4930  175.7440  136.2030 C   0  0  0  0  0  1  0  0  0  0  0  0
  1  7  2  0  0  0  0
  1 10  1  0  0  0  0
  2 17  1  1  0  0  0
  2  4  1  0  0  0  0
  3 51  1  6  0  0  0
  3 16  1  0  0  0  0
  4 10  1  0  0  0  0
  5  3  1  0  0  0  0
  5 13  1  0  0  0  0
  6 14  1  0  0  0  0
  8 12  2  0  0  0  0
  9  8  1  6  0  0  0
  9  2  1  0  0  0  0
 10 15  2  0  0  0  0
 11  8  1  0  0  0  0
 12  1  1  0  0  0  0
 13  6  1  0  0  0  0
 13 11  2  0  0  0  0
 14 43  1  6  0  0  0
 14  9  1  0  0  0  0
 15 31  1  0  0  0  0
 16 11  1  0  0  0  0
 17 18  2  0  0  0  0
 17 19  1  0  0  0  0
 18 22  1  0  0  0  0
 19 21  2  0  0  0  0
 20 24  1  0  0  0  0
 21 20  1  0  0  0  0
 22 20  2  0  0  0  0
 23 24  1  0  0  0  0
 25 18  1  0  0  0  0
 25 26  1  0  0  0  0
 26 27  1  0  0  0  0
 28 26  1  0  0  0  0
 28 27  1  0  0  0  0
 29 30  1  0  0  0  0
 30 32  1  6  0  0  0
 31 29  1  0  0  0  0
 31 30  1  0  0  0  0
 32 33  1  0  0  0  0
 32 35  1  0  0  0  0
 35 34  2  0  0  0  0
 35 36  2  0  0  0  0
 37 40  1  0  0  0  0
 37 42  2  0  0  0  0
 38 39  1  0  0  0  0
 38 35  1  0  0  0  0
 40 38  2  0  0  0  0
 41 42  1  0  0  0  0
 42 39  1  0  0  0  0
 44 45  1  0  0  0  0
 44 43  2  0  0  0  0
 45 47  1  0  0  0  0
 47 46  1  0  0  0  0
 48 49  1  0  0  0  0
 48 44  1  0  0  0  0
 49 50  1  0  0  0  0
 51 52  1  0  0  0  0
M  END
>  <MODEL>
5

>  <REMARK>
 VINA RESULT:      -5.5      2.817      7.777
  Name = 
  14 active torsions:
  status: ('A' for Active; 'I' for Inactive)
    1  A    between atoms: C_2  and  C_11
    2  A    between atoms: C_3  and  C_26
    3  A    between atoms: O_9  and  C_14
    4  A    between atoms: O_9  and  C_17
    5  A    between atoms: N_12  and  C_36
    6  A    between atoms: N_15  and  S_21
    7  A    between atoms: N_15  and  C_40
    8  A    between atoms: C_16  and  S_21
    9  A    between atoms: C_18  and  C_39
   10  A    between atoms: C_23  and  C_42
   11  A    between atoms: C_27  and  O_46
   12  A    between atoms: C_36  and  C_51
   13  A    between atoms: C_39  and  C_51
   14  A    between atoms: N_43  and  C_47
                            x       y       z     vdW  Elec       q    Type
                         _______ _______ _______ _____ _____    ______ ____

>  <TORSDO>
F 14

$$$$
=
 OpenBabel11062421383D

 52 58  0  0  1  0  0  0  0  0999 V2000
  188.8380  172.9920  140.4270 C   0  0  0  0  0  0  0  0  0  0  0  0
  191.3440  173.7910  142.2450 C   0  0  2  0  0  3  0  0  0  0  0  0
  186.2650  176.8540  143.8060 C   0  0  2  0  0  3  0  0  0  0  0  0
  190.7550  172.5360  141.9160 O   0  0  0  0  0  0  0  0  0  0  0  0
  187.5210  177.7380  143.9520 C   0  0  0  0  0  2  0  0  0  0  0  0
  189.9330  177.1870  143.2550 O   0  0  0  0  0  0  0  0  0  0  0  0
  188.1670  172.6860  139.4040 O   0  0  0  0  0  0  0  0  0  0  0  0
  188.9100  174.7620  142.2200 C   0  0  0  0  0  0  0  0  0  0  0  0
  190.4150  175.0200  142.1390 C   0  0  1  0  0  3  0  0  0  0  0  0
  190.1050  172.3050  140.7060 C   0  0  0  0  0  0  0  0  0  0  0  0
  188.0880  175.7460  142.9400 C   0  0  0  0  0  0  0  0  0  0  0  0
  188.2570  173.9450  141.3820 C   0  0  0  0  0  3  0  0  0  0  0  0
  188.5810  176.8730  143.3760 C   0  0  0  0  0  0  0  0  0  0  0  0
  190.9030  176.1430  143.1080 C   0  0  2  0  0  3  0  0  0  0  0  0
  190.6110  171.4260  139.8450 C   0  0  0  0  0  3  0  0  0  0  0  0
  186.7260  175.6700  143.1600 O   0  0  0  0  0  0  0  0  0  0  0  0
  192.6340  174.0080  141.5080 C   0  0  0  0  0  0  0  0  0  0  0  0
  193.8590  173.8320  142.1720 C   0  0  0  0  0  0  0  0  0  0  0  0
  192.6210  174.4210  140.1690 C   0  0  0  0  0  3  0  0  0  0  0  0
  195.0390  174.5450  140.1580 C   0  0  0  0  0  0  0  0  0  0  0  0
  193.8160  174.6840  139.4980 C   0  0  0  0  0  3  0  0  0  0  0  0
  195.0560  174.1050  141.4910 C   0  0  0  0  0  3  0  0  0  0  0  0
  197.2470  175.6530  140.0480 C   0  0  0  0  0  1  0  0  0  0  0  0
  196.2170  174.8570  139.4760 O   0  0  0  0  0  0  0  0  0  0  0  0
  193.8670  173.4010  143.5040 O   0  0  0  0  0  0  0  0  0  0  0  0
  194.8300  172.4900  144.0150 C   0  0  0  0  0  3  0  0  0  0  0  0
  194.1170  171.3050  144.6310 C   0  0  0  0  0  2  0  0  0  0  0  0
  194.6770  172.3960  145.5180 C   0  0  0  0  0  2  0  0  0  0  0  0
  192.9780  170.5140  140.8960 O   0  0  0  0  0  0  0  0  0  0  0  0
  192.9580  169.9080  139.7430 C   0  0  1  0  0  3  0  0  0  0  0  0
  191.8050  170.7130  140.1530 N   0  0  0  0  0  0  0  0  0  0  0  0
  193.7810  170.6510  138.7950 N   0  0  0  0  0  0  0  0  0  0  0  0
  193.4740  170.1470  137.4650 C   0  0  0  0  0  1  0  0  0  0  0  0
  195.9380  171.0940  140.2720 O   0  0  0  0  0  0  0  0  0  0  0  0
  195.4390  170.2510  139.1300 S   0  0  0  0  0  0  0  0  0  0  0  0
  195.5600  168.8020  139.5120 O   0  0  0  0  0  0  0  0  0  0  0  0
  197.7480  170.2460  135.9840 N   0  0  0  0  0  0  0  0  0  0  0  0
  196.4400  170.5540  137.7220 C   0  0  0  0  0  0  0  0  0  0  0  0
  196.6650  171.7380  137.2140 O   0  0  0  0  0  0  0  0  0  0  0  0
  197.1010  169.6030  136.9780 C   0  0  0  0  0  3  0  0  0  0  0  0
  197.9410  172.6430  135.3060 C   0  0  0  0  0  1  0  0  0  0  0  0
  197.4460  171.5460  136.1780 C   0  0  0  0  0  0  0  0  0  0  0  0
  191.2490  175.6060  144.4710 C   0  0  0  0  0  3  0  0  0  0  0  0
  192.3860  175.8940  145.1150 C   0  0  0  0  0  0  0  0  0  0  0  0
  192.5760  175.3030  146.4820 C   0  0  0  0  0  2  0  0  0  0  0  0
  190.8140  175.2980  148.0130 C   0  0  0  0  0  1  0  0  0  0  0  0
  191.9180  176.0970  147.5100 N   0  0  0  0  0  2  0  0  0  0  0  0
  193.4340  176.7760  144.4930 C   0  0  0  0  0  2  0  0  0  0  0  0
  194.7800  176.5790  145.1670 C   0  0  0  0  0  2  0  0  0  0  0  0
  195.7450  176.2330  144.2220 O   0  0  0  0  0  1  0  0  0  0  0  0
  185.2300  177.5410  142.9270 C   0  0  0  0  0  2  0  0  0  0  0  0
  185.2630  179.0410  143.1390 C   0  0  0  0  0  1  0  0  0  0  0  0
  1 10  1  0  0  0  0
  1 12  1  0  0  0  0
  2 17  1  6  0  0  0
  3 51  1  6  0  0  0
  3  5  1  0  0  0  0
  4  2  1  0  0  0  0
  6 13  1  0  0  0  0
  7  1  2  0  0  0  0
  8 11  1  0  0  0  0
  9  8  1  1  0  0  0
  9  2  1  0  0  0  0
  9 14  1  0  0  0  0
 10  4  1  0  0  0  0
 11 16  1  0  0  0  0
 11 13  2  0  0  0  0
 12  8  2  0  0  0  0
 13  5  1  0  0  0  0
 14  6  1  0  0  0  0
 14 43  1  1  0  0  0
 15 31  1  0  0  0  0
 15 10  2  0  0  0  0
 16  3  1  0  0  0  0
 17 18  1  0  0  0  0
 18 25  1  0  0  0  0
 19 17  2  0  0  0  0
 20 22  1  0  0  0  0
 21 20  2  0  0  0  0
 21 19  1  0  0  0  0
 22 18  2  0  0  0  0
 24 23  1  0  0  0  0
 24 20  1  0  0  0  0
 25 26  1  0  0  0  0
 26 27  1  0  0  0  0
 26 28  1  0  0  0  0
 27 28  1  0  0  0  0
 30 32  1  6  0  0  0
 30 31  1  0  0  0  0
 30 29  1  0  0  0  0
 31 29  1  0  0  0  0
 32 35  1  0  0  0  0
 33 32  1  0  0  0  0
 35 36  2  0  0  0  0
 35 34  2  0  0  0  0
 37 42  2  0  0  0  0
 37 40  1  0  0  0  0
 38 35  1  0  0  0  0
 39 38  1  0  0  0  0
 40 38  2  0  0  0  0
 41 42  1  0  0  0  0
 42 39  1  0  0  0  0
 43 44  2  0  0  0  0
 44 45  1  0  0  0  0
 45 47  1  0  0  0  0
 47 46  1  0  0  0  0
 48 44  1  0  0  0  0
 48 49  1  0  0  0  0
 50 49  1  0  0  0  0
 51 52  1  0  0  0  0
M  END
>  <MODEL>
6

>  <REMARK>
 VINA RESULT:      -5.5      2.762      6.062
  Name = 
  14 active torsions:
  status: ('A' for Active; 'I' for Inactive)
    1  A    between atoms: C_2  and  C_11
    2  A    between atoms: C_3  and  C_26
    3  A    between atoms: O_9  and  C_14
    4  A    between atoms: O_9  and  C_17
    5  A    between atoms: N_12  and  C_36
    6  A    between atoms: N_15  and  S_21
    7  A    between atoms: N_15  and  C_40
    8  A    between atoms: C_16  and  S_21
    9  A    between atoms: C_18  and  C_39
   10  A    between atoms: C_23  and  C_42
   11  A    between atoms: C_27  and  O_46
   12  A    between atoms: C_36  and  C_51
   13  A    between atoms: C_39  and  C_51
   14  A    between atoms: N_43  and  C_47
                            x       y       z     vdW  Elec       q    Type
                         _______ _______ _______ _____ _____    ______ ____

>  <TORSDO>
F 14

$$$$
=
 OpenBabel11062421383D

 52 58  0  0  1  0  0  0  0  0999 V2000
  195.3070  175.8450  142.6610 C   0  0  0  0  0  0  0  0  0  0  0  0
  192.7850  174.0970  141.7660 C   0  0  2  0  0  3  0  0  0  0  0  0
  197.0800  174.3930  137.3980 C   0  0  2  0  0  3  0  0  0  0  0  0
  193.6330  174.0470  142.9090 O   0  0  0  0  0  0  0  0  0  0  0  0
  195.6620  174.3950  136.7910 C   0  0  0  0  0  2  0  0  0  0  0  0
  193.4120  174.5260  138.0290 O   0  0  0  0  0  0  0  0  0  0  0  0
  195.9750  176.7800  143.1820 O   0  0  0  0  0  0  0  0  0  0  0  0
  194.9180  174.7850  140.4080 C   0  0  0  0  0  0  0  0  0  0  0  0
  193.3930  174.7460  140.5040 C   0  0  1  0  0  3  0  0  0  0  0  0
  194.2530  175.1770  143.4350 C   0  0  0  0  0  0  0  0  0  0  0  0
  195.5240  174.5680  139.0860 C   0  0  0  0  0  0  0  0  0  0  0  0
  195.6990  175.3670  141.3290 C   0  0  0  0  0  3  0  0  0  0  0  0
  194.8040  174.4870  138.0000 C   0  0  0  0  0  0  0  0  0  0  0  0
  192.7080  174.1700  139.2240 C   0  0  2  0  0  3  0  0  0  0  0  0
  193.9230  175.6040  144.6510 C   0  0  0  0  0  3  0  0  0  0  0  0
  196.8760  174.5210  138.8020 O   0  0  0  0  0  0  0  0  0  0  0  0
  191.4420  174.6810  142.0970 C   0  0  0  0  0  0  0  0  0  0  0  0
  190.2970  173.8680  142.0730 C   0  0  0  0  0  0  0  0  0  0  0  0
  191.3210  176.0460  142.3940 C   0  0  0  0  0  3  0  0  0  0  0  0
  188.9190  175.8150  142.5880 C   0  0  0  0  0  0  0  0  0  0  0  0
  190.0670  176.6070  142.6410 C   0  0  0  0  0  3  0  0  0  0  0  0
  189.0400  174.4430  142.3160 C   0  0  0  0  0  3  0  0  0  0  0  0
  186.9990  177.1530  141.7880 C   0  0  0  0  0  1  0  0  0  0  0  0
  187.6730  176.4120  142.7960 O   0  0  0  0  0  0  0  0  0  0  0  0
  190.4260  172.5020  141.7940 O   0  0  0  0  0  0  0  0  0  0  0  0
  190.1700  171.4900  142.7570 C   0  0  0  0  0  3  0  0  0  0  0  0
  191.4580  171.1510  143.4780 C   0  0  0  0  0  2  0  0  0  0  0  0
  190.9420  170.2420  142.3830 C   0  0  0  0  0  2  0  0  0  0  0  0
  191.8800  174.0100  145.5590 O   0  0  0  0  0  0  0  0  0  0  0  0
  192.0120  174.8470  146.5490 C   0  0  1  0  0  3  0  0  0  0  0  0
  192.9470  174.9100  145.4230 N   0  0  0  0  0  0  0  0  0  0  0  0
  191.0070  175.8970  146.4300 N   0  0  0  0  0  0  0  0  0  0  0  0
  191.1770  176.7920  147.5640 C   0  0  0  0  0  1  0  0  0  0  0  0
  189.3170  174.0390  145.5780 O   0  0  0  0  0  0  0  0  0  0  0  0
  189.4510  175.1380  146.5970 S   0  0  0  0  0  0  0  0  0  0  0  0
  189.3050  174.5440  147.9690 O   0  0  0  0  0  0  0  0  0  0  0  0
  187.0920  178.1310  145.7570 N   0  0  0  0  0  0  0  0  0  0  0  0
  188.1690  176.3080  146.3410 C   0  0  0  0  0  0  0  0  0  0  0  0
  186.9160  176.1170  146.6650 O   0  0  0  0  0  0  0  0  0  0  0  0
  188.3110  177.5540  145.7730 C   0  0  0  0  0  3  0  0  0  0  0  0
  184.8190  177.4070  146.5000 C   0  0  0  0  0  1  0  0  0  0  0  0
  186.2800  177.2090  146.3120 C   0  0  0  0  0  0  0  0  0  0  0  0
  192.5710  172.6720  139.2790 C   0  0  0  0  0  3  0  0  0  0  0  0
  191.5950  171.9930  138.6640 C   0  0  0  0  0  0  0  0  0  0  0  0
  191.6080  170.4970  138.7900 C   0  0  0  0  0  2  0  0  0  0  0  0
  192.8480  168.5400  138.5080 C   0  0  0  0  0  1  0  0  0  0  0  0
  192.9620  169.9640  138.7710 N   0  0  0  0  0  2  0  0  0  0  0  0
  190.5270  172.7010  137.8770 C   0  0  0  0  0  2  0  0  0  0  0  0
  189.2100  172.7110  138.6340 C   0  0  0  0  0  2  0  0  0  0  0  0
  188.7070  174.0090  138.7080 O   0  0  0  0  0  1  0  0  0  0  0  0
  197.8770  175.5870  136.8910 C   0  0  0  0  0  2  0  0  0  0  0  0
  197.1870  176.2210  135.7000 C   0  0  0  0  0  1  0  0  0  0  0  0
  1  7  2  0  0  0  0
  1 10  1  0  0  0  0
  2 17  1  1  0  0  0
  2  4  1  0  0  0  0
  3 51  1  6  0  0  0
  3 16  1  0  0  0  0
  4 10  1  0  0  0  0
  5  3  1  0  0  0  0
  5 13  1  0  0  0  0
  6 14  1  0  0  0  0
  8 12  2  0  0  0  0
  9  8  1  6  0  0  0
  9  2  1  0  0  0  0
 10 15  2  0  0  0  0
 11  8  1  0  0  0  0
 12  1  1  0  0  0  0
 13  6  1  0  0  0  0
 13 11  2  0  0  0  0
 14 43  1  1  0  0  0
 14  9  1  0  0  0  0
 15 31  1  0  0  0  0
 16 11  1  0  0  0  0
 17 19  1  0  0  0  0
 18 17  2  0  0  0  0
 18 22  1  0  0  0  0
 19 21  2  0  0  0  0
 20 21  1  0  0  0  0
 20 24  1  0  0  0  0
 22 20  2  0  0  0  0
 23 24  1  0  0  0  0
 25 18  1  0  0  0  0
 25 26  1  0  0  0  0
 26 27  1  0  0  0  0
 28 26  1  0  0  0  0
 28 27  1  0  0  0  0
 29 30  1  0  0  0  0
 30 32  1  6  0  0  0
 31 29  1  0  0  0  0
 31 30  1  0  0  0  0
 32 35  1  0  0  0  0
 32 33  1  0  0  0  0
 34 35  2  0  0  0  0
 35 36  2  0  0  0  0
 37 40  1  0  0  0  0
 37 42  2  0  0  0  0
 38 35  1  0  0  0  0
 38 39  1  0  0  0  0
 40 38  2  0  0  0  0
 42 41  1  0  0  0  0
 42 39  1  0  0  0  0
 44 45  1  0  0  0  0
 44 43  2  0  0  0  0
 46 47  1  0  0  0  0
 47 45  1  0  0  0  0
 48 49  1  0  0  0  0
 48 44  1  0  0  0  0
 49 50  1  0  0  0  0
 52 51  1  0  0  0  0
M  END
>  <MODEL>
7

>  <REMARK>
 VINA RESULT:      -5.3      2.944      7.907
  Name = 
  14 active torsions:
  status: ('A' for Active; 'I' for Inactive)
    1  A    between atoms: C_2  and  C_11
    2  A    between atoms: C_3  and  C_26
    3  A    between atoms: O_9  and  C_14
    4  A    between atoms: O_9  and  C_17
    5  A    between atoms: N_12  and  C_36
    6  A    between atoms: N_15  and  S_21
    7  A    between atoms: N_15  and  C_40
    8  A    between atoms: C_16  and  S_21
    9  A    between atoms: C_18  and  C_39
   10  A    between atoms: C_23  and  C_42
   11  A    between atoms: C_27  and  O_46
   12  A    between atoms: C_36  and  C_51
   13  A    between atoms: C_39  and  C_51
   14  A    between atoms: N_43  and  C_47
                            x       y       z     vdW  Elec       q    Type
                         _______ _______ _______ _____ _____    ______ ____

>  <TORSDO>
F 14

$$$$
=
 OpenBabel11062421383D

 52 58  0  0  1  0  0  0  0  0999 V2000
  192.5690  175.6490  146.3060 C   0  0  0  0  0  0  0  0  0  0  0  0
  190.8180  174.5560  143.8650 C   0  0  2  0  0  3  0  0  0  0  0  0
  196.6520  172.6890  143.5620 C   0  0  2  0  0  3  0  0  0  0  0  0
  190.6390  174.5020  145.2770 O   0  0  0  0  0  0  0  0  0  0  0  0
  196.0800  172.9750  142.1580 C   0  0  0  0  0  2  0  0  0  0  0  0
  193.8020  174.0020  141.5560 O   0  0  0  0  0  0  0  0  0  0  0  0
  193.0170  176.4380  147.1820 O   0  0  0  0  0  0  0  0  0  0  0  0
  193.3830  174.3030  144.3370 C   0  0  0  0  0  0  0  0  0  0  0  0
  192.2720  174.7260  143.3760 C   0  0  1  0  0  3  0  0  0  0  0  0
  191.1200  175.4880  146.1340 C   0  0  0  0  0  0  0  0  0  0  0  0
  194.5690  173.6510  143.7620 C   0  0  0  0  0  0  0  0  0  0  0  0
  193.5250  174.8130  145.5680 C   0  0  0  0  0  3  0  0  0  0  0  0
  194.7520  173.5580  142.4730 C   0  0  0  0  0  0  0  0  0  0  0  0
  192.4280  174.1200  141.9450 C   0  0  2  0  0  3  0  0  0  0  0  0
  190.2630  176.2350  146.8260 C   0  0  0  0  0  3  0  0  0  0  0  0
  195.6530  173.1590  144.4640 O   0  0  0  0  0  0  0  0  0  0  0  0
  189.8990  175.5590  143.2290 C   0  0  0  0  0  0  0  0  0  0  0  0
  188.6320  175.1590  142.7710 C   0  0  0  0  0  0  0  0  0  0  0  0
  190.3140  176.8860  143.0550 C   0  0  0  0  0  3  0  0  0  0  0  0
  188.2420  177.4130  141.9210 C   0  0  0  0  0  0  0  0  0  0  0  0
  189.4890  177.8070  142.4090 C   0  0  0  0  0  3  0  0  0  0  0  0
  187.8120  176.0900  142.1160 C   0  0  0  0  0  3  0  0  0  0  0  0
  186.6210  177.9880  140.1440 C   0  0  0  0  0  1  0  0  0  0  0  0
  187.4550  178.3440  141.2390 O   0  0  0  0  0  0  0  0  0  0  0  0
  188.2150  173.8370  142.9640 O   0  0  0  0  0  0  0  0  0  0  0  0
  187.4500  173.1210  142.0040 C   0  0  0  0  0  3  0  0  0  0  0  0
  188.2290  171.9030  141.5540 C   0  0  0  0  0  2  0  0  0  0  0  0
  188.1790  173.1360  140.6770 C   0  0  0  0  0  2  0  0  0  0  0  0
  187.7030  175.7490  145.9600 O   0  0  0  0  0  0  0  0  0  0  0  0
  187.4810  176.3130  147.1140 C   0  0  1  0  0  3  0  0  0  0  0  0
  188.8580  176.0270  146.7040 N   0  0  0  0  0  0  0  0  0  0  0  0
  187.1760  177.7250  146.9090 N   0  0  0  0  0  0  0  0  0  0  0  0
  187.4550  178.4150  148.1580 C   0  0  0  0  0  1  0  0  0  0  0  0
  184.8350  176.4860  146.7760 O   0  0  0  0  0  0  0  0  0  0  0  0
  185.4650  177.8430  146.6210 S   0  0  0  0  0  0  0  0  0  0  0  0
  184.8350  178.7830  147.6100 O   0  0  0  0  0  0  0  0  0  0  0  0
  185.2390  179.6350  143.1620 N   0  0  0  0  0  0  0  0  0  0  0  0
  185.1560  178.4310  144.9980 C   0  0  0  0  0  0  0  0  0  0  0  0
  184.3250  177.8760  144.1540 O   0  0  0  0  0  0  0  0  0  0  0  0
  185.7420  179.5300  144.4100 C   0  0  0  0  0  3  0  0  0  0  0  0
  183.5860  178.3080  141.8400 C   0  0  0  0  0  1  0  0  0  0  0  0
  184.3800  178.6000  143.0620 C   0  0  0  0  0  0  0  0  0  0  0  0
  191.7720  172.7710  141.8250 C   0  0  0  0  0  3  0  0  0  0  0  0
  191.7110  172.0730  140.6850 C   0  0  0  0  0  0  0  0  0  0  0  0
  191.0460  170.7280  140.7310 C   0  0  0  0  0  2  0  0  0  0  0  0
  192.5260  168.9370  140.5090 C   0  0  0  0  0  1  0  0  0  0  0  0
  191.6270  169.8050  139.7670 N   0  0  0  0  0  2  0  0  0  0  0  0
  192.2870  172.6160  139.4060 C   0  0  0  0  0  2  0  0  0  0  0  0
  191.2440  173.4000  138.6290 C   0  0  0  0  0  2  0  0  0  0  0  0
  190.4850  172.5380  137.8380 O   0  0  0  0  0  1  0  0  0  0  0  0
  197.9390  173.4710  143.7810 C   0  0  0  0  0  2  0  0  0  0  0  0
  197.9100  174.1800  145.1200 C   0  0  0  0  0  1  0  0  0  0  0  0
  1  7  2  0  0  0  0
  2 17  1  1  0  0  0
  2  4  1  0  0  0  0
  3 51  1  1  0  0  0
  3 16  1  0  0  0  0
  4 10  1  0  0  0  0
  5 13  1  0  0  0  0
  5  3  1  0  0  0  0
  6 14  1  0  0  0  0
  6 13  1  0  0  0  0
  8 12  2  0  0  0  0
  9  2  1  0  0  0  0
  9  8  1  1  0  0  0
 10  1  1  0  0  0  0
 10 15  2  0  0  0  0
 11  8  1  0  0  0  0
 11 16  1  0  0  0  0
 12  1  1  0  0  0  0
 13 11  2  0  0  0  0
 14 43  1  1  0  0  0
 14  9  1  0  0  0  0
 18 25  1  0  0  0  0
 18 17  2  0  0  0  0
 19 17  1  0  0  0  0
 20 22  2  0  0  0  0
 20 21  1  0  0  0  0
 21 19  2  0  0  0  0
 22 18  1  0  0  0  0
 23 24  1  0  0  0  0
 24 20  1  0  0  0  0
 26 25  1  0  0  0  0
 27 26  1  0  0  0  0
 28 27  1  0  0  0  0
 28 26  1  0  0  0  0
 29 31  1  0  0  0  0
 29 30  1  0  0  0  0
 30 32  1  6  0  0  0
 31 15  1  0  0  0  0
 31 30  1  0  0  0  0
 32 33  1  0  0  0  0
 35 34  2  0  0  0  0
 35 32  1  0  0  0  0
 35 36  2  0  0  0  0
 37 40  1  0  0  0  0
 38 35  1  0  0  0  0
 39 38  1  0  0  0  0
 40 38  2  0  0  0  0
 41 42  1  0  0  0  0
 42 37  2  0  0  0  0
 42 39  1  0  0  0  0
 44 45  1  0  0  0  0
 44 43  2  0  0  0  0
 47 46  1  0  0  0  0
 47 45  1  0  0  0  0
 48 44  1  0  0  0  0
 49 48  1  0  0  0  0
 50 49  1  0  0  0  0
 51 52  1  0  0  0  0
M  END
>  <MODEL>
8

>  <REMARK>
 VINA RESULT:      -5.2      3.261      8.669
  Name = 
  14 active torsions:
  status: ('A' for Active; 'I' for Inactive)
    1  A    between atoms: C_2  and  C_11
    2  A    between atoms: C_3  and  C_26
    3  A    between atoms: O_9  and  C_14
    4  A    between atoms: O_9  and  C_17
    5  A    between atoms: N_12  and  C_36
    6  A    between atoms: N_15  and  S_21
    7  A    between atoms: N_15  and  C_40
    8  A    between atoms: C_16  and  S_21
    9  A    between atoms: C_18  and  C_39
   10  A    between atoms: C_23  and  C_42
   11  A    between atoms: C_27  and  O_46
   12  A    between atoms: C_36  and  C_51
   13  A    between atoms: C_39  and  C_51
   14  A    between atoms: N_43  and  C_47
                            x       y       z     vdW  Elec       q    Type
                         _______ _______ _______ _____ _____    ______ ____

>  <TORSDO>
F 14

$$$$
=
 OpenBabel11062421383D

 52 58  0  0  1  0  0  0  0  0999 V2000
  195.0240  176.3380  143.4160 C   0  0  0  0  0  0  0  0  0  0  0  0
  192.8080  174.4900  142.0400 C   0  0  2  0  0  3  0  0  0  0  0  0
  190.9590  176.7000  147.4540 C   0  0  2  0  0  3  0  0  0  0  0  0
  193.5410  175.6190  141.5770 O   0  0  0  0  0  0  0  0  0  0  0  0
  190.4390  175.2660  147.2260 C   0  0  0  0  0  2  0  0  0  0  0  0
  191.0150  173.6610  145.3020 O   0  0  0  0  0  0  0  0  0  0  0  0
  196.1550  176.7470  143.7970 O   0  0  0  0  0  0  0  0  0  0  0  0
  192.8010  175.6540  144.3870 C   0  0  0  0  0  0  0  0  0  0  0  0
  192.6510  174.3700  143.5720 C   0  0  1  0  0  3  0  0  0  0  0  0
  194.8260  175.9160  142.0240 C   0  0  0  0  0  0  0  0  0  0  0  0
  191.9170  175.8310  145.5490 C   0  0  0  0  0  0  0  0  0  0  0  0
  193.9000  176.4210  144.3590 C   0  0  0  0  0  3  0  0  0  0  0  0
  191.1280  174.8790  145.9690 C   0  0  0  0  0  0  0  0  0  0  0  0
  191.3560  173.5680  143.9150 C   0  0  2  0  0  3  0  0  0  0  0  0
  195.8470  175.8680  141.1720 C   0  0  0  0  0  3  0  0  0  0  0  0
  191.8680  176.9330  146.3810 O   0  0  0  0  0  0  0  0  0  0  0  0
  193.3160  173.2130  141.4350 C   0  0  0  0  0  0  0  0  0  0  0  0
  192.6910  172.6790  140.2960 C   0  0  0  0  0  0  0  0  0  0  0  0
  194.3900  172.5310  142.0230 C   0  0  0  0  0  3  0  0  0  0  0  0
  194.1910  170.7560  140.3900 C   0  0  0  0  0  0  0  0  0  0  0  0
  194.8260  171.3130  141.5020 C   0  0  0  0  0  3  0  0  0  0  0  0
  193.1320  171.4490  139.7820 C   0  0  0  0  0  3  0  0  0  0  0  0
  193.7250  168.5470  139.3810 C   0  0  0  0  0  1  0  0  0  0  0  0
  194.6190  169.5140  139.9150 O   0  0  0  0  0  0  0  0  0  0  0  0
  191.6310  173.3730  139.7010 O   0  0  0  0  0  0  0  0  0  0  0  0
  191.0780  173.0080  138.4450 C   0  0  0  0  0  3  0  0  0  0  0  0
  189.7510  173.7140  138.2600 C   0  0  0  0  0  2  0  0  0  0  0  0
  189.7830  172.2570  138.6710 C   0  0  0  0  0  2  0  0  0  0  0  0
  194.8120  175.2040  138.7170 O   0  0  0  0  0  0  0  0  0  0  0  0
  196.0590  174.8520  138.5750 C   0  0  1  0  0  3  0  0  0  0  0  0
  195.6370  175.5240  139.8060 N   0  0  0  0  0  0  0  0  0  0  0  0
  196.1810  173.4160  138.8000 N   0  0  0  0  0  0  0  0  0  0  0  0
  197.4070  173.1980  139.5520 C   0  0  0  0  0  1  0  0  0  0  0  0
  197.0710  173.6310  136.3110 O   0  0  0  0  0  0  0  0  0  0  0  0
  196.3870  172.6680  137.2430 S   0  0  0  0  0  0  0  0  0  0  0  0
  197.2330  171.4320  137.3670 O   0  0  0  0  0  0  0  0  0  0  0  0
  192.9060  172.3380  135.5110 N   0  0  0  0  0  0  0  0  0  0  0  0
  194.8310  172.2290  136.5650 C   0  0  0  0  0  0  0  0  0  0  0  0
  194.2920  171.0400  136.6540 O   0  0  0  0  0  0  0  0  0  0  0  0
  193.9910  173.0610  135.8580 C   0  0  0  0  0  3  0  0  0  0  0  0
  192.2090  169.9680  135.8810 C   0  0  0  0  0  1  0  0  0  0  0  0
  193.1450  171.1140  136.0230 C   0  0  0  0  0  0  0  0  0  0  0  0
  190.1770  174.0150  143.0940 C   0  0  0  0  0  3  0  0  0  0  0  0
  189.2150  173.1900  142.6640 C   0  0  0  0  0  0  0  0  0  0  0  0
  188.0860  173.7920  141.8770 C   0  0  0  0  0  2  0  0  0  0  0  0
  187.1260  175.9000  142.1600 C   0  0  0  0  0  1  0  0  0  0  0  0
  188.2930  175.2120  141.6350 N   0  0  0  0  0  2  0  0  0  0  0  0
  189.2620  171.7160  142.9600 C   0  0  0  0  0  2  0  0  0  0  0  0
  190.1230  170.9850  141.9450 C   0  0  0  0  0  2  0  0  0  0  0  0
  191.2210  170.4020  142.5760 O   0  0  0  0  0  1  0  0  0  0  0  0
  191.7060  176.7920  148.7770 C   0  0  0  0  0  2  0  0  0  0  0  0
  191.3970  178.1020  149.4730 C   0  0  0  0  0  1  0  0  0  0  0  0
  1  7  2  0  0  0  0
  1 12  1  0  0  0  0
  2 17  1  1  0  0  0
  2  9  1  0  0  0  0
  3 51  1  1  0  0  0
  4 10  1  0  0  0  0
  4  2  1  0  0  0  0
  5  3  1  0  0  0  0
  6 13  1  0  0  0  0
  8 11  1  0  0  0  0
  9 14  1  0  0  0  0
  9  8  1  1  0  0  0
 10  1  1  0  0  0  0
 11 13  2  0  0  0  0
 11 16  1  0  0  0  0
 12  8  2  0  0  0  0
 13  5  1  0  0  0  0
 14 43  1  6  0  0  0
 14  6  1  0  0  0  0
 15 10  2  0  0  0  0
 16  3  1  0  0  0  0
 17 19  1  0  0  0  0
 18 17  2  0  0  0  0
 20 21  1  0  0  0  0
 21 19  2  0  0  0  0
 22 18  1  0  0  0  0
 22 20  2  0  0  0  0
 23 24  1  0  0  0  0
 24 20  1  0  0  0  0
 25 18  1  0  0  0  0
 26 28  1  0  0  0  0
 26 25  1  0  0  0  0
 27 26  1  0  0  0  0
 27 28  1  0  0  0  0
 29 31  1  0  0  0  0
 30 29  1  0  0  0  0
 30 32  1  1  0  0  0
 30 31  1  0  0  0  0
 31 15  1  0  0  0  0
 32 33  1  0  0  0  0
 34 35  2  0  0  0  0
 35 36  2  0  0  0  0
 35 32  1  0  0  0  0
 37 40  1  0  0  0  0
 37 42  2  0  0  0  0
 38 39  1  0  0  0  0
 38 35  1  0  0  0  0
 40 38  2  0  0  0  0
 41 42  1  0  0  0  0
 42 39  1  0  0  0  0
 44 48  1  0  0  0  0
 44 43  2  0  0  0  0
 45 44  1  0  0  0  0
 47 45  1  0  0  0  0
 47 46  1  0  0  0  0
 49 50  1  0  0  0  0
 49 48  1  0  0  0  0
 51 52  1  0  0  0  0
M  END
>  <MODEL>
9

>  <REMARK>
 VINA RESULT:      -5.1      3.014      5.013
  Name = 
  14 active torsions:
  status: ('A' for Active; 'I' for Inactive)
    1  A    between atoms: C_2  and  C_11
    2  A    between atoms: C_3  and  C_26
    3  A    between atoms: O_9  and  C_14
    4  A    between atoms: O_9  and  C_17
    5  A    between atoms: N_12  and  C_36
    6  A    between atoms: N_15  and  S_21
    7  A    between atoms: N_15  and  C_40
    8  A    between atoms: C_16  and  S_21
    9  A    between atoms: C_18  and  C_39
   10  A    between atoms: C_23  and  C_42
   11  A    between atoms: C_27  and  O_46
   12  A    between atoms: C_36  and  C_51
   13  A    between atoms: C_39  and  C_51
   14  A    between atoms: N_43  and  C_47
                            x       y       z     vdW  Elec       q    Type
                         _______ _______ _______ _____ _____    ______ ____

>  <TORSDO>
F 14

$$$$
