=
 OpenBabel11062421253D

 31 33  0  0  1  0  0  0  0  0999 V2000
  189.7810  176.9110  142.5990 C   0  0  0  0  0  2  0  0  0  0  0  0
  190.2900  173.3380  143.4190 C   0  0  0  0  0  1  0  0  0  0  0  0
  191.9940  176.1850  143.6440 C   0  0  0  0  0  0  0  0  0  0  0  0
  192.1370  176.4610  144.9650 C   0  0  0  0  0  0  0  0  0  0  0  0
  188.5110  176.2880  142.2350 N   0  0  0  0  0  0  0  0  0  0  0  0
  190.9950  176.3180  145.9150 C   0  0  0  0  0  2  0  0  0  0  0  0
  190.6840  175.7780  143.0010 C   0  0  1  0  0  3  0  0  0  0  0  0
  189.4330  174.9890  145.1120 C   0  0  0  0  0  2  0  0  0  0  0  0
  188.4780  174.9500  142.8530 C   0  0  0  0  0  2  0  0  0  0  0  0
  190.5740  174.9880  145.9130 O   0  0  0  0  0  0  0  0  0  0  0  0
  189.7640  174.7440  143.6340 C   0  0  2  0  0  0  0  0  0  0  0  0
  193.5140  174.8800  142.1740 C   0  0  0  0  0  1  0  0  0  0  0  0
  193.1690  176.2580  142.7100 C   0  0  0  0  0  2  0  0  0  0  0  0
  187.3980  177.1380  142.6910 C   0  0  2  0  0  3  0  0  0  0  0  0
  186.9650  178.1810  141.6590 C   0  0  0  0  0  2  0  0  0  0  0  0
  186.0180  177.5660  140.6440 C   0  0  0  0  0  2  0  0  0  0  0  0
  183.9330  178.0630  141.7990 N   0  0  0  0  0  1  0  0  0  0  0  0
  184.7140  178.3400  140.6050 C   0  0  0  0  0  2  0  0  0  0  0  0
  187.7330  177.8020  144.0250 C   0  0  0  0  0  2  0  0  0  0  0  0
  186.2620  176.7550  145.7460 C   0  0  0  0  0  3  0  0  0  0  0  0
  185.5250  178.7650  145.0670 C   0  0  0  0  0  0  0  0  0  0  0  0
  184.9850  177.1010  146.4540 C   0  0  0  0  0  2  0  0  0  0  0  0
  185.4720  180.0520  144.3200 C   0  0  0  0  0  1  0  0  0  0  0  0
  184.6250  178.4100  145.9160 N   0  0  0  0  0  0  0  0  0  0  0  0
  186.5590  177.7630  144.9450 C   0  0  0  0  0  0  0  0  0  0  0  0
  193.4490  176.8890  145.5500 C   0  0  0  0  0  2  0  0  0  0  0  0
  194.0260  175.7920  146.4310 C   0  0  0  0  0  2  0  0  0  0  0  0
  195.1070  175.0270  145.6870 C   0  0  0  0  0  2  0  0  0  0  0  0
  193.3950  173.2420  145.3560 O   0  0  0  0  0  0  0  0  0  0  0  0
  195.6160  172.7040  145.5350 O   0  0  0  0  0  1  0  0  0  0  0  0
  194.7270  173.5940  145.5330 C   0  0  0  0  0  0  0  0  0  0  0  0
  3  4  2  0  0  0  0
  4 26  1  0  0  0  0
  4  6  1  0  0  0  0
  5  1  1  0  0  0  0
  5 14  1  0  0  0  0
  5  9  1  0  0  0  0
  7  1  1  1  0  0  0
  7 11  1  0  0  0  0
  7  3  1  0  0  0  0
  8 10  1  0  0  0  0
  9 11  1  0  0  0  0
 10  6  1  0  0  0  0
 11  2  1  6  0  0  0
 11  8  1  0  0  0  0
 12 13  1  0  0  0  0
 13  3  1  0  0  0  0
 14 15  1  6  0  0  0
 14 19  1  0  0  0  0
 16 15  1  0  0  0  0
 18 16  1  0  0  0  0
 18 17  1  0  0  0  0
 19 25  1  0  0  0  0
 20 22  1  0  0  0  0
 21 24  2  0  0  0  0
 23 21  1  0  0  0  0
 24 22  1  0  0  0  0
 25 21  1  0  0  0  0
 25 20  2  0  0  0  0
 26 27  1  0  0  0  0
 28 27  1  0  0  0  0
 29 31  2  0  0  0  0
 31 30  1  0  0  0  0
 31 28  1  0  0  0  0
M  END
>  <MODEL>
1

>  <REMARK>
 VINA RESULT:      -6.4      0.000      0.000
  Name = 
  11 active torsions:
  status: ('A' for Active; 'I' for Inactive)
    1  A    between atoms: C_7  and  C_10
    2  A    between atoms: C_7  and  C_31
    3  A    between atoms: C_8  and  C_18
    4  A    between atoms: C_8  and  C_19
    5  A    between atoms: C_9  and  C_13
    6  A    between atoms: C_10  and  C_26
    7  A    between atoms: C_12  and  C_26
    8  A    between atoms: C_15  and  N_16
    9  A    between atoms: C_15  and  C_19
   10  A    between atoms: C_15  and  C_22
   11  A    between atoms: C_22  and  C_29
                            x       y       z     vdW  Elec       q    Type
                         _______ _______ _______ _____ _____    ______ ____

>  <TORSDO>
F 11

$$$$
=
 OpenBabel11062421253D

 31 33  0  0  1  0  0  0  0  0999 V2000
  189.6380  174.7920  144.6800 C   0  0  0  0  0  2  0  0  0  0  0  0
  192.2580  176.4390  146.7110 C   0  0  0  0  0  1  0  0  0  0  0  0
  192.0900  174.2670  144.1980 C   0  0  0  0  0  0  0  0  0  0  0  0
  192.6170  174.8780  143.1080 C   0  0  0  0  0  0  0  0  0  0  0  0
  188.8840  175.6700  145.5720 N   0  0  0  0  0  0  0  0  0  0  0  0
  192.2670  176.2870  142.7630 C   0  0  0  0  0  2  0  0  0  0  0  0
  191.0720  174.9090  145.1190 C   0  0  1  0  0  3  0  0  0  0  0  0
  191.4850  177.3790  144.5090 C   0  0  0  0  0  2  0  0  0  0  0  0
  189.8360  176.6290  146.1620 C   0  0  0  0  0  2  0  0  0  0  0  0
  192.6640  177.1160  143.8120 O   0  0  0  0  0  0  0  0  0  0  0  0
  191.2210  176.3420  145.6090 C   0  0  2  0  0  0  0  0  0  0  0  0
  193.6800  172.9100  145.5420 C   0  0  0  0  0  1  0  0  0  0  0  0
  192.5070  172.8750  144.5790 C   0  0  0  0  0  2  0  0  0  0  0  0
  187.8170  176.3420  144.8120 C   0  0  2  0  0  3  0  0  0  0  0  0
  187.9750  176.2160  143.2950 C   0  0  0  0  0  2  0  0  0  0  0  0
  188.3180  177.5610  142.6810 C   0  0  0  0  0  2  0  0  0  0  0  0
  187.4910  176.4570  140.6760 N   0  0  0  0  0  1  0  0  0  0  0  0
  187.5950  177.7360  141.3600 C   0  0  0  0  0  2  0  0  0  0  0  0
  187.6980  177.8080  145.2250 C   0  0  0  0  0  2  0  0  0  0  0  0
  185.7820  177.5680  146.8040 C   0  0  0  0  0  3  0  0  0  0  0  0
  185.3430  178.9600  145.0980 C   0  0  0  0  0  0  0  0  0  0  0  0
  184.3830  178.0990  146.9190 C   0  0  0  0  0  2  0  0  0  0  0  0
  185.5470  179.7400  143.8460 C   0  0  0  0  0  1  0  0  0  0  0  0
  184.2380  178.9700  145.7560 N   0  0  0  0  0  0  0  0  0  0  0  0
  186.3250  178.1060  145.7270 C   0  0  0  0  0  0  0  0  0  0  0  0
  193.6000  174.1900  142.2090 C   0  0  0  0  0  2  0  0  0  0  0  0
  194.8020  175.0850  141.9460 C   0  0  0  0  0  2  0  0  0  0  0  0
  195.8860  174.8340  142.9800 C   0  0  0  0  0  2  0  0  0  0  0  0
  195.4300  176.0040  145.1360 O   0  0  0  0  0  1  0  0  0  0  0  0
  196.7250  176.9970  143.5260 O   0  0  0  0  0  0  0  0  0  0  0  0
  196.0330  176.0100  143.8850 C   0  0  0  0  0  0  0  0  0  0  0  0
  1  5  1  0  0  0  0
  3 13  1  0  0  0  0
  3  7  1  0  0  0  0
  4  3  2  0  0  0  0
  5  9  1  0  0  0  0
  6  4  1  0  0  0  0
  6 10  1  0  0  0  0
  7  1  1  6  0  0  0
  7 11  1  0  0  0  0
  8 11  1  0  0  0  0
 10  8  1  0  0  0  0
 11  9  1  0  0  0  0
 11  2  1  1  0  0  0
 13 12  1  0  0  0  0
 14 15  1  6  0  0  0
 14 19  1  0  0  0  0
 14  5  1  0  0  0  0
 16 15  1  0  0  0  0
 17 18  1  0  0  0  0
 18 16  1  0  0  0  0
 19 25  1  0  0  0  0
 20 22  1  0  0  0  0
 21 25  1  0  0  0  0
 21 24  2  0  0  0  0
 23 21  1  0  0  0  0
 24 22  1  0  0  0  0
 25 20  2  0  0  0  0
 26  4  1  0  0  0  0
 27 26  1  0  0  0  0
 27 28  1  0  0  0  0
 28 31  1  0  0  0  0
 30 31  2  0  0  0  0
 31 29  1  0  0  0  0
M  END
>  <MODEL>
2

>  <REMARK>
 VINA RESULT:      -6.3      1.893      3.103
  Name = 
  11 active torsions:
  status: ('A' for Active; 'I' for Inactive)
    1  A    between atoms: C_7  and  C_10
    2  A    between atoms: C_7  and  C_31
    3  A    between atoms: C_8  and  C_18
    4  A    between atoms: C_8  and  C_19
    5  A    between atoms: C_9  and  C_13
    6  A    between atoms: C_10  and  C_26
    7  A    between atoms: C_12  and  C_26
    8  A    between atoms: C_15  and  N_16
    9  A    between atoms: C_15  and  C_19
   10  A    between atoms: C_15  and  C_22
   11  A    between atoms: C_22  and  C_29
                            x       y       z     vdW  Elec       q    Type
                         _______ _______ _______ _____ _____    ______ ____

>  <TORSDO>
F 11

$$$$
=
 OpenBabel11062421253D

 31 33  0  0  1  0  0  0  0  0999 V2000
  189.5510  174.8810  143.7320 C   0  0  0  0  0  2  0  0  0  0  0  0
  190.3910  178.4730  144.0300 C   0  0  0  0  0  1  0  0  0  0  0  0
  187.6860  176.5490  144.2420 C   0  0  0  0  0  0  0  0  0  0  0  0
  187.2710  176.5860  145.5330 C   0  0  0  0  0  0  0  0  0  0  0  0
  191.0000  174.9130  143.5520 N   0  0  0  0  0  0  0  0  0  0  0  0
  188.2380  176.4640  146.6630 C   0  0  0  0  0  2  0  0  0  0  0  0
  189.1240  176.3200  143.8220 C   0  0  1  0  0  3  0  0  0  0  0  0
  190.2900  176.9530  146.0320 C   0  0  0  0  0  2  0  0  0  0  0  0
  191.4760  176.2310  144.0090 C   0  0  0  0  0  2  0  0  0  0  0  0
  189.1460  177.5200  146.5920 O   0  0  0  0  0  0  0  0  0  0  0  0
  190.2840  177.0350  144.4990 C   0  0  2  0  0  0  0  0  0  0  0  0
  187.1760  177.8740  142.2040 C   0  0  0  0  0  1  0  0  0  0  0  0
  186.7160  176.7500  143.1130 C   0  0  0  0  0  2  0  0  0  0  0  0
  191.6140  173.8080  144.3060 C   0  0  2  0  0  3  0  0  0  0  0  0
  190.6620  172.6360  144.5550 C   0  0  0  0  0  2  0  0  0  0  0  0
  191.0110  171.4650  143.6540 C   0  0  0  0  0  2  0  0  0  0  0  0
  190.7450  171.2570  141.2430 N   0  0  0  0  0  1  0  0  0  0  0  0
  190.0290  171.3780  142.5020 C   0  0  0  0  0  2  0  0  0  0  0  0
  192.2090  174.3120  145.6190 C   0  0  0  0  0  2  0  0  0  0  0  0
  194.3080  172.9820  145.4060 C   0  0  0  0  0  3  0  0  0  0  0  0
  194.6800  175.1230  145.9710 C   0  0  0  0  0  0  0  0  0  0  0  0
  195.7800  173.2220  145.5710 C   0  0  0  0  0  3  0  0  0  0  0  0
  194.3990  176.5430  146.3170 C   0  0  0  0  0  1  0  0  0  0  0  0
  195.8700  174.6320  145.9400 N   0  0  0  0  0  0  0  0  0  0  0  0
  193.6890  174.1260  145.6360 C   0  0  2  0  0  3  0  0  0  0  0  0
  185.8310  176.7860  145.8990 C   0  0  0  0  0  2  0  0  0  0  0  0
  185.5980  178.2020  146.4020 C   0  0  0  0  0  2  0  0  0  0  0  0
  184.2890  178.7500  145.8600 C   0  0  0  0  0  2  0  0  0  0  0  0
  185.4290  180.2020  144.1810 O   0  0  0  0  0  1  0  0  0  0  0  0
  183.7540  178.7760  143.5370 O   0  0  0  0  0  0  0  0  0  0  0  0
  184.4630  179.2450  144.4640 C   0  0  0  0  0  0  0  0  0  0  0  0
  3  4  2  0  0  0  0
  4 26  1  0  0  0  0
  4  6  1  0  0  0  0
  5  1  1  0  0  0  0
  5  9  1  0  0  0  0
  5 14  1  0  0  0  0
  7  1  1  1  0  0  0
  7  3  1  0  0  0  0
  7 11  1  0  0  0  0
  8 10  1  0  0  0  0
  9 11  1  0  0  0  0
 10  6  1  0  0  0  0
 11  2  1  6  0  0  0
 11  8  1  0  0  0  0
 12 13  1  0  0  0  0
 13  3  1  0  0  0  0
 14 15  1  1  0  0  0
 14 19  1  0  0  0  0
 16 15  1  0  0  0  0
 17 18  1  0  0  0  0
 18 16  1  0  0  0  0
 20 22  2  0  0  0  0
 20 25  1  0  0  0  0
 21 23  1  0  0  0  0
 22 24  1  0  0  0  0
 24 21  2  0  0  0  0
 25 19  1  1  0  0  0
 25 21  1  0  0  0  0
 26 27  1  0  0  0  0
 28 27  1  0  0  0  0
 29 31  1  0  0  0  0
 30 31  2  0  0  0  0
 31 28  1  0  0  0  0
M  END
>  <MODEL>
3

>  <REMARK>
 VINA RESULT:      -6.3      3.092      7.816
  Name = 
  11 active torsions:
  status: ('A' for Active; 'I' for Inactive)
    1  A    between atoms: C_7  and  C_10
    2  A    between atoms: C_7  and  C_31
    3  A    between atoms: C_8  and  C_18
    4  A    between atoms: C_8  and  C_19
    5  A    between atoms: C_9  and  C_13
    6  A    between atoms: C_10  and  C_26
    7  A    between atoms: C_12  and  C_26
    8  A    between atoms: C_15  and  N_16
    9  A    between atoms: C_15  and  C_19
   10  A    between atoms: C_15  and  C_22
   11  A    between atoms: C_22  and  C_29
                            x       y       z     vdW  Elec       q    Type
                         _______ _______ _______ _____ _____    ______ ____

>  <TORSDO>
F 11

$$$$
=
 OpenBabel11062421253D

 31 33  0  0  1  0  0  0  0  0999 V2000
  189.1220  175.4120  143.9970 C   0  0  0  0  0  2  0  0  0  0  0  0
  189.0740  174.5610  147.5990 C   0  0  0  0  0  1  0  0  0  0  0  0
  191.0930  174.1290  144.9920 C   0  0  0  0  0  0  0  0  0  0  0  0
  192.2100  174.8630  145.2280 C   0  0  0  0  0  0  0  0  0  0  0  0
  187.8810  176.0120  144.4780 N   0  0  0  0  0  0  0  0  0  0  0  0
  192.1270  176.2570  145.7520 C   0  0  0  0  0  2  0  0  0  0  0  0
  189.6830  174.6550  145.1700 C   0  0  1  0  0  3  0  0  0  0  0  0
  190.1920  176.6410  146.7320 C   0  0  0  0  0  2  0  0  0  0  0  0
  187.9440  176.0470  145.9500 C   0  0  0  0  0  2  0  0  0  0  0  0
  191.4980  176.2300  146.9960 O   0  0  0  0  0  0  0  0  0  0  0  0
  189.2720  175.4600  146.3930 C   0  0  2  0  0  0  0  0  0  0  0  0
  189.8520  172.0000  144.6830 C   0  0  0  0  0  1  0  0  0  0  0  0
  191.1900  172.7010  144.5370 C   0  0  0  0  0  2  0  0  0  0  0  0
  187.7280  177.3570  143.8970 C   0  0  2  0  0  3  0  0  0  0  0  0
  188.9670  177.8380  143.1390 C   0  0  0  0  0  2  0  0  0  0  0  0
  188.6100  178.1960  141.7070 C   0  0  0  0  0  2  0  0  0  0  0  0
  187.6540  176.2460  140.6070 N   0  0  0  0  0  1  0  0  0  0  0  0
  187.3350  177.4880  141.2910 C   0  0  0  0  0  2  0  0  0  0  0  0
  187.3190  178.3670  144.9660 C   0  0  0  0  0  2  0  0  0  0  0  0
  185.1860  178.9780  143.8260 C   0  0  0  0  0  3  0  0  0  0  0  0
  184.9330  178.6240  146.0290 C   0  0  0  0  0  0  0  0  0  0  0  0
  183.7550  179.1920  144.2200 C   0  0  0  0  0  3  0  0  0  0  0  0
  185.2850  178.3040  147.4400 C   0  0  0  0  0  1  0  0  0  0  0  0
  183.7420  178.9400  145.6580 N   0  0  0  0  0  0  0  0  0  0  0  0
  185.8510  178.6300  144.9130 C   0  0  2  0  0  3  0  0  0  0  0  0
  193.5860  174.3070  145.0080 C   0  0  0  0  0  2  0  0  0  0  0  0
  194.5940  175.0050  145.9080 C   0  0  0  0  0  2  0  0  0  0  0  0
  196.0090  174.7430  145.4230 C   0  0  0  0  0  2  0  0  0  0  0  0
  196.0900  176.7280  143.9130 O   0  0  0  0  0  1  0  0  0  0  0  0
  196.5670  174.6350  143.1080 O   0  0  0  0  0  0  0  0  0  0  0  0
  196.2290  175.3560  144.0820 C   0  0  0  0  0  0  0  0  0  0  0  0
  1  5  1  0  0  0  0
  3  7  1  0  0  0  0
  3  4  2  0  0  0  0
  4  6  1  0  0  0  0
  5  9  1  0  0  0  0
  6 10  1  0  0  0  0
  7  1  1  6  0  0  0
  7 11  1  0  0  0  0
  8 10  1  0  0  0  0
  9 11  1  0  0  0  0
 11  8  1  0  0  0  0
 11  2  1  1  0  0  0
 13 12  1  0  0  0  0
 13  3  1  0  0  0  0
 14 15  1  1  0  0  0
 14  5  1  0  0  0  0
 14 19  1  0  0  0  0
 16 15  1  0  0  0  0
 17 18  1  0  0  0  0
 18 16  1  0  0  0  0
 20 22  2  0  0  0  0
 20 25  1  0  0  0  0
 21 23  1  0  0  0  0
 22 24  1  0  0  0  0
 24 21  2  0  0  0  0
 25 19  1  1  0  0  0
 25 21  1  0  0  0  0
 26  4  1  0  0  0  0
 26 27  1  0  0  0  0
 28 27  1  0  0  0  0
 29 31  1  0  0  0  0
 30 31  2  0  0  0  0
 31 28  1  0  0  0  0
M  END
>  <MODEL>
4

>  <REMARK>
 VINA RESULT:      -6.3      1.895      2.869
  Name = 
  11 active torsions:
  status: ('A' for Active; 'I' for Inactive)
    1  A    between atoms: C_7  and  C_10
    2  A    between atoms: C_7  and  C_31
    3  A    between atoms: C_8  and  C_18
    4  A    between atoms: C_8  and  C_19
    5  A    between atoms: C_9  and  C_13
    6  A    between atoms: C_10  and  C_26
    7  A    between atoms: C_12  and  C_26
    8  A    between atoms: C_15  and  N_16
    9  A    between atoms: C_15  and  C_19
   10  A    between atoms: C_15  and  C_22
   11  A    between atoms: C_22  and  C_29
                            x       y       z     vdW  Elec       q    Type
                         _______ _______ _______ _____ _____    ______ ____

>  <TORSDO>
F 11

$$$$
=
 OpenBabel11062421253D

 31 33  0  0  1  0  0  0  0  0999 V2000
  189.6120  176.7830  143.1580 C   0  0  0  0  0  2  0  0  0  0  0  0
  190.1590  173.8660  140.9460 C   0  0  0  0  0  1  0  0  0  0  0  0
  191.8280  175.5220  143.2980 C   0  0  0  0  0  0  0  0  0  0  0  0
  191.9590  174.6850  144.3580 C   0  0  0  0  0  0  0  0  0  0  0  0
  188.3520  176.6600  142.4300 N   0  0  0  0  0  0  0  0  0  0  0  0
  190.8140  173.8610  144.8420 C   0  0  0  0  0  2  0  0  0  0  0  0
  190.5260  175.7510  142.5570 C   0  0  1  0  0  3  0  0  0  0  0  0
  189.2720  173.6220  143.2880 C   0  0  0  0  0  2  0  0  0  0  0  0
  188.3310  175.3280  141.7980 C   0  0  0  0  0  2  0  0  0  0  0  0
  190.4090  173.0100  143.8150 O   0  0  0  0  0  0  0  0  0  0  0  0
  189.6150  174.6010  142.1570 C   0  0  2  0  0  0  0  0  0  0  0  0
  193.6420  175.5610  141.6010 C   0  0  0  0  0  1  0  0  0  0  0  0
  193.0070  176.2900  142.7710 C   0  0  0  0  0  2  0  0  0  0  0  0
  187.2270  176.8510  143.3600 C   0  0  2  0  0  3  0  0  0  0  0  0
  185.8720  176.9860  142.6600 C   0  0  0  0  0  2  0  0  0  0  0  0
  185.7990  178.2910  141.8880 C   0  0  0  0  0  2  0  0  0  0  0  0
  186.3660  177.5340  139.6460 N   0  0  0  0  0  1  0  0  0  0  0  0
  185.2910  178.0420  140.4810 C   0  0  0  0  0  2  0  0  0  0  0  0
  187.4810  178.0420  144.2830 C   0  0  0  0  0  2  0  0  0  0  0  0
  185.6700  178.6670  145.8800 C   0  0  0  0  0  3  0  0  0  0  0  0
  186.9690  176.9990  146.6360 C   0  0  0  0  0  0  0  0  0  0  0  0
  185.2120  178.2350  147.2410 C   0  0  0  0  0  2  0  0  0  0  0  0
  188.0600  175.9870  146.6710 C   0  0  0  0  0  1  0  0  0  0  0  0
  186.1380  177.1670  147.6050 N   0  0  0  0  0  0  0  0  0  0  0  0
  186.6990  177.9090  145.5460 C   0  0  0  0  0  0  0  0  0  0  0  0
  193.2630  174.5150  145.0790 C   0  0  0  0  0  2  0  0  0  0  0  0
  193.0870  174.7690  146.5690 C   0  0  0  0  0  2  0  0  0  0  0  0
  192.6250  176.1940  146.8130 C   0  0  0  0  0  2  0  0  0  0  0  0
  191.3240  177.4350  148.5430 O   0  0  0  0  0  1  0  0  0  0  0  0
  190.9730  175.1940  148.2110 O   0  0  0  0  0  0  0  0  0  0  0  0
  191.6030  176.2370  147.8980 C   0  0  0  0  0  0  0  0  0  0  0  0
  3  4  2  0  0  0  0
  4  6  1  0  0  0  0
  4 26  1  0  0  0  0
  5  1  1  0  0  0  0
  5 14  1  0  0  0  0
  7  1  1  1  0  0  0
  7  3  1  0  0  0  0
  8 10  1  0  0  0  0
  9 11  1  0  0  0  0
  9  5  1  0  0  0  0
 10  6  1  0  0  0  0
 11  2  1  6  0  0  0
 11  7  1  0  0  0  0
 11  8  1  0  0  0  0
 12 13  1  0  0  0  0
 13  3  1  0  0  0  0
 14 15  1  6  0  0  0
 14 19  1  0  0  0  0
 16 15  1  0  0  0  0
 17 18  1  0  0  0  0
 18 16  1  0  0  0  0
 19 25  1  0  0  0  0
 20 22  1  0  0  0  0
 21 23  1  0  0  0  0
 21 24  2  0  0  0  0
 22 24  1  0  0  0  0
 25 20  2  0  0  0  0
 25 21  1  0  0  0  0
 26 27  1  0  0  0  0
 27 28  1  0  0  0  0
 28 31  1  0  0  0  0
 31 30  2  0  0  0  0
 31 29  1  0  0  0  0
M  END
>  <MODEL>
5

>  <REMARK>
 VINA RESULT:      -6.2      1.842      2.601
  Name = 
  11 active torsions:
  status: ('A' for Active; 'I' for Inactive)
    1  A    between atoms: C_7  and  C_10
    2  A    between atoms: C_7  and  C_31
    3  A    between atoms: C_8  and  C_18
    4  A    between atoms: C_8  and  C_19
    5  A    between atoms: C_9  and  C_13
    6  A    between atoms: C_10  and  C_26
    7  A    between atoms: C_12  and  C_26
    8  A    between atoms: C_15  and  N_16
    9  A    between atoms: C_15  and  C_19
   10  A    between atoms: C_15  and  C_22
   11  A    between atoms: C_22  and  C_29
                            x       y       z     vdW  Elec       q    Type
                         _______ _______ _______ _____ _____    ______ ____

>  <TORSDO>
F 11

$$$$
=
 OpenBabel11062421253D

 31 33  0  0  1  0  0  0  0  0999 V2000
  188.9720  175.7210  144.8780 C   0  0  0  0  0  2  0  0  0  0  0  0
  191.4870  178.3880  144.3680 C   0  0  0  0  0  1  0  0  0  0  0  0
  191.3300  175.3910  145.8010 C   0  0  0  0  0  0  0  0  0  0  0  0
  192.1290  174.5640  145.0820 C   0  0  0  0  0  0  0  0  0  0  0  0
  188.2580  176.7230  144.0900 N   0  0  0  0  0  0  0  0  0  0  0  0
  192.1060  174.5650  143.5900 C   0  0  0  0  0  2  0  0  0  0  0  0
  190.3120  176.3300  145.1850 C   0  0  1  0  0  3  0  0  0  0  0  0
  191.2670  176.4390  142.7930 C   0  0  0  0  0  2  0  0  0  0  0  0
  189.2620  177.6450  143.5290 C   0  0  0  0  0  2  0  0  0  0  0  0
  192.4740  175.8320  143.1380 O   0  0  0  0  0  0  0  0  0  0  0  0
  190.6410  177.1920  143.9750 C   0  0  2  0  0  0  0  0  0  0  0  0
  191.3030  176.8660  147.8010 C   0  0  0  0  0  1  0  0  0  0  0  0
  191.4150  175.4370  147.3000 C   0  0  0  0  0  2  0  0  0  0  0  0
  187.4710  176.0540  143.0420 C   0  0  2  0  0  3  0  0  0  0  0  0
  187.8460  176.4910  141.6240 C   0  0  0  0  0  2  0  0  0  0  0  0
  187.9880  175.2840  140.7140 C   0  0  0  0  0  2  0  0  0  0  0  0
  189.8420  173.7160  140.8770 N   0  0  0  0  0  1  0  0  0  0  0  0
  188.5810  174.1160  141.4780 C   0  0  0  0  0  2  0  0  0  0  0  0
  185.9750  176.2360  143.2870 C   0  0  0  0  0  2  0  0  0  0  0  0
  185.7300  178.7180  143.2660 C   0  0  0  0  0  3  0  0  0  0  0  0
  185.4220  177.8230  145.3020 C   0  0  0  0  0  0  0  0  0  0  0  0
  185.4430  179.8000  144.2650 C   0  0  0  0  0  2  0  0  0  0  0  0
  185.3190  176.7940  146.3730 C   0  0  0  0  0  1  0  0  0  0  0  0
  185.2750  179.0830  145.5250 N   0  0  0  0  0  0  0  0  0  0  0  0
  185.6970  177.5640  143.9070 C   0  0  0  0  0  0  0  0  0  0  0  0
  193.1010  173.6300  145.7390 C   0  0  0  0  0  2  0  0  0  0  0  0
  194.5130  173.8860  145.2360 C   0  0  0  0  0  2  0  0  0  0  0  0
  195.2000  174.9330  146.0950 C   0  0  0  0  0  2  0  0  0  0  0  0
  195.6900  176.5670  144.2740 O   0  0  0  0  0  0  0  0  0  0  0  0
  194.3680  177.1660  146.0480 O   0  0  0  0  0  1  0  0  0  0  0  0
  195.0670  176.2860  145.4830 C   0  0  0  0  0  0  0  0  0  0  0  0
  3 13  1  0  0  0  0
  4 26  1  0  0  0  0
  4  3  2  0  0  0  0
  5  1  1  0  0  0  0
  6  4  1  0  0  0  0
  7  1  1  6  0  0  0
  7  3  1  0  0  0  0
  8 10  1  0  0  0  0
  8 11  1  0  0  0  0
  9 11  1  0  0  0  0
  9  5  1  0  0  0  0
 10  6  1  0  0  0  0
 11  2  1  1  0  0  0
 11  7  1  0  0  0  0
 13 12  1  0  0  0  0
 14 15  1  6  0  0  0
 14 19  1  0  0  0  0
 14  5  1  0  0  0  0
 16 18  1  0  0  0  0
 16 15  1  0  0  0  0
 17 18  1  0  0  0  0
 19 25  1  0  0  0  0
 20 25  2  0  0  0  0
 20 22  1  0  0  0  0
 21 24  2  0  0  0  0
 21 23  1  0  0  0  0
 22 24  1  0  0  0  0
 25 21  1  0  0  0  0
 27 26  1  0  0  0  0
 27 28  1  0  0  0  0
 29 31  2  0  0  0  0
 31 30  1  0  0  0  0
 31 28  1  0  0  0  0
M  END
>  <MODEL>
6

>  <REMARK>
 VINA RESULT:      -6.0      1.962      3.496
  Name = 
  11 active torsions:
  status: ('A' for Active; 'I' for Inactive)
    1  A    between atoms: C_7  and  C_10
    2  A    between atoms: C_7  and  C_31
    3  A    between atoms: C_8  and  C_18
    4  A    between atoms: C_8  and  C_19
    5  A    between atoms: C_9  and  C_13
    6  A    between atoms: C_10  and  C_26
    7  A    between atoms: C_12  and  C_26
    8  A    between atoms: C_15  and  N_16
    9  A    between atoms: C_15  and  C_19
   10  A    between atoms: C_15  and  C_22
   11  A    between atoms: C_22  and  C_29
                            x       y       z     vdW  Elec       q    Type
                         _______ _______ _______ _____ _____    ______ ____

>  <TORSDO>
F 11

$$$$
=
 OpenBabel11062421253D

 31 33  0  0  1  0  0  0  0  0999 V2000
  188.1580  175.7610  144.3930 C   0  0  0  0  0  2  0  0  0  0  0  0
  190.6170  176.8100  146.9520 C   0  0  0  0  0  1  0  0  0  0  0  0
  190.5310  174.8270  144.2840 C   0  0  0  0  0  0  0  0  0  0  0  0
  191.3380  175.3850  143.3460 C   0  0  0  0  0  0  0  0  0  0  0  0
  187.4170  176.7160  145.2130 N   0  0  0  0  0  0  0  0  0  0  0  0
  191.2980  176.8490  143.0610 C   0  0  0  0  0  2  0  0  0  0  0  0
  189.4900  175.5970  145.0710 C   0  0  1  0  0  3  0  0  0  0  0  0
  190.4160  177.9780  144.7330 C   0  0  0  0  0  2  0  0  0  0  0  0
  188.3970  177.4580  146.0260 C   0  0  0  0  0  2  0  0  0  0  0  0
  191.6370  177.5410  144.2230 O   0  0  0  0  0  0  0  0  0  0  0  0
  189.7890  176.9540  145.6890 C   0  0  2  0  0  0  0  0  0  0  0  0
  189.6920  172.5500  143.7510 C   0  0  0  0  0  1  0  0  0  0  0  0
  190.6330  173.3660  144.6180 C   0  0  0  0  0  2  0  0  0  0  0  0
  186.6300  177.6050  144.3420 C   0  0  2  0  0  3  0  0  0  0  0  0
  185.9730  178.7670  145.0910 C   0  0  0  0  0  2  0  0  0  0  0  0
  184.7030  178.3050  145.7840 C   0  0  0  0  0  2  0  0  0  0  0  0
  185.9360  179.3840  147.5830 N   0  0  0  0  0  1  0  0  0  0  0  0
  184.8200  178.5030  147.2830 C   0  0  0  0  0  2  0  0  0  0  0  0
  185.5910  176.8120  143.5530 C   0  0  0  0  0  2  0  0  0  0  0  0
  184.0900  178.0760  142.0140 C   0  0  0  0  0  3  0  0  0  0  0  0
  186.0890  177.6130  141.1040 C   0  0  0  0  0  0  0  0  0  0  0  0
  184.1530  178.6080  140.6120 C   0  0  0  0  0  3  0  0  0  0  0  0
  187.4740  177.0820  140.9750 C   0  0  0  0  0  1  0  0  0  0  0  0
  185.4860  178.2320  140.1500 N   0  0  0  0  0  0  0  0  0  0  0  0
  185.2520  177.5070  142.2770 C   0  0  2  0  0  3  0  0  0  0  0  0
  192.3340  174.5750  142.5710 C   0  0  0  0  0  2  0  0  0  0  0  0
  193.7090  175.2230  142.6270 C   0  0  0  0  0  2  0  0  0  0  0  0
  194.3490  174.9940  143.9850 C   0  0  0  0  0  2  0  0  0  0  0  0
  194.5060  176.9190  145.5650 O   0  0  0  0  0  1  0  0  0  0  0  0
  196.0590  176.6530  143.9010 O   0  0  0  0  0  0  0  0  0  0  0  0
  195.0160  176.2370  144.4690 C   0  0  0  0  0  0  0  0  0  0  0  0
  1  5  1  0  0  0  0
  3 13  1  0  0  0  0
  3  7  1  0  0  0  0
  4  3  2  0  0  0  0
  5  9  1  0  0  0  0
  6  4  1  0  0  0  0
  6 10  1  0  0  0  0
  7  1  1  6  0  0  0
  7 11  1  0  0  0  0
  8 11  1  0  0  0  0
 10  8  1  0  0  0  0
 11  9  1  0  0  0  0
 11  2  1  1  0  0  0
 12 13  1  0  0  0  0
 14 19  1  1  0  0  0
 14 15  1  0  0  0  0
 14  5  1  0  0  0  0
 15 16  1  0  0  0  0
 16 18  1  0  0  0  0
 18 17  1  0  0  0  0
 20 25  1  0  0  0  0
 21 25  1  0  0  0  0
 22 20  2  0  0  0  0
 23 21  1  0  0  0  0
 24 22  1  0  0  0  0
 24 21  2  0  0  0  0
 25 19  1  6  0  0  0
 26 27  1  0  0  0  0
 26  4  1  0  0  0  0
 27 28  1  0  0  0  0
 28 31  1  0  0  0  0
 30 31  2  0  0  0  0
 31 29  1  0  0  0  0
M  END
>  <MODEL>
7

>  <REMARK>
 VINA RESULT:      -6.0      1.909      4.033
  Name = 
  11 active torsions:
  status: ('A' for Active; 'I' for Inactive)
    1  A    between atoms: C_7  and  C_10
    2  A    between atoms: C_7  and  C_31
    3  A    between atoms: C_8  and  C_18
    4  A    between atoms: C_8  and  C_19
    5  A    between atoms: C_9  and  C_13
    6  A    between atoms: C_10  and  C_26
    7  A    between atoms: C_12  and  C_26
    8  A    between atoms: C_15  and  N_16
    9  A    between atoms: C_15  and  C_19
   10  A    between atoms: C_15  and  C_22
   11  A    between atoms: C_22  and  C_29
                            x       y       z     vdW  Elec       q    Type
                         _______ _______ _______ _____ _____    ______ ____

>  <TORSDO>
F 11

$$$$
=
 OpenBabel11062421253D

 31 33  0  0  1  0  0  0  0  0999 V2000
  190.6710  176.6470  143.0680 C   0  0  0  0  0  2  0  0  0  0  0  0
  189.6320  173.4730  141.4730 C   0  0  0  0  0  1  0  0  0  0  0  0
  192.4180  174.8240  142.6870 C   0  0  0  0  0  0  0  0  0  0  0  0
  192.7640  174.1050  143.7840 C   0  0  0  0  0  0  0  0  0  0  0  0
  189.2340  176.8130  142.8710 N   0  0  0  0  0  0  0  0  0  0  0  0
  191.7480  173.7040  144.8010 C   0  0  0  0  0  2  0  0  0  0  0  0
  191.0170  175.3360  142.4170 C   0  0  1  0  0  3  0  0  0  0  0  0
  189.7080  173.7510  143.9720 C   0  0  0  0  0  2  0  0  0  0  0  0
  188.6670  175.4830  142.5820 C   0  0  0  0  0  2  0  0  0  0  0  0
  190.7920  172.8990  144.1840 O   0  0  0  0  0  0  0  0  0  0  0  0
  189.7890  174.4600  142.6140 C   0  0  2  0  0  0  0  0  0  0  0  0
  193.3230  174.1990  140.4590 C   0  0  0  0  0  1  0  0  0  0  0  0
  193.4340  175.1570  141.6310 C   0  0  0  0  0  2  0  0  0  0  0  0
  188.6400  177.4210  144.0740 C   0  0  2  0  0  3  0  0  0  0  0  0
  189.5560  177.3710  145.2980 C   0  0  0  0  0  2  0  0  0  0  0  0
  188.8370  176.7360  146.4760 C   0  0  0  0  0  2  0  0  0  0  0  0
  188.9170  174.5100  147.4580 N   0  0  0  0  0  1  0  0  0  0  0  0
  189.7130  175.6770  147.1170 C   0  0  0  0  0  2  0  0  0  0  0  0
  187.2830  176.7940  144.3850 C   0  0  0  0  0  2  0  0  0  0  0  0
  186.0860  178.8830  143.7330 C   0  0  0  0  0  3  0  0  0  0  0  0
  185.2700  177.9530  145.6070 C   0  0  0  0  0  0  0  0  0  0  0  0
  184.9580  179.7130  144.2710 C   0  0  0  0  0  3  0  0  0  0  0  0
  185.1160  176.9950  146.7360 C   0  0  0  0  0  1  0  0  0  0  0  0
  184.5380  179.0030  145.4750 N   0  0  0  0  0  0  0  0  0  0  0  0
  186.2360  177.8460  144.5370 C   0  0  2  0  0  3  0  0  0  0  0  0
  194.1720  173.6460  144.0220 C   0  0  0  0  0  2  0  0  0  0  0  0
  194.5030  173.6820  145.5060 C   0  0  0  0  0  2  0  0  0  0  0  0
  195.3730  174.8850  145.8270 C   0  0  0  0  0  2  0  0  0  0  0  0
  194.8270  177.2940  145.4770 O   0  0  0  0  0  0  0  0  0  0  0  0
  193.5390  176.0010  146.8630 O   0  0  0  0  0  1  0  0  0  0  0  0
  194.5320  176.0870  146.0960 C   0  0  0  0  0  0  0  0  0  0  0  0
  3  4  2  0  0  0  0
  4 26  1  0  0  0  0
  4  6  1  0  0  0  0
  5  1  1  0  0  0  0
  5 14  1  0  0  0  0
  7 11  1  0  0  0  0
  7  3  1  0  0  0  0
  7  1  1  1  0  0  0
  8 10  1  0  0  0  0
  9 11  1  0  0  0  0
  9  5  1  0  0  0  0
 10  6  1  0  0  0  0
 11  2  1  6  0  0  0
 11  8  1  0  0  0  0
 12 13  1  0  0  0  0
 13  3  1  0  0  0  0
 14 19  1  1  0  0  0
 14 15  1  0  0  0  0
 15 16  1  0  0  0  0
 16 18  1  0  0  0  0
 18 17  1  0  0  0  0
 20 22  2  0  0  0  0
 20 25  1  0  0  0  0
 21 23  1  0  0  0  0
 22 24  1  0  0  0  0
 24 21  2  0  0  0  0
 25 19  1  1  0  0  0
 25 21  1  0  0  0  0
 26 27  1  0  0  0  0
 27 28  1  0  0  0  0
 28 31  1  0  0  0  0
 29 31  2  0  0  0  0
 31 30  1  0  0  0  0
M  END
>  <MODEL>
8

>  <REMARK>
 VINA RESULT:      -6.0      1.892      3.381
  Name = 
  11 active torsions:
  status: ('A' for Active; 'I' for Inactive)
    1  A    between atoms: C_7  and  C_10
    2  A    between atoms: C_7  and  C_31
    3  A    between atoms: C_8  and  C_18
    4  A    between atoms: C_8  and  C_19
    5  A    between atoms: C_9  and  C_13
    6  A    between atoms: C_10  and  C_26
    7  A    between atoms: C_12  and  C_26
    8  A    between atoms: C_15  and  N_16
    9  A    between atoms: C_15  and  C_19
   10  A    between atoms: C_15  and  C_22
   11  A    between atoms: C_22  and  C_29
                            x       y       z     vdW  Elec       q    Type
                         _______ _______ _______ _____ _____    ______ ____

>  <TORSDO>
F 11

$$$$
=
 OpenBabel11062421253D

 31 33  0  0  1  0  0  0  0  0999 V2000
  189.6870  174.7490  144.6850 C   0  0  0  0  0  2  0  0  0  0  0  0
  192.2700  176.4160  146.7460 C   0  0  0  0  0  1  0  0  0  0  0  0
  192.1500  174.3100  144.1740 C   0  0  0  0  0  0  0  0  0  0  0  0
  192.6510  174.9670  143.0980 C   0  0  0  0  0  0  0  0  0  0  0  0
  188.9130  175.5780  145.6050 N   0  0  0  0  0  0  0  0  0  0  0  0
  192.2580  176.3740  142.7950 C   0  0  0  0  0  2  0  0  0  0  0  0
  191.1190  174.8960  145.1180 C   0  0  1  0  0  3  0  0  0  0  0  0
  191.4550  177.3930  144.5760 C   0  0  0  0  0  2  0  0  0  0  0  0
  189.8390  176.5480  146.2160 C   0  0  0  0  0  2  0  0  0  0  0  0
  192.6370  177.1850  143.8650 O   0  0  0  0  0  0  0  0  0  0  0  0
  191.2290  176.3180  145.6470 C   0  0  2  0  0  0  0  0  0  0  0  0
  193.6170  172.9520  145.6490 C   0  0  0  0  0  1  0  0  0  0  0  0
  192.6100  172.9210  144.5130 C   0  0  0  0  0  2  0  0  0  0  0  0
  187.8210  176.2400  144.8700 C   0  0  2  0  0  3  0  0  0  0  0  0
  187.9040  176.0520  143.3540 C   0  0  0  0  0  2  0  0  0  0  0  0
  186.5410  176.2510  142.7170 C   0  0  0  0  0  2  0  0  0  0  0  0
  187.8960  177.8850  141.5260 N   0  0  0  0  0  1  0  0  0  0  0  0
  186.6600  177.1220  141.4810 C   0  0  0  0  0  2  0  0  0  0  0  0
  187.7450  177.7220  145.2300 C   0  0  0  0  0  2  0  0  0  0  0  0
  185.8140  177.5360  146.7980 C   0  0  0  0  0  3  0  0  0  0  0  0
  185.4510  178.9930  145.1290 C   0  0  0  0  0  0  0  0  0  0  0  0
  184.4430  178.1320  146.9240 C   0  0  0  0  0  2  0  0  0  0  0  0
  185.6980  179.7950  143.8990 C   0  0  0  0  0  1  0  0  0  0  0  0
  184.3450  179.0400  145.7850 N   0  0  0  0  0  0  0  0  0  0  0  0
  186.3870  178.0750  145.7370 C   0  0  0  0  0  0  0  0  0  0  0  0
  193.6480  174.3340  142.1740 C   0  0  0  0  0  2  0  0  0  0  0  0
  193.0900  174.2510  140.7610 C   0  0  0  0  0  2  0  0  0  0  0  0
  192.2260  173.0120  140.6040 C   0  0  0  0  0  2  0  0  0  0  0  0
  190.3510  173.0840  138.9590 O   0  0  0  0  0  0  0  0  0  0  0  0
  190.0840  173.9500  141.0640 O   0  0  0  0  0  1  0  0  0  0  0  0
  190.8330  173.3850  140.2260 C   0  0  0  0  0  0  0  0  0  0  0  0
  1  5  1  0  0  0  0
  3 13  1  0  0  0  0
  3  7  1  0  0  0  0
  4  3  2  0  0  0  0
  5  9  1  0  0  0  0
  6  4  1  0  0  0  0
  6 10  1  0  0  0  0
  7  1  1  6  0  0  0
  7 11  1  0  0  0  0
  8 11  1  0  0  0  0
 10  8  1  0  0  0  0
 11  9  1  0  0  0  0
 11  2  1  1  0  0  0
 13 12  1  0  0  0  0
 14 15  1  6  0  0  0
 14 19  1  0  0  0  0
 14  5  1  0  0  0  0
 16 15  1  0  0  0  0
 18 17  1  0  0  0  0
 18 16  1  0  0  0  0
 19 25  1  0  0  0  0
 20 22  1  0  0  0  0
 21 25  1  0  0  0  0
 21 24  2  0  0  0  0
 23 21  1  0  0  0  0
 24 22  1  0  0  0  0
 25 20  2  0  0  0  0
 26  4  1  0  0  0  0
 27 26  1  0  0  0  0
 28 27  1  0  0  0  0
 29 31  2  0  0  0  0
 31 28  1  0  0  0  0
 31 30  1  0  0  0  0
M  END
>  <MODEL>
9

>  <REMARK>
 VINA RESULT:      -5.9      2.275      3.752
  Name = 
  11 active torsions:
  status: ('A' for Active; 'I' for Inactive)
    1  A    between atoms: C_7  and  C_10
    2  A    between atoms: C_7  and  C_31
    3  A    between atoms: C_8  and  C_18
    4  A    between atoms: C_8  and  C_19
    5  A    between atoms: C_9  and  C_13
    6  A    between atoms: C_10  and  C_26
    7  A    between atoms: C_12  and  C_26
    8  A    between atoms: C_15  and  N_16
    9  A    between atoms: C_15  and  C_19
   10  A    between atoms: C_15  and  C_22
   11  A    between atoms: C_22  and  C_29
                            x       y       z     vdW  Elec       q    Type
                         _______ _______ _______ _____ _____    ______ ____

>  <TORSDO>
F 11

$$$$
