=
 OpenBabel11062422583D

 29 34  0  0  1  0  0  0  0  0999 V2000
  188.7530  177.4640  144.9300 C   0  0  1  0  0  3  0  0  0  0  0  0
  190.5080  175.7850  145.1480 N   0  0  0  0  0  0  0  0  0  0  0  0
  190.9160  174.9150  146.2310 C   0  0  0  0  0  2  0  0  0  0  0  0
  188.8380  172.7140  140.5540 C   0  0  0  0  0  2  0  0  0  0  0  0
  190.4850  170.9490  140.7760 N   0  0  0  0  0  1  0  0  0  0  0  0
  188.5380  174.1050  140.8810 N   0  0  0  0  0  2  0  0  0  0  0  0
  190.1150  177.1100  145.6230 C   0  0  2  0  0  3  0  0  0  0  0  0
  189.5440  175.3690  144.1990 C   0  0  0  0  0  0  0  0  0  0  0  0
  188.5340  176.2600  144.0870 C   0  0  0  0  0  0  0  0  0  0  0  0
  190.9800  173.0860  141.5760 O   0  0  0  0  0  0  0  0  0  0  0  0
  190.0750  176.9990  147.1430 C   0  0  0  0  0  2  0  0  0  0  0  0
  190.9000  173.6020  142.8940 C   0  0  1  0  0  3  0  0  0  0  0  0
  189.9540  172.1420  141.4090 C   0  0  1  0  0  3  0  0  0  0  0  0
  189.6790  174.4760  143.1210 C   0  0  0  0  0  0  0  0  0  0  0  0
  187.7470  176.0620  142.6230 S   0  0  0  0  0  0  0  0  0  0  0  0
  190.9010  175.7710  147.4840 C   0  0  0  0  0  2  0  0  0  0  0  0
  188.6610  174.7120  142.1720 C   0  0  0  0  0  0  0  0  0  0  0  0
  186.7040  178.7520  145.3340 N   0  0  0  0  0  2  0  0  0  0  0  0
  185.3140  176.9900  146.2100 C   0  0  0  0  0  2  0  0  0  0  0  0
  185.3810  178.4700  145.8760 C   0  0  2  0  0  3  0  0  0  0  0  0
  187.5770  177.7240  145.8820 C   0  0  1  0  0  3  0  0  0  0  0  0
  186.7260  176.4830  146.0710 C   0  0  0  0  0  2  0  0  0  0  0  0
  183.0820  178.9850  145.5290 F   0  0  0  0  0  0  0  0  0  0  0  0
  184.2960  178.8700  144.8780 C   0  0  0  0  0  0  0  0  0  0  0  0
  184.6160  180.0910  144.3130 F   0  0  0  0  0  0  0  0  0  0  0  0
  184.1880  177.9220  143.8760 F   0  0  0  0  0  0  0  0  0  0  0  0
  192.2330  171.7460  143.6380 C   0  0  0  0  0  2  0  0  0  0  0  0
  192.3090  172.8150  144.6140 C   0  0  0  0  0  2  0  0  0  0  0  0
  191.0330  172.5600  143.9220 N   0  0  0  0  0  0  0  0  0  0  0  0
  1  9  1  6  0  0  0
  1  7  1  0  0  0  0
  1 21  1  0  0  0  0
  2  7  1  0  0  0  0
  2  3  1  0  0  0  0
  3 16  1  0  0  0  0
  4  6  1  0  0  0  0
  4 13  1  0  0  0  0
  6 17  1  0  0  0  0
  7 11  1  1  0  0  0
  8  2  1  0  0  0  0
  9  8  2  0  0  0  0
 10 12  1  0  0  0  0
 11 16  1  0  0  0  0
 12 14  1  0  0  0  0
 12 29  1  1  0  0  0
 13  5  1  6  0  0  0
 13 10  1  0  0  0  0
 14  8  1  0  0  0  0
 15  9  1  0  0  0  0
 17 15  1  0  0  0  0
 17 14  2  0  0  0  0
 18 20  1  0  0  0  0
 18 21  1  0  0  0  0
 20 24  1  6  0  0  0
 20 19  1  0  0  0  0
 21 22  1  6  0  0  0
 22 19  1  0  0  0  0
 24 23  1  0  0  0  0
 25 24  1  0  0  0  0
 26 24  1  0  0  0  0
 27 29  1  0  0  0  0
 27 28  1  0  0  0  0
 29 28  1  0  0  0  0
M  END
>  <MODEL>
1

>  <REMARK>
 VINA RESULT:      -7.8      0.000      0.000
  Name = 
  3 active torsions:
  status: ('A' for Active; 'I' for Inactive)
    1  A    between atoms: C_1  and  C_12
    2  A    between atoms: C_7  and  C_9
    3  A    between atoms: C_20  and  N_29
                            x       y       z     vdW  Elec       q    Type
                         _______ _______ _______ _____ _____    ______ ____

>  <TORSDO>
F 3

$$$$
=
 OpenBabel11062422583D

 29 34  0  0  1  0  0  0  0  0999 V2000
  189.3930  177.3560  145.4110 C   0  0  1  0  0  3  0  0  0  0  0  0
  191.1360  175.7360  144.8780 N   0  0  0  0  0  0  0  0  0  0  0  0
  191.7830  174.6910  145.6430 C   0  0  0  0  0  2  0  0  0  0  0  0
  188.3940  173.5370  140.2990 C   0  0  0  0  0  2  0  0  0  0  0  0
  190.0320  171.8280  139.7780 N   0  0  0  0  0  1  0  0  0  0  0  0
  188.1910  174.8270  140.9520 N   0  0  0  0  0  2  0  0  0  0  0  0
  190.8780  176.9290  145.6810 C   0  0  2  0  0  3  0  0  0  0  0  0
  189.9690  175.4720  144.1200 C   0  0  0  0  0  0  0  0  0  0  0  0
  188.9700  176.3280  144.4250 C   0  0  0  0  0  0  0  0  0  0  0  0
  190.7200  173.7900  140.8390 O   0  0  0  0  0  0  0  0  0  0  0  0
  191.2000  176.5290  147.1150 C   0  0  0  0  0  2  0  0  0  0  0  0
  190.9620  174.0410  142.2140 C   0  0  1  0  0  3  0  0  0  0  0  0
  189.6770  172.8560  140.7380 C   0  0  1  0  0  3  0  0  0  0  0  0
  189.8370  174.8070  142.8880 C   0  0  0  0  0  0  0  0  0  0  0  0
  187.8540  176.3830  143.1780 S   0  0  0  0  0  0  0  0  0  0  0  0
  192.0750  175.2910  147.0070 C   0  0  0  0  0  2  0  0  0  0  0  0
  188.6230  175.1800  142.2710 C   0  0  0  0  0  0  0  0  0  0  0  0
  187.4340  178.3810  146.4750 N   0  0  0  0  0  2  0  0  0  0  0  0
  186.4240  176.4000  147.4000 C   0  0  0  0  0  2  0  0  0  0  0  0
  186.3100  177.9090  147.2730 C   0  0  2  0  0  3  0  0  0  0  0  0
  188.4800  177.3830  146.6450 C   0  0  1  0  0  3  0  0  0  0  0  0
  187.7850  176.0530  146.8550 C   0  0  0  0  0  2  0  0  0  0  0  0
  184.0780  178.6650  147.6170 F   0  0  0  0  0  0  0  0  0  0  0  0
  184.9860  178.3200  146.6330 C   0  0  0  0  0  0  0  0  0  0  0  0
  185.1910  179.4150  145.8130 F   0  0  0  0  0  0  0  0  0  0  0  0
  184.4700  177.2810  145.8790 F   0  0  0  0  0  0  0  0  0  0  0  0
  192.4280  172.1380  142.2550 C   0  0  0  0  0  2  0  0  0  0  0  0
  192.7290  173.0020  143.3780 C   0  0  0  0  0  2  0  0  0  0  0  0
  191.3280  172.8280  142.9590 N   0  0  0  0  0  0  0  0  0  0  0  0
  1  9  1  6  0  0  0
  1  7  1  0  0  0  0
  1 21  1  0  0  0  0
  2  3  1  0  0  0  0
  2  7  1  0  0  0  0
  3 16  1  0  0  0  0
  4 13  1  0  0  0  0
  4  6  1  0  0  0  0
  6 17  1  0  0  0  0
  7 11  1  1  0  0  0
  8  9  2  0  0  0  0
  8  2  1  0  0  0  0
 10 12  1  0  0  0  0
 12 14  1  0  0  0  0
 12 29  1  1  0  0  0
 13  5  1  6  0  0  0
 13 10  1  0  0  0  0
 14  8  1  0  0  0  0
 15  9  1  0  0  0  0
 16 11  1  0  0  0  0
 17 14  2  0  0  0  0
 17 15  1  0  0  0  0
 18 21  1  0  0  0  0
 18 20  1  0  0  0  0
 20 24  1  6  0  0  0
 20 19  1  0  0  0  0
 21 22  1  6  0  0  0
 22 19  1  0  0  0  0
 24 23  1  0  0  0  0
 25 24  1  0  0  0  0
 26 24  1  0  0  0  0
 27 29  1  0  0  0  0
 27 28  1  0  0  0  0
 29 28  1  0  0  0  0
M  END
>  <MODEL>
2

>  <REMARK>
 VINA RESULT:      -7.3      1.201      1.276
  Name = 
  3 active torsions:
  status: ('A' for Active; 'I' for Inactive)
    1  A    between atoms: C_1  and  C_12
    2  A    between atoms: C_7  and  C_9
    3  A    between atoms: C_20  and  N_29
                            x       y       z     vdW  Elec       q    Type
                         _______ _______ _______ _____ _____    ______ ____

>  <TORSDO>
F 3

$$$$
=
 OpenBabel11062422583D

 29 34  0  0  1  0  0  0  0  0999 V2000
  187.6810  175.1790  143.1340 C   0  0  1  0  0  3  0  0  0  0  0  0
  189.7860  174.1020  142.5390 N   0  0  0  0  0  0  0  0  0  0  0  0
  190.5740  174.0730  141.3250 C   0  0  0  0  0  2  0  0  0  0  0  0
  192.7870  176.4270  146.8880 C   0  0  0  0  0  2  0  0  0  0  0  0
  194.9370  175.4800  146.2910 N   0  0  0  0  0  1  0  0  0  0  0  0
  191.3410  176.2640  146.7600 N   0  0  0  0  0  2  0  0  0  0  0  0
  188.3510  174.0580  142.2670 C   0  0  2  0  0  3  0  0  0  0  0  0
  190.0020  175.0920  143.5280 C   0  0  0  0  0  0  0  0  0  0  0  0
  188.8590  175.7380  143.8470 C   0  0  0  0  0  0  0  0  0  0  0  0
  192.9820  174.3480  145.7010 O   0  0  0  0  0  0  0  0  0  0  0  0
  188.2210  174.2220  140.7570 C   0  0  0  0  0  2  0  0  0  0  0  0
  192.2820  174.3290  144.4680 C   0  0  1  0  0  3  0  0  0  0  0  0
  193.5580  175.6190  145.8610 C   0  0  1  0  0  3  0  0  0  0  0  0
  191.0370  175.1990  144.4730 C   0  0  0  0  0  0  0  0  0  0  0  0
  189.0020  176.4580  145.3520 S   0  0  0  0  0  0  0  0  0  0  0  0
  189.5860  173.8740  140.1900 C   0  0  0  0  0  2  0  0  0  0  0  0
  190.6260  176.0230  145.5430 C   0  0  0  0  0  0  0  0  0  0  0  0
  185.7900  176.7430  143.1240 N   0  0  0  0  0  2  0  0  0  0  0  0
  186.8750  178.6460  142.1220 C   0  0  0  0  0  2  0  0  0  0  0  0
  185.5640  178.1100  142.6710 C   0  0  2  0  0  3  0  0  0  0  0  0
  186.9190  176.2560  142.3460 C   0  0  1  0  0  3  0  0  0  0  0  0
  187.7970  177.4560  142.0500 C   0  0  0  0  0  2  0  0  0  0  0  0
  183.6630  179.0700  143.7340 F   0  0  0  0  0  0  0  0  0  0  0  0
  185.0400  178.9750  143.8150 C   0  0  0  0  0  0  0  0  0  0  0  0
  185.3750  178.3930  145.0240 F   0  0  0  0  0  0  0  0  0  0  0  0
  185.5890  180.2430  143.7540 F   0  0  0  0  0  0  0  0  0  0  0  0
  194.3390  173.7380  143.3760 C   0  0  0  0  0  2  0  0  0  0  0  0
  193.2220  173.3680  142.5310 C   0  0  0  0  0  2  0  0  0  0  0  0
  193.1490  174.6120  143.3160 N   0  0  0  0  0  0  0  0  0  0  0  0
  1  9  1  6  0  0  0
  2  8  1  0  0  0  0
  3  2  1  0  0  0  0
  6  4  1  0  0  0  0
  7 11  1  6  0  0  0
  7  2  1  0  0  0  0
  7  1  1  0  0  0  0
  8  9  2  0  0  0  0
  8 14  1  0  0  0  0
  9 15  1  0  0  0  0
 10 13  1  0  0  0  0
 12 29  1  6  0  0  0
 12 14  1  0  0  0  0
 12 10  1  0  0  0  0
 13  5  1  1  0  0  0
 13  4  1  0  0  0  0
 14 17  2  0  0  0  0
 15 17  1  0  0  0  0
 16 11  1  0  0  0  0
 16  3  1  0  0  0  0
 17  6  1  0  0  0  0
 19 20  1  0  0  0  0
 20 18  1  0  0  0  0
 20 24  1  1  0  0  0
 21 22  1  1  0  0  0
 21 18  1  0  0  0  0
 21  1  1  0  0  0  0
 22 19  1  0  0  0  0
 23 24  1  0  0  0  0
 24 25  1  0  0  0  0
 26 24  1  0  0  0  0
 28 29  1  0  0  0  0
 28 27  1  0  0  0  0
 29 27  1  0  0  0  0
M  END
>  <MODEL>
3

>  <REMARK>
 VINA RESULT:      -7.1      2.336      4.492
  Name = 
  3 active torsions:
  status: ('A' for Active; 'I' for Inactive)
    1  A    between atoms: C_1  and  C_12
    2  A    between atoms: C_7  and  C_9
    3  A    between atoms: C_20  and  N_29
                            x       y       z     vdW  Elec       q    Type
                         _______ _______ _______ _____ _____    ______ ____

>  <TORSDO>
F 3

$$$$
=
 OpenBabel11062422583D

 29 34  0  0  1  0  0  0  0  0999 V2000
  190.6020  174.6090  144.7770 C   0  0  1  0  0  3  0  0  0  0  0  0
  189.3230  175.9230  146.3850 N   0  0  0  0  0  0  0  0  0  0  0  0
  189.6680  177.0230  147.2610 C   0  0  0  0  0  2  0  0  0  0  0  0
  185.2350  177.4840  142.6210 C   0  0  0  0  0  2  0  0  0  0  0  0
  183.9760  178.8970  144.1360 N   0  0  0  0  0  1  0  0  0  0  0  0
  186.1700  176.3660  142.5420 N   0  0  0  0  0  2  0  0  0  0  0  0
  190.3940  174.9320  146.2970 C   0  0  2  0  0  3  0  0  0  0  0  0
  188.8470  176.1530  145.0720 C   0  0  0  0  0  0  0  0  0  0  0  0
  189.5660  175.4720  144.1520 C   0  0  0  0  0  0  0  0  0  0  0  0
  185.2100  177.1100  144.9930 O   0  0  0  0  0  0  0  0  0  0  0  0
  191.5860  175.5600  147.0100 C   0  0  0  0  0  2  0  0  0  0  0  0
  186.5000  177.0980  145.5820 C   0  0  1  0  0  3  0  0  0  0  0  0
  185.1860  178.1070  144.0040 C   0  0  1  0  0  3  0  0  0  0  0  0
  187.5790  176.5850  144.6450 C   0  0  0  0  0  0  0  0  0  0  0  0
  188.6810  175.2950  142.7420 S   0  0  0  0  0  0  0  0  0  0  0  0
  191.0060  176.6630  147.8790 C   0  0  0  0  0  2  0  0  0  0  0  0
  187.3800  176.2250  143.2940 C   0  0  0  0  0  0  0  0  0  0  0  0
  192.3310  173.9730  143.1560 N   0  0  0  0  0  2  0  0  0  0  0  0
  193.0330  176.1710  142.4650 C   0  0  0  0  0  2  0  0  0  0  0  0
  193.2700  174.6800  142.2950 C   0  0  2  0  0  3  0  0  0  0  0  0
  192.0060  174.9030  144.2270 C   0  0  1  0  0  3  0  0  0  0  0  0
  192.0940  176.2970  143.6370 C   0  0  0  0  0  2  0  0  0  0  0  0
  193.7030  173.0190  140.6450 F   0  0  0  0  0  0  0  0  0  0  0  0
  193.0970  174.2470  140.8410 C   0  0  0  0  0  0  0  0  0  0  0  0
  191.7500  174.1290  140.5530 F   0  0  0  0  0  0  0  0  0  0  0  0
  193.6640  175.1770  139.9880 F   0  0  0  0  0  0  0  0  0  0  0  0
  185.7420  178.8610  147.0280 C   0  0  0  0  0  2  0  0  0  0  0  0
  186.8600  178.1780  147.6460 C   0  0  0  0  0  2  0  0  0  0  0  0
  186.8610  178.3870  146.1890 N   0  0  0  0  0  0  0  0  0  0  0  0
  1  9  1  6  0  0  0
  1  7  1  0  0  0  0
  2  3  1  0  0  0  0
  3 16  1  0  0  0  0
  4 13  1  0  0  0  0
  6  4  1  0  0  0  0
  6 17  1  0  0  0  0
  7  2  1  0  0  0  0
  7 11  1  6  0  0  0
  8  2  1  0  0  0  0
  9  8  2  0  0  0  0
 10 12  1  0  0  0  0
 11 16  1  0  0  0  0
 12 29  1  6  0  0  0
 13  5  1  6  0  0  0
 13 10  1  0  0  0  0
 14  8  1  0  0  0  0
 14 12  1  0  0  0  0
 15 17  1  0  0  0  0
 15  9  1  0  0  0  0
 17 14  2  0  0  0  0
 18 21  1  0  0  0  0
 19 22  1  0  0  0  0
 20 24  1  6  0  0  0
 20 19  1  0  0  0  0
 20 18  1  0  0  0  0
 21 22  1  6  0  0  0
 21  1  1  0  0  0  0
 23 24  1  0  0  0  0
 25 24  1  0  0  0  0
 26 24  1  0  0  0  0
 27 28  1  0  0  0  0
 29 27  1  0  0  0  0
 29 28  1  0  0  0  0
M  END
>  <MODEL>
4

>  <REMARK>
 VINA RESULT:      -7.0      4.093      6.962
  Name = 
  3 active torsions:
  status: ('A' for Active; 'I' for Inactive)
    1  A    between atoms: C_1  and  C_12
    2  A    between atoms: C_7  and  C_9
    3  A    between atoms: C_20  and  N_29
                            x       y       z     vdW  Elec       q    Type
                         _______ _______ _______ _____ _____    ______ ____

>  <TORSDO>
F 3

$$$$
=
 OpenBabel11062422583D

 29 34  0  0  1  0  0  0  0  0999 V2000
  191.4930  175.2600  145.3650 C   0  0  1  0  0  3  0  0  0  0  0  0
  189.4480  176.3530  146.1190 N   0  0  0  0  0  0  0  0  0  0  0  0
  189.1930  177.5490  146.8940 C   0  0  0  0  0  2  0  0  0  0  0  0
  187.1340  176.7820  140.8480 C   0  0  0  0  0  2  0  0  0  0  0  0
  185.1280  177.9710  141.5120 N   0  0  0  0  0  1  0  0  0  0  0  0
  188.1920  175.8890  141.3110 N   0  0  0  0  0  2  0  0  0  0  0  0
  190.6090  175.6130  146.6110 C   0  0  2  0  0  3  0  0  0  0  0  0
  189.5400  176.4020  144.7070 C   0  0  0  0  0  0  0  0  0  0  0  0
  190.6860  175.8420  144.2610 C   0  0  0  0  0  0  0  0  0  0  0  0
  186.1720  176.5430  143.0360 O   0  0  0  0  0  0  0  0  0  0  0  0
  191.2580  176.5230  147.6470 C   0  0  0  0  0  2  0  0  0  0  0  0
  187.0720  176.8440  144.0900 C   0  0  1  0  0  3  0  0  0  0  0  0
  186.3970  177.4550  141.9920 C   0  0  1  0  0  3  0  0  0  0  0  0
  188.5180  176.5250  143.7490 C   0  0  0  0  0  0  0  0  0  0  0  0
  190.5260  175.3990  142.6540 S   0  0  0  0  0  0  0  0  0  0  0  0
  190.1840  177.5210  148.0440 C   0  0  0  0  0  2  0  0  0  0  0  0
  188.9740  176.0550  142.4990 C   0  0  0  0  0  0  0  0  0  0  0  0
  193.8090  174.9010  146.0910 N   0  0  0  0  0  2  0  0  0  0  0  0
  194.9510  175.6690  144.1140 C   0  0  0  0  0  2  0  0  0  0  0  0
  195.1310  175.1220  145.5200 C   0  0  2  0  0  3  0  0  0  0  0  0
  192.9230  175.8190  145.3910 C   0  0  1  0  0  3  0  0  0  0  0  0
  193.4830  175.9860  143.9920 C   0  0  0  0  0  2  0  0  0  0  0  0
  196.8910  173.8680  146.5200 F   0  0  0  0  0  0  0  0  0  0  0  0
  195.9390  173.8260  145.5180 C   0  0  0  0  0  0  0  0  0  0  0  0
  195.0940  172.7560  145.7510 F   0  0  0  0  0  0  0  0  0  0  0  0
  196.5670  173.6490  144.2980 F   0  0  0  0  0  0  0  0  0  0  0  0
  185.4870  178.4610  144.8920 C   0  0  0  0  0  2  0  0  0  0  0  0
  186.3810  178.0870  145.9700 C   0  0  0  0  0  2  0  0  0  0  0  0
  186.9140  178.2120  144.6030 N   0  0  0  0  0  0  0  0  0  0  0  0
  1  9  1  6  0  0  0
  1 21  1  0  0  0  0
  1  7  1  0  0  0  0
  2  7  1  0  0  0  0
  2  3  1  0  0  0  0
  3 16  1  0  0  0  0
  4  6  1  0  0  0  0
  4 13  1  0  0  0  0
  6 17  1  0  0  0  0
  7 11  1  1  0  0  0
  8  2  1  0  0  0  0
  9  8  2  0  0  0  0
 10 12  1  0  0  0  0
 11 16  1  0  0  0  0
 12 29  1  6  0  0  0
 13  5  1  6  0  0  0
 13 10  1  0  0  0  0
 14 12  1  0  0  0  0
 14  8  1  0  0  0  0
 15  9  1  0  0  0  0
 17 15  1  0  0  0  0
 17 14  2  0  0  0  0
 19 20  1  0  0  0  0
 20 24  1  6  0  0  0
 20 18  1  0  0  0  0
 21 22  1  6  0  0  0
 21 18  1  0  0  0  0
 22 19  1  0  0  0  0
 24 25  1  0  0  0  0
 24 23  1  0  0  0  0
 26 24  1  0  0  0  0
 27 28  1  0  0  0  0
 29 27  1  0  0  0  0
 29 28  1  0  0  0  0
M  END
>  <MODEL>
5

>  <REMARK>
 VINA RESULT:      -6.9      4.854      7.288
  Name = 
  3 active torsions:
  status: ('A' for Active; 'I' for Inactive)
    1  A    between atoms: C_1  and  C_12
    2  A    between atoms: C_7  and  C_9
    3  A    between atoms: C_20  and  N_29
                            x       y       z     vdW  Elec       q    Type
                         _______ _______ _______ _____ _____    ______ ____

>  <TORSDO>
F 3

$$$$
=
 OpenBabel11062422583D

 29 34  0  0  1  0  0  0  0  0999 V2000
  188.8730  176.8480  144.6520 C   0  0  1  0  0  3  0  0  0  0  0  0
  190.9300  175.6030  144.2430 N   0  0  0  0  0  0  0  0  0  0  0  0
  191.6930  174.6640  145.0380 C   0  0  0  0  0  2  0  0  0  0  0  0
  189.0640  173.1370  139.3680 C   0  0  0  0  0  2  0  0  0  0  0  0
  191.0340  171.7850  138.9600 N   0  0  0  0  0  1  0  0  0  0  0  0
  188.5660  174.3370  140.0340 N   0  0  0  0  0  2  0  0  0  0  0  0
  190.3820  176.6920  145.0500 C   0  0  2  0  0  3  0  0  0  0  0  0
  189.9050  175.1610  143.3710 C   0  0  0  0  0  0  0  0  0  0  0  0
  188.7390  175.8030  143.6040 C   0  0  0  0  0  0  0  0  0  0  0  0
  191.2450  173.7930  140.1330 O   0  0  0  0  0  0  0  0  0  0  0  0
  190.6470  176.2950  146.4970 C   0  0  0  0  0  2  0  0  0  0  0  0
  191.3130  174.0230  141.5300 C   0  0  1  0  0  3  0  0  0  0  0  0
  190.4090  172.6870  139.9090 C   0  0  1  0  0  3  0  0  0  0  0  0
  190.0090  174.5380  142.1150 C   0  0  0  0  0  0  0  0  0  0  0  0
  187.7470  175.7050  142.2590 S   0  0  0  0  0  0  0  0  0  0  0  0
  191.7460  175.2470  146.4380 C   0  0  0  0  0  2  0  0  0  0  0  0
  188.8060  174.7060  141.3960 C   0  0  0  0  0  0  0  0  0  0  0  0
  187.6070  177.9190  146.4600 N   0  0  0  0  0  2  0  0  0  0  0  0
  185.4980  176.7910  146.1680 C   0  0  0  0  0  2  0  0  0  0  0  0
  186.2590  177.8070  147.0030 C   0  0  2  0  0  3  0  0  0  0  0  0
  187.8660  176.6510  145.7950 C   0  0  1  0  0  3  0  0  0  0  0  0
  186.5320  176.1440  145.2830 C   0  0  0  0  0  2  0  0  0  0  0  0
  185.7640  179.7910  145.7840 F   0  0  0  0  0  0  0  0  0  0  0  0
  185.5650  179.1670  147.0010 C   0  0  0  0  0  0  0  0  0  0  0  0
  184.2060  178.9910  147.1940 F   0  0  0  0  0  0  0  0  0  0  0  0
  186.0660  179.9670  148.0120 F   0  0  0  0  0  0  0  0  0  0  0  0
  193.0990  172.4220  141.6560 C   0  0  0  0  0  2  0  0  0  0  0  0
  193.1380  173.2780  142.8240 C   0  0  0  0  0  2  0  0  0  0  0  0
  191.8340  172.8680  142.2740 N   0  0  0  0  0  0  0  0  0  0  0  0
  1  9  1  6  0  0  0
  1  7  1  0  0  0  0
  1 21  1  0  0  0  0
  2  3  1  0  0  0  0
  2  7  1  0  0  0  0
  3 16  1  0  0  0  0
  4 13  1  0  0  0  0
  4  6  1  0  0  0  0
  6 17  1  0  0  0  0
  7 11  1  1  0  0  0
  8  9  2  0  0  0  0
  8  2  1  0  0  0  0
 10 12  1  0  0  0  0
 12 14  1  0  0  0  0
 12 29  1  1  0  0  0
 13  5  1  6  0  0  0
 13 10  1  0  0  0  0
 14  8  1  0  0  0  0
 15  9  1  0  0  0  0
 16 11  1  0  0  0  0
 17 14  2  0  0  0  0
 17 15  1  0  0  0  0
 18 20  1  0  0  0  0
 19 20  1  0  0  0  0
 20 24  1  6  0  0  0
 21 22  1  6  0  0  0
 21 18  1  0  0  0  0
 22 19  1  0  0  0  0
 23 24  1  0  0  0  0
 24 25  1  0  0  0  0
 24 26  1  0  0  0  0
 27 29  1  0  0  0  0
 27 28  1  0  0  0  0
 29 28  1  0  0  0  0
M  END
>  <MODEL>
6

>  <REMARK>
 VINA RESULT:      -6.8      1.535      1.799
  Name = 
  3 active torsions:
  status: ('A' for Active; 'I' for Inactive)
    1  A    between atoms: C_1  and  C_12
    2  A    between atoms: C_7  and  C_9
    3  A    between atoms: C_20  and  N_29
                            x       y       z     vdW  Elec       q    Type
                         _______ _______ _______ _____ _____    ______ ____

>  <TORSDO>
F 3

$$$$
=
 OpenBabel11062422583D

 29 34  0  0  1  0  0  0  0  0999 V2000
  191.4860  174.5170  145.0280 C   0  0  1  0  0  3  0  0  0  0  0  0
  189.6520  175.8170  145.9720 N   0  0  0  0  0  0  0  0  0  0  0  0
  189.6040  176.9960  146.8110 C   0  0  0  0  0  2  0  0  0  0  0  0
  187.0670  176.7910  140.9030 C   0  0  0  0  0  2  0  0  0  0  0  0
  185.2770  178.1860  141.7580 N   0  0  0  0  0  1  0  0  0  0  0  0
  188.0310  175.7510  141.2520 N   0  0  0  0  0  2  0  0  0  0  0  0
  190.7390  174.9160  146.3480 C   0  0  2  0  0  3  0  0  0  0  0  0
  189.6560  175.9240  144.5600 C   0  0  0  0  0  0  0  0  0  0  0  0
  190.6890  175.2490  144.0100 C   0  0  0  0  0  0  0  0  0  0  0  0
  186.2300  176.5660  143.1430 O   0  0  0  0  0  0  0  0  0  0  0  0
  191.5670  175.6860  147.3700 C   0  0  0  0  0  2  0  0  0  0  0  0
  187.2290  176.6990  144.1400 C   0  0  1  0  0  3  0  0  0  0  0  0
  186.4990  177.4930  142.1230 C   0  0  1  0  0  3  0  0  0  0  0  0
  188.5960  176.2210  143.6840 C   0  0  0  0  0  0  0  0  0  0  0  0
  190.3670  174.9090  142.4020 S   0  0  0  0  0  0  0  0  0  0  0  0
  190.6570  176.7890  147.8840 C   0  0  0  0  0  2  0  0  0  0  0  0
  188.9050  175.7600  142.3860 C   0  0  0  0  0  0  0  0  0  0  0  0
  193.7220  173.8800  144.2430 N   0  0  0  0  0  2  0  0  0  0  0  0
  194.5020  176.0410  143.5200 C   0  0  0  0  0  2  0  0  0  0  0  0
  194.8700  174.5760  143.6750 C   0  0  2  0  0  3  0  0  0  0  0  0
  192.9750  174.8930  144.9740 C   0  0  1  0  0  3  0  0  0  0  0  0
  193.1940  176.2060  144.2490 C   0  0  0  0  0  2  0  0  0  0  0  0
  194.1730  173.3220  141.7740 F   0  0  0  0  0  0  0  0  0  0  0  0
  195.2670  173.9530  142.3380 C   0  0  0  0  0  0  0  0  0  0  0  0
  195.7000  174.9450  141.4780 F   0  0  0  0  0  0  0  0  0  0  0  0
  196.2840  173.0320  142.5170 F   0  0  0  0  0  0  0  0  0  0  0  0
  185.9190  178.4610  145.1150 C   0  0  0  0  0  2  0  0  0  0  0  0
  186.8230  177.9260  146.1130 C   0  0  0  0  0  2  0  0  0  0  0  0
  187.2800  178.0500  144.7190 N   0  0  0  0  0  0  0  0  0  0  0  0
  1  9  1  6  0  0  0
  1  7  1  0  0  0  0
  2  7  1  0  0  0  0
  2  3  1  0  0  0  0
  3 16  1  0  0  0  0
  4  6  1  0  0  0  0
  4 13  1  0  0  0  0
  6 17  1  0  0  0  0
  7 11  1  1  0  0  0
  8  2  1  0  0  0  0
  9  8  2  0  0  0  0
 10 12  1  0  0  0  0
 11 16  1  0  0  0  0
 12 29  1  6  0  0  0
 13  5  1  6  0  0  0
 13 10  1  0  0  0  0
 14 12  1  0  0  0  0
 14  8  1  0  0  0  0
 15  9  1  0  0  0  0
 17 15  1  0  0  0  0
 17 14  2  0  0  0  0
 18 21  1  0  0  0  0
 19 20  1  0  0  0  0
 19 22  1  0  0  0  0
 20 24  1  6  0  0  0
 20 18  1  0  0  0  0
 21 22  1  6  0  0  0
 21  1  1  0  0  0  0
 23 24  1  0  0  0  0
 24 26  1  0  0  0  0
 25 24  1  0  0  0  0
 27 28  1  0  0  0  0
 29 27  1  0  0  0  0
 29 28  1  0  0  0  0
M  END
>  <MODEL>
7

>  <REMARK>
 VINA RESULT:      -6.8      4.571      7.099
  Name = 
  3 active torsions:
  status: ('A' for Active; 'I' for Inactive)
    1  A    between atoms: C_1  and  C_12
    2  A    between atoms: C_7  and  C_9
    3  A    between atoms: C_20  and  N_29
                            x       y       z     vdW  Elec       q    Type
                         _______ _______ _______ _____ _____    ______ ____

>  <TORSDO>
F 3

$$$$
=
 OpenBabel11062422583D

 29 34  0  0  1  0  0  0  0  0999 V2000
  190.8770  176.3430  144.5090 C   0  0  1  0  0  3  0  0  0  0  0  0
  192.2150  174.5050  143.6250 N   0  0  0  0  0  0  0  0  0  0  0  0
  192.7930  173.3230  144.2290 C   0  0  0  0  0  2  0  0  0  0  0  0
  188.4420  173.0780  139.4960 C   0  0  0  0  0  2  0  0  0  0  0  0
  189.6660  171.1680  138.6390 N   0  0  0  0  0  1  0  0  0  0  0  0
  188.5670  174.3380  140.2230 N   0  0  0  0  0  2  0  0  0  0  0  0
  192.2930  175.6690  144.5070 C   0  0  2  0  0  3  0  0  0  0  0  0
  190.9140  174.4810  143.0670 C   0  0  0  0  0  0  0  0  0  0  0  0
  190.1340  175.4620  143.5710 C   0  0  0  0  0  0  0  0  0  0  0  0
  190.8350  172.9220  139.6440 O   0  0  0  0  0  0  0  0  0  0  0  0
  192.7700  175.1280  145.8490 C   0  0  0  0  0  2  0  0  0  0  0  0
  191.3330  173.0400  140.9660 C   0  0  1  0  0  3  0  0  0  0  0  0
  189.6470  172.1740  139.6850 C   0  0  1  0  0  3  0  0  0  0  0  0
  190.4760  173.9290  141.8500 C   0  0  0  0  0  0  0  0  0  0  0  0
  188.8580  175.7760  142.5340 S   0  0  0  0  0  0  0  0  0  0  0  0
  193.3960  173.7780  145.5460 C   0  0  0  0  0  2  0  0  0  0  0  0
  189.2580  174.5290  141.4630 C   0  0  0  0  0  0  0  0  0  0  0  0
  189.2570  177.5480  145.9030 N   0  0  0  0  0  2  0  0  0  0  0  0
  188.1890  175.6650  146.9600 C   0  0  0  0  0  2  0  0  0  0  0  0
  188.2340  177.1810  146.8740 C   0  0  2  0  0  3  0  0  0  0  0  0
  190.1920  176.4330  145.8810 C   0  0  1  0  0  3  0  0  0  0  0  0
  189.3890  175.1840  146.1870 C   0  0  0  0  0  2  0  0  0  0  0  0
  185.9180  176.7680  146.5050 F   0  0  0  0  0  0  0  0  0  0  0  0
  186.8800  177.7610  146.4730 C   0  0  0  0  0  0  0  0  0  0  0  0
  186.5220  178.7560  147.3640 F   0  0  0  0  0  0  0  0  0  0  0  0
  186.9410  178.2960  145.1980 F   0  0  0  0  0  0  0  0  0  0  0  0
  192.4460  170.9300  140.6830 C   0  0  0  0  0  2  0  0  0  0  0  0
  193.0650  171.6580  141.7720 C   0  0  0  0  0  2  0  0  0  0  0  0
  191.6060  171.7380  141.5900 N   0  0  0  0  0  0  0  0  0  0  0  0
  1  9  1  6  0  0  0
  1 21  1  0  0  0  0
  2  3  1  0  0  0  0
  2  7  1  0  0  0  0
  3 16  1  0  0  0  0
  4 13  1  0  0  0  0
  4  6  1  0  0  0  0
  6 17  1  0  0  0  0
  7  1  1  0  0  0  0
  7 11  1  1  0  0  0
  8  9  2  0  0  0  0
  8  2  1  0  0  0  0
 10 13  1  0  0  0  0
 10 12  1  0  0  0  0
 12 29  1  1  0  0  0
 12 14  1  0  0  0  0
 13  5  1  6  0  0  0
 14  8  1  0  0  0  0
 15  9  1  0  0  0  0
 16 11  1  0  0  0  0
 17 14  2  0  0  0  0
 17 15  1  0  0  0  0
 18 20  1  0  0  0  0
 20 24  1  6  0  0  0
 20 19  1  0  0  0  0
 21 18  1  0  0  0  0
 21 22  1  6  0  0  0
 22 19  1  0  0  0  0
 24 23  1  0  0  0  0
 24 25  1  0  0  0  0
 26 24  1  0  0  0  0
 27 29  1  0  0  0  0
 27 28  1  0  0  0  0
 29 28  1  0  0  0  0
M  END
>  <MODEL>
8

>  <REMARK>
 VINA RESULT:      -6.8      1.920      2.686
  Name = 
  3 active torsions:
  status: ('A' for Active; 'I' for Inactive)
    1  A    between atoms: C_1  and  C_12
    2  A    between atoms: C_7  and  C_9
    3  A    between atoms: C_20  and  N_29
                            x       y       z     vdW  Elec       q    Type
                         _______ _______ _______ _____ _____    ______ ____

>  <TORSDO>
F 3

$$$$
=
 OpenBabel11062422583D

 29 34  0  0  1  0  0  0  0  0999 V2000
  191.2910  176.3600  144.5090 C   0  0  1  0  0  3  0  0  0  0  0  0
  189.2780  176.6640  143.1680 N   0  0  0  0  0  0  0  0  0  0  0  0
  188.5490  175.7950  142.2670 C   0  0  0  0  0  2  0  0  0  0  0  0
  185.9570  178.2820  147.6040 C   0  0  0  0  0  2  0  0  0  0  0  0
  183.8920  178.4950  146.3520 N   0  0  0  0  0  1  0  0  0  0  0  0
  187.4140  178.2940  147.5010 N   0  0  0  0  0  2  0  0  0  0  0  0
  190.7240  176.4880  143.0530 C   0  0  2  0  0  3  0  0  0  0  0  0
  188.9630  176.7160  144.5470 C   0  0  0  0  0  0  0  0  0  0  0  0
  190.0530  176.5070  145.3180 C   0  0  0  0  0  0  0  0  0  0  0  0
  185.9310  178.8260  145.2640 O   0  0  0  0  0  0  0  0  0  0  0  0
  190.9150  175.2700  142.1590 C   0  0  0  0  0  2  0  0  0  0  0  0
  186.6870  177.9320  144.4630 C   0  0  1  0  0  3  0  0  0  0  0  0
  185.2800  178.0810  146.2610 C   0  0  1  0  0  3  0  0  0  0  0  0
  187.8810  177.3400  145.1920 C   0  0  0  0  0  0  0  0  0  0  0  0
  189.8010  177.1210  146.8550 S   0  0  0  0  0  0  0  0  0  0  0  0
  189.5980  175.0940  141.4220 C   0  0  0  0  0  2  0  0  0  0  0  0
  188.1970  177.5640  146.5500 C   0  0  0  0  0  0  0  0  0  0  0  0
  193.3570  175.0660  144.2240 N   0  0  0  0  0  2  0  0  0  0  0  0
  193.5510  174.1640  146.4490 C   0  0  0  0  0  2  0  0  0  0  0  0
  194.1710  174.1960  145.0630 C   0  0  2  0  0  3  0  0  0  0  0  0
  192.0280  175.0480  144.8170 C   0  0  1  0  0  3  0  0  0  0  0  0
  192.2170  174.8490  146.3080 C   0  0  0  0  0  2  0  0  0  0  0  0
  195.6580  176.0370  144.7980 F   0  0  0  0  0  0  0  0  0  0  0  0
  195.6160  174.6890  145.1050 C   0  0  0  0  0  0  0  0  0  0  0  0
  196.1280  174.5060  146.3770 F   0  0  0  0  0  0  0  0  0  0  0  0
  196.3920  173.9900  144.1980 F   0  0  0  0  0  0  0  0  0  0  0  0
  184.7630  177.5450  143.0790 C   0  0  0  0  0  2  0  0  0  0  0  0
  185.9550  177.1200  142.3740 C   0  0  0  0  0  2  0  0  0  0  0  0
  185.8590  176.8980  143.8270 N   0  0  0  0  0  0  0  0  0  0  0  0
  1 21  1  0  0  0  0
  1  9  1  1  0  0  0
  2  8  1  0  0  0  0
  3  2  1  0  0  0  0
  6  4  1  0  0  0  0
  7 11  1  6  0  0  0
  7  2  1  0  0  0  0
  7  1  1  0  0  0  0
  8 14  1  0  0  0  0
  8  9  2  0  0  0  0
  9 15  1  0  0  0  0
 10 13  1  0  0  0  0
 12 29  1  1  0  0  0
 12 14  1  0  0  0  0
 12 10  1  0  0  0  0
 13  5  1  1  0  0  0
 13  4  1  0  0  0  0
 14 17  2  0  0  0  0
 16 11  1  0  0  0  0
 16  3  1  0  0  0  0
 17 15  1  0  0  0  0
 17  6  1  0  0  0  0
 18 21  1  0  0  0  0
 18 20  1  0  0  0  0
 20 24  1  1  0  0  0
 20 19  1  0  0  0  0
 21 22  1  1  0  0  0
 22 19  1  0  0  0  0
 23 24  1  0  0  0  0
 24 25  1  0  0  0  0
 26 24  1  0  0  0  0
 27 29  1  0  0  0  0
 28 27  1  0  0  0  0
 28 29  1  0  0  0  0
M  END
>  <MODEL>
9

>  <REMARK>
 VINA RESULT:      -6.7      4.815      7.868
  Name = 
  3 active torsions:
  status: ('A' for Active; 'I' for Inactive)
    1  A    between atoms: C_1  and  C_12
    2  A    between atoms: C_7  and  C_9
    3  A    between atoms: C_20  and  N_29
                            x       y       z     vdW  Elec       q    Type
                         _______ _______ _______ _____ _____    ______ ____

>  <TORSDO>
F 3

$$$$
