=
 OpenBabel11062420533D

 50 56  0  0  1  0  0  0  0  0999 V2000
  189.7100  171.7560  135.1800 C   0  0  0  0  0  1  0  0  0  0  0  0
  192.4970  171.0490  134.9420 O   0  0  0  0  0  1  0  0  0  0  0  0
  190.6720  171.8860  136.3140 C   0  0  0  0  0  0  0  0  0  0  0  0
  192.4700  172.1160  138.5000 C   0  0  0  0  0  0  0  0  0  0  0  0
  192.0250  171.5340  136.1600 C   0  0  0  0  0  0  0  0  0  0  0  0
  191.1230  172.4630  138.6420 C   0  0  0  0  0  0  0  0  0  0  0  0
  188.7150  172.8250  138.0460 S   0  0  0  0  0  0  0  0  0  0  0  0
  189.1710  173.2080  139.6330 C   0  0  0  0  0  0  0  0  0  0  0  0
  190.2520  172.3520  137.5660 C   0  0  0  0  0  0  0  0  0  0  0  0
  192.9160  171.6570  137.2430 C   0  0  0  0  0  3  0  0  0  0  0  0
  190.5250  172.9360  139.8160 C   0  0  0  0  0  3  0  0  0  0  0  0
  193.3330  172.2110  139.5950 O   0  0  0  0  0  0  0  0  0  0  0  0
  195.3340  171.2960  140.5930 C   0  0  2  0  0  3  0  0  0  0  0  0
  196.0580  171.5770  139.4470 F   0  0  0  0  0  0  0  0  0  0  0  0
  193.3490  171.9170  142.5710 C   0  0  0  0  0  2  0  0  0  0  0  0
  194.4890  172.6260  142.5720 C   0  0  0  0  0  0  0  0  0  0  0  0
  193.8610  171.0690  140.2600 C   0  0  1  0  0  3  0  0  0  0  0  0
  193.0980  170.8220  141.5650 C   0  0  0  0  0  2  0  0  0  0  0  0
  195.4690  172.3920  141.5520 N   0  0  0  0  0  0  0  0  0  0  0  0
  196.0180  174.2830  143.4250 O   0  0  0  0  0  0  0  0  0  0  0  0
  194.7390  173.7060  143.5790 C   0  0  1  0  0  3  0  0  0  0  0  0
  195.3420  176.2900  144.5710 C   0  0  0  0  0  2  0  0  0  0  0  0
  193.6600  174.7880  143.4700 C   0  0  0  0  0  2  0  0  0  0  0  0
  193.8800  175.8420  144.5570 C   0  0  1  0  0  3  0  0  0  0  0  0
  196.2570  175.0630  144.5710 C   0  0  0  0  0  2  0  0  0  0  0  0
  193.5380  175.3090  145.8080 O   0  0  0  0  0  0  0  0  0  0  0  0
  192.9900  176.3780  146.5200 C   0  0  2  0  0  3  0  0  0  0  0  0
  191.7730  175.8880  147.2830 C   0  0  1  0  0  3  0  0  0  0  0  0
  191.5400  176.7340  148.3670 O   0  0  0  0  0  1  0  0  0  0  0  0
  191.5960  176.6640  145.9960 C   0  0  0  0  0  2  0  0  0  0  0  0
  188.2650  173.6740  140.7300 C   0  0  0  0  0  2  0  0  0  0  0  0
  188.7230  175.0010  141.3190 C   0  0  1  0  0  3  0  0  0  0  0  0
  189.2630  173.6260  143.2960 O   0  0  0  0  0  1  0  0  0  0  0  0
  187.8230  175.3560  142.4520 N   0  0  0  0  0  0  0  0  0  0  0  0
  190.1230  175.8490  143.1220 O   0  0  0  0  0  1  0  0  0  0  0  0
  189.2090  174.8840  142.6860 C   0  0  0  0  0  0  0  0  0  0  0  0
  187.4740  177.3290  143.8600 C   0  0  0  0  0  0  0  0  0  0  0  0
  187.2020  176.4540  144.9600 N   0  0  0  0  0  2  0  0  0  0  0  0
  187.7450  176.7670  142.5480 N   0  0  0  0  0  0  0  0  0  0  0  0
  187.5180  178.5750  144.0560 O   0  0  0  0  0  0  0  0  0  0  0  0
  187.6180  177.5150  141.2740 C   0  0  0  0  0  3  0  0  0  0  0  0
  186.5010  177.0150  140.3730 C   0  0  0  0  0  2  0  0  0  0  0  0
  186.3120  178.2800  141.1930 C   0  0  0  0  0  2  0  0  0  0  0  0
  187.0340  176.9270  146.3270 C   0  0  2  0  0  3  0  0  0  0  0  0
  187.7760  175.9930  147.2770 C   0  0  0  0  0  2  0  0  0  0  0  0
  188.5640  175.0980  146.5560 O   0  0  0  0  0  1  0  0  0  0  0  0
  185.5470  176.9520  146.6610 C   0  0  0  0  0  2  0  0  0  0  0  0
  183.9480  178.6490  146.1700 O   0  0  0  0  0  0  0  0  0  0  0  0
  185.0380  178.3500  146.7210 C   0  0  0  0  0  0  0  0  0  0  0  0
  185.7740  179.3450  147.4240 N   0  0  0  0  0  1  0  0  0  0  0  0
  1  3  1  0  0  0  0
  2  5  1  0  0  0  0
  3  9  1  0  0  0  0
  4  6  1  0  0  0  0
  4 12  1  0  0  0  0
  5  3  2  0  0  0  0
  5 10  1  0  0  0  0
  6 11  1  0  0  0  0
  7  8  1  0  0  0  0
  8 11  2  0  0  0  0
  8 31  1  0  0  0  0
  9  7  1  0  0  0  0
  9  6  2  0  0  0  0
 10  4  2  0  0  0  0
 13 14  1  6  0  0  0
 13 19  1  0  0  0  0
 15 16  1  0  0  0  0
 17 12  1  1  0  0  0
 17 13  1  0  0  0  0
 17 18  1  0  0  0  0
 18 15  1  0  0  0  0
 19 16  2  0  0  0  0
 20 21  1  0  0  0  0
 20 25  1  0  0  0  0
 21 16  1  6  0  0  0
 23 21  1  0  0  0  0
 23 24  1  0  0  0  0
 24 22  1  0  0  0  0
 24 26  1  1  0  0  0
 25 22  1  0  0  0  0
 27 26  1  6  0  0  0
 27 28  1  0  0  0  0
 28 29  1  1  0  0  0
 30 27  1  0  0  0  0
 30 28  1  0  0  0  0
 32 31  1  1  0  0  0
 32 34  1  0  0  0  0
 32 36  1  0  0  0  0
 34 39  1  0  0  0  0
 34 36  1  0  0  0  0
 36 35  1  0  0  0  0
 36 33  1  0  0  0  0
 37 40  2  0  0  0  0
 37 38  1  0  0  0  0
 38 44  1  0  0  0  0
 39 37  1  0  0  0  0
 41 39  1  0  0  0  0
 42 43  1  0  0  0  0
 42 41  1  0  0  0  0
 43 41  1  0  0  0  0
 44 47  1  1  0  0  0
 44 45  1  0  0  0  0
 46 45  1  0  0  0  0
 47 49  1  0  0  0  0
 48 49  2  0  0  0  0
 49 50  1  0  0  0  0
M  END
>  <MODEL>
1

>  <REMARK>
 VINA RESULT:      -6.5      0.000      0.000
  Name = 
  13 active torsions:
  status: ('A' for Active; 'I' for Inactive)
    1  A    between atoms: O_2  and  C_25
    2  A    between atoms: O_2  and  C_41
    3  A    between atoms: C_3  and  C_37
    4  A    between atoms: C_7  and  N_27
    5  A    between atoms: O_9  and  C_15
    6  A    between atoms: O_9  and  C_18
    7  A    between atoms: CA_14  and  N_19
    8  A    between atoms: CA_14  and  C_22
    9  A    between atoms: CA_14  and  CB_48
   10  A    between atoms: C_17  and  C_29
   11  A    between atoms: CG_24  and  CB_48
   12  A    between atoms: N_27  and  N_32
   13  A    between atoms: C_29  and  C_43
                            x       y       z     vdW  Elec       q    Type
                         _______ _______ _______ _____ _____    ______ ____

>  <TORSDO>
F 13

$$$$
=
 OpenBabel11062420533D

 50 56  0  0  1  0  0  0  0  0999 V2000
  189.4710  171.8770  135.0650 C   0  0  0  0  0  1  0  0  0  0  0  0
  191.5360  169.9070  135.4880 O   0  0  0  0  0  1  0  0  0  0  0  0
  190.1400  171.6840  136.3850 C   0  0  0  0  0  0  0  0  0  0  0  0
  191.3710  171.3190  138.9190 C   0  0  0  0  0  0  0  0  0  0  0  0
  191.1450  170.7140  136.5540 C   0  0  0  0  0  0  0  0  0  0  0  0
  190.3710  172.2800  138.7400 C   0  0  0  0  0  0  0  0  0  0  0  0
  188.6150  173.6600  137.6020 S   0  0  0  0  0  0  0  0  0  0  0  0
  188.8930  173.9870  139.2420 C   0  0  0  0  0  0  0  0  0  0  0  0
  189.7780  172.4550  137.4970 C   0  0  0  0  0  0  0  0  0  0  0  0
  191.7590  170.5410  137.8090 C   0  0  0  0  0  3  0  0  0  0  0  0
  189.8750  173.1320  139.7350 C   0  0  0  0  0  3  0  0  0  0  0  0
  191.9450  171.1370  140.1790 O   0  0  0  0  0  0  0  0  0  0  0  0
  193.1550  169.5010  141.4820 C   0  0  2  0  0  3  0  0  0  0  0  0
  194.0760  169.3420  140.4620 F   0  0  0  0  0  0  0  0  0  0  0  0
  191.4180  171.0920  143.1230 C   0  0  0  0  0  2  0  0  0  0  0  0
  192.7440  171.2130  143.2990 C   0  0  0  0  0  0  0  0  0  0  0  0
  191.8000  169.9330  140.9250 C   0  0  1  0  0  3  0  0  0  0  0  0
  190.8380  170.1530  142.0950 C   0  0  0  0  0  2  0  0  0  0  0  0
  193.6400  170.4890  142.4450 N   0  0  0  0  0  0  0  0  0  0  0  0
  194.7240  172.0490  144.3910 O   0  0  0  0  0  0  0  0  0  0  0  0
  193.3160  172.1400  144.3270 C   0  0  1  0  0  3  0  0  0  0  0  0
  194.9010  174.2320  145.3920 C   0  0  0  0  0  2  0  0  0  0  0  0
  192.8970  173.5820  144.0280 C   0  0  0  0  0  2  0  0  0  0  0  0
  193.4190  174.5060  145.1310 C   0  0  1  0  0  3  0  0  0  0  0  0
  195.1260  172.7270  145.5560 C   0  0  0  0  0  2  0  0  0  0  0  0
  192.6870  174.2980  146.3080 O   0  0  0  0  0  0  0  0  0  0  0  0
  191.9930  175.4920  146.5190 C   0  0  2  0  0  3  0  0  0  0  0  0
  191.4500  175.5000  147.9360 C   0  0  1  0  0  3  0  0  0  0  0  0
  191.2400  176.8190  148.3380 O   0  0  0  0  0  1  0  0  0  0  0  0
  190.5320  175.1790  146.7770 C   0  0  0  0  0  2  0  0  0  0  0  0
  188.1470  174.9680  140.0910 C   0  0  0  0  0  2  0  0  0  0  0  0
  188.8720  175.2540  141.3980 C   0  0  1  0  0  3  0  0  0  0  0  0
  187.1000  173.8420  142.3760 O   0  0  0  0  0  1  0  0  0  0  0  0
  187.9840  176.0750  142.2670 N   0  0  0  0  0  0  0  0  0  0  0  0
  189.0450  174.3680  143.6600 O   0  0  0  0  0  1  0  0  0  0  0  0
  188.2340  174.6420  142.5540 C   0  0  0  0  0  0  0  0  0  0  0  0
  188.1660  177.4650  144.2760 C   0  0  0  0  0  0  0  0  0  0  0  0
  186.7700  177.2470  144.5120 N   0  0  0  0  0  2  0  0  0  0  0  0
  188.7870  176.9030  143.0880 N   0  0  0  0  0  0  0  0  0  0  0  0
  188.8450  178.1040  145.1260 O   0  0  0  0  0  0  0  0  0  0  0  0
  190.0620  177.3850  142.5040 C   0  0  0  0  0  3  0  0  0  0  0  0
  190.9240  178.1780  143.4720 C   0  0  0  0  0  2  0  0  0  0  0  0
  191.2660  176.7320  143.1530 C   0  0  0  0  0  2  0  0  0  0  0  0
  186.0950  177.6750  145.7290 C   0  0  2  0  0  3  0  0  0  0  0  0
  186.0660  176.5180  146.7210 C   0  0  0  0  0  2  0  0  0  0  0  0
  187.1830  176.5700  147.5540 O   0  0  0  0  0  1  0  0  0  0  0  0
  184.6760  178.1100  145.3800 C   0  0  0  0  0  2  0  0  0  0  0  0
  185.3090  180.0340  144.1260 O   0  0  0  0  0  0  0  0  0  0  0  0
  184.6650  178.9550  144.1540 C   0  0  0  0  0  0  0  0  0  0  0  0
  183.9420  178.5290  143.0040 N   0  0  0  0  0  1  0  0  0  0  0  0
  1  3  1  0  0  0  0
  2  5  1  0  0  0  0
  3  5  2  0  0  0  0
  3  9  1  0  0  0  0
  4 12  1  0  0  0  0
  5 10  1  0  0  0  0
  6  4  1  0  0  0  0
  6 11  1  0  0  0  0
  7  8  1  0  0  0  0
  8 11  2  0  0  0  0
  8 31  1  0  0  0  0
  9  7  1  0  0  0  0
  9  6  2  0  0  0  0
 10  4  2  0  0  0  0
 13 14  1  6  0  0  0
 13 19  1  0  0  0  0
 15 16  1  0  0  0  0
 17 12  1  1  0  0  0
 17 13  1  0  0  0  0
 17 18  1  0  0  0  0
 18 15  1  0  0  0  0
 19 16  2  0  0  0  0
 20 25  1  0  0  0  0
 21 16  1  6  0  0  0
 21 20  1  0  0  0  0
 22 25  1  0  0  0  0
 23 21  1  0  0  0  0
 23 24  1  0  0  0  0
 24 22  1  0  0  0  0
 24 26  1  1  0  0  0
 27 26  1  1  0  0  0
 27 30  1  0  0  0  0
 27 28  1  0  0  0  0
 28 29  1  6  0  0  0
 30 28  1  0  0  0  0
 32 31  1  6  0  0  0
 32 34  1  0  0  0  0
 32 36  1  0  0  0  0
 33 36  1  0  0  0  0
 34 36  1  0  0  0  0
 34 39  1  0  0  0  0
 36 35  1  0  0  0  0
 37 38  1  0  0  0  0
 37 40  2  0  0  0  0
 38 44  1  0  0  0  0
 39 37  1  0  0  0  0
 41 39  1  0  0  0  0
 41 43  1  0  0  0  0
 41 42  1  0  0  0  0
 43 42  1  0  0  0  0
 44 47  1  6  0  0  0
 44 45  1  0  0  0  0
 45 46  1  0  0  0  0
 48 49  2  0  0  0  0
 49 47  1  0  0  0  0
 50 49  1  0  0  0  0
M  END
>  <MODEL>
2

>  <REMARK>
 VINA RESULT:      -6.5      1.791      2.209
  Name = 
  13 active torsions:
  status: ('A' for Active; 'I' for Inactive)
    1  A    between atoms: O_2  and  C_25
    2  A    between atoms: O_2  and  C_41
    3  A    between atoms: C_3  and  C_37
    4  A    between atoms: C_7  and  N_27
    5  A    between atoms: O_9  and  C_15
    6  A    between atoms: O_9  and  C_18
    7  A    between atoms: CA_14  and  N_19
    8  A    between atoms: CA_14  and  C_22
    9  A    between atoms: CA_14  and  CB_48
   10  A    between atoms: C_17  and  C_29
   11  A    between atoms: CG_24  and  CB_48
   12  A    between atoms: N_27  and  N_32
   13  A    between atoms: C_29  and  C_43
                            x       y       z     vdW  Elec       q    Type
                         _______ _______ _______ _____ _____    ______ ____

>  <TORSDO>
F 13

$$$$
=
 OpenBabel11062420533D

 50 56  0  0  1  0  0  0  0  0999 V2000
  196.0010  172.8020  137.1680 C   0  0  0  0  0  1  0  0  0  0  0  0
  193.5330  173.9070  136.1650 O   0  0  0  0  0  1  0  0  0  0  0  0
  194.8070  173.0190  138.0360 C   0  0  0  0  0  0  0  0  0  0  0  0
  192.5620  173.4510  139.7200 C   0  0  0  0  0  0  0  0  0  0  0  0
  193.6180  173.5590  137.5110 C   0  0  0  0  0  0  0  0  0  0  0  0
  193.7470  172.9150  140.2320 C   0  0  0  0  0  0  0  0  0  0  0  0
  196.1060  172.0700  140.2990 S   0  0  0  0  0  0  0  0  0  0  0  0
  195.2440  172.0340  141.7580 C   0  0  0  0  0  0  0  0  0  0  0  0
  194.8390  172.7030  139.4000 C   0  0  0  0  0  0  0  0  0  0  0  0
  192.5040  173.7650  138.3470 C   0  0  0  0  0  3  0  0  0  0  0  0
  193.9660  172.5500  141.5660 C   0  0  0  0  0  3  0  0  0  0  0  0
  191.4770  173.6810  140.5710 O   0  0  0  0  0  0  0  0  0  0  0  0
  190.0200  172.6620  142.2070 C   0  0  2  0  0  3  0  0  0  0  0  0
  191.1080  172.3120  142.9870 F   0  0  0  0  0  0  0  0  0  0  0  0
  188.5910  174.4600  140.4850 C   0  0  0  0  0  3  0  0  0  0  0  0
  188.7030  174.7800  141.7840 C   0  0  0  0  0  0  0  0  0  0  0  0
  190.4150  172.7480  140.7340 C   0  0  1  0  0  3  0  0  0  0  0  0
  189.1950  173.1960  139.9260 C   0  0  0  0  0  2  0  0  0  0  0  0
  189.4740  173.9420  142.6550 N   0  0  0  0  0  2  0  0  0  0  0  0
  188.1250  177.0890  141.4010 O   0  0  0  0  0  0  0  0  0  0  0  0
  188.0940  176.0320  142.3370 C   0  0  1  0  0  3  0  0  0  0  0  0
  186.3300  178.2410  142.5190 C   0  0  0  0  0  2  0  0  0  0  0  0
  186.6510  175.7650  142.7780 C   0  0  0  0  0  2  0  0  0  0  0  0
  186.0690  177.0290  143.4150 C   0  0  1  0  0  3  0  0  0  0  0  0
  187.8020  178.2650  142.1010 C   0  0  0  0  0  2  0  0  0  0  0  0
  186.6530  177.2370  144.6720 O   0  0  0  0  0  0  0  0  0  0  0  0
  185.5960  177.1580  145.5810 C   0  0  2  0  0  3  0  0  0  0  0  0
  185.7500  178.2620  146.6110 C   0  0  1  0  0  3  0  0  0  0  0  0
  184.5050  178.5430  147.1710 O   0  0  0  0  0  1  0  0  0  0  0  0
  186.1470  176.8440  146.9590 C   0  0  0  0  0  2  0  0  0  0  0  0
  195.7750  171.6120  143.0930 C   0  0  0  0  0  2  0  0  0  0  0  0
  196.2860  172.7970  143.9000 C   0  0  1  0  0  3  0  0  0  0  0  0
  195.2340  171.6130  145.7930 O   0  0  0  0  0  1  0  0  0  0  0  0
  195.1170  173.5710  144.4030 N   0  0  0  0  0  0  0  0  0  0  0  0
  196.7570  173.4060  146.2110 O   0  0  0  0  0  1  0  0  0  0  0  0
  195.9310  172.7260  145.3100 C   0  0  0  0  0  0  0  0  0  0  0  0
  194.4980  175.8480  145.0630 C   0  0  0  0  0  0  0  0  0  0  0  0
  193.1840  175.3660  145.3680 N   0  0  0  0  0  2  0  0  0  0  0  0
  195.4870  174.9340  144.5150 N   0  0  0  0  0  0  0  0  0  0  0  0
  194.7910  177.0490  145.3160 O   0  0  0  0  0  0  0  0  0  0  0  0
  196.6980  175.3590  143.7720 C   0  0  0  0  0  3  0  0  0  0  0  0
  196.4750  175.5390  142.2800 C   0  0  0  0  0  2  0  0  0  0  0  0
  196.5480  176.7510  143.1930 C   0  0  0  0  0  2  0  0  0  0  0  0
  192.1720  176.1810  146.0230 C   0  0  2  0  0  3  0  0  0  0  0  0
  191.8310  175.5680  147.3770 C   0  0  0  0  0  2  0  0  0  0  0  0
  190.4610  175.3200  147.4610 O   0  0  0  0  0  1  0  0  0  0  0  0
  190.9330  176.2360  145.1370 C   0  0  0  0  0  2  0  0  0  0  0  0
  190.8120  178.4250  144.2040 O   0  0  0  0  0  0  0  0  0  0  0  0
  191.1120  177.2170  144.0310 C   0  0  0  0  0  0  0  0  0  0  0  0
  191.6470  176.7900  142.7830 N   0  0  0  0  0  1  0  0  0  0  0  0
  1  3  1  0  0  0  0
  2  5  1  0  0  0  0
  3  9  1  0  0  0  0
  4  6  1  0  0  0  0
  4 12  1  0  0  0  0
  5  3  2  0  0  0  0
  5 10  1  0  0  0  0
  6 11  1  0  0  0  0
  7  8  1  0  0  0  0
  8 31  1  0  0  0  0
  9  6  2  0  0  0  0
  9  7  1  0  0  0  0
 10  4  2  0  0  0  0
 11  8  2  0  0  0  0
 13 19  1  0  0  0  0
 13 14  1  1  0  0  0
 15 16  2  0  0  0  0
 16 19  1  0  0  0  0
 17 12  1  1  0  0  0
 17 13  1  0  0  0  0
 18 15  1  0  0  0  0
 18 17  1  0  0  0  0
 20 25  1  0  0  0  0
 20 21  1  0  0  0  0
 21 16  1  6  0  0  0
 21 23  1  0  0  0  0
 22 24  1  0  0  0  0
 23 24  1  0  0  0  0
 24 26  1  1  0  0  0
 25 22  1  0  0  0  0
 27 26  1  6  0  0  0
 27 28  1  0  0  0  0
 27 30  1  0  0  0  0
 28 30  1  0  0  0  0
 28 29  1  1  0  0  0
 32 31  1  6  0  0  0
 32 34  1  0  0  0  0
 32 36  1  0  0  0  0
 34 39  1  0  0  0  0
 34 36  1  0  0  0  0
 36 33  1  0  0  0  0
 36 35  1  0  0  0  0
 37 40  2  0  0  0  0
 37 38  1  0  0  0  0
 38 44  1  0  0  0  0
 39 37  1  0  0  0  0
 41 39  1  0  0  0  0
 42 43  1  0  0  0  0
 42 41  1  0  0  0  0
 43 41  1  0  0  0  0
 44 47  1  6  0  0  0
 44 45  1  0  0  0  0
 45 46  1  0  0  0  0
 49 48  2  0  0  0  0
 49 47  1  0  0  0  0
 50 49  1  0  0  0  0
M  END
>  <MODEL>
3

>  <REMARK>
 VINA RESULT:      -6.4      2.723      6.703
  Name = 
  13 active torsions:
  status: ('A' for Active; 'I' for Inactive)
    1  A    between atoms: O_2  and  C_25
    2  A    between atoms: O_2  and  C_41
    3  A    between atoms: C_3  and  C_37
    4  A    between atoms: C_7  and  N_27
    5  A    between atoms: O_9  and  C_15
    6  A    between atoms: O_9  and  C_18
    7  A    between atoms: CA_14  and  N_19
    8  A    between atoms: CA_14  and  C_22
    9  A    between atoms: CA_14  and  CB_48
   10  A    between atoms: C_17  and  C_29
   11  A    between atoms: CG_24  and  CB_48
   12  A    between atoms: N_27  and  N_32
   13  A    between atoms: C_29  and  C_43
                            x       y       z     vdW  Elec       q    Type
                         _______ _______ _______ _____ _____    ______ ____

>  <TORSDO>
F 13

$$$$
=
 OpenBabel11062420533D

 50 56  0  0  1  0  0  0  0  0999 V2000
  194.1900  177.0590  146.8870 C   0  0  0  0  0  1  0  0  0  0  0  0
  195.7290  175.4310  145.0700 O   0  0  0  0  0  1  0  0  0  0  0  0
  193.5770  175.9790  146.0600 C   0  0  0  0  0  0  0  0  0  0  0  0
  192.3750  173.9520  144.4740 C   0  0  0  0  0  0  0  0  0  0  0  0
  194.3600  175.2030  145.1850 C   0  0  0  0  0  0  0  0  0  0  0  0
  191.6060  174.7290  145.3460 C   0  0  0  0  0  0  0  0  0  0  0  0
  191.0300  176.4780  147.0460 S   0  0  0  0  0  0  0  0  0  0  0  0
  189.7520  175.5200  146.4790 C   0  0  0  0  0  0  0  0  0  0  0  0
  192.2030  175.7150  146.1210 C   0  0  0  0  0  0  0  0  0  0  0  0
  193.7630  174.1930  144.4070 C   0  0  0  0  0  3  0  0  0  0  0  0
  190.2230  174.6150  145.5320 C   0  0  0  0  0  3  0  0  0  0  0  0
  191.7610  172.9780  143.6830 O   0  0  0  0  0  0  0  0  0  0  0  0
  190.1430  171.1830  143.7130 C   0  0  2  0  0  3  0  0  0  0  0  0
  189.1710  172.0400  144.1980 F   0  0  0  0  0  0  0  0  0  0  0  0
  192.3890  170.5630  142.0360 C   0  0  0  0  0  3  0  0  0  0  0  0
  191.1880  170.7240  141.4550 C   0  0  0  0  0  0  0  0  0  0  0  0
  191.5350  171.6480  144.1360 C   0  0  1  0  0  3  0  0  0  0  0  0
  192.5730  170.7030  143.5260 C   0  0  0  0  0  2  0  0  0  0  0  0
  190.0620  171.1070  142.2550 N   0  0  0  0  0  2  0  0  0  0  0  0
  190.6050  169.2670  139.6260 O   0  0  0  0  0  0  0  0  0  0  0  0
  191.0070  170.5740  139.9760 C   0  0  1  0  0  3  0  0  0  0  0  0
  189.6910  170.0210  137.5290 C   0  0  0  0  0  2  0  0  0  0  0  0
  189.9830  171.5920  139.4650 C   0  0  0  0  0  2  0  0  0  0  0  0
  189.8700  171.4830  137.9430 C   0  0  1  0  0  3  0  0  0  0  0  0
  190.7410  169.1560  138.2300 C   0  0  0  0  0  2  0  0  0  0  0  0
  191.0240  172.0050  137.3440 O   0  0  0  0  0  0  0  0  0  0  0  0
  190.8710  173.3920  137.4080 C   0  0  2  0  0  3  0  0  0  0  0  0
  191.6960  174.0290  136.3060 C   0  0  1  0  0  3  0  0  0  0  0  0
  191.1710  175.2860  136.0080 O   0  0  0  0  0  1  0  0  0  0  0  0
  192.2110  174.0260  137.7280 C   0  0  0  0  0  2  0  0  0  0  0  0
  188.3070  175.6620  146.8420 C   0  0  0  0  0  2  0  0  0  0  0  0
  187.7620  177.0350  146.4740 C   0  0  1  0  0  3  0  0  0  0  0  0
  186.1230  176.5620  148.2580 O   0  0  0  0  0  1  0  0  0  0  0  0
  186.4020  176.8680  145.8900 N   0  0  0  0  0  0  0  0  0  0  0  0
  186.3470  178.7840  147.4090 O   0  0  0  0  0  1  0  0  0  0  0  0
  186.5930  177.4160  147.2540 C   0  0  0  0  0  0  0  0  0  0  0  0
  186.9590  177.8800  143.7300 C   0  0  0  0  0  0  0  0  0  0  0  0
  187.9760  176.8860  143.5650 N   0  0  0  0  0  2  0  0  0  0  0  0
  186.1760  177.9070  144.9540 N   0  0  0  0  0  0  0  0  0  0  0  0
  186.7290  178.6920  142.7910 O   0  0  0  0  0  0  0  0  0  0  0  0
  185.4220  179.0880  145.4390 C   0  0  0  0  0  3  0  0  0  0  0  0
  184.8830  179.9750  144.3290 C   0  0  0  0  0  2  0  0  0  0  0  0
  183.9560  179.0180  145.0620 C   0  0  0  0  0  2  0  0  0  0  0  0
  188.7260  176.7160  142.3280 C   0  0  2  0  0  3  0  0  0  0  0  0
  187.9870  175.7380  141.4210 C   0  0  0  0  0  2  0  0  0  0  0  0
  187.3740  176.4230  140.3730 O   0  0  0  0  0  1  0  0  0  0  0  0
  190.1150  176.1830  142.6630 C   0  0  0  0  0  2  0  0  0  0  0  0
  190.5790  178.2880  143.6760 O   0  0  0  0  0  0  0  0  0  0  0  0
  191.0290  177.2900  143.0590 C   0  0  0  0  0  0  0  0  0  0  0  0
  192.4180  177.2060  142.7610 N   0  0  0  0  0  1  0  0  0  0  0  0
  2  5  1  0  0  0  0
  3  9  1  0  0  0  0
  3  1  1  0  0  0  0
  4  6  1  0  0  0  0
  5  3  2  0  0  0  0
  6 11  1  0  0  0  0
  6  9  2  0  0  0  0
  8 31  1  0  0  0  0
  8  7  1  0  0  0  0
  9  7  1  0  0  0  0
 10  4  2  0  0  0  0
 10  5  1  0  0  0  0
 11  8  2  0  0  0  0
 12  4  1  0  0  0  0
 13 17  1  0  0  0  0
 13 14  1  6  0  0  0
 15 18  1  0  0  0  0
 16 15  2  0  0  0  0
 16 19  1  0  0  0  0
 17 12  1  6  0  0  0
 18 17  1  0  0  0  0
 19 13  1  0  0  0  0
 20 21  1  0  0  0  0
 21 16  1  1  0  0  0
 22 24  1  0  0  0  0
 22 25  1  0  0  0  0
 23 21  1  0  0  0  0
 24 26  1  6  0  0  0
 24 23  1  0  0  0  0
 25 20  1  0  0  0  0
 27 26  1  6  0  0  0
 27 30  1  0  0  0  0
 28 29  1  1  0  0  0
 28 27  1  0  0  0  0
 28 30  1  0  0  0  0
 32 31  1  1  0  0  0
 32 36  1  0  0  0  0
 34 32  1  0  0  0  0
 34 36  1  0  0  0  0
 36 35  1  0  0  0  0
 36 33  1  0  0  0  0
 37 39  1  0  0  0  0
 38 37  1  0  0  0  0
 39 41  1  0  0  0  0
 39 34  1  0  0  0  0
 40 37  2  0  0  0  0
 42 43  1  0  0  0  0
 42 41  1  0  0  0  0
 43 41  1  0  0  0  0
 44 45  1  6  0  0  0
 44 47  1  0  0  0  0
 44 38  1  0  0  0  0
 46 45  1  0  0  0  0
 47 49  1  0  0  0  0
 49 48  2  0  0  0  0
 50 49  1  0  0  0  0
M  END
>  <MODEL>
4

>  <REMARK>
 VINA RESULT:      -6.4      2.970      7.420
  Name = 
  13 active torsions:
  status: ('A' for Active; 'I' for Inactive)
    1  A    between atoms: O_2  and  C_25
    2  A    between atoms: O_2  and  C_41
    3  A    between atoms: C_3  and  C_37
    4  A    between atoms: C_7  and  N_27
    5  A    between atoms: O_9  and  C_15
    6  A    between atoms: O_9  and  C_18
    7  A    between atoms: CA_14  and  N_19
    8  A    between atoms: CA_14  and  C_22
    9  A    between atoms: CA_14  and  CB_48
   10  A    between atoms: C_17  and  C_29
   11  A    between atoms: CG_24  and  CB_48
   12  A    between atoms: N_27  and  N_32
   13  A    between atoms: C_29  and  C_43
                            x       y       z     vdW  Elec       q    Type
                         _______ _______ _______ _____ _____    ______ ____

>  <TORSDO>
F 13

$$$$
=
 OpenBabel11062420533D

 50 56  0  0  1  0  0  0  0  0999 V2000
  191.6630  177.4160  148.1750 C   0  0  0  0  0  1  0  0  0  0  0  0
  193.8690  176.0050  146.9650 O   0  0  0  0  0  1  0  0  0  0  0  0
  191.5080  176.5860  146.9450 C   0  0  0  0  0  0  0  0  0  0  0  0
  191.1880  175.0410  144.5830 C   0  0  0  0  0  0  0  0  0  0  0  0
  192.6070  175.9100  146.3830 C   0  0  0  0  0  0  0  0  0  0  0  0
  190.1020  175.7170  145.1490 C   0  0  0  0  0  0  0  0  0  0  0  0
  188.8010  177.1630  146.7290 S   0  0  0  0  0  0  0  0  0  0  0  0
  187.9380  176.4750  145.4430 C   0  0  0  0  0  0  0  0  0  0  0  0
  190.2670  176.4660  146.3070 C   0  0  0  0  0  0  0  0  0  0  0  0
  192.4440  175.1380  145.2170 C   0  0  0  0  0  3  0  0  0  0  0  0
  188.7950  175.7210  144.6470 C   0  0  0  0  0  3  0  0  0  0  0  0
  191.0150  174.3080  143.4070 O   0  0  0  0  0  0  0  0  0  0  0  0
  190.0370  172.1270  143.0510 C   0  0  2  0  0  3  0  0  0  0  0  0
  189.1020  172.3630  144.0440 F   0  0  0  0  0  0  0  0  0  0  0  0
  191.6480  172.9450  140.8210 C   0  0  0  0  0  3  0  0  0  0  0  0
  190.3240  172.8200  140.6350 C   0  0  0  0  0  0  0  0  0  0  0  0
  191.3160  172.9200  143.3130 C   0  0  1  0  0  3  0  0  0  0  0  0
  192.2890  172.6710  142.1580 C   0  0  0  0  0  2  0  0  0  0  0  0
  189.4820  172.4860  141.7460 N   0  0  0  0  0  2  0  0  0  0  0  0
  188.7580  174.1400  139.3650 O   0  0  0  0  0  0  0  0  0  0  0  0
  189.6920  173.0830  139.3030 C   0  0  1  0  0  3  0  0  0  0  0  0
  188.9270  174.5380  136.9950 C   0  0  0  0  0  2  0  0  0  0  0  0
  190.7700  173.3970  138.2610 C   0  0  0  0  0  2  0  0  0  0  0  0
  190.1180  173.5830  136.8900 C   0  0  1  0  0  3  0  0  0  0  0  0
  188.0300  174.1150  138.1610 C   0  0  0  0  0  2  0  0  0  0  0  0
  189.6860  172.3440  136.3990 O   0  0  0  0  0  0  0  0  0  0  0  0
  190.7270  171.4580  136.6830 C   0  0  2  0  0  3  0  0  0  0  0  0
  190.8040  170.4200  135.5790 C   0  0  1  0  0  3  0  0  0  0  0  0
  192.0910  169.8850  135.5410 O   0  0  0  0  0  1  0  0  0  0  0  0
  190.1550  170.0700  136.9000 C   0  0  0  0  0  2  0  0  0  0  0  0
  186.4940  176.7020  145.1200 C   0  0  0  0  0  2  0  0  0  0  0  0
  186.3080  177.8250  144.1100 C   0  0  1  0  0  3  0  0  0  0  0  0
  184.2720  178.3020  145.4220 O   0  0  0  0  0  1  0  0  0  0  0  0
  185.0940  177.5390  143.2950 N   0  0  0  0  0  0  0  0  0  0  0  0
  185.0870  179.9180  143.8610 O   0  0  0  0  0  1  0  0  0  0  0  0
  185.0950  178.6000  144.3300 C   0  0  0  0  0  0  0  0  0  0  0  0
  184.0760  178.5250  141.2980 C   0  0  0  0  0  0  0  0  0  0  0  0
  182.7880  178.2900  141.8790 N   0  0  0  0  0  2  0  0  0  0  0  0
  185.2700  178.0910  142.0030 N   0  0  0  0  0  0  0  0  0  0  0  0
  184.1560  179.1450  140.2010 O   0  0  0  0  0  0  0  0  0  0  0  0
  186.5900  177.8770  141.3620 C   0  0  0  0  0  3  0  0  0  0  0  0
  187.0540  176.4310  141.3730 C   0  0  0  0  0  2  0  0  0  0  0  0
  186.4800  177.0390  140.1040 C   0  0  0  0  0  2  0  0  0  0  0  0
  181.5520  178.7920  141.2970 C   0  0  2  0  0  3  0  0  0  0  0  0
  180.5580  179.0980  142.4130 C   0  0  0  0  0  2  0  0  0  0  0  0
  181.1970  179.7640  143.4580 O   0  0  0  0  0  1  0  0  0  0  0  0
  180.9850  177.7350  140.3560 C   0  0  0  0  0  2  0  0  0  0  0  0
  178.7850  177.1690  141.0740 O   0  0  0  0  0  0  0  0  0  0  0  0
  179.5000  177.8310  140.2800 C   0  0  0  0  0  0  0  0  0  0  0  0
  178.8920  178.6920  139.3240 N   0  0  0  0  0  1  0  0  0  0  0  0
  3  1  1  0  0  0  0
  4  6  2  0  0  0  0
  4 10  1  0  0  0  0
  5  3  1  0  0  0  0
  5  2  1  0  0  0  0
  6  9  1  0  0  0  0
  8  7  1  0  0  0  0
  9  7  1  0  0  0  0
  9  3  2  0  0  0  0
 10  5  2  0  0  0  0
 11  6  1  0  0  0  0
 11  8  2  0  0  0  0
 12  4  1  0  0  0  0
 13 17  1  0  0  0  0
 13 14  1  1  0  0  0
 15 18  1  0  0  0  0
 16 15  2  0  0  0  0
 16 19  1  0  0  0  0
 17 12  1  6  0  0  0
 18 17  1  0  0  0  0
 19 13  1  0  0  0  0
 21 20  1  0  0  0  0
 21 16  1  1  0  0  0
 22 25  1  0  0  0  0
 23 21  1  0  0  0  0
 24 26  1  1  0  0  0
 24 22  1  0  0  0  0
 24 23  1  0  0  0  0
 25 20  1  0  0  0  0
 27 26  1  6  0  0  0
 27 30  1  0  0  0  0
 28 29  1  1  0  0  0
 28 27  1  0  0  0  0
 28 30  1  0  0  0  0
 31  8  1  0  0  0  0
 32 36  1  0  0  0  0
 32 31  1  1  0  0  0
 34 32  1  0  0  0  0
 34 36  1  0  0  0  0
 35 36  1  0  0  0  0
 36 33  1  0  0  0  0
 37 38  1  0  0  0  0
 37 39  1  0  0  0  0
 39 34  1  0  0  0  0
 40 37  2  0  0  0  0
 41 42  1  0  0  0  0
 41 39  1  0  0  0  0
 43 41  1  0  0  0  0
 43 42  1  0  0  0  0
 44 47  1  6  0  0  0
 44 38  1  0  0  0  0
 44 45  1  0  0  0  0
 45 46  1  0  0  0  0
 49 47  1  0  0  0  0
 49 48  2  0  0  0  0
 50 49  1  0  0  0  0
M  END
>  <MODEL>
5

>  <REMARK>
 VINA RESULT:      -6.3      3.657      8.125
  Name = 
  13 active torsions:
  status: ('A' for Active; 'I' for Inactive)
    1  A    between atoms: O_2  and  C_25
    2  A    between atoms: O_2  and  C_41
    3  A    between atoms: C_3  and  C_37
    4  A    between atoms: C_7  and  N_27
    5  A    between atoms: O_9  and  C_15
    6  A    between atoms: O_9  and  C_18
    7  A    between atoms: CA_14  and  N_19
    8  A    between atoms: CA_14  and  C_22
    9  A    between atoms: CA_14  and  CB_48
   10  A    between atoms: C_17  and  C_29
   11  A    between atoms: CG_24  and  CB_48
   12  A    between atoms: N_27  and  N_32
   13  A    between atoms: C_29  and  C_43
                            x       y       z     vdW  Elec       q    Type
                         _______ _______ _______ _____ _____    ______ ____

>  <TORSDO>
F 13

$$$$
=
 OpenBabel11062420533D

 50 56  0  0  1  0  0  0  0  0999 V2000
  189.4790  171.5300  135.2360 C   0  0  0  0  0  1  0  0  0  0  0  0
  191.9090  169.9780  135.1330 O   0  0  0  0  0  1  0  0  0  0  0  0
  190.3150  171.2640  136.4430 C   0  0  0  0  0  0  0  0  0  0  0  0
  191.8670  170.7500  138.7650 C   0  0  0  0  0  0  0  0  0  0  0  0
  191.4960  170.5040  136.3550 C   0  0  0  0  0  0  0  0  0  0  0  0
  190.6920  171.5040  138.8420 C   0  0  0  0  0  0  0  0  0  0  0  0
  188.5940  172.6640  138.1130 S   0  0  0  0  0  0  0  0  0  0  0  0
  188.9870  172.7700  139.7580 C   0  0  0  0  0  0  0  0  0  0  0  0
  189.9420  171.7540  137.7010 C   0  0  0  0  0  0  0  0  0  0  0  0
  192.2680  170.2580  137.5060 C   0  0  0  0  0  3  0  0  0  0  0  0
  190.1600  172.0630  140.0100 C   0  0  0  0  0  3  0  0  0  0  0  0
  192.6020  170.4860  139.9240 O   0  0  0  0  0  0  0  0  0  0  0  0
  193.9740  168.8000  140.9800 C   0  0  2  0  0  3  0  0  0  0  0  0
  194.7900  168.7370  139.8650 F   0  0  0  0  0  0  0  0  0  0  0  0
  192.3780  170.2250  142.8940 C   0  0  0  0  0  2  0  0  0  0  0  0
  193.7120  170.3710  142.9450 C   0  0  0  0  0  0  0  0  0  0  0  0
  192.5600  169.2300  140.5930 C   0  0  1  0  0  3  0  0  0  0  0  0
  191.7170  169.3420  141.8660 C   0  0  0  0  0  2  0  0  0  0  0  0
  194.5320  169.7340  141.9580 N   0  0  0  0  0  0  0  0  0  0  0  0
  195.4970  170.6200  144.5460 O   0  0  0  0  0  0  0  0  0  0  0  0
  194.3650  171.2420  143.9750 C   0  0  1  0  0  3  0  0  0  0  0  0
  196.4110  172.7380  145.2400 C   0  0  0  0  0  2  0  0  0  0  0  0
  194.7610  172.5850  143.3550 C   0  0  0  0  0  2  0  0  0  0  0  0
  195.3520  173.4930  144.4350 C   0  0  1  0  0  3  0  0  0  0  0  0
  195.8560  171.3790  145.6750 C   0  0  0  0  0  2  0  0  0  0  0  0
  194.3340  173.9330  145.2920 O   0  0  0  0  0  0  0  0  0  0  0  0
  194.3000  175.3200  145.1340 C   0  0  2  0  0  3  0  0  0  0  0  0
  194.1020  175.9650  146.4930 C   0  0  1  0  0  3  0  0  0  0  0  0
  194.5850  177.2720  146.4560 O   0  0  0  0  0  1  0  0  0  0  0  0
  192.9330  175.8350  145.5410 C   0  0  0  0  0  2  0  0  0  0  0  0
  188.1710  173.4280  140.8260 C   0  0  0  0  0  2  0  0  0  0  0  0
  188.8680  174.6530  141.4000 C   0  0  1  0  0  3  0  0  0  0  0  0
  189.4030  173.1370  143.2720 O   0  0  0  0  0  1  0  0  0  0  0  0
  188.1450  175.0820  142.6300 N   0  0  0  0  0  0  0  0  0  0  0  0
  190.5470  175.2250  143.0690 O   0  0  0  0  0  1  0  0  0  0  0  0
  189.4670  174.4140  142.7050 C   0  0  0  0  0  0  0  0  0  0  0  0
  188.3360  177.0130  144.1240 C   0  0  0  0  0  0  0  0  0  0  0  0
  188.1590  176.1280  145.2360 N   0  0  0  0  0  2  0  0  0  0  0  0
  188.2780  176.4850  142.7710 N   0  0  0  0  0  0  0  0  0  0  0  0
  188.5830  178.2330  144.3370 O   0  0  0  0  0  0  0  0  0  0  0  0
  188.0170  177.3040  141.5630 C   0  0  0  0  0  3  0  0  0  0  0  0
  186.6480  177.0740  140.9460 C   0  0  0  0  0  2  0  0  0  0  0  0
  186.9070  178.3110  141.7900 C   0  0  0  0  0  2  0  0  0  0  0  0
  188.3150  176.5510  146.6200 C   0  0  2  0  0  3  0  0  0  0  0  0
  189.4010  175.7120  147.2830 C   0  0  0  0  0  2  0  0  0  0  0  0
  188.9270  174.4270  147.5410 O   0  0  0  0  0  1  0  0  0  0  0  0
  186.9860  176.3690  147.3450 C   0  0  0  0  0  2  0  0  0  0  0  0
  186.3770  178.6670  147.4880 O   0  0  0  0  0  0  0  0  0  0  0  0
  186.0740  177.5170  147.0830 C   0  0  0  0  0  0  0  0  0  0  0  0
  184.8690  177.3160  146.3530 N   0  0  0  0  0  1  0  0  0  0  0  0
  1  3  1  0  0  0  0
  2  5  1  0  0  0  0
  3  9  1  0  0  0  0
  4  6  1  0  0  0  0
  4 12  1  0  0  0  0
  5  3  2  0  0  0  0
  5 10  1  0  0  0  0
  6 11  1  0  0  0  0
  7  8  1  0  0  0  0
  8 11  2  0  0  0  0
  8 31  1  0  0  0  0
  9  7  1  0  0  0  0
  9  6  2  0  0  0  0
 10  4  2  0  0  0  0
 13 14  1  6  0  0  0
 13 19  1  0  0  0  0
 15 16  1  0  0  0  0
 17 12  1  1  0  0  0
 17 13  1  0  0  0  0
 17 18  1  0  0  0  0
 18 15  1  0  0  0  0
 19 16  2  0  0  0  0
 20 25  1  0  0  0  0
 21 16  1  6  0  0  0
 21 20  1  0  0  0  0
 22 25  1  0  0  0  0
 23 21  1  0  0  0  0
 23 24  1  0  0  0  0
 24 22  1  0  0  0  0
 24 26  1  1  0  0  0
 27 26  1  1  0  0  0
 27 30  1  0  0  0  0
 27 28  1  0  0  0  0
 28 29  1  6  0  0  0
 30 28  1  0  0  0  0
 32 31  1  1  0  0  0
 32 34  1  0  0  0  0
 32 36  1  0  0  0  0
 34 36  1  0  0  0  0
 34 39  1  0  0  0  0
 36 35  1  0  0  0  0
 36 33  1  0  0  0  0
 37 40  2  0  0  0  0
 37 38  1  0  0  0  0
 38 44  1  0  0  0  0
 39 37  1  0  0  0  0
 41 43  1  0  0  0  0
 41 39  1  0  0  0  0
 42 41  1  0  0  0  0
 42 43  1  0  0  0  0
 44 45  1  1  0  0  0
 44 47  1  0  0  0  0
 45 46  1  0  0  0  0
 49 47  1  0  0  0  0
 49 48  2  0  0  0  0
 50 49  1  0  0  0  0
M  END
>  <MODEL>
6

>  <REMARK>
 VINA RESULT:      -6.3      1.594      1.924
  Name = 
  13 active torsions:
  status: ('A' for Active; 'I' for Inactive)
    1  A    between atoms: O_2  and  C_25
    2  A    between atoms: O_2  and  C_41
    3  A    between atoms: C_3  and  C_37
    4  A    between atoms: C_7  and  N_27
    5  A    between atoms: O_9  and  C_15
    6  A    between atoms: O_9  and  C_18
    7  A    between atoms: CA_14  and  N_19
    8  A    between atoms: CA_14  and  C_22
    9  A    between atoms: CA_14  and  CB_48
   10  A    between atoms: C_17  and  C_29
   11  A    between atoms: CG_24  and  CB_48
   12  A    between atoms: N_27  and  N_32
   13  A    between atoms: C_29  and  C_43
                            x       y       z     vdW  Elec       q    Type
                         _______ _______ _______ _____ _____    ______ ____

>  <TORSDO>
F 13

$$$$
=
 OpenBabel11062420533D

 50 56  0  0  1  0  0  0  0  0999 V2000
  186.6280  177.4860  139.9800 C   0  0  0  0  0  1  0  0  0  0  0  0
  186.2080  178.9970  142.4010 O   0  0  0  0  0  1  0  0  0  0  0  0
  187.1000  177.0130  141.3140 C   0  0  0  0  0  0  0  0  0  0  0  0
  188.0400  176.1020  143.8340 C   0  0  0  0  0  0  0  0  0  0  0  0
  186.8750  177.7770  142.4750 C   0  0  0  0  0  0  0  0  0  0  0  0
  188.2580  175.3510  142.6750 C   0  0  0  0  0  0  0  0  0  0  0  0
  188.2150  174.7020  140.2540 S   0  0  0  0  0  0  0  0  0  0  0  0
  188.9730  173.6220  141.3170 C   0  0  0  0  0  0  0  0  0  0  0  0
  187.7900  175.8020  141.4470 C   0  0  0  0  0  0  0  0  0  0  0  0
  187.3350  177.3180  143.7240 C   0  0  0  0  0  3  0  0  0  0  0  0
  188.9340  174.1270  142.6140 C   0  0  0  0  0  3  0  0  0  0  0  0
  188.5340  175.6490  145.0600 O   0  0  0  0  0  0  0  0  0  0  0  0
  189.6720  175.7650  147.1880 C   0  0  2  0  0  3  0  0  0  0  0  0
  188.9260  174.7030  147.6680 F   0  0  0  0  0  0  0  0  0  0  0  0
  191.1300  177.1320  145.1280 C   0  0  0  0  0  3  0  0  0  0  0  0
  191.6740  176.0290  145.6650 C   0  0  0  0  0  0  0  0  0  0  0  0
  188.8980  176.5300  146.1170 C   0  0  1  0  0  3  0  0  0  0  0  0
  189.7890  177.6540  145.5790 C   0  0  0  0  0  2  0  0  0  0  0  0
  190.9400  175.2810  146.6430 N   0  0  0  0  0  2  0  0  0  0  0  0
  193.9940  176.5330  145.2470 O   0  0  0  0  0  0  0  0  0  0  0  0
  193.0110  175.5200  145.2210 C   0  0  1  0  0  3  0  0  0  0  0  0
  195.7760  174.9170  145.3600 C   0  0  0  0  0  2  0  0  0  0  0  0
  193.4470  174.3450  146.1010 C   0  0  0  0  0  2  0  0  0  0  0  0
  194.7740  173.7830  145.5860 C   0  0  1  0  0  3  0  0  0  0  0  0
  195.1140  176.0370  144.5550 C   0  0  0  0  0  2  0  0  0  0  0  0
  194.5610  173.0960  144.3830 O   0  0  0  0  0  0  0  0  0  0  0  0
  194.1350  171.8210  144.7630 C   0  0  2  0  0  3  0  0  0  0  0  0
  194.5450  170.8270  143.6930 C   0  0  1  0  0  3  0  0  0  0  0  0
  194.6230  169.5530  144.2560 O   0  0  0  0  0  1  0  0  0  0  0  0
  193.1150  171.3170  143.7610 C   0  0  0  0  0  2  0  0  0  0  0  0
  189.6780  172.3550  140.9430 C   0  0  0  0  0  2  0  0  0  0  0  0
  190.8200  172.6080  139.9690 C   0  0  1  0  0  3  0  0  0  0  0  0
  190.6650  170.1750  139.5800 O   0  0  0  0  0  1  0  0  0  0  0  0
  192.0430  171.9270  140.4800 N   0  0  0  0  0  0  0  0  0  0  0  0
  191.9100  171.5440  138.0680 O   0  0  0  0  0  1  0  0  0  0  0  0
  191.2950  171.3960  139.3150 C   0  0  0  0  0  0  0  0  0  0  0  0
  194.3910  171.9030  139.7830 C   0  0  0  0  0  0  0  0  0  0  0  0
  194.4160  170.4930  140.0360 N   0  0  0  0  0  2  0  0  0  0  0  0
  193.1810  172.6590  140.0590 N   0  0  0  0  0  0  0  0  0  0  0  0
  195.4070  172.4600  139.2810 O   0  0  0  0  0  0  0  0  0  0  0  0
  193.1380  174.1280  140.2550 C   0  0  0  0  0  3  0  0  0  0  0  0
  192.7870  174.5520  141.6710 C   0  0  0  0  0  2  0  0  0  0  0  0
  194.2280  174.6070  141.1920 C   0  0  0  0  0  2  0  0  0  0  0  0
  195.5440  169.6440  139.6820 C   0  0  2  0  0  3  0  0  0  0  0  0
  195.1920  168.8320  138.4400 C   0  0  0  0  0  2  0  0  0  0  0  0
  196.1970  168.9550  137.4830 O   0  0  0  0  0  1  0  0  0  0  0  0
  195.8510  168.7170  140.8520 C   0  0  0  0  0  2  0  0  0  0  0  0
  197.6300  170.2460  141.2680 O   0  0  0  0  0  0  0  0  0  0  0  0
  197.0690  169.1660  141.5830 C   0  0  0  0  0  0  0  0  0  0  0  0
  197.5840  168.3850  142.6550 N   0  0  0  0  0  1  0  0  0  0  0  0
  1  3  1  0  0  0  0
  2  5  1  0  0  0  0
  3  9  2  0  0  0  0
  3  5  1  0  0  0  0
  4 12  1  0  0  0  0
  5 10  2  0  0  0  0
  6  4  2  0  0  0  0
  7  8  1  0  0  0  0
  7  9  1  0  0  0  0
  8 11  2  0  0  0  0
  9  6  1  0  0  0  0
 10  4  1  0  0  0  0
 11  6  1  0  0  0  0
 13 14  1  6  0  0  0
 15 18  1  0  0  0  0
 15 16  2  0  0  0  0
 16 19  1  0  0  0  0
 17 12  1  6  0  0  0
 17 13  1  0  0  0  0
 18 17  1  0  0  0  0
 19 13  1  0  0  0  0
 21 20  1  0  0  0  0
 21 16  1  1  0  0  0
 21 23  1  0  0  0  0
 22 24  1  0  0  0  0
 24 26  1  6  0  0  0
 24 23  1  0  0  0  0
 25 20  1  0  0  0  0
 25 22  1  0  0  0  0
 27 26  1  6  0  0  0
 28 30  1  0  0  0  0
 28 29  1  1  0  0  0
 28 27  1  0  0  0  0
 30 27  1  0  0  0  0
 31  8  1  0  0  0  0
 32 34  1  0  0  0  0
 32 31  1  1  0  0  0
 35 36  1  0  0  0  0
 36 33  1  0  0  0  0
 36 32  1  0  0  0  0
 36 34  1  0  0  0  0
 37 38  1  0  0  0  0
 37 39  1  0  0  0  0
 39 41  1  0  0  0  0
 39 34  1  0  0  0  0
 40 37  2  0  0  0  0
 41 43  1  0  0  0  0
 41 42  1  0  0  0  0
 43 42  1  0  0  0  0
 44 45  1  6  0  0  0
 44 38  1  0  0  0  0
 44 47  1  0  0  0  0
 46 45  1  0  0  0  0
 47 49  1  0  0  0  0
 48 49  2  0  0  0  0
 49 50  1  0  0  0  0
M  END
>  <MODEL>
7

>  <REMARK>
 VINA RESULT:      -6.2      3.064      8.622
  Name = 
  13 active torsions:
  status: ('A' for Active; 'I' for Inactive)
    1  A    between atoms: O_2  and  C_25
    2  A    between atoms: O_2  and  C_41
    3  A    between atoms: C_3  and  C_37
    4  A    between atoms: C_7  and  N_27
    5  A    between atoms: O_9  and  C_15
    6  A    between atoms: O_9  and  C_18
    7  A    between atoms: CA_14  and  N_19
    8  A    between atoms: CA_14  and  C_22
    9  A    between atoms: CA_14  and  CB_48
   10  A    between atoms: C_17  and  C_29
   11  A    between atoms: CG_24  and  CB_48
   12  A    between atoms: N_27  and  N_32
   13  A    between atoms: C_29  and  C_43
                            x       y       z     vdW  Elec       q    Type
                         _______ _______ _______ _____ _____    ______ ____

>  <TORSDO>
F 13

$$$$
=
 OpenBabel11062420533D

 50 56  0  0  1  0  0  0  0  0999 V2000
  192.3350  169.7120  136.8160 C   0  0  0  0  0  1  0  0  0  0  0  0
  189.7520  170.9710  136.5710 O   0  0  0  0  0  1  0  0  0  0  0  0
  191.7170  170.4990  137.9220 C   0  0  0  0  0  0  0  0  0  0  0  0
  190.5810  172.0190  140.0360 C   0  0  0  0  0  0  0  0  0  0  0  0
  190.4530  171.0980  137.7680 C   0  0  0  0  0  0  0  0  0  0  0  0
  191.8370  171.4200  140.1790 C   0  0  0  0  0  0  0  0  0  0  0  0
  193.8900  170.1010  139.6050 S   0  0  0  0  0  0  0  0  0  0  0  0
  193.8320  170.7810  141.1570 C   0  0  0  0  0  0  0  0  0  0  0  0
  192.3820  170.6750  139.1420 C   0  0  0  0  0  0  0  0  0  0  0  0
  189.8890  171.8440  138.8200 C   0  0  0  0  0  3  0  0  0  0  0  0
  192.6480  171.4950  141.3180 C   0  0  0  0  0  3  0  0  0  0  0  0
  190.0520  172.7850  141.0770 O   0  0  0  0  0  0  0  0  0  0  0  0
  189.6900  172.8680  143.4650 C   0  0  2  0  0  3  0  0  0  0  0  0
  191.0460  172.7220  143.6960 F   0  0  0  0  0  0  0  0  0  0  0  0
  187.4500  173.9240  142.0130 C   0  0  0  0  0  3  0  0  0  0  0  0
  188.1660  174.7660  142.7780 C   0  0  0  0  0  0  0  0  0  0  0  0
  189.2930  172.2190  142.1400 C   0  0  1  0  0  3  0  0  0  0  0  0
  187.8000  172.4610  141.9060 C   0  0  0  0  0  2  0  0  0  0  0  0
  189.3340  174.2860  143.4560 N   0  0  0  0  0  2  0  0  0  0  0  0
  188.0960  176.9210  141.7000 O   0  0  0  0  0  0  0  0  0  0  0  0
  187.8090  176.2160  142.8900 C   0  0  1  0  0  3  0  0  0  0  0  0
  186.5370  178.6690  142.2630 C   0  0  0  0  0  2  0  0  0  0  0  0
  186.3270  176.3690  143.2450 C   0  0  0  0  0  2  0  0  0  0  0  0
  185.9960  177.8500  143.4360 C   0  0  1  0  0  3  0  0  0  0  0  0
  187.9970  178.2910  142.0020 C   0  0  0  0  0  2  0  0  0  0  0  0
  186.5620  178.3100  144.6330 O   0  0  0  0  0  0  0  0  0  0  0  0
  185.7360  177.8090  145.6410 C   0  0  2  0  0  3  0  0  0  0  0  0
  185.7270  178.7880  146.8010 C   0  0  1  0  0  3  0  0  0  0  0  0
  184.5620  178.6060  147.5450 O   0  0  0  0  0  1  0  0  0  0  0  0
  186.5700  177.5330  146.8770 C   0  0  0  0  0  2  0  0  0  0  0  0
  194.9150  170.7290  142.1890 C   0  0  0  0  0  2  0  0  0  0  0  0
  195.6850  172.0400  142.2710 C   0  0  1  0  0  3  0  0  0  0  0  0
  195.3470  171.7730  144.7010 O   0  0  0  0  0  1  0  0  0  0  0  0
  194.7710  173.1000  142.7800 N   0  0  0  0  0  0  0  0  0  0  0  0
  196.9350  173.3630  143.8890 O   0  0  0  0  0  1  0  0  0  0  0  0
  195.8420  172.5290  143.6330 C   0  0  0  0  0  0  0  0  0  0  0  0
  194.6510  175.5440  142.8730 C   0  0  0  0  0  0  0  0  0  0  0  0
  193.7020  175.4230  143.9400 N   0  0  0  0  0  2  0  0  0  0  0  0
  195.1680  174.3450  142.2350 N   0  0  0  0  0  0  0  0  0  0  0  0
  195.0570  176.6900  142.5330 O   0  0  0  0  0  0  0  0  0  0  0  0
  195.7910  174.3150  140.8900 C   0  0  0  0  0  3  0  0  0  0  0  0
  194.8060  174.0750  139.7590 C   0  0  0  0  0  2  0  0  0  0  0  0
  195.3340  175.4740  140.0270 C   0  0  0  0  0  2  0  0  0  0  0  0
  193.2220  176.5640  144.7070 C   0  0  2  0  0  3  0  0  0  0  0  0
  194.1020  176.7470  145.9390 C   0  0  0  0  0  2  0  0  0  0  0  0
  194.9410  177.8490  145.7720 O   0  0  0  0  0  1  0  0  0  0  0  0
  191.7780  176.3070  145.1210 C   0  0  0  0  0  2  0  0  0  0  0  0
  189.8160  177.6470  145.2960 O   0  0  0  0  0  0  0  0  0  0  0  0
  190.8940  177.4250  144.6890 C   0  0  0  0  0  0  0  0  0  0  0  0
  191.2810  178.2590  143.6030 N   0  0  0  0  0  1  0  0  0  0  0  0
  1  3  1  0  0  0  0
  2  5  1  0  0  0  0
  3  9  1  0  0  0  0
  4  6  1  0  0  0  0
  4 12  1  0  0  0  0
  5  3  2  0  0  0  0
  5 10  1  0  0  0  0
  6 11  1  0  0  0  0
  7  8  1  0  0  0  0
  8 11  2  0  0  0  0
  8 31  1  0  0  0  0
  9  7  1  0  0  0  0
  9  6  2  0  0  0  0
 10  4  2  0  0  0  0
 13 14  1  6  0  0  0
 15 16  2  0  0  0  0
 16 19  1  0  0  0  0
 17 12  1  6  0  0  0
 17 13  1  0  0  0  0
 18 15  1  0  0  0  0
 18 17  1  0  0  0  0
 19 13  1  0  0  0  0
 20 25  1  0  0  0  0
 20 21  1  0  0  0  0
 21 16  1  6  0  0  0
 21 23  1  0  0  0  0
 22 24  1  0  0  0  0
 23 24  1  0  0  0  0
 24 26  1  1  0  0  0
 25 22  1  0  0  0  0
 27 26  1  6  0  0  0
 27 28  1  0  0  0  0
 27 30  1  0  0  0  0
 28 30  1  0  0  0  0
 28 29  1  1  0  0  0
 32 31  1  1  0  0  0
 32 34  1  0  0  0  0
 32 36  1  0  0  0  0
 34 36  1  0  0  0  0
 36 35  1  0  0  0  0
 36 33  1  0  0  0  0
 37 38  1  0  0  0  0
 38 44  1  0  0  0  0
 39 34  1  0  0  0  0
 39 37  1  0  0  0  0
 40 37  2  0  0  0  0
 41 39  1  0  0  0  0
 42 43  1  0  0  0  0
 42 41  1  0  0  0  0
 43 41  1  0  0  0  0
 44 47  1  1  0  0  0
 44 45  1  0  0  0  0
 46 45  1  0  0  0  0
 49 47  1  0  0  0  0
 49 48  2  0  0  0  0
 50 49  1  0  0  0  0
M  END
>  <MODEL>
8

>  <REMARK>
 VINA RESULT:      -6.2      2.496      6.587
  Name = 
  13 active torsions:
  status: ('A' for Active; 'I' for Inactive)
    1  A    between atoms: O_2  and  C_25
    2  A    between atoms: O_2  and  C_41
    3  A    between atoms: C_3  and  C_37
    4  A    between atoms: C_7  and  N_27
    5  A    between atoms: O_9  and  C_15
    6  A    between atoms: O_9  and  C_18
    7  A    between atoms: CA_14  and  N_19
    8  A    between atoms: CA_14  and  C_22
    9  A    between atoms: CA_14  and  CB_48
   10  A    between atoms: C_17  and  C_29
   11  A    between atoms: CG_24  and  CB_48
   12  A    between atoms: N_27  and  N_32
   13  A    between atoms: C_29  and  C_43
                            x       y       z     vdW  Elec       q    Type
                         _______ _______ _______ _____ _____    ______ ____

>  <TORSDO>
F 13

$$$$
=
 OpenBabel11062420533D

 50 56  0  0  1  0  0  0  0  0999 V2000
  197.2120  173.5610  146.1410 C   0  0  0  0  0  1  0  0  0  0  0  0
  197.5060  171.1160  144.6390 O   0  0  0  0  0  1  0  0  0  0  0  0
  196.1460  173.0410  145.2350 C   0  0  0  0  0  0  0  0  0  0  0  0
  194.1120  172.0960  143.4940 C   0  0  0  0  0  0  0  0  0  0  0  0
  196.3240  171.8430  144.5190 C   0  0  0  0  0  0  0  0  0  0  0  0
  193.9450  173.2860  144.2100 C   0  0  0  0  0  0  0  0  0  0  0  0
  194.4610  175.1850  145.7620 S   0  0  0  0  0  0  0  0  0  0  0  0
  192.9500  175.2190  144.9960 C   0  0  0  0  0  0  0  0  0  0  0  0
  194.9440  173.7380  145.0630 C   0  0  0  0  0  0  0  0  0  0  0  0
  195.3100  171.3730  143.6630 C   0  0  0  0  0  3  0  0  0  0  0  0
  192.8190  174.1160  144.1570 C   0  0  0  0  0  3  0  0  0  0  0  0
  193.1100  171.6620  142.6220 O   0  0  0  0  0  0  0  0  0  0  0  0
  190.8930  170.7030  142.5520 C   0  0  2  0  0  3  0  0  0  0  0  0
  190.4050  171.7240  143.3490 F   0  0  0  0  0  0  0  0  0  0  0  0
  192.5580  169.6880  140.4450 C   0  0  0  0  0  3  0  0  0  0  0  0
  191.5010  170.4470  140.1100 C   0  0  0  0  0  0  0  0  0  0  0  0
  192.3750  170.4610  142.8300 C   0  0  1  0  0  3  0  0  0  0  0  0
  192.8780  169.3680  141.8830 C   0  0  0  0  0  2  0  0  0  0  0  0
  190.6940  171.0310  141.1410 N   0  0  0  0  0  2  0  0  0  0  0  0
  190.9110  169.5830  137.9380 O   0  0  0  0  0  0  0  0  0  0  0  0
  191.1810  170.7540  138.6790 C   0  0  1  0  0  3  0  0  0  0  0  0
  189.6860  170.8190  136.2740 C   0  0  0  0  0  2  0  0  0  0  0  0
  189.9860  171.7100  138.6010 C   0  0  0  0  0  2  0  0  0  0  0  0
  189.7220  172.0790  137.1400 C   0  0  1  0  0  3  0  0  0  0  0  0
  190.9070  169.9490  136.5800 C   0  0  0  0  0  2  0  0  0  0  0  0
  190.7280  172.9390  136.6790 O   0  0  0  0  0  0  0  0  0  0  0  0
  190.1360  173.6710  135.6480 C   0  0  2  0  0  3  0  0  0  0  0  0
  190.4670  175.1400  135.8350 C   0  0  1  0  0  3  0  0  0  0  0  0
  190.3670  175.7930  134.6070 O   0  0  0  0  0  1  0  0  0  0  0  0
  189.1050  174.6160  136.2340 C   0  0  0  0  0  2  0  0  0  0  0  0
  191.9240  176.3050  145.1030 C   0  0  0  0  0  2  0  0  0  0  0  0
  190.9440  176.2750  143.9380 C   0  0  1  0  0  3  0  0  0  0  0  0
  190.7110  178.6830  144.4290 O   0  0  0  0  0  1  0  0  0  0  0  0
  189.5780  176.5630  144.4580 N   0  0  0  0  0  0  0  0  0  0  0  0
  189.8760  177.8020  142.3700 O   0  0  0  0  0  1  0  0  0  0  0  0
  190.3320  177.5690  143.6720 C   0  0  0  0  0  0  0  0  0  0  0  0
  187.2870  176.4430  143.6000 C   0  0  0  0  0  0  0  0  0  0  0  0
  186.9510  177.5560  144.4370 N   0  0  0  0  0  2  0  0  0  0  0  0
  188.6310  175.8920  143.6450 N   0  0  0  0  0  0  0  0  0  0  0  0
  186.4210  175.9840  142.8030 O   0  0  0  0  0  0  0  0  0  0  0  0
  188.9930  174.5300  143.1860 C   0  0  0  0  0  3  0  0  0  0  0  0
  188.1340  174.0140  142.0440 C   0  0  0  0  0  2  0  0  0  0  0  0
  189.5360  174.5330  141.7710 C   0  0  0  0  0  2  0  0  0  0  0  0
  185.6670  178.2390  144.3710 C   0  0  2  0  0  3  0  0  0  0  0  0
  185.6500  179.1630  143.1580 C   0  0  0  0  0  2  0  0  0  0  0  0
  184.7960  178.6570  142.1790 O   0  0  0  0  0  1  0  0  0  0  0  0
  185.4690  179.0410  145.6520 C   0  0  0  0  0  2  0  0  0  0  0  0
  184.0670  177.5380  146.8550 O   0  0  0  0  0  0  0  0  0  0  0  0
  185.1660  178.1440  146.8010 C   0  0  0  0  0  0  0  0  0  0  0  0
  186.1320  177.9530  147.8290 N   0  0  0  0  0  1  0  0  0  0  0  0
  3  1  1  0  0  0  0
  4 10  2  0  0  0  0
  4  6  1  0  0  0  0
  5  2  1  0  0  0  0
  5  3  2  0  0  0  0
  6  9  2  0  0  0  0
  8 31  1  0  0  0  0
  8  7  1  0  0  0  0
  9  3  1  0  0  0  0
  9  7  1  0  0  0  0
 10  5  1  0  0  0  0
 11  6  1  0  0  0  0
 11  8  2  0  0  0  0
 12  4  1  0  0  0  0
 13 17  1  0  0  0  0
 13 14  1  1  0  0  0
 15 18  1  0  0  0  0
 16 15  2  0  0  0  0
 16 19  1  0  0  0  0
 17 12  1  6  0  0  0
 18 17  1  0  0  0  0
 19 13  1  0  0  0  0
 20 21  1  0  0  0  0
 21 16  1  1  0  0  0
 22 25  1  0  0  0  0
 22 24  1  0  0  0  0
 23 21  1  0  0  0  0
 24 26  1  6  0  0  0
 24 23  1  0  0  0  0
 25 20  1  0  0  0  0
 27 28  1  0  0  0  0
 27 30  1  0  0  0  0
 27 26  1  1  0  0  0
 28 29  1  6  0  0  0
 28 30  1  0  0  0  0
 32 34  1  0  0  0  0
 32 31  1  1  0  0  0
 35 36  1  0  0  0  0
 36 32  1  0  0  0  0
 36 33  1  0  0  0  0
 36 34  1  0  0  0  0
 37 39  1  0  0  0  0
 37 38  1  0  0  0  0
 39 34  1  0  0  0  0
 40 37  2  0  0  0  0
 41 39  1  0  0  0  0
 42 41  1  0  0  0  0
 43 42  1  0  0  0  0
 43 41  1  0  0  0  0
 44 45  1  6  0  0  0
 44 38  1  0  0  0  0
 44 47  1  0  0  0  0
 46 45  1  0  0  0  0
 47 49  1  0  0  0  0
 49 48  2  0  0  0  0
 49 50  1  0  0  0  0
M  END
>  <MODEL>
9

>  <REMARK>
 VINA RESULT:      -6.2      2.886      6.992
  Name = 
  13 active torsions:
  status: ('A' for Active; 'I' for Inactive)
    1  A    between atoms: O_2  and  C_25
    2  A    between atoms: O_2  and  C_41
    3  A    between atoms: C_3  and  C_37
    4  A    between atoms: C_7  and  N_27
    5  A    between atoms: O_9  and  C_15
    6  A    between atoms: O_9  and  C_18
    7  A    between atoms: CA_14  and  N_19
    8  A    between atoms: CA_14  and  C_22
    9  A    between atoms: CA_14  and  CB_48
   10  A    between atoms: C_17  and  C_29
   11  A    between atoms: CG_24  and  CB_48
   12  A    between atoms: N_27  and  N_32
   13  A    between atoms: C_29  and  C_43
                            x       y       z     vdW  Elec       q    Type
                         _______ _______ _______ _____ _____    ______ ____

>  <TORSDO>
F 13

$$$$
