=
 OpenBabel11072408323D

 26 30  0  0  0  0  0  0  0  0999 V2000
  188.2610  176.1650  143.5700 N   0  0  0  0  0  0  0  0  0  0  0  0
  188.4450  177.5070  145.9640 S   0  0  0  0  0  0  0  0  0  0  0  0
  188.1910  174.5410  138.9510 C   0  0  0  0  0  3  0  0  0  0  0  0
  188.6560  176.0980  144.8810 C   0  0  0  0  0  0  0  0  0  0  0  0
  189.5040  172.1550  139.5580 C   0  0  0  0  0  3  0  0  0  0  0  0
  184.2610  178.6570  144.5050 C   0  0  0  0  0  3  0  0  0  0  0  0
  189.6350  173.9830  144.5400 C   0  0  0  0  0  0  0  0  0  0  0  0
  186.0430  178.3100  147.8150 C   0  0  0  0  0  1  0  0  0  0  0  0
  185.7760  178.2430  146.3500 C   0  0  0  0  0  0  0  0  0  0  0  0
  189.2460  173.0920  140.5630 C   0  0  0  0  0  0  0  0  0  0  0  0
  187.3780  177.1650  143.1820 O   0  0  0  0  0  0  0  0  0  0  0  0
  189.7320  172.7910  142.1370 S   0  0  0  0  0  0  0  0  0  0  0  0
  188.6270  175.1780  142.6740 C   0  0  0  0  0  0  0  0  0  0  0  0
  189.1030  172.4140  138.2470 C   0  0  0  0  0  3  0  0  0  0  0  0
  184.5310  178.6660  145.8750 C   0  0  0  0  0  3  0  0  0  0  0  0
  188.5830  174.3040  140.2840 C   0  0  0  0  0  0  0  0  0  0  0  0
  189.3160  174.0490  143.1820 C   0  0  0  0  0  0  0  0  0  0  0  0
  188.2980  175.2910  141.2750 C   0  0  0  0  0  0  0  0  0  0  0  0
  187.7280  176.3440  140.8740 O   0  0  0  0  0  0  0  0  0  0  0  0
  188.4470  173.6070  137.9430 C   0  0  0  0  0  3  0  0  0  0  0  0
  186.4660  177.7500  144.0700 C   0  0  0  0  0  0  0  0  0  0  0  0
  189.3160  175.0140  145.3510 N   0  0  0  0  0  0  0  0  0  0  0  0
  184.8990  178.1750  142.1480 C   0  0  0  0  0  1  0  0  0  0  0  0
  186.7580  177.8120  145.4410 C   0  0  0  0  0  0  0  0  0  0  0  0
  190.2320  172.9820  145.0170 O   0  0  0  0  0  0  0  0  0  0  0  0
  185.2270  178.2100  143.6010 C   0  0  0  0  0  0  0  0  0  0  0  0
  1  4  1  0  0  0  0
  3 16  1  0  0  0  0
  4 22  2  0  0  0  0
  4  2  1  0  0  0  0
  5 10  1  0  0  0  0
  6 15  1  0  0  0  0
  7 25  2  0  0  0  0
  7 22  1  0  0  0  0
  9  8  1  0  0  0  0
 10 12  1  0  0  0  0
 11  1  1  0  0  0  0
 11 21  1  0  0  0  0
 12 17  1  0  0  0  0
 13 17  2  0  0  0  0
 13  1  1  0  0  0  0
 14  5  2  0  0  0  0
 15  9  2  0  0  0  0
 16 10  2  0  0  0  0
 16 18  1  0  0  0  0
 17  7  1  0  0  0  0
 18 13  1  0  0  0  0
 19 18  2  0  0  0  0
 20 14  1  0  0  0  0
 20  3  2  0  0  0  0
 21 24  2  0  0  0  0
 23 26  1  0  0  0  0
 24  2  1  0  0  0  0
 24  9  1  0  0  0  0
 26 21  1  0  0  0  0
 26  6  2  0  0  0  0
M  END
>  <MODEL>
1

>  <REMARK>
 VINA RESULT:      -8.3      0.000      0.000
  Name = 
  0 active torsions:
  status: ('A' for Active; 'I' for Inactive)
                            x       y       z     vdW  Elec       q    Type
                         _______ _______ _______ _____ _____    ______ ____

>  <TORSDO>
F 0

$$$$
=
 OpenBabel11072408323D

 26 30  0  0  0  0  0  0  0  0999 V2000
  189.9390  177.2960  144.4090 N   0  0  0  0  0  0  0  0  0  0  0  0
  192.3090  177.1580  143.0190 S   0  0  0  0  0  0  0  0  0  0  0  0
  186.1500  178.1140  147.4000 C   0  0  0  0  0  3  0  0  0  0  0  0
  190.5270  177.2410  143.1720 C   0  0  0  0  0  0  0  0  0  0  0  0
  184.3100  178.3880  145.3220 C   0  0  0  0  0  3  0  0  0  0  0  0
  192.9820  174.1650  146.4160 C   0  0  0  0  0  3  0  0  0  0  0  0
  188.4550  177.5780  142.1060 C   0  0  0  0  0  0  0  0  0  0  0  0
  194.2290  174.6810  142.8900 C   0  0  0  0  0  1  0  0  0  0  0  0
  193.4320  174.8570  144.1380 C   0  0  0  0  0  0  0  0  0  0  0  0
  185.6570  178.1420  145.0410 C   0  0  0  0  0  0  0  0  0  0  0  0
  190.6780  176.9200  145.5240 O   0  0  0  0  0  0  0  0  0  0  0  0
  186.1750  178.0190  143.4540 S   0  0  0  0  0  0  0  0  0  0  0  0
  188.5950  177.5910  144.5360 C   0  0  0  0  0  0  0  0  0  0  0  0
  183.8840  178.4970  146.6460 C   0  0  0  0  0  3  0  0  0  0  0  0
  193.6790  174.0030  145.2170 C   0  0  0  0  0  3  0  0  0  0  0  0
  186.6070  177.9980  146.0720 C   0  0  0  0  0  0  0  0  0  0  0  0
  187.8320  177.7170  143.3480 C   0  0  0  0  0  0  0  0  0  0  0  0
  187.9920  177.7470  145.8360 C   0  0  0  0  0  0  0  0  0  0  0  0
  188.7330  177.6740  146.8560 O   0  0  0  0  0  0  0  0  0  0  0  0
  184.8040  178.3600  147.6850 C   0  0  0  0  0  3  0  0  0  0  0  0
  191.7410  176.0100  145.4510 C   0  0  0  0  0  0  0  0  0  0  0  0
  189.7860  177.3650  142.0460 N   0  0  0  0  0  0  0  0  0  0  0  0
  191.2650  175.2980  147.8170 C   0  0  0  0  0  1  0  0  0  0  0  0
  192.4800  175.8830  144.2660 C   0  0  0  0  0  0  0  0  0  0  0  0
  187.7940  177.6690  141.0370 O   0  0  0  0  0  0  0  0  0  0  0  0
  192.0210  175.1710  146.5400 C   0  0  0  0  0  0  0  0  0  0  0  0
  1 13  1  0  0  0  0
  1 11  1  0  0  0  0
  2  4  1  0  0  0  0
  2 24  1  0  0  0  0
  3 20  1  0  0  0  0
  4  1  1  0  0  0  0
  5 14  1  0  0  0  0
  6 26  1  0  0  0  0
  7 17  1  0  0  0  0
  8  9  1  0  0  0  0
  9 24  2  0  0  0  0
  9 15  1  0  0  0  0
 10  5  2  0  0  0  0
 10 16  1  0  0  0  0
 12 10  1  0  0  0  0
 13 18  1  0  0  0  0
 14 20  2  0  0  0  0
 15  6  2  0  0  0  0
 16  3  2  0  0  0  0
 17 12  1  0  0  0  0
 17 13  2  0  0  0  0
 18 16  1  0  0  0  0
 18 19  2  0  0  0  0
 21 11  1  0  0  0  0
 21 26  2  0  0  0  0
 22  7  1  0  0  0  0
 22  4  2  0  0  0  0
 24 21  1  0  0  0  0
 25  7  2  0  0  0  0
 26 23  1  0  0  0  0
M  END
>  <MODEL>
2

>  <REMARK>
 VINA RESULT:      -8.2      3.351      7.413
  Name = 
  0 active torsions:
  status: ('A' for Active; 'I' for Inactive)
                            x       y       z     vdW  Elec       q    Type
                         _______ _______ _______ _____ _____    ______ ____

>  <TORSDO>
F 0

$$$$
=
 OpenBabel11072408323D

 26 30  0  0  0  0  0  0  0  0999 V2000
  186.5910  177.9160  143.0530 N   0  0  0  0  0  0  0  0  0  0  0  0
  189.3280  177.7080  143.2380 S   0  0  0  0  0  0  0  0  0  0  0  0
  181.8250  179.0260  143.1950 C   0  0  0  0  0  3  0  0  0  0  0  0
  187.7530  177.6070  142.3930 C   0  0  0  0  0  0  0  0  0  0  0  0
  181.4170  178.5070  140.4850 C   0  0  0  0  0  3  0  0  0  0  0  0
  187.9270  175.8340  147.1720 C   0  0  0  0  0  3  0  0  0  0  0  0
  186.6050  177.3890  140.3490 C   0  0  0  0  0  0  0  0  0  0  0  0
  190.9050  175.5430  144.8700 C   0  0  0  0  0  1  0  0  0  0  0  0
  189.5680  175.9450  145.3930 C   0  0  0  0  0  0  0  0  0  0  0  0
  182.6890  178.3630  141.0450 C   0  0  0  0  0  0  0  0  0  0  0  0
  186.5920  177.9450  144.4410 O   0  0  0  0  0  0  0  0  0  0  0  0
  183.9790  177.8870  140.0900 S   0  0  0  0  0  0  0  0  0  0  0  0
  185.4070  178.0660  142.3570 C   0  0  0  0  0  0  0  0  0  0  0  0
  180.3470  178.9100  141.2840 C   0  0  0  0  0  3  0  0  0  0  0  0
  189.1540  175.4460  146.6320 C   0  0  0  0  0  3  0  0  0  0  0  0
  182.9230  178.6170  142.4120 C   0  0  0  0  0  0  0  0  0  0  0  0
  185.4150  177.7750  140.9700 C   0  0  0  0  0  0  0  0  0  0  0  0
  184.2030  178.4860  143.0290 C   0  0  0  0  0  0  0  0  0  0  0  0
  184.2690  178.7800  144.2550 O   0  0  0  0  0  0  0  0  0  0  0  0
  180.5510  179.1700  142.6400 C   0  0  0  0  0  3  0  0  0  0  0  0
  187.4850  177.1880  145.2100 C   0  0  0  0  0  0  0  0  0  0  0  0
  187.7460  177.3340  141.0680 N   0  0  0  0  0  0  0  0  0  0  0  0
  185.7740  177.0780  147.0510 C   0  0  0  0  0  1  0  0  0  0  0  0
  188.7420  176.8420  144.6930 C   0  0  0  0  0  0  0  0  0  0  0  0
  186.6330  177.1100  139.1210 O   0  0  0  0  0  0  0  0  0  0  0  0
  187.0950  176.7100  146.4700 C   0  0  0  0  0  0  0  0  0  0  0  0
  1 11  1  0  0  0  0
  2 24  1  0  0  0  0
  4  1  1  0  0  0  0
  4  2  1  0  0  0  0
  5 10  2  0  0  0  0
  5 14  1  0  0  0  0
  7 17  1  0  0  0  0
  7 22  1  0  0  0  0
  8  9  1  0  0  0  0
  9 15  2  0  0  0  0
 10 16  1  0  0  0  0
 11 21  1  0  0  0  0
 12 17  1  0  0  0  0
 12 10  1  0  0  0  0
 13 18  1  0  0  0  0
 13  1  1  0  0  0  0
 14 20  2  0  0  0  0
 15  6  1  0  0  0  0
 16 18  1  0  0  0  0
 16  3  2  0  0  0  0
 17 13  2  0  0  0  0
 18 19  2  0  0  0  0
 20  3  1  0  0  0  0
 21 26  1  0  0  0  0
 22  4  2  0  0  0  0
 24 21  2  0  0  0  0
 24  9  1  0  0  0  0
 25  7  2  0  0  0  0
 26 23  1  0  0  0  0
 26  6  2  0  0  0  0
M  END
>  <MODEL>
3

>  <REMARK>
 VINA RESULT:      -8.0      3.379      6.372
  Name = 
  0 active torsions:
  status: ('A' for Active; 'I' for Inactive)
                            x       y       z     vdW  Elec       q    Type
                         _______ _______ _______ _____ _____    ______ ____

>  <TORSDO>
F 0

$$$$
=
 OpenBabel11072408323D

 26 30  0  0  0  0  0  0  0  0999 V2000
  188.1050  176.1450  145.0300 N   0  0  0  0  0  0  0  0  0  0  0  0
  189.2260  175.0580  147.2950 S   0  0  0  0  0  0  0  0  0  0  0  0
  186.2810  177.2940  140.6340 C   0  0  0  0  0  3  0  0  0  0  0  0
  188.0200  176.0260  146.3930 C   0  0  0  0  0  0  0  0  0  0  0  0
  183.9810  178.4810  141.6750 C   0  0  0  0  0  3  0  0  0  0  0  0
  192.8960  176.5160  144.9790 C   0  0  0  0  0  3  0  0  0  0  0  0
  185.9500  177.1480  146.4210 C   0  0  0  0  0  0  0  0  0  0  0  0
  191.9590  175.8990  148.5840 C   0  0  0  0  0  1  0  0  0  0  0  0
  191.8340  176.0450  147.1060 C   0  0  0  0  0  0  0  0  0  0  0  0
  184.9320  177.9190  142.5310 C   0  0  0  0  0  0  0  0  0  0  0  0
  189.3040  175.8370  144.4000 O   0  0  0  0  0  0  0  0  0  0  0  0
  184.6930  177.9480  144.1880 S   0  0  0  0  0  0  0  0  0  0  0  0
  187.0620  176.6890  144.3050 C   0  0  0  0  0  0  0  0  0  0  0  0
  184.1830  178.4480  140.2950 C   0  0  0  0  0  3  0  0  0  0  0  0
  192.9650  176.4120  146.3700 C   0  0  0  0  0  3  0  0  0  0  0  0
  186.1040  177.3150  142.0320 C   0  0  0  0  0  0  0  0  0  0  0  0
  185.9640  177.2210  145.0270 C   0  0  0  0  0  0  0  0  0  0  0  0
  187.1030  176.7280  142.8650 C   0  0  0  0  0  0  0  0  0  0  0  0
  188.0840  176.1930  142.2770 O   0  0  0  0  0  0  0  0  0  0  0  0
  185.3330  177.8550  139.7740 C   0  0  0  0  0  3  0  0  0  0  0  0
  190.5430  175.9370  145.0470 C   0  0  0  0  0  0  0  0  0  0  0  0
  186.9640  176.5370  147.0690 N   0  0  0  0  0  0  0  0  0  0  0  0
  191.6350  176.4270  142.8340 C   0  0  0  0  0  1  0  0  0  0  0  0
  190.6260  175.7780  146.4380 C   0  0  0  0  0  0  0  0  0  0  0  0
  184.9930  177.6290  147.0850 O   0  0  0  0  0  0  0  0  0  0  0  0
  191.6910  176.2710  144.3150 C   0  0  0  0  0  0  0  0  0  0  0  0
  1  4  1  0  0  0  0
  3 16  1  0  0  0  0
  4 22  2  0  0  0  0
  4  2  1  0  0  0  0
  5 10  1  0  0  0  0
  6 15  1  0  0  0  0
  7 22  1  0  0  0  0
  7 25  2  0  0  0  0
  9  8  1  0  0  0  0
 10 12  1  0  0  0  0
 11  1  1  0  0  0  0
 11 21  1  0  0  0  0
 12 17  1  0  0  0  0
 13 17  2  0  0  0  0
 13  1  1  0  0  0  0
 14  5  2  0  0  0  0
 15  9  2  0  0  0  0
 16 10  2  0  0  0  0
 16 18  1  0  0  0  0
 17  7  1  0  0  0  0
 18 13  1  0  0  0  0
 19 18  2  0  0  0  0
 20 14  1  0  0  0  0
 20  3  2  0  0  0  0
 21 24  2  0  0  0  0
 23 26  1  0  0  0  0
 24  9  1  0  0  0  0
 24  2  1  0  0  0  0
 26  6  2  0  0  0  0
 26 21  1  0  0  0  0
M  END
>  <MODEL>
4

>  <REMARK>
 VINA RESULT:      -7.9      3.108      5.657
  Name = 
  0 active torsions:
  status: ('A' for Active; 'I' for Inactive)
                            x       y       z     vdW  Elec       q    Type
                         _______ _______ _______ _____ _____    ______ ____

>  <TORSDO>
F 0

$$$$
=
 OpenBabel11072408323D

 26 30  0  0  0  0  0  0  0  0999 V2000
  190.7950  176.4650  143.9180 N   0  0  0  0  0  0  0  0  0  0  0  0
  192.9410  176.0490  142.2470 S   0  0  0  0  0  0  0  0  0  0  0  0
  187.3120  178.0130  146.9900 C   0  0  0  0  0  3  0  0  0  0  0  0
  191.2250  175.9150  142.7380 C   0  0  0  0  0  0  0  0  0  0  0  0
  185.2220  176.9610  145.4720 C   0  0  0  0  0  3  0  0  0  0  0  0
  194.7280  175.2080  146.3760 C   0  0  0  0  0  3  0  0  0  0  0  0
  189.0190  175.3670  142.1210 C   0  0  0  0  0  0  0  0  0  0  0  0
  195.3740  174.1530  142.8100 C   0  0  0  0  0  1  0  0  0  0  0  0
  194.7170  174.7790  143.9910 C   0  0  0  0  0  0  0  0  0  0  0  0
  186.5440  176.8250  145.0390 C   0  0  0  0  0  0  0  0  0  0  0  0
  191.7320  176.7930  144.8890 O   0  0  0  0  0  0  0  0  0  0  0  0
  186.8810  176.0360  143.6010 S   0  0  0  0  0  0  0  0  0  0  0  0
  189.4450  176.5690  144.1940 C   0  0  0  0  0  0  0  0  0  0  0  0
  184.9470  177.6240  146.6670 C   0  0  0  0  0  3  0  0  0  0  0  0
  195.2920  174.6010  145.2530 C   0  0  0  0  0  3  0  0  0  0  0  0
  187.6190  177.3460  145.7880 C   0  0  0  0  0  0  0  0  0  0  0  0
  188.5370  175.9860  143.2760 C   0  0  0  0  0  0  0  0  0  0  0  0
  188.9840  177.2330  145.3870 C   0  0  0  0  0  0  0  0  0  0  0  0
  189.8390  177.7780  146.1410 O   0  0  0  0  0  0  0  0  0  0  0  0
  185.9920  178.1510  147.4270 C   0  0  0  0  0  3  0  0  0  0  0  0
  192.9680  176.1400  144.9940 C   0  0  0  0  0  0  0  0  0  0  0  0
  190.3450  175.3630  141.8690 N   0  0  0  0  0  0  0  0  0  0  0  0
  192.9690  176.5890  147.4700 C   0  0  0  0  0  1  0  0  0  0  0  0
  193.5660  175.5770  143.8580 C   0  0  0  0  0  0  0  0  0  0  0  0
  188.2310  174.8270  141.2990 O   0  0  0  0  0  0  0  0  0  0  0  0
  193.5730  175.9840  146.2500 C   0  0  0  0  0  0  0  0  0  0  0  0
  1 13  1  0  0  0  0
  1 11  1  0  0  0  0
  2  4  1  0  0  0  0
  2 24  1  0  0  0  0
  3 20  1  0  0  0  0
  4  1  1  0  0  0  0
  5 14  1  0  0  0  0
  7 17  1  0  0  0  0
  8  9  1  0  0  0  0
  9 15  1  0  0  0  0
 10  5  2  0  0  0  0
 10 16  1  0  0  0  0
 11 21  1  0  0  0  0
 12 10  1  0  0  0  0
 13 18  1  0  0  0  0
 14 20  2  0  0  0  0
 15  6  2  0  0  0  0
 16  3  2  0  0  0  0
 17 12  1  0  0  0  0
 17 13  2  0  0  0  0
 18 16  1  0  0  0  0
 18 19  2  0  0  0  0
 21 26  2  0  0  0  0
 22  7  1  0  0  0  0
 22  4  2  0  0  0  0
 24  9  2  0  0  0  0
 24 21  1  0  0  0  0
 25  7  2  0  0  0  0
 26  6  1  0  0  0  0
 26 23  1  0  0  0  0
M  END
>  <MODEL>
5

>  <REMARK>
 VINA RESULT:      -7.6      3.450      7.425
  Name = 
  0 active torsions:
  status: ('A' for Active; 'I' for Inactive)
                            x       y       z     vdW  Elec       q    Type
                         _______ _______ _______ _____ _____    ______ ____

>  <TORSDO>
F 0

$$$$
=
 OpenBabel11072408323D

 26 30  0  0  0  0  0  0  0  0999 V2000
  190.0370  177.0710  145.3620 N   0  0  0  0  0  0  0  0  0  0  0  0
  187.9130  177.9160  146.8920 S   0  0  0  0  0  0  0  0  0  0  0  0
  193.8820  176.4160  142.4030 C   0  0  0  0  0  3  0  0  0  0  0  0
  189.3930  176.9630  146.5680 C   0  0  0  0  0  0  0  0  0  0  0  0
  195.2620  174.8100  144.2180 C   0  0  0  0  0  3  0  0  0  0  0  0
  185.9880  177.2970  142.7850 C   0  0  0  0  0  3  0  0  0  0  0  0
  191.1130  175.6080  147.4330 C   0  0  0  0  0  0  0  0  0  0  0  0
  184.8950  177.2200  146.3980 C   0  0  0  0  0  1  0  0  0  0  0  0
  185.7770  177.2950  145.1990 C   0  0  0  0  0  0  0  0  0  0  0  0
  194.0140  175.3400  144.5560 C   0  0  0  0  0  0  0  0  0  0  0  0
  189.3580  177.6180  144.2810 O   0  0  0  0  0  0  0  0  0  0  0  0
  193.3420  175.0220  146.0560 S   0  0  0  0  0  0  0  0  0  0  0  0
  191.2950  176.5250  145.1860 C   0  0  0  0  0  0  0  0  0  0  0  0
  195.8190  175.0840  142.9690 C   0  0  0  0  0  3  0  0  0  0  0  0
  185.1980  177.1880  143.9310 C   0  0  0  0  0  3  0  0  0  0  0  0
  193.2940  176.1540  143.6560 C   0  0  0  0  0  0  0  0  0  0  0  0
  191.8350  175.7580  146.2470 C   0  0  0  0  0  0  0  0  0  0  0  0
  192.0180  176.7190  143.9540 C   0  0  0  0  0  0  0  0  0  0  0  0
  191.5070  177.4550  143.0650 O   0  0  0  0  0  0  0  0  0  0  0  0
  195.1300  175.8870  142.0610 C   0  0  0  0  0  3  0  0  0  0  0  0
  187.9620  177.5680  144.1660 C   0  0  0  0  0  0  0  0  0  0  0  0
  189.9230  176.2280  147.5730 N   0  0  0  0  0  0  0  0  0  0  0  0
  188.1910  177.5680  141.6600 C   0  0  0  0  0  1  0  0  0  0  0  0
  187.1610  177.5150  145.3150 C   0  0  0  0  0  0  0  0  0  0  0  0
  191.5660  174.9160  148.3840 O   0  0  0  0  0  0  0  0  0  0  0  0
  187.3660  177.4950  142.8980 C   0  0  0  0  0  0  0  0  0  0  0  0
  1  4  1  0  0  0  0
  3 16  1  0  0  0  0
  4  2  1  0  0  0  0
  4 22  2  0  0  0  0
  5 10  1  0  0  0  0
  6 26  2  0  0  0  0
  6 15  1  0  0  0  0
  7 22  1  0  0  0  0
  7 25  2  0  0  0  0
  9 24  1  0  0  0  0
  9  8  1  0  0  0  0
 10 12  1  0  0  0  0
 11  1  1  0  0  0  0
 12 17  1  0  0  0  0
 13  1  1  0  0  0  0
 13 17  2  0  0  0  0
 14  5  2  0  0  0  0
 15  9  2  0  0  0  0
 16 18  1  0  0  0  0
 16 10  2  0  0  0  0
 17  7  1  0  0  0  0
 18 13  1  0  0  0  0
 19 18  2  0  0  0  0
 20  3  2  0  0  0  0
 20 14  1  0  0  0  0
 21 11  1  0  0  0  0
 21 24  2  0  0  0  0
 23 26  1  0  0  0  0
 24  2  1  0  0  0  0
 26 21  1  0  0  0  0
M  END
>  <MODEL>
6

>  <REMARK>
 VINA RESULT:      -7.6      3.542      4.548
  Name = 
  0 active torsions:
  status: ('A' for Active; 'I' for Inactive)
                            x       y       z     vdW  Elec       q    Type
                         _______ _______ _______ _____ _____    ______ ____

>  <TORSDO>
F 0

$$$$
=
 OpenBabel11072408323D

 26 30  0  0  0  0  0  0  0  0999 V2000
  191.8830  175.5280  142.8390 N   0  0  0  0  0  0  0  0  0  0  0  0
  194.2470  174.7320  141.6790 S   0  0  0  0  0  0  0  0  0  0  0  0
  188.0140  177.7560  144.8490 C   0  0  0  0  0  3  0  0  0  0  0  0
  192.4730  174.7060  141.9140 C   0  0  0  0  0  0  0  0  0  0  0  0
  186.1540  176.3370  143.3320 C   0  0  0  0  0  3  0  0  0  0  0  0
  195.3520  174.9640  146.1150 C   0  0  0  0  0  3  0  0  0  0  0  0
  190.3730  173.9990  141.1150 C   0  0  0  0  0  0  0  0  0  0  0  0
  196.5090  173.0620  143.0670 C   0  0  0  0  0  1  0  0  0  0  0  0
  195.6960  173.9550  143.9390 C   0  0  0  0  0  0  0  0  0  0  0  0
  187.5220  176.1120  143.1570 C   0  0  0  0  0  0  0  0  0  0  0  0
  192.6680  176.0980  143.8330 O   0  0  0  0  0  0  0  0  0  0  0  0
  188.0530  174.9940  142.0300 S   0  0  0  0  0  0  0  0  0  0  0  0
  190.5100  175.6840  142.8670 C   0  0  0  0  0  0  0  0  0  0  0  0
  185.7170  177.2750  144.2670 C   0  0  0  0  0  3  0  0  0  0  0  0
  196.0650  174.1020  145.2800 C   0  0  0  0  0  3  0  0  0  0  0  0
  188.4830  176.8140  143.9130 C   0  0  0  0  0  0  0  0  0  0  0  0
  189.7370  174.8810  141.9910 C   0  0  0  0  0  0  0  0  0  0  0  0
  189.8900  176.6200  143.7710 C   0  0  0  0  0  0  0  0  0  0  0  0
  190.6340  177.3430  144.4910 O   0  0  0  0  0  0  0  0  0  0  0  0
  186.6470  177.9850  145.0270 C   0  0  0  0  0  3  0  0  0  0  0  0
  193.8530  175.5050  144.2880 C   0  0  0  0  0  0  0  0  0  0  0  0
  191.7210  173.9460  141.0820 N   0  0  0  0  0  0  0  0  0  0  0  0
  193.4870  176.5560  146.5450 C   0  0  0  0  0  1  0  0  0  0  0  0
  194.6030  174.6820  143.4350 C   0  0  0  0  0  0  0  0  0  0  0  0
  189.7060  173.2630  140.3390 O   0  0  0  0  0  0  0  0  0  0  0  0
  194.2530  175.6730  145.6220 C   0  0  0  0  0  0  0  0  0  0  0  0
  1 13  1  0  0  0  0
  1 11  1  0  0  0  0
  2  4  1  0  0  0  0
  2 24  1  0  0  0  0
  3 20  1  0  0  0  0
  4  1  1  0  0  0  0
  5 14  1  0  0  0  0
  7 17  1  0  0  0  0
  8  9  1  0  0  0  0
  9 15  1  0  0  0  0
 10  5  2  0  0  0  0
 10 16  1  0  0  0  0
 11 21  1  0  0  0  0
 12 10  1  0  0  0  0
 13 18  1  0  0  0  0
 14 20  2  0  0  0  0
 15  6  2  0  0  0  0
 16  3  2  0  0  0  0
 17 12  1  0  0  0  0
 17 13  2  0  0  0  0
 18 16  1  0  0  0  0
 18 19  2  0  0  0  0
 21 26  2  0  0  0  0
 22  7  1  0  0  0  0
 22  4  2  0  0  0  0
 24  9  2  0  0  0  0
 24 21  1  0  0  0  0
 25  7  2  0  0  0  0
 26  6  1  0  0  0  0
 26 23  1  0  0  0  0
M  END
>  <MODEL>
7

>  <REMARK>
 VINA RESULT:      -7.4      3.955      7.348
  Name = 
  0 active torsions:
  status: ('A' for Active; 'I' for Inactive)
                            x       y       z     vdW  Elec       q    Type
                         _______ _______ _______ _____ _____    ______ ____

>  <TORSDO>
F 0

$$$$
=
 OpenBabel11072408323D

 26 30  0  0  0  0  0  0  0  0999 V2000
  188.3470  176.7120  144.5860 N   0  0  0  0  0  0  0  0  0  0  0  0
  186.7600  178.4100  146.0590 S   0  0  0  0  0  0  0  0  0  0  0  0
  191.5540  174.4300  141.6750 C   0  0  0  0  0  3  0  0  0  0  0  0
  187.7430  176.9370  145.7970 C   0  0  0  0  0  0  0  0  0  0  0  0
  192.2450  172.5260  143.5910 C   0  0  0  0  0  3  0  0  0  0  0  0
  184.6390  178.3450  142.0020 C   0  0  0  0  0  3  0  0  0  0  0  0
  188.8210  175.0720  146.7490 C   0  0  0  0  0  0  0  0  0  0  0  0
  183.6970  178.9200  145.6120 C   0  0  0  0  0  1  0  0  0  0  0  0
  184.5080  178.5720  144.4110 C   0  0  0  0  0  0  0  0  0  0  0  0
  191.3120  173.5210  143.8940 C   0  0  0  0  0  0  0  0  0  0  0  0
  187.9060  177.4150  143.4720 O   0  0  0  0  0  0  0  0  0  0  0  0
  190.6090  173.5810  145.4120 S   0  0  0  0  0  0  0  0  0  0  0  0
  189.2870  175.7090  144.4460 C   0  0  0  0  0  0  0  0  0  0  0  0
  192.8330  172.4840  142.3270 C   0  0  0  0  0  3  0  0  0  0  0  0
  183.9000  178.6230  143.1530 C   0  0  0  0  0  3  0  0  0  0  0  0
  190.9430  174.4950  142.9430 C   0  0  0  0  0  0  0  0  0  0  0  0
  189.5130  174.8570  145.5550 C   0  0  0  0  0  0  0  0  0  0  0  0
  189.9960  175.5300  143.2040 C   0  0  0  0  0  0  0  0  0  0  0  0
  189.7890  176.3520  142.2690 O   0  0  0  0  0  0  0  0  0  0  0  0
  192.4870  173.4360  141.3680 C   0  0  0  0  0  3  0  0  0  0  0  0
  186.5990  177.9070  143.3610 C   0  0  0  0  0  0  0  0  0  0  0  0
  187.9700  176.1160  146.8480 N   0  0  0  0  0  0  0  0  0  0  0  0
  186.7440  177.6670  140.8610 C   0  0  0  0  0  1  0  0  0  0  0  0
  185.8700  178.2410  144.5120 C   0  0  0  0  0  0  0  0  0  0  0  0
  188.9930  174.3170  147.7430 O   0  0  0  0  0  0  0  0  0  0  0  0
  185.9890  177.9960  142.1010 C   0  0  0  0  0  0  0  0  0  0  0  0
  1  4  1  0  0  0  0
  3 16  1  0  0  0  0
  4  2  1  0  0  0  0
  4 22  2  0  0  0  0
  5 10  1  0  0  0  0
  6 26  2  0  0  0  0
  6 15  1  0  0  0  0
  7 22  1  0  0  0  0
  7 25  2  0  0  0  0
  9 24  1  0  0  0  0
  9  8  1  0  0  0  0
 10 12  1  0  0  0  0
 11  1  1  0  0  0  0
 12 17  1  0  0  0  0
 13  1  1  0  0  0  0
 13 17  2  0  0  0  0
 14  5  2  0  0  0  0
 15  9  2  0  0  0  0
 16 18  1  0  0  0  0
 16 10  2  0  0  0  0
 17  7  1  0  0  0  0
 18 13  1  0  0  0  0
 19 18  2  0  0  0  0
 20  3  2  0  0  0  0
 20 14  1  0  0  0  0
 21 11  1  0  0  0  0
 21 24  2  0  0  0  0
 23 26  1  0  0  0  0
 24  2  1  0  0  0  0
 26 21  1  0  0  0  0
M  END
>  <MODEL>
8

>  <REMARK>
 VINA RESULT:      -7.3      2.515      3.015
  Name = 
  0 active torsions:
  status: ('A' for Active; 'I' for Inactive)
                            x       y       z     vdW  Elec       q    Type
                         _______ _______ _______ _____ _____    ______ ____

>  <TORSDO>
F 0

$$$$
=
 OpenBabel11072408323D

 26 30  0  0  0  0  0  0  0  0999 V2000
  188.5880  175.8080  143.8610 N   0  0  0  0  0  0  0  0  0  0  0  0
  188.7000  176.0760  146.5960 S   0  0  0  0  0  0  0  0  0  0  0  0
  188.2230  174.4820  139.1620 C   0  0  0  0  0  3  0  0  0  0  0  0
  188.2490  176.5830  144.9400 C   0  0  0  0  0  0  0  0  0  0  0  0
  186.6300  176.6620  138.4610 C   0  0  0  0  0  3  0  0  0  0  0  0
  192.9280  174.6530  145.5710 C   0  0  0  0  0  3  0  0  0  0  0  0
  186.9800  178.0270  143.5800 C   0  0  0  0  0  0  0  0  0  0  0  0
  191.2710  176.6880  148.2850 C   0  0  0  0  0  1  0  0  0  0  0  0
  191.4580  175.9230  147.0190 C   0  0  0  0  0  0  0  0  0  0  0  0
  187.0580  176.4990  139.7820 C   0  0  0  0  0  0  0  0  0  0  0  0
  189.5790  174.8450  144.0070 O   0  0  0  0  0  0  0  0  0  0  0  0
  186.6100  177.6080  140.9540 S   0  0  0  0  0  0  0  0  0  0  0  0
  188.0510  176.0660  142.6140 C   0  0  0  0  0  0  0  0  0  0  0  0
  187.0000  175.7310  137.4900 C   0  0  0  0  0  3  0  0  0  0  0  0
  192.7250  175.4110  146.7260 C   0  0  0  0  0  3  0  0  0  0  0  0
  187.8650  175.4070  140.1630 C   0  0  0  0  0  0  0  0  0  0  0  0
  187.2400  177.2190  142.4710 C   0  0  0  0  0  0  0  0  0  0  0  0
  188.3270  175.1980  141.4960 C   0  0  0  0  0  0  0  0  0  0  0  0
  189.0140  174.1580  141.6980 O   0  0  0  0  0  0  0  0  0  0  0  0
  187.7970  174.6410  137.8400 C   0  0  0  0  0  3  0  0  0  0  0  0
  190.6020  174.9560  144.9580 C   0  0  0  0  0  0  0  0  0  0  0  0
  187.4710  177.6800  144.7880 N   0  0  0  0  0  0  0  0  0  0  0  0
  192.1210  173.6380  143.4460 C   0  0  0  0  0  1  0  0  0  0  0  0
  190.3860  175.6690  146.1460 C   0  0  0  0  0  0  0  0  0  0  0  0
  186.2750  179.0660  143.4730 O   0  0  0  0  0  0  0  0  0  0  0  0
  191.8690  174.4160  144.6910 C   0  0  0  0  0  0  0  0  0  0  0  0
  1 11  1  0  0  0  0
  1  4  1  0  0  0  0
  3 16  1  0  0  0  0
  4  2  1  0  0  0  0
  5 10  1  0  0  0  0
  6 15  1  0  0  0  0
  7 22  1  0  0  0  0
  9  8  1  0  0  0  0
 10 16  2  0  0  0  0
 10 12  1  0  0  0  0
 11 21  1  0  0  0  0
 12 17  1  0  0  0  0
 13  1  1  0  0  0  0
 14 20  1  0  0  0  0
 14  5  2  0  0  0  0
 15  9  2  0  0  0  0
 16 18  1  0  0  0  0
 17 13  2  0  0  0  0
 17  7  1  0  0  0  0
 18 19  2  0  0  0  0
 18 13  1  0  0  0  0
 20  3  2  0  0  0  0
 21 24  2  0  0  0  0
 22  4  2  0  0  0  0
 23 26  1  0  0  0  0
 24  2  1  0  0  0  0
 24  9  1  0  0  0  0
 25  7  2  0  0  0  0
 26 21  1  0  0  0  0
 26  6  2  0  0  0  0
M  END
>  <MODEL>
9

>  <REMARK>
 VINA RESULT:      -7.2      2.465      4.981
  Name = 
  0 active torsions:
  status: ('A' for Active; 'I' for Inactive)
                            x       y       z     vdW  Elec       q    Type
                         _______ _______ _______ _____ _____    ______ ____

>  <TORSDO>
F 0

$$$$
