=
 OpenBabel11062418253D

 48 51  0  0  1  0  0  0  0  0999 V2000
  195.5070  176.7620  144.8190 N   0  0  0  0  0  2  0  0  0  0  0  0
  193.1300  176.3830  145.4630 C   0  0  2  0  0  3  0  0  0  0  0  0
  194.2050  175.0200  143.6200 C   0  0  2  0  0  3  0  0  0  0  0  0
  193.5310  174.9800  144.9960 C   0  0  0  0  0  2  0  0  0  0  0  0
  194.2810  177.3910  145.3130 C   0  0  0  0  0  2  0  0  0  0  0  0
  195.2290  176.1580  143.5160 C   0  0  0  0  0  2  0  0  0  0  0  0
  192.6690  176.3470  146.9120 C   0  0  0  0  0  2  0  0  0  0  0  0
  189.3450  174.5070  146.9780 C   0  0  0  0  0  3  0  0  0  0  0  0
  190.2400  177.9770  146.7290 O   0  0  0  0  0  0  0  0  0  0  0  0
  190.8810  174.5020  147.0490 C   0  0  0  0  0  3  0  0  0  0  0  0
  191.2890  175.8930  147.0070 N   0  0  0  0  0  0  0  0  0  0  0  0
  190.1650  176.7220  146.8210 C   0  0  0  0  0  0  0  0  0  0  0  0
  188.9000  175.9590  146.7670 C   0  0  1  0  0  3  0  0  0  0  0  0
  185.8640  176.5330  144.2220 C   0  0  0  0  0  2  0  0  0  0  0  0
  186.4190  177.7640  140.9160 C   0  0  0  0  0  0  0  0  0  0  0  0
  186.7440  176.5960  145.4390 C   0  0  0  0  0  0  0  0  0  0  0  0
  185.8860  177.8050  143.3580 C   0  0  2  0  0  3  0  0  0  0  0  0
  185.0720  177.9700  140.6270 O   0  0  0  0  0  1  0  0  0  0  0  0
  188.9040  175.8810  144.3680 C   0  0  0  0  0  3  0  0  0  0  0  0
  186.2220  177.0400  146.4980 O   0  0  0  0  0  0  0  0  0  0  0  0
  188.2710  177.4570  142.5720 C   0  0  0  0  0  2  0  0  0  0  0  0
  188.1720  176.1460  145.4610 C   0  0  0  0  0  0  0  0  0  0  0  0
  188.4680  175.9980  142.9450 C   0  0  0  0  0  2  0  0  0  0  0  0
  187.2390  177.6410  139.9670 O   0  0  0  0  0  0  0  0  0  0  0  0
  186.8650  177.6970  142.2760 N   0  0  0  0  0  0  0  0  0  0  0  0
  186.0530  179.1030  144.1500 C   0  0  0  0  0  2  0  0  0  0  0  0
  184.7260  179.8210  144.3350 C   0  0  0  0  0  2  0  0  0  0  0  0
  183.8760  179.1010  145.3690 C   0  0  0  0  0  1  0  0  0  0  0  0
  193.1810  175.1800  142.5040 C   0  0  0  0  0  2  0  0  0  0  0  0
  188.4810  173.1140  140.6280 O   0  0  0  0  0  0  0  0  0  0  0  0
  190.4030  172.9010  141.9590 N   0  0  0  0  0  0  0  0  0  0  0  0
  190.8770  172.6900  143.3260 C   0  0  0  0  0  2  0  0  0  0  0  0
  193.0480  173.6850  141.4670 P   0  0  1  0  0  4  0  0  0  0  0  0
  193.6730  172.2790  142.4600 C   0  0  0  0  0  2  0  0  0  0  0  0
  192.6850  171.1190  142.4740 C   0  0  0  0  0  2  0  0  0  0  0  0
  191.5500  171.3280  143.4730 C   0  0  0  0  0  2  0  0  0  0  0  0
  188.9940  172.7300  141.7130 C   0  0  0  0  0  0  0  0  0  0  0  0
  191.2920  173.4610  140.9190 C   0  0  1  0  0  3  0  0  0  0  0  0
  188.1810  172.1450  142.6770 O   0  0  0  0  0  1  0  0  0  0  0  0
  194.1450  173.9030  140.0300 C   0  0  0  0  0  2  0  0  0  0  0  0
  194.6220  175.3400  139.9480 C   0  0  0  0  0  1  0  0  0  0  0  0
  191.1560  172.7200  139.5760 C   0  0  1  0  0  3  0  0  0  0  0  0
  191.5550  173.5430  138.5200 O   0  0  0  0  0  0  0  0  0  0  0  0
  190.3840  173.7930  137.8010 C   0  0  0  0  0  1  0  0  0  0  0  0
  191.9160  171.4800  139.5570 N   0  0  0  0  0  2  0  0  0  0  0  0
  190.9760  170.4140  139.2610 C   0  0  0  0  0  2  0  0  0  0  0  0
  189.6950  169.7890  137.2390 C   0  0  0  0  0  1  0  0  0  0  0  0
  191.0800  170.0420  137.7960 C   0  0  0  0  0  2  0  0  0  0  0  0
  1  5  1  0  0  0  0
  2  7  1  1  0  0  0
  3 29  1  6  0  0  0
  3  4  1  0  0  0  0
  4  2  1  0  0  0  0
  5  2  1  0  0  0  0
  6  3  1  0  0  0  0
  6  1  1  0  0  0  0
  7 11  1  0  0  0  0
  8 10  2  0  0  0  0
  9 12  2  0  0  0  0
 11 10  1  0  0  0  0
 12 11  1  0  0  0  0
 13 22  1  6  0  0  0
 13 12  1  0  0  0  0
 13  8  1  0  0  0  0
 14 16  1  0  0  0  0
 15 25  1  0  0  0  0
 16 22  1  0  0  0  0
 16 20  2  0  0  0  0
 17 26  1  1  0  0  0
 17 14  1  0  0  0  0
 18 15  1  0  0  0  0
 19 22  2  0  0  0  0
 21 23  1  0  0  0  0
 23 19  1  0  0  0  0
 24 15  2  0  0  0  0
 25 21  1  0  0  0  0
 25 17  1  0  0  0  0
 26 27  1  0  0  0  0
 27 28  1  0  0  0  0
 30 37  2  0  0  0  0
 31 32  1  0  0  0  0
 32 36  1  0  0  0  0
 33 40  1  6  0  0  0
 33 34  1  0  0  0  0
 33 29  1  0  0  0  0
 34 35  1  0  0  0  0
 35 36  1  0  0  0  0
 37 31  1  0  0  0  0
 37 39  1  0  0  0  0
 38 42  1  6  0  0  0
 38 33  1  0  0  0  0
 38 31  1  0  0  0  0
 41 40  1  0  0  0  0
 42 43  1  6  0  0  0
 44 43  1  0  0  0  0
 45 42  1  0  0  0  0
 46 45  1  0  0  0  0
 47 48  1  0  0  0  0
 48 46  1  0  0  0  0
M  END
>  <MODEL>
1

>  <REMARK>
 VINA RESULT:      -6.9      0.000      0.000
  Name = 
  13 active torsions:
  status: ('A' for Active; 'I' for Inactive)
    1  A    between atoms: C_1  and  C_17
    2  A    between atoms: C_1  and  N_30
    3  A    between atoms: C_4  and  N_22
    4  A    between atoms: C_4  and  C_24
    5  A    between atoms: O_5  and  C_18
    6  A    between atoms: C_6  and  C_11
    7  A    between atoms: C_11  and  C_15
    8  A    between atoms: C_18  and  N_22
    9  A    between atoms: C_18  and  C_39
   10  A    between atoms: C_21  and  P_23
   11  A    between atoms: C_21  and  C_32
   12  A    between atoms: P_23  and  C_44
   13  A    between atoms: C_33  and  C_37
                            x       y       z     vdW  Elec       q    Type
                         _______ _______ _______ _____ _____    ______ ____

>  <TORSDO>
F 13

$$$$
=
 OpenBabel11062418253D

 48 51  0  0  1  0  0  0  0  0999 V2000
  195.9300  175.7930  143.7430 N   0  0  0  0  0  2  0  0  0  0  0  0
  193.5940  175.3710  144.4990 C   0  0  2  0  0  3  0  0  0  0  0  0
  194.4620  174.3530  142.3490 C   0  0  2  0  0  3  0  0  0  0  0  0
  193.8930  174.0720  143.7440 C   0  0  0  0  0  2  0  0  0  0  0  0
  194.7750  176.3530  144.4460 C   0  0  0  0  0  2  0  0  0  0  0  0
  195.5270  175.4570  142.3770 C   0  0  0  0  0  2  0  0  0  0  0  0
  193.2420  175.0730  145.9480 C   0  0  0  0  0  2  0  0  0  0  0  0
  189.7110  173.7180  145.5740 C   0  0  0  0  0  3  0  0  0  0  0  0
  191.2240  176.0760  147.8220 O   0  0  0  0  0  0  0  0  0  0  0  0
  191.1880  173.7430  145.1490 C   0  0  0  0  0  3  0  0  0  0  0  0
  191.8550  174.6450  146.0690 N   0  0  0  0  0  0  0  0  0  0  0  0
  190.9140  175.2350  146.9360 C   0  0  0  0  0  0  0  0  0  0  0  0
  189.5400  174.7450  146.7010 C   0  0  1  0  0  3  0  0  0  0  0  0
  187.9840  177.7930  144.6250 C   0  0  0  0  0  2  0  0  0  0  0  0
  184.5470  178.7050  144.9590 C   0  0  0  0  0  0  0  0  0  0  0  0
  188.6840  176.5110  144.9800 C   0  0  0  0  0  0  0  0  0  0  0  0
  186.5840  177.6030  144.0170 C   0  0  2  0  0  3  0  0  0  0  0  0
  184.5460  179.5980  143.8900 O   0  0  0  0  0  0  0  0  0  0  0  0
  187.6920  176.1680  147.2640 C   0  0  0  0  0  3  0  0  0  0  0  0
  189.4030  175.9880  144.0840 O   0  0  0  0  0  0  0  0  0  0  0  0
  185.5540  176.7610  146.1750 C   0  0  0  0  0  2  0  0  0  0  0  0
  188.5910  175.8520  146.3200 C   0  0  0  0  0  0  0  0  0  0  0  0
  186.6150  177.1980  147.1690 C   0  0  0  0  0  2  0  0  0  0  0  0
  183.6590  178.8080  145.8470 O   0  0  0  0  0  1  0  0  0  0  0  0
  185.5430  177.6780  145.0430 N   0  0  0  0  0  0  0  0  0  0  0  0
  186.4380  176.3530  143.1470 C   0  0  0  0  0  2  0  0  0  0  0  0
  186.7870  176.6380  141.6950 C   0  0  0  0  0  2  0  0  0  0  0  0
  186.2670  178.0060  141.2860 C   0  0  0  0  0  1  0  0  0  0  0  0
  193.3660  174.7560  141.3720 C   0  0  0  0  0  2  0  0  0  0  0  0
  188.5070  173.9570  138.9970 O   0  0  0  0  0  0  0  0  0  0  0  0
  190.2330  173.1950  140.3950 N   0  0  0  0  0  0  0  0  0  0  0  0
  190.5420  172.7370  141.7490 C   0  0  0  0  0  2  0  0  0  0  0  0
  193.0130  173.4460  140.1510 P   0  0  1  0  0  4  0  0  0  0  0  0
  193.2550  171.8390  140.9940 C   0  0  0  0  0  2  0  0  0  0  0  0
  192.0530  170.9220  140.8090 C   0  0  0  0  0  2  0  0  0  0  0  0
  190.9080  171.2560  141.7620 C   0  0  0  0  0  2  0  0  0  0  0  0
  188.8430  173.3550  140.0520 C   0  0  0  0  0  0  0  0  0  0  0  0
  191.2980  173.6640  139.4840 C   0  0  1  0  0  3  0  0  0  0  0  0
  187.8520  172.8540  140.8890 O   0  0  0  0  0  1  0  0  0  0  0  0
  194.2430  173.5830  138.8160 C   0  0  0  0  0  2  0  0  0  0  0  0
  194.7100  175.0190  138.6790 C   0  0  0  0  0  1  0  0  0  0  0  0
  191.1210  173.1210  138.0530 C   0  0  1  0  0  3  0  0  0  0  0  0
  191.8900  173.8610  137.1500 O   0  0  0  0  0  0  0  0  0  0  0  0
  190.9630  174.6080  136.4220 C   0  0  0  0  0  1  0  0  0  0  0  0
  191.4590  171.7100  137.9580 N   0  0  0  0  0  2  0  0  0  0  0  0
  190.4170  171.0790  137.1670 C   0  0  0  0  0  2  0  0  0  0  0  0
  190.4960  168.7320  137.9460 C   0  0  0  0  0  1  0  0  0  0  0  0
  189.7160  170.0290  138.0040 C   0  0  0  0  0  2  0  0  0  0  0  0
  1  5  1  0  0  0  0
  2  7  1  1  0  0  0
  3 29  1  6  0  0  0
  3  6  1  0  0  0  0
  3  4  1  0  0  0  0
  4  2  1  0  0  0  0
  5  2  1  0  0  0  0
  6  1  1  0  0  0  0
  7 11  1  0  0  0  0
  8 13  1  0  0  0  0
 10  8  2  0  0  0  0
 10 11  1  0  0  0  0
 11 12  1  0  0  0  0
 12  9  2  0  0  0  0
 13 22  1  6  0  0  0
 13 12  1  0  0  0  0
 14 16  1  0  0  0  0
 15 25  1  0  0  0  0
 15 24  1  0  0  0  0
 16 22  1  0  0  0  0
 17 26  1  1  0  0  0
 17 14  1  0  0  0  0
 17 25  1  0  0  0  0
 18 15  2  0  0  0  0
 20 16  2  0  0  0  0
 21 23  1  0  0  0  0
 22 19  2  0  0  0  0
 23 19  1  0  0  0  0
 25 21  1  0  0  0  0
 27 26  1  0  0  0  0
 28 27  1  0  0  0  0
 30 37  2  0  0  0  0
 31 32  1  0  0  0  0
 32 36  1  0  0  0  0
 33 40  1  6  0  0  0
 33 34  1  0  0  0  0
 33 29  1  0  0  0  0
 35 34  1  0  0  0  0
 35 36  1  0  0  0  0
 37 31  1  0  0  0  0
 37 39  1  0  0  0  0
 38 42  1  6  0  0  0
 38 33  1  0  0  0  0
 38 31  1  0  0  0  0
 41 40  1  0  0  0  0
 42 43  1  6  0  0  0
 44 43  1  0  0  0  0
 45 42  1  0  0  0  0
 46 45  1  0  0  0  0
 46 48  1  0  0  0  0
 47 48  1  0  0  0  0
M  END
>  <MODEL>
2

>  <REMARK>
 VINA RESULT:      -6.7      1.672      2.573
  Name = 
  13 active torsions:
  status: ('A' for Active; 'I' for Inactive)
    1  A    between atoms: C_1  and  C_17
    2  A    between atoms: C_1  and  N_30
    3  A    between atoms: C_4  and  N_22
    4  A    between atoms: C_4  and  C_24
    5  A    between atoms: O_5  and  C_18
    6  A    between atoms: C_6  and  C_11
    7  A    between atoms: C_11  and  C_15
    8  A    between atoms: C_18  and  N_22
    9  A    between atoms: C_18  and  C_39
   10  A    between atoms: C_21  and  P_23
   11  A    between atoms: C_21  and  C_32
   12  A    between atoms: P_23  and  C_44
   13  A    between atoms: C_33  and  C_37
                            x       y       z     vdW  Elec       q    Type
                         _______ _______ _______ _____ _____    ______ ____

>  <TORSDO>
F 13

$$$$
=
 OpenBabel11062418253D

 48 51  0  0  1  0  0  0  0  0999 V2000
  196.5610  175.9280  140.5460 N   0  0  0  0  0  2  0  0  0  0  0  0
  195.1630  175.6440  142.5890 C   0  0  2  0  0  3  0  0  0  0  0  0
  194.7620  174.2170  140.5360 C   0  0  2  0  0  3  0  0  0  0  0  0
  195.1410  174.2210  142.0220 C   0  0  0  0  0  2  0  0  0  0  0  0
  195.9600  176.6080  141.6950 C   0  0  0  0  0  2  0  0  0  0  0  0
  195.4940  175.3150  139.7550 C   0  0  0  0  0  2  0  0  0  0  0  0
  195.7510  175.6460  143.9920 C   0  0  0  0  0  2  0  0  0  0  0  0
  192.9060  174.3670  146.1620 C   0  0  0  0  0  3  0  0  0  0  0  0
  194.5630  177.5420  145.8850 O   0  0  0  0  0  0  0  0  0  0  0  0
  193.9870  174.1310  145.0940 C   0  0  0  0  0  3  0  0  0  0  0  0
  194.7220  175.3770  144.9860 N   0  0  0  0  0  0  0  0  0  0  0  0
  194.1330  176.3590  145.8060 C   0  0  0  0  0  0  0  0  0  0  0  0
  192.9770  175.8440  146.5690 C   0  0  1  0  0  3  0  0  0  0  0  0
  190.2890  177.9420  144.4730 C   0  0  0  0  0  2  0  0  0  0  0  0
  186.8440  178.0090  145.4110 C   0  0  0  0  0  0  0  0  0  0  0  0
  191.3750  176.9710  144.8440 C   0  0  0  0  0  0  0  0  0  0  0  0
  188.9200  177.2930  144.2150 C   0  0  2  0  0  3  0  0  0  0  0  0
  186.4070  178.6490  144.2540 O   0  0  0  0  0  0  0  0  0  0  0  0
  190.9240  176.8390  147.3140 C   0  0  0  0  0  3  0  0  0  0  0  0
  192.0490  176.4810  143.8970 O   0  0  0  0  0  0  0  0  0  0  0  0
  188.5530  176.6550  146.6420 C   0  0  0  0  0  2  0  0  0  0  0  0
  191.7020  176.5820  146.2520 C   0  0  0  0  0  0  0  0  0  0  0  0
  189.6000  177.5280  147.3110 C   0  0  0  0  0  2  0  0  0  0  0  0
  186.1280  178.0570  146.4470 O   0  0  0  0  0  1  0  0  0  0  0  0
  188.0900  177.3010  145.4210 N   0  0  0  0  0  0  0  0  0  0  0  0
  188.9890  175.9030  143.5820 C   0  0  0  0  0  2  0  0  0  0  0  0
  189.0530  175.9810  142.0640 C   0  0  0  0  0  2  0  0  0  0  0  0
  187.6660  176.2090  141.4880 C   0  0  0  0  0  1  0  0  0  0  0  0
  193.2620  174.3980  140.3450 C   0  0  0  0  0  2  0  0  0  0  0  0
  188.3540  172.6700  142.0230 O   0  0  0  0  0  0  0  0  0  0  0  0
  190.6770  172.3530  141.8760 N   0  0  0  0  0  0  0  0  0  0  0  0
  191.8970  172.1700  142.6600 C   0  0  0  0  0  2  0  0  0  0  0  0
  192.4490  172.8690  139.7670 P   0  0  1  0  0  4  0  0  0  0  0  0
  193.5060  171.4660  140.2830 C   0  0  0  0  0  2  0  0  0  0  0  0
  192.7040  170.4010  141.0220 C   0  0  0  0  0  2  0  0  0  0  0  0
  192.4600  170.7620  142.4850 C   0  0  0  0  0  2  0  0  0  0  0  0
  189.4220  172.2970  142.5810 C   0  0  0  0  0  0  0  0  0  0  0  0
  190.7330  172.7770  140.4610 C   0  0  1  0  0  3  0  0  0  0  0  0
  189.3750  171.8370  143.8920 O   0  0  0  0  0  1  0  0  0  0  0  0
  192.4040  172.9140  137.9480 C   0  0  0  0  0  2  0  0  0  0  0  0
  192.5570  174.3400  137.4550 C   0  0  0  0  0  1  0  0  0  0  0  0
  189.7540  171.9840  139.5750 C   0  0  1  0  0  3  0  0  0  0  0  0
  189.5210  172.6600  138.3750 O   0  0  0  0  0  0  0  0  0  0  0  0
  188.6800  173.7190  138.7200 C   0  0  0  0  0  1  0  0  0  0  0  0
  190.2300  170.6360  139.3050 N   0  0  0  0  0  2  0  0  0  0  0  0
  189.7210  170.2630  137.9980 C   0  0  0  0  0  2  0  0  0  0  0  0
  191.3220  169.1990  136.4400 C   0  0  0  0  0  1  0  0  0  0  0  0
  190.3450  168.9500  137.5710 C   0  0  0  0  0  2  0  0  0  0  0  0
  1  5  1  0  0  0  0
  2  7  1  1  0  0  0
  3 29  1  1  0  0  0
  3  4  1  0  0  0  0
  4  2  1  0  0  0  0
  5  2  1  0  0  0  0
  6  3  1  0  0  0  0
  6  1  1  0  0  0  0
  7 11  1  0  0  0  0
  8 13  1  0  0  0  0
 10  8  2  0  0  0  0
 11 10  1  0  0  0  0
 11 12  1  0  0  0  0
 12  9  2  0  0  0  0
 12 13  1  0  0  0  0
 13 22  1  6  0  0  0
 14 16  1  0  0  0  0
 15 25  1  0  0  0  0
 15 24  1  0  0  0  0
 16 22  1  0  0  0  0
 17 26  1  1  0  0  0
 17 14  1  0  0  0  0
 17 25  1  0  0  0  0
 18 15  2  0  0  0  0
 20 16  2  0  0  0  0
 21 23  1  0  0  0  0
 22 19  2  0  0  0  0
 23 19  1  0  0  0  0
 25 21  1  0  0  0  0
 27 26  1  0  0  0  0
 28 27  1  0  0  0  0
 30 37  2  0  0  0  0
 31 37  1  0  0  0  0
 31 32  1  0  0  0  0
 33 40  1  6  0  0  0
 33 34  1  0  0  0  0
 33 29  1  0  0  0  0
 33 38  1  0  0  0  0
 34 35  1  0  0  0  0
 35 36  1  0  0  0  0
 36 32  1  0  0  0  0
 37 39  1  0  0  0  0
 38 42  1  6  0  0  0
 38 31  1  0  0  0  0
 41 40  1  0  0  0  0
 42 43  1  6  0  0  0
 43 44  1  0  0  0  0
 45 42  1  0  0  0  0
 46 45  1  0  0  0  0
 47 48  1  0  0  0  0
 48 46  1  0  0  0  0
M  END
>  <MODEL>
3

>  <REMARK>
 VINA RESULT:      -6.6      1.952      3.599
  Name = 
  13 active torsions:
  status: ('A' for Active; 'I' for Inactive)
    1  A    between atoms: C_1  and  C_17
    2  A    between atoms: C_1  and  N_30
    3  A    between atoms: C_4  and  N_22
    4  A    between atoms: C_4  and  C_24
    5  A    between atoms: O_5  and  C_18
    6  A    between atoms: C_6  and  C_11
    7  A    between atoms: C_11  and  C_15
    8  A    between atoms: C_18  and  N_22
    9  A    between atoms: C_18  and  C_39
   10  A    between atoms: C_21  and  P_23
   11  A    between atoms: C_21  and  C_32
   12  A    between atoms: P_23  and  C_44
   13  A    between atoms: C_33  and  C_37
                            x       y       z     vdW  Elec       q    Type
                         _______ _______ _______ _____ _____    ______ ____

>  <TORSDO>
F 13

$$$$
=
 OpenBabel11062418253D

 48 51  0  0  1  0  0  0  0  0999 V2000
  195.6170  176.7670  144.6660 N   0  0  0  0  0  2  0  0  0  0  0  0
  193.2380  176.3640  145.2870 C   0  0  2  0  0  3  0  0  0  0  0  0
  194.3600  174.9790  143.4880 C   0  0  2  0  0  3  0  0  0  0  0  0
  193.6680  174.9580  144.8560 C   0  0  0  0  0  2  0  0  0  0  0  0
  194.3740  177.3870  145.1300 C   0  0  0  0  0  2  0  0  0  0  0  0
  195.3670  176.1300  143.3740 C   0  0  0  0  0  2  0  0  0  0  0  0
  192.7570  176.3520  146.7300 C   0  0  0  0  0  2  0  0  0  0  0  0
  189.4730  174.4410  146.7570 C   0  0  0  0  0  3  0  0  0  0  0  0
  190.2940  177.9340  146.6010 O   0  0  0  0  0  0  0  0  0  0  0  0
  191.0090  174.4660  146.8220 C   0  0  0  0  0  3  0  0  0  0  0  0
  191.3880  175.8660  146.8170 N   0  0  0  0  0  0  0  0  0  0  0  0
  190.2450  176.6760  146.6580 C   0  0  0  0  0  0  0  0  0  0  0  0
  188.9970  175.8880  146.5880 C   0  0  1  0  0  3  0  0  0  0  0  0
  185.9330  176.4120  144.0650 C   0  0  0  0  0  2  0  0  0  0  0  0
  186.4190  177.8250  140.8210 C   0  0  0  0  0  0  0  0  0  0  0  0
  186.8090  176.4660  145.2860 C   0  0  0  0  0  0  0  0  0  0  0  0
  185.8840  177.7210  143.2620 C   0  0  2  0  0  3  0  0  0  0  0  0
  185.0620  177.9690  140.5390 O   0  0  0  0  0  1  0  0  0  0  0  0
  189.0050  175.9230  144.1880 C   0  0  0  0  0  3  0  0  0  0  0  0
  186.2630  176.8300  146.3630 O   0  0  0  0  0  0  0  0  0  0  0  0
  188.2860  177.5440  142.4660 C   0  0  0  0  0  2  0  0  0  0  0  0
  188.2590  176.0950  145.2900 C   0  0  0  0  0  0  0  0  0  0  0  0
  188.5630  176.0830  142.7710 C   0  0  0  0  0  2  0  0  0  0  0  0
  187.2450  177.7930  139.8700 O   0  0  0  0  0  0  0  0  0  0  0  0
  186.8680  177.7190  142.1780 N   0  0  0  0  0  0  0  0  0  0  0  0
  185.9790  178.9890  144.1140 C   0  0  0  0  0  2  0  0  0  0  0  0
  184.6120  179.6130  144.3430 C   0  0  0  0  0  2  0  0  0  0  0  0
  183.9220  178.9520  145.5250 C   0  0  0  0  0  1  0  0  0  0  0  0
  193.3490  175.0980  142.3560 C   0  0  0  0  0  2  0  0  0  0  0  0
  188.5760  172.8530  140.9210 O   0  0  0  0  0  0  0  0  0  0  0  0
  190.5870  172.7480  142.1290 N   0  0  0  0  0  0  0  0  0  0  0  0
  191.1550  172.6220  143.4710 C   0  0  0  0  0  2  0  0  0  0  0  0
  193.1770  173.5440  141.4150 P   0  0  1  0  0  4  0  0  0  0  0  0
  193.8940  172.2080  142.4410 C   0  0  0  0  0  2  0  0  0  0  0  0
  192.9330  171.0350  142.5880 C   0  0  0  0  0  2  0  0  0  0  0  0
  191.8630  171.2820  143.6480 C   0  0  0  0  0  2  0  0  0  0  0  0
  189.1680  172.5400  141.9890 C   0  0  0  0  0  0  0  0  0  0  0  0
  191.3930  173.2610  141.0010 C   0  0  1  0  0  3  0  0  0  0  0  0
  188.4330  171.9980  143.0370 O   0  0  0  0  0  1  0  0  0  0  0  0
  194.1710  173.6980  139.8980 C   0  0  0  0  0  2  0  0  0  0  0  0
  195.5660  174.1870  140.2320 C   0  0  0  0  0  1  0  0  0  0  0  0
  191.1830  172.4430  139.7140 C   0  0  1  0  0  3  0  0  0  0  0  0
  190.6840  171.1730  140.0160 O   0  0  0  0  0  0  0  0  0  0  0  0
  191.5350  170.2890  139.3510 C   0  0  0  0  0  1  0  0  0  0  0  0
  190.2990  173.1170  138.7760 N   0  0  0  0  0  2  0  0  0  0  0  0
  191.1240  173.5710  137.6700 C   0  0  0  0  0  2  0  0  0  0  0  0
  188.8110  174.2410  137.1020 C   0  0  0  0  0  1  0  0  0  0  0  0
  190.2600  174.3090  136.6680 C   0  0  0  0  0  2  0  0  0  0  0  0
  1  5  1  0  0  0  0
  2  7  1  1  0  0  0
  3 29  1  6  0  0  0
  3  4  1  0  0  0  0
  4  2  1  0  0  0  0
  5  2  1  0  0  0  0
  6  3  1  0  0  0  0
  6  1  1  0  0  0  0
  7 11  1  0  0  0  0
  8 10  2  0  0  0  0
  9 12  2  0  0  0  0
 11 10  1  0  0  0  0
 12 11  1  0  0  0  0
 13 22  1  6  0  0  0
 13 12  1  0  0  0  0
 13  8  1  0  0  0  0
 14 16  1  0  0  0  0
 15 25  1  0  0  0  0
 16 22  1  0  0  0  0
 16 20  2  0  0  0  0
 17 14  1  0  0  0  0
 17 26  1  1  0  0  0
 18 15  1  0  0  0  0
 19 22  2  0  0  0  0
 21 23  1  0  0  0  0
 23 19  1  0  0  0  0
 24 15  2  0  0  0  0
 25 21  1  0  0  0  0
 25 17  1  0  0  0  0
 26 27  1  0  0  0  0
 27 28  1  0  0  0  0
 30 37  2  0  0  0  0
 31 32  1  0  0  0  0
 32 36  1  0  0  0  0
 33 40  1  6  0  0  0
 33 29  1  0  0  0  0
 33 34  1  0  0  0  0
 34 35  1  0  0  0  0
 35 36  1  0  0  0  0
 37 31  1  0  0  0  0
 37 39  1  0  0  0  0
 38 42  1  6  0  0  0
 38 33  1  0  0  0  0
 38 31  1  0  0  0  0
 40 41  1  0  0  0  0
 42 45  1  6  0  0  0
 42 43  1  0  0  0  0
 44 43  1  0  0  0  0
 46 45  1  0  0  0  0
 48 47  1  0  0  0  0
 48 46  1  0  0  0  0
M  END
>  <MODEL>
4

>  <REMARK>
 VINA RESULT:      -6.5      0.803      1.358
  Name = 
  13 active torsions:
  status: ('A' for Active; 'I' for Inactive)
    1  A    between atoms: C_1  and  C_17
    2  A    between atoms: C_1  and  N_30
    3  A    between atoms: C_4  and  N_22
    4  A    between atoms: C_4  and  C_24
    5  A    between atoms: O_5  and  C_18
    6  A    between atoms: C_6  and  C_11
    7  A    between atoms: C_11  and  C_15
    8  A    between atoms: C_18  and  N_22
    9  A    between atoms: C_18  and  C_39
   10  A    between atoms: C_21  and  P_23
   11  A    between atoms: C_21  and  C_32
   12  A    between atoms: P_23  and  C_44
   13  A    between atoms: C_33  and  C_37
                            x       y       z     vdW  Elec       q    Type
                         _______ _______ _______ _____ _____    ______ ____

>  <TORSDO>
F 13

$$$$
=
 OpenBabel11062418253D

 48 51  0  0  1  0  0  0  0  0999 V2000
  197.2110  176.0110  141.1190 N   0  0  0  0  0  2  0  0  0  0  0  0
  195.4440  175.9140  142.8730 C   0  0  2  0  0  3  0  0  0  0  0  0
  195.1900  174.6290  140.7060 C   0  0  2  0  0  3  0  0  0  0  0  0
  195.2930  174.5300  142.2320 C   0  0  0  0  0  2  0  0  0  0  0  0
  196.5320  176.7530  142.1840 C   0  0  0  0  0  2  0  0  0  0  0  0
  196.2180  175.6070  140.1240 C   0  0  0  0  0  2  0  0  0  0  0  0
  195.7640  175.7800  144.3540 C   0  0  0  0  0  2  0  0  0  0  0  0
  192.8090  174.1870  146.1350 C   0  0  0  0  0  3  0  0  0  0  0  0
  193.5360  177.5420  145.0760 O   0  0  0  0  0  0  0  0  0  0  0  0
  194.2090  174.0860  145.5090 C   0  0  0  0  0  3  0  0  0  0  0  0
  194.5710  175.4330  145.1140 N   0  0  0  0  0  0  0  0  0  0  0  0
  193.4950  176.3120  145.3490 C   0  0  0  0  0  0  0  0  0  0  0  0
  192.3340  175.6360  145.9650 C   0  0  1  0  0  3  0  0  0  0  0  0
  188.5040  175.2470  144.8720 C   0  0  0  0  0  2  0  0  0  0  0  0
  187.0980  177.2590  142.2780 C   0  0  0  0  0  0  0  0  0  0  0  0
  189.7440  175.4550  145.6940 C   0  0  0  0  0  0  0  0  0  0  0  0
  187.7060  176.5300  144.5910 C   0  0  2  0  0  3  0  0  0  0  0  0
  185.7810  176.8680  142.5100 O   0  0  0  0  0  1  0  0  0  0  0  0
  191.3190  176.0770  143.8360 C   0  0  0  0  0  3  0  0  0  0  0  0
  189.6180  175.3690  146.9470 O   0  0  0  0  0  0  0  0  0  0  0  0
  189.4660  177.5130  143.0520 C   0  0  0  0  0  2  0  0  0  0  0  0
  191.0950  175.7310  145.1130 C   0  0  0  0  0  0  0  0  0  0  0  0
  190.2960  176.2740  142.7660 C   0  0  0  0  0  2  0  0  0  0  0  0
  187.4080  177.7380  141.1550 O   0  0  0  0  0  0  0  0  0  0  0  0
  188.0850  177.1240  143.3080 N   0  0  0  0  0  0  0  0  0  0  0  0
  187.7420  177.5560  145.7250 C   0  0  0  0  0  2  0  0  0  0  0  0
  186.3450  178.0260  146.1000 C   0  0  0  0  0  2  0  0  0  0  0  0
  185.3960  176.8420  146.1890 C   0  0  0  0  0  1  0  0  0  0  0  0
  193.7980  175.0640  140.2700 C   0  0  0  0  0  2  0  0  0  0  0  0
  188.7860  173.2150  141.4320 O   0  0  0  0  0  0  0  0  0  0  0  0
  191.0940  172.8340  141.2300 N   0  0  0  0  0  0  0  0  0  0  0  0
  192.2890  172.4050  141.9560 C   0  0  0  0  0  2  0  0  0  0  0  0
  192.9290  173.7650  139.3280 P   0  0  1  0  0  4  0  0  0  0  0  0
  193.9120  172.2290  139.4920 C   0  0  0  0  0  2  0  0  0  0  0  0
  193.0500  171.0550  139.9400 C   0  0  0  0  0  2  0  0  0  0  0  0
  192.7930  171.0580  141.4450 C   0  0  0  0  0  2  0  0  0  0  0  0
  189.8250  172.6660  141.8890 C   0  0  0  0  0  0  0  0  0  0  0  0
  191.1970  173.5880  139.9630 C   0  0  1  0  0  3  0  0  0  0  0  0
  189.7310  171.9020  143.0470 O   0  0  0  0  0  1  0  0  0  0  0  0
  192.9220  174.2570  137.5760 C   0  0  0  0  0  2  0  0  0  0  0  0
  194.3400  174.4830  137.0890 C   0  0  0  0  0  1  0  0  0  0  0  0
  190.2020  173.0840  138.9020 C   0  0  1  0  0  3  0  0  0  0  0  0
  189.8340  174.1220  138.0420 O   0  0  0  0  0  0  0  0  0  0  0  0
  189.3470  173.4830  136.9000 C   0  0  0  0  0  1  0  0  0  0  0  0
  190.7360  171.9680  138.1380 N   0  0  0  0  0  2  0  0  0  0  0  0
  189.9240  170.8080  138.4600 C   0  0  0  0  0  2  0  0  0  0  0  0
  190.4320  168.3940  138.2790 C   0  0  0  0  0  1  0  0  0  0  0  0
  190.2520  169.6810  137.5020 C   0  0  0  0  0  2  0  0  0  0  0  0
  1  5  1  0  0  0  0
  2  7  1  1  0  0  0
  3 29  1  1  0  0  0
  3  4  1  0  0  0  0
  4  2  1  0  0  0  0
  5  2  1  0  0  0  0
  6  3  1  0  0  0  0
  6  1  1  0  0  0  0
  7 11  1  0  0  0  0
  9 12  2  0  0  0  0
 10  8  2  0  0  0  0
 11 12  1  0  0  0  0
 11 10  1  0  0  0  0
 12 13  1  0  0  0  0
 13 22  1  6  0  0  0
 13  8  1  0  0  0  0
 14 16  1  0  0  0  0
 15 18  1  0  0  0  0
 15 25  1  0  0  0  0
 16 20  2  0  0  0  0
 17 14  1  0  0  0  0
 17 26  1  1  0  0  0
 19 22  2  0  0  0  0
 21 25  1  0  0  0  0
 22 16  1  0  0  0  0
 23 21  1  0  0  0  0
 23 19  1  0  0  0  0
 24 15  2  0  0  0  0
 25 17  1  0  0  0  0
 26 27  1  0  0  0  0
 27 28  1  0  0  0  0
 30 37  2  0  0  0  0
 31 37  1  0  0  0  0
 31 32  1  0  0  0  0
 33 40  1  6  0  0  0
 33 34  1  0  0  0  0
 33 38  1  0  0  0  0
 33 29  1  0  0  0  0
 34 35  1  0  0  0  0
 35 36  1  0  0  0  0
 36 32  1  0  0  0  0
 37 39  1  0  0  0  0
 38 42  1  6  0  0  0
 38 31  1  0  0  0  0
 41 40  1  0  0  0  0
 42 43  1  6  0  0  0
 44 43  1  0  0  0  0
 45 46  1  0  0  0  0
 45 42  1  0  0  0  0
 48 47  1  0  0  0  0
 48 46  1  0  0  0  0
M  END
>  <MODEL>
5

>  <REMARK>
 VINA RESULT:      -6.2      1.781      2.690
  Name = 
  13 active torsions:
  status: ('A' for Active; 'I' for Inactive)
    1  A    between atoms: C_1  and  C_17
    2  A    between atoms: C_1  and  N_30
    3  A    between atoms: C_4  and  N_22
    4  A    between atoms: C_4  and  C_24
    5  A    between atoms: O_5  and  C_18
    6  A    between atoms: C_6  and  C_11
    7  A    between atoms: C_11  and  C_15
    8  A    between atoms: C_18  and  N_22
    9  A    between atoms: C_18  and  C_39
   10  A    between atoms: C_21  and  P_23
   11  A    between atoms: C_21  and  C_32
   12  A    between atoms: P_23  and  C_44
   13  A    between atoms: C_33  and  C_37
                            x       y       z     vdW  Elec       q    Type
                         _______ _______ _______ _____ _____    ______ ____

>  <TORSDO>
F 13

$$$$
=
 OpenBabel11062418253D

 48 51  0  0  1  0  0  0  0  0999 V2000
  191.8450  169.7920  139.5240 N   0  0  0  0  0  2  0  0  0  0  0  0
  190.3600  171.6220  140.3310 C   0  0  2  0  0  3  0  0  0  0  0  0
  192.8790  171.8610  140.4280 C   0  0  2  0  0  3  0  0  0  0  0  0
  191.5740  172.4240  139.8520 C   0  0  0  0  0  2  0  0  0  0  0  0
  190.5650  170.1080  140.1610 C   0  0  0  0  0  2  0  0  0  0  0  0
  192.9250  170.3300  140.3520 C   0  0  0  0  0  2  0  0  0  0  0  0
  189.1100  172.0550  139.5810 C   0  0  0  0  0  2  0  0  0  0  0  0
  187.9290  175.4960  140.6810 C   0  0  0  0  0  3  0  0  0  0  0  0
  188.0240  172.2870  142.2930 O   0  0  0  0  0  0  0  0  0  0  0  0
  188.5080  174.5570  139.6100 C   0  0  0  0  0  3  0  0  0  0  0  0
  188.5140  173.2310  140.1990 N   0  0  0  0  0  0  0  0  0  0  0  0
  188.0920  173.2960  141.5410 C   0  0  0  0  0  0  0  0  0  0  0  0
  187.7230  174.6660  141.9550 C   0  0  1  0  0  3  0  0  0  0  0  0
  189.1880  177.1800  144.7030 C   0  0  0  0  0  2  0  0  0  0  0  0
  190.8610  175.9740  147.6190 C   0  0  0  0  0  0  0  0  0  0  0  0
  188.2530  176.4740  143.7620 C   0  0  0  0  0  0  0  0  0  0  0  0
  188.9940  176.8140  146.1830 C   0  0  2  0  0  3  0  0  0  0  0  0
  190.9150  177.2110  148.2580 O   0  0  0  0  0  1  0  0  0  0  0  0
  189.5710  174.3550  143.4530 C   0  0  0  0  0  3  0  0  0  0  0  0
  187.1560  177.0450  143.5140 O   0  0  0  0  0  0  0  0  0  0  0  0
  189.8600  174.4460  145.9060 C   0  0  0  0  0  2  0  0  0  0  0  0
  188.5630  175.1670  143.1010 C   0  0  0  0  0  0  0  0  0  0  0  0
  190.5510  174.5680  144.5600 C   0  0  0  0  0  2  0  0  0  0  0  0
  191.6690  175.0700  147.9620 O   0  0  0  0  0  0  0  0  0  0  0  0
  189.8950  175.7340  146.5880 N   0  0  0  0  0  0  0  0  0  0  0  0
  187.5450  176.5220  146.5760 C   0  0  0  0  0  2  0  0  0  0  0  0
  186.9000  177.7160  147.2630 C   0  0  0  0  0  2  0  0  0  0  0  0
  185.9580  178.4300  146.3070 C   0  0  0  0  0  1  0  0  0  0  0  0
  193.0760  172.2850  141.8770 C   0  0  0  0  0  2  0  0  0  0  0  0
  194.4660  175.3560  146.1810 O   0  0  0  0  0  1  0  0  0  0  0  0
  194.1990  175.1160  143.8600 N   0  0  0  0  0  0  0  0  0  0  0  0
  193.5100  175.6530  142.6880 C   0  0  0  0  0  2  0  0  0  0  0  0
  194.7520  172.9390  142.1840 P   0  0  1  0  0  4  0  0  0  0  0  0
  195.1530  174.0740  140.8050 C   0  0  0  0  0  2  0  0  0  0  0  0
  195.6370  175.4260  141.3130 C   0  0  0  0  0  2  0  0  0  0  0  0
  194.4880  176.3380  141.7380 C   0  0  0  0  0  2  0  0  0  0  0  0
  194.0990  175.8640  145.0870 C   0  0  0  0  0  0  0  0  0  0  0  0
  194.8020  173.7670  143.8420 C   0  0  1  0  0  3  0  0  0  0  0  0
  193.5870  177.1560  145.0800 O   0  0  0  0  0  0  0  0  0  0  0  0
  195.9140  171.5390  142.1310 C   0  0  0  0  0  2  0  0  0  0  0  0
  197.2050  171.9540  141.4530 C   0  0  0  0  0  1  0  0  0  0  0  0
  196.1950  173.7410  144.5000 C   0  0  1  0  0  3  0  0  0  0  0  0
  196.7310  175.0300  144.5630 O   0  0  0  0  0  0  0  0  0  0  0  0
  197.9150  174.9600  143.8260 C   0  0  0  0  0  1  0  0  0  0  0  0
  196.1610  173.1480  145.8270 N   0  0  0  0  0  2  0  0  0  0  0  0
  196.9140  171.9080  145.7540 C   0  0  0  0  0  2  0  0  0  0  0  0
  196.3340  169.7830  146.8800 C   0  0  0  0  0  1  0  0  0  0  0  0
  195.9540  170.7360  145.7660 C   0  0  0  0  0  2  0  0  0  0  0  0
  1  5  1  0  0  0  0
  1  6  1  0  0  0  0
  2  7  1  6  0  0  0
  3 29  1  1  0  0  0
  4  2  1  0  0  0  0
  4  3  1  0  0  0  0
  5  2  1  0  0  0  0
  6  3  1  0  0  0  0
  7 11  1  0  0  0  0
  8 13  1  0  0  0  0
 10 11  1  0  0  0  0
 10  8  2  0  0  0  0
 11 12  1  0  0  0  0
 12 13  1  0  0  0  0
 12  9  2  0  0  0  0
 13 22  1  1  0  0  0
 14 17  1  0  0  0  0
 15 24  2  0  0  0  0
 15 18  1  0  0  0  0
 16 14  1  0  0  0  0
 17 26  1  6  0  0  0
 17 25  1  0  0  0  0
 19 23  1  0  0  0  0
 20 16  2  0  0  0  0
 21 25  1  0  0  0  0
 22 19  2  0  0  0  0
 22 16  1  0  0  0  0
 23 21  1  0  0  0  0
 25 15  1  0  0  0  0
 26 27  1  0  0  0  0
 28 27  1  0  0  0  0
 31 37  1  0  0  0  0
 32 31  1  0  0  0  0
 33 29  1  6  0  0  0
 33 38  1  0  0  0  0
 34 35  1  0  0  0  0
 34 33  1  0  0  0  0
 35 36  1  0  0  0  0
 36 32  1  0  0  0  0
 37 30  1  0  0  0  0
 38 31  1  0  0  0  0
 38 42  1  6  0  0  0
 39 37  2  0  0  0  0
 40 33  1  0  0  0  0
 41 40  1  0  0  0  0
 42 43  1  1  0  0  0
 42 45  1  0  0  0  0
 44 43  1  0  0  0  0
 46 48  1  0  0  0  0
 46 45  1  0  0  0  0
 48 47  1  0  0  0  0
M  END
>  <MODEL>
6

>  <REMARK>
 VINA RESULT:      -6.1      2.653      6.562
  Name = 
  13 active torsions:
  status: ('A' for Active; 'I' for Inactive)
    1  A    between atoms: C_1  and  C_17
    2  A    between atoms: C_1  and  N_30
    3  A    between atoms: C_4  and  N_22
    4  A    between atoms: C_4  and  C_24
    5  A    between atoms: O_5  and  C_18
    6  A    between atoms: C_6  and  C_11
    7  A    between atoms: C_11  and  C_15
    8  A    between atoms: C_18  and  N_22
    9  A    between atoms: C_18  and  C_39
   10  A    between atoms: C_21  and  P_23
   11  A    between atoms: C_21  and  C_32
   12  A    between atoms: P_23  and  C_44
   13  A    between atoms: C_33  and  C_37
                            x       y       z     vdW  Elec       q    Type
                         _______ _______ _______ _____ _____    ______ ____

>  <TORSDO>
F 13

$$$$
=
 OpenBabel11062418253D

 48 51  0  0  1  0  0  0  0  0999 V2000
  191.6150  173.8300  138.2160 N   0  0  0  0  0  2  0  0  0  0  0  0
  190.4880  172.0370  139.5290 C   0  0  2  0  0  3  0  0  0  0  0  0
  192.5560  173.1920  140.4240 C   0  0  2  0  0  3  0  0  0  0  0  0
  191.0690  172.8980  140.6540 C   0  0  0  0  0  2  0  0  0  0  0  0
  190.8530  172.5820  138.1380 C   0  0  0  0  0  2  0  0  0  0  0  0
  192.8440  173.5800  138.9680 C   0  0  0  0  0  2  0  0  0  0  0  0
  188.9760  171.9420  139.6600 C   0  0  0  0  0  2  0  0  0  0  0  0
  187.9310  175.4560  140.6600 C   0  0  0  0  0  3  0  0  0  0  0  0
  187.9130  172.2960  142.3680 O   0  0  0  0  0  0  0  0  0  0  0  0
  188.4690  174.4650  139.6150 C   0  0  0  0  0  3  0  0  0  0  0  0
  188.4280  173.1580  140.2440 N   0  0  0  0  0  0  0  0  0  0  0  0
  188.0150  173.2790  141.5860 C   0  0  0  0  0  0  0  0  0  0  0  0
  187.7000  174.6740  141.9590 C   0  0  1  0  0  3  0  0  0  0  0  0
  189.1290  177.1450  144.7650 C   0  0  0  0  0  2  0  0  0  0  0  0
  191.0480  175.9200  147.5160 C   0  0  0  0  0  0  0  0  0  0  0  0
  188.1970  176.4200  143.8350 C   0  0  0  0  0  0  0  0  0  0  0  0
  189.0460  176.6870  146.2300 C   0  0  2  0  0  3  0  0  0  0  0  0
  191.0460  177.1220  148.2200 O   0  0  0  0  0  1  0  0  0  0  0  0
  189.6480  174.4270  143.3390 C   0  0  0  0  0  3  0  0  0  0  0  0
  187.0470  176.9170  143.6790 O   0  0  0  0  0  0  0  0  0  0  0  0
  190.0670  174.4120  145.7740 C   0  0  0  0  0  2  0  0  0  0  0  0
  188.5640  175.1780  143.0860 C   0  0  0  0  0  0  0  0  0  0  0  0
  190.6700  174.6570  144.4020 C   0  0  0  0  0  2  0  0  0  0  0  0
  191.9380  175.0640  147.7640 O   0  0  0  0  0  0  0  0  0  0  0  0
  190.0460  175.6600  146.5250 N   0  0  0  0  0  0  0  0  0  0  0  0
  187.6460  176.2650  146.6810 C   0  0  0  0  0  2  0  0  0  0  0  0
  186.8590  177.4410  147.2370 C   0  0  0  0  0  2  0  0  0  0  0  0
  185.4320  177.4160  146.7140 C   0  0  0  0  0  1  0  0  0  0  0  0
  193.4220  171.9960  140.7920 C   0  0  0  0  0  2  0  0  0  0  0  0
  196.2950  176.6450  140.9140 O   0  0  0  0  0  1  0  0  0  0  0  0
  196.2250  174.3070  140.7050 N   0  0  0  0  0  0  0  0  0  0  0  0
  196.5570  173.1890  139.8230 C   0  0  0  0  0  2  0  0  0  0  0  0
  194.6700  172.4090  142.0580 P   0  0  1  0  0  4  0  0  0  0  0  0
  196.0140  171.1740  141.9170 C   0  0  0  0  0  2  0  0  0  0  0  0
  197.3810  171.8410  141.8150 C   0  0  0  0  0  2  0  0  0  0  0  0
  197.6850  172.3420  140.4050 C   0  0  0  0  0  2  0  0  0  0  0  0
  196.7250  175.6080  140.3400 C   0  0  0  0  0  0  0  0  0  0  0  0
  195.2560  174.1500  141.8100 C   0  0  1  0  0  3  0  0  0  0  0  0
  197.6820  175.7350  139.3400 O   0  0  0  0  0  0  0  0  0  0  0  0
  193.8900  172.2220  143.6920 C   0  0  0  0  0  2  0  0  0  0  0  0
  192.7190  171.2630  143.6080 C   0  0  0  0  0  1  0  0  0  0  0  0
  195.7350  174.8280  143.1060 C   0  0  1  0  0  3  0  0  0  0  0  0
  194.6590  175.0510  143.9690 O   0  0  0  0  0  0  0  0  0  0  0  0
  193.9080  176.0530  143.3500 C   0  0  0  0  0  1  0  0  0  0  0  0
  196.7630  174.0520  143.7810 N   0  0  0  0  0  2  0  0  0  0  0  0
  196.7640  174.4720  145.1720 C   0  0  0  0  0  2  0  0  0  0  0  0
  197.2030  172.0570  145.4820 C   0  0  0  0  0  1  0  0  0  0  0  0
  196.5080  173.2720  146.0600 C   0  0  0  0  0  2  0  0  0  0  0  0
  1  6  1  0  0  0  0
  2  7  1  1  0  0  0
  2  4  1  0  0  0  0
  3  4  1  0  0  0  0
  3 29  1  6  0  0  0
  5  1  1  0  0  0  0
  5  2  1  0  0  0  0
  6  3  1  0  0  0  0
  7 11  1  0  0  0  0
  8 13  1  0  0  0  0
 10 11  1  0  0  0  0
 10  8  2  0  0  0  0
 11 12  1  0  0  0  0
 12 13  1  0  0  0  0
 12  9  2  0  0  0  0
 13 22  1  1  0  0  0
 14 17  1  0  0  0  0
 15 24  2  0  0  0  0
 15 18  1  0  0  0  0
 16 14  1  0  0  0  0
 17 25  1  0  0  0  0
 17 26  1  6  0  0  0
 19 23  1  0  0  0  0
 20 16  2  0  0  0  0
 21 25  1  0  0  0  0
 22 19  2  0  0  0  0
 22 16  1  0  0  0  0
 23 21  1  0  0  0  0
 25 15  1  0  0  0  0
 26 27  1  0  0  0  0
 28 27  1  0  0  0  0
 31 38  1  0  0  0  0
 32 36  1  0  0  0  0
 32 31  1  0  0  0  0
 33 29  1  6  0  0  0
 33 40  1  0  0  0  0
 34 33  1  0  0  0  0
 35 34  1  0  0  0  0
 36 35  1  0  0  0  0
 37 31  1  0  0  0  0
 37 30  1  0  0  0  0
 38 33  1  0  0  0  0
 38 42  1  1  0  0  0
 39 37  2  0  0  0  0
 41 40  1  0  0  0  0
 42 45  1  1  0  0  0
 42 43  1  0  0  0  0
 44 43  1  0  0  0  0
 45 46  1  0  0  0  0
 46 48  1  0  0  0  0
 47 48  1  0  0  0  0
M  END
>  <MODEL>
7

>  <REMARK>
 VINA RESULT:      -6.1      2.723      6.591
  Name = 
  13 active torsions:
  status: ('A' for Active; 'I' for Inactive)
    1  A    between atoms: C_1  and  C_17
    2  A    between atoms: C_1  and  N_30
    3  A    between atoms: C_4  and  N_22
    4  A    between atoms: C_4  and  C_24
    5  A    between atoms: O_5  and  C_18
    6  A    between atoms: C_6  and  C_11
    7  A    between atoms: C_11  and  C_15
    8  A    between atoms: C_18  and  N_22
    9  A    between atoms: C_18  and  C_39
   10  A    between atoms: C_21  and  P_23
   11  A    between atoms: C_21  and  C_32
   12  A    between atoms: P_23  and  C_44
   13  A    between atoms: C_33  and  C_37
                            x       y       z     vdW  Elec       q    Type
                         _______ _______ _______ _____ _____    ______ ____

>  <TORSDO>
F 13

$$$$
=
 OpenBabel11062418253D

 48 51  0  0  1  0  0  0  0  0999 V2000
  195.2220  175.9120  143.6950 N   0  0  0  0  0  2  0  0  0  0  0  0
  192.9280  175.8790  144.6660 C   0  0  2  0  0  3  0  0  0  0  0  0
  193.5380  174.3620  142.7330 C   0  0  2  0  0  3  0  0  0  0  0  0
  193.0620  174.4300  144.1880 C   0  0  0  0  0  2  0  0  0  0  0  0
  194.1750  176.7130  144.3330 C   0  0  0  0  0  2  0  0  0  0  0  0
  194.6850  175.3420  142.4590 C   0  0  0  0  0  2  0  0  0  0  0  0
  192.6700  175.9220  146.1640 C   0  0  0  0  0  2  0  0  0  0  0  0
  189.0830  174.8650  146.8380 C   0  0  0  0  0  3  0  0  0  0  0  0
  190.5990  177.9730  145.8660 O   0  0  0  0  0  0  0  0  0  0  0  0
  190.5860  174.5470  146.7880 C   0  0  0  0  0  3  0  0  0  0  0  0
  191.2490  175.7930  146.4510 N   0  0  0  0  0  0  0  0  0  0  0  0
  190.2930  176.7970  146.2000 C   0  0  0  0  0  0  0  0  0  0  0  0
  188.9060  176.3210  146.3910 C   0  0  1  0  0  3  0  0  0  0  0  0
  185.7060  176.8640  144.0490 C   0  0  0  0  0  2  0  0  0  0  0  0
  186.0520  177.7300  140.6020 C   0  0  0  0  0  0  0  0  0  0  0  0
  186.6890  176.9790  145.1800 C   0  0  0  0  0  0  0  0  0  0  0  0
  185.7330  178.0420  143.0620 C   0  0  2  0  0  3  0  0  0  0  0  0
  184.7010  178.0030  140.4010 O   0  0  0  0  0  1  0  0  0  0  0  0
  188.7010  176.0150  144.0200 C   0  0  0  0  0  3  0  0  0  0  0  0
  186.2880  177.5580  146.2270 O   0  0  0  0  0  0  0  0  0  0  0  0
  188.0160  177.4530  142.1290 C   0  0  0  0  0  2  0  0  0  0  0  0
  188.0820  176.4330  145.1340 C   0  0  0  0  0  0  0  0  0  0  0  0
  188.1530  176.0260  142.6310 C   0  0  0  0  0  2  0  0  0  0  0  0
  186.7790  177.4610  139.6090 O   0  0  0  0  0  0  0  0  0  0  0  0
  186.6080  177.7620  141.9220 N   0  0  0  0  0  0  0  0  0  0  0  0
  186.0490  179.3950  143.7030 C   0  0  0  0  0  2  0  0  0  0  0  0
  184.7950  180.0650  144.2430 C   0  0  0  0  0  2  0  0  0  0  0  0
  183.6180  179.1050  144.1870 C   0  0  0  0  0  1  0  0  0  0  0  0
  192.4020  174.6550  141.7620 C   0  0  0  0  0  2  0  0  0  0  0  0
  194.8780  169.8560  140.9100 O   0  0  0  0  0  1  0  0  0  0  0  0
  193.6760  171.6960  140.0810 N   0  0  0  0  0  0  0  0  0  0  0  0
  193.7130  172.7930  139.1160 C   0  0  0  0  0  2  0  0  0  0  0  0
  191.5540  173.1360  141.2100 P   0  0  1  0  0  4  0  0  0  0  0  0
  190.8690  173.4730  139.5460 C   0  0  0  0  0  2  0  0  0  0  0  0
  191.2680  172.3950  138.5460 C   0  0  0  0  0  2  0  0  0  0  0  0
  192.6830  172.5890  138.0080 C   0  0  0  0  0  2  0  0  0  0  0  0
  194.7080  170.6950  139.9850 C   0  0  0  0  0  0  0  0  0  0  0  0
  192.7450  171.7170  141.2290 C   0  0  1  0  0  3  0  0  0  0  0  0
  195.5370  170.6490  138.8700 O   0  0  0  0  0  0  0  0  0  0  0  0
  190.1680  172.8260  142.3480 C   0  0  0  0  0  2  0  0  0  0  0  0
  188.8480  172.9410  141.6120 C   0  0  0  0  0  1  0  0  0  0  0  0
  192.0710  170.3510  141.4580 C   0  0  1  0  0  3  0  0  0  0  0  0
  191.7020  170.2050  142.7970 O   0  0  0  0  0  0  0  0  0  0  0  0
  192.8660  170.4760  143.5190 C   0  0  0  0  0  1  0  0  0  0  0  0
  190.9140  170.1630  140.5980 N   0  0  0  0  0  2  0  0  0  0  0  0
  190.8780  168.7560  140.2400 C   0  0  0  0  0  2  0  0  0  0  0  0
  189.9960  169.0350  137.9460 C   0  0  0  0  0  1  0  0  0  0  0  0
  191.1930  168.6030  138.7650 C   0  0  0  0  0  2  0  0  0  0  0  0
  1  5  1  0  0  0  0
  2  7  1  1  0  0  0
  3 29  1  6  0  0  0
  3  4  1  0  0  0  0
  4  2  1  0  0  0  0
  5  2  1  0  0  0  0
  6  3  1  0  0  0  0
  6  1  1  0  0  0  0
  7 11  1  0  0  0  0
  9 12  2  0  0  0  0
 10  8  2  0  0  0  0
 11 10  1  0  0  0  0
 12 13  1  0  0  0  0
 12 11  1  0  0  0  0
 13 22  1  6  0  0  0
 13  8  1  0  0  0  0
 14 16  1  0  0  0  0
 15 25  1  0  0  0  0
 16 20  2  0  0  0  0
 17 26  1  1  0  0  0
 17 14  1  0  0  0  0
 18 15  1  0  0  0  0
 19 22  2  0  0  0  0
 21 23  1  0  0  0  0
 22 16  1  0  0  0  0
 23 19  1  0  0  0  0
 24 15  2  0  0  0  0
 25 21  1  0  0  0  0
 25 17  1  0  0  0  0
 26 27  1  0  0  0  0
 28 27  1  0  0  0  0
 31 38  1  0  0  0  0
 32 31  1  0  0  0  0
 33 38  1  0  0  0  0
 33 29  1  1  0  0  0
 33 40  1  0  0  0  0
 34 33  1  0  0  0  0
 35 34  1  0  0  0  0
 36 35  1  0  0  0  0
 36 32  1  0  0  0  0
 37 31  1  0  0  0  0
 37 30  1  0  0  0  0
 38 42  1  6  0  0  0
 39 37  2  0  0  0  0
 41 40  1  0  0  0  0
 42 45  1  6  0  0  0
 42 43  1  0  0  0  0
 43 44  1  0  0  0  0
 46 45  1  0  0  0  0
 47 48  1  0  0  0  0
 48 46  1  0  0  0  0
M  END
>  <MODEL>
8

>  <REMARK>
 VINA RESULT:      -5.9      1.654      3.111
  Name = 
  13 active torsions:
  status: ('A' for Active; 'I' for Inactive)
    1  A    between atoms: C_1  and  C_17
    2  A    between atoms: C_1  and  N_30
    3  A    between atoms: C_4  and  N_22
    4  A    between atoms: C_4  and  C_24
    5  A    between atoms: O_5  and  C_18
    6  A    between atoms: C_6  and  C_11
    7  A    between atoms: C_11  and  C_15
    8  A    between atoms: C_18  and  N_22
    9  A    between atoms: C_18  and  C_39
   10  A    between atoms: C_21  and  P_23
   11  A    between atoms: C_21  and  C_32
   12  A    between atoms: P_23  and  C_44
   13  A    between atoms: C_33  and  C_37
                            x       y       z     vdW  Elec       q    Type
                         _______ _______ _______ _____ _____    ______ ____

>  <TORSDO>
F 13

$$$$
=
 OpenBabel11062418253D

 48 51  0  0  1  0  0  0  0  0999 V2000
  189.6840  174.2330  145.8510 N   0  0  0  0  0  2  0  0  0  0  0  0
  190.5270  176.5700  145.6690 C   0  0  2  0  0  3  0  0  0  0  0  0
  192.0590  174.6040  145.2270 C   0  0  2  0  0  3  0  0  0  0  0  0
  191.4110  175.8620  144.6380 C   0  0  0  0  0  2  0  0  0  0  0  0
  189.5690  175.5960  146.3740 C   0  0  0  0  0  2  0  0  0  0  0  0
  191.0600  173.7730  146.0420 C   0  0  0  0  0  2  0  0  0  0  0  0
  189.7270  177.6820  145.0070 C   0  0  0  0  0  2  0  0  0  0  0  0
  186.8620  176.0380  143.1270 C   0  0  0  0  0  3  0  0  0  0  0  0
  190.1900  177.0120  142.1910 O   0  0  0  0  0  0  0  0  0  0  0  0
  187.4370  176.6760  144.4030 C   0  0  0  0  0  3  0  0  0  0  0  0
  188.7680  177.1360  144.0570 N   0  0  0  0  0  0  0  0  0  0  0  0
  189.0840  176.7550  142.7380 C   0  0  0  0  0  0  0  0  0  0  0  0
  187.9740  176.0430  142.0710 C   0  0  1  0  0  3  0  0  0  0  0  0
  188.2950  172.7900  139.7610 C   0  0  0  0  0  2  0  0  0  0  0  0
  190.8040  170.3220  140.3670 C   0  0  0  0  0  0  0  0  0  0  0  0
  188.2130  174.2190  140.2180 C   0  0  0  0  0  0  0  0  0  0  0  0
  189.7080  172.3330  139.3630 C   0  0  2  0  0  3  0  0  0  0  0  0
  190.5860  169.6220  139.1830 O   0  0  0  0  0  0  0  0  0  0  0  0
  188.8240  173.8700  142.6320 C   0  0  0  0  0  3  0  0  0  0  0  0
  187.9890  175.0900  139.3320 O   0  0  0  0  0  0  0  0  0  0  0  0
  190.6050  172.4110  141.7330 C   0  0  0  0  0  2  0  0  0  0  0  0
  188.3570  174.6500  141.6440 C   0  0  0  0  0  0  0  0  0  0  0  0
  189.3030  172.4610  142.5130 C   0  0  0  0  0  2  0  0  0  0  0  0
  191.3690  169.7390  141.3300 O   0  0  0  0  0  1  0  0  0  0  0  0
  190.3960  171.6910  140.4840 N   0  0  0  0  0  0  0  0  0  0  0  0
  190.5660  173.4220  138.7180 C   0  0  0  0  0  2  0  0  0  0  0  0
  190.8280  173.1320  137.2480 C   0  0  0  0  0  2  0  0  0  0  0  0
  189.7300  173.7340  136.3880 C   0  0  0  0  0  1  0  0  0  0  0  0
  193.2450  174.9530  146.1160 C   0  0  0  0  0  2  0  0  0  0  0  0
  194.1200  172.0730  141.5520 O   0  0  0  0  0  0  0  0  0  0  0  0
  194.5970  172.4870  143.8140 N   0  0  0  0  0  0  0  0  0  0  0  0
  194.6110  171.8890  145.1480 C   0  0  0  0  0  2  0  0  0  0  0  0
  194.8270  174.9080  145.2070 P   0  0  1  0  0  4  0  0  0  0  0  0
  196.0740  174.1710  146.3260 C   0  0  0  0  0  2  0  0  0  0  0  0
  196.8260  173.0280  145.6550 C   0  0  0  0  0  2  0  0  0  0  0  0
  196.0370  171.7210  145.6640 C   0  0  0  0  0  2  0  0  0  0  0  0
  194.3720  171.6070  142.6960 C   0  0  0  0  0  0  0  0  0  0  0  0
  194.6130  173.9540  143.6320 C   0  0  1  0  0  3  0  0  0  0  0  0
  194.4220  170.2280  142.8690 O   0  0  0  0  0  1  0  0  0  0  0  0
  195.3160  176.6250  144.8550 C   0  0  0  0  0  2  0  0  0  0  0  0
  194.5720  177.5800  145.7670 C   0  0  0  0  0  1  0  0  0  0  0  0
  195.5750  174.3930  142.5120 C   0  0  1  0  0  3  0  0  0  0  0  0
  195.2550  175.6780  142.0670 O   0  0  0  0  0  0  0  0  0  0  0  0
  194.1010  175.5110  141.2980 C   0  0  0  0  0  1  0  0  0  0  0  0
  196.9650  174.3430  142.9350 N   0  0  0  0  0  2  0  0  0  0  0  0
  197.6150  173.3250  142.1290 C   0  0  0  0  0  2  0  0  0  0  0  0
  197.6060  172.2590  139.8970 C   0  0  0  0  0  1  0  0  0  0  0  0
  197.2010  173.4890  140.6810 C   0  0  0  0  0  2  0  0  0  0  0  0
  1  6  1  0  0  0  0
  1  5  1  0  0  0  0
  2  7  1  6  0  0  0
  2  5  1  0  0  0  0
  3  6  1  0  0  0  0
  3 29  1  1  0  0  0
  4  3  1  0  0  0  0
  4  2  1  0  0  0  0
  8 10  2  0  0  0  0
  9 12  2  0  0  0  0
 11 10  1  0  0  0  0
 11  7  1  0  0  0  0
 12 11  1  0  0  0  0
 13 22  1  1  0  0  0
 13 12  1  0  0  0  0
 13  8  1  0  0  0  0
 14 16  1  0  0  0  0
 15 25  1  0  0  0  0
 15 24  1  0  0  0  0
 16 22  1  0  0  0  0
 17 26  1  1  0  0  0
 17 14  1  0  0  0  0
 17 25  1  0  0  0  0
 18 15  2  0  0  0  0
 20 16  2  0  0  0  0
 21 23  1  0  0  0  0
 22 19  2  0  0  0  0
 23 19  1  0  0  0  0
 25 21  1  0  0  0  0
 27 26  1  0  0  0  0
 28 27  1  0  0  0  0
 30 37  2  0  0  0  0
 31 32  1  0  0  0  0
 32 36  1  0  0  0  0
 33 40  1  6  0  0  0
 33 29  1  0  0  0  0
 33 34  1  0  0  0  0
 35 36  1  0  0  0  0
 35 34  1  0  0  0  0
 37 39  1  0  0  0  0
 37 31  1  0  0  0  0
 38 42  1  6  0  0  0
 38 31  1  0  0  0  0
 38 33  1  0  0  0  0
 40 41  1  0  0  0  0
 42 43  1  1  0  0  0
 42 45  1  0  0  0  0
 44 43  1  0  0  0  0
 46 45  1  0  0  0  0
 47 48  1  0  0  0  0
 48 46  1  0  0  0  0
M  END
>  <MODEL>
9

>  <REMARK>
 VINA RESULT:      -5.7      2.720      6.235
  Name = 
  13 active torsions:
  status: ('A' for Active; 'I' for Inactive)
    1  A    between atoms: C_1  and  C_17
    2  A    between atoms: C_1  and  N_30
    3  A    between atoms: C_4  and  N_22
    4  A    between atoms: C_4  and  C_24
    5  A    between atoms: O_5  and  C_18
    6  A    between atoms: C_6  and  C_11
    7  A    between atoms: C_11  and  C_15
    8  A    between atoms: C_18  and  N_22
    9  A    between atoms: C_18  and  C_39
   10  A    between atoms: C_21  and  P_23
   11  A    between atoms: C_21  and  C_32
   12  A    between atoms: P_23  and  C_44
   13  A    between atoms: C_33  and  C_37
                            x       y       z     vdW  Elec       q    Type
                         _______ _______ _______ _____ _____    ______ ____

>  <TORSDO>
F 13

$$$$
