=
 OpenBabel11062419523D

 30 33  0  0  1  0  0  0  0  0999 V2000
  189.6980  175.5280  146.2270 C   0  0  2  0  0  3  0  0  0  0  0  0
  188.2410  176.0250  145.9470 C   0  0  2  0  0  0  0  0  0  0  0  0
  187.5690  177.1530  146.7500 C   0  0  1  0  0  3  0  0  0  0  0  0
  188.6220  175.1760  147.1680 C   0  0  0  0  0  2  0  0  0  0  0  0
  188.4710  177.5210  145.6440 C   0  0  0  0  0  2  0  0  0  0  0  0
  186.1190  177.3010  146.3040 C   0  0  2  0  0  3  0  0  0  0  0  0
  185.8310  176.4060  145.2700 O   0  0  0  0  0  1  0  0  0  0  0  0
  185.8280  178.6740  145.8910 N   0  0  0  0  0  2  0  0  0  0  0  0
  184.7520  178.6560  144.9870 N   0  0  0  0  0  2  0  0  0  0  0  0
  185.0240  179.6290  144.0160 N   0  0  0  0  0  2  0  0  0  0  0  0
  186.1980  179.2310  143.3640 N   0  0  0  0  0  2  0  0  0  0  0  0
  184.7110  178.1820  141.4490 S   0  0  0  0  0  0  0  0  0  0  0  0
  186.1580  178.4640  142.1610 C   0  0  0  0  0  0  0  0  0  0  0  0
  188.5400  178.3020  142.3180 O   0  0  0  0  0  1  0  0  0  0  0  0
  187.4330  177.9930  141.5220 C   0  0  1  0  0  3  0  0  0  0  0  0
  187.3930  176.5280  141.2160 C   0  0  0  0  0  0  0  0  0  0  0  0
  187.3600  175.5440  142.3330 C   0  0  0  0  0  1  0  0  0  0  0  0
  187.3880  176.1330  140.0610 O   0  0  0  0  0  0  0  0  0  0  0  0
  190.6600  176.4570  146.9720 C   0  0  0  0  0  2  0  0  0  0  0  0
  192.7470  176.9840  145.1240 O   0  0  0  0  0  0  0  0  0  0  0  0
  194.2830  175.5810  146.1830 N   0  0  0  0  0  2  0  0  0  0  0  0
  191.9830  175.8560  147.0190 N   0  0  0  0  0  2  0  0  0  0  0  0
  192.9940  176.1790  146.0640 C   0  0  0  0  0  0  0  0  0  0  0  0
  195.3550  175.8570  145.2350 C   0  0  0  0  0  2  0  0  0  0  0  0
  195.8290  174.5760  144.5550 C   0  0  2  0  0  3  0  0  0  0  0  0
  197.0570  173.3650  146.4100 C   0  0  0  0  0  2  0  0  0  0  0  0
  197.0780  172.6330  145.0860 C   0  0  2  0  0  3  0  0  0  0  0  0
  197.7230  173.4990  144.0210 C   0  0  0  0  0  2  0  0  0  0  0  0
  195.8430  173.3810  145.4950 C   0  0  2  0  0  3  0  0  0  0  0  0
  197.0860  174.7500  143.9570 O   0  0  0  0  0  0  0  0  0  0  0  0
  1 19  1  1  0  0  0
  1  4  1  0  0  0  0
  2  5  1  6  0  0  0
  2  1  1  0  0  0  0
  2  3  1  0  0  0  0
  2  4  1  0  0  0  0
  3  6  1  6  0  0  0
  5  3  1  0  0  0  0
  6  7  1  6  0  0  0
  8  6  1  0  0  0  0
  9  8  1  0  0  0  0
 10  9  1  0  0  0  0
 11 10  1  0  0  0  0
 12 13  2  0  0  0  0
 13 11  1  0  0  0  0
 15 13  1  0  0  0  0
 15 14  1  1  0  0  0
 16 15  1  0  0  0  0
 16 17  1  0  0  0  0
 18 16  2  0  0  0  0
 19 22  1  0  0  0  0
 20 23  2  0  0  0  0
 23 21  1  0  0  0  0
 23 22  1  0  0  0  0
 24 21  1  0  0  0  0
 25 24  1  1  0  0  0
 25 29  1  0  0  0  0
 27 28  1  6  0  0  0
 27 29  1  0  0  0  0
 27 26  1  0  0  0  0
 29 26  1  1  0  0  0
 30 28  1  0  0  0  0
 30 25  1  0  0  0  0
M  END
>  <MODEL>
1

>  <REMARK>
 VINA RESULT:      -6.3      0.000      0.000
  Name = 
  12 active torsions:
  status: ('A' for Active; 'I' for Inactive)
    1  A    between atoms: C_1  and  C_24
    2  A    between atoms: C_2  and  C_20
    3  A    between atoms: N_4  and  N_10
    4  A    between atoms: N_4  and  N_16
    5  A    between atoms: C_5  and  C_15
    6  A    between atoms: C_5  and  N_16
    7  A    between atoms: C_8  and  C_13
    8  A    between atoms: N_10  and  N_29
    9  A    between atoms: N_12  and  C_20
   10  A    between atoms: C_13  and  N_27
   11  A    between atoms: C_19  and  C_24
   12  A    between atoms: C_19  and  N_29
                            x       y       z     vdW  Elec       q    Type
                         _______ _______ _______ _____ _____    ______ ____

>  <TORSDO>
F 12

$$$$
=
 OpenBabel11062419523D

 30 33  0  0  1  0  0  0  0  0999 V2000
  185.9420  178.8360  143.0040 C   0  0  2  0  0  3  0  0  0  0  0  0
  186.4950  178.2710  144.3550 C   0  0  2  0  0  0  0  0  0  0  0  0
  185.8690  177.0690  145.0820 C   0  0  1  0  0  3  0  0  0  0  0  0
  185.1950  179.0800  144.2490 C   0  0  0  0  0  2  0  0  0  0  0  0
  186.8100  176.8070  143.9790 C   0  0  0  0  0  2  0  0  0  0  0  0
  186.5710  176.8600  146.4190 C   0  0  2  0  0  3  0  0  0  0  0  0
  185.7750  177.3290  147.4680 O   0  0  0  0  0  1  0  0  0  0  0  0
  187.8810  177.5090  146.4390 N   0  0  0  0  0  2  0  0  0  0  0  0
  188.7580  176.7360  147.2190 N   0  0  0  0  0  2  0  0  0  0  0  0
  188.7220  175.4360  146.7000 N   0  0  0  0  0  2  0  0  0  0  0  0
  189.9680  174.8570  146.9720 N   0  0  0  0  0  2  0  0  0  0  0  0
  191.2740  173.8120  144.9270 S   0  0  0  0  0  0  0  0  0  0  0  0
  191.0590  174.9760  146.0590 C   0  0  0  0  0  0  0  0  0  0  0  0
  193.2330  175.8620  146.5150 O   0  0  0  0  0  1  0  0  0  0  0  0
  191.9430  176.1890  146.0900 C   0  0  1  0  0  3  0  0  0  0  0  0
  191.9820  176.8820  144.7630 C   0  0  0  0  0  0  0  0  0  0  0  0
  190.7780  177.6140  144.2800 C   0  0  0  0  0  1  0  0  0  0  0  0
  192.9900  176.8520  144.0750 O   0  0  0  0  0  0  0  0  0  0  0  0
  185.0740  177.9280  142.1290 C   0  0  0  0  0  2  0  0  0  0  0  0
  183.0360  178.0760  140.1620 O   0  0  0  0  0  0  0  0  0  0  0  0
  181.3230  178.4420  141.7050 N   0  0  0  0  0  2  0  0  0  0  0  0
  183.6690  178.1790  142.4060 N   0  0  0  0  0  2  0  0  0  0  0  0
  182.6910  178.2250  141.3670 C   0  0  0  0  0  0  0  0  0  0  0  0
  180.2770  178.5130  140.6940 C   0  0  0  0  0  2  0  0  0  0  0  0
  179.4700  179.8010  140.8280 C   0  0  2  0  0  3  0  0  0  0  0  0
  178.0910  179.8360  138.7050 C   0  0  0  0  0  2  0  0  0  0  0  0
  177.8720  181.0420  139.5940 C   0  0  2  0  0  3  0  0  0  0  0  0
  179.1810  181.7770  139.8070 C   0  0  0  0  0  2  0  0  0  0  0  0
  178.0820  179.6930  140.2190 C   0  0  2  0  0  3  0  0  0  0  0  0
  180.1630  180.8970  140.2910 O   0  0  0  0  0  0  0  0  0  0  0  0
  1 19  1  6  0  0  0
  1  4  1  0  0  0  0
  1  2  1  0  0  0  0
  2  5  1  1  0  0  0
  2  3  1  0  0  0  0
  3  6  1  1  0  0  0
  4  2  1  0  0  0  0
  5  3  1  0  0  0  0
  6  8  1  0  0  0  0
  6  7  1  1  0  0  0
  8  9  1  0  0  0  0
 10 11  1  0  0  0  0
 10  9  1  0  0  0  0
 12 13  2  0  0  0  0
 13 15  1  0  0  0  0
 13 11  1  0  0  0  0
 15 14  1  6  0  0  0
 16 15  1  0  0  0  0
 17 16  1  0  0  0  0
 18 16  2  0  0  0  0
 19 22  1  0  0  0  0
 20 23  2  0  0  0  0
 23 21  1  0  0  0  0
 23 22  1  0  0  0  0
 24 21  1  0  0  0  0
 25 24  1  6  0  0  0
 27 26  1  6  0  0  0
 27 28  1  0  0  0  0
 27 29  1  0  0  0  0
 28 30  1  0  0  0  0
 29 26  1  6  0  0  0
 29 25  1  0  0  0  0
 30 25  1  0  0  0  0
M  END
>  <MODEL>
2

>  <REMARK>
 VINA RESULT:      -6.2      4.725     11.223
  Name = 
  12 active torsions:
  status: ('A' for Active; 'I' for Inactive)
    1  A    between atoms: C_1  and  C_24
    2  A    between atoms: C_2  and  C_20
    3  A    between atoms: N_4  and  N_10
    4  A    between atoms: N_4  and  N_16
    5  A    between atoms: C_5  and  C_15
    6  A    between atoms: C_5  and  N_16
    7  A    between atoms: C_8  and  C_13
    8  A    between atoms: N_10  and  N_29
    9  A    between atoms: N_12  and  C_20
   10  A    between atoms: C_13  and  N_27
   11  A    between atoms: C_19  and  C_24
   12  A    between atoms: C_19  and  N_29
                            x       y       z     vdW  Elec       q    Type
                         _______ _______ _______ _____ _____    ______ ____

>  <TORSDO>
F 12

$$$$
=
 OpenBabel11062419523D

 30 33  0  0  1  0  0  0  0  0999 V2000
  187.4000  177.8690  142.4130 C   0  0  2  0  0  3  0  0  0  0  0  0
  186.6680  178.0160  143.7880 C   0  0  2  0  0  0  0  0  0  0  0  0
  185.2310  177.5220  144.0320 C   0  0  1  0  0  3  0  0  0  0  0  0
  186.3290  178.8670  142.5570 C   0  0  0  0  0  2  0  0  0  0  0  0
  186.3330  176.5470  144.1250 C   0  0  0  0  0  2  0  0  0  0  0  0
  184.7830  177.9290  145.4300 C   0  0  2  0  0  3  0  0  0  0  0  0
  183.8240  178.9430  145.3610 O   0  0  0  0  0  1  0  0  0  0  0  0
  185.9180  178.3510  146.2500 N   0  0  0  0  0  2  0  0  0  0  0  0
  185.8290  177.7220  147.5040 N   0  0  0  0  0  2  0  0  0  0  0  0
  186.7690  176.6830  147.5030 N   0  0  0  0  0  2  0  0  0  0  0  0
  187.9730  177.2290  147.0400 N   0  0  0  0  0  2  0  0  0  0  0  0
  189.0660  174.8330  147.2560 S   0  0  0  0  0  0  0  0  0  0  0  0
  189.1450  176.4280  146.8910 C   0  0  0  0  0  0  0  0  0  0  0  0
  191.5160  176.2360  146.6380 O   0  0  0  0  0  1  0  0  0  0  0  0
  190.4040  177.0260  146.3330 C   0  0  1  0  0  3  0  0  0  0  0  0
  190.3040  177.2510  144.8550 C   0  0  0  0  0  0  0  0  0  0  0  0
  190.1440  176.0860  143.9430 C   0  0  0  0  0  1  0  0  0  0  0  0
  190.3540  178.3810  144.3930 O   0  0  0  0  0  0  0  0  0  0  0  0
  186.9010  176.8130  141.4240 C   0  0  0  0  0  2  0  0  0  0  0  0
  187.2600  174.0510  141.9660 O   0  0  0  0  0  0  0  0  0  0  0  0
  189.2350  173.8820  140.7350 N   0  0  0  0  0  2  0  0  0  0  0  0
  188.0200  176.0120  140.9540 N   0  0  0  0  0  2  0  0  0  0  0  0
  188.1300  174.6210  141.2520 C   0  0  0  0  0  0  0  0  0  0  0  0
  189.4150  172.4630  141.0110 C   0  0  0  0  0  2  0  0  0  0  0  0
  190.7540  172.2020  141.6950 C   0  0  2  0  0  3  0  0  0  0  0  0
  190.1850  172.3830  144.1560 C   0  0  0  0  0  2  0  0  0  0  0  0
  191.6490  172.1090  143.8870 C   0  0  2  0  0  3  0  0  0  0  0  0
  192.2400  173.2160  143.0350 C   0  0  0  0  0  2  0  0  0  0  0  0
  190.6080  171.4680  143.0170 C   0  0  2  0  0  3  0  0  0  0  0  0
  191.4800  173.3910  141.8660 O   0  0  0  0  0  0  0  0  0  0  0  0
  1 19  1  6  0  0  0
  1  4  1  0  0  0  0
  1  2  1  0  0  0  0
  2  4  1  1  0  0  0
  2  3  1  0  0  0  0
  2  5  1  0  0  0  0
  3  5  1  0  0  0  0
  3  6  1  1  0  0  0
  6  7  1  6  0  0  0
  6  8  1  0  0  0  0
  8  9  1  0  0  0  0
 10  9  1  0  0  0  0
 11 10  1  0  0  0  0
 13 11  1  0  0  0  0
 13 12  2  0  0  0  0
 15 14  1  6  0  0  0
 15 13  1  0  0  0  0
 16 15  1  0  0  0  0
 17 16  1  0  0  0  0
 18 16  2  0  0  0  0
 21 24  1  0  0  0  0
 21 23  1  0  0  0  0
 22 23  1  0  0  0  0
 22 19  1  0  0  0  0
 23 20  2  0  0  0  0
 25 24  1  1  0  0  0
 25 30  1  0  0  0  0
 25 29  1  0  0  0  0
 27 28  1  6  0  0  0
 27 26  1  0  0  0  0
 29 27  1  0  0  0  0
 29 26  1  1  0  0  0
 30 28  1  0  0  0  0
M  END
>  <MODEL>
3

>  <REMARK>
 VINA RESULT:      -6.1      3.612      5.602
  Name = 
  12 active torsions:
  status: ('A' for Active; 'I' for Inactive)
    1  A    between atoms: C_1  and  C_24
    2  A    between atoms: C_2  and  C_20
    3  A    between atoms: N_4  and  N_10
    4  A    between atoms: N_4  and  N_16
    5  A    between atoms: C_5  and  C_15
    6  A    between atoms: C_5  and  N_16
    7  A    between atoms: C_8  and  C_13
    8  A    between atoms: N_10  and  N_29
    9  A    between atoms: N_12  and  C_20
   10  A    between atoms: C_13  and  N_27
   11  A    between atoms: C_19  and  C_24
   12  A    between atoms: C_19  and  N_29
                            x       y       z     vdW  Elec       q    Type
                         _______ _______ _______ _____ _____    ______ ____

>  <TORSDO>
F 12

$$$$
=
 OpenBabel11062419523D

 30 33  0  0  1  0  0  0  0  0999 V2000
  192.3150  175.2490  147.0940 C   0  0  2  0  0  3  0  0  0  0  0  0
  193.5780  175.1690  146.1730 C   0  0  2  0  0  0  0  0  0  0  0  0
  193.8350  176.1460  145.0120 C   0  0  1  0  0  3  0  0  0  0  0  0
  192.1720  174.7560  145.7150 C   0  0  0  0  0  2  0  0  0  0  0  0
  194.2060  176.5640  146.3760 C   0  0  0  0  0  2  0  0  0  0  0  0
  195.0820  175.7130  144.2490 C   0  0  2  0  0  3  0  0  0  0  0  0
  195.9450  176.7960  144.0680 O   0  0  0  0  0  1  0  0  0  0  0  0
  194.7350  175.1120  142.9620 N   0  0  0  0  0  2  0  0  0  0  0  0
  193.8620  175.9770  142.2790 N   0  0  0  0  0  2  0  0  0  0  0  0
  193.0660  175.1760  141.4500 N   0  0  0  0  0  2  0  0  0  0  0  0
  191.8120  175.0770  142.0680 N   0  0  0  0  0  2  0  0  0  0  0  0
  192.0160  172.4480  142.2280 S   0  0  0  0  0  0  0  0  0  0  0  0
  191.1330  173.8270  142.1790 C   0  0  0  0  0  0  0  0  0  0  0  0
  189.2490  174.2270  143.5970 O   0  0  0  0  0  1  0  0  0  0  0  0
  189.6400  173.7880  142.3290 C   0  0  1  0  0  3  0  0  0  0  0  0
  188.9530  174.5820  141.2600 C   0  0  0  0  0  0  0  0  0  0  0  0
  188.8200  174.0090  139.8920 C   0  0  0  0  0  1  0  0  0  0  0  0
  188.5040  175.6920  141.4990 O   0  0  0  0  0  0  0  0  0  0  0  0
  191.5520  176.5730  147.1790 C   0  0  0  0  0  2  0  0  0  0  0  0
  190.0980  177.9200  145.1480 O   0  0  0  0  0  0  0  0  0  0  0  0
  188.1110  176.7650  145.5530 N   0  0  0  0  0  2  0  0  0  0  0  0
  190.1470  176.3500  146.8740 N   0  0  0  0  0  2  0  0  0  0  0  0
  189.4810  177.0530  145.8250 C   0  0  0  0  0  0  0  0  0  0  0  0
  187.3680  177.4550  144.5070 C   0  0  0  0  0  2  0  0  0  0  0  0
  186.3690  178.4420  145.1040 C   0  0  2  0  0  3  0  0  0  0  0  0
  184.8770  176.9630  146.5170 C   0  0  0  0  0  2  0  0  0  0  0  0
  184.4740  178.4220  146.5260 C   0  0  2  0  0  3  0  0  0  0  0  0
  184.1710  178.8870  145.1140 C   0  0  0  0  0  2  0  0  0  0  0  0
  185.9300  178.0600  146.5080 C   0  0  2  0  0  3  0  0  0  0  0  0
  185.2570  178.6130  144.2660 O   0  0  0  0  0  0  0  0  0  0  0  0
  1 19  1  6  0  0  0
  2  4  1  1  0  0  0
  2  5  1  0  0  0  0
  2  1  1  0  0  0  0
  3  6  1  6  0  0  0
  3  2  1  0  0  0  0
  3  5  1  0  0  0  0
  4  1  1  0  0  0  0
  6  7  1  6  0  0  0
  8  6  1  0  0  0  0
  9  8  1  0  0  0  0
 10 11  1  0  0  0  0
 10  9  1  0  0  0  0
 11 13  1  0  0  0  0
 13 12  2  0  0  0  0
 13 15  1  0  0  0  0
 15 14  1  1  0  0  0
 16 18  2  0  0  0  0
 16 15  1  0  0  0  0
 17 16  1  0  0  0  0
 20 23  2  0  0  0  0
 21 23  1  0  0  0  0
 22 19  1  0  0  0  0
 23 22  1  0  0  0  0
 24 21  1  0  0  0  0
 25 24  1  6  0  0  0
 25 29  1  0  0  0  0
 26 27  1  0  0  0  0
 27 28  1  6  0  0  0
 29 26  1  6  0  0  0
 29 27  1  0  0  0  0
 30 25  1  0  0  0  0
 30 28  1  0  0  0  0
M  END
>  <MODEL>
4

>  <REMARK>
 VINA RESULT:      -6.0      3.101      8.038
  Name = 
  12 active torsions:
  status: ('A' for Active; 'I' for Inactive)
    1  A    between atoms: C_1  and  C_24
    2  A    between atoms: C_2  and  C_20
    3  A    between atoms: N_4  and  N_10
    4  A    between atoms: N_4  and  N_16
    5  A    between atoms: C_5  and  C_15
    6  A    between atoms: C_5  and  N_16
    7  A    between atoms: C_8  and  C_13
    8  A    between atoms: N_10  and  N_29
    9  A    between atoms: N_12  and  C_20
   10  A    between atoms: C_13  and  N_27
   11  A    between atoms: C_19  and  C_24
   12  A    between atoms: C_19  and  N_29
                            x       y       z     vdW  Elec       q    Type
                         _______ _______ _______ _____ _____    ______ ____

>  <TORSDO>
F 12

$$$$
=
 OpenBabel11062419523D

 30 33  0  0  1  0  0  0  0  0999 V2000
  192.7770  175.2070  146.8300 C   0  0  2  0  0  3  0  0  0  0  0  0
  193.8960  175.2830  145.7390 C   0  0  2  0  0  0  0  0  0  0  0  0
  193.7900  176.1720  144.4880 C   0  0  1  0  0  3  0  0  0  0  0  0
  192.5580  174.5610  145.5260 C   0  0  0  0  0  2  0  0  0  0  0  0
  194.2440  176.7870  145.7480 C   0  0  0  0  0  2  0  0  0  0  0  0
  194.9870  175.9160  143.5790 C   0  0  2  0  0  3  0  0  0  0  0  0
  196.0350  176.7850  143.8950 O   0  0  0  0  0  1  0  0  0  0  0  0
  194.6210  176.0440  142.1690 N   0  0  0  0  0  2  0  0  0  0  0  0
  193.2240  175.9380  142.0520 N   0  0  0  0  0  2  0  0  0  0  0  0
  192.9710  174.8630  141.1910 N   0  0  0  0  0  2  0  0  0  0  0  0
  191.9720  174.0880  141.7960 N   0  0  0  0  0  2  0  0  0  0  0  0
  190.6760  172.5760  140.0600 S   0  0  0  0  0  0  0  0  0  0  0  0
  190.7390  173.8130  141.1320 C   0  0  0  0  0  0  0  0  0  0  0  0
  188.3500  173.8440  141.2430 O   0  0  0  0  0  1  0  0  0  0  0  0
  189.5050  174.5960  141.4740 C   0  0  1  0  0  3  0  0  0  0  0  0
  189.5380  175.0950  142.8870 C   0  0  0  0  0  0  0  0  0  0  0  0
  189.8650  176.5230  143.1540 C   0  0  0  0  0  1  0  0  0  0  0  0
  189.3000  174.3420  143.8190 O   0  0  0  0  0  0  0  0  0  0  0  0
  191.7740  176.3590  146.9350 C   0  0  0  0  0  2  0  0  0  0  0  0
  189.3870  177.8440  147.3110 O   0  0  0  0  0  0  0  0  0  0  0  0
  187.9970  176.1620  146.4840 N   0  0  0  0  0  2  0  0  0  0  0  0
  190.4370  175.8740  146.6320 N   0  0  0  0  0  2  0  0  0  0  0  0
  189.2780  176.6830  146.8310 C   0  0  0  0  0  0  0  0  0  0  0  0
  186.7720  176.9290  146.6740 C   0  0  0  0  0  2  0  0  0  0  0  0
  186.4440  177.7550  145.4340 C   0  0  2  0  0  3  0  0  0  0  0  0
  184.1530  178.6950  145.9640 C   0  0  0  0  0  2  0  0  0  0  0  0
  184.6740  179.0920  144.5990 C   0  0  2  0  0  3  0  0  0  0  0  0
  184.9480  177.8540  143.7660 C   0  0  0  0  0  2  0  0  0  0  0  0
  185.6280  178.9980  145.7530 C   0  0  2  0  0  3  0  0  0  0  0  0
  185.8020  176.9790  144.4570 O   0  0  0  0  0  0  0  0  0  0  0  0
  1 19  1  6  0  0  0
  2  4  1  1  0  0  0
  2  5  1  0  0  0  0
  2  1  1  0  0  0  0
  3  6  1  6  0  0  0
  3  2  1  0  0  0  0
  3  5  1  0  0  0  0
  4  1  1  0  0  0  0
  6  7  1  1  0  0  0
  8  6  1  0  0  0  0
  9  8  1  0  0  0  0
 10 11  1  0  0  0  0
 10  9  1  0  0  0  0
 12 13  2  0  0  0  0
 13 15  1  0  0  0  0
 13 11  1  0  0  0  0
 15 14  1  1  0  0  0
 15 16  1  0  0  0  0
 16 17  1  0  0  0  0
 16 18  2  0  0  0  0
 21 24  1  0  0  0  0
 21 23  1  0  0  0  0
 22 23  1  0  0  0  0
 22 19  1  0  0  0  0
 23 20  2  0  0  0  0
 25 29  1  0  0  0  0
 25 24  1  1  0  0  0
 27 28  1  6  0  0  0
 27 29  1  0  0  0  0
 27 26  1  0  0  0  0
 28 30  1  0  0  0  0
 29 26  1  1  0  0  0
 30 25  1  0  0  0  0
M  END
>  <MODEL>
5

>  <REMARK>
 VINA RESULT:      -6.0      3.200      8.076
  Name = 
  12 active torsions:
  status: ('A' for Active; 'I' for Inactive)
    1  A    between atoms: C_1  and  C_24
    2  A    between atoms: C_2  and  C_20
    3  A    between atoms: N_4  and  N_10
    4  A    between atoms: N_4  and  N_16
    5  A    between atoms: C_5  and  C_15
    6  A    between atoms: C_5  and  N_16
    7  A    between atoms: C_8  and  C_13
    8  A    between atoms: N_10  and  N_29
    9  A    between atoms: N_12  and  C_20
   10  A    between atoms: C_13  and  N_27
   11  A    between atoms: C_19  and  C_24
   12  A    between atoms: C_19  and  N_29
                            x       y       z     vdW  Elec       q    Type
                         _______ _______ _______ _____ _____    ______ ____

>  <TORSDO>
F 12

$$$$
=
 OpenBabel11062419523D

 30 33  0  0  1  0  0  0  0  0999 V2000
  184.8970  178.3810  145.4810 C   0  0  2  0  0  3  0  0  0  0  0  0
  185.1910  178.4640  143.9470 C   0  0  2  0  0  0  0  0  0  0  0  0
  186.4880  177.9350  143.3100 C   0  0  1  0  0  3  0  0  0  0  0  0
  185.8850  179.3540  144.9880 C   0  0  0  0  0  2  0  0  0  0  0  0
  185.4010  176.9780  143.5850 C   0  0  0  0  0  2  0  0  0  0  0  0
  186.5060  178.2830  141.8260 C   0  0  2  0  0  3  0  0  0  0  0  0
  185.2400  178.0980  141.2650 O   0  0  0  0  0  1  0  0  0  0  0  0
  187.5060  177.4950  141.1070 N   0  0  0  0  0  2  0  0  0  0  0  0
  188.3660  176.8920  142.0420 N   0  0  0  0  0  2  0  0  0  0  0  0
  188.6250  175.5960  141.5770 N   0  0  0  0  0  2  0  0  0  0  0  0
  189.9010  175.2490  142.0390 N   0  0  0  0  0  2  0  0  0  0  0  0
  192.1810  173.9710  141.6520 S   0  0  0  0  0  0  0  0  0  0  0  0
  190.5450  174.0480  141.6150 C   0  0  0  0  0  0  0  0  0  0  0  0
  190.1280  172.3610  139.9710 O   0  0  0  0  0  1  0  0  0  0  0  0
  189.7290  172.8520  141.2170 C   0  0  1  0  0  3  0  0  0  0  0  0
  189.7840  171.7730  142.2540 C   0  0  0  0  0  0  0  0  0  0  0  0
  190.5790  170.5410  141.9910 C   0  0  0  0  0  1  0  0  0  0  0  0
  189.1840  171.8930  143.3110 O   0  0  0  0  0  0  0  0  0  0  0  0
  185.6590  177.3530  146.3210 C   0  0  0  0  0  2  0  0  0  0  0  0
  187.9070  175.7190  146.8920 O   0  0  0  0  0  0  0  0  0  0  0  0
  189.3810  177.5150  147.1150 N   0  0  0  0  0  2  0  0  0  0  0  0
  186.9950  177.8490  146.6090 N   0  0  0  0  0  2  0  0  0  0  0  0
  188.0870  176.9680  146.8720 C   0  0  0  0  0  0  0  0  0  0  0  0
  190.5350  176.6740  147.4040 C   0  0  0  0  0  2  0  0  0  0  0  0
  191.1710  176.1540  146.1190 C   0  0  2  0  0  3  0  0  0  0  0  0
  193.6490  176.4760  146.5350 C   0  0  0  0  0  2  0  0  0  0  0  0
  193.3290  175.9050  145.1700 C   0  0  2  0  0  3  0  0  0  0  0  0
  192.4330  176.8590  144.4030 C   0  0  0  0  0  2  0  0  0  0  0  0
  192.5130  175.4800  146.3550 C   0  0  2  0  0  3  0  0  0  0  0  0
  191.2910  177.1710  145.1600 O   0  0  0  0  0  0  0  0  0  0  0  0
  1 19  1  1  0  0  0
  2  5  1  6  0  0  0
  2  4  1  0  0  0  0
  2  1  1  0  0  0  0
  3  6  1  6  0  0  0
  3  5  1  0  0  0  0
  3  2  1  0  0  0  0
  4  1  1  0  0  0  0
  6  7  1  6  0  0  0
  8  6  1  0  0  0  0
  8  9  1  0  0  0  0
 10 11  1  0  0  0  0
 10  9  1  0  0  0  0
 13 12  2  0  0  0  0
 13 11  1  0  0  0  0
 15 14  1  6  0  0  0
 15 13  1  0  0  0  0
 15 16  1  0  0  0  0
 16 18  2  0  0  0  0
 17 16  1  0  0  0  0
 19 22  1  0  0  0  0
 21 24  1  0  0  0  0
 22 23  1  0  0  0  0
 23 20  2  0  0  0  0
 23 21  1  0  0  0  0
 25 29  1  0  0  0  0
 25 24  1  1  0  0  0
 27 28  1  6  0  0  0
 27 29  1  0  0  0  0
 27 26  1  0  0  0  0
 28 30  1  0  0  0  0
 29 26  1  1  0  0  0
 30 25  1  0  0  0  0
M  END
>  <MODEL>
6

>  <REMARK>
 VINA RESULT:      -5.8      3.381      5.437
  Name = 
  12 active torsions:
  status: ('A' for Active; 'I' for Inactive)
    1  A    between atoms: C_1  and  C_24
    2  A    between atoms: C_2  and  C_20
    3  A    between atoms: N_4  and  N_10
    4  A    between atoms: N_4  and  N_16
    5  A    between atoms: C_5  and  C_15
    6  A    between atoms: C_5  and  N_16
    7  A    between atoms: C_8  and  C_13
    8  A    between atoms: N_10  and  N_29
    9  A    between atoms: N_12  and  C_20
   10  A    between atoms: C_13  and  N_27
   11  A    between atoms: C_19  and  C_24
   12  A    between atoms: C_19  and  N_29
                            x       y       z     vdW  Elec       q    Type
                         _______ _______ _______ _____ _____    ______ ____

>  <TORSDO>
F 12

$$$$
=
 OpenBabel11062419523D

 30 33  0  0  1  0  0  0  0  0999 V2000
  190.2640  176.5870  146.4640 C   0  0  2  0  0  3  0  0  0  0  0  0
  188.8190  177.1610  146.6410 C   0  0  2  0  0  0  0  0  0  0  0  0
  187.6240  176.7080  145.7850 C   0  0  1  0  0  3  0  0  0  0  0  0
  189.7280  177.5180  145.4570 C   0  0  0  0  0  2  0  0  0  0  0  0
  188.0070  175.8840  146.9450 C   0  0  0  0  0  2  0  0  0  0  0  0
  186.4000  177.5490  146.1310 C   0  0  2  0  0  3  0  0  0  0  0  0
  185.2480  176.7590  146.1310 O   0  0  0  0  0  1  0  0  0  0  0  0
  186.2510  178.6750  145.2110 N   0  0  0  0  0  2  0  0  0  0  0  0
  184.9070  178.7550  144.8070 N   0  0  0  0  0  2  0  0  0  0  0  0
  184.9030  179.3330  143.5300 N   0  0  0  0  0  2  0  0  0  0  0  0
  186.1220  178.9940  142.9290 N   0  0  0  0  0  2  0  0  0  0  0  0
  184.8640  178.2880  140.7150 S   0  0  0  0  0  0  0  0  0  0  0  0
  186.1700  178.2630  141.7040 C   0  0  0  0  0  0  0  0  0  0  0  0
  188.5570  178.1850  141.8210 O   0  0  0  0  0  1  0  0  0  0  0  0
  187.4270  177.5520  141.2970 C   0  0  1  0  0  3  0  0  0  0  0  0
  187.4000  176.1060  141.6910 C   0  0  0  0  0  0  0  0  0  0  0  0
  188.1910  175.1160  140.9090 C   0  0  0  0  0  1  0  0  0  0  0  0
  186.7350  175.7330  142.6450 O   0  0  0  0  0  0  0  0  0  0  0  0
  190.4360  175.2310  145.7760 C   0  0  0  0  0  2  0  0  0  0  0  0
  192.6790  173.5820  145.2300 O   0  0  0  0  0  0  0  0  0  0  0  0
  193.2180  174.6670  143.2350 N   0  0  0  0  0  2  0  0  0  0  0  0
  191.3110  175.3740  144.6240 N   0  0  0  0  0  2  0  0  0  0  0  0
  192.4160  174.4970  144.4020 C   0  0  0  0  0  0  0  0  0  0  0  0
  194.3670  173.8170  142.9550 C   0  0  0  0  0  2  0  0  0  0  0  0
  195.5640  174.6450  142.4970 C   0  0  2  0  0  3  0  0  0  0  0  0
  195.7040  176.4650  144.2530 C   0  0  0  0  0  2  0  0  0  0  0  0
  196.7470  176.5880  143.1620 C   0  0  2  0  0  3  0  0  0  0  0  0
  196.0730  176.7180  141.8090 C   0  0  0  0  0  2  0  0  0  0  0  0
  196.3560  175.2270  143.6570 C   0  0  2  0  0  3  0  0  0  0  0  0
  195.1760  175.6570  141.6070 O   0  0  0  0  0  0  0  0  0  0  0  0
  1 19  1  6  0  0  0
  1  2  1  0  0  0  0
  2  4  1  1  0  0  0
  2  5  1  0  0  0  0
  3  6  1  1  0  0  0
  3  2  1  0  0  0  0
  3  5  1  0  0  0  0
  4  1  1  0  0  0  0
  6  7  1  6  0  0  0
  8  6  1  0  0  0  0
  9  8  1  0  0  0  0
 10  9  1  0  0  0  0
 11 10  1  0  0  0  0
 12 13  2  0  0  0  0
 13 11  1  0  0  0  0
 15 16  1  0  0  0  0
 15 13  1  0  0  0  0
 15 14  1  1  0  0  0
 16 18  2  0  0  0  0
 17 16  1  0  0  0  0
 21 23  1  0  0  0  0
 22 19  1  0  0  0  0
 23 22  1  0  0  0  0
 23 20  2  0  0  0  0
 24 21  1  0  0  0  0
 25 24  1  1  0  0  0
 25 29  1  0  0  0  0
 27 28  1  6  0  0  0
 27 29  1  0  0  0  0
 27 26  1  0  0  0  0
 29 26  1  1  0  0  0
 30 28  1  0  0  0  0
 30 25  1  0  0  0  0
M  END
>  <MODEL>
7

>  <REMARK>
 VINA RESULT:      -5.8      1.810      2.283
  Name = 
  12 active torsions:
  status: ('A' for Active; 'I' for Inactive)
    1  A    between atoms: C_1  and  C_24
    2  A    between atoms: C_2  and  C_20
    3  A    between atoms: N_4  and  N_10
    4  A    between atoms: N_4  and  N_16
    5  A    between atoms: C_5  and  C_15
    6  A    between atoms: C_5  and  N_16
    7  A    between atoms: C_8  and  C_13
    8  A    between atoms: N_10  and  N_29
    9  A    between atoms: N_12  and  C_20
   10  A    between atoms: C_13  and  N_27
   11  A    between atoms: C_19  and  C_24
   12  A    between atoms: C_19  and  N_29
                            x       y       z     vdW  Elec       q    Type
                         _______ _______ _______ _____ _____    ______ ____

>  <TORSDO>
F 12

$$$$
=
 OpenBabel11062419523D

 30 33  0  0  1  0  0  0  0  0999 V2000
  190.8600  175.9630  147.6150 C   0  0  2  0  0  3  0  0  0  0  0  0
  192.2080  175.2860  147.2010 C   0  0  2  0  0  0  0  0  0  0  0  0
  192.8390  175.4520  145.8070 C   0  0  1  0  0  3  0  0  0  0  0  0
  190.8390  174.8160  146.6930 C   0  0  0  0  0  2  0  0  0  0  0  0
  193.0670  176.5080  146.8100 C   0  0  0  0  0  2  0  0  0  0  0  0
  194.0750  174.5680  145.6980 C   0  0  2  0  0  3  0  0  0  0  0  0
  195.2090  175.2560  146.1390 O   0  0  0  0  0  1  0  0  0  0  0  0
  194.2660  174.0870  144.3310 N   0  0  0  0  0  2  0  0  0  0  0  0
  193.5110  174.8890  143.4580 N   0  0  0  0  0  2  0  0  0  0  0  0
  193.0870  174.0600  142.4110 N   0  0  0  0  0  2  0  0  0  0  0  0
  192.2250  173.1090  142.9730 N   0  0  0  0  0  2  0  0  0  0  0  0
  189.8920  171.9160  143.3070 S   0  0  0  0  0  0  0  0  0  0  0  0
  190.8630  173.0020  142.5590 C   0  0  0  0  0  0  0  0  0  0  0  0
  189.5440  173.2320  140.5770 O   0  0  0  0  0  1  0  0  0  0  0  0
  190.3170  173.9270  141.5110 C   0  0  1  0  0  3  0  0  0  0  0  0
  189.5320  175.0510  142.1160 C   0  0  0  0  0  0  0  0  0  0  0  0
  188.0520  175.0820  141.9570 C   0  0  0  0  0  1  0  0  0  0  0  0
  190.0940  175.9400  142.7360 O   0  0  0  0  0  0  0  0  0  0  0  0
  190.3770  177.1820  146.8260 C   0  0  0  0  0  2  0  0  0  0  0  0
  188.0750  176.3420  145.3970 O   0  0  0  0  0  0  0  0  0  0  0  0
  186.5710  177.3400  146.8770 N   0  0  0  0  0  2  0  0  0  0  0  0
  189.0070  177.4960  147.1990 N   0  0  0  0  0  2  0  0  0  0  0  0
  187.8920  177.0260  146.4410 C   0  0  0  0  0  0  0  0  0  0  0  0
  185.3900  176.9040  146.1430 C   0  0  0  0  0  2  0  0  0  0  0  0
  184.8210  178.0380  145.2950 C   0  0  2  0  0  3  0  0  0  0  0  0
  186.2040  177.9160  143.1770 C   0  0  0  0  0  2  0  0  0  0  0  0
  185.1900  179.0400  143.1790 C   0  0  2  0  0  3  0  0  0  0  0  0
  185.4470  179.9720  144.3470 C   0  0  0  0  0  2  0  0  0  0  0  0
  184.8340  177.7240  143.8080 C   0  0  2  0  0  3  0  0  0  0  0  0
  185.4820  179.2490  145.5510 O   0  0  0  0  0  0  0  0  0  0  0  0
  1 19  1  6  0  0  0
  2  4  1  1  0  0  0
  2  1  1  0  0  0  0
  3  6  1  1  0  0  0
  3  5  1  0  0  0  0
  3  2  1  0  0  0  0
  4  1  1  0  0  0  0
  5  2  1  0  0  0  0
  6  7  1  6  0  0  0
  8  6  1  0  0  0  0
  9  8  1  0  0  0  0
 10 11  1  0  0  0  0
 10  9  1  0  0  0  0
 13 11  1  0  0  0  0
 13 12  2  0  0  0  0
 15 14  1  6  0  0  0
 15 16  1  0  0  0  0
 15 13  1  0  0  0  0
 16 18  2  0  0  0  0
 17 16  1  0  0  0  0
 19 22  1  0  0  0  0
 20 23  2  0  0  0  0
 23 21  1  0  0  0  0
 23 22  1  0  0  0  0
 24 21  1  0  0  0  0
 25 30  1  0  0  0  0
 25 24  1  1  0  0  0
 27 26  1  6  0  0  0
 27 29  1  0  0  0  0
 27 28  1  0  0  0  0
 28 30  1  0  0  0  0
 29 26  1  1  0  0  0
 29 25  1  0  0  0  0
M  END
>  <MODEL>
8

>  <REMARK>
 VINA RESULT:      -5.8      2.888      8.144
  Name = 
  12 active torsions:
  status: ('A' for Active; 'I' for Inactive)
    1  A    between atoms: C_1  and  C_24
    2  A    between atoms: C_2  and  C_20
    3  A    between atoms: N_4  and  N_10
    4  A    between atoms: N_4  and  N_16
    5  A    between atoms: C_5  and  C_15
    6  A    between atoms: C_5  and  N_16
    7  A    between atoms: C_8  and  C_13
    8  A    between atoms: N_10  and  N_29
    9  A    between atoms: N_12  and  C_20
   10  A    between atoms: C_13  and  N_27
   11  A    between atoms: C_19  and  C_24
   12  A    between atoms: C_19  and  N_29
                            x       y       z     vdW  Elec       q    Type
                         _______ _______ _______ _____ _____    ______ ____

>  <TORSDO>
F 12

$$$$
=
 OpenBabel11062419523D

 30 33  0  0  1  0  0  0  0  0999 V2000
  186.1290  176.5920  142.9080 C   0  0  2  0  0  3  0  0  0  0  0  0
  186.4390  176.4830  144.4380 C   0  0  2  0  0  0  0  0  0  0  0  0
  186.9350  177.6710  145.2810 C   0  0  1  0  0  3  0  0  0  0  0  0
  187.5280  176.5940  143.3630 C   0  0  0  0  0  2  0  0  0  0  0  0
  185.4880  177.5470  145.0280 C   0  0  0  0  0  2  0  0  0  0  0  0
  187.2540  177.1950  146.6940 C   0  0  2  0  0  3  0  0  0  0  0  0
  186.9660  178.1970  147.6240 O   0  0  0  0  0  1  0  0  0  0  0  0
  188.6490  176.7720  146.8100 N   0  0  0  0  0  2  0  0  0  0  0  0
  188.6850  175.3840  147.0300 N   0  0  0  0  0  2  0  0  0  0  0  0
  190.0250  175.0460  147.2610 N   0  0  0  0  0  2  0  0  0  0  0  0
  190.5440  174.5950  146.0410 N   0  0  0  0  0  2  0  0  0  0  0  0
  192.9920  173.9060  145.3240 S   0  0  0  0  0  0  0  0  0  0  0  0
  191.8210  175.0250  145.5700 C   0  0  0  0  0  0  0  0  0  0  0  0
  193.4180  176.7390  145.0900 O   0  0  0  0  0  1  0  0  0  0  0  0
  192.0550  176.4690  145.2330 C   0  0  1  0  0  3  0  0  0  0  0  0
  191.3020  176.8810  144.0050 C   0  0  0  0  0  0  0  0  0  0  0  0
  190.8080  178.2810  143.8810 C   0  0  0  0  0  1  0  0  0  0  0  0
  191.0890  176.0810  143.1070 O   0  0  0  0  0  0  0  0  0  0  0  0
  185.8470  177.9730  142.3120 C   0  0  0  0  0  2  0  0  0  0  0  0
  183.2270  178.6670  143.1480 O   0  0  0  0  0  0  0  0  0  0  0  0
  182.2560  178.2410  141.0690 N   0  0  0  0  0  2  0  0  0  0  0  0
  184.6630  177.9110  141.4700 N   0  0  0  0  0  2  0  0  0  0  0  0
  183.3740  178.2920  141.9530 C   0  0  0  0  0  0  0  0  0  0  0  0
  180.9120  178.6020  141.4990 C   0  0  0  0  0  2  0  0  0  0  0  0
  179.9330  178.5670  140.3290 C   0  0  2  0  0  3  0  0  0  0  0  0
  178.1020  180.1520  141.0690 C   0  0  0  0  0  2  0  0  0  0  0  0
  177.8450  179.5100  139.7220 C   0  0  2  0  0  3  0  0  0  0  0  0
  177.8140  178.0000  139.8630 C   0  0  0  0  0  2  0  0  0  0  0  0
  179.2440  179.9020  140.0970 C   0  0  2  0  0  3  0  0  0  0  0  0
  178.9870  177.5420  140.4850 O   0  0  0  0  0  0  0  0  0  0  0  0
  1 19  1  1  0  0  0
  1  4  1  0  0  0  0
  1  2  1  0  0  0  0
  2  4  1  1  0  0  0
  2  5  1  0  0  0  0
  2  3  1  0  0  0  0
  3  6  1  1  0  0  0
  5  3  1  0  0  0  0
  6  8  1  0  0  0  0
  6  7  1  1  0  0  0
  8  9  1  0  0  0  0
  9 10  1  0  0  0  0
 11 10  1  0  0  0  0
 12 13  2  0  0  0  0
 13 11  1  0  0  0  0
 15 14  1  6  0  0  0
 15 13  1  0  0  0  0
 16 15  1  0  0  0  0
 17 16  1  0  0  0  0
 18 16  2  0  0  0  0
 21 24  1  0  0  0  0
 21 23  1  0  0  0  0
 22 23  1  0  0  0  0
 22 19  1  0  0  0  0
 23 20  2  0  0  0  0
 25 30  1  0  0  0  0
 25 24  1  1  0  0  0
 27 28  1  1  0  0  0
 27 29  1  0  0  0  0
 27 26  1  0  0  0  0
 28 30  1  0  0  0  0
 29 25  1  0  0  0  0
 29 26  1  1  0  0  0
M  END
>  <MODEL>
9

>  <REMARK>
 VINA RESULT:      -5.8      4.666     10.902
  Name = 
  12 active torsions:
  status: ('A' for Active; 'I' for Inactive)
    1  A    between atoms: C_1  and  C_24
    2  A    between atoms: C_2  and  C_20
    3  A    between atoms: N_4  and  N_10
    4  A    between atoms: N_4  and  N_16
    5  A    between atoms: C_5  and  C_15
    6  A    between atoms: C_5  and  N_16
    7  A    between atoms: C_8  and  C_13
    8  A    between atoms: N_10  and  N_29
    9  A    between atoms: N_12  and  C_20
   10  A    between atoms: C_13  and  N_27
   11  A    between atoms: C_19  and  C_24
   12  A    between atoms: C_19  and  N_29
                            x       y       z     vdW  Elec       q    Type
                         _______ _______ _______ _____ _____    ______ ____

>  <TORSDO>
F 12

$$$$
