=
 OpenBabel11062420343D

 32 36  0  0  1  0  0  0  0  0999 V2000
  189.5920  177.2100  147.4870 C   0  0  0  0  0  3  0  0  0  0  0  0
  185.3640  176.9180  146.1040 C   0  0  0  0  0  2  0  0  0  0  0  0
  190.5810  174.0070  142.5030 C   0  0  2  0  0  3  0  0  0  0  0  0
  188.9780  176.6680  143.6800 C   0  0  0  0  0  2  0  0  0  0  0  0
  191.1160  171.8000  141.2450 C   0  0  1  0  0  0  0  0  0  0  0  0
  188.3200  175.6580  142.2870 S   0  0  0  0  0  0  0  0  0  0  0  0
  189.0490  176.2560  146.6870 N   0  0  0  0  0  0  0  0  0  0  0  0
  186.6680  176.8040  146.8680 C   0  0  0  0  0  2  0  0  0  0  0  0
  190.9660  171.8250  143.8090 C   0  0  0  0  0  2  0  0  0  0  0  0
  190.8210  173.3140  141.1550 C   0  0  0  0  0  2  0  0  0  0  0  0
  192.5260  174.5230  145.5280 C   0  0  0  0  0  3  0  0  0  0  0  0
  191.3710  173.2930  143.6320 C   0  0  2  0  0  3  0  0  0  0  0  0
  185.5080  177.9740  145.0230 C   0  0  2  0  0  3  0  0  0  0  0  0
  190.9260  177.0240  147.6930 N   0  0  0  0  0  0  0  0  0  0  0  0
  192.4690  175.4720  146.5730 C   0  0  0  0  0  3  0  0  0  0  0  0
  191.2070  175.9290  146.9630 C   0  0  0  0  0  0  0  0  0  0  0  0
  192.5010  171.6140  141.2960 O   0  0  0  0  0  1  0  0  0  0  0  0
  189.0710  174.0670  142.7840 C   0  0  0  0  0  2  0  0  0  0  0  0
  187.9240  177.2090  144.6780 C   0  0  2  0  0  3  0  0  0  0  0  0
  190.4800  171.1790  142.5020 C   0  0  0  0  0  2  0  0  0  0  0  0
  190.0960  174.4940  145.4000 C   0  0  0  0  0  3  0  0  0  0  0  0
  187.7830  176.3200  145.9440 C   0  0  1  0  0  3  0  0  0  0  0  0
  190.0720  175.4520  146.3890 C   0  0  0  0  0  0  0  0  0  0  0  0
  184.2760  178.1390  144.3880 O   0  0  0  0  0  1  0  0  0  0  0  0
  191.3350  174.0500  144.9260 C   0  0  0  0  0  0  0  0  0  0  0  0
  186.5810  177.5670  144.0020 C   0  0  2  0  0  3  0  0  0  0  0  0
  190.5760  169.7270  140.1680 F   0  0  0  0  0  0  0  0  0  0  0  0
  191.3460  171.4160  138.8940 F   0  0  0  0  0  0  0  0  0  0  0  0
  189.2680  171.5130  139.7500 F   0  0  0  0  0  0  0  0  0  0  0  0
  190.5680  171.1000  139.9950 C   0  0  0  0  0  0  0  0  0  0  0  0
  186.8050  178.7060  143.0120 C   0  0  0  0  0  2  0  0  0  0  0  0
  186.1990  178.3640  141.6640 C   0  0  0  0  0  1  0  0  0  0  0  0
  1 14  2  0  0  0  0
  2  8  1  0  0  0  0
  3 10  1  6  0  0  0
  3 18  1  0  0  0  0
  3 12  1  0  0  0  0
  5 17  1  1  0  0  0
  5 20  1  0  0  0  0
  6 18  1  0  0  0  0
  6  4  1  0  0  0  0
  7  1  1  0  0  0  0
 10  5  1  0  0  0  0
 11 15  1  0  0  0  0
 12  9  1  1  0  0  0
 12 25  1  0  0  0  0
 13 24  1  6  0  0  0
 13  2  1  0  0  0  0
 15 16  2  0  0  0  0
 16 14  1  0  0  0  0
 19  4  1  6  0  0  0
 19 22  1  0  0  0  0
 20  9  1  0  0  0  0
 21 23  2  0  0  0  0
 22  7  1  0  0  0  0
 22  8  1  1  0  0  0
 23  7  1  0  0  0  0
 23 16  1  0  0  0  0
 25 21  1  0  0  0  0
 25 11  2  0  0  0  0
 26 31  1  6  0  0  0
 26 19  1  0  0  0  0
 26 13  1  0  0  0  0
 28 30  1  0  0  0  0
 29 30  1  0  0  0  0
 30 27  1  0  0  0  0
 30  5  1  0  0  0  0
 32 31  1  0  0  0  0
M  END
>  <MODEL>
1

>  <REMARK>
 VINA RESULT:      -8.2      0.000      0.000
  Name = 
  2 active torsions:
  status: ('A' for Active; 'I' for Inactive)
    1  A    between atoms: C_1  and  C_32
    2  A    between atoms: C_7  and  C_26
                            x       y       z     vdW  Elec       q    Type
                         _______ _______ _______ _____ _____    ______ ____

>  <TORSDO>
F 2

$$$$
=
 OpenBabel11062420343D

 32 36  0  0  1  0  0  0  0  0999 V2000
  192.0810  172.6750  141.5180 C   0  0  0  0  0  3  0  0  0  0  0  0
  193.4100  173.3670  145.7170 C   0  0  0  0  0  2  0  0  0  0  0  0
  188.4120  177.2570  142.7920 C   0  0  2  0  0  3  0  0  0  0  0  0
  191.5670  176.2380  143.0020 C   0  0  0  0  0  2  0  0  0  0  0  0
  186.0940  178.2610  143.3880 C   0  0  1  0  0  0  0  0  0  0  0  0
  190.8110  177.3650  144.2470 S   0  0  0  0  0  0  0  0  0  0  0  0
  191.3710  173.2470  142.5250 N   0  0  0  0  0  0  0  0  0  0  0  0
  192.8370  172.7950  144.4360 C   0  0  0  0  0  2  0  0  0  0  0  0
  186.3550  175.7320  143.0270 C   0  0  0  0  0  2  0  0  0  0  0  0
  187.5890  178.5160  143.0940 C   0  0  0  0  0  2  0  0  0  0  0  0
  188.3160  174.6520  140.2610 C   0  0  0  0  0  3  0  0  0  0  0  0
  187.5230  176.1680  142.1350 C   0  0  2  0  0  3  0  0  0  0  0  0
  194.2420  174.5940  145.3880 C   0  0  2  0  0  3  0  0  0  0  0  0
  191.3920  172.6430  140.3430 N   0  0  0  0  0  0  0  0  0  0  0  0
  189.2790  173.7520  139.7520 C   0  0  0  0  0  3  0  0  0  0  0  0
  190.2280  173.2470  140.6450 C   0  0  0  0  0  0  0  0  0  0  0  0
  185.3740  178.3890  142.1970 O   0  0  0  0  0  1  0  0  0  0  0  0
  189.0910  176.7680  144.0800 C   0  0  0  0  0  2  0  0  0  0  0  0
  192.5530  175.1800  143.5600 C   0  0  2  0  0  3  0  0  0  0  0  0
  185.8690  176.8510  143.9620 C   0  0  0  0  0  2  0  0  0  0  0  0
  189.2530  174.4160  142.4940 C   0  0  0  0  0  3  0  0  0  0  0  0
  191.8850  173.7960  143.7860 C   0  0  1  0  0  3  0  0  0  0  0  0
  190.2070  173.5770  141.9620 C   0  0  0  0  0  0  0  0  0  0  0  0
  194.8410  175.0570  146.5610 O   0  0  0  0  0  1  0  0  0  0  0  0
  188.3180  175.0010  141.6330 C   0  0  0  0  0  0  0  0  0  0  0  0
  193.3700  175.6950  144.7670 C   0  0  2  0  0  3  0  0  0  0  0  0
  185.7450  180.5830  143.8730 F   0  0  0  0  0  0  0  0  0  0  0  0
  186.2960  179.2150  145.5740 F   0  0  0  0  0  0  0  0  0  0  0  0
  184.2450  179.0980  144.6590 F   0  0  0  0  0  0  0  0  0  0  0  0
  185.5870  179.3080  144.3890 C   0  0  0  0  0  0  0  0  0  0  0  0
  194.2530  176.8550  144.3170 C   0  0  0  0  0  2  0  0  0  0  0  0
  195.3680  176.3560  143.4190 C   0  0  0  0  0  1  0  0  0  0  0  0
  1  7  1  0  0  0  0
  3 10  1  1  0  0  0
  3 18  1  0  0  0  0
  4  6  1  0  0  0  0
  5 17  1  6  0  0  0
  5 20  1  0  0  0  0
  5 30  1  0  0  0  0
  7 22  1  0  0  0  0
  8  2  1  0  0  0  0
  9 20  1  0  0  0  0
 10  5  1  0  0  0  0
 11 25  1  0  0  0  0
 12  3  1  0  0  0  0
 12  9  1  1  0  0  0
 13  2  1  0  0  0  0
 13 24  1  1  0  0  0
 14 16  1  0  0  0  0
 14  1  2  0  0  0  0
 15 11  2  0  0  0  0
 15 16  1  0  0  0  0
 16 23  2  0  0  0  0
 18  6  1  0  0  0  0
 19  4  1  1  0  0  0
 19 22  1  0  0  0  0
 19 26  1  0  0  0  0
 22  8  1  6  0  0  0
 23 21  1  0  0  0  0
 23  7  1  0  0  0  0
 25 12  1  0  0  0  0
 25 21  2  0  0  0  0
 26 31  1  6  0  0  0
 26 13  1  0  0  0  0
 27 30  1  0  0  0  0
 30 29  1  0  0  0  0
 30 28  1  0  0  0  0
 32 31  1  0  0  0  0
M  END
>  <MODEL>
2

>  <REMARK>
 VINA RESULT:      -8.1      4.327      7.622
  Name = 
  2 active torsions:
  status: ('A' for Active; 'I' for Inactive)
    1  A    between atoms: C_1  and  C_32
    2  A    between atoms: C_7  and  C_26
                            x       y       z     vdW  Elec       q    Type
                         _______ _______ _______ _____ _____    ______ ____

>  <TORSDO>
F 2

$$$$
=
 OpenBabel11062420343D

 32 36  0  0  1  0  0  0  0  0999 V2000
  190.2210  173.4970  140.6500 C   0  0  0  0  0  3  0  0  0  0  0  0
  191.9130  171.6560  144.3410 C   0  0  0  0  0  2  0  0  0  0  0  0
  187.8880  177.3450  144.6280 C   0  0  2  0  0  3  0  0  0  0  0  0
  190.6960  175.8000  143.7540 C   0  0  0  0  0  2  0  0  0  0  0  0
  185.9300  178.3060  146.0370 C   0  0  1  0  0  0  0  0  0  0  0  0
  190.3150  176.2380  145.5020 S   0  0  0  0  0  0  0  0  0  0  0  0
  189.7340  173.5850  141.9150 N   0  0  0  0  0  0  0  0  0  0  0  0
  191.1450  171.9470  143.0670 C   0  0  0  0  0  2  0  0  0  0  0  0
  185.5320  176.3310  144.4440 C   0  0  0  0  0  2  0  0  0  0  0  0
  187.4230  178.3940  145.6480 C   0  0  0  0  0  2  0  0  0  0  0  0
  187.0030  176.4970  141.2080 C   0  0  0  0  0  3  0  0  0  0  0  0
  186.7200  176.9410  143.6900 C   0  0  2  0  0  3  0  0  0  0  0  0
  193.0050  172.6960  144.5150 C   0  0  2  0  0  3  0  0  0  0  0  0
  189.4810  174.2070  139.7530 N   0  0  0  0  0  0  0  0  0  0  0  0
  187.6810  175.8300  140.1620 C   0  0  0  0  0  3  0  0  0  0  0  0
  188.5230  174.7710  140.5110 C   0  0  0  0  0  0  0  0  0  0  0  0
  185.1990  179.1620  145.2090 O   0  0  0  0  0  1  0  0  0  0  0  0
  188.4940  176.1440  145.3690 C   0  0  0  0  0  2  0  0  0  0  0  0
  191.4160  174.4450  143.5390 C   0  0  2  0  0  3  0  0  0  0  0  0
  185.3930  176.8730  145.8750 C   0  0  0  0  0  2  0  0  0  0  0  0
  187.9760  174.9710  142.8340 C   0  0  0  0  0  3  0  0  0  0  0  0
  190.4380  173.2960  143.1710 C   0  0  1  0  0  3  0  0  0  0  0  0
  188.6590  174.3680  141.8010 C   0  0  0  0  0  0  0  0  0  0  0  0
  193.7660  172.3650  145.6380 O   0  0  0  0  0  1  0  0  0  0  0  0
  187.1690  176.0780  142.5500 C   0  0  0  0  0  0  0  0  0  0  0  0
  192.4020  174.0990  144.6770 C   0  0  2  0  0  3  0  0  0  0  0  0
  186.0990  180.0910  147.6280 F   0  0  0  0  0  0  0  0  0  0  0  0
  186.5690  178.0020  148.3230 F   0  0  0  0  0  0  0  0  0  0  0  0
  184.4410  178.5890  147.8900 F   0  0  0  0  0  0  0  0  0  0  0  0
  185.7570  178.7560  147.4930 C   0  0  0  0  0  0  0  0  0  0  0  0
  193.5190  175.1370  144.7070 C   0  0  0  0  0  2  0  0  0  0  0  0
  194.3360  175.0750  143.4300 C   0  0  0  0  0  1  0  0  0  0  0  0
  1  7  1  0  0  0  0
  2 13  1  0  0  0  0
  3 18  1  1  0  0  0
  3 10  1  0  0  0  0
  4  6  1  0  0  0  0
  5 17  1  6  0  0  0
  5 30  1  0  0  0  0
  7 22  1  0  0  0  0
  8  2  1  0  0  0  0
  9 20  1  0  0  0  0
 10  5  1  0  0  0  0
 11 25  1  0  0  0  0
 12  9  1  1  0  0  0
 12  3  1  0  0  0  0
 13 26  1  0  0  0  0
 13 24  1  1  0  0  0
 14 16  1  0  0  0  0
 14  1  2  0  0  0  0
 15 16  1  0  0  0  0
 15 11  2  0  0  0  0
 16 23  2  0  0  0  0
 18  6  1  0  0  0  0
 19  4  1  1  0  0  0
 19 26  1  0  0  0  0
 20  5  1  0  0  0  0
 22  8  1  6  0  0  0
 22 19  1  0  0  0  0
 23  7  1  0  0  0  0
 23 21  1  0  0  0  0
 25 21  2  0  0  0  0
 25 12  1  0  0  0  0
 26 31  1  6  0  0  0
 30 27  1  0  0  0  0
 30 29  1  0  0  0  0
 30 28  1  0  0  0  0
 32 31  1  0  0  0  0
M  END
>  <MODEL>
3

>  <REMARK>
 VINA RESULT:      -7.9      4.359      8.036
  Name = 
  2 active torsions:
  status: ('A' for Active; 'I' for Inactive)
    1  A    between atoms: C_1  and  C_32
    2  A    between atoms: C_7  and  C_26
                            x       y       z     vdW  Elec       q    Type
                         _______ _______ _______ _____ _____    ______ ____

>  <TORSDO>
F 2

$$$$
=
 OpenBabel11062420343D

 32 36  0  0  1  0  0  0  0  0999 V2000
  194.5770  174.2260  141.4280 C   0  0  0  0  0  3  0  0  0  0  0  0
  191.3200  172.5530  138.8850 C   0  0  0  0  0  2  0  0  0  0  0  0
  189.9730  175.4460  145.0880 C   0  0  2  0  0  3  0  0  0  0  0  0
  191.3210  173.0560  143.2150 C   0  0  0  0  0  2  0  0  0  0  0  0
  188.2550  177.0590  146.1800 C   0  0  1  0  0  0  0  0  0  0  0  0
  189.5040  173.1860  143.4890 S   0  0  0  0  0  0  0  0  0  0  0  0
  193.2620  174.5690  141.4390 N   0  0  0  0  0  0  0  0  0  0  0  0
  192.4590  173.3730  139.4570 C   0  0  0  0  0  2  0  0  0  0  0  0
  189.9930  177.9530  144.5130 C   0  0  0  0  0  2  0  0  0  0  0  0
  188.8010  175.6170  146.0640 C   0  0  0  0  0  2  0  0  0  0  0  0
  193.3400  176.7860  144.8320 C   0  0  0  0  0  3  0  0  0  0  0  0
  190.8080  176.7510  145.0050 C   0  0  2  0  0  3  0  0  0  0  0  0
  191.1620  171.2810  139.6980 C   0  0  2  0  0  3  0  0  0  0  0  0
  195.3030  174.9080  142.3580 N   0  0  0  0  0  0  0  0  0  0  0  0
  194.5210  176.3400  144.1960 C   0  0  0  0  0  3  0  0  0  0  0  0
  194.3850  175.6730  142.9760 C   0  0  0  0  0  0  0  0  0  0  0  0
  188.8990  177.6980  147.2430 O   0  0  0  0  0  1  0  0  0  0  0  0
  189.4370  174.9980  143.7190 C   0  0  0  0  0  2  0  0  0  0  0  0
  191.7590  172.6140  141.7960 C   0  0  2  0  0  3  0  0  0  0  0  0
  188.5060  177.8570  144.8880 C   0  0  0  0  0  2  0  0  0  0  0  0
  192.0070  175.9550  142.9740 C   0  0  0  0  0  3  0  0  0  0  0  0
  192.1320  173.8130  140.8820 C   0  0  1  0  0  3  0  0  0  0  0  0
  193.1680  175.4920  142.3990 C   0  0  0  0  0  0  0  0  0  0  0  0
  190.1750  170.4900  139.1070 O   0  0  0  0  0  1  0  0  0  0  0  0
  192.0770  176.5720  144.2270 C   0  0  0  0  0  0  0  0  0  0  0  0
  190.7840  171.6040  141.1510 C   0  0  2  0  0  3  0  0  0  0  0  0
  186.0920  176.2980  145.4790 F   0  0  0  0  0  0  0  0  0  0  0  0
  186.2320  178.2930  146.5130 F   0  0  0  0  0  0  0  0  0  0  0  0
  186.5180  176.3980  147.6890 F   0  0  0  0  0  0  0  0  0  0  0  0
  186.7490  177.0100  146.4680 C   0  0  0  0  0  0  0  0  0  0  0  0
  190.7720  170.3210  141.9750 C   0  0  0  0  0  2  0  0  0  0  0  0
  192.1370  169.6600  141.9480 C   0  0  0  0  0  1  0  0  0  0  0  0
  1  7  1  0  0  0  0
  1 14  2  0  0  0  0
  2  8  1  0  0  0  0
  2 13  1  0  0  0  0
  3 18  1  6  0  0  0
  3 10  1  0  0  0  0
  4  6  1  0  0  0  0
  5 30  1  0  0  0  0
  5 17  1  1  0  0  0
  6 18  1  0  0  0  0
  7 23  1  0  0  0  0
  9 20  1  0  0  0  0
 10  5  1  0  0  0  0
 12  9  1  6  0  0  0
 12  3  1  0  0  0  0
 13 24  1  6  0  0  0
 13 26  1  0  0  0  0
 14 16  1  0  0  0  0
 15 11  2  0  0  0  0
 16 15  1  0  0  0  0
 19  4  1  1  0  0  0
 20  5  1  0  0  0  0
 21 25  2  0  0  0  0
 22  8  1  6  0  0  0
 22  7  1  0  0  0  0
 22 19  1  0  0  0  0
 23 21  1  0  0  0  0
 23 16  2  0  0  0  0
 25 11  1  0  0  0  0
 25 12  1  0  0  0  0
 26 19  1  0  0  0  0
 26 31  1  1  0  0  0
 27 30  1  0  0  0  0
 30 28  1  0  0  0  0
 30 29  1  0  0  0  0
 32 31  1  0  0  0  0
M  END
>  <MODEL>
4

>  <REMARK>
 VINA RESULT:      -7.8      3.982      7.458
  Name = 
  2 active torsions:
  status: ('A' for Active; 'I' for Inactive)
    1  A    between atoms: C_1  and  C_32
    2  A    between atoms: C_7  and  C_26
                            x       y       z     vdW  Elec       q    Type
                         _______ _______ _______ _____ _____    ______ ____

>  <TORSDO>
F 2

$$$$
=
 OpenBabel11062420343D

 32 36  0  0  1  0  0  0  0  0999 V2000
  193.2130  174.7730  145.7180 C   0  0  0  0  0  3  0  0  0  0  0  0
  194.2550  176.0570  141.5780 C   0  0  0  0  0  2  0  0  0  0  0  0
  187.6650  176.1330  143.8620 C   0  0  2  0  0  3  0  0  0  0  0  0
  190.4350  174.5140  143.0010 C   0  0  0  0  0  2  0  0  0  0  0  0
  185.5670  177.6610  143.7780 C   0  0  1  0  0  0  0  0  0  0  0  0
  189.3270  175.2990  141.7580 S   0  0  0  0  0  0  0  0  0  0  0  0
  192.5160  175.6190  144.9160 N   0  0  0  0  0  0  0  0  0  0  0  0
  194.1100  175.9320  143.0810 C   0  0  0  0  0  2  0  0  0  0  0  0
  187.5990  178.3270  145.2010 C   0  0  0  0  0  2  0  0  0  0  0  0
  186.2460  176.3500  143.3180 C   0  0  0  0  0  2  0  0  0  0  0  0
  189.1450  175.7910  147.1610 C   0  0  0  0  0  3  0  0  0  0  0  0
  187.8290  176.8120  145.2470 C   0  0  2  0  0  3  0  0  0  0  0  0
  193.7740  174.7760  140.9210 C   0  0  2  0  0  3  0  0  0  0  0  0
  192.6010  174.5650  146.9170 N   0  0  0  0  0  0  0  0  0  0  0  0
  190.3390  175.2040  147.6380 C   0  0  0  0  0  3  0  0  0  0  0  0
  191.4720  175.2920  146.8250 C   0  0  0  0  0  0  0  0  0  0  0  0
  184.8120  177.3960  144.9240 O   0  0  0  0  0  1  0  0  0  0  0  0
  188.6890  176.6340  142.8310 C   0  0  0  0  0  2  0  0  0  0  0  0
  191.9540  174.6090  142.7080 C   0  0  2  0  0  3  0  0  0  0  0  0
  186.6090  178.7460  144.1030 C   0  0  0  0  0  2  0  0  0  0  0  0
  190.3040  176.5680  145.1680 C   0  0  0  0  0  3  0  0  0  0  0  0
  192.6380  175.7830  143.4610 C   0  0  1  0  0  3  0  0  0  0  0  0
  191.4410  175.9490  145.6360 C   0  0  0  0  0  0  0  0  0  0  0  0
  194.0000  174.8630  139.5460 O   0  0  0  0  0  1  0  0  0  0  0  0
  189.1250  176.4560  145.9120 C   0  0  0  0  0  0  0  0  0  0  0  0
  192.2820  174.5460  141.1990 C   0  0  2  0  0  3  0  0  0  0  0  0
  184.4120  177.1660  141.7370 F   0  0  0  0  0  0  0  0  0  0  0  0
  185.1940  179.2560  142.0340 F   0  0  0  0  0  0  0  0  0  0  0  0
  183.4160  178.5450  143.2130 F   0  0  0  0  0  0  0  0  0  0  0  0
  184.6320  178.1630  142.6710 C   0  0  0  0  0  0  0  0  0  0  0  0
  191.8610  173.1860  140.6510 C   0  0  0  0  0  2  0  0  0  0  0  0
  192.6690  172.0790  141.2990 C   0  0  0  0  0  1  0  0  0  0  0  0
  1 14  2  0  0  0  0
  2  8  1  0  0  0  0
  3 18  1  6  0  0  0
  3 12  1  0  0  0  0
  5 20  1  0  0  0  0
  5 17  1  1  0  0  0
  6 18  1  0  0  0  0
  6  4  1  0  0  0  0
  7 23  1  0  0  0  0
  7  1  1  0  0  0  0
 10  5  1  0  0  0  0
 10  3  1  0  0  0  0
 11 15  1  0  0  0  0
 12  9  1  6  0  0  0
 12 25  1  0  0  0  0
 13 24  1  6  0  0  0
 13 26  1  0  0  0  0
 13  2  1  0  0  0  0
 16 14  1  0  0  0  0
 16 15  2  0  0  0  0
 19  4  1  6  0  0  0
 19 22  1  0  0  0  0
 20  9  1  0  0  0  0
 21 23  2  0  0  0  0
 21 25  1  0  0  0  0
 22  8  1  1  0  0  0
 22  7  1  0  0  0  0
 23 16  1  0  0  0  0
 25 11  2  0  0  0  0
 26 31  1  1  0  0  0
 26 19  1  0  0  0  0
 27 30  1  0  0  0  0
 28 30  1  0  0  0  0
 30 29  1  0  0  0  0
 30  5  1  0  0  0  0
 31 32  1  0  0  0  0
M  END
>  <MODEL>
5

>  <REMARK>
 VINA RESULT:      -7.6      3.338      6.904
  Name = 
  2 active torsions:
  status: ('A' for Active; 'I' for Inactive)
    1  A    between atoms: C_1  and  C_32
    2  A    between atoms: C_7  and  C_26
                            x       y       z     vdW  Elec       q    Type
                         _______ _______ _______ _____ _____    ______ ____

>  <TORSDO>
F 2

$$$$
=
 OpenBabel11062420343D

 32 36  0  0  1  0  0  0  0  0999 V2000
  192.0320  175.3420  146.8480 C   0  0  0  0  0  3  0  0  0  0  0  0
  194.4360  176.0430  143.1590 C   0  0  0  0  0  2  0  0  0  0  0  0
  187.4640  176.2310  143.0500 C   0  0  2  0  0  3  0  0  0  0  0  0
  190.3320  174.5970  143.4240 C   0  0  0  0  0  2  0  0  0  0  0  0
  185.5470  177.6600  142.0380 C   0  0  1  0  0  0  0  0  0  0  0  0
  189.7250  175.1560  141.7770 S   0  0  0  0  0  0  0  0  0  0  0  0
  191.6620  176.0380  145.7410 N   0  0  0  0  0  0  0  0  0  0  0  0
  193.7880  176.1340  144.5260 C   0  0  0  0  0  2  0  0  0  0  0  0
  186.9890  178.5940  143.9470 C   0  0  0  0  0  2  0  0  0  0  0  0
  186.3170  176.3200  142.0340 C   0  0  0  0  0  2  0  0  0  0  0  0
  187.7350  176.4230  146.6670 C   0  0  0  0  0  3  0  0  0  0  0  0
  187.1620  177.1100  144.2920 C   0  0  2  0  0  3  0  0  0  0  0  0
  194.1830  174.6640  142.5760 C   0  0  2  0  0  3  0  0  0  0  0  0
  191.0460  175.2900  147.7860 N   0  0  0  0  0  0  0  0  0  0  0  0
  188.6860  175.9520  147.6000 C   0  0  0  0  0  3  0  0  0  0  0  0
  190.0280  175.9580  147.2120 C   0  0  0  0  0  0  0  0  0  0  0  0
  184.4430  177.5400  142.8880 O   0  0  0  0  0  1  0  0  0  0  0  0
  188.7850  176.6110  142.3630 C   0  0  0  0  0  2  0  0  0  0  0  0
  191.8620  174.6990  143.6490 C   0  0  2  0  0  3  0  0  0  0  0  0
  186.4360  178.8150  142.5300 C   0  0  0  0  0  2  0  0  0  0  0  0
  189.5130  176.9400  145.0900 C   0  0  0  0  0  3  0  0  0  0  0  0
  192.2730  175.9920  144.4060 C   0  0  1  0  0  3  0  0  0  0  0  0
  190.4140  176.4330  146.0000 C   0  0  0  0  0  0  0  0  0  0  0  0
  194.8620  174.5590  141.3610 O   0  0  0  0  0  1  0  0  0  0  0  0
  188.1500  176.8980  145.4000 C   0  0  0  0  0  0  0  0  0  0  0  0
  192.6800  174.4280  142.3660 C   0  0  2  0  0  3  0  0  0  0  0  0
  183.7240  177.5900  140.4820 F   0  0  0  0  0  0  0  0  0  0  0  0
  185.8080  177.2710  139.6910 F   0  0  0  0  0  0  0  0  0  0  0  0
  185.1610  179.3200  140.3560 F   0  0  0  0  0  0  0  0  0  0  0  0
  185.0500  177.9640  140.6190 C   0  0  0  0  0  0  0  0  0  0  0  0
  192.4450  172.9900  141.9160 C   0  0  0  0  0  2  0  0  0  0  0  0
  192.9720  172.0160  142.9530 C   0  0  0  0  0  1  0  0  0  0  0  0
  1 14  2  0  0  0  0
  2  8  1  0  0  0  0
  3 10  1  6  0  0  0
  3 12  1  0  0  0  0
  5 20  1  0  0  0  0
  5 17  1  1  0  0  0
  6 18  1  0  0  0  0
  6  4  1  0  0  0  0
  7 23  1  0  0  0  0
  7  1  1  0  0  0  0
 10  5  1  0  0  0  0
 11 15  1  0  0  0  0
 12  9  1  6  0  0  0
 12 25  1  0  0  0  0
 13 24  1  6  0  0  0
 13  2  1  0  0  0  0
 16 15  2  0  0  0  0
 16 14  1  0  0  0  0
 18  3  1  0  0  0  0
 19  4  1  6  0  0  0
 19 22  1  0  0  0  0
 20  9  1  0  0  0  0
 21 25  1  0  0  0  0
 21 23  2  0  0  0  0
 22  8  1  1  0  0  0
 22  7  1  0  0  0  0
 23 16  1  0  0  0  0
 25 11  2  0  0  0  0
 26 31  1  1  0  0  0
 26 13  1  0  0  0  0
 26 19  1  0  0  0  0
 27 30  1  0  0  0  0
 28 30  1  0  0  0  0
 29 30  1  0  0  0  0
 30  5  1  0  0  0  0
 31 32  1  0  0  0  0
M  END
>  <MODEL>
6

>  <REMARK>
 VINA RESULT:      -7.6      3.007      6.717
  Name = 
  2 active torsions:
  status: ('A' for Active; 'I' for Inactive)
    1  A    between atoms: C_1  and  C_32
    2  A    between atoms: C_7  and  C_26
                            x       y       z     vdW  Elec       q    Type
                         _______ _______ _______ _____ _____    ______ ____

>  <TORSDO>
F 2

$$$$
=
 OpenBabel11062420343D

 32 36  0  0  1  0  0  0  0  0999 V2000
  196.0580  175.1870  143.6340 C   0  0  0  0  0  3  0  0  0  0  0  0
  194.9730  175.2910  139.3110 C   0  0  0  0  0  2  0  0  0  0  0  0
  190.0930  175.4440  144.2930 C   0  0  2  0  0  3  0  0  0  0  0  0
  192.5220  173.8980  142.6350 C   0  0  0  0  0  2  0  0  0  0  0  0
  187.8830  176.6880  144.8490 C   0  0  1  0  0  0  0  0  0  0  0  0
  190.8560  174.1830  141.9030 S   0  0  0  0  0  0  0  0  0  0  0  0
  194.9270  175.6950  143.0780 N   0  0  0  0  0  0  0  0  0  0  0  0
  195.5000  175.5980  140.6980 C   0  0  0  0  0  2  0  0  0  0  0  0
  190.1320  177.9190  144.9900 C   0  0  0  0  0  2  0  0  0  0  0  0
  188.5670  175.3660  144.4310 C   0  0  0  0  0  2  0  0  0  0  0  0
  192.8550  176.2160  146.5230 C   0  0  0  0  0  3  0  0  0  0  0  0
  190.6750  176.5110  145.2580 C   0  0  2  0  0  3  0  0  0  0  0  0
  194.5430  173.8360  139.2510 C   0  0  2  0  0  3  0  0  0  0  0  0
  196.0630  175.2850  144.9920 N   0  0  0  0  0  0  0  0  0  0  0  0
  194.2330  175.9030  146.5130 C   0  0  0  0  0  3  0  0  0  0  0  0
  194.8740  175.8490  145.2720 C   0  0  0  0  0  0  0  0  0  0  0  0
  187.7510  176.7040  146.2410 O   0  0  0  0  0  1  0  0  0  0  0  0
  190.4600  175.7110  142.8250 C   0  0  0  0  0  2  0  0  0  0  0  0
  193.7200  174.0380  141.6630 C   0  0  2  0  0  3  0  0  0  0  0  0
  188.7090  177.9090  144.4090 C   0  0  0  0  0  2  0  0  0  0  0  0
  192.8800  176.4760  144.1040 C   0  0  0  0  0  3  0  0  0  0  0  0
  194.3920  175.4370  141.7350 C   0  0  1  0  0  3  0  0  0  0  0  0
  194.2110  176.1240  144.1190 C   0  0  0  0  0  0  0  0  0  0  0  0
  194.1490  173.5380  137.9450 O   0  0  0  0  0  1  0  0  0  0  0  0
  192.1730  176.4820  145.3110 C   0  0  0  0  0  0  0  0  0  0  0  0
  193.3910  173.5660  140.2280 C   0  0  2  0  0  3  0  0  0  0  0  0
  186.3990  175.8900  143.1440 F   0  0  0  0  0  0  0  0  0  0  0  0
  186.2320  178.0450  143.7730 F   0  0  0  0  0  0  0  0  0  0  0  0
  185.5240  176.4160  145.1510 F   0  0  0  0  0  0  0  0  0  0  0  0
  186.4870  176.7590  144.2170 C   0  0  0  0  0  0  0  0  0  0  0  0
  193.0760  172.0730  140.2510 C   0  0  0  0  0  2  0  0  0  0  0  0
  194.2980  171.2800  140.6730 C   0  0  0  0  0  1  0  0  0  0  0  0
  1 14  2  0  0  0  0
  2  8  1  0  0  0  0
  3 18  1  6  0  0  0
  3 10  1  0  0  0  0
  3 12  1  0  0  0  0
  5 17  1  1  0  0  0
  6  4  1  0  0  0  0
  6 18  1  0  0  0  0
  7  1  1  0  0  0  0
  7 23  1  0  0  0  0
 10  5  1  0  0  0  0
 12  9  1  6  0  0  0
 12 25  1  0  0  0  0
 13 24  1  6  0  0  0
 13  2  1  0  0  0  0
 13 26  1  0  0  0  0
 14 16  1  0  0  0  0
 15 11  1  0  0  0  0
 16 15  2  0  0  0  0
 19 22  1  0  0  0  0
 19  4  1  1  0  0  0
 20  5  1  0  0  0  0
 20  9  1  0  0  0  0
 21 23  2  0  0  0  0
 21 25  1  0  0  0  0
 22  8  1  6  0  0  0
 22  7  1  0  0  0  0
 23 16  1  0  0  0  0
 25 11  2  0  0  0  0
 26 31  1  1  0  0  0
 26 19  1  0  0  0  0
 27 30  1  0  0  0  0
 28 30  1  0  0  0  0
 30  5  1  0  0  0  0
 30 29  1  0  0  0  0
 31 32  1  0  0  0  0
M  END
>  <MODEL>
7

>  <REMARK>
 VINA RESULT:      -7.6      3.860      7.372
  Name = 
  2 active torsions:
  status: ('A' for Active; 'I' for Inactive)
    1  A    between atoms: C_1  and  C_32
    2  A    between atoms: C_7  and  C_26
                            x       y       z     vdW  Elec       q    Type
                         _______ _______ _______ _____ _____    ______ ____

>  <TORSDO>
F 2

$$$$
=
 OpenBabel11062420343D

 32 36  0  0  1  0  0  0  0  0999 V2000
  187.1180  173.7430  142.0320 C   0  0  0  0  0  3  0  0  0  0  0  0
  186.5960  178.1420  142.5330 C   0  0  0  0  0  2  0  0  0  0  0  0
  192.7810  175.0740  143.5290 C   0  0  2  0  0  3  0  0  0  0  0  0
  189.6120  175.5940  144.3810 C   0  0  0  0  0  2  0  0  0  0  0  0
  195.2860  175.4620  142.9700 C   0  0  1  0  0  0  0  0  0  0  0  0
  190.9260  176.8560  144.6530 S   0  0  0  0  0  0  0  0  0  0  0  0
  188.0700  174.7050  141.9220 N   0  0  0  0  0  0  0  0  0  0  0  0
  186.6910  176.7290  141.9940 C   0  0  0  0  0  2  0  0  0  0  0  0
  193.6320  174.8130  141.1160 C   0  0  0  0  0  2  0  0  0  0  0  0
  194.1820  175.4190  144.0510 C   0  0  0  0  0  2  0  0  0  0  0  0
  191.2830  172.2350  141.8260 C   0  0  0  0  0  3  0  0  0  0  0  0
  192.8740  174.1600  142.2780 C   0  0  2  0  0  3  0  0  0  0  0  0
  186.5850  178.0990  144.0500 C   0  0  2  0  0  3  0  0  0  0  0  0
  187.6180  172.4890  141.8510 N   0  0  0  0  0  0  0  0  0  0  0  0
  189.9590  171.7540  141.7130 C   0  0  0  0  0  3  0  0  0  0  0  0
  188.9320  172.6990  141.6520 C   0  0  0  0  0  0  0  0  0  0  0  0
  195.9000  174.2080  142.9060 O   0  0  0  0  0  1  0  0  0  0  0  0
  192.0020  176.3700  143.2580 C   0  0  0  0  0  2  0  0  0  0  0  0
  188.2280  176.1430  143.9510 C   0  0  2  0  0  3  0  0  0  0  0  0
  194.7040  175.8080  141.5880 C   0  0  0  0  0  2  0  0  0  0  0  0
  190.4760  174.5280  141.7250 C   0  0  0  0  0  3  0  0  0  0  0  0
  188.0110  176.0880  142.4140 C   0  0  1  0  0  3  0  0  0  0  0  0
  189.1930  174.0320  141.6620 C   0  0  0  0  0  0  0  0  0  0  0  0
  186.4020  179.3950  144.5350 O   0  0  0  0  0  1  0  0  0  0  0  0
  191.5380  173.6280  141.8540 C   0  0  0  0  0  0  0  0  0  0  0  0
  187.8960  177.5100  144.5900 C   0  0  2  0  0  3  0  0  0  0  0  0
  195.8550  177.3230  144.3710 F   0  0  0  0  0  0  0  0  0  0  0  0
  196.6520  177.2960  142.2650 F   0  0  0  0  0  0  0  0  0  0  0  0
  197.4920  175.8840  143.8010 F   0  0  0  0  0  0  0  0  0  0  0  0
  196.3380  176.5090  143.3600 C   0  0  0  0  0  0  0  0  0  0  0  0
  187.8010  177.3470  146.1040 C   0  0  0  0  0  2  0  0  0  0  0  0
  186.5160  176.6330  146.4800 C   0  0  0  0  0  1  0  0  0  0  0  0
  2 13  1  0  0  0  0
  3 18  1  6  0  0  0
  3 10  1  0  0  0  0
  4  6  1  0  0  0  0
  5 17  1  6  0  0  0
  5 30  1  0  0  0  0
  5 10  1  0  0  0  0
  7  1  1  0  0  0  0
  7 22  1  0  0  0  0
  8  2  1  0  0  0  0
  9 20  1  0  0  0  0
 11 25  1  0  0  0  0
 12  9  1  6  0  0  0
 12  3  1  0  0  0  0
 13 24  1  1  0  0  0
 13 26  1  0  0  0  0
 14  1  2  0  0  0  0
 15 11  2  0  0  0  0
 16 23  2  0  0  0  0
 16 15  1  0  0  0  0
 16 14  1  0  0  0  0
 18  6  1  0  0  0  0
 19  4  1  6  0  0  0
 19 26  1  0  0  0  0
 20  5  1  0  0  0  0
 21 25  2  0  0  0  0
 22  8  1  1  0  0  0
 22 19  1  0  0  0  0
 23 21  1  0  0  0  0
 23  7  1  0  0  0  0
 25 12  1  0  0  0  0
 26 31  1  1  0  0  0
 28 30  1  0  0  0  0
 30 29  1  0  0  0  0
 30 27  1  0  0  0  0
 31 32  1  0  0  0  0
M  END
>  <MODEL>
8

>  <REMARK>
 VINA RESULT:      -7.6      3.808      5.412
  Name = 
  2 active torsions:
  status: ('A' for Active; 'I' for Inactive)
    1  A    between atoms: C_1  and  C_32
    2  A    between atoms: C_7  and  C_26
                            x       y       z     vdW  Elec       q    Type
                         _______ _______ _______ _____ _____    ______ ____

>  <TORSDO>
F 2

$$$$
=
 OpenBabel11062420343D

 32 36  0  0  1  0  0  0  0  0999 V2000
  192.8040  176.1170  146.1060 C   0  0  0  0  0  3  0  0  0  0  0  0
  188.5810  175.2900  147.2680 C   0  0  0  0  0  2  0  0  0  0  0  0
  190.9600  173.7910  140.8840 C   0  0  2  0  0  3  0  0  0  0  0  0
  190.1520  175.9690  143.2590 C   0  0  0  0  0  2  0  0  0  0  0  0
  190.8210  171.8850  139.1260 C   0  0  1  0  0  0  0  0  0  0  0  0
  188.8820  175.0480  142.2930 S   0  0  0  0  0  0  0  0  0  0  0  0
  191.9650  175.1950  145.5670 N   0  0  0  0  0  0  0  0  0  0  0  0
  190.0900  175.3020  147.1410 C   0  0  0  0  0  2  0  0  0  0  0  0
  192.1700  171.5570  141.2870 C   0  0  0  0  0  2  0  0  0  0  0  0
  190.4270  173.3270  139.5220 C   0  0  0  0  0  2  0  0  0  0  0  0
  194.2500  174.2390  142.3580 C   0  0  0  0  0  3  0  0  0  0  0  0
  192.3000  173.0830  141.2160 C   0  0  2  0  0  3  0  0  0  0  0  0
  188.0070  176.4840  146.5270 C   0  0  2  0  0  3  0  0  0  0  0  0
  194.0230  176.1350  145.4970 N   0  0  0  0  0  0  0  0  0  0  0  0
  194.7410  175.0240  143.4260 C   0  0  0  0  0  3  0  0  0  0  0  0
  193.9060  175.2060  144.5310 C   0  0  0  0  0  0  0  0  0  0  0  0
  191.9920  171.9330  138.3650 O   0  0  0  0  0  1  0  0  0  0  0  0
  189.8860  173.5580  141.9590 C   0  0  0  0  0  2  0  0  0  0  0  0
  189.8290  176.1920  144.7580 C   0  0  2  0  0  3  0  0  0  0  0  0
  191.0650  171.0110  140.3690 C   0  0  0  0  0  2  0  0  0  0  0  0
  192.1970  173.8150  143.5920 C   0  0  0  0  0  3  0  0  0  0  0  0
  190.5020  175.1370  145.6800 C   0  0  1  0  0  3  0  0  0  0  0  0
  192.6820  174.6210  144.5980 C   0  0  0  0  0  0  0  0  0  0  0  0
  186.6260  176.5170  146.7290 O   0  0  0  0  0  1  0  0  0  0  0  0
  192.9640  173.6510  142.4340 C   0  0  0  0  0  0  0  0  0  0  0  0
  188.3220  176.4000  145.0270 C   0  0  2  0  0  3  0  0  0  0  0  0
  189.6570  169.8970  138.4620 F   0  0  0  0  0  0  0  0  0  0  0  0
  189.9210  171.5320  136.9370 F   0  0  0  0  0  0  0  0  0  0  0  0
  188.4780  171.8080  138.6390 F   0  0  0  0  0  0  0  0  0  0  0  0
  189.7010  171.2680  138.2780 C   0  0  0  0  0  0  0  0  0  0  0  0
  187.8600  177.6770  144.3320 C   0  0  0  0  0  2  0  0  0  0  0  0
  186.5210  177.4570  143.6530 C   0  0  0  0  0  1  0  0  0  0  0  0
  3 10  1  6  0  0  0
  3 12  1  0  0  0  0
  3 18  1  0  0  0  0
  5 17  1  6  0  0  0
  5 10  1  0  0  0  0
  5 20  1  0  0  0  0
  6  4  1  0  0  0  0
  7 22  1  0  0  0  0
  7  1  1  0  0  0  0
  8  2  1  0  0  0  0
 11 25  2  0  0  0  0
 11 15  1  0  0  0  0
 12  9  1  1  0  0  0
 12 25  1  0  0  0  0
 13 24  1  6  0  0  0
 13  2  1  0  0  0  0
 14  1  2  0  0  0  0
 15 16  2  0  0  0  0
 16 23  1  0  0  0  0
 16 14  1  0  0  0  0
 18  6  1  0  0  0  0
 19  4  1  6  0  0  0
 19 26  1  0  0  0  0
 19 22  1  0  0  0  0
 20  9  1  0  0  0  0
 21 23  2  0  0  0  0
 22  8  1  1  0  0  0
 23  7  1  0  0  0  0
 25 21  1  0  0  0  0
 26 31  1  6  0  0  0
 26 13  1  0  0  0  0
 28 30  1  0  0  0  0
 30 27  1  0  0  0  0
 30 29  1  0  0  0  0
 30  5  1  0  0  0  0
 32 31  1  0  0  0  0
M  END
>  <MODEL>
9

>  <REMARK>
 VINA RESULT:      -7.1      1.878      2.786
  Name = 
  2 active torsions:
  status: ('A' for Active; 'I' for Inactive)
    1  A    between atoms: C_1  and  C_32
    2  A    between atoms: C_7  and  C_26
                            x       y       z     vdW  Elec       q    Type
                         _______ _______ _______ _____ _____    ______ ____

>  <TORSDO>
F 2

$$$$
