=
 OpenBabel11062419073D

 32 36  0  0  1  0  0  0  0  0999 V2000
  189.6340  172.0420  143.6680 C   0  0  0  0  0  2  0  0  0  0  0  0
  188.4920  173.0980  141.1680 C   0  0  0  0  0  3  0  0  0  0  0  0
  189.9730  171.5340  142.3470 N   0  0  0  0  0  0  0  0  0  0  0  0
  189.4430  171.9700  141.2450 C   0  0  0  0  0  3  0  0  0  0  0  0
  190.0250  173.4800  143.8050 C   0  0  0  0  0  0  0  0  0  0  0  0
  189.4070  174.4110  143.0690 C   0  0  0  0  0  3  0  0  0  0  0  0
  188.4340  174.1630  141.9850 C   0  0  0  0  0  0  0  0  0  0  0  0
  193.0400  174.2200  145.9720 C   0  0  0  0  0  3  0  0  0  0  0  0
  190.7100  174.6630  145.9740 C   0  0  0  0  0  0  0  0  0  0  0  0
  189.5070  174.7580  146.5290 C   0  0  0  0  0  2  0  0  0  0  0  0
  192.3970  173.5930  144.7330 C   0  0  0  0  0  3  0  0  0  0  0  0
  191.9400  174.9550  146.7430 C   0  0  2  0  0  3  0  0  0  0  0  0
  190.9760  173.8840  144.8130 N   0  0  0  0  0  0  0  0  0  0  0  0
  192.2060  176.4550  146.7390 C   0  0  0  0  0  2  0  0  0  0  0  0
  192.4200  176.9570  145.3450 C   0  0  0  0  0  0  0  0  0  0  0  0
  193.5840  176.9660  144.8640 O   0  0  0  0  0  0  0  0  0  0  0  0
  191.4140  177.6010  143.2050 C   0  0  0  0  0  2  0  0  0  0  0  0
  191.3030  177.4300  144.5160 C   0  0  0  0  0  3  0  0  0  0  0  0
  187.4750  175.1960  141.7330 N   0  0  0  0  0  2  0  0  0  0  0  0
  187.7510  176.4150  140.9810 C   0  0  0  0  0  2  0  0  0  0  0  0
  187.8930  177.6130  141.9130 C   0  0  0  0  0  2  0  0  0  0  0  0
  186.6380  177.5870  145.5190 C   0  0  0  0  0  0  0  0  0  0  0  0
  185.1880  177.8480  145.1570 C   0  0  1  0  0  3  0  0  0  0  0  0
  186.8890  177.5500  143.0520 C   0  0  1  0  0  3  0  0  0  0  0  0
  187.6130  177.4370  144.3960 C   0  0  0  0  0  2  0  0  0  0  0  0
  184.9980  178.7840  147.5050 C   0  0  0  0  0  2  0  0  0  0  0  0
  184.2660  178.0930  146.3610 C   0  0  0  0  0  2  0  0  0  0  0  0
  187.0920  177.6710  146.7780 C   0  0  0  0  0  3  0  0  0  0  0  0
  184.5840  178.4030  142.9480 C   0  0  0  0  0  2  0  0  0  0  0  0
  186.1650  177.9050  147.9360 C   0  0  0  0  0  2  0  0  0  0  0  0
  185.1010  178.9630  144.2070 N   0  0  2  0  0  0  0  0  0  0  0  0
  185.9880  178.8000  143.0140 C   0  0  1  0  0  3  0  0  0  0  0  0
  1  5  1  0  0  0  0
  2  4  1  0  0  0  0
  2  7  2  0  0  0  0
  3  1  1  0  0  0  0
  4  3  2  0  0  0  0
  5 13  1  0  0  0  0
  6  5  2  0  0  0  0
  7  6  1  0  0  0  0
  8 12  1  0  0  0  0
  9 10  2  0  0  0  0
  9 12  1  0  0  0  0
 11 13  1  0  0  0  0
 11  8  2  0  0  0  0
 12 14  1  6  0  0  0
 13  9  1  0  0  0  0
 15 14  1  0  0  0  0
 16 15  2  0  0  0  0
 17 18  2  0  0  0  0
 18 15  1  0  0  0  0
 19  7  1  0  0  0  0
 20 19  1  0  0  0  0
 20 21  1  0  0  0  0
 22 28  2  0  0  0  0
 23 22  1  0  0  0  0
 23 27  1  1  0  0  0
 24 21  1  6  0  0  0
 24 25  1  0  0  0  0
 25 22  1  0  0  0  0
 26 30  1  0  0  0  0
 27 26  1  0  0  0  0
 28 30  1  0  0  0  0
 31 29  1  6  0  0  0
 31 23  1  0  0  0  0
 32 29  1  6  0  0  0
 32 24  1  0  0  0  0
 32 31  1  0  0  0  0
M  END
>  <MODEL>
1

>  <REMARK>
 VINA RESULT:      -7.8      0.000      0.000
  Name = 
  8 active torsions:
  status: ('A' for Active; 'I' for Inactive)
    1  A    between atoms: C_8  and  C_32
    2  A    between atoms: C_17  and  C_20
    3  A    between atoms: C_17  and  C_31
    4  A    between atoms: N_19  and  C_21
    5  A    between atoms: N_19  and  C_27
    6  A    between atoms: C_20  and  C_24
    7  A    between atoms: C_21  and  C_32
    8  A    between atoms: C_25  and  N_29
                            x       y       z     vdW  Elec       q    Type
                         _______ _______ _______ _____ _____    ______ ____

>  <TORSDO>
F 8

$$$$
=
 OpenBabel11062419073D

 32 36  0  0  1  0  0  0  0  0999 V2000
  190.0810  172.6970  142.2240 C   0  0  0  0  0  2  0  0  0  0  0  0
  188.7170  174.1690  140.0690 C   0  0  0  0  0  3  0  0  0  0  0  0
  190.4760  172.6320  140.8240 N   0  0  0  0  0  0  0  0  0  0  0  0
  189.8530  173.2480  139.8660 C   0  0  0  0  0  3  0  0  0  0  0  0
  190.2160  174.0910  142.7520 C   0  0  0  0  0  0  0  0  0  0  0  0
  189.4270  175.0610  142.2780 C   0  0  0  0  0  3  0  0  0  0  0  0
  188.4890  174.9480  141.1410 C   0  0  0  0  0  0  0  0  0  0  0  0
  193.0960  174.7860  145.1090 C   0  0  0  0  0  3  0  0  0  0  0  0
  190.7290  174.6770  145.1950 C   0  0  0  0  0  0  0  0  0  0  0  0
  189.5610  174.3270  145.7250 C   0  0  0  0  0  2  0  0  0  0  0  0
  192.5470  174.4400  143.7230 C   0  0  0  0  0  3  0  0  0  0  0  0
  191.9000  174.9870  146.0440 C   0  0  2  0  0  3  0  0  0  0  0  0
  191.1020  174.3690  143.8570 N   0  0  0  0  0  0  0  0  0  0  0  0
  191.8310  176.4360  146.5080 C   0  0  0  0  0  2  0  0  0  0  0  0
  191.4530  176.5190  147.9530 C   0  0  0  0  0  0  0  0  0  0  0  0
  191.3050  175.4580  148.6140 O   0  0  0  0  0  0  0  0  0  0  0  0
  191.5020  177.9800  149.9200 C   0  0  0  0  0  2  0  0  0  0  0  0
  191.2600  177.8100  148.6270 C   0  0  0  0  0  3  0  0  0  0  0  0
  187.3570  175.8250  141.1510 N   0  0  0  0  0  2  0  0  0  0  0  0
  187.3700  177.1970  140.6550 C   0  0  0  0  0  2  0  0  0  0  0  0
  187.6310  178.1850  141.7860 C   0  0  0  0  0  2  0  0  0  0  0  0
  186.6560  177.6950  145.4440 C   0  0  0  0  0  0  0  0  0  0  0  0
  185.1650  177.8460  145.2060 C   0  0  1  0  0  3  0  0  0  0  0  0
  186.7240  177.9170  142.9750 C   0  0  1  0  0  3  0  0  0  0  0  0
  187.5540  177.7490  144.2510 C   0  0  0  0  0  2  0  0  0  0  0  0
  185.0670  178.5330  147.6450 C   0  0  0  0  0  2  0  0  0  0  0  0
  184.3170  177.8840  146.4860 C   0  0  0  0  0  2  0  0  0  0  0  0
  187.1930  177.7050  146.6730 C   0  0  0  0  0  3  0  0  0  0  0  0
  184.3500  178.5450  143.1090 C   0  0  0  0  0  2  0  0  0  0  0  0
  186.3370  177.7360  147.9070 C   0  0  0  0  0  2  0  0  0  0  0  0
  184.9060  179.0310  144.3820 N   0  0  2  0  0  0  0  0  0  0  0  0
  185.7130  179.0690  143.1230 C   0  0  1  0  0  3  0  0  0  0  0  0
  1  5  1  0  0  0  0
  2  7  2  0  0  0  0
  3  1  1  0  0  0  0
  4  2  1  0  0  0  0
  4  3  2  0  0  0  0
  5 13  1  0  0  0  0
  6  5  2  0  0  0  0
  7 19  1  0  0  0  0
  7  6  1  0  0  0  0
  8 12  1  0  0  0  0
  9 10  2  0  0  0  0
  9 12  1  0  0  0  0
 11 13  1  0  0  0  0
 11  8  2  0  0  0  0
 12 14  1  6  0  0  0
 13  9  1  0  0  0  0
 14 15  1  0  0  0  0
 15 16  2  0  0  0  0
 15 18  1  0  0  0  0
 18 17  2  0  0  0  0
 20 19  1  0  0  0  0
 20 21  1  0  0  0  0
 22 28  2  0  0  0  0
 23 22  1  0  0  0  0
 23 27  1  1  0  0  0
 24 21  1  6  0  0  0
 24 32  1  0  0  0  0
 24 25  1  0  0  0  0
 25 22  1  0  0  0  0
 26 30  1  0  0  0  0
 27 26  1  0  0  0  0
 28 30  1  0  0  0  0
 31 29  1  6  0  0  0
 31 23  1  0  0  0  0
 32 29  1  6  0  0  0
 32 31  1  0  0  0  0
M  END
>  <MODEL>
2

>  <REMARK>
 VINA RESULT:      -7.4      1.444      1.914
  Name = 
  8 active torsions:
  status: ('A' for Active; 'I' for Inactive)
    1  A    between atoms: C_8  and  C_32
    2  A    between atoms: C_17  and  C_20
    3  A    between atoms: C_17  and  C_31
    4  A    between atoms: N_19  and  C_21
    5  A    between atoms: N_19  and  C_27
    6  A    between atoms: C_20  and  C_24
    7  A    between atoms: C_21  and  C_32
    8  A    between atoms: C_25  and  N_29
                            x       y       z     vdW  Elec       q    Type
                         _______ _______ _______ _____ _____    ______ ____

>  <TORSDO>
F 8

$$$$
=
 OpenBabel11062419073D

 32 36  0  0  1  0  0  0  0  0999 V2000
  190.0510  173.3720  144.2750 C   0  0  0  0  0  2  0  0  0  0  0  0
  188.6560  173.1600  141.6900 C   0  0  0  0  0  3  0  0  0  0  0  0
  190.0670  172.1770  143.4430 N   0  0  0  0  0  0  0  0  0  0  0  0
  189.4210  172.0660  142.3230 C   0  0  0  0  0  3  0  0  0  0  0  0
  190.6760  174.5290  143.5600 C   0  0  0  0  0  0  0  0  0  0  0  0
  190.0860  175.0360  142.4720 C   0  0  0  0  0  3  0  0  0  0  0  0
  188.9090  174.4770  141.7760 C   0  0  0  0  0  0  0  0  0  0  0  0
  193.2180  176.6680  145.3750 C   0  0  0  0  0  3  0  0  0  0  0  0
  193.2000  174.7990  143.9160 C   0  0  0  0  0  0  0  0  0  0  0  0
  193.6190  174.0820  142.8780 C   0  0  0  0  0  2  0  0  0  0  0  0
  191.7730  176.3120  145.0150 C   0  0  0  0  0  3  0  0  0  0  0  0
  194.1320  175.6460  144.6950 C   0  0  2  0  0  3  0  0  0  0  0  0
  191.8420  175.1790  144.1070 N   0  0  0  0  0  0  0  0  0  0  0  0
  194.8460  174.7990  145.7410 C   0  0  0  0  0  2  0  0  0  0  0  0
  196.2610  174.5270  145.3350 C   0  0  0  0  0  0  0  0  0  0  0  0
  196.7630  175.1730  144.3780 O   0  0  0  0  0  0  0  0  0  0  0  0
  196.8010  172.2360  146.0170 C   0  0  0  0  0  2  0  0  0  0  0  0
  197.0850  173.5320  146.0340 C   0  0  0  0  0  3  0  0  0  0  0  0
  188.0900  175.4030  141.0530 N   0  0  0  0  0  2  0  0  0  0  0  0
  187.9060  176.8030  141.4170 C   0  0  0  0  0  2  0  0  0  0  0  0
  186.4440  177.2140  141.2870 C   0  0  0  0  0  2  0  0  0  0  0  0
  186.1670  177.2360  145.0950 C   0  0  0  0  0  0  0  0  0  0  0  0
  184.7830  177.8570  145.1250 C   0  0  1  0  0  3  0  0  0  0  0  0
  185.7740  177.3120  142.6480 C   0  0  1  0  0  3  0  0  0  0  0  0
  186.7610  176.9380  143.7560 C   0  0  0  0  0  2  0  0  0  0  0  0
  185.4260  178.6460  147.4470 C   0  0  0  0  0  2  0  0  0  0  0  0
  184.2830  178.2290  146.5290 C   0  0  0  0  0  2  0  0  0  0  0  0
  186.9280  177.1230  146.1930 C   0  0  0  0  0  3  0  0  0  0  0  0
  183.8010  178.6920  143.1530 C   0  0  0  0  0  2  0  0  0  0  0  0
  186.4090  177.4890  147.5540 C   0  0  0  0  0  2  0  0  0  0  0  0
  184.7380  179.0240  144.2370 N   0  0  2  0  0  0  0  0  0  0  0  0
  185.2290  178.7390  142.8530 C   0  0  1  0  0  3  0  0  0  0  0  0
  2  7  2  0  0  0  0
  2  4  1  0  0  0  0
  3  1  1  0  0  0  0
  4  3  2  0  0  0  0
  5 13  1  0  0  0  0
  5  1  1  0  0  0  0
  6  5  2  0  0  0  0
  7  6  1  0  0  0  0
  9 13  1  0  0  0  0
  9 12  1  0  0  0  0
 10  9  2  0  0  0  0
 11  8  2  0  0  0  0
 12  8  1  0  0  0  0
 12 14  1  1  0  0  0
 13 11  1  0  0  0  0
 15 14  1  0  0  0  0
 15 18  1  0  0  0  0
 16 15  2  0  0  0  0
 17 18  2  0  0  0  0
 19 20  1  0  0  0  0
 19  7  1  0  0  0  0
 21 20  1  0  0  0  0
 22 23  1  0  0  0  0
 22 28  2  0  0  0  0
 23 27  1  1  0  0  0
 24 21  1  6  0  0  0
 24 32  1  0  0  0  0
 24 25  1  0  0  0  0
 25 22  1  0  0  0  0
 26 30  1  0  0  0  0
 27 26  1  0  0  0  0
 28 30  1  0  0  0  0
 31 29  1  6  0  0  0
 31 23  1  0  0  0  0
 32 29  1  6  0  0  0
 32 31  1  0  0  0  0
M  END
>  <MODEL>
3

>  <REMARK>
 VINA RESULT:      -7.3      1.735      2.785
  Name = 
  8 active torsions:
  status: ('A' for Active; 'I' for Inactive)
    1  A    between atoms: C_8  and  C_32
    2  A    between atoms: C_17  and  C_20
    3  A    between atoms: C_17  and  C_31
    4  A    between atoms: N_19  and  C_21
    5  A    between atoms: N_19  and  C_27
    6  A    between atoms: C_20  and  C_24
    7  A    between atoms: C_21  and  C_32
    8  A    between atoms: C_25  and  N_29
                            x       y       z     vdW  Elec       q    Type
                         _______ _______ _______ _____ _____    ______ ____

>  <TORSDO>
F 8

$$$$
=
 OpenBabel11062419073D

 32 36  0  0  1  0  0  0  0  0999 V2000
  192.1950  176.6240  144.4650 C   0  0  0  0  0  2  0  0  0  0  0  0
  191.6910  175.8560  147.2620 C   0  0  0  0  0  3  0  0  0  0  0  0
  193.2420  176.4910  145.4670 N   0  0  0  0  0  0  0  0  0  0  0  0
  193.0200  176.1910  146.7100 C   0  0  0  0  0  3  0  0  0  0  0  0
  191.4980  175.3180  144.2410 C   0  0  0  0  0  0  0  0  0  0  0  0
  190.7660  174.7790  145.2220 C   0  0  0  0  0  3  0  0  0  0  0  0
  190.6710  175.2700  146.6130 C   0  0  0  0  0  0  0  0  0  0  0  0
  192.2620  173.5290  140.9940 C   0  0  0  0  0  3  0  0  0  0  0  0
  190.3980  174.5320  142.0640 C   0  0  0  0  0  0  0  0  0  0  0  0
  189.3070  175.2890  142.1150 C   0  0  0  0  0  2  0  0  0  0  0  0
  192.6890  174.0860  142.3540 C   0  0  0  0  0  3  0  0  0  0  0  0
  190.7590  173.7800  140.8410 C   0  0  2  0  0  3  0  0  0  0  0  0
  191.5090  174.7000  142.9370 N   0  0  0  0  0  0  0  0  0  0  0  0
  190.0040  172.4580  140.8070 C   0  0  0  0  0  2  0  0  0  0  0  0
  189.4260  172.2060  139.4490 C   0  0  0  0  0  0  0  0  0  0  0  0
  189.9850  171.3770  138.6850 O   0  0  0  0  0  0  0  0  0  0  0  0
  188.2440  174.0950  138.4290 C   0  0  0  0  0  2  0  0  0  0  0  0
  188.2120  172.8930  138.9890 C   0  0  0  0  0  3  0  0  0  0  0  0
  189.4620  174.9700  147.3190 N   0  0  0  0  0  2  0  0  0  0  0  0
  188.1890  175.6500  147.1040 C   0  0  0  0  0  2  0  0  0  0  0  0
  188.3910  177.1540  146.9550 C   0  0  0  0  0  2  0  0  0  0  0  0
  186.5030  178.1480  143.7890 C   0  0  0  0  0  0  0  0  0  0  0  0
  185.2120  178.4970  144.5080 C   0  0  1  0  0  3  0  0  0  0  0  0
  187.2930  177.7790  146.1110 C   0  0  1  0  0  3  0  0  0  0  0  0
  187.6670  177.7280  144.6270 C   0  0  0  0  0  2  0  0  0  0  0  0
  184.0990  178.0220  142.2800 C   0  0  0  0  0  2  0  0  0  0  0  0
  184.0330  178.8190  143.5780 C   0  0  0  0  0  2  0  0  0  0  0  0
  186.5730  178.0270  142.4560 C   0  0  0  0  0  3  0  0  0  0  0  0
  184.9400  177.9970  146.7940 C   0  0  0  0  0  2  0  0  0  0  0  0
  185.4050  178.3560  141.5710 C   0  0  0  0  0  2  0  0  0  0  0  0
  184.8530  177.4250  145.4420 N   0  0  2  0  0  0  0  0  0  0  0  0
  185.9630  177.0450  146.3690 C   0  0  1  0  0  3  0  0  0  0  0  0
  1  3  1  0  0  0  0
  3  4  2  0  0  0  0
  4  2  1  0  0  0  0
  5  1  1  0  0  0  0
  5  6  2  0  0  0  0
  6  7  1  0  0  0  0
  7  2  2  0  0  0  0
  7 19  1  0  0  0  0
  8 11  2  0  0  0  0
  9 10  2  0  0  0  0
  9 13  1  0  0  0  0
 11 13  1  0  0  0  0
 12 14  1  1  0  0  0
 12  8  1  0  0  0  0
 12  9  1  0  0  0  0
 13  5  1  0  0  0  0
 15 14  1  0  0  0  0
 16 15  2  0  0  0  0
 17 18  2  0  0  0  0
 18 15  1  0  0  0  0
 20 19  1  0  0  0  0
 21 20  1  0  0  0  0
 22 23  1  0  0  0  0
 22 25  1  0  0  0  0
 23 27  1  6  0  0  0
 23 31  1  0  0  0  0
 24 32  1  0  0  0  0
 24 21  1  1  0  0  0
 25 24  1  0  0  0  0
 26 27  1  0  0  0  0
 28 22  2  0  0  0  0
 30 26  1  0  0  0  0
 30 28  1  0  0  0  0
 31 32  1  0  0  0  0
 31 29  1  1  0  0  0
 32 29  1  1  0  0  0
M  END
>  <MODEL>
4

>  <REMARK>
 VINA RESULT:      -7.1      2.359      5.281
  Name = 
  8 active torsions:
  status: ('A' for Active; 'I' for Inactive)
    1  A    between atoms: C_8  and  C_32
    2  A    between atoms: C_17  and  C_20
    3  A    between atoms: C_17  and  C_31
    4  A    between atoms: N_19  and  C_21
    5  A    between atoms: N_19  and  C_27
    6  A    between atoms: C_20  and  C_24
    7  A    between atoms: C_21  and  C_32
    8  A    between atoms: C_25  and  N_29
                            x       y       z     vdW  Elec       q    Type
                         _______ _______ _______ _____ _____    ______ ____

>  <TORSDO>
F 8

$$$$
=
 OpenBabel11062419073D

 32 36  0  0  1  0  0  0  0  0999 V2000
  189.9290  173.1430  145.0240 C   0  0  0  0  0  2  0  0  0  0  0  0
  188.7810  173.1150  142.3130 C   0  0  0  0  0  3  0  0  0  0  0  0
  189.7270  171.9300  144.2440 N   0  0  0  0  0  0  0  0  0  0  0  0
  189.1860  171.9090  143.0650 C   0  0  0  0  0  3  0  0  0  0  0  0
  190.8880  174.0650  144.3390 C   0  0  0  0  0  0  0  0  0  0  0  0
  190.5510  174.6320  143.1750 C   0  0  0  0  0  3  0  0  0  0  0  0
  189.3440  174.3340  142.3760 C   0  0  0  0  0  0  0  0  0  0  0  0
  194.3860  174.3920  145.7500 C   0  0  0  0  0  3  0  0  0  0  0  0
  192.3980  175.6790  145.6380 C   0  0  0  0  0  0  0  0  0  0  0  0
  191.4520  176.4730  146.1300 C   0  0  0  0  0  2  0  0  0  0  0  0
  193.3090  173.6090  144.9950 C   0  0  0  0  0  3  0  0  0  0  0  0
  193.7960  175.7560  146.1180 C   0  0  2  0  0  3  0  0  0  0  0  0
  192.1210  174.4460  144.9860 N   0  0  0  0  0  0  0  0  0  0  0  0
  194.5330  176.8660  145.3800 C   0  0  0  0  0  2  0  0  0  0  0  0
  195.0290  176.3880  144.0510 C   0  0  0  0  0  0  0  0  0  0  0  0
  194.2370  176.3550  143.0730 O   0  0  0  0  0  0  0  0  0  0  0  0
  197.0360  176.0690  142.6810 C   0  0  0  0  0  2  0  0  0  0  0  0
  196.4230  175.9680  143.8530 C   0  0  0  0  0  3  0  0  0  0  0  0
  188.8550  175.3840  141.5340 N   0  0  0  0  0  2  0  0  0  0  0  0
  188.5140  176.7240  141.9980 C   0  0  0  0  0  2  0  0  0  0  0  0
  187.0690  177.0690  141.6590 C   0  0  0  0  0  2  0  0  0  0  0  0
  186.2850  177.2000  145.3930 C   0  0  0  0  0  0  0  0  0  0  0  0
  184.9030  177.8020  145.2190 C   0  0  1  0  0  3  0  0  0  0  0  0
  186.2210  177.1980  142.9140 C   0  0  1  0  0  3  0  0  0  0  0  0
  187.0550  176.8700  144.1560 C   0  0  0  0  0  2  0  0  0  0  0  0
  185.2220  178.6690  147.5800 C   0  0  0  0  0  2  0  0  0  0  0  0
  184.2160  178.2090  146.5310 C   0  0  0  0  0  2  0  0  0  0  0  0
  186.8930  177.1300  146.5860 C   0  0  0  0  0  3  0  0  0  0  0  0
  184.1860  178.5640  143.1080 C   0  0  0  0  0  2  0  0  0  0  0  0
  186.1930  177.5290  147.8530 C   0  0  0  0  0  2  0  0  0  0  0  0
  184.9660  178.9420  144.2960 N   0  0  2  0  0  0  0  0  0  0  0  0
  185.6410  178.6220  143.0010 C   0  0  1  0  0  3  0  0  0  0  0  0
  2  7  2  0  0  0  0
  2  4  1  0  0  0  0
  3  1  1  0  0  0  0
  4  3  2  0  0  0  0
  5 13  1  0  0  0  0
  5  1  1  0  0  0  0
  6  5  2  0  0  0  0
  7  6  1  0  0  0  0
  8 12  1  0  0  0  0
  9 12  1  0  0  0  0
  9 10  2  0  0  0  0
 11  8  2  0  0  0  0
 12 14  1  6  0  0  0
 13 11  1  0  0  0  0
 13  9  1  0  0  0  0
 15 14  1  0  0  0  0
 16 15  2  0  0  0  0
 17 18  2  0  0  0  0
 18 15  1  0  0  0  0
 19 20  1  0  0  0  0
 19  7  1  0  0  0  0
 21 20  1  0  0  0  0
 22 28  2  0  0  0  0
 23 22  1  0  0  0  0
 23 27  1  1  0  0  0
 24 21  1  6  0  0  0
 24 32  1  0  0  0  0
 24 25  1  0  0  0  0
 25 22  1  0  0  0  0
 26 30  1  0  0  0  0
 27 26  1  0  0  0  0
 28 30  1  0  0  0  0
 31 29  1  6  0  0  0
 31 23  1  0  0  0  0
 32 29  1  6  0  0  0
 32 31  1  0  0  0  0
M  END
>  <MODEL>
5

>  <REMARK>
 VINA RESULT:      -7.0      1.705      1.984
  Name = 
  8 active torsions:
  status: ('A' for Active; 'I' for Inactive)
    1  A    between atoms: C_8  and  C_32
    2  A    between atoms: C_17  and  C_20
    3  A    between atoms: C_17  and  C_31
    4  A    between atoms: N_19  and  C_21
    5  A    between atoms: N_19  and  C_27
    6  A    between atoms: C_20  and  C_24
    7  A    between atoms: C_21  and  C_32
    8  A    between atoms: C_25  and  N_29
                            x       y       z     vdW  Elec       q    Type
                         _______ _______ _______ _____ _____    ______ ____

>  <TORSDO>
F 8

$$$$
=
 OpenBabel11062419073D

 32 36  0  0  1  0  0  0  0  0999 V2000
  189.3700  174.7560  146.3920 C   0  0  0  0  0  2  0  0  0  0  0  0
  192.0310  175.9870  146.6660 C   0  0  0  0  0  3  0  0  0  0  0  0
  190.0040  175.0340  147.6730 N   0  0  0  0  0  0  0  0  0  0  0  0
  191.1930  175.5400  147.7970 C   0  0  0  0  0  3  0  0  0  0  0  0
  189.1380  176.0200  145.6250 C   0  0  0  0  0  0  0  0  0  0  0  0
  190.1820  176.7290  145.1800 C   0  0  0  0  0  3  0  0  0  0  0  0
  191.6050  176.4770  145.4890 C   0  0  0  0  0  0  0  0  0  0  0  0
  185.5620  177.2420  145.4010 C   0  0  0  0  0  3  0  0  0  0  0  0
  187.2510  176.4400  143.9420 C   0  0  0  0  0  0  0  0  0  0  0  0
  187.7220  175.7080  142.9380 C   0  0  0  0  0  2  0  0  0  0  0  0
  186.8230  176.9160  146.2050 C   0  0  0  0  0  3  0  0  0  0  0  0
  185.8710  176.9760  143.9250 C   0  0  2  0  0  3  0  0  0  0  0  0
  187.8000  176.4130  145.2540 N   0  0  0  0  0  0  0  0  0  0  0  0
  185.8340  178.2780  143.1360 C   0  0  0  0  0  2  0  0  0  0  0  0
  184.8120  178.2140  142.0440 C   0  0  0  0  0  0  0  0  0  0  0  0
  183.5960  178.0950  142.3440 O   0  0  0  0  0  0  0  0  0  0  0  0
  186.1840  177.5850  140.1140 C   0  0  0  0  0  2  0  0  0  0  0  0
  185.1920  178.3000  140.6280 C   0  0  0  0  0  3  0  0  0  0  0  0
  192.5610  176.9120  144.5160 N   0  0  0  0  0  2  0  0  0  0  0  0
  192.4190  176.7270  143.0760 C   0  0  0  0  0  2  0  0  0  0  0  0
  193.0120  175.3930  142.6360 C   0  0  0  0  0  2  0  0  0  0  0  0
  194.5890  172.7820  144.9310 C   0  0  0  0  0  0  0  0  0  0  0  0
  195.8180  173.6110  145.2530 C   0  0  1  0  0  3  0  0  0  0  0  0
  193.9530  174.8320  143.6890 C   0  0  1  0  0  3  0  0  0  0  0  0
  193.5470  173.4020  144.0580 C   0  0  0  0  0  2  0  0  0  0  0  0
  196.9260  171.3840  145.7380 C   0  0  0  0  0  2  0  0  0  0  0  0
  196.8900  172.8720  146.0670 C   0  0  0  0  0  2  0  0  0  0  0  0
  194.4990  171.4800  145.2400 C   0  0  0  0  0  3  0  0  0  0  0  0
  196.2490  175.6160  144.0930 C   0  0  0  0  0  2  0  0  0  0  0  0
  195.5600  170.7850  146.0440 C   0  0  0  0  0  2  0  0  0  0  0  0
  196.3940  174.1540  144.0180 N   0  0  2  0  0  0  0  0  0  0  0  0
  195.4010  174.8750  143.1640 C   0  0  1  0  0  3  0  0  0  0  0  0
  1  3  1  0  0  0  0
  2  4  1  0  0  0  0
  3  4  2  0  0  0  0
  5  1  1  0  0  0  0
  6  7  1  0  0  0  0
  6  5  2  0  0  0  0
  7  2  2  0  0  0  0
  8 11  2  0  0  0  0
  9 13  1  0  0  0  0
 10  9  2  0  0  0  0
 12 14  1  6  0  0  0
 12  9  1  0  0  0  0
 12  8  1  0  0  0  0
 13  5  1  0  0  0  0
 13 11  1  0  0  0  0
 15 16  2  0  0  0  0
 15 14  1  0  0  0  0
 17 18  2  0  0  0  0
 18 15  1  0  0  0  0
 19  7  1  0  0  0  0
 20 19  1  0  0  0  0
 21 20  1  0  0  0  0
 22 28  2  0  0  0  0
 22 23  1  0  0  0  0
 23 27  1  6  0  0  0
 24 21  1  6  0  0  0
 24 25  1  0  0  0  0
 25 22  1  0  0  0  0
 26 30  1  0  0  0  0
 26 27  1  0  0  0  0
 28 30  1  0  0  0  0
 31 29  1  1  0  0  0
 31 23  1  0  0  0  0
 32 24  1  0  0  0  0
 32 31  1  0  0  0  0
 32 29  1  1  0  0  0
M  END
>  <MODEL>
6

>  <REMARK>
 VINA RESULT:      -7.0      3.204      8.285
  Name = 
  8 active torsions:
  status: ('A' for Active; 'I' for Inactive)
    1  A    between atoms: C_8  and  C_32
    2  A    between atoms: C_17  and  C_20
    3  A    between atoms: C_17  and  C_31
    4  A    between atoms: N_19  and  C_21
    5  A    between atoms: N_19  and  C_27
    6  A    between atoms: C_20  and  C_24
    7  A    between atoms: C_21  and  C_32
    8  A    between atoms: C_25  and  N_29
                            x       y       z     vdW  Elec       q    Type
                         _______ _______ _______ _____ _____    ______ ____

>  <TORSDO>
F 8

$$$$
=
 OpenBabel11062419073D

 32 36  0  0  1  0  0  0  0  0999 V2000
  194.8380  175.5110  144.2300 C   0  0  0  0  0  2  0  0  0  0  0  0
  193.3050  176.8480  146.3590 C   0  0  0  0  0  3  0  0  0  0  0  0
  195.2570  176.7480  144.8730 N   0  0  0  0  0  0  0  0  0  0  0  0
  194.5650  177.3610  145.7840 C   0  0  0  0  0  3  0  0  0  0  0  0
  194.7620  174.3920  145.2200 C   0  0  0  0  0  0  0  0  0  0  0  0
  193.8480  174.4280  146.1960 C   0  0  0  0  0  3  0  0  0  0  0  0
  192.9530  175.5600  146.5140 C   0  0  0  0  0  0  0  0  0  0  0  0
  197.4710  171.7490  145.1080 C   0  0  0  0  0  3  0  0  0  0  0  0
  195.1590  171.9340  144.6110 C   0  0  0  0  0  0  0  0  0  0  0  0
  194.0710  171.7400  143.8740 C   0  0  0  0  0  2  0  0  0  0  0  0
  196.9940  173.1730  145.4040 C   0  0  0  0  0  3  0  0  0  0  0  0
  196.2560  170.9410  144.6420 C   0  0  2  0  0  3  0  0  0  0  0  0
  195.5840  173.2170  145.0560 N   0  0  0  0  0  0  0  0  0  0  0  0
  195.9330  169.8470  145.6510 C   0  0  0  0  0  2  0  0  0  0  0  0
  196.9770  168.7750  145.6330 C   0  0  0  0  0  0  0  0  0  0  0  0
  197.2680  168.2160  144.5430 O   0  0  0  0  0  0  0  0  0  0  0  0
  197.1150  168.4160  148.0530 C   0  0  0  0  0  2  0  0  0  0  0  0
  197.6820  168.3650  146.8550 C   0  0  0  0  0  3  0  0  0  0  0  0
  191.7060  175.2380  147.1400 N   0  0  0  0  0  2  0  0  0  0  0  0
  190.5320  176.1040  147.1400 C   0  0  0  0  0  2  0  0  0  0  0  0
  189.2490  175.2840  147.0730 C   0  0  0  0  0  2  0  0  0  0  0  0
  186.1260  177.2210  146.0340 C   0  0  0  0  0  0  0  0  0  0  0  0
  186.5700  177.4290  144.5980 C   0  0  1  0  0  3  0  0  0  0  0  0
  188.2350  175.9190  146.1350 C   0  0  1  0  0  3  0  0  0  0  0  0
  187.0190  176.4150  146.9230 C   0  0  0  0  0  2  0  0  0  0  0  0
  185.0190  179.4340  144.6400 C   0  0  0  0  0  2  0  0  0  0  0  0
  185.6560  178.3500  143.7770 C   0  0  0  0  0  2  0  0  0  0  0  0
  185.0840  177.8740  146.5670 C   0  0  0  0  0  3  0  0  0  0  0  0
  188.7550  176.8620  143.9240 C   0  0  0  0  0  2  0  0  0  0  0  0
  184.2040  178.7640  145.7370 C   0  0  0  0  0  2  0  0  0  0  0  0
  187.9530  177.9150  144.5660 N   0  0  2  0  0  0  0  0  0  0  0  0
  188.9000  177.0740  145.3610 C   0  0  1  0  0  3  0  0  0  0  0  0
  1  3  1  0  0  0  0
  1  5  1  0  0  0  0
  2  7  2  0  0  0  0
  3  4  2  0  0  0  0
  4  2  1  0  0  0  0
  5  6  2  0  0  0  0
  6  7  1  0  0  0  0
  7 19  1  0  0  0  0
  8 11  2  0  0  0  0
  9 12  1  0  0  0  0
  9 13  1  0  0  0  0
 10  9  2  0  0  0  0
 12  8  1  0  0  0  0
 12 14  1  1  0  0  0
 13  5  1  0  0  0  0
 13 11  1  0  0  0  0
 15 14  1  0  0  0  0
 15 18  1  0  0  0  0
 16 15  2  0  0  0  0
 18 17  2  0  0  0  0
 20 19  1  0  0  0  0
 21 20  1  0  0  0  0
 22 28  2  0  0  0  0
 22 25  1  0  0  0  0
 23 27  1  1  0  0  0
 23 22  1  0  0  0  0
 24 25  1  0  0  0  0
 24 21  1  1  0  0  0
 26 30  1  0  0  0  0
 27 26  1  0  0  0  0
 30 28  1  0  0  0  0
 31 29  1  6  0  0  0
 31 23  1  0  0  0  0
 31 32  1  0  0  0  0
 32 29  1  6  0  0  0
 32 24  1  0  0  0  0
M  END
>  <MODEL>
7

>  <REMARK>
 VINA RESULT:      -6.9      3.800      6.247
  Name = 
  8 active torsions:
  status: ('A' for Active; 'I' for Inactive)
    1  A    between atoms: C_8  and  C_32
    2  A    between atoms: C_17  and  C_20
    3  A    between atoms: C_17  and  C_31
    4  A    between atoms: N_19  and  C_21
    5  A    between atoms: N_19  and  C_27
    6  A    between atoms: C_20  and  C_24
    7  A    between atoms: C_21  and  C_32
    8  A    between atoms: C_25  and  N_29
                            x       y       z     vdW  Elec       q    Type
                         _______ _______ _______ _____ _____    ______ ____

>  <TORSDO>
F 8

$$$$
=
 OpenBabel11062419073D

 32 36  0  0  1  0  0  0  0  0999 V2000
  189.7900  174.9800  145.7970 C   0  0  0  0  0  2  0  0  0  0  0  0
  192.1750  175.6390  147.3940 C   0  0  0  0  0  3  0  0  0  0  0  0
  189.7980  175.0380  147.2510 N   0  0  0  0  0  0  0  0  0  0  0  0
  190.8560  175.2890  147.9600 C   0  0  0  0  0  3  0  0  0  0  0  0
  190.1230  176.3150  145.2070 C   0  0  0  0  0  0  0  0  0  0  0  0
  191.3440  176.8320  145.3780 C   0  0  0  0  0  3  0  0  0  0  0  0
  192.4130  176.2830  146.2390 C   0  0  0  0  0  0  0  0  0  0  0  0
  188.1510  177.9190  142.4010 C   0  0  0  0  0  3  0  0  0  0  0  0
  187.8900  177.4750  144.7160 C   0  0  0  0  0  0  0  0  0  0  0  0
  187.5510  177.7750  145.9650 C   0  0  0  0  0  2  0  0  0  0  0  0
  189.3980  177.2070  142.9310 C   0  0  0  0  0  3  0  0  0  0  0  0
  187.1580  178.0410  143.5600 C   0  0  2  0  0  3  0  0  0  0  0  0
  189.1770  176.9890  144.3500 N   0  0  0  0  0  0  0  0  0  0  0  0
  185.9150  177.2070  143.2790 C   0  0  0  0  0  2  0  0  0  0  0  0
  184.6800  178.0500  143.3370 C   0  0  0  0  0  0  0  0  0  0  0  0
  183.7990  177.9150  142.4470 O   0  0  0  0  0  0  0  0  0  0  0  0
  184.0670  178.6660  145.6280 C   0  0  0  0  0  2  0  0  0  0  0  0
  184.4620  179.0250  144.4130 C   0  0  0  0  0  3  0  0  0  0  0  0
  193.7610  176.5880  145.8630 N   0  0  0  0  0  2  0  0  0  0  0  0
  194.3800  176.1840  144.6050 C   0  0  0  0  0  2  0  0  0  0  0  0
  194.5310  174.6690  144.5320 C   0  0  0  0  0  2  0  0  0  0  0  0
  191.4290  172.8550  143.2420 C   0  0  0  0  0  0  0  0  0  0  0  0
  191.6020  173.3020  141.8020 C   0  0  1  0  0  3  0  0  0  0  0  0
  193.5760  174.0660  143.5150 C   0  0  1  0  0  3  0  0  0  0  0  0
  192.4780  173.2680  144.2240 C   0  0  0  0  0  2  0  0  0  0  0  0
  189.1020  172.9250  141.6140 C   0  0  0  0  0  2  0  0  0  0  0  0
  190.4360  172.9280  140.8750 C   0  0  0  0  0  2  0  0  0  0  0  0
  190.3030  172.2790  143.6860 C   0  0  0  0  0  3  0  0  0  0  0  0
  193.2230  174.9150  141.2340 C   0  0  0  0  0  2  0  0  0  0  0  0
  189.1810  171.9190  142.7540 C   0  0  0  0  0  2  0  0  0  0  0  0
  191.8570  174.7460  141.7530 N   0  0  2  0  0  0  0  0  0  0  0  0
  192.9720  175.1850  142.6470 C   0  0  1  0  0  3  0  0  0  0  0  0
  1  3  1  0  0  0  0
  2  4  1  0  0  0  0
  3  4  2  0  0  0  0
  5  6  2  0  0  0  0
  5  1  1  0  0  0  0
  6  7  1  0  0  0  0
  7  2  2  0  0  0  0
  8 11  2  0  0  0  0
  8 12  1  0  0  0  0
  9 10  2  0  0  0  0
 11 13  1  0  0  0  0
 12 14  1  6  0  0  0
 12  9  1  0  0  0  0
 13  9  1  0  0  0  0
 13  5  1  0  0  0  0
 14 15  1  0  0  0  0
 15 18  1  0  0  0  0
 16 15  2  0  0  0  0
 18 17  2  0  0  0  0
 19  7  1  0  0  0  0
 20 19  1  0  0  0  0
 21 20  1  0  0  0  0
 22 28  2  0  0  0  0
 22 25  1  0  0  0  0
 23 27  1  6  0  0  0
 23 22  1  0  0  0  0
 24 25  1  0  0  0  0
 24 21  1  1  0  0  0
 26 30  1  0  0  0  0
 27 26  1  0  0  0  0
 30 28  1  0  0  0  0
 31 29  1  6  0  0  0
 31 23  1  0  0  0  0
 31 32  1  0  0  0  0
 32 29  1  6  0  0  0
 32 24  1  0  0  0  0
M  END
>  <MODEL>
8

>  <REMARK>
 VINA RESULT:      -6.9      2.612      7.162
  Name = 
  8 active torsions:
  status: ('A' for Active; 'I' for Inactive)
    1  A    between atoms: C_8  and  C_32
    2  A    between atoms: C_17  and  C_20
    3  A    between atoms: C_17  and  C_31
    4  A    between atoms: N_19  and  C_21
    5  A    between atoms: N_19  and  C_27
    6  A    between atoms: C_20  and  C_24
    7  A    between atoms: C_21  and  C_32
    8  A    between atoms: C_25  and  N_29
                            x       y       z     vdW  Elec       q    Type
                         _______ _______ _______ _____ _____    ______ ____

>  <TORSDO>
F 8

$$$$
=
 OpenBabel11062419073D

 32 36  0  0  1  0  0  0  0  0999 V2000
  189.7030  174.8090  145.2920 C   0  0  0  0  0  2  0  0  0  0  0  0
  191.4930  175.4770  147.5320 C   0  0  0  0  0  3  0  0  0  0  0  0
  189.3400  174.6470  146.6920 N   0  0  0  0  0  0  0  0  0  0  0  0
  190.1400  174.9030  147.6820 C   0  0  0  0  0  3  0  0  0  0  0  0
  189.9740  176.2450  144.9720 C   0  0  0  0  0  0  0  0  0  0  0  0
  191.0250  176.8620  145.5220 C   0  0  0  0  0  3  0  0  0  0  0  0
  191.9140  176.3110  146.5660 C   0  0  0  0  0  0  0  0  0  0  0  0
  188.5190  177.9420  141.9160 C   0  0  0  0  0  3  0  0  0  0  0  0
  187.8250  177.3380  144.1020 C   0  0  0  0  0  0  0  0  0  0  0  0
  187.2260  177.5420  145.2700 C   0  0  0  0  0  2  0  0  0  0  0  0
  189.6720  177.2520  142.6490 C   0  0  0  0  0  3  0  0  0  0  0  0
  187.3090  177.9460  142.8540 C   0  0  2  0  0  3  0  0  0  0  0  0
  189.1830  176.9330  143.9790 N   0  0  0  0  0  0  0  0  0  0  0  0
  186.1950  177.0800  142.2810 C   0  0  0  0  0  2  0  0  0  0  0  0
  185.0850  177.9240  141.7390 C   0  0  0  0  0  0  0  0  0  0  0  0
  185.1330  178.3110  140.5420 O   0  0  0  0  0  0  0  0  0  0  0  0
  184.0610  178.7310  143.8140 C   0  0  0  0  0  2  0  0  0  0  0  0
  183.9310  178.3020  142.5650 C   0  0  0  0  0  3  0  0  0  0  0  0
  193.2540  176.8150  146.6010 N   0  0  0  0  0  2  0  0  0  0  0  0
  194.4510  175.9890  146.4830 C   0  0  0  0  0  2  0  0  0  0  0  0
  194.7850  175.7170  145.0210 C   0  0  0  0  0  2  0  0  0  0  0  0
  195.9840  172.1120  145.3930 C   0  0  0  0  0  0  0  0  0  0  0  0
  194.8270  171.5050  144.6200 C   0  0  1  0  0  3  0  0  0  0  0  0
  194.8640  174.2250  144.7400 C   0  0  1  0  0  3  0  0  0  0  0  0
  196.0350  173.6010  145.5040 C   0  0  0  0  0  2  0  0  0  0  0  0
  195.3310  169.4020  145.9430 C   0  0  0  0  0  2  0  0  0  0  0  0
  194.7850  169.9700  144.6380 C   0  0  0  0  0  2  0  0  0  0  0  0
  196.8320  171.3680  146.1180 C   0  0  0  0  0  3  0  0  0  0  0  0
  192.9850  172.8300  143.9860 C   0  0  0  0  0  2  0  0  0  0  0  0
  196.7710  169.8680  146.1100 C   0  0  0  0  0  2  0  0  0  0  0  0
  193.5580  172.0610  145.1010 N   0  0  2  0  0  0  0  0  0  0  0  0
  193.5330  173.5550  145.1280 C   0  0  1  0  0  3  0  0  0  0  0  0
  1  3  1  0  0  0  0
  2  4  1  0  0  0  0
  3  4  2  0  0  0  0
  5  1  1  0  0  0  0
  5  6  2  0  0  0  0
  6  7  1  0  0  0  0
  7 19  1  0  0  0  0
  7  2  2  0  0  0  0
  8 11  2  0  0  0  0
  8 12  1  0  0  0  0
  9 10  2  0  0  0  0
 11 13  1  0  0  0  0
 12 14  1  6  0  0  0
 12  9  1  0  0  0  0
 13  9  1  0  0  0  0
 13  5  1  0  0  0  0
 15 14  1  0  0  0  0
 15 18  1  0  0  0  0
 16 15  2  0  0  0  0
 18 17  2  0  0  0  0
 20 19  1  0  0  0  0
 21 20  1  0  0  0  0
 22 25  1  0  0  0  0
 22 28  2  0  0  0  0
 23 27  1  1  0  0  0
 23 31  1  0  0  0  0
 23 22  1  0  0  0  0
 24 21  1  1  0  0  0
 24 32  1  0  0  0  0
 24 25  1  0  0  0  0
 26 30  1  0  0  0  0
 27 26  1  0  0  0  0
 30 28  1  0  0  0  0
 31 29  1  6  0  0  0
 31 32  1  0  0  0  0
 32 29  1  6  0  0  0
M  END
>  <MODEL>
9

>  <REMARK>
 VINA RESULT:      -6.8      3.114      8.515
  Name = 
  8 active torsions:
  status: ('A' for Active; 'I' for Inactive)
    1  A    between atoms: C_8  and  C_32
    2  A    between atoms: C_17  and  C_20
    3  A    between atoms: C_17  and  C_31
    4  A    between atoms: N_19  and  C_21
    5  A    between atoms: N_19  and  C_27
    6  A    between atoms: C_20  and  C_24
    7  A    between atoms: C_21  and  C_32
    8  A    between atoms: C_25  and  N_29
                            x       y       z     vdW  Elec       q    Type
                         _______ _______ _______ _____ _____    ______ ____

>  <TORSDO>
F 8

$$$$
