=
 OpenBabel11062419473D

 46 48  0  0  1  0  0  0  0  0999 V2000
  193.3930  173.9620  142.7030 C   0  0  0  0  0  0  0  0  0  0  0  0
  192.4270  174.0310  143.7250 C   0  0  0  0  0  0  0  0  0  0  0  0
  190.6790  173.9060  142.0240 C   0  0  0  0  0  0  0  0  0  0  0  0
  191.6870  173.7850  141.0400 C   0  0  0  0  0  0  0  0  0  0  0  0
  192.9930  173.8250  141.4120 N   0  0  0  0  0  0  0  0  0  0  0  0
  191.0630  174.0170  143.3720 C   0  0  0  0  0  0  0  0  0  0  0  0
  195.8660  173.3560  140.7840 C   0  0  1  0  0  3  0  0  0  0  0  0
  196.6840  172.3000  140.0550 C   0  0  0  0  0  1  0  0  0  0  0  0
  195.6670  172.9620  142.2560 C   0  0  1  0  0  3  0  0  0  0  0  0
  196.8990  172.7670  142.8880 O   0  0  0  0  0  1  0  0  0  0  0  0
  195.6440  175.7890  141.3690 C   0  0  2  0  0  3  0  0  0  0  0  0
  196.6110  175.0880  139.3030 O   0  0  0  0  0  1  0  0  0  0  0  0
  195.4530  175.4280  142.8420 C   0  0  0  0  0  2  0  0  0  0  0  0
  194.8640  174.0230  143.0160 C   0  0  1  0  0  3  0  0  0  0  0  0
  196.5010  174.7450  140.6530 C   0  0  2  0  0  3  0  0  0  0  0  0
  196.2450  177.0430  141.2770 O   0  0  0  0  0  1  0  0  0  0  0  0
  191.3650  173.5570  139.5920 C   0  0  2  0  0  3  0  0  0  0  0  0
  190.6220  172.2470  139.3980 C   0  0  0  0  0  1  0  0  0  0  0  0
  193.3090  172.4520  138.4600 O   0  0  0  0  0  1  0  0  0  0  0  0
  192.9860  174.7140  138.2840 O   0  0  0  0  0  0  0  0  0  0  0  0
  192.5920  173.6090  138.7410 C   0  0  0  0  0  0  0  0  0  0  0  0
  189.3050  173.9040  141.7260 O   0  0  0  0  0  0  0  0  0  0  0  0
  188.6150  174.9750  141.0970 C   0  0  0  0  0  2  0  0  0  0  0  0
  186.8990  176.7000  141.8550 N   0  0  0  0  0  0  0  0  0  0  0  0
  186.9160  174.5110  142.6850 O   0  0  0  0  0  0  0  0  0  0  0  0
  187.4440  175.3720  141.9310 C   0  0  0  0  0  0  0  0  0  0  0  0
  187.3860  177.6630  140.8750 C   0  0  0  0  0  2  0  0  0  0  0  0
  186.6500  177.5520  139.6950 O   0  0  0  0  0  1  0  0  0  0  0  0
  185.7480  177.0810  142.6640 C   0  0  0  0  0  2  0  0  0  0  0  0
  186.1940  177.8310  143.9090 C   0  0  1  0  0  3  0  0  0  0  0  0
  185.3010  179.0520  144.1450 C   0  0  0  0  0  2  0  0  0  0  0  0
  186.1060  176.9110  145.1230 C   0  0  0  0  0  2  0  0  0  0  0  0
  185.7350  179.7480  145.2880 O   0  0  0  0  0  0  0  0  0  0  0  0
  186.3380  177.7060  146.4050 C   0  0  1  0  0  3  0  0  0  0  0  0
  185.4320  178.9380  146.3970 C   0  0  0  0  0  2  0  0  0  0  0  0
  186.0380  176.9090  147.5090 O   0  0  0  0  0  1  0  0  0  0  0  0
  190.0030  174.1570  144.4250 C   0  0  0  0  0  2  0  0  0  0  0  0
  189.6900  175.6210  144.6750 C   0  0  0  0  0  2  0  0  0  0  0  0
  190.0760  176.8790  146.6610 O   0  0  0  0  0  0  0  0  0  0  0  0
  189.5490  175.8630  146.1350 C   0  0  0  0  0  0  0  0  0  0  0  0
  188.8060  174.9860  146.9130 O   0  0  0  0  0  1  0  0  0  0  0  0
  192.8280  174.1820  145.1720 C   0  0  0  0  0  2  0  0  0  0  0  0
  193.0990  175.5750  145.5100 N   0  0  0  0  0  2  0  0  0  0  0  0
  194.4850  177.3760  146.3800 O   0  0  0  0  0  0  0  0  0  0  0  0
  195.2100  175.2060  146.4470 O   0  0  0  0  0  1  0  0  0  0  0  0
  194.3060  176.0230  146.1280 C   0  0  0  0  0  0  0  0  0  0  0  0
  1  2  1  0  0  0  0
  2 42  1  0  0  0  0
  3  6  1  0  0  0  0
  4  5  1  0  0  0  0
  4  3  2  0  0  0  0
  5  1  2  0  0  0  0
  6  2  2  0  0  0  0
  6 37  1  0  0  0  0
  7  8  1  1  0  0  0
  7  9  1  0  0  0  0
  9 10  1  1  0  0  0
  9 14  1  0  0  0  0
 11 16  1  1  0  0  0
 11 13  1  0  0  0  0
 13 14  1  0  0  0  0
 14  1  1  6  0  0  0
 15 12  1  6  0  0  0
 15  7  1  0  0  0  0
 15 11  1  0  0  0  0
 17 18  1  1  0  0  0
 17  4  1  0  0  0  0
 19 21  1  0  0  0  0
 20 21  2  0  0  0  0
 21 17  1  0  0  0  0
 22  3  1  0  0  0  0
 23 22  1  0  0  0  0
 23 26  1  0  0  0  0
 24 26  1  0  0  0  0
 24 29  1  0  0  0  0
 26 25  2  0  0  0  0
 27 24  1  0  0  0  0
 28 27  1  0  0  0  0
 30 29  1  6  0  0  0
 30 31  1  0  0  0  0
 30 32  1  0  0  0  0
 31 33  1  0  0  0  0
 32 34  1  0  0  0  0
 33 35  1  0  0  0  0
 34 36  1  1  0  0  0
 35 34  1  0  0  0  0
 37 38  1  0  0  0  0
 38 40  1  0  0  0  0
 40 39  2  0  0  0  0
 40 41  1  0  0  0  0
 42 43  1  0  0  0  0
 43 46  1  0  0  0  0
 46 44  2  0  0  0  0
 46 45  1  0  0  0  0
M  END
>  <MODEL>
1

>  <REMARK>
 VINA RESULT:      -6.4      0.000      0.000
  Name = 
  14 active torsions:
  status: ('A' for Active; 'I' for Inactive)
    1  A    between atoms: C_3  and  N_14
    2  A    between atoms: C_4  and  C_21
    3  A    between atoms: C_5  and  C_41
    4  A    between atoms: C_6  and  C_9
    5  A    between atoms: N_7  and  C_43
    6  A    between atoms: C_9  and  N_14
    7  A    between atoms: C_12  and  C_43
    8  A    between atoms: O_13  and  C_15
    9  A    between atoms: O_13  and  C_31
   10  A    between atoms: C_21  and  C_26
   11  A    between atoms: C_23  and  C_28
   12  A    between atoms: C_23  and  C_37
   13  A    between atoms: C_26  and  C_46
   14  A    between atoms: C_31  and  C_38
                            x       y       z     vdW  Elec       q    Type
                         _______ _______ _______ _____ _____    ______ ____

>  <TORSDO>
F 14

$$$$
=
 OpenBabel11062419473D

 46 48  0  0  1  0  0  0  0  0999 V2000
  193.7260  172.8780  143.7830 C   0  0  0  0  0  0  0  0  0  0  0  0
  192.9040  173.7130  144.5650 C   0  0  0  0  0  0  0  0  0  0  0  0
  191.1240  173.4340  142.9140 C   0  0  0  0  0  0  0  0  0  0  0  0
  191.9700  172.5600  142.1940 C   0  0  0  0  0  0  0  0  0  0  0  0
  193.2290  172.3220  142.6470 N   0  0  0  0  0  0  0  0  0  0  0  0
  191.6000  173.9990  144.1110 C   0  0  0  0  0  0  0  0  0  0  0  0
  194.8710  170.2940  145.2580 C   0  0  1  0  0  3  0  0  0  0  0  0
  194.9730  169.5090  146.5580 C   0  0  0  0  0  1  0  0  0  0  0  0
  195.2180  171.7730  145.4920 C   0  0  1  0  0  3  0  0  0  0  0  0
  196.4950  171.9000  146.0470 O   0  0  0  0  0  1  0  0  0  0  0  0
  195.6000  170.4660  142.8600 C   0  0  2  0  0  3  0  0  0  0  0  0
  195.3600  168.3520  143.9400 O   0  0  0  0  0  1  0  0  0  0  0  0
  195.9640  171.9360  143.0650 C   0  0  0  0  0  2  0  0  0  0  0  0
  195.1430  172.5780  144.1910 C   0  0  1  0  0  3  0  0  0  0  0  0
  195.7450  169.6750  144.1610 C   0  0  2  0  0  3  0  0  0  0  0  0
  196.4250  169.9210  141.8780 O   0  0  0  0  0  1  0  0  0  0  0  0
  191.5060  171.8320  140.9660 C   0  0  2  0  0  3  0  0  0  0  0  0
  190.8590  170.5070  141.3280 C   0  0  0  0  0  1  0  0  0  0  0  0
  193.1090  172.7070  139.2490 O   0  0  0  0  0  0  0  0  0  0  0  0
  193.1090  170.4890  139.8240 O   0  0  0  0  0  1  0  0  0  0  0  0
  192.6190  171.6370  139.9880 C   0  0  0  0  0  0  0  0  0  0  0  0
  189.8200  173.7580  142.5040 O   0  0  0  0  0  0  0  0  0  0  0  0
  189.4820  174.8820  141.7030 C   0  0  0  0  0  2  0  0  0  0  0  0
  187.9840  176.8400  142.3470 N   0  0  0  0  0  0  0  0  0  0  0  0
  187.2000  174.6350  142.2950 O   0  0  0  0  0  0  0  0  0  0  0  0
  188.1660  175.4290  142.1400 C   0  0  0  0  0  0  0  0  0  0  0  0
  189.0340  177.7950  142.0160 C   0  0  0  0  0  2  0  0  0  0  0  0
  189.9390  177.8900  143.0740 O   0  0  0  0  0  1  0  0  0  0  0  0
  186.6920  177.3720  142.7640 C   0  0  0  0  0  2  0  0  0  0  0  0
  186.8060  178.0480  144.1210 C   0  0  1  0  0  3  0  0  0  0  0  0
  185.6700  179.0570  144.3110 C   0  0  0  0  0  2  0  0  0  0  0  0
  186.7260  177.0000  145.2260 C   0  0  0  0  0  2  0  0  0  0  0  0
  185.7960  179.6900  145.5610 O   0  0  0  0  0  0  0  0  0  0  0  0
  186.6180  177.6770  146.5890 C   0  0  1  0  0  3  0  0  0  0  0  0
  185.5020  178.7210  146.5390 C   0  0  0  0  0  2  0  0  0  0  0  0
  186.3240  176.7220  147.5620 O   0  0  0  0  0  1  0  0  0  0  0  0
  190.7170  174.9370  144.8790 C   0  0  0  0  0  2  0  0  0  0  0  0
  189.7410  174.1610  145.7450 C   0  0  0  0  0  2  0  0  0  0  0  0
  188.7060  174.4310  147.8730 O   0  0  0  0  0  1  0  0  0  0  0  0
  189.4620  174.9190  146.9920 C   0  0  0  0  0  0  0  0  0  0  0  0
  190.0630  176.1540  147.2010 O   0  0  0  0  0  0  0  0  0  0  0  0
  193.4150  174.3490  145.8330 C   0  0  0  0  0  2  0  0  0  0  0  0
  194.1900  175.5530  145.5540 N   0  0  0  0  0  2  0  0  0  0  0  0
  194.8860  177.8450  145.9860 O   0  0  0  0  0  0  0  0  0  0  0  0
  193.2610  176.8570  147.2590 O   0  0  0  0  0  1  0  0  0  0  0  0
  194.0800  176.7620  146.3070 C   0  0  0  0  0  0  0  0  0  0  0  0
  1  2  1  0  0  0  0
  2 42  1  0  0  0  0
  3  6  1  0  0  0  0
  4  5  1  0  0  0  0
  4  3  2  0  0  0  0
  5  1  2  0  0  0  0
  6  2  2  0  0  0  0
  6 37  1  0  0  0  0
  7  9  1  0  0  0  0
  7  8  1  1  0  0  0
  9 10  1  6  0  0  0
 11 16  1  6  0  0  0
 11 13  1  0  0  0  0
 11 15  1  0  0  0  0
 13 14  1  0  0  0  0
 14  1  1  6  0  0  0
 14  9  1  0  0  0  0
 15 12  1  6  0  0  0
 15  7  1  0  0  0  0
 17 18  1  1  0  0  0
 17  4  1  0  0  0  0
 19 21  2  0  0  0  0
 20 21  1  0  0  0  0
 21 17  1  0  0  0  0
 22  3  1  0  0  0  0
 23 26  1  0  0  0  0
 23 22  1  0  0  0  0
 24 29  1  0  0  0  0
 26 25  2  0  0  0  0
 26 24  1  0  0  0  0
 27 24  1  0  0  0  0
 27 28  1  0  0  0  0
 30 29  1  6  0  0  0
 30 31  1  0  0  0  0
 30 32  1  0  0  0  0
 31 33  1  0  0  0  0
 32 34  1  0  0  0  0
 33 35  1  0  0  0  0
 34 36  1  1  0  0  0
 35 34  1  0  0  0  0
 37 38  1  0  0  0  0
 38 40  1  0  0  0  0
 40 41  2  0  0  0  0
 40 39  1  0  0  0  0
 43 42  1  0  0  0  0
 43 46  1  0  0  0  0
 44 46  2  0  0  0  0
 46 45  1  0  0  0  0
M  END
>  <MODEL>
2

>  <REMARK>
 VINA RESULT:      -6.4      2.063      3.034
  Name = 
  14 active torsions:
  status: ('A' for Active; 'I' for Inactive)
    1  A    between atoms: C_3  and  N_14
    2  A    between atoms: C_4  and  C_21
    3  A    between atoms: C_5  and  C_41
    4  A    between atoms: C_6  and  C_9
    5  A    between atoms: N_7  and  C_43
    6  A    between atoms: C_9  and  N_14
    7  A    between atoms: C_12  and  C_43
    8  A    between atoms: O_13  and  C_15
    9  A    between atoms: O_13  and  C_31
   10  A    between atoms: C_21  and  C_26
   11  A    between atoms: C_23  and  C_28
   12  A    between atoms: C_23  and  C_37
   13  A    between atoms: C_26  and  C_46
   14  A    between atoms: C_31  and  C_38
                            x       y       z     vdW  Elec       q    Type
                         _______ _______ _______ _____ _____    ______ ____

>  <TORSDO>
F 14

$$$$
=
 OpenBabel11062419473D

 46 48  0  0  1  0  0  0  0  0999 V2000
  190.2460  175.7470  143.9180 C   0  0  0  0  0  0  0  0  0  0  0  0
  189.5610  176.6290  144.7770 C   0  0  0  0  0  0  0  0  0  0  0  0
  187.5210  176.2220  143.4970 C   0  0  0  0  0  0  0  0  0  0  0  0
  188.2400  175.3050  142.6980 C   0  0  0  0  0  0  0  0  0  0  0  0
  189.5650  175.1100  142.9310 N   0  0  0  0  0  0  0  0  0  0  0  0
  188.1920  176.8730  144.5470 C   0  0  0  0  0  0  0  0  0  0  0  0
  191.8320  173.0000  143.6000 C   0  0  1  0  0  3  0  0  0  0  0  0
  192.1420  171.6320  144.1900 C   0  0  0  0  0  1  0  0  0  0  0  0
  192.0050  174.0970  144.6620 C   0  0  1  0  0  3  0  0  0  0  0  0
  193.2970  174.0710  145.1960 O   0  0  0  0  0  1  0  0  0  0  0  0
  192.3310  174.6460  141.7680 C   0  0  2  0  0  3  0  0  0  0  0  0
  192.4550  172.2920  141.3960 O   0  0  0  0  0  1  0  0  0  0  0  0
  192.5190  175.7550  142.8020 C   0  0  0  0  0  2  0  0  0  0  0  0
  191.7190  175.4860  144.0830 C   0  0  1  0  0  3  0  0  0  0  0  0
  192.6850  173.2790  142.3560 C   0  0  2  0  0  3  0  0  0  0  0  0
  193.1350  174.9090  140.6600 O   0  0  0  0  0  1  0  0  0  0  0  0
  187.5780  174.4900  141.6260 C   0  0  2  0  0  3  0  0  0  0  0  0
  187.7650  173.0040  141.8760 C   0  0  0  0  0  1  0  0  0  0  0  0
  189.1010  174.1690  139.6620 O   0  0  0  0  0  0  0  0  0  0  0  0
  187.5360  175.8430  139.6650 O   0  0  0  0  0  1  0  0  0  0  0  0
  188.0630  174.8700  140.2650 C   0  0  0  0  0  0  0  0  0  0  0  0
  186.1570  176.5070  143.3090 O   0  0  0  0  0  0  0  0  0  0  0  0
  185.6470  177.3830  142.3130 C   0  0  0  0  0  2  0  0  0  0  0  0
  183.3200  178.3070  141.8380 N   0  0  0  0  0  0  0  0  0  0  0  0
  184.1700  178.1270  144.0120 O   0  0  0  0  0  0  0  0  0  0  0  0
  184.3550  177.9660  142.7750 C   0  0  0  0  0  0  0  0  0  0  0  0
  183.4420  177.9790  140.4230 C   0  0  0  0  0  2  0  0  0  0  0  0
  184.4650  178.7340  139.8480 O   0  0  0  0  0  1  0  0  0  0  0  0
  182.0540  178.8670  142.2960 C   0  0  0  0  0  2  0  0  0  0  0  0
  180.9650  178.6420  141.2590 C   0  0  1  0  0  3  0  0  0  0  0  0
  179.8180  177.8250  141.8600 C   0  0  0  0  0  2  0  0  0  0  0  0
  180.4200  179.9860  140.7850 C   0  0  0  0  0  2  0  0  0  0  0  0
  178.8250  177.6070  140.8870 O   0  0  0  0  0  0  0  0  0  0  0  0
  179.1840  179.7770  139.9150 C   0  0  1  0  0  3  0  0  0  0  0  0
  178.2120  178.8510  140.6450 C   0  0  0  0  0  2  0  0  0  0  0  0
  178.5710  181.0060  139.6740 O   0  0  0  0  0  1  0  0  0  0  0  0
  187.4430  177.8570  145.3960 C   0  0  0  0  0  2  0  0  0  0  0  0
  187.0520  177.2280  146.7210 C   0  0  0  0  0  2  0  0  0  0  0  0
  184.7970  176.4730  146.5830 O   0  0  0  0  0  0  0  0  0  0  0  0
  185.5900  177.3830  146.9410 C   0  0  0  0  0  0  0  0  0  0  0  0
  185.1020  178.5190  147.5730 O   0  0  0  0  0  1  0  0  0  0  0  0
  190.2790  177.3570  145.8850 C   0  0  0  0  0  2  0  0  0  0  0  0
  190.3600  176.5460  147.0960 N   0  0  0  0  0  2  0  0  0  0  0  0
  191.5580  175.4410  148.9030 O   0  0  0  0  0  1  0  0  0  0  0  0
  192.6930  176.5450  147.2500 O   0  0  0  0  0  0  0  0  0  0  0  0
  191.5860  176.1890  147.7340 C   0  0  0  0  0  0  0  0  0  0  0  0
  1  2  1  0  0  0  0
  2 42  1  0  0  0  0
  3  6  1  0  0  0  0
  4  5  1  0  0  0  0
  4  3  2  0  0  0  0
  5  1  2  0  0  0  0
  6  2  2  0  0  0  0
  6 37  1  0  0  0  0
  7  8  1  1  0  0  0
  7  9  1  0  0  0  0
  9 10  1  6  0  0  0
 11 16  1  6  0  0  0
 11 15  1  0  0  0  0
 11 13  1  0  0  0  0
 13 14  1  0  0  0  0
 14  1  1  6  0  0  0
 14  9  1  0  0  0  0
 15 12  1  6  0  0  0
 15  7  1  0  0  0  0
 17 18  1  1  0  0  0
 17  4  1  0  0  0  0
 19 21  2  0  0  0  0
 20 21  1  0  0  0  0
 21 17  1  0  0  0  0
 22  3  1  0  0  0  0
 23 26  1  0  0  0  0
 23 22  1  0  0  0  0
 24 29  1  0  0  0  0
 24 26  1  0  0  0  0
 26 25  2  0  0  0  0
 27 24  1  0  0  0  0
 28 27  1  0  0  0  0
 30 31  1  0  0  0  0
 30 29  1  1  0  0  0
 32 30  1  0  0  0  0
 33 31  1  0  0  0  0
 34 36  1  1  0  0  0
 34 35  1  0  0  0  0
 34 32  1  0  0  0  0
 35 33  1  0  0  0  0
 37 38  1  0  0  0  0
 38 40  1  0  0  0  0
 39 40  2  0  0  0  0
 40 41  1  0  0  0  0
 42 43  1  0  0  0  0
 43 46  1  0  0  0  0
 45 46  2  0  0  0  0
 46 44  1  0  0  0  0
M  END
>  <MODEL>
3

>  <REMARK>
 VINA RESULT:      -6.4      3.424      5.185
  Name = 
  14 active torsions:
  status: ('A' for Active; 'I' for Inactive)
    1  A    between atoms: C_3  and  N_14
    2  A    between atoms: C_4  and  C_21
    3  A    between atoms: C_5  and  C_41
    4  A    between atoms: C_6  and  C_9
    5  A    between atoms: N_7  and  C_43
    6  A    between atoms: C_9  and  N_14
    7  A    between atoms: C_12  and  C_43
    8  A    between atoms: O_13  and  C_15
    9  A    between atoms: O_13  and  C_31
   10  A    between atoms: C_21  and  C_26
   11  A    between atoms: C_23  and  C_28
   12  A    between atoms: C_23  and  C_37
   13  A    between atoms: C_26  and  C_46
   14  A    between atoms: C_31  and  C_38
                            x       y       z     vdW  Elec       q    Type
                         _______ _______ _______ _____ _____    ______ ____

>  <TORSDO>
F 14

$$$$
=
 OpenBabel11062419473D

 46 48  0  0  1  0  0  0  0  0999 V2000
  193.7520  173.5610  145.0070 C   0  0  0  0  0  0  0  0  0  0  0  0
  192.5820  174.3160  145.2170 C   0  0  0  0  0  0  0  0  0  0  0  0
  191.2750  172.4690  144.2950 C   0  0  0  0  0  0  0  0  0  0  0  0
  192.4730  171.7320  144.1540 C   0  0  0  0  0  0  0  0  0  0  0  0
  193.6550  172.3020  144.5050 N   0  0  0  0  0  0  0  0  0  0  0  0
  191.3410  173.7630  144.8420 C   0  0  0  0  0  0  0  0  0  0  0  0
  196.6160  172.2310  144.5670 C   0  0  1  0  0  3  0  0  0  0  0  0
  197.6100  171.1710  145.0180 C   0  0  0  0  0  1  0  0  0  0  0  0
  196.0960  173.0290  145.7740 C   0  0  1  0  0  3  0  0  0  0  0  0
  197.1560  173.6120  146.4760 O   0  0  0  0  0  1  0  0  0  0  0  0
  196.1920  174.1850  143.0470 C   0  0  2  0  0  3  0  0  0  0  0  0
  197.6280  172.3920  142.4000 O   0  0  0  0  0  1  0  0  0  0  0  0
  195.6800  175.0070  144.2290 C   0  0  0  0  0  2  0  0  0  0  0  0
  195.1090  174.1180  145.3410 C   0  0  1  0  0  3  0  0  0  0  0  0
  197.2220  173.1500  143.5010 C   0  0  2  0  0  3  0  0  0  0  0  0
  196.7600  175.0400  142.1040 O   0  0  0  0  0  1  0  0  0  0  0  0
  192.4820  170.3080  143.6790 C   0  0  2  0  0  3  0  0  0  0  0  0
  193.2230  169.4110  144.6540 C   0  0  0  0  0  1  0  0  0  0  0  0
  192.7840  171.1580  141.3410 O   0  0  0  0  0  0  0  0  0  0  0  0
  193.7680  169.1990  142.0080 O   0  0  0  0  0  1  0  0  0  0  0  0
  193.0510  170.1900  142.3020 C   0  0  0  0  0  0  0  0  0  0  0  0
  190.0130  171.9700  143.9310 O   0  0  0  0  0  0  0  0  0  0  0  0
  189.6160  171.6730  142.5990 C   0  0  0  0  0  2  0  0  0  0  0  0
  189.1660  173.9380  141.5220 N   0  0  0  0  0  0  0  0  0  0  0  0
  187.4350  172.5130  142.1990 O   0  0  0  0  0  0  0  0  0  0  0  0
  188.6760  172.7230  142.1130 C   0  0  0  0  0  0  0  0  0  0  0  0
  190.5860  174.1330  141.2610 C   0  0  0  0  0  2  0  0  0  0  0  0
  190.9010  173.6700  139.9830 O   0  0  0  0  0  1  0  0  0  0  0  0
  188.2420  174.9570  141.0380 C   0  0  0  0  0  2  0  0  0  0  0  0
  188.1510  176.1080  142.0270 C   0  0  1  0  0  3  0  0  0  0  0  0
  187.9770  177.4360  141.2850 C   0  0  0  0  0  2  0  0  0  0  0  0
  186.9570  175.8980  142.9520 C   0  0  0  0  0  2  0  0  0  0  0  0
  187.9130  178.4950  142.2080 O   0  0  0  0  0  0  0  0  0  0  0  0
  186.7220  177.1440  143.8020 C   0  0  1  0  0  3  0  0  0  0  0  0
  186.6870  178.3690  142.8880 C   0  0  0  0  0  2  0  0  0  0  0  0
  185.5070  177.0260  144.4760 O   0  0  0  0  0  1  0  0  0  0  0  0
  190.0790  174.5610  144.9870 C   0  0  0  0  0  2  0  0  0  0  0  0
  189.4700  174.3490  146.3610 C   0  0  0  0  0  2  0  0  0  0  0  0
  189.7850  176.4970  147.3420 O   0  0  0  0  0  1  0  0  0  0  0  0
  188.9730  175.6440  146.8960 C   0  0  0  0  0  0  0  0  0  0  0  0
  187.6140  175.9270  146.8730 O   0  0  0  0  0  0  0  0  0  0  0  0
  192.6440  175.7160  145.7730 C   0  0  0  0  0  2  0  0  0  0  0  0
  191.9130  176.6600  144.9340 N   0  0  0  0  0  2  0  0  0  0  0  0
  191.4960  177.8610  142.8590 O   0  0  0  0  0  0  0  0  0  0  0  0
  193.2930  176.4580  143.0570 O   0  0  0  0  0  1  0  0  0  0  0  0
  192.2760  176.9750  143.5890 C   0  0  0  0  0  0  0  0  0  0  0  0
  1  2  1  0  0  0  0
  2 42  1  0  0  0  0
  3  6  1  0  0  0  0
  4  3  2  0  0  0  0
  4  5  1  0  0  0  0
  5  1  2  0  0  0  0
  6 37  1  0  0  0  0
  6  2  2  0  0  0  0
  7  8  1  1  0  0  0
  7  9  1  0  0  0  0
  9 10  1  6  0  0  0
 11 16  1  6  0  0  0
 11 15  1  0  0  0  0
 11 13  1  0  0  0  0
 13 14  1  0  0  0  0
 14  1  1  6  0  0  0
 14  9  1  0  0  0  0
 15 12  1  6  0  0  0
 15  7  1  0  0  0  0
 17  4  1  0  0  0  0
 17 18  1  1  0  0  0
 19 21  2  0  0  0  0
 20 21  1  0  0  0  0
 21 17  1  0  0  0  0
 22  3  1  0  0  0  0
 23 22  1  0  0  0  0
 24 26  1  0  0  0  0
 26 25  2  0  0  0  0
 26 23  1  0  0  0  0
 27 24  1  0  0  0  0
 28 27  1  0  0  0  0
 29 24  1  0  0  0  0
 30 29  1  6  0  0  0
 30 32  1  0  0  0  0
 31 30  1  0  0  0  0
 31 33  1  0  0  0  0
 32 34  1  0  0  0  0
 33 35  1  0  0  0  0
 34 36  1  6  0  0  0
 35 34  1  0  0  0  0
 37 38  1  0  0  0  0
 38 40  1  0  0  0  0
 40 39  1  0  0  0  0
 41 40  2  0  0  0  0
 43 42  1  0  0  0  0
 44 46  2  0  0  0  0
 45 46  1  0  0  0  0
 46 43  1  0  0  0  0
M  END
>  <MODEL>
4

>  <REMARK>
 VINA RESULT:      -6.2      2.483      3.540
  Name = 
  14 active torsions:
  status: ('A' for Active; 'I' for Inactive)
    1  A    between atoms: C_3  and  N_14
    2  A    between atoms: C_4  and  C_21
    3  A    between atoms: C_5  and  C_41
    4  A    between atoms: C_6  and  C_9
    5  A    between atoms: N_7  and  C_43
    6  A    between atoms: C_9  and  N_14
    7  A    between atoms: C_12  and  C_43
    8  A    between atoms: O_13  and  C_15
    9  A    between atoms: O_13  and  C_31
   10  A    between atoms: C_21  and  C_26
   11  A    between atoms: C_23  and  C_28
   12  A    between atoms: C_23  and  C_37
   13  A    between atoms: C_26  and  C_46
   14  A    between atoms: C_31  and  C_38
                            x       y       z     vdW  Elec       q    Type
                         _______ _______ _______ _____ _____    ______ ____

>  <TORSDO>
F 14

$$$$
=
 OpenBabel11062419473D

 46 48  0  0  1  0  0  0  0  0999 V2000
  193.4000  174.8740  142.1810 C   0  0  0  0  0  0  0  0  0  0  0  0
  193.0290  174.0010  141.1400 C   0  0  0  0  0  0  0  0  0  0  0  0
  190.6840  174.4210  141.6800 C   0  0  0  0  0  0  0  0  0  0  0  0
  191.1070  175.3280  142.6770 C   0  0  0  0  0  0  0  0  0  0  0  0
  192.4360  175.5140  142.8930 N   0  0  0  0  0  0  0  0  0  0  0  0
  191.6590  173.7670  140.9050 C   0  0  0  0  0  0  0  0  0  0  0  0
  194.6390  176.3560  144.7170 C   0  0  1  0  0  3  0  0  0  0  0  0
  194.8780  177.6810  145.4270 C   0  0  0  0  0  1  0  0  0  0  0  0
  195.0580  176.4530  143.2420 C   0  0  1  0  0  3  0  0  0  0  0  0
  196.3980  176.8380  143.1310 O   0  0  0  0  0  1  0  0  0  0  0  0
  195.0690  173.8810  144.7140 C   0  0  2  0  0  3  0  0  0  0  0  0
  194.8990  175.1130  146.7500 O   0  0  0  0  0  1  0  0  0  0  0  0
  195.5010  173.9470  143.2500 C   0  0  0  0  0  2  0  0  0  0  0  0
  194.8460  175.1220  142.5120 C   0  0  1  0  0  3  0  0  0  0  0  0
  195.3500  175.2010  145.4320 C   0  0  2  0  0  3  0  0  0  0  0  0
  195.7470  172.8410  145.3470 O   0  0  0  0  0  1  0  0  0  0  0  0
  190.1350  176.1460  143.4760 C   0  0  2  0  0  3  0  0  0  0  0  0
  190.6310  177.5710  143.6490 C   0  0  0  0  0  1  0  0  0  0  0  0
  189.9370  176.2550  145.9720 O   0  0  0  0  0  1  0  0  0  0  0  0
  189.5190  174.3010  144.8520 O   0  0  0  0  0  0  0  0  0  0  0  0
  189.8420  175.5160  144.7990 C   0  0  0  0  0  0  0  0  0  0  0  0
  189.3330  174.1460  141.4080 O   0  0  0  0  0  0  0  0  0  0  0  0
  188.4300  175.0620  140.8030 C   0  0  0  0  0  2  0  0  0  0  0  0
  186.7230  176.7050  141.7420 N   0  0  0  0  0  0  0  0  0  0  0  0
  186.9740  174.5410  142.6000 O   0  0  0  0  0  0  0  0  0  0  0  0
  187.3510  175.4130  141.7710 C   0  0  0  0  0  0  0  0  0  0  0  0
  187.0250  177.6690  140.6920 C   0  0  0  0  0  2  0  0  0  0  0  0
  186.1370  177.5050  139.6280 O   0  0  0  0  0  1  0  0  0  0  0  0
  185.6610  177.0400  142.6840 C   0  0  0  0  0  2  0  0  0  0  0  0
  186.2220  177.8110  143.8680 C   0  0  1  0  0  3  0  0  0  0  0  0
  185.3210  179.0040  144.2010 C   0  0  0  0  0  2  0  0  0  0  0  0
  186.3020  176.8970  145.0860 C   0  0  0  0  0  2  0  0  0  0  0  0
  185.8590  179.7210  145.2850 O   0  0  0  0  0  0  0  0  0  0  0  0
  186.6530  177.7060  146.3320 C   0  0  1  0  0  3  0  0  0  0  0  0
  185.7110  178.9080  146.4240 C   0  0  0  0  0  2  0  0  0  0  0  0
  186.5060  176.9060  147.4640 O   0  0  0  0  0  1  0  0  0  0  0  0
  191.2240  172.7930  139.8510 C   0  0  0  0  0  2  0  0  0  0  0  0
  190.9380  173.5130  138.5460 C   0  0  0  0  0  2  0  0  0  0  0  0
  190.9030  171.4930  137.2830 O   0  0  0  0  0  1  0  0  0  0  0  0
  190.3210  172.5710  137.5760 C   0  0  0  0  0  0  0  0  0  0  0  0
  189.0830  172.8630  137.0180 O   0  0  0  0  0  0  0  0  0  0  0  0
  194.0670  173.2700  140.3250 C   0  0  0  0  0  2  0  0  0  0  0  0
  194.5190  174.0700  139.1920 N   0  0  0  0  0  2  0  0  0  0  0  0
  196.2180  175.1780  137.8460 O   0  0  0  0  0  0  0  0  0  0  0  0
  196.7790  174.1120  139.7920 O   0  0  0  0  0  1  0  0  0  0  0  0
  195.8810  174.4430  138.9740 C   0  0  0  0  0  0  0  0  0  0  0  0
  1  5  1  0  0  0  0
  2  1  2  0  0  0  0
  3  4  1  0  0  0  0
  4  5  2  0  0  0  0
  4 17  1  0  0  0  0
  6  2  1  0  0  0  0
  6  3  2  0  0  0  0
  7  8  1  1  0  0  0
  7 15  1  0  0  0  0
  9 10  1  1  0  0  0
  9  7  1  0  0  0  0
 11 16  1  1  0  0  0
 11 15  1  0  0  0  0
 13 11  1  0  0  0  0
 14  1  1  1  0  0  0
 14  9  1  0  0  0  0
 14 13  1  0  0  0  0
 15 12  1  1  0  0  0
 17 18  1  1  0  0  0
 17 21  1  0  0  0  0
 21 20  2  0  0  0  0
 21 19  1  0  0  0  0
 22  3  1  0  0  0  0
 23 22  1  0  0  0  0
 23 26  1  0  0  0  0
 24 26  1  0  0  0  0
 24 29  1  0  0  0  0
 26 25  2  0  0  0  0
 27 24  1  0  0  0  0
 28 27  1  0  0  0  0
 30 29  1  6  0  0  0
 30 31  1  0  0  0  0
 30 32  1  0  0  0  0
 31 33  1  0  0  0  0
 32 34  1  0  0  0  0
 33 35  1  0  0  0  0
 34 35  1  0  0  0  0
 34 36  1  1  0  0  0
 37  6  1  0  0  0  0
 38 37  1  0  0  0  0
 39 40  1  0  0  0  0
 40 38  1  0  0  0  0
 41 40  2  0  0  0  0
 42  2  1  0  0  0  0
 43 42  1  0  0  0  0
 44 46  2  0  0  0  0
 46 43  1  0  0  0  0
 46 45  1  0  0  0  0
M  END
>  <MODEL>
5

>  <REMARK>
 VINA RESULT:      -6.2      1.485      5.029
  Name = 
  14 active torsions:
  status: ('A' for Active; 'I' for Inactive)
    1  A    between atoms: C_3  and  N_14
    2  A    between atoms: C_4  and  C_21
    3  A    between atoms: C_5  and  C_41
    4  A    between atoms: C_6  and  C_9
    5  A    between atoms: N_7  and  C_43
    6  A    between atoms: C_9  and  N_14
    7  A    between atoms: C_12  and  C_43
    8  A    between atoms: O_13  and  C_15
    9  A    between atoms: O_13  and  C_31
   10  A    between atoms: C_21  and  C_26
   11  A    between atoms: C_23  and  C_28
   12  A    between atoms: C_23  and  C_37
   13  A    between atoms: C_26  and  C_46
   14  A    between atoms: C_31  and  C_38
                            x       y       z     vdW  Elec       q    Type
                         _______ _______ _______ _____ _____    ______ ____

>  <TORSDO>
F 14

$$$$
=
 OpenBabel11062419473D

 46 48  0  0  1  0  0  0  0  0999 V2000
  192.8750  174.9950  141.6490 C   0  0  0  0  0  0  0  0  0  0  0  0
  192.1400  175.6720  142.6410 C   0  0  0  0  0  0  0  0  0  0  0  0
  190.0910  174.7240  141.7080 C   0  0  0  0  0  0  0  0  0  0  0  0
  190.8790  174.0240  140.7670 C   0  0  0  0  0  0  0  0  0  0  0  0
  192.2270  174.1890  140.7670 N   0  0  0  0  0  0  0  0  0  0  0  0
  190.7360  175.5410  142.6530 C   0  0  0  0  0  0  0  0  0  0  0  0
  195.0650  172.7300  141.1620 C   0  0  1  0  0  3  0  0  0  0  0  0
  195.8230  171.5450  141.7420 C   0  0  0  0  0  1  0  0  0  0  0  0
  195.1090  173.9240  142.1290 C   0  0  1  0  0  3  0  0  0  0  0  0
  196.4300  174.2770  142.4210 O   0  0  0  0  0  1  0  0  0  0  0  0
  194.7980  174.2810  139.2040 C   0  0  2  0  0  3  0  0  0  0  0  0
  195.4860  172.0150  138.9120 O   0  0  0  0  0  1  0  0  0  0  0  0
  194.8490  175.4880  140.1400 C   0  0  0  0  0  2  0  0  0  0  0  0
  194.3700  175.1360  141.5540 C   0  0  1  0  0  3  0  0  0  0  0  0
  195.5960  173.1080  139.7740 C   0  0  2  0  0  3  0  0  0  0  0  0
  195.3090  174.6440  137.9590 O   0  0  0  0  0  1  0  0  0  0  0  0
  190.2810  173.0510  139.7930 C   0  0  2  0  0  3  0  0  0  0  0  0
  191.2100  171.8730  139.5570 C   0  0  0  0  0  1  0  0  0  0  0  0
  188.6030  174.0760  138.2390 O   0  0  0  0  0  1  0  0  0  0  0  0
  190.8110  173.9350  137.6450 O   0  0  0  0  0  0  0  0  0  0  0  0
  189.9180  173.7140  138.5040 C   0  0  0  0  0  0  0  0  0  0  0  0
  188.6890  174.6350  141.7610 O   0  0  0  0  0  0  0  0  0  0  0  0
  187.7980  175.6250  141.2650 C   0  0  0  0  0  2  0  0  0  0  0  0
  186.2010  177.2460  142.4110 N   0  0  0  0  0  0  0  0  0  0  0  0
  186.3680  175.0000  143.0490 O   0  0  0  0  0  0  0  0  0  0  0  0
  186.7650  175.9290  142.2960 C   0  0  0  0  0  0  0  0  0  0  0  0
  186.5200  178.2930  141.4480 C   0  0  0  0  0  2  0  0  0  0  0  0
  185.6460  178.2240  140.3640 O   0  0  0  0  0  1  0  0  0  0  0  0
  185.1830  177.5370  143.4130 C   0  0  0  0  0  2  0  0  0  0  0  0
  185.8230  178.0750  144.6830 C   0  0  1  0  0  3  0  0  0  0  0  0
  184.9520  179.1770  145.2930 C   0  0  0  0  0  2  0  0  0  0  0  0
  185.9770  176.9470  145.6990 C   0  0  0  0  0  2  0  0  0  0  0  0
  185.5620  179.6800  146.4560 O   0  0  0  0  0  0  0  0  0  0  0  0
  186.4110  177.5090  147.0500 C   0  0  1  0  0  3  0  0  0  0  0  0
  185.4840  178.6650  147.4280 C   0  0  0  0  0  2  0  0  0  0  0  0
  186.3340  176.5090  148.0180 O   0  0  0  0  0  1  0  0  0  0  0  0
  189.9110  176.2990  143.6500 C   0  0  0  0  0  2  0  0  0  0  0  0
  189.5570  175.4130  144.8310 C   0  0  0  0  0  2  0  0  0  0  0  0
  189.7780  175.5630  147.1980 O   0  0  0  0  0  1  0  0  0  0  0  0
  189.7210  176.1730  146.0980 C   0  0  0  0  0  0  0  0  0  0  0  0
  189.8450  177.5560  146.0650 O   0  0  0  0  0  0  0  0  0  0  0  0
  192.8200  176.5750  143.6390 C   0  0  0  0  0  2  0  0  0  0  0  0
  193.3500  175.8220  144.7710 N   0  0  0  0  0  2  0  0  0  0  0  0
  195.0410  175.3010  146.4420 O   0  0  0  0  0  1  0  0  0  0  0  0
  195.4150  176.9150  144.8630 O   0  0  0  0  0  0  0  0  0  0  0  0
  194.6390  176.0470  145.3420 C   0  0  0  0  0  0  0  0  0  0  0  0
  1  2  1  0  0  0  0
  2  6  2  0  0  0  0
  2 42  1  0  0  0  0
  3 22  1  0  0  0  0
  3  6  1  0  0  0  0
  4  3  2  0  0  0  0
  5  4  1  0  0  0  0
  5  1  2  0  0  0  0
  6 37  1  0  0  0  0
  7  8  1  1  0  0  0
  7  9  1  0  0  0  0
  9 10  1  6  0  0  0
 11 16  1  6  0  0  0
 11 15  1  0  0  0  0
 11 13  1  0  0  0  0
 13 14  1  0  0  0  0
 14  1  1  6  0  0  0
 14  9  1  0  0  0  0
 15 12  1  6  0  0  0
 15  7  1  0  0  0  0
 17 18  1  6  0  0  0
 17  4  1  0  0  0  0
 19 21  1  0  0  0  0
 20 21  2  0  0  0  0
 21 17  1  0  0  0  0
 23 22  1  0  0  0  0
 23 26  1  0  0  0  0
 24 29  1  0  0  0  0
 26 24  1  0  0  0  0
 26 25  2  0  0  0  0
 27 24  1  0  0  0  0
 28 27  1  0  0  0  0
 30 29  1  6  0  0  0
 30 31  1  0  0  0  0
 30 32  1  0  0  0  0
 31 33  1  0  0  0  0
 32 34  1  0  0  0  0
 33 35  1  0  0  0  0
 34 35  1  0  0  0  0
 34 36  1  1  0  0  0
 37 38  1  0  0  0  0
 38 40  1  0  0  0  0
 40 39  1  0  0  0  0
 41 40  2  0  0  0  0
 42 43  1  0  0  0  0
 43 46  1  0  0  0  0
 45 46  2  0  0  0  0
 46 44  1  0  0  0  0
M  END
>  <MODEL>
6

>  <REMARK>
 VINA RESULT:      -6.1      1.411      1.888
  Name = 
  14 active torsions:
  status: ('A' for Active; 'I' for Inactive)
    1  A    between atoms: C_3  and  N_14
    2  A    between atoms: C_4  and  C_21
    3  A    between atoms: C_5  and  C_41
    4  A    between atoms: C_6  and  C_9
    5  A    between atoms: N_7  and  C_43
    6  A    between atoms: C_9  and  N_14
    7  A    between atoms: C_12  and  C_43
    8  A    between atoms: O_13  and  C_15
    9  A    between atoms: O_13  and  C_31
   10  A    between atoms: C_21  and  C_26
   11  A    between atoms: C_23  and  C_28
   12  A    between atoms: C_23  and  C_37
   13  A    between atoms: C_26  and  C_46
   14  A    between atoms: C_31  and  C_38
                            x       y       z     vdW  Elec       q    Type
                         _______ _______ _______ _____ _____    ______ ____

>  <TORSDO>
F 14

$$$$
=
 OpenBabel11062419473D

 46 48  0  0  1  0  0  0  0  0999 V2000
  192.3630  174.2540  143.0570 C   0  0  0  0  0  0  0  0  0  0  0  0
  191.7260  174.0110  141.8250 C   0  0  0  0  0  0  0  0  0  0  0  0
  189.6890  175.0110  142.7310 C   0  0  0  0  0  0  0  0  0  0  0  0
  190.3900  175.2800  143.9280 C   0  0  0  0  0  0  0  0  0  0  0  0
  191.6860  174.8890  144.0480 N   0  0  0  0  0  0  0  0  0  0  0  0
  190.3740  174.3820  141.6760 C   0  0  0  0  0  0  0  0  0  0  0  0
  195.0210  175.9990  142.8190 C   0  0  1  0  0  3  0  0  0  0  0  0
  196.0140  176.6860  141.8930 C   0  0  0  0  0  1  0  0  0  0  0  0
  194.7710  174.5530  142.3620 C   0  0  1  0  0  3  0  0  0  0  0  0
  195.9710  173.8360  142.3050 O   0  0  0  0  0  1  0  0  0  0  0  0
  194.4520  175.3860  145.1880 C   0  0  2  0  0  3  0  0  0  0  0  0
  195.6430  177.3890  144.6700 O   0  0  0  0  0  1  0  0  0  0  0  0
  194.2070  173.9380  144.7650 C   0  0  0  0  0  2  0  0  0  0  0  0
  193.7890  173.8340  143.2930 C   0  0  1  0  0  3  0  0  0  0  0  0
  195.4830  176.0580  144.2790 C   0  0  2  0  0  3  0  0  0  0  0  0
  194.8950  175.4110  146.5090 O   0  0  0  0  0  1  0  0  0  0  0  0
  189.7670  176.0400  145.0630 C   0  0  2  0  0  3  0  0  0  0  0  0
  190.3410  177.4430  145.1620 C   0  0  0  0  0  1  0  0  0  0  0  0
  190.7050  175.8230  147.3770 O   0  0  0  0  0  1  0  0  0  0  0  0
  189.3140  174.2140  146.5240 O   0  0  0  0  0  0  0  0  0  0  0  0
  189.9100  175.3100  146.3590 C   0  0  0  0  0  0  0  0  0  0  0  0
  188.3410  175.3530  142.5310 O   0  0  0  0  0  0  0  0  0  0  0  0
  187.8800  176.2820  141.5580 C   0  0  0  0  0  2  0  0  0  0  0  0
  186.4000  178.1180  142.5230 N   0  0  0  0  0  0  0  0  0  0  0  0
  188.7330  178.3030  142.4570 O   0  0  0  0  0  0  0  0  0  0  0  0
  187.7070  177.6210  142.1890 C   0  0  0  0  0  0  0  0  0  0  0  0
  185.2140  177.2850  142.3750 C   0  0  0  0  0  2  0  0  0  0  0  0
  184.2910  177.9160  141.5400 O   0  0  0  0  0  1  0  0  0  0  0  0
  186.2360  179.4250  143.1500 C   0  0  0  0  0  2  0  0  0  0  0  0
  185.8900  179.2700  144.6220 C   0  0  1  0  0  3  0  0  0  0  0  0
  184.3880  179.0300  144.7940 C   0  0  0  0  0  2  0  0  0  0  0  0
  186.6510  178.0840  145.2070 C   0  0  0  0  0  2  0  0  0  0  0  0
  184.0770  178.9070  146.1600 O   0  0  0  0  0  0  0  0  0  0  0  0
  186.1520  177.7800  146.6170 C   0  0  1  0  0  3  0  0  0  0  0  0
  184.6260  177.6870  146.5950 C   0  0  0  0  0  2  0  0  0  0  0  0
  186.6900  176.5700  147.0520 O   0  0  0  0  0  1  0  0  0  0  0  0
  189.6390  174.0800  140.4040 C   0  0  0  0  0  2  0  0  0  0  0  0
  188.9930  172.7080  140.4740 C   0  0  0  0  0  2  0  0  0  0  0  0
  190.1010  170.8930  139.4000 O   0  0  0  0  0  1  0  0  0  0  0  0
  189.3700  171.9120  139.2770 C   0  0  0  0  0  0  0  0  0  0  0  0
  188.8880  172.2720  138.0260 O   0  0  0  0  0  0  0  0  0  0  0  0
  192.4420  173.3090  140.6990 C   0  0  0  0  0  2  0  0  0  0  0  0
  192.8550  174.2460  139.6590 N   0  0  0  0  0  2  0  0  0  0  0  0
  193.1370  174.9490  137.3460 O   0  0  0  0  0  0  0  0  0  0  0  0
  192.3060  172.8760  137.8450 O   0  0  0  0  0  1  0  0  0  0  0  0
  192.7480  173.9790  138.2600 C   0  0  0  0  0  0  0  0  0  0  0  0
  1  5  1  0  0  0  0
  2  1  2  0  0  0  0
  3  4  1  0  0  0  0
  4  5  2  0  0  0  0
  4 17  1  0  0  0  0
  6  2  1  0  0  0  0
  6  3  2  0  0  0  0
  7  8  1  6  0  0  0
  7 15  1  0  0  0  0
  9 10  1  1  0  0  0
  9  7  1  0  0  0  0
  9 14  1  0  0  0  0
 11 16  1  1  0  0  0
 13 11  1  0  0  0  0
 14  1  1  1  0  0  0
 14 13  1  0  0  0  0
 15 12  1  1  0  0  0
 15 11  1  0  0  0  0
 17 18  1  1  0  0  0
 17 21  1  0  0  0  0
 21 20  2  0  0  0  0
 21 19  1  0  0  0  0
 22  3  1  0  0  0  0
 23 26  1  0  0  0  0
 23 22  1  0  0  0  0
 24 29  1  0  0  0  0
 26 25  2  0  0  0  0
 26 24  1  0  0  0  0
 27 24  1  0  0  0  0
 28 27  1  0  0  0  0
 30 29  1  6  0  0  0
 30 31  1  0  0  0  0
 30 32  1  0  0  0  0
 31 33  1  0  0  0  0
 32 34  1  0  0  0  0
 33 35  1  0  0  0  0
 34 36  1  6  0  0  0
 35 34  1  0  0  0  0
 37 38  1  0  0  0  0
 37  6  1  0  0  0  0
 40 39  1  0  0  0  0
 40 38  1  0  0  0  0
 41 40  2  0  0  0  0
 42  2  1  0  0  0  0
 43 42  1  0  0  0  0
 44 46  2  0  0  0  0
 45 46  1  0  0  0  0
 46 43  1  0  0  0  0
M  END
>  <MODEL>
7

>  <REMARK>
 VINA RESULT:      -6.1      1.632      5.061
  Name = 
  14 active torsions:
  status: ('A' for Active; 'I' for Inactive)
    1  A    between atoms: C_3  and  N_14
    2  A    between atoms: C_4  and  C_21
    3  A    between atoms: C_5  and  C_41
    4  A    between atoms: C_6  and  C_9
    5  A    between atoms: N_7  and  C_43
    6  A    between atoms: C_9  and  N_14
    7  A    between atoms: C_12  and  C_43
    8  A    between atoms: O_13  and  C_15
    9  A    between atoms: O_13  and  C_31
   10  A    between atoms: C_21  and  C_26
   11  A    between atoms: C_23  and  C_28
   12  A    between atoms: C_23  and  C_37
   13  A    between atoms: C_26  and  C_46
   14  A    between atoms: C_31  and  C_38
                            x       y       z     vdW  Elec       q    Type
                         _______ _______ _______ _____ _____    ______ ____

>  <TORSDO>
F 14

$$$$
=
 OpenBabel11062419473D

 46 48  0  0  1  0  0  0  0  0999 V2000
  193.1960  173.5890  142.5240 C   0  0  0  0  0  0  0  0  0  0  0  0
  192.6370  172.9940  141.3770 C   0  0  0  0  0  0  0  0  0  0  0  0
  190.4630  173.9100  142.0120 C   0  0  0  0  0  0  0  0  0  0  0  0
  191.0830  174.5310  143.1200 C   0  0  0  0  0  0  0  0  0  0  0  0
  192.4110  174.3430  143.3370 N   0  0  0  0  0  0  0  0  0  0  0  0
  191.2570  173.1480  141.1350 C   0  0  0  0  0  0  0  0  0  0  0  0
  195.5160  175.7750  142.5220 C   0  0  1  0  0  3  0  0  0  0  0  0
  196.4380  176.6530  141.6880 C   0  0  0  0  0  1  0  0  0  0  0  0
  195.5570  174.3220  142.0210 C   0  0  1  0  0  3  0  0  0  0  0  0
  196.8650  173.8270  142.0450 O   0  0  0  0  0  1  0  0  0  0  0  0
  194.8930  175.0000  144.8290 C   0  0  2  0  0  3  0  0  0  0  0  0
  195.7480  177.1940  144.4400 O   0  0  0  0  0  1  0  0  0  0  0  0
  194.9370  173.5450  144.3630 C   0  0  0  0  0  2  0  0  0  0  0  0
  194.6520  173.4160  142.8610 C   0  0  1  0  0  3  0  0  0  0  0  0
  195.8530  175.8680  144.0140 C   0  0  2  0  0  3  0  0  0  0  0  0
  195.2280  175.0600  146.1800 O   0  0  0  0  0  1  0  0  0  0  0  0
  190.3330  175.4460  144.0440 C   0  0  2  0  0  3  0  0  0  0  0  0
  191.2290  176.5580  144.5590 C   0  0  0  0  0  1  0  0  0  0  0  0
  189.1330  175.3730  146.2430 O   0  0  0  0  0  1  0  0  0  0  0  0
  189.7090  173.4360  145.1620 O   0  0  0  0  0  0  0  0  0  0  0  0
  189.7060  174.6950  145.1730 C   0  0  0  0  0  0  0  0  0  0  0  0
  189.0920  174.0260  141.7270 O   0  0  0  0  0  0  0  0  0  0  0  0
  188.4720  175.1960  141.2110 C   0  0  0  0  0  2  0  0  0  0  0  0
  186.7870  176.9020  142.0760 N   0  0  0  0  0  0  0  0  0  0  0  0
  186.7550  174.6620  142.7570 O   0  0  0  0  0  0  0  0  0  0  0  0
  187.3050  175.5610  142.0650 C   0  0  0  0  0  0  0  0  0  0  0  0
  187.2980  177.9170  141.1640 C   0  0  0  0  0  2  0  0  0  0  0  0
  188.4900  178.4450  141.6600 O   0  0  0  0  0  1  0  0  0  0  0  0
  185.6400  177.2520  142.9040 C   0  0  0  0  0  2  0  0  0  0  0  0
  186.0920  177.9580  144.1720 C   0  0  1  0  0  3  0  0  0  0  0  0
  185.1280  179.0960  144.5210 C   0  0  0  0  0  2  0  0  0  0  0  0
  186.1250  176.9650  145.3300 C   0  0  0  0  0  2  0  0  0  0  0  0
  185.5670  179.7540  145.6850 O   0  0  0  0  0  0  0  0  0  0  0  0
  186.3630  177.6980  146.6470 C   0  0  1  0  0  3  0  0  0  0  0  0
  185.3740  178.8600  146.7550 C   0  0  0  0  0  2  0  0  0  0  0  0
  186.1710  176.8180  147.7120 O   0  0  0  0  0  1  0  0  0  0  0  0
  190.6100  172.4750  139.9620 C   0  0  0  0  0  2  0  0  0  0  0  0
  190.6070  173.3950  138.7540 C   0  0  0  0  0  2  0  0  0  0  0  0
  189.0280  174.1360  137.1320 O   0  0  0  0  0  0  0  0  0  0  0  0
  189.2470  173.4370  138.1570 C   0  0  0  0  0  0  0  0  0  0  0  0
  188.2240  172.6780  138.7100 O   0  0  0  0  0  1  0  0  0  0  0  0
  193.4730  172.1490  140.4480 C   0  0  0  0  0  2  0  0  0  0  0  0
  193.5100  170.7550  140.8780 N   0  0  0  0  0  2  0  0  0  0  0  0
  194.6410  168.7350  141.6290 O   0  0  0  0  0  1  0  0  0  0  0  0
  195.8340  170.6120  141.0890 O   0  0  0  0  0  0  0  0  0  0  0  0
  194.7110  170.0520  141.1960 C   0  0  0  0  0  0  0  0  0  0  0  0
  1  5  1  0  0  0  0
  2  1  2  0  0  0  0
  3  4  1  0  0  0  0
  4  5  2  0  0  0  0
  4 17  1  0  0  0  0
  6  2  1  0  0  0  0
  6  3  2  0  0  0  0
  7  8  1  6  0  0  0
  7 15  1  0  0  0  0
  9 10  1  1  0  0  0
  9  7  1  0  0  0  0
  9 14  1  0  0  0  0
 11 16  1  1  0  0  0
 13 11  1  0  0  0  0
 14  1  1  1  0  0  0
 14 13  1  0  0  0  0
 15 12  1  1  0  0  0
 15 11  1  0  0  0  0
 17 18  1  1  0  0  0
 17 21  1  0  0  0  0
 20 21  2  0  0  0  0
 21 19  1  0  0  0  0
 22  3  1  0  0  0  0
 23 22  1  0  0  0  0
 23 26  1  0  0  0  0
 24 29  1  0  0  0  0
 26 24  1  0  0  0  0
 26 25  2  0  0  0  0
 27 28  1  0  0  0  0
 27 24  1  0  0  0  0
 30 29  1  6  0  0  0
 30 31  1  0  0  0  0
 30 32  1  0  0  0  0
 31 33  1  0  0  0  0
 32 34  1  0  0  0  0
 33 35  1  0  0  0  0
 34 35  1  0  0  0  0
 34 36  1  1  0  0  0
 37  6  1  0  0  0  0
 38 37  1  0  0  0  0
 39 40  2  0  0  0  0
 40 41  1  0  0  0  0
 40 38  1  0  0  0  0
 42 43  1  0  0  0  0
 42  2  1  0  0  0  0
 43 46  1  0  0  0  0
 45 46  2  0  0  0  0
 46 44  1  0  0  0  0
M  END
>  <MODEL>
8

>  <REMARK>
 VINA RESULT:      -6.1      1.745      4.690
  Name = 
  14 active torsions:
  status: ('A' for Active; 'I' for Inactive)
    1  A    between atoms: C_3  and  N_14
    2  A    between atoms: C_4  and  C_21
    3  A    between atoms: C_5  and  C_41
    4  A    between atoms: C_6  and  C_9
    5  A    between atoms: N_7  and  C_43
    6  A    between atoms: C_9  and  N_14
    7  A    between atoms: C_12  and  C_43
    8  A    between atoms: O_13  and  C_15
    9  A    between atoms: O_13  and  C_31
   10  A    between atoms: C_21  and  C_26
   11  A    between atoms: C_23  and  C_28
   12  A    between atoms: C_23  and  C_37
   13  A    between atoms: C_26  and  C_46
   14  A    between atoms: C_31  and  C_38
                            x       y       z     vdW  Elec       q    Type
                         _______ _______ _______ _____ _____    ______ ____

>  <TORSDO>
F 14

$$$$
=
 OpenBabel11062419473D

 46 48  0  0  1  0  0  0  0  0999 V2000
  192.5920  173.6670  140.0630 C   0  0  0  0  0  0  0  0  0  0  0  0
  193.5920  174.4490  140.6730 C   0  0  0  0  0  0  0  0  0  0  0  0
  191.9230  175.2690  142.2580 C   0  0  0  0  0  0  0  0  0  0  0  0
  190.9700  174.4250  141.6450 C   0  0  0  0  0  0  0  0  0  0  0  0
  191.3340  173.6680  140.5760 N   0  0  0  0  0  0  0  0  0  0  0  0
  193.2410  175.2650  141.7680 C   0  0  0  0  0  0  0  0  0  0  0  0
  190.6260  171.7760  138.4120 C   0  0  1  0  0  3  0  0  0  0  0  0
  189.8410  170.4740  138.3800 C   0  0  0  0  0  1  0  0  0  0  0  0
  192.0800  171.5190  138.8410 C   0  0  1  0  0  3  0  0  0  0  0  0
  192.6920  170.5940  137.9890 O   0  0  0  0  0  1  0  0  0  0  0  0
  191.3290  173.8240  137.1370 C   0  0  2  0  0  3  0  0  0  0  0  0
  189.2240  172.7710  136.7410 O   0  0  0  0  0  1  0  0  0  0  0  0
  192.7840  173.5880  137.5390 C   0  0  0  0  0  2  0  0  0  0  0  0
  192.8950  172.8160  138.8600 C   0  0  1  0  0  3  0  0  0  0  0  0
  190.5560  172.5060  137.0660 C   0  0  2  0  0  3  0  0  0  0  0  0
  191.2920  174.4650  135.9000 O   0  0  0  0  0  1  0  0  0  0  0  0
  189.5700  174.2890  142.1690 C   0  0  2  0  0  3  0  0  0  0  0  0
  189.4320  173.0560  143.0450 C   0  0  0  0  0  1  0  0  0  0  0  0
  188.0640  173.0750  140.5760 O   0  0  0  0  0  1  0  0  0  0  0  0
  188.1820  175.3630  140.5590 O   0  0  0  0  0  0  0  0  0  0  0  0
  188.5660  174.2760  141.0630 C   0  0  0  0  0  0  0  0  0  0  0  0
  191.6270  176.1050  143.3480 O   0  0  0  0  0  0  0  0  0  0  0  0
  191.4030  175.6510  144.6760 C   0  0  0  0  0  2  0  0  0  0  0  0
  189.3730  176.0190  146.1720 N   0  0  0  0  0  0  0  0  0  0  0  0
  190.5610  177.7990  145.2230 O   0  0  0  0  0  0  0  0  0  0  0  0
  190.4270  176.5520  145.3530 C   0  0  0  0  0  0  0  0  0  0  0  0
  189.2950  174.5950  146.4720 C   0  0  0  0  0  2  0  0  0  0  0  0
  188.9180  174.4100  147.8030 O   0  0  0  0  0  1  0  0  0  0  0  0
  188.4280  176.9040  146.8420 C   0  0  0  0  0  2  0  0  0  0  0  0
  187.0700  176.8490  146.1610 C   0  0  1  0  0  3  0  0  0  0  0  0
  185.9490  176.9750  147.1960 C   0  0  0  0  0  2  0  0  0  0  0  0
  186.9490  177.9940  145.1590 C   0  0  0  0  0  2  0  0  0  0  0  0
  184.6970  176.9040  146.5570 O   0  0  0  0  0  0  0  0  0  0  0  0
  185.5210  178.0840  144.6300 C   0  0  1  0  0  3  0  0  0  0  0  0
  184.5520  178.0890  145.8130 C   0  0  0  0  0  2  0  0  0  0  0  0
  185.3690  179.2590  143.8940 O   0  0  0  0  0  1  0  0  0  0  0  0
  194.2600  176.1640  142.4030 C   0  0  0  0  0  2  0  0  0  0  0  0
  194.8690  175.5010  143.6250 C   0  0  0  0  0  2  0  0  0  0  0  0
  196.9050  176.3420  142.7180 O   0  0  0  0  0  0  0  0  0  0  0  0
  196.3510  175.5830  143.5570 C   0  0  0  0  0  0  0  0  0  0  0  0
  197.1270  174.8480  144.4430 O   0  0  0  0  0  1  0  0  0  0  0  0
  195.0010  174.4760  140.1360 C   0  0  0  0  0  2  0  0  0  0  0  0
  195.8140  173.4100  140.7100 N   0  0  0  0  0  2  0  0  0  0  0  0
  197.9290  172.3580  141.2990 O   0  0  0  0  0  1  0  0  0  0  0  0
  197.8870  174.3320  140.1420 O   0  0  0  0  0  0  0  0  0  0  0  0
  197.2420  173.4030  140.6950 C   0  0  0  0  0  0  0  0  0  0  0  0
  1  5  2  0  0  0  0
  1  2  1  0  0  0  0
  2  6  2  0  0  0  0
  3 22  1  0  0  0  0
  4 17  1  0  0  0  0
  4  3  2  0  0  0  0
  5  4  1  0  0  0  0
  6  3  1  0  0  0  0
  6 37  1  0  0  0  0
  7  8  1  6  0  0  0
  7  9  1  0  0  0  0
  9 10  1  6  0  0  0
  9 14  1  0  0  0  0
 11 16  1  6  0  0  0
 11 13  1  0  0  0  0
 13 14  1  0  0  0  0
 14  1  1  1  0  0  0
 15 12  1  1  0  0  0
 15 11  1  0  0  0  0
 15  7  1  0  0  0  0
 17 18  1  6  0  0  0
 19 21  1  0  0  0  0
 20 21  2  0  0  0  0
 21 17  1  0  0  0  0
 22 23  1  0  0  0  0
 23 26  1  0  0  0  0
 24 27  1  0  0  0  0
 24 29  1  0  0  0  0
 25 26  2  0  0  0  0
 26 24  1  0  0  0  0
 27 28  1  0  0  0  0
 30 29  1  1  0  0  0
 30 31  1  0  0  0  0
 32 30  1  0  0  0  0
 33 31  1  0  0  0  0
 34 36  1  1  0  0  0
 34 32  1  0  0  0  0
 34 35  1  0  0  0  0
 35 33  1  0  0  0  0
 37 38  1  0  0  0  0
 39 40  2  0  0  0  0
 40 38  1  0  0  0  0
 40 41  1  0  0  0  0
 42  2  1  0  0  0  0
 42 43  1  0  0  0  0
 45 46  2  0  0  0  0
 46 43  1  0  0  0  0
 46 44  1  0  0  0  0
M  END
>  <MODEL>
9

>  <REMARK>
 VINA RESULT:      -6.0      2.076      5.464
  Name = 
  14 active torsions:
  status: ('A' for Active; 'I' for Inactive)
    1  A    between atoms: C_3  and  N_14
    2  A    between atoms: C_4  and  C_21
    3  A    between atoms: C_5  and  C_41
    4  A    between atoms: C_6  and  C_9
    5  A    between atoms: N_7  and  C_43
    6  A    between atoms: C_9  and  N_14
    7  A    between atoms: C_12  and  C_43
    8  A    between atoms: O_13  and  C_15
    9  A    between atoms: O_13  and  C_31
   10  A    between atoms: C_21  and  C_26
   11  A    between atoms: C_23  and  C_28
   12  A    between atoms: C_23  and  C_37
   13  A    between atoms: C_26  and  C_46
   14  A    between atoms: C_31  and  C_38
                            x       y       z     vdW  Elec       q    Type
                         _______ _______ _______ _____ _____    ______ ____

>  <TORSDO>
F 14

$$$$
