=
 OpenBabel11072408293D

 56 59  0  0  1  0  0  0  0  0999 V2000
  188.3550  172.5990  139.0570 C   0  0  0  0  0  3  0  0  0  0  0  0
  190.1500  174.0750  143.1370 C   0  0  1  0  0  3  0  0  0  0  0  0
  190.7510  173.0160  142.4120 O   0  0  0  0  0  0  0  0  0  0  0  0
  189.4800  171.7600  139.1490 C   0  0  0  0  0  3  0  0  0  0  0  0
  188.1110  173.5640  140.0450 C   0  0  0  0  0  3  0  0  0  0  0  0
  190.0660  172.8020  141.2300 C   0  0  0  0  0  0  0  0  0  0  0  0
  188.9380  174.5610  142.3060 C   0  0  2  0  0  3  0  0  0  0  0  0
  190.3630  171.8570  140.2420 C   0  0  0  0  0  0  0  0  0  0  0  0
  189.0150  173.6710  141.1070 C   0  0  0  0  0  0  0  0  0  0  0  0
  189.7200  173.6070  144.5150 C   0  0  0  0  0  2  0  0  0  0  0  0
  192.7700  175.3000  146.2070 C   0  0  0  0  0  3  0  0  0  0  0  0
  189.8170  174.6820  146.8820 C   0  0  0  0  0  2  0  0  0  0  0  0
  192.5640  176.0180  147.3220 C   0  0  0  0  0  3  0  0  0  0  0  0
  191.2830  176.2200  148.0920 C   0  0  0  0  0  2  0  0  0  0  0  0
  191.7980  174.5520  145.3780 C   0  0  0  0  0  3  0  0  0  0  0  0
  190.4940  174.3270  145.5950 C   0  0  0  0  0  0  0  0  0  0  0  0
  190.0340  176.1410  147.2390 C   0  0  0  0  0  2  0  0  0  0  0  0
  191.5490  170.9160  140.3060 C   0  0  1  0  0  3  0  0  0  0  0  0
  190.9150  168.8970  141.1910 C   0  0  0  0  0  1  0  0  0  0  0  0
  191.2740  169.5580  140.0060 O   0  0  0  0  0  0  0  0  0  0  0  0
  192.9510  171.4550  139.9110 C   0  0  2  0  0  3  0  0  0  0  0  0
  194.3500  173.0610  137.7550 O   0  0  0  0  0  0  0  0  0  0  0  0
  193.1970  171.1600  138.5060 N   0  0  0  0  0  2  0  0  0  0  0  0
  193.5300  172.1410  137.5120 C   0  0  0  0  0  0  0  0  0  0  0  0
  192.8900  172.0590  136.1700 C   0  0  0  0  0  2  0  0  0  0  0  0
  190.6880  170.6380  135.0650 O   0  0  0  0  0  1  0  0  0  0  0  0
  191.4890  172.5770  136.1870 C   0  0  0  0  0  0  0  0  0  0  0  0
  190.4880  171.8890  135.6400 C   0  0  0  0  0  3  0  0  0  0  0  0
  190.0790  174.5300  136.1100 N   0  0  0  0  0  1  0  0  0  0  0  0
  191.1990  173.9090  136.7960 C   0  0  0  0  0  2  0  0  0  0  0  0
  193.9590  170.9280  140.7200 O   0  0  0  0  0  0  0  0  0  0  0  0
  194.7980  172.0090  141.0140 C   0  0  0  0  0  2  0  0  0  0  0  0
  194.1030  172.3990  143.3270 C   0  0  0  0  0  2  0  0  0  0  0  0
  194.1710  172.8600  142.0700 C   0  0  0  0  0  0  0  0  0  0  0  0
  193.8760  174.6190  141.7450 S   0  0  0  0  0  0  0  0  0  0  0  0
  195.6360  175.0720  141.5270 C   0  0  0  0  0  2  0  0  0  0  0  0
  195.9990  176.2350  142.4440 C   0  0  0  0  0  2  0  0  0  0  0  0
  195.6270  175.8870  143.8870 C   0  0  0  0  0  2  0  0  0  0  0  0
  196.6210  174.8930  144.4590 C   0  0  0  0  0  2  0  0  0  0  0  0
  196.1130  174.3560  145.7860 C   0  0  0  0  0  2  0  0  0  0  0  0
  196.8120  171.9860  145.8930 C   0  0  0  0  0  1  0  0  0  0  0  0
  197.1200  173.3840  146.3830 C   0  0  0  0  0  2  0  0  0  0  0  0
  189.0310  176.0630  141.9420 C   0  0  1  0  0  3  0  0  0  0  0  0
  186.1760  178.4290  145.8100 C   0  0  1  0  0  3  0  0  0  0  0  0
  185.7970  177.7870  143.2820 C   0  0  0  0  0  2  0  0  0  0  0  0
  185.1940  179.9960  144.1730 C   0  0  0  0  0  2  0  0  0  0  0  0
  186.7960  177.0440  145.8520 C   0  0  0  0  0  2  0  0  0  0  0  0
  187.7880  176.8640  144.7040 C   0  0  0  0  0  2  0  0  0  0  0  0
  187.6870  176.7080  142.1950 C   0  0  0  0  0  3  0  0  0  0  0  0
  185.6310  178.7560  144.4240 C   0  0  0  0  0  0  0  0  0  0  0  0
  187.1380  177.1170  143.3590 C   0  0  0  0  0  0  0  0  0  0  0  0
  185.6370  177.9870  148.1460 O   0  0  0  0  0  1  0  0  0  0  0  0
  183.9420  177.9130  146.5990 O   0  0  0  0  0  1  0  0  0  0  0  0
  185.1450  178.5350  146.9560 C   0  0  0  0  0  3  0  0  0  0  0  0
  190.1240  176.7190  142.6790 N   0  0  0  0  0  2  0  0  0  0  0  0
  190.1090  178.0300  142.3390 O   0  0  0  0  0  1  0  0  0  0  0  0
  1  4  2  0  0  0  0
  1  5  1  0  0  0  0
  2 10  1  1  0  0  0
  3  2  1  0  0  0  0
  4  8  1  0  0  0  0
  5  9  2  0  0  0  0
  6  3  1  0  0  0  0
  7 43  1  6  0  0  0
  7  2  1  0  0  0  0
  8 18  1  0  0  0  0
  8  6  2  0  0  0  0
  9  6  1  0  0  0  0
  9  7  1  0  0  0  0
 10 16  1  0  0  0  0
 11 13  2  0  0  0  0
 12 17  1  0  0  0  0
 13 14  1  0  0  0  0
 15 16  2  0  0  0  0
 15 11  1  0  0  0  0
 16 12  1  0  0  0  0
 17 14  1  0  0  0  0
 18 20  1  6  0  0  0
 20 19  1  0  0  0  0
 21 23  1  6  0  0  0
 21 18  1  0  0  0  0
 21 31  1  0  0  0  0
 24 22  2  0  0  0  0
 24 23  1  0  0  0  0
 25 27  1  0  0  0  0
 25 24  1  0  0  0  0
 26 28  1  0  0  0  0
 27 30  1  0  0  0  0
 28 27  2  0  0  0  0
 29 30  1  0  0  0  0
 31 32  1  0  0  0  0
 32 34  1  0  0  0  0
 34 33  2  0  0  0  0
 35 34  1  0  0  0  0
 36 35  1  0  0  0  0
 36 37  1  0  0  0  0
 37 38  1  0  0  0  0
 38 39  1  0  0  0  0
 39 40  1  0  0  0  0
 40 42  1  0  0  0  0
 41 42  1  0  0  0  0
 43 49  1  1  0  0  0
 43 55  1  0  0  0  0
 44 47  1  0  0  0  0
 44 54  1  1  0  0  0
 45 51  1  0  0  0  0
 45 50  1  0  0  0  0
 46 50  2  0  0  0  0
 48 47  1  0  0  0  0
 49 51  2  0  0  0  0
 50 44  1  0  0  0  0
 51 48  1  0  0  0  0
 53 54  1  0  0  0  0
 54 52  1  0  0  0  0
 56 55  1  0  0  0  0
M  END
>  <MODEL>
1

>  <REMARK>
 VINA RESULT:      -6.4      0.000      0.000
  Name = 
  23 active torsions:
  status: ('A' for Active; 'I' for Inactive)
    1  A    between atoms: N_4  and  C_26
    2  A    between atoms: C_5  and  C_25
    3  A    between atoms: C_5  and  C_51
    4  A    between atoms: C_6  and  C_55
    5  A    between atoms: C_7  and  C_53
    6  A    between atoms: C_14  and  O_23
    7  A    between atoms: C_14  and  C_34
    8  A    between atoms: C_14  and  N_49
    9  A    between atoms: C_21  and  C_35
   10  A    between atoms: O_23  and  C_45
   11  A    between atoms: C_25  and  C_48
   12  A    between atoms: C_26  and  C_31
   13  A    between atoms: C_26  and  C_40
   14  A    between atoms: S_28  and  C_42
   15  A    between atoms: S_28  and  C_48
   16  A    between atoms: C_33  and  C_44
   17  A    between atoms: C_33  and  C_50
   18  A    between atoms: C_34  and  O_46
   19  A    between atoms: C_34  and  C_52
   20  A    between atoms: C_35  and  C_51
   21  A    between atoms: C_36  and  C_53
   22  A    between atoms: C_42  and  C_45
   23  A    between atoms: C_50  and  C_56
                            x       y       z     vdW  Elec       q    Type
                         _______ _______ _______ _____ _____    ______ ____

>  <TORSDO>
F 23

$$$$
=
 OpenBabel11072408293D

 56 59  0  0  1  0  0  0  0  0999 V2000
  188.8350  173.5340  137.9920 C   0  0  0  0  0  3  0  0  0  0  0  0
  189.6910  174.7540  142.4440 C   0  0  1  0  0  3  0  0  0  0  0  0
  190.7100  174.2090  141.6240 O   0  0  0  0  0  0  0  0  0  0  0  0
  190.2070  173.2350  138.0690 C   0  0  0  0  0  3  0  0  0  0  0  0
  188.1700  174.0900  139.0950 C   0  0  0  0  0  3  0  0  0  0  0  0
  190.2230  173.9770  140.3520 C   0  0  0  0  0  0  0  0  0  0  0  0
  188.4160  174.8540  141.5740 C   0  0  2  0  0  3  0  0  0  0  0  0
  190.9270  173.4630  139.2580 C   0  0  0  0  0  0  0  0  0  0  0  0
  188.9050  174.3400  140.2570 C   0  0  0  0  0  0  0  0  0  0  0  0
  189.4570  173.8790  143.6630 C   0  0  0  0  0  2  0  0  0  0  0  0
  191.5320  176.4150  145.7360 C   0  0  0  0  0  3  0  0  0  0  0  0
  189.9330  173.8130  146.2200 C   0  0  0  0  0  2  0  0  0  0  0  0
  191.4580  176.3570  147.0740 C   0  0  0  0  0  3  0  0  0  0  0  0
  190.7120  175.3700  147.9370 C   0  0  0  0  0  2  0  0  0  0  0  0
  190.8610  175.5720  144.7200 C   0  0  0  0  0  3  0  0  0  0  0  0
  190.0970  174.4830  144.8910 C   0  0  0  0  0  0  0  0  0  0  0  0
  189.4740  174.7950  147.2820 C   0  0  0  0  0  2  0  0  0  0  0  0
  192.3990  173.1030  139.2980 C   0  0  1  0  0  3  0  0  0  0  0  0
  192.4060  170.8270  139.5830 C   0  0  0  0  0  1  0  0  0  0  0  0
  192.7470  171.8660  138.7010 O   0  0  0  0  0  0  0  0  0  0  0  0
  193.4480  174.2450  139.2140 C   0  0  2  0  0  3  0  0  0  0  0  0
  193.2470  176.0910  136.8190 O   0  0  0  0  0  0  0  0  0  0  0  0
  194.1010  174.1980  137.9130 N   0  0  0  0  0  2  0  0  0  0  0  0
  193.6480  174.9020  136.7470 C   0  0  0  0  0  0  0  0  0  0  0  0
  193.6590  174.2060  135.4310 C   0  0  0  0  0  2  0  0  0  0  0  0
  192.1740  171.7810  135.4020 O   0  0  0  0  0  1  0  0  0  0  0  0
  194.2930  172.8570  135.5190 C   0  0  0  0  0  0  0  0  0  0  0  0
  193.5590  171.7440  135.5230 C   0  0  0  0  0  3  0  0  0  0  0  0
  196.3060  171.9860  134.5180 N   0  0  0  0  0  1  0  0  0  0  0  0
  195.7760  172.7410  135.6410 C   0  0  0  0  0  2  0  0  0  0  0  0
  194.3810  174.1720  140.2500 O   0  0  0  0  0  0  0  0  0  0  0  0
  195.0960  175.3750  140.1870 C   0  0  0  0  0  2  0  0  0  0  0  0
  197.3190  174.5050  140.7260 C   0  0  0  0  0  2  0  0  0  0  0  0
  196.2930  175.2940  141.0770 C   0  0  0  0  0  0  0  0  0  0  0  0
  196.5220  176.5290  142.3850 S   0  0  0  0  0  0  0  0  0  0  0  0
  196.3610  175.3610  143.7840 C   0  0  0  0  0  2  0  0  0  0  0  0
  194.9410  174.8110  143.8530 C   0  0  0  0  0  2  0  0  0  0  0  0
  194.5970  174.4550  145.3010 C   0  0  0  0  0  2  0  0  0  0  0  0
  193.7550  173.1930  145.3450 C   0  0  0  0  0  2  0  0  0  0  0  0
  193.1920  172.8970  143.9650 C   0  0  0  0  0  2  0  0  0  0  0  0
  191.7640  170.9790  143.3310 C   0  0  0  0  0  1  0  0  0  0  0  0
  193.1660  171.3950  143.7180 C   0  0  0  0  0  2  0  0  0  0  0  0
  187.8700  176.3000  141.4850 C   0  0  1  0  0  3  0  0  0  0  0  0
  186.3370  178.4060  146.1670 C   0  0  1  0  0  3  0  0  0  0  0  0
  185.2180  176.9570  144.2710 C   0  0  0  0  0  2  0  0  0  0  0  0
  184.1040  178.9180  145.2440 C   0  0  0  0  0  2  0  0  0  0  0  0
  187.4890  177.4460  145.9320 C   0  0  0  0  0  2  0  0  0  0  0  0
  187.8010  177.3330  144.4410 C   0  0  0  0  0  2  0  0  0  0  0  0
  186.6650  176.4210  142.3900 C   0  0  0  0  0  3  0  0  0  0  0  0
  185.1430  178.0750  145.2780 C   0  0  0  0  0  0  0  0  0  0  0  0
  186.5830  176.9090  143.6470 C   0  0  0  0  0  0  0  0  0  0  0  0
  187.0040  179.1530  148.3890 O   0  0  0  0  0  1  0  0  0  0  0  0
  185.9190  177.1390  148.1920 O   0  0  0  0  0  1  0  0  0  0  0  0
  186.0320  178.4390  147.6810 C   0  0  0  0  0  3  0  0  0  0  0  0
  188.9200  177.2820  141.8010 N   0  0  0  0  0  2  0  0  0  0  0  0
  188.5300  178.4710  141.2810 O   0  0  0  0  0  1  0  0  0  0  0  0
  1  4  2  0  0  0  0
  1  5  1  0  0  0  0
  2 10  1  1  0  0  0
  3  2  1  0  0  0  0
  4  8  1  0  0  0  0
  5  9  2  0  0  0  0
  6  3  1  0  0  0  0
  7 43  1  6  0  0  0
  7  2  1  0  0  0  0
  8 18  1  0  0  0  0
  8  6  2  0  0  0  0
  9  6  1  0  0  0  0
  9  7  1  0  0  0  0
 10 16  1  0  0  0  0
 11 13  2  0  0  0  0
 12 17  1  0  0  0  0
 13 14  1  0  0  0  0
 15 16  2  0  0  0  0
 15 11  1  0  0  0  0
 16 12  1  0  0  0  0
 17 14  1  0  0  0  0
 18 20  1  6  0  0  0
 20 19  1  0  0  0  0
 21 23  1  6  0  0  0
 21 18  1  0  0  0  0
 21 31  1  0  0  0  0
 24 22  2  0  0  0  0
 24 23  1  0  0  0  0
 25 27  1  0  0  0  0
 25 24  1  0  0  0  0
 26 28  1  0  0  0  0
 27 28  2  0  0  0  0
 27 30  1  0  0  0  0
 29 30  1  0  0  0  0
 32 31  1  0  0  0  0
 32 34  1  0  0  0  0
 33 34  2  0  0  0  0
 34 35  1  0  0  0  0
 35 36  1  0  0  0  0
 36 37  1  0  0  0  0
 37 38  1  0  0  0  0
 38 39  1  0  0  0  0
 40 39  1  0  0  0  0
 41 42  1  0  0  0  0
 42 40  1  0  0  0  0
 43 55  1  0  0  0  0
 43 49  1  1  0  0  0
 44 54  1  1  0  0  0
 45 50  1  0  0  0  0
 46 50  2  0  0  0  0
 47 44  1  0  0  0  0
 48 47  1  0  0  0  0
 49 51  2  0  0  0  0
 50 44  1  0  0  0  0
 51 45  1  0  0  0  0
 51 48  1  0  0  0  0
 54 53  1  0  0  0  0
 54 52  1  0  0  0  0
 56 55  1  0  0  0  0
M  END
>  <MODEL>
2

>  <REMARK>
 VINA RESULT:      -6.1      1.864      2.641
  Name = 
  23 active torsions:
  status: ('A' for Active; 'I' for Inactive)
    1  A    between atoms: N_4  and  C_26
    2  A    between atoms: C_5  and  C_25
    3  A    between atoms: C_5  and  C_51
    4  A    between atoms: C_6  and  C_55
    5  A    between atoms: C_7  and  C_53
    6  A    between atoms: C_14  and  O_23
    7  A    between atoms: C_14  and  C_34
    8  A    between atoms: C_14  and  N_49
    9  A    between atoms: C_21  and  C_35
   10  A    between atoms: O_23  and  C_45
   11  A    between atoms: C_25  and  C_48
   12  A    between atoms: C_26  and  C_31
   13  A    between atoms: C_26  and  C_40
   14  A    between atoms: S_28  and  C_42
   15  A    between atoms: S_28  and  C_48
   16  A    between atoms: C_33  and  C_44
   17  A    between atoms: C_33  and  C_50
   18  A    between atoms: C_34  and  O_46
   19  A    between atoms: C_34  and  C_52
   20  A    between atoms: C_35  and  C_51
   21  A    between atoms: C_36  and  C_53
   22  A    between atoms: C_42  and  C_45
   23  A    between atoms: C_50  and  C_56
                            x       y       z     vdW  Elec       q    Type
                         _______ _______ _______ _____ _____    ______ ____

>  <TORSDO>
F 23

$$$$
=
 OpenBabel11072408293D

 56 59  0  0  1  0  0  0  0  0999 V2000
  190.6790  171.9340  144.4940 C   0  0  0  0  0  3  0  0  0  0  0  0
  190.3300  176.0840  142.3260 C   0  0  1  0  0  3  0  0  0  0  0  0
  191.5580  175.3780  142.3650 O   0  0  0  0  0  0  0  0  0  0  0  0
  191.9890  172.0640  144.0000 C   0  0  0  0  0  3  0  0  0  0  0  0
  189.7170  172.9160  144.2140 C   0  0  0  0  0  3  0  0  0  0  0  0
  191.3910  174.1700  143.0160 C   0  0  0  0  0  0  0  0  0  0  0  0
  189.2830  175.2110  143.0590 C   0  0  2  0  0  3  0  0  0  0  0  0
  192.3630  173.1890  143.2400 C   0  0  0  0  0  0  0  0  0  0  0  0
  190.0950  174.0120  143.4320 C   0  0  0  0  0  0  0  0  0  0  0  0
  190.4720  177.4430  142.9870 C   0  0  0  0  0  2  0  0  0  0  0  0
  189.7090  177.3990  146.7870 C   0  0  0  0  0  3  0  0  0  0  0  0
  192.1420  176.9770  144.9270 C   0  0  0  0  0  2  0  0  0  0  0  0
  190.6330  176.8940  147.6190 C   0  0  0  0  0  3  0  0  0  0  0  0
  192.0130  176.3800  147.2950 C   0  0  0  0  0  2  0  0  0  0  0  0
  189.7470  177.5440  145.3140 C   0  0  0  0  0  3  0  0  0  0  0  0
  190.7550  177.2980  144.4640 C   0  0  0  0  0  0  0  0  0  0  0  0
  192.1450  175.8100  145.8980 C   0  0  0  0  0  2  0  0  0  0  0  0
  193.7930  173.2940  142.7480 C   0  0  1  0  0  3  0  0  0  0  0  0
  195.3880  172.8490  144.3360 C   0  0  0  0  0  1  0  0  0  0  0  0
  194.7140  173.8750  143.6540 O   0  0  0  0  0  0  0  0  0  0  0  0
  194.3380  172.1910  141.8000 C   0  0  2  0  0  3  0  0  0  0  0  0
  197.3160  172.1040  141.2450 O   0  0  0  0  0  0  0  0  0  0  0  0
  195.1340  172.8140  140.7520 N   0  0  0  0  0  2  0  0  0  0  0  0
  196.5550  173.0060  140.8110 C   0  0  0  0  0  0  0  0  0  0  0  0
  197.1330  174.2960  140.3450 C   0  0  0  0  0  2  0  0  0  0  0  0
  194.9240  176.0370  139.9190 O   0  0  0  0  0  1  0  0  0  0  0  0
  196.7900  175.4240  141.2630 C   0  0  0  0  0  0  0  0  0  0  0  0
  195.7580  176.2300  141.0160 C   0  0  0  0  0  3  0  0  0  0  0  0
  197.1310  176.8450  143.1800 N   0  0  0  0  0  1  0  0  0  0  0  0
  197.6360  175.6840  142.4650 C   0  0  0  0  0  2  0  0  0  0  0  0
  193.3110  171.4150  141.2600 O   0  0  0  0  0  0  0  0  0  0  0  0
  193.9470  170.2980  140.7050 C   0  0  0  0  0  2  0  0  0  0  0  0
  193.9100  170.1710  138.2620 C   0  0  0  0  0  2  0  0  0  0  0  0
  193.2800  169.9280  139.4200 C   0  0  0  0  0  0  0  0  0  0  0  0
  191.8440  168.8220  139.4420 S   0  0  0  0  0  0  0  0  0  0  0  0
  190.5910  170.1260  139.1610 C   0  0  0  0  0  2  0  0  0  0  0  0
  189.7180  169.7690  137.9640 C   0  0  0  0  0  2  0  0  0  0  0  0
  190.4560  170.1130  136.6680 C   0  0  0  0  0  2  0  0  0  0  0  0
  190.7380  171.6030  136.6050 C   0  0  0  0  0  2  0  0  0  0  0  0
  189.4320  172.3780  136.5950 C   0  0  0  0  0  2  0  0  0  0  0  0
  188.3950  174.5710  137.0840 C   0  0  0  0  0  1  0  0  0  0  0  0
  189.5870  173.6830  137.3640 C   0  0  0  0  0  2  0  0  0  0  0  0
  188.0720  174.8570  142.1610 C   0  0  1  0  0  3  0  0  0  0  0  0
  185.8730  178.3370  145.5900 C   0  0  1  0  0  3  0  0  0  0  0  0
  185.6430  177.7870  143.0230 C   0  0  0  0  0  2  0  0  0  0  0  0
  185.8520  180.0910  143.8510 C   0  0  0  0  0  2  0  0  0  0  0  0
  185.8720  176.8240  145.7020 C   0  0  0  0  0  2  0  0  0  0  0  0
  186.8650  176.2110  144.7160 C   0  0  0  0  0  2  0  0  0  0  0  0
  187.0780  175.9950  142.2180 C   0  0  0  0  0  3  0  0  0  0  0  0
  185.7140  178.7920  144.1430 C   0  0  0  0  0  0  0  0  0  0  0  0
  186.5760  176.6410  143.2920 C   0  0  0  0  0  0  0  0  0  0  0  0
  184.9200  178.3110  147.8340 O   0  0  0  0  0  1  0  0  0  0  0  0
  183.5240  178.7170  146.0570 O   0  0  0  0  0  1  0  0  0  0  0  0
  184.8150  178.8970  146.5680 C   0  0  0  0  0  3  0  0  0  0  0  0
  188.5050  174.5460  140.7890 N   0  0  0  0  0  2  0  0  0  0  0  0
  188.1940  173.2490  140.5530 O   0  0  0  0  0  1  0  0  0  0  0  0
  2  3  1  0  0  0  0
  2 10  1  1  0  0  0
  2  7  1  0  0  0  0
  3  6  1  0  0  0  0
  4  1  2  0  0  0  0
  5  1  1  0  0  0  0
  6  8  2  0  0  0  0
  6  9  1  0  0  0  0
  7 43  1  6  0  0  0
  7  9  1  0  0  0  0
  8  4  1  0  0  0  0
  9  5  2  0  0  0  0
 10 16  1  0  0  0  0
 11 13  2  0  0  0  0
 12 17  1  0  0  0  0
 14 13  1  0  0  0  0
 15 11  1  0  0  0  0
 16 12  1  0  0  0  0
 16 15  2  0  0  0  0
 17 14  1  0  0  0  0
 18  8  1  0  0  0  0
 18 20  1  1  0  0  0
 20 19  1  0  0  0  0
 21 23  1  6  0  0  0
 21 18  1  0  0  0  0
 23 24  1  0  0  0  0
 24 22  2  0  0  0  0
 25 24  1  0  0  0  0
 25 27  1  0  0  0  0
 26 28  1  0  0  0  0
 27 30  1  0  0  0  0
 28 27  2  0  0  0  0
 30 29  1  0  0  0  0
 31 21  1  0  0  0  0
 32 31  1  0  0  0  0
 33 34  2  0  0  0  0
 34 35  1  0  0  0  0
 34 32  1  0  0  0  0
 36 35  1  0  0  0  0
 37 36  1  0  0  0  0
 38 37  1  0  0  0  0
 39 38  1  0  0  0  0
 40 39  1  0  0  0  0
 40 42  1  0  0  0  0
 41 42  1  0  0  0  0
 43 49  1  6  0  0  0
 44 47  1  0  0  0  0
 44 54  1  1  0  0  0
 45 51  1  0  0  0  0
 45 50  1  0  0  0  0
 46 50  2  0  0  0  0
 48 47  1  0  0  0  0
 49 51  2  0  0  0  0
 50 44  1  0  0  0  0
 51 48  1  0  0  0  0
 53 54  1  0  0  0  0
 54 52  1  0  0  0  0
 55 43  1  0  0  0  0
 56 55  1  0  0  0  0
M  END
>  <MODEL>
3

>  <REMARK>
 VINA RESULT:      -6.0      2.276      5.592
  Name = 
  23 active torsions:
  status: ('A' for Active; 'I' for Inactive)
    1  A    between atoms: N_4  and  C_26
    2  A    between atoms: C_5  and  C_25
    3  A    between atoms: C_5  and  C_51
    4  A    between atoms: C_6  and  C_55
    5  A    between atoms: C_7  and  C_53
    6  A    between atoms: C_14  and  O_23
    7  A    between atoms: C_14  and  C_34
    8  A    between atoms: C_14  and  N_49
    9  A    between atoms: C_21  and  C_35
   10  A    between atoms: O_23  and  C_45
   11  A    between atoms: C_25  and  C_48
   12  A    between atoms: C_26  and  C_31
   13  A    between atoms: C_26  and  C_40
   14  A    between atoms: S_28  and  C_42
   15  A    between atoms: S_28  and  C_48
   16  A    between atoms: C_33  and  C_44
   17  A    between atoms: C_33  and  C_50
   18  A    between atoms: C_34  and  O_46
   19  A    between atoms: C_34  and  C_52
   20  A    between atoms: C_35  and  C_51
   21  A    between atoms: C_36  and  C_53
   22  A    between atoms: C_42  and  C_45
   23  A    between atoms: C_50  and  C_56
                            x       y       z     vdW  Elec       q    Type
                         _______ _______ _______ _____ _____    ______ ____

>  <TORSDO>
F 23

$$$$
=
 OpenBabel11072408293D

 56 59  0  0  1  0  0  0  0  0999 V2000
  188.7080  174.2930  140.6310 C   0  0  0  0  0  3  0  0  0  0  0  0
  192.2150  174.1070  143.7470 C   0  0  1  0  0  3  0  0  0  0  0  0
  192.3230  173.4780  142.4820 O   0  0  0  0  0  0  0  0  0  0  0  0
  189.6580  173.5700  139.8880 C   0  0  0  0  0  3  0  0  0  0  0  0
  189.0190  174.7550  141.9180 C   0  0  0  0  0  3  0  0  0  0  0  0
  191.1850  173.7150  141.7350 C   0  0  0  0  0  0  0  0  0  0  0  0
  190.8330  174.8020  143.7890 C   0  0  2  0  0  3  0  0  0  0  0  0
  190.9230  173.2760  140.4320 C   0  0  0  0  0  0  0  0  0  0  0  0
  190.2910  174.4830  142.4320 C   0  0  0  0  0  0  0  0  0  0  0  0
  192.3530  173.0900  144.8660 C   0  0  0  0  0  2  0  0  0  0  0  0
  196.0870  173.6830  145.7210 C   0  0  0  0  0  3  0  0  0  0  0  0
  194.2570  171.3180  144.9350 C   0  0  0  0  0  2  0  0  0  0  0  0
  196.8670  172.6150  145.9520 C   0  0  0  0  0  3  0  0  0  0  0  0
  196.5140  171.1510  145.8590 C   0  0  0  0  0  2  0  0  0  0  0  0
  194.6500  173.7390  145.3690 C   0  0  0  0  0  3  0  0  0  0  0  0
  193.8030  172.7360  145.0970 C   0  0  0  0  0  0  0  0  0  0  0  0
  195.0560  170.8520  146.1380 C   0  0  0  0  0  2  0  0  0  0  0  0
  191.9050  172.4750  139.6000 C   0  0  1  0  0  3  0  0  0  0  0  0
  191.3570  170.2630  139.8620 C   0  0  0  0  0  1  0  0  0  0  0  0
  191.3740  171.3320  138.9520 O   0  0  0  0  0  0  0  0  0  0  0  0
  193.0540  173.2260  138.8740 C   0  0  2  0  0  3  0  0  0  0  0  0
  194.0960  173.9030  136.1090 O   0  0  0  0  0  0  0  0  0  0  0  0
  193.5880  172.3760  137.8190 N   0  0  0  0  0  2  0  0  0  0  0  0
  193.6950  172.7580  136.4390 C   0  0  0  0  0  0  0  0  0  0  0  0
  193.3250  171.7750  135.3840 C   0  0  0  0  0  2  0  0  0  0  0  0
  192.7390  169.0230  135.7990 O   0  0  0  0  0  1  0  0  0  0  0  0
  191.9380  171.2520  135.5700 C   0  0  0  0  0  0  0  0  0  0  0  0
  191.7040  169.9520  135.7420 C   0  0  0  0  0  3  0  0  0  0  0  0
  189.5360  171.4420  135.5300 N   0  0  0  0  0  1  0  0  0  0  0  0
  190.7800  172.1930  135.5290 C   0  0  0  0  0  2  0  0  0  0  0  0
  194.0590  173.6210  139.7590 O   0  0  0  0  0  0  0  0  0  0  0  0
  194.2840  174.9750  139.4800 C   0  0  0  0  0  2  0  0  0  0  0  0
  196.5110  175.1240  138.4780 C   0  0  0  0  0  2  0  0  0  0  0  0
  195.7460  175.2690  139.5690 C   0  0  0  0  0  0  0  0  0  0  0  0
  196.3910  176.1790  140.9990 S   0  0  0  0  0  0  0  0  0  0  0  0
  197.9250  175.1970  141.1770 C   0  0  0  0  0  2  0  0  0  0  0  0
  197.9330  174.4700  142.5160 C   0  0  0  0  0  2  0  0  0  0  0  0
  197.8300  172.9610  142.2820 C   0  0  0  0  0  2  0  0  0  0  0  0
  196.3730  172.5430  142.1920 C   0  0  0  0  0  2  0  0  0  0  0  0
  196.2770  171.0530  141.9100 C   0  0  0  0  0  2  0  0  0  0  0  0
  194.5350  169.3030  141.7690 C   0  0  0  0  0  1  0  0  0  0  0  0
  194.9030  170.7100  141.3530 C   0  0  0  0  0  2  0  0  0  0  0  0
  190.9420  176.3250  144.0460 C   0  0  1  0  0  3  0  0  0  0  0  0
  185.7890  177.7900  144.1410 C   0  0  1  0  0  3  0  0  0  0  0  0
  187.7140  177.4740  145.9130 C   0  0  0  0  0  2  0  0  0  0  0  0
  185.4510  176.5870  146.2710 C   0  0  0  0  0  2  0  0  0  0  0  0
  186.9080  178.4440  143.3510 C   0  0  0  0  0  2  0  0  0  0  0  0
  188.1480  177.5520  143.3350 C   0  0  0  0  0  2  0  0  0  0  0  0
  189.8460  176.7350  145.0030 C   0  0  0  0  0  3  0  0  0  0  0  0
  186.2700  177.3240  145.5110 C   0  0  0  0  0  0  0  0  0  0  0  0
  188.6110  177.2150  144.7380 C   0  0  0  0  0  0  0  0  0  0  0  0
  183.7180  178.5350  143.0940 O   0  0  0  0  0  1  0  0  0  0  0  0
  185.0180  180.0900  144.1720 O   0  0  0  0  0  1  0  0  0  0  0  0
  184.5840  178.7580  144.1690 C   0  0  0  0  0  3  0  0  0  0  0  0
  192.2840  176.6840  144.5300 N   0  0  0  0  0  2  0  0  0  0  0  0
  192.2370  176.6880  145.8840 O   0  0  0  0  0  1  0  0  0  0  0  0
  1  5  1  0  0  0  0
  2  7  1  0  0  0  0
  2 10  1  1  0  0  0
  3  2  1  0  0  0  0
  4  8  1  0  0  0  0
  4  1  2  0  0  0  0
  5  9  2  0  0  0  0
  6  9  1  0  0  0  0
  6  3  1  0  0  0  0
  7 43  1  6  0  0  0
  8  6  2  0  0  0  0
  9  7  1  0  0  0  0
 10 16  1  0  0  0  0
 11 13  2  0  0  0  0
 12 16  1  0  0  0  0
 12 17  1  0  0  0  0
 14 13  1  0  0  0  0
 14 17  1  0  0  0  0
 15 11  1  0  0  0  0
 16 15  2  0  0  0  0
 18 20  1  6  0  0  0
 18  8  1  0  0  0  0
 20 19  1  0  0  0  0
 21 23  1  6  0  0  0
 21 18  1  0  0  0  0
 21 31  1  0  0  0  0
 22 24  2  0  0  0  0
 24 23  1  0  0  0  0
 25 27  1  0  0  0  0
 25 24  1  0  0  0  0
 27 28  2  0  0  0  0
 28 26  1  0  0  0  0
 30 29  1  0  0  0  0
 30 27  1  0  0  0  0
 32 34  1  0  0  0  0
 32 31  1  0  0  0  0
 33 34  2  0  0  0  0
 34 35  1  0  0  0  0
 35 36  1  0  0  0  0
 36 37  1  0  0  0  0
 38 37  1  0  0  0  0
 39 38  1  0  0  0  0
 40 39  1  0  0  0  0
 42 41  1  0  0  0  0
 42 40  1  0  0  0  0
 43 55  1  0  0  0  0
 43 49  1  1  0  0  0
 44 54  1  1  0  0  0
 44 50  1  0  0  0  0
 47 44  1  0  0  0  0
 48 47  1  0  0  0  0
 48 51  1  0  0  0  0
 50 45  1  0  0  0  0
 50 46  2  0  0  0  0
 51 49  2  0  0  0  0
 51 45  1  0  0  0  0
 52 54  1  0  0  0  0
 54 53  1  0  0  0  0
 55 56  1  0  0  0  0
M  END
>  <MODEL>
4

>  <REMARK>
 VINA RESULT:      -5.9      2.068      3.461
  Name = 
  23 active torsions:
  status: ('A' for Active; 'I' for Inactive)
    1  A    between atoms: N_4  and  C_26
    2  A    between atoms: C_5  and  C_25
    3  A    between atoms: C_5  and  C_51
    4  A    between atoms: C_6  and  C_55
    5  A    between atoms: C_7  and  C_53
    6  A    between atoms: C_14  and  O_23
    7  A    between atoms: C_14  and  C_34
    8  A    between atoms: C_14  and  N_49
    9  A    between atoms: C_21  and  C_35
   10  A    between atoms: O_23  and  C_45
   11  A    between atoms: C_25  and  C_48
   12  A    between atoms: C_26  and  C_31
   13  A    between atoms: C_26  and  C_40
   14  A    between atoms: S_28  and  C_42
   15  A    between atoms: S_28  and  C_48
   16  A    between atoms: C_33  and  C_44
   17  A    between atoms: C_33  and  C_50
   18  A    between atoms: C_34  and  O_46
   19  A    between atoms: C_34  and  C_52
   20  A    between atoms: C_35  and  C_51
   21  A    between atoms: C_36  and  C_53
   22  A    between atoms: C_42  and  C_45
   23  A    between atoms: C_50  and  C_56
                            x       y       z     vdW  Elec       q    Type
                         _______ _______ _______ _____ _____    ______ ____

>  <TORSDO>
F 23

$$$$
=
 OpenBabel11072408293D

 56 59  0  0  1  0  0  0  0  0999 V2000
  188.2380  172.6960  139.0550 C   0  0  0  0  0  3  0  0  0  0  0  0
  190.2110  174.0440  143.0960 C   0  0  1  0  0  3  0  0  0  0  0  0
  190.7530  172.9790  142.3350 O   0  0  0  0  0  0  0  0  0  0  0  0
  189.3370  171.8210  139.0950 C   0  0  0  0  0  3  0  0  0  0  0  0
  188.0580  173.6530  140.0650 C   0  0  0  0  0  3  0  0  0  0  0  0
  190.0240  172.8070  141.1730 C   0  0  0  0  0  0  0  0  0  0  0  0
  188.9890  174.5830  142.3140 C   0  0  2  0  0  3  0  0  0  0  0  0
  190.2580  171.8710  140.1600 C   0  0  0  0  0  0  0  0  0  0  0  0
  188.9980  173.7120  141.0990 C   0  0  0  0  0  0  0  0  0  0  0  0
  189.8110  173.5660  144.4800 C   0  0  0  0  0  2  0  0  0  0  0  0
  192.7350  175.5270  146.1030 C   0  0  0  0  0  3  0  0  0  0  0  0
  189.8950  174.5800  146.8750 C   0  0  0  0  0  2  0  0  0  0  0  0
  192.5030  176.1880  147.2470 C   0  0  0  0  0  3  0  0  0  0  0  0
  191.2420  176.2310  148.0730 C   0  0  0  0  0  2  0  0  0  0  0  0
  191.8120  174.7030  145.2890 C   0  0  0  0  0  3  0  0  0  0  0  0
  190.5500  174.3340  145.5510 C   0  0  0  0  0  0  0  0  0  0  0  0
  189.9730  176.0430  147.2680 C   0  0  0  0  0  2  0  0  0  0  0  0
  191.4140  170.8910  140.1700 C   0  0  1  0  0  3  0  0  0  0  0  0
  190.8390  168.7880  140.8840 C   0  0  0  0  0  1  0  0  0  0  0  0
  191.1070  169.5720  139.7510 O   0  0  0  0  0  0  0  0  0  0  0  0
  192.8400  171.4170  139.8520 C   0  0  2  0  0  3  0  0  0  0  0  0
  192.2430  171.1050  136.8970 O   0  0  0  0  0  0  0  0  0  0  0  0
  192.7570  172.4040  138.7840 N   0  0  0  0  0  2  0  0  0  0  0  0
  192.8400  172.0990  137.3840 C   0  0  0  0  0  0  0  0  0  0  0  0
  193.6460  172.9820  136.4960 C   0  0  0  0  0  2  0  0  0  0  0  0
  193.1470  175.7400  136.9740 O   0  0  0  0  0  1  0  0  0  0  0  0
  194.5720  173.8590  137.2740 C   0  0  0  0  0  0  0  0  0  0  0  0
  194.3110  175.1520  137.4580 C   0  0  0  0  0  3  0  0  0  0  0  0
  196.9730  174.0590  137.3490 N   0  0  0  0  0  1  0  0  0  0  0  0
  195.8360  173.2930  137.8300 C   0  0  0  0  0  2  0  0  0  0  0  0
  193.7140  170.3820  139.5160 O   0  0  0  0  0  0  0  0  0  0  0  0
  194.3780  170.0590  140.7050 C   0  0  0  0  0  2  0  0  0  0  0  0
  196.5660  170.1290  139.6130 C   0  0  0  0  0  2  0  0  0  0  0  0
  195.7940  170.5300  140.6330 C   0  0  0  0  0  0  0  0  0  0  0  0
  196.3300  171.9180  141.6690 S   0  0  0  0  0  0  0  0  0  0  0  0
  194.8970  171.8750  142.8060 C   0  0  0  0  0  2  0  0  0  0  0  0
  194.5100  173.2900  143.2220 C   0  0  0  0  0  2  0  0  0  0  0  0
  195.6050  173.8800  144.1130 C   0  0  0  0  0  2  0  0  0  0  0  0
  195.4980  173.3180  145.5190 C   0  0  0  0  0  2  0  0  0  0  0  0
  196.8770  172.9460  146.0350 C   0  0  0  0  0  2  0  0  0  0  0  0
  196.4580  170.5120  146.1770 C   0  0  0  0  0  1  0  0  0  0  0  0
  197.2890  171.5810  145.5030 C   0  0  0  0  0  2  0  0  0  0  0  0
  189.1200  176.0870  141.9710 C   0  0  1  0  0  3  0  0  0  0  0  0
  186.2300  178.4190  145.8340 C   0  0  1  0  0  3  0  0  0  0  0  0
  185.8960  177.8520  143.2810 C   0  0  0  0  0  2  0  0  0  0  0  0
  185.3220  180.0510  144.2160 C   0  0  0  0  0  2  0  0  0  0  0  0
  186.8170  177.0200  145.8530 C   0  0  0  0  0  2  0  0  0  0  0  0
  187.8310  176.8460  144.7240 C   0  0  0  0  0  2  0  0  0  0  0  0
  187.7850  176.7560  142.2100 C   0  0  0  0  0  3  0  0  0  0  0  0
  185.7250  178.7950  144.4450 C   0  0  0  0  0  0  0  0  0  0  0  0
  187.2190  177.1480  143.3720 C   0  0  0  0  0  0  0  0  0  0  0  0
  185.6520  177.9900  148.1620 O   0  0  0  0  0  1  0  0  0  0  0  0
  183.9890  177.8770  146.5840 O   0  0  0  0  0  1  0  0  0  0  0  0
  185.1750  178.5200  146.9590 C   0  0  0  0  0  3  0  0  0  0  0  0
  190.2130  176.7100  142.7340 N   0  0  0  0  0  2  0  0  0  0  0  0
  190.2290  178.0270  142.4150 O   0  0  0  0  0  1  0  0  0  0  0  0
  1  4  2  0  0  0  0
  1  5  1  0  0  0  0
  2 10  1  1  0  0  0
  3  2  1  0  0  0  0
  4  8  1  0  0  0  0
  5  9  2  0  0  0  0
  6  3  1  0  0  0  0
  7 43  1  6  0  0  0
  7  2  1  0  0  0  0
  8 18  1  0  0  0  0
  8  6  2  0  0  0  0
  9  6  1  0  0  0  0
  9  7  1  0  0  0  0
 10 16  1  0  0  0  0
 11 13  2  0  0  0  0
 12 17  1  0  0  0  0
 13 14  1  0  0  0  0
 15 16  2  0  0  0  0
 15 11  1  0  0  0  0
 16 12  1  0  0  0  0
 17 14  1  0  0  0  0
 18 20  1  6  0  0  0
 20 19  1  0  0  0  0
 21 23  1  6  0  0  0
 21 18  1  0  0  0  0
 22 24  2  0  0  0  0
 24 23  1  0  0  0  0
 25 27  1  0  0  0  0
 25 24  1  0  0  0  0
 26 28  1  0  0  0  0
 27 28  2  0  0  0  0
 27 30  1  0  0  0  0
 29 30  1  0  0  0  0
 31 21  1  0  0  0  0
 31 32  1  0  0  0  0
 33 34  2  0  0  0  0
 34 32  1  0  0  0  0
 34 35  1  0  0  0  0
 35 36  1  0  0  0  0
 36 37  1  0  0  0  0
 37 38  1  0  0  0  0
 38 39  1  0  0  0  0
 39 40  1  0  0  0  0
 42 40  1  0  0  0  0
 42 41  1  0  0  0  0
 43 49  1  1  0  0  0
 43 55  1  0  0  0  0
 44 47  1  0  0  0  0
 44 54  1  1  0  0  0
 45 51  1  0  0  0  0
 45 50  1  0  0  0  0
 46 50  2  0  0  0  0
 48 47  1  0  0  0  0
 49 51  2  0  0  0  0
 50 44  1  0  0  0  0
 51 48  1  0  0  0  0
 53 54  1  0  0  0  0
 54 52  1  0  0  0  0
 56 55  1  0  0  0  0
M  END
>  <MODEL>
5

>  <REMARK>
 VINA RESULT:      -5.7      1.366      2.149
  Name = 
  23 active torsions:
  status: ('A' for Active; 'I' for Inactive)
    1  A    between atoms: N_4  and  C_26
    2  A    between atoms: C_5  and  C_25
    3  A    between atoms: C_5  and  C_51
    4  A    between atoms: C_6  and  C_55
    5  A    between atoms: C_7  and  C_53
    6  A    between atoms: C_14  and  O_23
    7  A    between atoms: C_14  and  C_34
    8  A    between atoms: C_14  and  N_49
    9  A    between atoms: C_21  and  C_35
   10  A    between atoms: O_23  and  C_45
   11  A    between atoms: C_25  and  C_48
   12  A    between atoms: C_26  and  C_31
   13  A    between atoms: C_26  and  C_40
   14  A    between atoms: S_28  and  C_42
   15  A    between atoms: S_28  and  C_48
   16  A    between atoms: C_33  and  C_44
   17  A    between atoms: C_33  and  C_50
   18  A    between atoms: C_34  and  O_46
   19  A    between atoms: C_34  and  C_52
   20  A    between atoms: C_35  and  C_51
   21  A    between atoms: C_36  and  C_53
   22  A    between atoms: C_42  and  C_45
   23  A    between atoms: C_50  and  C_56
                            x       y       z     vdW  Elec       q    Type
                         _______ _______ _______ _____ _____    ______ ____

>  <TORSDO>
F 23

$$$$
=
 OpenBabel11072408293D

 56 59  0  0  1  0  0  0  0  0999 V2000
  189.1180  171.9250  142.9850 C   0  0  0  0  0  3  0  0  0  0  0  0
  190.2740  176.4150  142.2440 C   0  0  1  0  0  3  0  0  0  0  0  0
  191.1650  175.3640  141.9130 O   0  0  0  0  0  0  0  0  0  0  0  0
  190.3840  171.7580  142.3960 C   0  0  0  0  0  3  0  0  0  0  0  0
  188.5730  173.2080  143.1390 C   0  0  0  0  0  3  0  0  0  0  0  0
  190.5780  174.1420  142.1820 C   0  0  0  0  0  0  0  0  0  0  0  0
  188.9880  175.7590  142.8000 C   0  0  2  0  0  3  0  0  0  0  0  0
  191.1330  172.8740  141.9740 C   0  0  0  0  0  0  0  0  0  0  0  0
  189.3150  174.3030  142.6870 C   0  0  0  0  0  0  0  0  0  0  0  0
  190.9010  177.3480  143.2640 C   0  0  0  0  0  2  0  0  0  0  0  0
  193.7610  175.6560  145.2600 C   0  0  0  0  0  3  0  0  0  0  0  0
  190.7030  176.0410  145.5060 C   0  0  0  0  0  2  0  0  0  0  0  0
  193.5110  175.2490  146.5140 C   0  0  0  0  0  3  0  0  0  0  0  0
  192.2100  175.2880  147.2770 C   0  0  0  0  0  2  0  0  0  0  0  0
  192.8590  176.3120  144.2860 C   0  0  0  0  0  3  0  0  0  0  0  0
  191.5460  176.5680  144.3860 C   0  0  0  0  0  0  0  0  0  0  0  0
  191.2850  176.4100  146.8570 C   0  0  0  0  0  2  0  0  0  0  0  0
  192.5010  172.6440  141.3640 C   0  0  1  0  0  3  0  0  0  0  0  0
  194.1780  171.7790  142.6700 C   0  0  0  0  0  1  0  0  0  0  0  0
  193.1590  171.4520  141.7600 O   0  0  0  0  0  0  0  0  0  0  0  0
  192.7690  173.1500  139.9210 C   0  0  2  0  0  3  0  0  0  0  0  0
  190.1360  173.8440  138.5880 O   0  0  0  0  0  0  0  0  0  0  0  0
  191.9400  172.3960  138.9900 N   0  0  0  0  0  2  0  0  0  0  0  0
  190.5550  172.6670  138.7270 C   0  0  0  0  0  0  0  0  0  0  0  0
  189.6020  171.5280  138.6150 C   0  0  0  0  0  2  0  0  0  0  0  0
  189.2890  171.9580  135.8210 O   0  0  0  0  0  1  0  0  0  0  0  0
  190.0330  170.5400  137.5810 C   0  0  0  0  0  0  0  0  0  0  0  0
  189.8500  170.7710  136.2820 C   0  0  0  0  0  3  0  0  0  0  0  0
  190.5060  169.0800  139.4400 N   0  0  0  0  0  1  0  0  0  0  0  0
  190.6500  169.2480  138.0030 C   0  0  0  0  0  2  0  0  0  0  0  0
  194.1190  173.0600  139.5790 O   0  0  0  0  0  0  0  0  0  0  0  0
  194.6810  174.2790  139.9780 C   0  0  0  0  0  2  0  0  0  0  0  0
  196.6790  172.8750  140.1310 C   0  0  0  0  0  2  0  0  0  0  0  0
  196.1200  174.0780  140.3260 C   0  0  0  0  0  0  0  0  0  0  0  0
  197.1790  175.5190  140.6250 S   0  0  0  0  0  0  0  0  0  0  0  0
  196.0070  176.3960  141.7230 C   0  0  0  0  0  2  0  0  0  0  0  0
  196.6260  176.5990  143.1010 C   0  0  0  0  0  2  0  0  0  0  0  0
  197.5060  175.3960  143.4510 C   0  0  0  0  0  2  0  0  0  0  0  0
  196.6840  174.3320  144.1560 C   0  0  0  0  0  2  0  0  0  0  0  0
  197.3870  173.8940  145.4300 C   0  0  0  0  0  2  0  0  0  0  0  0
  197.5990  171.6270  144.4610 C   0  0  0  0  0  1  0  0  0  0  0  0
  197.1530  172.4100  145.6760 C   0  0  0  0  0  2  0  0  0  0  0  0
  187.7250  176.1510  141.9950 C   0  0  1  0  0  3  0  0  0  0  0  0
  186.1940  178.6480  146.4820 C   0  0  1  0  0  3  0  0  0  0  0  0
  185.1490  176.8750  144.8350 C   0  0  0  0  0  2  0  0  0  0  0  0
  183.8800  178.8210  145.6360 C   0  0  0  0  0  2  0  0  0  0  0  0
  187.4290  177.7850  146.2950 C   0  0  0  0  0  2  0  0  0  0  0  0
  187.6830  177.5240  144.8110 C   0  0  0  0  0  2  0  0  0  0  0  0
  186.5570  176.2610  142.9490 C   0  0  0  0  0  3  0  0  0  0  0  0
  185.0030  178.0950  145.7070 C   0  0  0  0  0  0  0  0  0  0  0  0
  186.4810  176.8880  144.1430 C   0  0  0  0  0  0  0  0  0  0  0  0
  187.0660  179.4050  148.6290 O   0  0  0  0  0  1  0  0  0  0  0  0
  185.6320  177.6130  148.6010 O   0  0  0  0  0  1  0  0  0  0  0  0
  185.9560  178.8340  147.9970 C   0  0  0  0  0  3  0  0  0  0  0  0
  187.9510  177.3860  141.2280 N   0  0  0  0  0  2  0  0  0  0  0  0
  187.0670  177.3890  140.2000 O   0  0  0  0  0  1  0  0  0  0  0  0
  1  5  1  0  0  0  0
  2  7  1  0  0  0  0
  2 10  1  1  0  0  0
  3  6  1  0  0  0  0
  3  2  1  0  0  0  0
  4  1  2  0  0  0  0
  6  9  1  0  0  0  0
  7 43  1  6  0  0  0
  8  6  2  0  0  0  0
  8  4  1  0  0  0  0
  9  7  1  0  0  0  0
  9  5  2  0  0  0  0
 10 16  1  0  0  0  0
 11 13  2  0  0  0  0
 12 17  1  0  0  0  0
 13 14  1  0  0  0  0
 15 16  2  0  0  0  0
 15 11  1  0  0  0  0
 16 12  1  0  0  0  0
 17 14  1  0  0  0  0
 18 20  1  6  0  0  0
 18  8  1  0  0  0  0
 20 19  1  0  0  0  0
 21 23  1  6  0  0  0
 21 18  1  0  0  0  0
 22 24  2  0  0  0  0
 24 23  1  0  0  0  0
 25 24  1  0  0  0  0
 26 28  1  0  0  0  0
 27 30  1  0  0  0  0
 27 25  1  0  0  0  0
 28 27  2  0  0  0  0
 30 29  1  0  0  0  0
 31 21  1  0  0  0  0
 31 32  1  0  0  0  0
 32 34  1  0  0  0  0
 33 34  2  0  0  0  0
 34 35  1  0  0  0  0
 35 36  1  0  0  0  0
 36 37  1  0  0  0  0
 37 38  1  0  0  0  0
 38 39  1  0  0  0  0
 39 40  1  0  0  0  0
 40 42  1  0  0  0  0
 41 42  1  0  0  0  0
 43 49  1  1  0  0  0
 44 54  1  1  0  0  0
 45 50  1  0  0  0  0
 46 50  2  0  0  0  0
 47 44  1  0  0  0  0
 48 47  1  0  0  0  0
 49 51  2  0  0  0  0
 50 44  1  0  0  0  0
 51 48  1  0  0  0  0
 51 45  1  0  0  0  0
 54 53  1  0  0  0  0
 54 52  1  0  0  0  0
 55 43  1  0  0  0  0
 56 55  1  0  0  0  0
M  END
>  <MODEL>
6

>  <REMARK>
 VINA RESULT:      -5.7      1.892      2.640
  Name = 
  23 active torsions:
  status: ('A' for Active; 'I' for Inactive)
    1  A    between atoms: N_4  and  C_26
    2  A    between atoms: C_5  and  C_25
    3  A    between atoms: C_5  and  C_51
    4  A    between atoms: C_6  and  C_55
    5  A    between atoms: C_7  and  C_53
    6  A    between atoms: C_14  and  O_23
    7  A    between atoms: C_14  and  C_34
    8  A    between atoms: C_14  and  N_49
    9  A    between atoms: C_21  and  C_35
   10  A    between atoms: O_23  and  C_45
   11  A    between atoms: C_25  and  C_48
   12  A    between atoms: C_26  and  C_31
   13  A    between atoms: C_26  and  C_40
   14  A    between atoms: S_28  and  C_42
   15  A    between atoms: S_28  and  C_48
   16  A    between atoms: C_33  and  C_44
   17  A    between atoms: C_33  and  C_50
   18  A    between atoms: C_34  and  O_46
   19  A    between atoms: C_34  and  C_52
   20  A    between atoms: C_35  and  C_51
   21  A    between atoms: C_36  and  C_53
   22  A    between atoms: C_42  and  C_45
   23  A    between atoms: C_50  and  C_56
                            x       y       z     vdW  Elec       q    Type
                         _______ _______ _______ _____ _____    ______ ____

>  <TORSDO>
F 23

$$$$
=
 OpenBabel11072408293D

 56 59  0  0  1  0  0  0  0  0999 V2000
  188.4100  172.2700  138.9130 C   0  0  0  0  0  3  0  0  0  0  0  0
  190.0750  174.0280  142.9360 C   0  0  1  0  0  3  0  0  0  0  0  0
  190.8140  173.0770  142.1890 O   0  0  0  0  0  0  0  0  0  0  0  0
  189.6570  171.6240  138.9660 C   0  0  0  0  0  3  0  0  0  0  0  0
  188.0460  173.1870  139.9110 C   0  0  0  0  0  3  0  0  0  0  0  0
  190.1350  172.7520  141.0300 C   0  0  0  0  0  0  0  0  0  0  0  0
  188.7740  174.3100  142.1470 C   0  0  2  0  0  3  0  0  0  0  0  0
  190.5480  171.8650  140.0300 C   0  0  0  0  0  0  0  0  0  0  0  0
  188.9540  173.4400  140.9430 C   0  0  0  0  0  0  0  0  0  0  0  0
  189.7710  173.5000  144.3260 C   0  0  0  0  0  2  0  0  0  0  0  0
  190.1120  175.2040  147.7910 C   0  0  0  0  0  3  0  0  0  0  0  0
  191.5870  175.2070  145.0740 C   0  0  0  0  0  2  0  0  0  0  0  0
  191.2500  175.8580  148.0720 C   0  0  0  0  0  3  0  0  0  0  0  0
  192.4430  176.1020  147.1820 C   0  0  0  0  0  2  0  0  0  0  0  0
  189.7210  174.4840  146.5580 C   0  0  0  0  0  3  0  0  0  0  0  0
  190.3680  174.3970  145.3860 C   0  0  0  0  0  0  0  0  0  0  0  0
  192.6570  175.0300  146.1340 C   0  0  0  0  0  2  0  0  0  0  0  0
  191.8720  171.1270  140.0530 C   0  0  1  0  0  3  0  0  0  0  0  0
  191.8840  168.9080  139.4730 C   0  0  0  0  0  1  0  0  0  0  0  0
  192.0850  170.2120  138.9920 O   0  0  0  0  0  0  0  0  0  0  0  0
  193.1220  171.8560  140.6160 C   0  0  2  0  0  3  0  0  0  0  0  0
  193.4120  174.7490  139.7570 O   0  0  0  0  0  0  0  0  0  0  0  0
  193.8600  172.4570  139.5140 N   0  0  0  0  0  2  0  0  0  0  0  0
  193.6210  173.7730  138.9920 C   0  0  0  0  0  0  0  0  0  0  0  0
  193.6240  173.9800  137.5180 C   0  0  0  0  0  2  0  0  0  0  0  0
  190.8520  174.3700  137.0160 O   0  0  0  0  0  1  0  0  0  0  0  0
  192.7710  172.9780  136.8120 C   0  0  0  0  0  0  0  0  0  0  0  0
  191.4710  173.1900  136.6150 C   0  0  0  0  0  3  0  0  0  0  0  0
  192.3660  170.9050  135.6500 N   0  0  0  0  0  1  0  0  0  0  0  0
  193.3700  171.6930  136.3450 C   0  0  0  0  0  2  0  0  0  0  0  0
  193.9340  170.9980  141.3590 O   0  0  0  0  0  0  0  0  0  0  0  0
  193.3570  170.9560  142.6340 C   0  0  0  0  0  2  0  0  0  0  0  0
  192.8990  168.5810  143.0010 C   0  0  0  0  0  2  0  0  0  0  0  0
  193.6650  169.6450  143.2810 C   0  0  0  0  0  0  0  0  0  0  0  0
  195.2620  169.4050  144.1030 S   0  0  0  0  0  0  0  0  0  0  0  0
  195.1630  170.8990  145.1560 C   0  0  0  0  0  2  0  0  0  0  0  0
  196.4270  171.0360  145.9970 C   0  0  0  0  0  2  0  0  0  0  0  0
  197.0140  172.4390  145.8170 C   0  0  0  0  0  2  0  0  0  0  0  0
  195.9000  173.4510  145.6200 C   0  0  0  0  0  2  0  0  0  0  0  0
  196.4180  174.6470  144.8390 C   0  0  0  0  0  2  0  0  0  0  0  0
  195.6050  173.8720  142.6350 C   0  0  0  0  0  1  0  0  0  0  0  0
  195.4850  174.9610  143.6780 C   0  0  0  0  0  2  0  0  0  0  0  0
  188.6120  175.8070  141.7840 C   0  0  1  0  0  3  0  0  0  0  0  0
  186.3360  178.4080  145.8780 C   0  0  1  0  0  3  0  0  0  0  0  0
  185.5110  177.2590  143.6540 C   0  0  0  0  0  2  0  0  0  0  0  0
  184.7260  179.4830  144.3440 C   0  0  0  0  0  2  0  0  0  0  0  0
  187.1970  177.1610  145.9560 C   0  0  0  0  0  2  0  0  0  0  0  0
  187.9130  176.9170  144.6280 C   0  0  0  0  0  2  0  0  0  0  0  0
  187.2660  176.2830  142.2810 C   0  0  0  0  0  3  0  0  0  0  0  0
  185.4340  178.3880  144.6480 C   0  0  0  0  0  0  0  0  0  0  0  0
  186.9350  176.8180  143.4760 C   0  0  0  0  0  0  0  0  0  0  0  0
  185.9940  179.7370  147.8920 O   0  0  0  0  0  1  0  0  0  0  0  0
  185.8000  177.4550  148.0420 O   0  0  0  0  0  1  0  0  0  0  0  0
  185.5970  178.5730  147.2240 C   0  0  0  0  0  3  0  0  0  0  0  0
  189.7300  176.6030  142.3150 N   0  0  0  0  0  2  0  0  0  0  0  0
  189.5280  177.8870  141.9310 O   0  0  0  0  0  1  0  0  0  0  0  0
  1  4  2  0  0  0  0
  1  5  1  0  0  0  0
  2 10  1  1  0  0  0
  3  2  1  0  0  0  0
  4  8  1  0  0  0  0
  5  9  2  0  0  0  0
  6  3  1  0  0  0  0
  7 43  1  6  0  0  0
  7  2  1  0  0  0  0
  8 18  1  0  0  0  0
  8  6  2  0  0  0  0
  9  6  1  0  0  0  0
  9  7  1  0  0  0  0
 10 16  1  0  0  0  0
 11 13  2  0  0  0  0
 12 16  1  0  0  0  0
 12 17  1  0  0  0  0
 14 13  1  0  0  0  0
 15 11  1  0  0  0  0
 16 15  2  0  0  0  0
 17 14  1  0  0  0  0
 18 20  1  6  0  0  0
 18 21  1  0  0  0  0
 20 19  1  0  0  0  0
 21 23  1  6  0  0  0
 21 31  1  0  0  0  0
 24 23  1  0  0  0  0
 24 22  2  0  0  0  0
 25 24  1  0  0  0  0
 27 25  1  0  0  0  0
 28 27  2  0  0  0  0
 28 26  1  0  0  0  0
 29 30  1  0  0  0  0
 30 27  1  0  0  0  0
 31 32  1  0  0  0  0
 32 34  1  0  0  0  0
 33 34  2  0  0  0  0
 34 35  1  0  0  0  0
 35 36  1  0  0  0  0
 36 37  1  0  0  0  0
 38 37  1  0  0  0  0
 39 38  1  0  0  0  0
 40 39  1  0  0  0  0
 41 42  1  0  0  0  0
 42 40  1  0  0  0  0
 43 49  1  1  0  0  0
 43 55  1  0  0  0  0
 44 47  1  0  0  0  0
 44 54  1  1  0  0  0
 45 50  1  0  0  0  0
 46 50  2  0  0  0  0
 48 47  1  0  0  0  0
 49 51  2  0  0  0  0
 50 44  1  0  0  0  0
 51 45  1  0  0  0  0
 51 48  1  0  0  0  0
 54 52  1  0  0  0  0
 54 53  1  0  0  0  0
 56 55  1  0  0  0  0
M  END
>  <MODEL>
7

>  <REMARK>
 VINA RESULT:      -5.7      1.508      2.391
  Name = 
  23 active torsions:
  status: ('A' for Active; 'I' for Inactive)
    1  A    between atoms: N_4  and  C_26
    2  A    between atoms: C_5  and  C_25
    3  A    between atoms: C_5  and  C_51
    4  A    between atoms: C_6  and  C_55
    5  A    between atoms: C_7  and  C_53
    6  A    between atoms: C_14  and  O_23
    7  A    between atoms: C_14  and  C_34
    8  A    between atoms: C_14  and  N_49
    9  A    between atoms: C_21  and  C_35
   10  A    between atoms: O_23  and  C_45
   11  A    between atoms: C_25  and  C_48
   12  A    between atoms: C_26  and  C_31
   13  A    between atoms: C_26  and  C_40
   14  A    between atoms: S_28  and  C_42
   15  A    between atoms: S_28  and  C_48
   16  A    between atoms: C_33  and  C_44
   17  A    between atoms: C_33  and  C_50
   18  A    between atoms: C_34  and  O_46
   19  A    between atoms: C_34  and  C_52
   20  A    between atoms: C_35  and  C_51
   21  A    between atoms: C_36  and  C_53
   22  A    between atoms: C_42  and  C_45
   23  A    between atoms: C_50  and  C_56
                            x       y       z     vdW  Elec       q    Type
                         _______ _______ _______ _____ _____    ______ ____

>  <TORSDO>
F 23

$$$$
=
 OpenBabel11072408293D

 56 59  0  0  1  0  0  0  0  0999 V2000
  188.5280  173.4900  137.9700 C   0  0  0  0  0  3  0  0  0  0  0  0
  189.8180  174.6330  142.3370 C   0  0  1  0  0  3  0  0  0  0  0  0
  190.7530  174.1110  141.4090 O   0  0  0  0  0  0  0  0  0  0  0  0
  189.9020  173.2000  137.9040 C   0  0  0  0  0  3  0  0  0  0  0  0
  187.9730  174.0200  139.1440 C   0  0  0  0  0  3  0  0  0  0  0  0
  190.1420  173.9000  140.1880 C   0  0  0  0  0  0  0  0  0  0  0  0
  188.4610  174.7400  141.6000 C   0  0  2  0  0  3  0  0  0  0  0  0
  190.7360  173.4110  139.0190 C   0  0  0  0  0  0  0  0  0  0  0  0
  188.8190  174.2540  140.2320 C   0  0  0  0  0  0  0  0  0  0  0  0
  189.7120  173.7340  143.5560 C   0  0  0  0  0  2  0  0  0  0  0  0
  191.2750  176.5880  145.6630 C   0  0  0  0  0  3  0  0  0  0  0  0
  190.0070  173.8090  146.1400 C   0  0  0  0  0  2  0  0  0  0  0  0
  191.1130  176.5610  146.9950 C   0  0  0  0  0  3  0  0  0  0  0  0
  190.4460  175.5070  147.8430 C   0  0  0  0  0  2  0  0  0  0  0  0
  190.7980  175.6320  144.6380 C   0  0  0  0  0  3  0  0  0  0  0  0
  190.1760  174.4550  144.8000 C   0  0  0  0  0  0  0  0  0  0  0  0
  189.3460  174.7490  147.1290 C   0  0  0  0  0  2  0  0  0  0  0  0
  192.2070  173.0620  138.9050 C   0  0  1  0  0  3  0  0  0  0  0  0
  192.4050  170.9070  139.6660 C   0  0  0  0  0  1  0  0  0  0  0  0
  192.4950  171.7260  138.5290 O   0  0  0  0  0  0  0  0  0  0  0  0
  193.1980  174.1580  138.4270 C   0  0  2  0  0  3  0  0  0  0  0  0
  193.3220  172.8910  135.6760 O   0  0  0  0  0  0  0  0  0  0  0  0
  192.7710  174.6530  137.1250 N   0  0  0  0  0  2  0  0  0  0  0  0
  193.2170  174.1290  135.8660 C   0  0  0  0  0  0  0  0  0  0  0  0
  193.5580  175.0740  134.7670 C   0  0  0  0  0  2  0  0  0  0  0  0
  192.2830  177.6040  135.0080 O   0  0  0  0  0  1  0  0  0  0  0  0
  194.2510  176.2950  135.2770 C   0  0  0  0  0  0  0  0  0  0  0  0
  193.6230  177.4670  135.3550 C   0  0  0  0  0  3  0  0  0  0  0  0
  196.4920  177.0290  134.7760 N   0  0  0  0  0  1  0  0  0  0  0  0
  195.6880  176.2190  135.6760 C   0  0  0  0  0  2  0  0  0  0  0  0
  194.5110  173.6870  138.3810 O   0  0  0  0  0  0  0  0  0  0  0  0
  195.1590  174.2960  139.4620 C   0  0  0  0  0  2  0  0  0  0  0  0
  197.4760  174.7710  138.8340 C   0  0  0  0  0  2  0  0  0  0  0  0
  196.6110  173.9440  139.4400 C   0  0  0  0  0  0  0  0  0  0  0  0
  197.2360  172.6500  140.5450 S   0  0  0  0  0  0  0  0  0  0  0  0
  197.0010  173.5900  142.0970 C   0  0  0  0  0  2  0  0  0  0  0  0
  196.1630  172.7820  143.0820 C   0  0  0  0  0  2  0  0  0  0  0  0
  194.6770  173.0320  142.8170 C   0  0  0  0  0  2  0  0  0  0  0  0
  194.0160  173.6210  144.0510 C   0  0  0  0  0  2  0  0  0  0  0  0
  194.4340  175.0720  144.2200 C   0  0  0  0  0  2  0  0  0  0  0  0
  194.5280  176.0350  146.4960 C   0  0  0  0  0  1  0  0  0  0  0  0
  195.2910  175.2320  145.4670 C   0  0  0  0  0  2  0  0  0  0  0  0
  187.9010  176.1840  141.5940 C   0  0  1  0  0  3  0  0  0  0  0  0
  186.3900  178.4280  146.2190 C   0  0  1  0  0  3  0  0  0  0  0  0
  185.3240  176.7750  144.4640 C   0  0  0  0  0  2  0  0  0  0  0  0
  184.0820  178.6880  145.3780 C   0  0  0  0  0  2  0  0  0  0  0  0
  187.6120  177.5580  145.9840 C   0  0  0  0  0  2  0  0  0  0  0  0
  187.8680  177.3830  144.4880 C   0  0  0  0  0  2  0  0  0  0  0  0
  186.7310  176.2530  142.5480 C   0  0  0  0  0  3  0  0  0  0  0  0
  185.1930  177.9420  145.4080 C   0  0  0  0  0  0  0  0  0  0  0  0
  186.6600  176.8080  143.7780 C   0  0  0  0  0  0  0  0  0  0  0  0
  187.2510  179.0710  148.4060 O   0  0  0  0  0  1  0  0  0  0  0  0
  185.8370  177.2680  148.2750 O   0  0  0  0  0  1  0  0  0  0  0  0
  186.1480  178.5250  147.7420 C   0  0  0  0  0  3  0  0  0  0  0  0
  188.9550  177.1600  141.9130 N   0  0  0  0  0  2  0  0  0  0  0  0
  188.6190  178.3260  141.3090 O   0  0  0  0  0  1  0  0  0  0  0  0
  1  5  1  0  0  0  0
  2 10  1  1  0  0  0
  3  2  1  0  0  0  0
  4  1  2  0  0  0  0
  4  8  1  0  0  0  0
  5  9  2  0  0  0  0
  6  9  1  0  0  0  0
  6  3  1  0  0  0  0
  7 43  1  6  0  0  0
  7  2  1  0  0  0  0
  8  6  2  0  0  0  0
  9  7  1  0  0  0  0
 10 16  1  0  0  0  0
 11 13  2  0  0  0  0
 12 17  1  0  0  0  0
 13 14  1  0  0  0  0
 15 16  2  0  0  0  0
 15 11  1  0  0  0  0
 16 12  1  0  0  0  0
 17 14  1  0  0  0  0
 18 20  1  6  0  0  0
 18  8  1  0  0  0  0
 20 19  1  0  0  0  0
 21 23  1  6  0  0  0
 21 18  1  0  0  0  0
 22 24  2  0  0  0  0
 24 23  1  0  0  0  0
 25 27  1  0  0  0  0
 25 24  1  0  0  0  0
 26 28  1  0  0  0  0
 27 28  2  0  0  0  0
 27 30  1  0  0  0  0
 29 30  1  0  0  0  0
 31 21  1  0  0  0  0
 31 32  1  0  0  0  0
 33 34  2  0  0  0  0
 34 32  1  0  0  0  0
 34 35  1  0  0  0  0
 35 36  1  0  0  0  0
 36 37  1  0  0  0  0
 38 37  1  0  0  0  0
 38 39  1  0  0  0  0
 39 40  1  0  0  0  0
 40 42  1  0  0  0  0
 42 41  1  0  0  0  0
 43 55  1  0  0  0  0
 43 49  1  1  0  0  0
 44 54  1  1  0  0  0
 45 50  1  0  0  0  0
 46 50  2  0  0  0  0
 47 44  1  0  0  0  0
 48 47  1  0  0  0  0
 49 51  2  0  0  0  0
 50 44  1  0  0  0  0
 51 45  1  0  0  0  0
 51 48  1  0  0  0  0
 54 53  1  0  0  0  0
 54 52  1  0  0  0  0
 56 55  1  0  0  0  0
M  END
>  <MODEL>
8

>  <REMARK>
 VINA RESULT:      -5.7      2.314      2.950
  Name = 
  23 active torsions:
  status: ('A' for Active; 'I' for Inactive)
    1  A    between atoms: N_4  and  C_26
    2  A    between atoms: C_5  and  C_25
    3  A    between atoms: C_5  and  C_51
    4  A    between atoms: C_6  and  C_55
    5  A    between atoms: C_7  and  C_53
    6  A    between atoms: C_14  and  O_23
    7  A    between atoms: C_14  and  C_34
    8  A    between atoms: C_14  and  N_49
    9  A    between atoms: C_21  and  C_35
   10  A    between atoms: O_23  and  C_45
   11  A    between atoms: C_25  and  C_48
   12  A    between atoms: C_26  and  C_31
   13  A    between atoms: C_26  and  C_40
   14  A    between atoms: S_28  and  C_42
   15  A    between atoms: S_28  and  C_48
   16  A    between atoms: C_33  and  C_44
   17  A    between atoms: C_33  and  C_50
   18  A    between atoms: C_34  and  O_46
   19  A    between atoms: C_34  and  C_52
   20  A    between atoms: C_35  and  C_51
   21  A    between atoms: C_36  and  C_53
   22  A    between atoms: C_42  and  C_45
   23  A    between atoms: C_50  and  C_56
                            x       y       z     vdW  Elec       q    Type
                         _______ _______ _______ _____ _____    ______ ____

>  <TORSDO>
F 23

$$$$
=
 OpenBabel11072408293D

 56 59  0  0  1  0  0  0  0  0999 V2000
  188.5100  172.8820  138.4810 C   0  0  0  0  0  3  0  0  0  0  0  0
  190.3030  174.1240  142.6390 C   0  0  1  0  0  3  0  0  0  0  0  0
  191.0500  173.3460  141.7210 O   0  0  0  0  0  0  0  0  0  0  0  0
  189.7930  172.3180  138.3740 C   0  0  0  0  0  3  0  0  0  0  0  0
  188.1520  173.6140  139.6240 C   0  0  0  0  0  3  0  0  0  0  0  0
  190.3250  173.1540  140.5600 C   0  0  0  0  0  0  0  0  0  0  0  0
  188.9440  174.4350  141.9670 C   0  0  2  0  0  3  0  0  0  0  0  0
  190.7290  172.4560  139.4170 C   0  0  0  0  0  0  0  0  0  0  0  0
  189.1030  173.7690  140.6370 C   0  0  0  0  0  0  0  0  0  0  0  0
  190.1110  173.3750  143.9450 C   0  0  0  0  0  2  0  0  0  0  0  0
  189.7990  174.9260  147.4850 C   0  0  0  0  0  3  0  0  0  0  0  0
  191.6970  175.1160  145.0520 C   0  0  0  0  0  2  0  0  0  0  0  0
  190.8430  175.6110  147.9760 C   0  0  0  0  0  3  0  0  0  0  0  0
  192.1530  175.9430  147.3060 C   0  0  0  0  0  2  0  0  0  0  0  0
  189.6500  174.2500  146.1760 C   0  0  0  0  0  3  0  0  0  0  0  0
  190.4830  174.2440  145.1250 C   0  0  0  0  0  0  0  0  0  0  0  0
  192.5860  174.9310  146.2670 C   0  0  0  0  0  2  0  0  0  0  0  0
  192.0920  171.8110  139.2620 C   0  0  1  0  0  3  0  0  0  0  0  0
  192.2690  169.6340  138.5580 C   0  0  0  0  0  1  0  0  0  0  0  0
  192.2510  170.9720  138.1310 O   0  0  0  0  0  0  0  0  0  0  0  0
  193.3450  172.5920  139.7420 C   0  0  2  0  0  3  0  0  0  0  0  0
  194.5020  172.9680  136.9650 O   0  0  0  0  0  0  0  0  0  0  0  0
  193.5030  173.7880  138.9250 N   0  0  0  0  0  2  0  0  0  0  0  0
  194.3920  173.8990  137.8040 C   0  0  0  0  0  0  0  0  0  0  0  0
  195.1930  175.1420  137.6330 C   0  0  0  0  0  2  0  0  0  0  0  0
  195.6940  175.8320  140.3460 O   0  0  0  0  0  1  0  0  0  0  0  0
  196.5390  175.0300  138.2710 C   0  0  0  0  0  0  0  0  0  0  0  0
  196.7360  175.3830  139.5410 C   0  0  0  0  0  3  0  0  0  0  0  0
  197.9350  173.1390  137.7380 N   0  0  0  0  0  1  0  0  0  0  0  0
  197.7010  174.5480  137.4680 C   0  0  0  0  0  2  0  0  0  0  0  0
  194.4960  171.8030  139.7070 O   0  0  0  0  0  0  0  0  0  0  0  0
  195.1030  171.9820  140.9560 C   0  0  0  0  0  2  0  0  0  0  0  0
  194.3930  169.7620  141.7000 C   0  0  0  0  0  2  0  0  0  0  0  0
  194.4660  171.0750  141.9580 C   0  0  0  0  0  0  0  0  0  0  0  0
  194.1660  171.6730  143.6430 S   0  0  0  0  0  0  0  0  0  0  0  0
  195.6880  170.9670  144.3730 C   0  0  0  0  0  2  0  0  0  0  0  0
  196.5410  172.0720  144.9870 C   0  0  0  0  0  2  0  0  0  0  0  0
  195.6410  173.2290  145.4280 C   0  0  0  0  0  2  0  0  0  0  0  0
  196.4140  174.5350  145.3980 C   0  0  0  0  0  2  0  0  0  0  0  0
  195.7810  175.4890  144.3990 C   0  0  0  0  0  2  0  0  0  0  0  0
  197.9410  174.9870  143.3030 C   0  0  0  0  0  1  0  0  0  0  0  0
  196.8320  176.0080  143.4270 C   0  0  0  0  0  2  0  0  0  0  0  0
  188.6760  175.9550  141.8450 C   0  0  1  0  0  3  0  0  0  0  0  0
  186.3620  178.4870  145.9610 C   0  0  1  0  0  3  0  0  0  0  0  0
  185.5480  177.0540  143.9030 C   0  0  0  0  0  2  0  0  0  0  0  0
  184.4780  179.1780  144.5210 C   0  0  0  0  0  2  0  0  0  0  0  0
  187.4150  177.3970  146.0370 C   0  0  0  0  0  2  0  0  0  0  0  0
  188.0480  177.1630  144.6660 C   0  0  0  0  0  2  0  0  0  0  0  0
  187.3170  176.2560  142.4360 C   0  0  0  0  0  3  0  0  0  0  0  0
  185.3750  178.2330  144.8260 C   0  0  0  0  0  0  0  0  0  0  0  0
  187.0050  176.8250  143.6210 C   0  0  0  0  0  0  0  0  0  0  0  0
  186.2440  179.7390  148.0490 O   0  0  0  0  0  1  0  0  0  0  0  0
  185.8870  177.4730  148.1120 O   0  0  0  0  0  1  0  0  0  0  0  0
  185.7200  178.6410  147.3580 C   0  0  0  0  0  3  0  0  0  0  0  0
  189.7550  176.7340  142.4730 N   0  0  0  0  0  2  0  0  0  0  0  0
  189.6780  177.9950  141.9860 O   0  0  0  0  0  1  0  0  0  0  0  0
  1  5  1  0  0  0  0
  2 10  1  1  0  0  0
  3  2  1  0  0  0  0
  4  1  2  0  0  0  0
  4  8  1  0  0  0  0
  5  9  2  0  0  0  0
  6  9  1  0  0  0  0
  6  3  1  0  0  0  0
  7 43  1  6  0  0  0
  7  2  1  0  0  0  0
  8  6  2  0  0  0  0
  9  7  1  0  0  0  0
 10 16  1  0  0  0  0
 11 13  2  0  0  0  0
 12 16  1  0  0  0  0
 12 17  1  0  0  0  0
 14 13  1  0  0  0  0
 15 11  1  0  0  0  0
 16 15  2  0  0  0  0
 17 14  1  0  0  0  0
 18 20  1  6  0  0  0
 18  8  1  0  0  0  0
 18 21  1  0  0  0  0
 20 19  1  0  0  0  0
 21 23  1  6  0  0  0
 22 24  2  0  0  0  0
 24 23  1  0  0  0  0
 25 24  1  0  0  0  0
 25 27  1  0  0  0  0
 27 28  2  0  0  0  0
 28 26  1  0  0  0  0
 30 29  1  0  0  0  0
 30 27  1  0  0  0  0
 31 21  1  0  0  0  0
 31 32  1  0  0  0  0
 32 34  1  0  0  0  0
 33 34  2  0  0  0  0
 34 35  1  0  0  0  0
 35 36  1  0  0  0  0
 36 37  1  0  0  0  0
 37 38  1  0  0  0  0
 39 38  1  0  0  0  0
 40 39  1  0  0  0  0
 41 42  1  0  0  0  0
 42 40  1  0  0  0  0
 43 49  1  1  0  0  0
 43 55  1  0  0  0  0
 44 47  1  0  0  0  0
 44 54  1  1  0  0  0
 45 50  1  0  0  0  0
 46 50  2  0  0  0  0
 48 47  1  0  0  0  0
 49 51  2  0  0  0  0
 50 44  1  0  0  0  0
 51 45  1  0  0  0  0
 51 48  1  0  0  0  0
 54 52  1  0  0  0  0
 54 53  1  0  0  0  0
 56 55  1  0  0  0  0
M  END
>  <MODEL>
9

>  <REMARK>
 VINA RESULT:      -5.6      1.745      3.048
  Name = 
  23 active torsions:
  status: ('A' for Active; 'I' for Inactive)
    1  A    between atoms: N_4  and  C_26
    2  A    between atoms: C_5  and  C_25
    3  A    between atoms: C_5  and  C_51
    4  A    between atoms: C_6  and  C_55
    5  A    between atoms: C_7  and  C_53
    6  A    between atoms: C_14  and  O_23
    7  A    between atoms: C_14  and  C_34
    8  A    between atoms: C_14  and  N_49
    9  A    between atoms: C_21  and  C_35
   10  A    between atoms: O_23  and  C_45
   11  A    between atoms: C_25  and  C_48
   12  A    between atoms: C_26  and  C_31
   13  A    between atoms: C_26  and  C_40
   14  A    between atoms: S_28  and  C_42
   15  A    between atoms: S_28  and  C_48
   16  A    between atoms: C_33  and  C_44
   17  A    between atoms: C_33  and  C_50
   18  A    between atoms: C_34  and  O_46
   19  A    between atoms: C_34  and  C_52
   20  A    between atoms: C_35  and  C_51
   21  A    between atoms: C_36  and  C_53
   22  A    between atoms: C_42  and  C_45
   23  A    between atoms: C_50  and  C_56
                            x       y       z     vdW  Elec       q    Type
                         _______ _______ _______ _____ _____    ______ ____

>  <TORSDO>
F 23

$$$$
