=
 OpenBabel11072408503D

 26 28  0  0  1  0  0  0  0  0999 V2000
  188.7710  178.0880  142.0880 C   0  0  0  0  0  2  0  0  0  0  0  0
  188.8920  177.7520  143.5880 C   0  0  1  0  0  3  0  0  0  0  0  0
  188.8310  175.8290  145.0610 O   0  0  0  0  0  0  0  0  0  0  0  0
  190.0540  175.3160  144.5830 C   0  0  1  0  0  3  0  0  0  0  0  0
  188.2060  176.4190  143.9510 C   0  0  1  0  0  3  0  0  0  0  0  0
  186.5150  177.9120  142.0170 C   0  0  0  0  0  2  0  0  0  0  0  0
  185.9130  176.8330  142.9150 C   0  0  0  0  0  2  0  0  0  0  0  0
  187.7030  177.4270  141.4520 O   0  0  0  0  0  0  0  0  0  0  0  0
  190.3360  177.8050  144.1220 C   0  0  2  0  0  3  0  0  0  0  0  0
  186.7070  176.6180  144.2100 C   0  0  2  0  0  3  0  0  0  0  0  0
  191.1190  178.7370  143.4400 O   0  0  0  0  0  1  0  0  0  0  0  0
  191.0130  176.4320  144.1300 C   0  0  0  0  0  2  0  0  0  0  0  0
  190.7240  174.4810  145.6620 C   0  0  0  0  0  2  0  0  0  0  0  0
  191.6830  175.3240  146.4920 C   0  0  1  0  0  3  0  0  0  0  0  0
  191.3320  176.8220  148.3470 O   0  0  0  0  0  1  0  0  0  0  0  0
  191.1720  175.5020  147.9200 C   0  0  0  0  0  2  0  0  0  0  0  0
  193.0660  174.6900  146.4730 C   0  0  0  0  0  2  0  0  0  0  0  0
  194.6610  175.7460  145.0860 O   0  0  0  0  0  0  0  0  0  0  0  0
  194.1370  175.7600  146.3590 C   0  0  0  0  0  3  0  0  0  0  0  0
  195.3480  175.1670  146.0830 O   0  0  0  0  0  0  0  0  0  0  0  0
  186.4840  177.6730  145.1020 O   0  0  0  0  0  0  0  0  0  0  0  0
  185.2930  177.3470  145.7560 C   0  0  0  0  0  2  0  0  0  0  0  0
  184.3600  178.4420  147.6470 F   0  0  0  0  0  0  0  0  0  0  0  0
  184.6350  178.6020  146.3020 C   0  0  0  0  0  0  0  0  0  0  0  0
  183.4600  178.8540  145.6170 F   0  0  0  0  0  0  0  0  0  0  0  0
  185.4930  179.6720  146.1370 F   0  0  0  0  0  0  0  0  0  0  0  0
  2  1  1  6  0  0  0
  2  5  1  0  0  0  0
  2  9  1  0  0  0  0
  4  3  1  0  0  0  0
  4 13  1  1  0  0  0
  5 10  1  0  0  0  0
  5  3  1  1  0  0  0
  6  7  1  0  0  0  0
  7 10  1  0  0  0  0
  8  6  1  0  0  0  0
  8  1  1  0  0  0  0
  9 11  1  6  0  0  0
  9 12  1  0  0  0  0
 10 21  1  1  0  0  0
 12  4  1  0  0  0  0
 14 13  1  6  0  0  0
 14 16  1  0  0  0  0
 16 15  1  0  0  0  0
 17 14  1  0  0  0  0
 18 20  1  0  0  0  0
 18 19  1  0  0  0  0
 19 17  1  0  0  0  0
 20 19  1  0  0  0  0
 21 22  1  0  0  0  0
 22 24  1  0  0  0  0
 24 23  1  0  0  0  0
 25 24  1  0  0  0  0
 26 24  1  0  0  0  0
M  END
>  <MODEL>
1

>  <REMARK>
 VINA RESULT:      -6.6      0.000      0.000
  Name = 
  8 active torsions:
  status: ('A' for Active; 'I' for Inactive)
    1  A    between atoms: C_1  and  C_17
    2  A    between atoms: C_1  and  C_24
    3  A    between atoms: C_5  and  C_14
    4  A    between atoms: C_9  and  C_21
    5  A    between atoms: C_10  and  C_24
    6  A    between atoms: C_14  and  O_22
    7  A    between atoms: C_20  and  O_22
    8  A    between atoms: C_21  and  C_24
                            x       y       z     vdW  Elec       q    Type
                         _______ _______ _______ _____ _____    ______ ____

>  <TORSDO>
F 8

$$$$
=
 OpenBabel11072408503D

 26 28  0  0  1  0  0  0  0  0999 V2000
  186.3670  177.3590  147.2910 C   0  0  0  0  0  2  0  0  0  0  0  0
  187.0310  176.9170  145.9710 C   0  0  1  0  0  3  0  0  0  0  0  0
  188.4410  177.8220  144.2200 O   0  0  0  0  0  0  0  0  0  0  0  0
  189.5700  177.9160  145.0580 C   0  0  1  0  0  3  0  0  0  0  0  0
  187.3350  178.1070  145.0380 C   0  0  1  0  0  3  0  0  0  0  0  0
  184.6740  178.4910  146.3020 C   0  0  0  0  0  2  0  0  0  0  0  0
  185.0360  179.2100  145.0030 C   0  0  0  0  0  2  0  0  0  0  0  0
  185.7380  178.6150  147.2070 O   0  0  0  0  0  0  0  0  0  0  0  0
  188.2720  176.0260  146.1680 C   0  0  2  0  0  3  0  0  0  0  0  0
  186.1100  178.4760  144.1910 C   0  0  2  0  0  3  0  0  0  0  0  0
  188.1900  175.2520  147.3270 O   0  0  0  0  0  1  0  0  0  0  0  0
  189.5800  176.8210  146.1420 C   0  0  0  0  0  2  0  0  0  0  0  0
  190.8410  177.8200  144.2300 C   0  0  0  0  0  2  0  0  0  0  0  0
  191.5640  176.5040  144.4860 C   0  0  1  0  0  3  0  0  0  0  0  0
  190.2180  175.0410  143.1210 O   0  0  0  0  0  1  0  0  0  0  0  0
  191.4960  175.5870  143.2660 C   0  0  0  0  0  2  0  0  0  0  0  0
  193.0040  176.7830  144.8890 C   0  0  0  0  0  2  0  0  0  0  0  0
  194.2020  177.1720  146.8880 O   0  0  0  0  0  0  0  0  0  0  0  0
  193.2420  176.3600  146.3270 C   0  0  0  0  0  3  0  0  0  0  0  0
  194.5460  175.9440  146.4720 O   0  0  0  0  0  0  0  0  0  0  0  0
  185.5660  177.3450  143.5700 O   0  0  0  0  0  0  0  0  0  0  0  0
  185.2860  177.7520  142.2630 C   0  0  0  0  0  2  0  0  0  0  0  0
  185.9160  177.1650  140.0480 F   0  0  0  0  0  0  0  0  0  0  0  0
  186.4060  177.3240  141.3300 C   0  0  0  0  0  0  0  0  0  0  0  0
  186.9510  176.1300  141.7670 F   0  0  0  0  0  0  0  0  0  0  0  0
  187.3880  178.2950  141.3250 F   0  0  0  0  0  0  0  0  0  0  0  0
  2  9  1  0  0  0  0
  2  1  1  1  0  0  0
  3  4  1  0  0  0  0
  4 13  1  6  0  0  0
  4 12  1  0  0  0  0
  5  3  1  6  0  0  0
  5  2  1  0  0  0  0
  6  8  1  0  0  0  0
  7  6  1  0  0  0  0
  8  1  1  0  0  0  0
  9 11  1  1  0  0  0
 10 21  1  1  0  0  0
 10  7  1  0  0  0  0
 10  5  1  0  0  0  0
 12  9  1  0  0  0  0
 13 14  1  0  0  0  0
 14 16  1  6  0  0  0
 14 17  1  0  0  0  0
 15 16  1  0  0  0  0
 17 19  1  0  0  0  0
 19 20  1  0  0  0  0
 19 18  1  0  0  0  0
 20 18  1  0  0  0  0
 22 21  1  0  0  0  0
 23 24  1  0  0  0  0
 24 25  1  0  0  0  0
 24 22  1  0  0  0  0
 26 24  1  0  0  0  0
M  END
>  <MODEL>
2

>  <REMARK>
 VINA RESULT:      -6.6      2.745      4.141
  Name = 
  8 active torsions:
  status: ('A' for Active; 'I' for Inactive)
    1  A    between atoms: C_1  and  C_17
    2  A    between atoms: C_1  and  C_24
    3  A    between atoms: C_5  and  C_14
    4  A    between atoms: C_9  and  C_21
    5  A    between atoms: C_10  and  C_24
    6  A    between atoms: C_14  and  O_22
    7  A    between atoms: C_20  and  O_22
    8  A    between atoms: C_21  and  C_24
                            x       y       z     vdW  Elec       q    Type
                         _______ _______ _______ _____ _____    ______ ____

>  <TORSDO>
F 8

$$$$
=
 OpenBabel11072408503D

 26 28  0  0  1  0  0  0  0  0999 V2000
  185.9250  178.4470  145.6310 C   0  0  0  0  0  2  0  0  0  0  0  0
  186.8720  177.3370  145.1300 C   0  0  1  0  0  3  0  0  0  0  0  0
  189.0630  177.0950  144.1250 O   0  0  0  0  0  0  0  0  0  0  0  0
  189.7390  177.5030  145.2920 C   0  0  1  0  0  3  0  0  0  0  0  0
  187.8820  177.8530  144.0850 C   0  0  1  0  0  3  0  0  0  0  0  0
  185.2160  179.0600  143.5710 C   0  0  0  0  0  2  0  0  0  0  0  0
  186.2680  178.9820  142.4650 C   0  0  0  0  0  2  0  0  0  0  0  0
  185.8200  179.5350  144.7450 O   0  0  0  0  0  0  0  0  0  0  0  0
  187.5780  176.5660  146.2610 C   0  0  2  0  0  3  0  0  0  0  0  0
  187.2750  177.8450  142.6750 C   0  0  2  0  0  3  0  0  0  0  0  0
  186.8050  176.5010  147.4210 O   0  0  0  0  0  1  0  0  0  0  0  0
  188.9720  177.1170  146.5710 C   0  0  0  0  0  2  0  0  0  0  0  0
  191.1280  176.8860  145.3300 C   0  0  0  0  0  2  0  0  0  0  0  0
  191.1410  175.6150  146.1680 C   0  0  1  0  0  3  0  0  0  0  0  0
  191.2890  174.5190  144.0250 O   0  0  0  0  0  1  0  0  0  0  0  0
  190.7900  174.3910  145.3230 C   0  0  0  0  0  2  0  0  0  0  0  0
  192.4990  175.4570  146.8350 C   0  0  0  0  0  2  0  0  0  0  0  0
  194.8060  175.8480  146.5120 O   0  0  0  0  0  0  0  0  0  0  0  0
  193.5580  176.2240  146.0660 C   0  0  0  0  0  3  0  0  0  0  0  0
  194.2810  177.0060  146.9390 O   0  0  0  0  0  0  0  0  0  0  0  0
  186.6860  176.6090  142.3860 O   0  0  0  0  0  0  0  0  0  0  0  0
  187.3460  176.1530  141.2420 C   0  0  0  0  0  2  0  0  0  0  0  0
  187.9480  174.5170  142.8580 F   0  0  0  0  0  0  0  0  0  0  0  0
  188.2510  174.9840  141.5920 C   0  0  0  0  0  0  0  0  0  0  0  0
  189.5740  175.3850  141.5530 F   0  0  0  0  0  0  0  0  0  0  0  0
  188.0570  173.9700  140.6750 F   0  0  0  0  0  0  0  0  0  0  0  0
  2  1  1  1  0  0  0
  2  9  1  0  0  0  0
  3  4  1  0  0  0  0
  4 13  1  1  0  0  0
  4 12  1  0  0  0  0
  5  3  1  6  0  0  0
  5  2  1  0  0  0  0
  6  8  1  0  0  0  0
  7 10  1  0  0  0  0
  7  6  1  0  0  0  0
  8  1  1  0  0  0  0
  9 12  1  0  0  0  0
  9 11  1  1  0  0  0
 10 21  1  1  0  0  0
 10  5  1  0  0  0  0
 13 14  1  0  0  0  0
 14 16  1  6  0  0  0
 14 17  1  0  0  0  0
 15 16  1  0  0  0  0
 18 20  1  0  0  0  0
 19 18  1  0  0  0  0
 19 17  1  0  0  0  0
 19 20  1  0  0  0  0
 22 24  1  0  0  0  0
 22 21  1  0  0  0  0
 24 23  1  0  0  0  0
 25 24  1  0  0  0  0
 26 24  1  0  0  0  0
M  END
>  <MODEL>
3

>  <REMARK>
 VINA RESULT:      -6.3      3.050      4.166
  Name = 
  8 active torsions:
  status: ('A' for Active; 'I' for Inactive)
    1  A    between atoms: C_1  and  C_17
    2  A    between atoms: C_1  and  C_24
    3  A    between atoms: C_5  and  C_14
    4  A    between atoms: C_9  and  C_21
    5  A    between atoms: C_10  and  C_24
    6  A    between atoms: C_14  and  O_22
    7  A    between atoms: C_20  and  O_22
    8  A    between atoms: C_21  and  C_24
                            x       y       z     vdW  Elec       q    Type
                         _______ _______ _______ _____ _____    ______ ____

>  <TORSDO>
F 8

$$$$
=
 OpenBabel11072408503D

 26 28  0  0  1  0  0  0  0  0999 V2000
  191.3110  174.5440  142.2300 C   0  0  0  0  0  2  0  0  0  0  0  0
  190.1680  174.7130  143.2520 C   0  0  1  0  0  3  0  0  0  0  0  0
  188.4970  176.3430  143.9000 O   0  0  0  0  0  0  0  0  0  0  0  0
  187.7570  176.1850  142.7110 C   0  0  1  0  0  3  0  0  0  0  0  0
  189.8440  176.1950  143.5330 C   0  0  1  0  0  3  0  0  0  0  0  0
  192.7880  175.8390  143.3550 C   0  0  0  0  0  2  0  0  0  0  0  0
  192.1860  177.0390  144.0850 C   0  0  0  0  0  2  0  0  0  0  0  0
  192.1370  175.6780  142.1230 O   0  0  0  0  0  0  0  0  0  0  0  0
  188.8980  173.9160  142.9010 C   0  0  2  0  0  3  0  0  0  0  0  0
  190.7710  176.7710  144.6110 C   0  0  2  0  0  3  0  0  0  0  0  0
  189.1850  172.7430  142.2010 O   0  0  0  0  0  1  0  0  0  0  0  0
  187.8630  174.7560  142.1470 C   0  0  0  0  0  2  0  0  0  0  0  0
  186.2960  176.5240  142.9590 C   0  0  0  0  0  2  0  0  0  0  0  0
  186.1610  177.7200  143.8920 C   0  0  1  0  0  3  0  0  0  0  0  0
  185.5150  180.0420  143.9610 O   0  0  0  0  0  1  0  0  0  0  0  0
  185.4030  178.8640  143.2200 C   0  0  0  0  0  2  0  0  0  0  0  0
  185.4800  177.2870  145.1810 C   0  0  0  0  0  2  0  0  0  0  0  0
  186.9720  176.4380  146.8050 O   0  0  0  0  0  0  0  0  0  0  0  0
  186.3640  177.5970  146.3750 C   0  0  0  0  0  3  0  0  0  0  0  0
  185.9070  176.9050  147.4750 O   0  0  0  0  0  0  0  0  0  0  0  0
  190.8160  175.9400  145.7360 O   0  0  0  0  0  0  0  0  0  0  0  0
  190.5220  176.7780  146.8160 C   0  0  0  0  0  2  0  0  0  0  0  0
  192.8140  176.6980  147.4390 F   0  0  0  0  0  0  0  0  0  0  0  0
  191.5300  176.5640  147.9320 C   0  0  0  0  0  0  0  0  0  0  0  0
  191.3720  175.3000  148.4720 F   0  0  0  0  0  0  0  0  0  0  0  0
  191.3210  177.5070  148.9190 F   0  0  0  0  0  0  0  0  0  0  0  0
  2  1  1  6  0  0  0
  2  5  1  0  0  0  0
  4 13  1  1  0  0  0
  4  3  1  0  0  0  0
  5  3  1  1  0  0  0
  5 10  1  0  0  0  0
  6  7  1  0  0  0  0
  7 10  1  0  0  0  0
  8  1  1  0  0  0  0
  8  6  1  0  0  0  0
  9 11  1  6  0  0  0
  9  2  1  0  0  0  0
 10 21  1  1  0  0  0
 12  4  1  0  0  0  0
 12  9  1  0  0  0  0
 14 13  1  6  0  0  0
 14 17  1  0  0  0  0
 16 14  1  0  0  0  0
 16 15  1  0  0  0  0
 17 19  1  0  0  0  0
 18 20  1  0  0  0  0
 19 18  1  0  0  0  0
 19 20  1  0  0  0  0
 21 22  1  0  0  0  0
 22 24  1  0  0  0  0
 23 24  1  0  0  0  0
 24 25  1  0  0  0  0
 24 26  1  0  0  0  0
M  END
>  <MODEL>
4

>  <REMARK>
 VINA RESULT:      -6.2      3.363      6.346
  Name = 
  8 active torsions:
  status: ('A' for Active; 'I' for Inactive)
    1  A    between atoms: C_1  and  C_17
    2  A    between atoms: C_1  and  C_24
    3  A    between atoms: C_5  and  C_14
    4  A    between atoms: C_9  and  C_21
    5  A    between atoms: C_10  and  C_24
    6  A    between atoms: C_14  and  O_22
    7  A    between atoms: C_20  and  O_22
    8  A    between atoms: C_21  and  C_24
                            x       y       z     vdW  Elec       q    Type
                         _______ _______ _______ _____ _____    ______ ____

>  <TORSDO>
F 8

$$$$
=
 OpenBabel11072408503D

 26 28  0  0  1  0  0  0  0  0999 V2000
  188.8580  178.2070  142.2060 C   0  0  0  0  0  2  0  0  0  0  0  0
  189.0270  177.7310  143.6630 C   0  0  1  0  0  3  0  0  0  0  0  0
  188.9840  175.6800  144.9520 O   0  0  0  0  0  0  0  0  0  0  0  0
  190.1780  175.1940  144.3820 C   0  0  1  0  0  3  0  0  0  0  0  0
  188.3300  176.3800  143.9260 C   0  0  1  0  0  3  0  0  0  0  0  0
  186.5980  178.0750  142.2060 C   0  0  0  0  0  2  0  0  0  0  0  0
  186.0080  176.9260  143.0220 C   0  0  0  0  0  2  0  0  0  0  0  0
  187.7560  177.6260  141.5520 O   0  0  0  0  0  0  0  0  0  0  0  0
  190.4900  177.7110  144.1440 C   0  0  2  0  0  3  0  0  0  0  0  0
  186.8450  176.5780  144.2590 C   0  0  2  0  0  3  0  0  0  0  0  0
  191.2660  178.6910  143.5230 O   0  0  0  0  0  1  0  0  0  0  0  0
  191.1420  176.3330  143.9980 C   0  0  0  0  0  2  0  0  0  0  0  0
  190.8710  174.2510  145.3520 C   0  0  0  0  0  2  0  0  0  0  0  0
  192.1960  174.8310  145.8280 C   0  0  1  0  0  3  0  0  0  0  0  0
  190.7950  175.2160  147.7510 O   0  0  0  0  0  1  0  0  0  0  0  0
  192.1030  175.3160  147.2730 C   0  0  0  0  0  2  0  0  0  0  0  0
  193.2960  173.7930  145.6620 C   0  0  0  0  0  2  0  0  0  0  0  0
  193.5890  171.5600  144.9480 O   0  0  0  0  0  0  0  0  0  0  0  0
  192.8500  172.6970  144.7120 C   0  0  0  0  0  3  0  0  0  0  0  0
  193.9020  172.3370  143.9000 O   0  0  0  0  0  0  0  0  0  0  0  0
  186.6750  177.5480  145.2530 O   0  0  0  0  0  0  0  0  0  0  0  0
  185.3290  177.4600  145.6170 C   0  0  0  0  0  2  0  0  0  0  0  0
  185.4590  179.8110  145.3010 F   0  0  0  0  0  0  0  0  0  0  0  0
  184.8050  178.8270  146.0190 C   0  0  0  0  0  0  0  0  0  0  0  0
  185.0090  179.0310  147.3720 F   0  0  0  0  0  0  0  0  0  0  0  0
  183.4520  178.8920  145.7490 F   0  0  0  0  0  0  0  0  0  0  0  0
  2  1  1  6  0  0  0
  2  5  1  0  0  0  0
  2  9  1  0  0  0  0
  4  3  1  0  0  0  0
  4 13  1  1  0  0  0
  5 10  1  0  0  0  0
  5  3  1  1  0  0  0
  6  7  1  0  0  0  0
  7 10  1  0  0  0  0
  8  1  1  0  0  0  0
  8  6  1  0  0  0  0
  9 11  1  6  0  0  0
 10 21  1  1  0  0  0
 12  9  1  0  0  0  0
 12  4  1  0  0  0  0
 14 13  1  1  0  0  0
 14 16  1  0  0  0  0
 16 15  1  0  0  0  0
 17 14  1  0  0  0  0
 19 18  1  0  0  0  0
 19 17  1  0  0  0  0
 20 19  1  0  0  0  0
 20 18  1  0  0  0  0
 21 22  1  0  0  0  0
 22 24  1  0  0  0  0
 23 24  1  0  0  0  0
 24 25  1  0  0  0  0
 26 24  1  0  0  0  0
M  END
>  <MODEL>
5

>  <REMARK>
 VINA RESULT:      -6.1      1.346      1.690
  Name = 
  8 active torsions:
  status: ('A' for Active; 'I' for Inactive)
    1  A    between atoms: C_1  and  C_17
    2  A    between atoms: C_1  and  C_24
    3  A    between atoms: C_5  and  C_14
    4  A    between atoms: C_9  and  C_21
    5  A    between atoms: C_10  and  C_24
    6  A    between atoms: C_14  and  O_22
    7  A    between atoms: C_20  and  O_22
    8  A    between atoms: C_21  and  C_24
                            x       y       z     vdW  Elec       q    Type
                         _______ _______ _______ _____ _____    ______ ____

>  <TORSDO>
F 8

$$$$
=
 OpenBabel11072408503D

 26 28  0  0  1  0  0  0  0  0999 V2000
  188.7020  178.1150  142.0890 C   0  0  0  0  0  2  0  0  0  0  0  0
  188.8640  177.5730  143.5240 C   0  0  1  0  0  3  0  0  0  0  0  0
  188.5930  175.5040  144.7570 O   0  0  0  0  0  0  0  0  0  0  0  0
  189.6850  174.8810  144.1210 C   0  0  1  0  0  3  0  0  0  0  0  0
  188.0000  176.3210  143.7810 C   0  0  1  0  0  3  0  0  0  0  0  0
  186.4470  178.2900  142.1870 C   0  0  0  0  0  2  0  0  0  0  0  0
  185.7400  177.2050  142.9970 C   0  0  0  0  0  2  0  0  0  0  0  0
  187.5050  177.7110  141.4700 O   0  0  0  0  0  0  0  0  0  0  0  0
  190.3290  177.3390  143.9380 C   0  0  2  0  0  3  0  0  0  0  0  0
  186.5710  176.7060  144.1860 C   0  0  2  0  0  3  0  0  0  0  0  0
  191.2050  178.2250  143.3090 O   0  0  0  0  0  1  0  0  0  0  0  0
  190.7790  175.8910  143.7250 C   0  0  0  0  0  2  0  0  0  0  0  0
  190.2820  173.8210  145.0330 C   0  0  0  0  0  2  0  0  0  0  0  0
  190.0980  172.4280  144.4480 C   0  0  1  0  0  3  0  0  0  0  0  0
  190.1040  172.0430  142.0680 O   0  0  0  0  0  1  0  0  0  0  0  0
  189.3150  172.4760  143.1360 C   0  0  0  0  0  2  0  0  0  0  0  0
  191.4560  171.7700  144.2590 C   0  0  0  0  0  2  0  0  0  0  0  0
  193.7140  172.3960  143.9550 O   0  0  0  0  0  0  0  0  0  0  0  0
  192.5670  172.7310  144.6390 C   0  0  0  0  0  3  0  0  0  0  0  0
  193.5910  172.0340  145.2400 O   0  0  0  0  0  0  0  0  0  0  0  0
  186.5760  177.6570  145.2130 O   0  0  0  0  0  0  0  0  0  0  0  0
  185.4350  177.3760  145.9690 C   0  0  0  0  0  2  0  0  0  0  0  0
  184.4410  178.6640  147.7010 F   0  0  0  0  0  0  0  0  0  0  0  0
  184.7290  178.6670  146.3490 C   0  0  0  0  0  0  0  0  0  0  0  0
  183.5560  178.7910  145.6270 F   0  0  0  0  0  0  0  0  0  0  0  0
  185.5540  179.7370  146.0620 F   0  0  0  0  0  0  0  0  0  0  0  0
  2  1  1  6  0  0  0
  2  5  1  0  0  0  0
  2  9  1  0  0  0  0
  4  3  1  0  0  0  0
  4 13  1  1  0  0  0
  5 10  1  0  0  0  0
  5  3  1  1  0  0  0
  6  7  1  0  0  0  0
  7 10  1  0  0  0  0
  8  1  1  0  0  0  0
  8  6  1  0  0  0  0
  9 11  1  6  0  0  0
 10 21  1  1  0  0  0
 12  9  1  0  0  0  0
 12  4  1  0  0  0  0
 14 16  1  6  0  0  0
 14 13  1  0  0  0  0
 15 16  1  0  0  0  0
 17 14  1  0  0  0  0
 17 19  1  0  0  0  0
 18 19  1  0  0  0  0
 18 20  1  0  0  0  0
 19 20  1  0  0  0  0
 21 22  1  0  0  0  0
 22 24  1  0  0  0  0
 24 23  1  0  0  0  0
 25 24  1  0  0  0  0
 26 24  1  0  0  0  0
M  END
>  <MODEL>
6

>  <REMARK>
 VINA RESULT:      -6.1      1.893      2.599
  Name = 
  8 active torsions:
  status: ('A' for Active; 'I' for Inactive)
    1  A    between atoms: C_1  and  C_17
    2  A    between atoms: C_1  and  C_24
    3  A    between atoms: C_5  and  C_14
    4  A    between atoms: C_9  and  C_21
    5  A    between atoms: C_10  and  C_24
    6  A    between atoms: C_14  and  O_22
    7  A    between atoms: C_20  and  O_22
    8  A    between atoms: C_21  and  C_24
                            x       y       z     vdW  Elec       q    Type
                         _______ _______ _______ _____ _____    ______ ____

>  <TORSDO>
F 8

$$$$
=
 OpenBabel11072408503D

 26 28  0  0  1  0  0  0  0  0999 V2000
  190.0780  173.6870  145.5310 C   0  0  0  0  0  2  0  0  0  0  0  0
  190.0380  175.1570  145.9950 C   0  0  1  0  0  3  0  0  0  0  0  0
  189.3570  177.3340  145.1770 O   0  0  0  0  0  0  0  0  0  0  0  0
  187.9850  177.0140  145.2130 C   0  0  1  0  0  3  0  0  0  0  0  0
  190.0140  176.1480  144.8130 C   0  0  1  0  0  3  0  0  0  0  0  0
  191.9060  173.9350  144.2180 C   0  0  0  0  0  2  0  0  0  0  0  0
  192.0200  175.2790  143.5000 C   0  0  0  0  0  2  0  0  0  0  0  0
  190.5640  173.5290  144.2190 O   0  0  0  0  0  0  0  0  0  0  0  0
  188.9130  175.4580  147.0030 C   0  0  2  0  0  3  0  0  0  0  0  0
  191.4320  176.4430  144.3080 C   0  0  2  0  0  3  0  0  0  0  0  0
  188.6040  174.3540  147.7990 O   0  0  0  0  0  1  0  0  0  0  0  0
  187.6520  176.0110  146.3340 C   0  0  0  0  0  2  0  0  0  0  0  0
  187.1610  178.2780  145.4050 C   0  0  0  0  0  2  0  0  0  0  0  0
  185.6900  178.0240  145.1030 C   0  0  1  0  0  3  0  0  0  0  0  0
  183.5550  178.9320  145.7580 O   0  0  0  0  0  1  0  0  0  0  0  0
  184.7980  178.5170  146.2410 C   0  0  0  0  0  2  0  0  0  0  0  0
  185.3190  178.6830  143.7830 C   0  0  0  0  0  2  0  0  0  0  0  0
  185.0110  178.1820  141.4950 O   0  0  0  0  0  0  0  0  0  0  0  0
  184.9410  177.6320  142.7560 C   0  0  0  0  0  3  0  0  0  0  0  0
  183.8120  178.0390  142.0790 O   0  0  0  0  0  0  0  0  0  0  0  0
  192.2850  176.7840  145.3650 O   0  0  0  0  0  0  0  0  0  0  0  0
  193.5150  177.0600  144.7620 C   0  0  0  0  0  2  0  0  0  0  0  0
  195.4370  176.0100  145.6830 F   0  0  0  0  0  0  0  0  0  0  0  0
  194.6120  177.1120  145.8110 C   0  0  0  0  0  0  0  0  0  0  0  0
  194.0520  177.1240  147.0760 F   0  0  0  0  0  0  0  0  0  0  0  0
  195.3560  178.2610  145.6330 F   0  0  0  0  0  0  0  0  0  0  0  0
  2  1  1  6  0  0  0
  2  9  1  0  0  0  0
  3  4  1  0  0  0  0
  4 13  1  1  0  0  0
  4 12  1  0  0  0  0
  5  3  1  1  0  0  0
  5  2  1  0  0  0  0
  6  8  1  0  0  0  0
  7  6  1  0  0  0  0
  7 10  1  0  0  0  0
  8  1  1  0  0  0  0
  9 11  1  6  0  0  0
 10  5  1  0  0  0  0
 10 21  1  1  0  0  0
 12  9  1  0  0  0  0
 14 17  1  6  0  0  0
 14 13  1  0  0  0  0
 14 16  1  0  0  0  0
 15 16  1  0  0  0  0
 18 20  1  0  0  0  0
 18 19  1  0  0  0  0
 19 17  1  0  0  0  0
 20 19  1  0  0  0  0
 22 21  1  0  0  0  0
 22 24  1  0  0  0  0
 23 24  1  0  0  0  0
 24 25  1  0  0  0  0
 26 24  1  0  0  0  0
M  END
>  <MODEL>
7

>  <REMARK>
 VINA RESULT:      -6.0      3.915      7.558
  Name = 
  8 active torsions:
  status: ('A' for Active; 'I' for Inactive)
    1  A    between atoms: C_1  and  C_17
    2  A    between atoms: C_1  and  C_24
    3  A    between atoms: C_5  and  C_14
    4  A    between atoms: C_9  and  C_21
    5  A    between atoms: C_10  and  C_24
    6  A    between atoms: C_14  and  O_22
    7  A    between atoms: C_20  and  O_22
    8  A    between atoms: C_21  and  C_24
                            x       y       z     vdW  Elec       q    Type
                         _______ _______ _______ _____ _____    ______ ____

>  <TORSDO>
F 8

$$$$
=
 OpenBabel11072408503D

 26 28  0  0  1  0  0  0  0  0999 V2000
  185.5830  178.6590  145.2960 C   0  0  0  0  0  2  0  0  0  0  0  0
  186.5330  177.4590  145.1130 C   0  0  1  0  0  3  0  0  0  0  0  0
  188.8440  177.0030  144.5430 O   0  0  0  0  0  0  0  0  0  0  0  0
  189.3380  177.5410  145.7480 C   0  0  1  0  0  3  0  0  0  0  0  0
  187.7330  177.7900  144.2020 C   0  0  1  0  0  3  0  0  0  0  0  0
  185.2670  179.0110  143.0820 C   0  0  0  0  0  2  0  0  0  0  0  0
  186.4820  178.7450  142.1950 C   0  0  0  0  0  2  0  0  0  0  0  0
  185.6920  179.6190  144.2720 O   0  0  0  0  0  0  0  0  0  0  0  0
  186.9940  176.8240  146.4390 C   0  0  2  0  0  3  0  0  0  0  0  0
  187.3710  177.6120  142.7210 C   0  0  2  0  0  3  0  0  0  0  0  0
  186.0340  176.9460  147.4460 O   0  0  0  0  0  1  0  0  0  0  0  0
  188.3460  177.3620  146.9130 C   0  0  0  0  0  2  0  0  0  0  0  0
  190.6620  176.8860  146.1060 C   0  0  0  0  0  2  0  0  0  0  0  0
  191.2860  176.2110  144.8920 C   0  0  1  0  0  3  0  0  0  0  0  0
  192.0680  177.3110  142.8950 O   0  0  0  0  0  1  0  0  0  0  0  0
  192.3470  177.1010  144.2470 C   0  0  0  0  0  2  0  0  0  0  0  0
  191.8650  174.8650  145.2990 C   0  0  0  0  0  2  0  0  0  0  0  0
  190.7750  172.8720  144.6470 O   0  0  0  0  0  0  0  0  0  0  0  0
  191.6460  173.8410  144.2000 C   0  0  0  0  0  3  0  0  0  0  0  0
  192.0910  172.6100  144.6260 O   0  0  0  0  0  0  0  0  0  0  0  0
  186.7670  176.3700  142.4950 O   0  0  0  0  0  0  0  0  0  0  0  0
  187.4600  175.8230  141.4120 C   0  0  0  0  0  2  0  0  0  0  0  0
  188.1970  173.5780  141.1600 F   0  0  0  0  0  0  0  0  0  0  0  0
  188.4040  174.7340  141.8900 C   0  0  0  0  0  0  0  0  0  0  0  0
  188.1840  174.4780  143.2320 F   0  0  0  0  0  0  0  0  0  0  0  0
  189.7080  175.1550  141.7170 F   0  0  0  0  0  0  0  0  0  0  0  0
  2  1  1  1  0  0  0
  2  9  1  0  0  0  0
  3  4  1  0  0  0  0
  4 13  1  1  0  0  0
  4 12  1  0  0  0  0
  5  3  1  1  0  0  0
  5  2  1  0  0  0  0
  6  8  1  0  0  0  0
  7 10  1  0  0  0  0
  7  6  1  0  0  0  0
  8  1  1  0  0  0  0
  9 12  1  0  0  0  0
  9 11  1  1  0  0  0
 10 21  1  1  0  0  0
 10  5  1  0  0  0  0
 14 16  1  1  0  0  0
 14 17  1  0  0  0  0
 14 13  1  0  0  0  0
 15 16  1  0  0  0  0
 19 20  1  0  0  0  0
 19 18  1  0  0  0  0
 19 17  1  0  0  0  0
 20 18  1  0  0  0  0
 22 24  1  0  0  0  0
 22 21  1  0  0  0  0
 23 24  1  0  0  0  0
 24 25  1  0  0  0  0
 26 24  1  0  0  0  0
M  END
>  <MODEL>
8

>  <REMARK>
 VINA RESULT:      -6.0      3.227      4.526
  Name = 
  8 active torsions:
  status: ('A' for Active; 'I' for Inactive)
    1  A    between atoms: C_1  and  C_17
    2  A    between atoms: C_1  and  C_24
    3  A    between atoms: C_5  and  C_14
    4  A    between atoms: C_9  and  C_21
    5  A    between atoms: C_10  and  C_24
    6  A    between atoms: C_14  and  O_22
    7  A    between atoms: C_20  and  O_22
    8  A    between atoms: C_21  and  C_24
                            x       y       z     vdW  Elec       q    Type
                         _______ _______ _______ _____ _____    ______ ____

>  <TORSDO>
F 8

$$$$
=
 OpenBabel11072408503D

 26 28  0  0  1  0  0  0  0  0999 V2000
  185.1140  178.3450  144.9680 C   0  0  0  0  0  2  0  0  0  0  0  0
  186.5290  178.0270  144.4420 C   0  0  1  0  0  3  0  0  0  0  0  0
  187.8970  176.1120  143.8660 O   0  0  0  0  0  0  0  0  0  0  0  0
  187.1230  175.7900  142.7340 C   0  0  1  0  0  3  0  0  0  0  0  0
  186.9910  176.6050  144.8190 C   0  0  1  0  0  3  0  0  0  0  0  0
  185.5750  177.8330  147.1240 C   0  0  0  0  0  2  0  0  0  0  0  0
  186.5480  176.6720  147.3300 C   0  0  0  0  0  2  0  0  0  0  0  0
  184.7250  177.5340  146.0500 O   0  0  0  0  0  0  0  0  0  0  0  0
  186.7060  178.2950  142.9360 C   0  0  2  0  0  3  0  0  0  0  0  0
  187.6070  176.5750  146.2240 C   0  0  2  0  0  3  0  0  0  0  0  0
  185.8940  179.3370  142.4840 O   0  0  0  0  0  1  0  0  0  0  0  0
  186.4980  177.0390  142.0840 C   0  0  0  0  0  2  0  0  0  0  0  0
  187.9780  175.0620  141.7090 C   0  0  0  0  0  2  0  0  0  0  0  0
  189.0080  174.1710  142.3890 C   0  0  1  0  0  3  0  0  0  0  0  0
  189.1770  172.0190  143.4640 O   0  0  0  0  0  1  0  0  0  0  0  0
  188.5390  172.7170  142.4370 C   0  0  0  0  0  2  0  0  0  0  0  0
  190.3440  174.2980  141.6740 C   0  0  0  0  0  2  0  0  0  0  0  0
  192.4940  175.2660  141.8240 O   0  0  0  0  0  0  0  0  0  0  0  0
  191.2490  175.2670  142.4120 C   0  0  0  0  0  3  0  0  0  0  0  0
  192.3070  174.5790  142.9610 O   0  0  0  0  0  0  0  0  0  0  0  0
  188.5670  177.5820  146.3770 O   0  0  0  0  0  0  0  0  0  0  0  0
  189.6350  176.9650  147.0320 C   0  0  0  0  0  2  0  0  0  0  0  0
  191.9650  176.7280  146.6260 F   0  0  0  0  0  0  0  0  0  0  0  0
  190.7210  176.6010  146.0350 C   0  0  0  0  0  0  0  0  0  0  0  0
  190.6470  177.4340  144.9330 F   0  0  0  0  0  0  0  0  0  0  0  0
  190.5420  175.2930  145.6270 F   0  0  0  0  0  0  0  0  0  0  0  0
  1  8  1  0  0  0  0
  2  5  1  0  0  0  0
  2  1  1  6  0  0  0
  4 13  1  6  0  0  0
  4  3  1  0  0  0  0
  5  3  1  6  0  0  0
  5 10  1  0  0  0  0
  6  7  1  0  0  0  0
  8  6  1  0  0  0  0
  9 11  1  6  0  0  0
  9  2  1  0  0  0  0
 10 21  1  6  0  0  0
 10  7  1  0  0  0  0
 12  4  1  0  0  0  0
 12  9  1  0  0  0  0
 13 14  1  0  0  0  0
 14 17  1  6  0  0  0
 14 16  1  0  0  0  0
 16 15  1  0  0  0  0
 17 19  1  0  0  0  0
 18 19  1  0  0  0  0
 18 20  1  0  0  0  0
 19 20  1  0  0  0  0
 21 22  1  0  0  0  0
 24 23  1  0  0  0  0
 24 22  1  0  0  0  0
 25 24  1  0  0  0  0
 26 24  1  0  0  0  0
M  END
>  <MODEL>
9

>  <REMARK>
 VINA RESULT:      -5.9      3.250      5.033
  Name = 
  8 active torsions:
  status: ('A' for Active; 'I' for Inactive)
    1  A    between atoms: C_1  and  C_17
    2  A    between atoms: C_1  and  C_24
    3  A    between atoms: C_5  and  C_14
    4  A    between atoms: C_9  and  C_21
    5  A    between atoms: C_10  and  C_24
    6  A    between atoms: C_14  and  O_22
    7  A    between atoms: C_20  and  O_22
    8  A    between atoms: C_21  and  C_24
                            x       y       z     vdW  Elec       q    Type
                         _______ _______ _______ _____ _____    ______ ____

>  <TORSDO>
F 8

$$$$
