=
 OpenBabel11062421253D

 31 36  0  0  1  0  0  0  0  0999 V2000
  190.4320  175.0470  143.6790 N   0  0  2  0  0  0  0  0  0  0  0  0
  188.9800  172.2840  142.2650 C   0  0  0  0  0  2  0  0  0  0  0  0
  188.9880  174.8090  143.5110 C   0  0  1  0  0  3  0  0  0  0  0  0
  188.6620  174.7930  142.0220 C   0  0  1  0  0  3  0  0  0  0  0  0
  188.2130  173.4050  141.5490 C   0  0  0  0  0  2  0  0  0  0  0  0
  190.2110  172.7900  142.8720 N   0  0  0  0  0  2  0  0  0  0  0  0
  189.8630  173.7110  143.9610 C   0  0  1  0  0  3  0  0  0  0  0  0
  187.6540  176.5250  140.4810 C   0  0  0  0  0  3  0  0  0  0  0  0
  185.6360  177.0380  142.3580 C   0  0  0  0  0  0  0  0  0  0  0  0
  184.0870  178.6080  143.4670 C   0  0  0  0  0  2  0  0  0  0  0  0
  182.9160  178.7680  142.5060 C   0  0  0  0  0  2  0  0  0  0  0  0
  184.7010  177.3290  143.3570 O   0  0  0  0  0  0  0  0  0  0  0  0
  183.1890  178.1980  141.1210 C   0  0  0  0  0  2  0  0  0  0  0  0
  187.6720  175.8740  141.7220 C   0  0  0  0  0  0  0  0  0  0  0  0
  186.6240  177.4160  140.1710 C   0  0  0  0  0  3  0  0  0  0  0  0
  184.5200  178.4550  140.6850 O   0  0  0  0  0  0  0  0  0  0  0  0
  186.6580  176.1300  142.6490 C   0  0  0  0  0  3  0  0  0  0  0  0
  185.5930  177.6520  141.0850 C   0  0  0  0  0  0  0  0  0  0  0  0
  191.8240  175.6680  145.7650 C   0  0  0  0  0  2  0  0  0  0  0  0
  190.5810  175.8460  144.9010 C   0  0  0  0  0  0  0  0  0  0  0  0
  191.7530  176.8040  144.7650 C   0  0  0  0  0  2  0  0  0  0  0  0
  189.3490  176.5440  145.4290 C   0  0  0  0  0  0  0  0  0  0  0  0
  188.5800  175.9950  146.4780 C   0  0  0  0  0  0  0  0  0  0  0  0
  188.8750  177.6760  144.7520 C   0  0  0  0  0  3  0  0  0  0  0  0
  187.3670  176.6010  146.8450 C   0  0  0  0  0  0  0  0  0  0  0  0
  186.6220  176.0740  147.8500 F   0  0  0  0  0  0  0  0  0  0  0  0
  189.0870  174.5340  147.3210 Cl  0  0  0  0  0  0  0  0  0  0  0  0
  186.9060  177.7380  146.1690 C   0  0  0  0  0  0  0  0  0  0  0  0
  187.6710  178.2730  145.1220 C   0  0  0  0  0  3  0  0  0  0  0  0
  185.6890  178.3110  146.5470 O   0  0  0  0  0  0  0  0  0  0  0  0
  185.5830  179.2800  147.5820 C   0  0  0  0  0  1  0  0  0  0  0  0
  1  7  1  0  0  0  0
  1 20  1  1  0  0  0
  2  6  1  0  0  0  0
  3  1  1  0  0  0  0
  3  7  1  0  0  0  0
  4  3  1  0  0  0  0
  5  4  1  0  0  0  0
  5  2  1  0  0  0  0
  6  7  1  0  0  0  0
  8 14  1  0  0  0  0
  9 17  1  0  0  0  0
  9 12  1  0  0  0  0
 11 10  1  0  0  0  0
 12 10  1  0  0  0  0
 13 11  1  0  0  0  0
 14  4  1  0  0  0  0
 14 17  2  0  0  0  0
 15  8  2  0  0  0  0
 15 18  1  0  0  0  0
 16 18  1  0  0  0  0
 16 13  1  0  0  0  0
 18  9  2  0  0  0  0
 20 22  1  0  0  0  0
 20 19  1  0  0  0  0
 21 20  1  0  0  0  0
 21 19  1  0  0  0  0
 22 23  1  0  0  0  0
 23 25  2  0  0  0  0
 23 27  1  0  0  0  0
 24 29  1  0  0  0  0
 24 22  2  0  0  0  0
 25 26  1  0  0  0  0
 28 30  1  0  0  0  0
 28 25  1  0  0  0  0
 29 28  2  0  0  0  0
 30 31  1  0  0  0  0
M  END
>  <MODEL>
1

>  <REMARK>
 VINA RESULT:      -8.2      0.000      0.000
  Name = 
  4 active torsions:
  status: ('A' for Active; 'I' for Inactive)
    1  A    between atoms: N_1  and  C_11
    2  A    between atoms: C_3  and  C_11
    3  A    between atoms: O_13  and  C_22
    4  A    between atoms: C_14  and  C_24
                            x       y       z     vdW  Elec       q    Type
                         _______ _______ _______ _____ _____    ______ ____

>  <TORSDO>
F 4

$$$$
=
 OpenBabel11062421253D

 31 36  0  0  1  0  0  0  0  0999 V2000
  186.6230  178.0900  143.9860 N   0  0  2  0  0  0  0  0  0  0  0  0
  185.1550  178.2310  147.0790 C   0  0  0  0  0  2  0  0  0  0  0  0
  186.6930  177.0560  145.0340 C   0  0  1  0  0  3  0  0  0  0  0  0
  187.4670  177.6150  146.2230 C   0  0  1  0  0  3  0  0  0  0  0  0
  186.5730  177.7830  147.4590 C   0  0  0  0  0  2  0  0  0  0  0  0
  185.1220  178.7970  145.7300 N   0  0  0  0  0  2  0  0  0  0  0  0
  185.4130  177.7340  144.7600 C   0  0  1  0  0  3  0  0  0  0  0  0
  188.5560  175.4490  146.9380 C   0  0  0  0  0  3  0  0  0  0  0  0
  191.0630  176.4420  146.1740 C   0  0  0  0  0  0  0  0  0  0  0  0
  193.5040  176.5930  146.5110 C   0  0  0  0  0  2  0  0  0  0  0  0
  194.0770  175.3220  145.8970 C   0  0  0  0  0  2  0  0  0  0  0  0
  192.3050  177.0080  145.8670 O   0  0  0  0  0  0  0  0  0  0  0  0
  193.0170  174.2790  145.5690 C   0  0  0  0  0  2  0  0  0  0  0  0
  188.6730  176.7640  146.4700 C   0  0  0  0  0  0  0  0  0  0  0  0
  189.6820  174.6270  147.0090 C   0  0  0  0  0  3  0  0  0  0  0  0
  192.0060  174.2050  146.5700 O   0  0  0  0  0  0  0  0  0  0  0  0
  189.9260  177.2490  146.0840 C   0  0  0  0  0  3  0  0  0  0  0  0
  190.9310  175.1000  146.5970 C   0  0  0  0  0  0  0  0  0  0  0  0
  185.5500  177.5730  141.6930 C   0  0  0  0  0  2  0  0  0  0  0  0
  186.6760  177.3810  142.7020 C   0  0  0  0  0  0  0  0  0  0  0  0
  186.8310  178.3710  141.5600 C   0  0  0  0  0  2  0  0  0  0  0  0
  187.6530  176.2340  142.5810 C   0  0  0  0  0  0  0  0  0  0  0  0
  189.0470  176.4500  142.5370 C   0  0  0  0  0  0  0  0  0  0  0  0
  187.1520  174.9460  142.3460 C   0  0  0  0  0  3  0  0  0  0  0  0
  189.9120  175.3740  142.2840 C   0  0  0  0  0  0  0  0  0  0  0  0
  191.2530  175.5780  142.2370 F   0  0  0  0  0  0  0  0  0  0  0  0
  189.7340  178.0580  142.7550 Cl  0  0  0  0  0  0  0  0  0  0  0  0
  189.4030  174.0880  142.0600 C   0  0  0  0  0  0  0  0  0  0  0  0
  188.0170  173.8820  142.0960 C   0  0  0  0  0  3  0  0  0  0  0  0
  190.2890  173.0390  141.7970 O   0  0  0  0  0  0  0  0  0  0  0  0
  190.1500  171.7510  142.3810 C   0  0  0  0  0  1  0  0  0  0  0  0
  1 20  1  6  0  0  0
  1  7  1  0  0  0  0
  1  3  1  0  0  0  0
  2  5  1  0  0  0  0
  3  4  1  0  0  0  0
  4 14  1  0  0  0  0
  4  5  1  0  0  0  0
  6  2  1  0  0  0  0
  7  3  1  0  0  0  0
  7  6  1  0  0  0  0
  8 15  1  0  0  0  0
  9 18  1  0  0  0  0
 11 10  1  0  0  0  0
 12  9  1  0  0  0  0
 12 10  1  0  0  0  0
 13 11  1  0  0  0  0
 13 16  1  0  0  0  0
 14  8  2  0  0  0  0
 16 18  1  0  0  0  0
 17  9  2  0  0  0  0
 17 14  1  0  0  0  0
 18 15  2  0  0  0  0
 19 20  1  0  0  0  0
 21 19  1  0  0  0  0
 21 20  1  0  0  0  0
 22 20  1  0  0  0  0
 23 22  1  0  0  0  0
 23 27  1  0  0  0  0
 24 22  2  0  0  0  0
 25 23  2  0  0  0  0
 26 25  1  0  0  0  0
 28 29  2  0  0  0  0
 28 25  1  0  0  0  0
 29 24  1  0  0  0  0
 30 28  1  0  0  0  0
 30 31  1  0  0  0  0
M  END
>  <MODEL>
2

>  <REMARK>
 VINA RESULT:      -7.9      3.457      7.272
  Name = 
  4 active torsions:
  status: ('A' for Active; 'I' for Inactive)
    1  A    between atoms: N_1  and  C_11
    2  A    between atoms: C_3  and  C_11
    3  A    between atoms: O_13  and  C_22
    4  A    between atoms: C_14  and  C_24
                            x       y       z     vdW  Elec       q    Type
                         _______ _______ _______ _____ _____    ______ ____

>  <TORSDO>
F 4

$$$$
=
 OpenBabel11062421253D

 31 36  0  0  1  0  0  0  0  0999 V2000
  193.5530  173.5070  145.4900 N   0  0  2  0  0  0  0  0  0  0  0  0
  194.6360  176.6400  146.3590 C   0  0  0  0  0  2  0  0  0  0  0  0
  192.9000  174.7830  145.1480 C   0  0  1  0  0  3  0  0  0  0  0  0
  192.3990  175.4370  146.4310 C   0  0  1  0  0  3  0  0  0  0  0  0
  193.1530  176.7360  146.7430 C   0  0  0  0  0  2  0  0  0  0  0  0
  195.0540  175.2450  146.2090 N   0  0  0  0  0  2  0  0  0  0  0  0
  194.3660  174.6630  145.0510 C   0  0  1  0  0  3  0  0  0  0  0  0
  190.0430  174.8470  147.1310 C   0  0  0  0  0  3  0  0  0  0  0  0
  189.0390  176.9510  145.5740 C   0  0  0  0  0  0  0  0  0  0  0  0
  187.2800  177.8960  144.1240 C   0  0  0  0  0  2  0  0  0  0  0  0
  186.1930  178.3850  145.0720 C   0  0  0  0  0  2  0  0  0  0  0  0
  188.5730  177.9510  144.7160 O   0  0  0  0  0  0  0  0  0  0  0  0
  186.3710  177.8910  146.5020 C   0  0  0  0  0  2  0  0  0  0  0  0
  190.9150  175.6140  146.3480 C   0  0  0  0  0  0  0  0  0  0  0  0
  188.6780  175.1390  147.1520 C   0  0  0  0  0  3  0  0  0  0  0  0
  186.8210  176.5400  146.5530 O   0  0  0  0  0  0  0  0  0  0  0  0
  190.4080  176.6660  145.5800 C   0  0  0  0  0  3  0  0  0  0  0  0
  188.1710  176.2080  146.4070 C   0  0  0  0  0  0  0  0  0  0  0  0
  194.4140  171.8100  143.7420 C   0  0  0  0  0  2  0  0  0  0  0  0
  193.2700  172.5870  144.3810 C   0  0  0  0  0  0  0  0  0  0  0  0
  193.5520  171.1540  144.8000 C   0  0  0  0  0  2  0  0  0  0  0  0
  191.9280  172.7140  143.6980 C   0  0  0  0  0  0  0  0  0  0  0  0
  191.7830  173.3950  142.4700 C   0  0  0  0  0  0  0  0  0  0  0  0
  190.7820  172.2860  144.3830 C   0  0  0  0  0  3  0  0  0  0  0  0
  190.5020  173.6120  141.9400 C   0  0  0  0  0  0  0  0  0  0  0  0
  190.3580  174.2700  140.7610 F   0  0  0  0  0  0  0  0  0  0  0  0
  193.1800  174.0180  141.5970 Cl  0  0  0  0  0  0  0  0  0  0  0  0
  189.3630  173.1720  142.6260 C   0  0  0  0  0  0  0  0  0  0  0  0
  189.5120  172.5050  143.8500 C   0  0  0  0  0  3  0  0  0  0  0  0
  188.0990  173.4150  142.0800 O   0  0  0  0  0  0  0  0  0  0  0  0
  187.4630  174.6850  142.1480 C   0  0  0  0  0  1  0  0  0  0  0  0
  1 20  1  6  0  0  0
  2  5  1  0  0  0  0
  3  1  1  0  0  0  0
  3  4  1  0  0  0  0
  4  5  1  0  0  0  0
  6  2  1  0  0  0  0
  7  3  1  0  0  0  0
  7  1  1  0  0  0  0
  7  6  1  0  0  0  0
  8 15  1  0  0  0  0
  9 17  2  0  0  0  0
  9 18  1  0  0  0  0
 10 12  1  0  0  0  0
 10 11  1  0  0  0  0
 11 13  1  0  0  0  0
 12  9  1  0  0  0  0
 13 16  1  0  0  0  0
 14  4  1  0  0  0  0
 14  8  2  0  0  0  0
 17 14  1  0  0  0  0
 18 16  1  0  0  0  0
 18 15  2  0  0  0  0
 19 20  1  0  0  0  0
 19 21  1  0  0  0  0
 20 21  1  0  0  0  0
 22 20  1  0  0  0  0
 22 24  1  0  0  0  0
 23 22  2  0  0  0  0
 25 23  1  0  0  0  0
 25 28  2  0  0  0  0
 26 25  1  0  0  0  0
 27 23  1  0  0  0  0
 28 29  1  0  0  0  0
 29 24  2  0  0  0  0
 30 31  1  0  0  0  0
 30 28  1  0  0  0  0
M  END
>  <MODEL>
3

>  <REMARK>
 VINA RESULT:      -7.5      3.223      6.023
  Name = 
  4 active torsions:
  status: ('A' for Active; 'I' for Inactive)
    1  A    between atoms: N_1  and  C_11
    2  A    between atoms: C_3  and  C_11
    3  A    between atoms: O_13  and  C_22
    4  A    between atoms: C_14  and  C_24
                            x       y       z     vdW  Elec       q    Type
                         _______ _______ _______ _____ _____    ______ ____

>  <TORSDO>
F 4

$$$$
=
 OpenBabel11062421253D

 31 36  0  0  1  0  0  0  0  0999 V2000
  191.3870  175.0980  145.3310 N   0  0  2  0  0  0  0  0  0  0  0  0
  191.9760  177.1660  148.0000 C   0  0  0  0  0  2  0  0  0  0  0  0
  190.7280  176.3890  145.5980 C   0  0  1  0  0  3  0  0  0  0  0  0
  189.8900  176.2590  146.8660 C   0  0  1  0  0  3  0  0  0  0  0  0
  190.4410  177.1240  148.0060 C   0  0  0  0  0  2  0  0  0  0  0  0
  192.5310  176.0610  147.2170 N   0  0  0  0  0  2  0  0  0  0  0  0
  192.1810  176.2540  145.8040 C   0  0  1  0  0  3  0  0  0  0  0  0
  187.4150  176.0110  147.3130 C   0  0  0  0  0  3  0  0  0  0  0  0
  186.8500  177.8650  145.2870 C   0  0  0  0  0  0  0  0  0  0  0  0
  185.4010  178.6680  143.4580 C   0  0  0  0  0  2  0  0  0  0  0  0
  184.2630  179.4150  144.1420 C   0  0  0  0  0  2  0  0  0  0  0  0
  186.6080  178.7230  144.2100 O   0  0  0  0  0  0  0  0  0  0  0  0
  184.2050  179.1830  145.6460 C   0  0  0  0  0  2  0  0  0  0  0  0
  188.4570  176.5410  146.5410 C   0  0  0  0  0  0  0  0  0  0  0  0
  186.0980  176.4150  147.0860 C   0  0  0  0  0  3  0  0  0  0  0  0
  184.4950  177.8320  145.9940 O   0  0  0  0  0  0  0  0  0  0  0  0
  188.1680  177.4710  145.5380 C   0  0  0  0  0  3  0  0  0  0  0  0
  185.8090  177.3660  146.1030 C   0  0  0  0  0  0  0  0  0  0  0  0
  192.7830  174.6650  143.2000 C   0  0  0  0  0  2  0  0  0  0  0  0
  191.4460  174.9590  143.8710 C   0  0  0  0  0  0  0  0  0  0  0  0
  191.8180  173.5350  143.4930 C   0  0  0  0  0  2  0  0  0  0  0  0
  190.2600  175.4540  143.0770 C   0  0  0  0  0  0  0  0  0  0  0  0
  190.1770  176.7890  142.6240 C   0  0  0  0  0  0  0  0  0  0  0  0
  189.1500  174.6120  142.9290 C   0  0  0  0  0  3  0  0  0  0  0  0
  188.9990  177.2470  142.0130 C   0  0  0  0  0  0  0  0  0  0  0  0
  188.9140  178.5310  141.5810 F   0  0  0  0  0  0  0  0  0  0  0  0
  191.5130  177.9160  142.8430 Cl  0  0  0  0  0  0  0  0  0  0  0  0
  187.8980  176.3950  141.8610 C   0  0  0  0  0  0  0  0  0  0  0  0
  187.9830  175.0730  142.3210 C   0  0  0  0  0  3  0  0  0  0  0  0
  186.7340  176.8830  141.2620 O   0  0  0  0  0  0  0  0  0  0  0  0
  186.6450  177.1660  139.8710 C   0  0  0  0  0  1  0  0  0  0  0  0
  1 20  1  6  0  0  0
  1  3  1  0  0  0  0
  1  7  1  0  0  0  0
  2  5  1  0  0  0  0
  3  7  1  0  0  0  0
  3  4  1  0  0  0  0
  4  5  1  0  0  0  0
  6  2  1  0  0  0  0
  7  6  1  0  0  0  0
  9 17  2  0  0  0  0
  9 18  1  0  0  0  0
 10 11  1  0  0  0  0
 10 12  1  0  0  0  0
 11 13  1  0  0  0  0
 12  9  1  0  0  0  0
 13 16  1  0  0  0  0
 14  4  1  0  0  0  0
 14  8  2  0  0  0  0
 15  8  1  0  0  0  0
 16 18  1  0  0  0  0
 17 14  1  0  0  0  0
 18 15  2  0  0  0  0
 19 21  1  0  0  0  0
 19 20  1  0  0  0  0
 21 20  1  0  0  0  0
 22 20  1  0  0  0  0
 23 27  1  0  0  0  0
 23 22  2  0  0  0  0
 24 22  1  0  0  0  0
 25 23  1  0  0  0  0
 26 25  1  0  0  0  0
 28 25  2  0  0  0  0
 28 29  1  0  0  0  0
 29 24  2  0  0  0  0
 30 28  1  0  0  0  0
 31 30  1  0  0  0  0
M  END
>  <MODEL>
4

>  <REMARK>
 VINA RESULT:      -7.5      2.444      4.957
  Name = 
  4 active torsions:
  status: ('A' for Active; 'I' for Inactive)
    1  A    between atoms: N_1  and  C_11
    2  A    between atoms: C_3  and  C_11
    3  A    between atoms: O_13  and  C_22
    4  A    between atoms: C_14  and  C_24
                            x       y       z     vdW  Elec       q    Type
                         _______ _______ _______ _____ _____    ______ ____

>  <TORSDO>
F 4

$$$$
=
 OpenBabel11062421253D

 31 36  0  0  1  0  0  0  0  0999 V2000
  191.1290  174.2040  144.7220 N   0  0  2  0  0  0  0  0  0  0  0  0
  193.4100  176.7570  144.8760 C   0  0  0  0  0  2  0  0  0  0  0  0
  191.2170  175.3540  143.8050 C   0  0  1  0  0  3  0  0  0  0  0  0
  190.8900  176.6260  144.5800 C   0  0  1  0  0  3  0  0  0  0  0  0
  192.1090  177.5510  144.7000 C   0  0  0  0  0  2  0  0  0  0  0  0
  193.1400  175.3870  145.3150 N   0  0  0  0  0  2  0  0  0  0  0  0
  192.4480  174.6690  144.2380 C   0  0  1  0  0  3  0  0  0  0  0  0
  189.6260  177.5240  142.5830 C   0  0  0  0  0  3  0  0  0  0  0  0
  187.3980  178.0330  144.2060 C   0  0  0  0  0  0  0  0  0  0  0  0
  185.4340  179.4130  144.7810 C   0  0  0  0  0  2  0  0  0  0  0  0
  184.3410  178.9860  143.8110 C   0  0  0  0  0  2  0  0  0  0  0  0
  186.3430  178.3560  145.0660 O   0  0  0  0  0  0  0  0  0  0  0  0
  184.8540  178.1270  142.6620 C   0  0  0  0  0  2  0  0  0  0  0  0
  189.6980  177.2880  143.9620 C   0  0  0  0  0  0  0  0  0  0  0  0
  188.4430  177.9960  142.0130 C   0  0  0  0  0  3  0  0  0  0  0  0
  186.1170  178.5730  142.1770 O   0  0  0  0  0  0  0  0  0  0  0  0
  188.5800  177.5370  144.7630 C   0  0  0  0  0  3  0  0  0  0  0  0
  187.3140  178.2190  142.8080 C   0  0  0  0  0  0  0  0  0  0  0  0
  191.0710  171.6620  144.2650 C   0  0  0  0  0  2  0  0  0  0  0  0
  190.6220  173.0790  143.9270 C   0  0  0  0  0  0  0  0  0  0  0  0
  189.7460  172.1810  144.7860 C   0  0  0  0  0  2  0  0  0  0  0  0
  189.9630  173.4020  142.6060 C   0  0  0  0  0  0  0  0  0  0  0  0
  190.6780  173.3500  141.3900 C   0  0  0  0  0  0  0  0  0  0  0  0
  188.6610  173.9190  142.6130 C   0  0  0  0  0  3  0  0  0  0  0  0
  190.0710  173.7910  140.2040 C   0  0  0  0  0  0  0  0  0  0  0  0
  190.7560  173.7470  139.0330 F   0  0  0  0  0  0  0  0  0  0  0  0
  192.3430  172.7750  141.3280 Cl  0  0  0  0  0  0  0  0  0  0  0  0
  188.7650  174.2980  140.2190 C   0  0  0  0  0  0  0  0  0  0  0  0
  188.0630  174.3550  141.4310 C   0  0  0  0  0  3  0  0  0  0  0  0
  188.1910  174.7430  139.0240 O   0  0  0  0  0  0  0  0  0  0  0  0
  188.0480  173.9090  137.8820 C   0  0  0  0  0  1  0  0  0  0  0  0
  1 20  1  6  0  0  0
  2  6  1  0  0  0  0
  3  7  1  0  0  0  0
  3  4  1  0  0  0  0
  3  1  1  0  0  0  0
  4  5  1  0  0  0  0
  5  2  1  0  0  0  0
  7  1  1  0  0  0  0
  7  6  1  0  0  0  0
  8 14  1  0  0  0  0
  9 17  1  0  0  0  0
  9 12  1  0  0  0  0
 10 12  1  0  0  0  0
 11 10  1  0  0  0  0
 13 11  1  0  0  0  0
 14  4  1  0  0  0  0
 14 17  2  0  0  0  0
 15  8  2  0  0  0  0
 15 18  1  0  0  0  0
 16 13  1  0  0  0  0
 16 18  1  0  0  0  0
 18  9  2  0  0  0  0
 19 21  1  0  0  0  0
 20 19  1  0  0  0  0
 20 21  1  0  0  0  0
 22 24  1  0  0  0  0
 22 20  1  0  0  0  0
 23 22  2  0  0  0  0
 25 28  2  0  0  0  0
 25 23  1  0  0  0  0
 26 25  1  0  0  0  0
 27 23  1  0  0  0  0
 28 29  1  0  0  0  0
 29 24  2  0  0  0  0
 30 28  1  0  0  0  0
 31 30  1  0  0  0  0
M  END
>  <MODEL>
5

>  <REMARK>
 VINA RESULT:      -7.3      2.969      5.196
  Name = 
  4 active torsions:
  status: ('A' for Active; 'I' for Inactive)
    1  A    between atoms: N_1  and  C_11
    2  A    between atoms: C_3  and  C_11
    3  A    between atoms: O_13  and  C_22
    4  A    between atoms: C_14  and  C_24
                            x       y       z     vdW  Elec       q    Type
                         _______ _______ _______ _____ _____    ______ ____

>  <TORSDO>
F 4

$$$$
=
 OpenBabel11062421253D

 31 36  0  0  1  0  0  0  0  0999 V2000
  191.0520  174.1900  142.0340 N   0  0  2  0  0  0  0  0  0  0  0  0
  188.5110  173.5560  139.8240 C   0  0  0  0  0  2  0  0  0  0  0  0
  189.6080  174.2660  142.3180 C   0  0  1  0  0  3  0  0  0  0  0  0
  189.0060  175.4030  141.4980 C   0  0  1  0  0  3  0  0  0  0  0  0
  188.0350  174.8840  140.4300 C   0  0  0  0  0  2  0  0  0  0  0  0
  189.9350  173.3390  140.0790 N   0  0  0  0  0  2  0  0  0  0  0  0
  190.1380  173.1460  141.5200 C   0  0  1  0  0  3  0  0  0  0  0  0
  188.0930  177.7070  141.9940 C   0  0  0  0  0  3  0  0  0  0  0  0
  187.2930  176.8560  144.5430 C   0  0  0  0  0  0  0  0  0  0  0  0
  186.9320  177.3130  146.9410 C   0  0  0  0  0  2  0  0  0  0  0  0
  185.5970  178.0410  147.0180 C   0  0  0  0  0  2  0  0  0  0  0  0
  186.9930  176.4180  145.8360 O   0  0  0  0  0  0  0  0  0  0  0  0
  185.0840  178.5090  145.6620 C   0  0  0  0  0  2  0  0  0  0  0  0
  188.3950  176.4070  142.4230 C   0  0  0  0  0  0  0  0  0  0  0  0
  187.3800  178.5730  142.8260 C   0  0  0  0  0  3  0  0  0  0  0  0
  186.1310  179.0040  144.8320 O   0  0  0  0  0  0  0  0  0  0  0  0
  187.9850  175.9880  143.6930 C   0  0  0  0  0  3  0  0  0  0  0  0
  186.9450  178.1470  144.0850 C   0  0  0  0  0  0  0  0  0  0  0  0
  192.3340  172.3980  143.3830 C   0  0  0  0  0  2  0  0  0  0  0  0
  191.6990  173.7800  143.2860 C   0  0  0  0  0  0  0  0  0  0  0  0
  193.1940  173.6060  143.0740 C   0  0  0  0  0  2  0  0  0  0  0  0
  191.4030  174.5980  144.5220 C   0  0  0  0  0  0  0  0  0  0  0  0
  190.4670  174.1680  145.4870 C   0  0  0  0  0  0  0  0  0  0  0  0
  191.9520  175.8830  144.6250 C   0  0  0  0  0  3  0  0  0  0  0  0
  190.1170  175.0200  146.5470 C   0  0  0  0  0  0  0  0  0  0  0  0
  189.2140  174.6130  147.4750 F   0  0  0  0  0  0  0  0  0  0  0  0
  189.6900  172.5910  145.3740 Cl  0  0  0  0  0  0  0  0  0  0  0  0
  190.6770  176.2990  146.6470 C   0  0  0  0  0  0  0  0  0  0  0  0
  191.6000  176.7240  145.6800 C   0  0  0  0  0  3  0  0  0  0  0  0
  190.2990  177.1300  147.7060 O   0  0  0  0  0  0  0  0  0  0  0  0
  191.2050  177.5470  148.7190 C   0  0  0  0  0  1  0  0  0  0  0  0
  1  3  1  0  0  0  0
  1 20  1  1  0  0  0
  2  6  1  0  0  0  0
  2  5  1  0  0  0  0
  4  3  1  0  0  0  0
  4 14  1  0  0  0  0
  5  4  1  0  0  0  0
  6  7  1  0  0  0  0
  7  1  1  0  0  0  0
  7  3  1  0  0  0  0
  8 14  2  0  0  0  0
  8 15  1  0  0  0  0
  9 12  1  0  0  0  0
 10 11  1  0  0  0  0
 12 10  1  0  0  0  0
 13 11  1  0  0  0  0
 14 17  1  0  0  0  0
 15 18  2  0  0  0  0
 16 13  1  0  0  0  0
 17  9  2  0  0  0  0
 18  9  1  0  0  0  0
 18 16  1  0  0  0  0
 20 19  1  0  0  0  0
 20 22  1  0  0  0  0
 21 20  1  0  0  0  0
 21 19  1  0  0  0  0
 22 24  2  0  0  0  0
 22 23  1  0  0  0  0
 23 25  2  0  0  0  0
 24 29  1  0  0  0  0
 25 28  1  0  0  0  0
 25 26  1  0  0  0  0
 27 23  1  0  0  0  0
 28 30  1  0  0  0  0
 29 28  2  0  0  0  0
 30 31  1  0  0  0  0
M  END
>  <MODEL>
6

>  <REMARK>
 VINA RESULT:      -7.3      2.211      3.434
  Name = 
  4 active torsions:
  status: ('A' for Active; 'I' for Inactive)
    1  A    between atoms: N_1  and  C_11
    2  A    between atoms: C_3  and  C_11
    3  A    between atoms: O_13  and  C_22
    4  A    between atoms: C_14  and  C_24
                            x       y       z     vdW  Elec       q    Type
                         _______ _______ _______ _____ _____    ______ ____

>  <TORSDO>
F 4

$$$$
=
 OpenBabel11062421253D

 31 36  0  0  1  0  0  0  0  0999 V2000
  185.5890  177.0210  144.3730 N   0  0  2  0  0  0  0  0  0  0  0  0
  185.1950  178.5250  141.3190 C   0  0  0  0  0  2  0  0  0  0  0  0
  186.5780  177.8680  143.6820 C   0  0  1  0  0  3  0  0  0  0  0  0
  187.0340  177.1550  142.4130 C   0  0  1  0  0  3  0  0  0  0  0  0
  186.5850  177.8970  141.1480 C   0  0  0  0  0  2  0  0  0  0  0  0
  184.4730  177.9160  142.4370 N   0  0  0  0  0  2  0  0  0  0  0  0
  185.1570  178.2600  143.6900 C   0  0  1  0  0  3  0  0  0  0  0  0
  189.3840  177.9220  142.9390 C   0  0  0  0  0  3  0  0  0  0  0  0
  190.3600  175.3530  142.3890 C   0  0  0  0  0  0  0  0  0  0  0  0
  192.1330  173.8740  141.5170 C   0  0  0  0  0  2  0  0  0  0  0  0
  193.1650  173.7760  142.6340 C   0  0  0  0  0  2  0  0  0  0  0  0
  190.8180  174.0850  142.0180 O   0  0  0  0  0  0  0  0  0  0  0  0
  192.9540  174.7990  143.7420 C   0  0  0  0  0  2  0  0  0  0  0  0
  188.5110  176.9270  142.4790 C   0  0  0  0  0  0  0  0  0  0  0  0
  190.7350  177.6330  143.1400 C   0  0  0  0  0  3  0  0  0  0  0  0
  192.5560  176.0690  143.2350 O   0  0  0  0  0  0  0  0  0  0  0  0
  189.0050  175.6460  142.2150 C   0  0  0  0  0  3  0  0  0  0  0  0
  191.2260  176.3450  142.9030 C   0  0  0  0  0  0  0  0  0  0  0  0
  184.7130  177.9300  146.6260 C   0  0  0  0  0  2  0  0  0  0  0  0
  185.7950  177.2340  145.8100 C   0  0  0  0  0  0  0  0  0  0  0  0
  184.7950  176.4180  146.6120 C   0  0  0  0  0  2  0  0  0  0  0  0
  187.2000  177.0730  146.3430 C   0  0  0  0  0  0  0  0  0  0  0  0
  187.7790  178.0270  147.2070 C   0  0  0  0  0  0  0  0  0  0  0  0
  187.9960  176.0360  145.8370 C   0  0  0  0  0  3  0  0  0  0  0  0
  189.1310  177.9140  147.5660 C   0  0  0  0  0  0  0  0  0  0  0  0
  189.6930  178.8330  148.3930 F   0  0  0  0  0  0  0  0  0  0  0  0
  186.8490  179.3920  147.8200 Cl  0  0  0  0  0  0  0  0  0  0  0  0
  189.9160  176.8690  147.0630 C   0  0  0  0  0  0  0  0  0  0  0  0
  189.3380  175.9290  146.1980 C   0  0  0  0  0  3  0  0  0  0  0  0
  191.2640  176.7910  147.4280 O   0  0  0  0  0  0  0  0  0  0  0  0
  192.0370  175.6090  147.2640 C   0  0  0  0  0  1  0  0  0  0  0  0
  1 20  1  1  0  0  0
  2  6  1  0  0  0  0
  3  7  1  0  0  0  0
  3  1  1  0  0  0  0
  4 14  1  0  0  0  0
  4  3  1  0  0  0  0
  5  2  1  0  0  0  0
  5  4  1  0  0  0  0
  6  7  1  0  0  0  0
  7  1  1  0  0  0  0
  8 15  1  0  0  0  0
  9 18  1  0  0  0  0
 10 12  1  0  0  0  0
 10 11  1  0  0  0  0
 11 13  1  0  0  0  0
 12  9  1  0  0  0  0
 14  8  2  0  0  0  0
 16 13  1  0  0  0  0
 17  9  2  0  0  0  0
 17 14  1  0  0  0  0
 18 15  2  0  0  0  0
 18 16  1  0  0  0  0
 20 22  1  0  0  0  0
 20 21  1  0  0  0  0
 20 19  1  0  0  0  0
 21 19  1  0  0  0  0
 22 23  1  0  0  0  0
 23 25  2  0  0  0  0
 23 27  1  0  0  0  0
 24 29  1  0  0  0  0
 24 22  2  0  0  0  0
 25 26  1  0  0  0  0
 28 30  1  0  0  0  0
 28 25  1  0  0  0  0
 29 28  2  0  0  0  0
 31 30  1  0  0  0  0
M  END
>  <MODEL>
7

>  <REMARK>
 VINA RESULT:      -7.1      3.353      5.983
  Name = 
  4 active torsions:
  status: ('A' for Active; 'I' for Inactive)
    1  A    between atoms: N_1  and  C_11
    2  A    between atoms: C_3  and  C_11
    3  A    between atoms: O_13  and  C_22
    4  A    between atoms: C_14  and  C_24
                            x       y       z     vdW  Elec       q    Type
                         _______ _______ _______ _____ _____    ______ ____

>  <TORSDO>
F 4

$$$$
=
 OpenBabel11062421253D

 31 36  0  0  1  0  0  0  0  0999 V2000
  191.4870  174.4410  145.7990 N   0  0  2  0  0  0  0  0  0  0  0  0
  191.6160  177.0750  147.9880 C   0  0  0  0  0  2  0  0  0  0  0  0
  190.9440  175.7920  145.5740 C   0  0  1  0  0  3  0  0  0  0  0  0
  189.7990  176.0300  146.5520 C   0  0  1  0  0  3  0  0  0  0  0  0
  190.1390  177.1220  147.5750 C   0  0  0  0  0  2  0  0  0  0  0  0
  192.2160  175.7800  147.6620 N   0  0  0  0  0  2  0  0  0  0  0  0
  192.2670  175.6320  146.2020 C   0  0  1  0  0  3  0  0  0  0  0  0
  187.3000  176.3920  146.4260 C   0  0  0  0  0  3  0  0  0  0  0  0
  187.5130  177.0020  143.6980 C   0  0  0  0  0  0  0  0  0  0  0  0
  186.5910  176.9440  141.4090 C   0  0  0  0  0  2  0  0  0  0  0  0
  185.5840  178.0860  141.3500 C   0  0  0  0  0  2  0  0  0  0  0  0
  187.6500  177.2100  142.3220 O   0  0  0  0  0  0  0  0  0  0  0  0
  185.2500  178.6690  142.7170 C   0  0  0  0  0  2  0  0  0  0  0  0
  188.5430  176.3010  145.7850 C   0  0  0  0  0  0  0  0  0  0  0  0
  186.1710  176.8010  145.7140 C   0  0  0  0  0  3  0  0  0  0  0  0
  185.1440  177.6630  143.7210 O   0  0  0  0  0  0  0  0  0  0  0  0
  188.6420  176.6150  144.4260 C   0  0  0  0  0  3  0  0  0  0  0  0
  186.2730  177.1420  144.3610 C   0  0  0  0  0  0  0  0  0  0  0  0
  193.3870  173.8320  144.1580 C   0  0  0  0  0  2  0  0  0  0  0  0
  191.9020  173.9370  144.4850 C   0  0  0  0  0  0  0  0  0  0  0  0
  192.6290  172.6110  144.6350 C   0  0  0  0  0  2  0  0  0  0  0  0
  190.8520  173.8780  143.4000 C   0  0  0  0  0  0  0  0  0  0  0  0
  189.7220  173.0390  143.5080 C   0  0  0  0  0  0  0  0  0  0  0  0
  191.0930  174.5510  142.1940 C   0  0  0  0  0  3  0  0  0  0  0  0
  188.8440  172.9070  142.4200 C   0  0  0  0  0  0  0  0  0  0  0  0
  187.7590  172.0970  142.5180 F   0  0  0  0  0  0  0  0  0  0  0  0
  189.4040  172.1130  144.9720 Cl  0  0  0  0  0  0  0  0  0  0  0  0
  189.0880  173.5900  141.2220 C   0  0  0  0  0  0  0  0  0  0  0  0
  190.2160  174.4160  141.1180 C   0  0  0  0  0  3  0  0  0  0  0  0
  188.2030  173.4290  140.1520 O   0  0  0  0  0  0  0  0  0  0  0  0
  188.4640  172.5510  139.0640 C   0  0  0  0  0  1  0  0  0  0  0  0
  1 20  1  6  0  0  0
  1  7  1  0  0  0  0
  3  1  1  0  0  0  0
  3  7  1  0  0  0  0
  3  4  1  0  0  0  0
  4  5  1  0  0  0  0
  5  2  1  0  0  0  0
  6  2  1  0  0  0  0
  7  6  1  0  0  0  0
  9 18  2  0  0  0  0
  9 17  1  0  0  0  0
 10 12  1  0  0  0  0
 11 10  1  0  0  0  0
 11 13  1  0  0  0  0
 12  9  1  0  0  0  0
 13 16  1  0  0  0  0
 14  8  1  0  0  0  0
 14  4  1  0  0  0  0
 15  8  2  0  0  0  0
 16 18  1  0  0  0  0
 17 14  2  0  0  0  0
 18 15  1  0  0  0  0
 19 20  1  0  0  0  0
 19 21  1  0  0  0  0
 20 21  1  0  0  0  0
 22 23  1  0  0  0  0
 22 20  1  0  0  0  0
 23 27  1  0  0  0  0
 24 22  2  0  0  0  0
 25 26  1  0  0  0  0
 25 23  2  0  0  0  0
 28 25  1  0  0  0  0
 29 28  2  0  0  0  0
 29 24  1  0  0  0  0
 30 28  1  0  0  0  0
 31 30  1  0  0  0  0
M  END
>  <MODEL>
8

>  <REMARK>
 VINA RESULT:      -7.1      2.540      5.150
  Name = 
  4 active torsions:
  status: ('A' for Active; 'I' for Inactive)
    1  A    between atoms: N_1  and  C_11
    2  A    between atoms: C_3  and  C_11
    3  A    between atoms: O_13  and  C_22
    4  A    between atoms: C_14  and  C_24
                            x       y       z     vdW  Elec       q    Type
                         _______ _______ _______ _____ _____    ______ ____

>  <TORSDO>
F 4

$$$$
=
 OpenBabel11062421253D

 31 36  0  0  1  0  0  0  0  0999 V2000
  193.9320  174.9660  144.9030 N   0  0  2  0  0  0  0  0  0  0  0  0
  194.1660  171.5950  145.4740 C   0  0  0  0  0  2  0  0  0  0  0  0
  192.8080  174.0250  145.0490 C   0  0  1  0  0  3  0  0  0  0  0  0
  192.8290  173.0500  143.8770 C   0  0  1  0  0  3  0  0  0  0  0  0
  193.1440  171.6180  144.3290 C   0  0  0  0  0  2  0  0  0  0  0  0
  194.8980  172.8600  145.5560 N   0  0  0  0  0  2  0  0  0  0  0  0
  193.9680  173.9240  145.9530 C   0  0  1  0  0  3  0  0  0  0  0  0
  190.4080  173.7510  143.6880 C   0  0  0  0  0  3  0  0  0  0  0  0
  190.3960  173.0280  140.9790 C   0  0  0  0  0  0  0  0  0  0  0  0
  189.2230  172.1160  139.0080 C   0  0  0  0  0  2  0  0  0  0  0  0
  188.3860  173.2680  138.4670 C   0  0  0  0  0  2  0  0  0  0  0  0
  190.4050  172.5700  139.6580 O   0  0  0  0  0  0  0  0  0  0  0  0
  188.2930  174.4500  139.4230 C   0  0  0  0  0  2  0  0  0  0  0  0
  191.5450  173.1660  143.1160 C   0  0  0  0  0  0  0  0  0  0  0  0
  189.2750  173.9910  142.9080 C   0  0  0  0  0  3  0  0  0  0  0  0
  188.1610  174.0360  140.7800 O   0  0  0  0  0  0  0  0  0  0  0  0
  191.5340  172.8150  141.7630 C   0  0  0  0  0  3  0  0  0  0  0  0
  189.2700  173.6670  141.5480 C   0  0  0  0  0  0  0  0  0  0  0  0
  194.1020  176.8230  146.6910 C   0  0  0  0  0  2  0  0  0  0  0  0
  193.4640  176.2540  145.4290 C   0  0  0  0  0  0  0  0  0  0  0  0
  194.5670  177.2950  145.3290 C   0  0  0  0  0  2  0  0  0  0  0  0
  192.1490  176.7820  144.9050 C   0  0  0  0  0  0  0  0  0  0  0  0
  190.9740  176.7510  145.6860 C   0  0  0  0  0  0  0  0  0  0  0  0
  192.0660  177.1610  143.5580 C   0  0  0  0  0  3  0  0  0  0  0  0
  189.7460  177.1200  145.1150 C   0  0  0  0  0  0  0  0  0  0  0  0
  188.6130  177.0870  145.8620 F   0  0  0  0  0  0  0  0  0  0  0  0
  191.0030  176.2180  147.3650 Cl  0  0  0  0  0  0  0  0  0  0  0  0
  189.6740  177.5060  143.7710 C   0  0  0  0  0  0  0  0  0  0  0  0
  190.8430  177.5270  142.9970 C   0  0  0  0  0  3  0  0  0  0  0  0
  188.4350  177.8550  143.2260 O   0  0  0  0  0  0  0  0  0  0  0  0
  188.1640  177.8010  141.8320 C   0  0  0  0  0  1  0  0  0  0  0  0
  1  3  1  0  0  0  0
  1 20  1  1  0  0  0
  1  7  1  0  0  0  0
  2  6  1  0  0  0  0
  3  7  1  0  0  0  0
  4  5  1  0  0  0  0
  4  3  1  0  0  0  0
  5  2  1  0  0  0  0
  6  7  1  0  0  0  0
  9 18  2  0  0  0  0
  9 17  1  0  0  0  0
 10 12  1  0  0  0  0
 11 10  1  0  0  0  0
 11 13  1  0  0  0  0
 12  9  1  0  0  0  0
 13 16  1  0  0  0  0
 14  8  1  0  0  0  0
 14  4  1  0  0  0  0
 15  8  2  0  0  0  0
 16 18  1  0  0  0  0
 17 14  2  0  0  0  0
 18 15  1  0  0  0  0
 20 19  1  0  0  0  0
 21 20  1  0  0  0  0
 21 19  1  0  0  0  0
 22 20  1  0  0  0  0
 22 23  1  0  0  0  0
 23 27  1  0  0  0  0
 24 22  2  0  0  0  0
 25 23  2  0  0  0  0
 25 26  1  0  0  0  0
 28 25  1  0  0  0  0
 29 24  1  0  0  0  0
 29 28  2  0  0  0  0
 30 28  1  0  0  0  0
 31 30  1  0  0  0  0
M  END
>  <MODEL>
9

>  <REMARK>
 VINA RESULT:      -6.9      3.128      5.189
  Name = 
  4 active torsions:
  status: ('A' for Active; 'I' for Inactive)
    1  A    between atoms: N_1  and  C_11
    2  A    between atoms: C_3  and  C_11
    3  A    between atoms: O_13  and  C_22
    4  A    between atoms: C_14  and  C_24
                            x       y       z     vdW  Elec       q    Type
                         _______ _______ _______ _____ _____    ______ ____

>  <TORSDO>
F 4

$$$$
