=
 OpenBabel11062419583D

 28 33  0  0  1  0  0  0  0  0999 V2000
  188.6790  174.9240  141.5620 C   0  0  0  0  0  3  0  0  0  0  0  0
  191.7900  174.1950  142.8130 C   0  0  0  0  0  2  0  0  0  0  0  0
  187.4830  177.3490  145.7700 C   0  0  0  0  0  0  0  0  0  0  0  0
  185.3370  179.4090  146.1520 C   0  0  0  0  0  2  0  0  0  0  0  0
  191.1250  174.7910  145.9420 C   0  0  0  0  0  0  0  0  0  0  0  0
  186.2650  176.8630  145.2090 C   0  0  0  0  0  0  0  0  0  0  0  0
  190.9430  175.3200  147.3230 C   0  0  0  0  0  1  0  0  0  0  0  0
  188.6000  176.6750  143.7230 C   0  0  0  0  0  0  0  0  0  0  0  0
  187.4490  175.2190  142.1700 C   0  0  0  0  0  3  0  0  0  0  0  0
  186.2830  176.2000  144.0190 N   0  0  0  0  0  0  0  0  0  0  0  0
  189.8480  175.5630  141.9970 C   0  0  0  0  0  0  0  0  0  0  0  0
  186.3110  178.0240  147.9710 C   0  0  0  0  0  2  0  0  0  0  0  0
  191.2490  177.0810  144.7700 C   0  0  2  0  0  3  0  0  0  0  0  0
  184.4290  178.2880  146.3990 C   0  0  2  0  0  3  0  0  0  0  0  0
  185.1930  178.8890  147.5290 N   0  0  2  0  0  0  0  0  0  0  0  0
  191.1190  174.9540  141.7510 N   0  0  0  0  0  2  0  0  0  0  0  0
  188.6680  177.2170  145.0160 C   0  0  0  0  0  0  0  0  0  0  0  0
  189.7520  176.5910  142.9370 C   0  0  0  0  0  0  0  0  0  0  0  0
  187.5730  178.0720  147.1010 C   0  0  0  0  0  2  0  0  0  0  0  0
  191.5740  175.6380  144.8620 N   0  0  0  0  0  0  0  0  0  0  0  0
  184.9500  176.8990  145.9430 C   0  0  0  0  0  2  0  0  0  0  0  0
  192.4930  175.1040  143.8350 C   0  0  1  0  0  3  0  0  0  0  0  0
  190.0310  177.5490  145.6210 C   0  0  0  0  0  2  0  0  0  0  0  0
  187.4160  176.0640  143.2870 C   0  0  0  0  0  0  0  0  0  0  0  0
  190.9420  177.4130  143.3220 C   0  0  0  0  0  2  0  0  0  0  0  0
  190.9340  173.5620  145.7390 O   0  0  0  0  0  0  0  0  0  0  0  0
  193.6920  174.4090  144.4680 C   0  0  0  0  0  2  0  0  0  0  0  0
  194.5420  175.3540  145.0440 O   0  0  0  0  0  1  0  0  0  0  0  0
  1 11  2  0  0  0  0
  1  9  1  0  0  0  0
  2 22  1  0  0  0  0
  3 19  1  0  0  0  0
  4 14  1  0  0  0  0
  5  7  1  0  0  0  0
  6  3  1  0  0  0  0
  6 21  1  0  0  0  0
  8 17  1  0  0  0  0
  9 24  2  0  0  0  0
 10  6  2  0  0  0  0
 11 18  1  0  0  0  0
 13 25  1  6  0  0  0
 13 20  1  0  0  0  0
 13 23  1  0  0  0  0
 14 21  1  6  0  0  0
 14 15  1  0  0  0  0
 15  4  1  6  0  0  0
 15 12  1  0  0  0  0
 16 11  1  0  0  0  0
 16  2  1  0  0  0  0
 17 23  1  0  0  0  0
 17  3  2  0  0  0  0
 18 25  1  0  0  0  0
 18  8  2  0  0  0  0
 19 12  1  0  0  0  0
 20  5  1  0  0  0  0
 22 27  1  1  0  0  0
 22 20  1  0  0  0  0
 24  8  1  0  0  0  0
 24 10  1  0  0  0  0
 26  5  2  0  0  0  0
 27 28  1  0  0  0  0
M  END
>  <MODEL>
1

>  <REMARK>
 VINA RESULT:      -8.0      0.000      0.000
  Name = 
  1 active torsions:
  status: ('A' for Active; 'I' for Inactive)
    1  A    between atoms: C_15  and  C_24
                            x       y       z     vdW  Elec       q    Type
                         _______ _______ _______ _____ _____    ______ ____

>  <TORSDO>
F 1

$$$$
=
 OpenBabel11062419583D

 28 33  0  0  1  0  0  0  0  0999 V2000
  188.5970  175.3050  147.2390 C   0  0  0  0  0  3  0  0  0  0  0  0
  186.5490  177.5290  145.6150 C   0  0  0  0  0  2  0  0  0  0  0  0
  190.9640  174.2620  142.9580 C   0  0  0  0  0  0  0  0  0  0  0  0
  193.6930  173.0620  142.6170 C   0  0  0  0  0  2  0  0  0  0  0  0
  187.1210  176.4820  142.5880 C   0  0  0  0  0  0  0  0  0  0  0  0
  191.0720  173.1050  143.7870 C   0  0  0  0  0  0  0  0  0  0  0  0
  187.5690  176.2240  141.1910 C   0  0  0  0  0  1  0  0  0  0  0  0
  190.0490  175.4460  144.8700 C   0  0  0  0  0  0  0  0  0  0  0  0
  189.3270  174.1870  146.8070 C   0  0  0  0  0  3  0  0  0  0  0  0
  190.5560  173.1230  145.0470 N   0  0  0  0  0  0  0  0  0  0  0  0
  188.6580  176.5060  146.5170 C   0  0  0  0  0  0  0  0  0  0  0  0
  191.8920  172.9950  140.9060 C   0  0  0  0  0  2  0  0  0  0  0  0
  189.2380  177.7430  143.3400 C   0  0  2  0  0  3  0  0  0  0  0  0
  193.0330  171.7590  142.7100 C   0  0  2  0  0  3  0  0  0  0  0  0
  193.1740  172.4290  141.3850 N   0  0  2  0  0  0  0  0  0  0  0  0
  187.5980  177.4580  146.6400 N   0  0  0  0  0  2  0  0  0  0  0  0
  190.4120  175.4340  143.5140 C   0  0  0  0  0  0  0  0  0  0  0  0
  189.5570  176.6150  145.4540 C   0  0  0  0  0  0  0  0  0  0  0  0
  191.4800  174.3330  141.5330 C   0  0  0  0  0  2  0  0  0  0  0  0
  187.7880  177.4510  143.4280 N   0  0  0  0  0  0  0  0  0  0  0  0
  191.5930  171.7820  143.2880 C   0  0  0  0  0  2  0  0  0  0  0  0
  187.0020  178.2900  144.3580 C   0  0  1  0  0  3  0  0  0  0  0  0
  190.1010  176.6510  142.6430 C   0  0  0  0  0  2  0  0  0  0  0  0
  190.0200  174.2440  145.5900 C   0  0  0  0  0  0  0  0  0  0  0  0
  189.7780  177.9160  144.7480 C   0  0  0  0  0  2  0  0  0  0  0  0
  186.1030  175.8770  143.0150 O   0  0  0  0  0  0  0  0  0  0  0  0
  185.8260  178.9520  143.6520 C   0  0  0  0  0  2  0  0  0  0  0  0
  185.6220  180.2340  144.1640 O   0  0  0  0  0  1  0  0  0  0  0  0
  2 16  1  0  0  0  0
  3 17  2  0  0  0  0
  3  6  1  0  0  0  0
  5 26  2  0  0  0  0
  5 20  1  0  0  0  0
  6 10  2  0  0  0  0
  7  5  1  0  0  0  0
  8 18  2  0  0  0  0
  8 24  1  0  0  0  0
  9  1  1  0  0  0  0
 10 24  1  0  0  0  0
 11 16  1  0  0  0  0
 11  1  2  0  0  0  0
 12 19  1  0  0  0  0
 13 23  1  1  0  0  0
 13 20  1  0  0  0  0
 13 25  1  0  0  0  0
 14  4  1  1  0  0  0
 14 21  1  0  0  0  0
 15 12  1  1  0  0  0
 15  4  1  0  0  0  0
 15 14  1  0  0  0  0
 17  8  1  0  0  0  0
 18 11  1  0  0  0  0
 19  3  1  0  0  0  0
 20 22  1  0  0  0  0
 21  6  1  0  0  0  0
 22 27  1  6  0  0  0
 22  2  1  0  0  0  0
 23 17  1  0  0  0  0
 24  9  2  0  0  0  0
 25 18  1  0  0  0  0
 27 28  1  0  0  0  0
M  END
>  <MODEL>
2

>  <REMARK>
 VINA RESULT:      -7.6      2.719      6.883
  Name = 
  1 active torsions:
  status: ('A' for Active; 'I' for Inactive)
    1  A    between atoms: C_15  and  C_24
                            x       y       z     vdW  Elec       q    Type
                         _______ _______ _______ _____ _____    ______ ____

>  <TORSDO>
F 1

$$$$
=
 OpenBabel11062419583D

 28 33  0  0  1  0  0  0  0  0999 V2000
  191.9420  177.8100  143.0760 C   0  0  0  0  0  3  0  0  0  0  0  0
  193.2530  174.7650  143.9610 C   0  0  0  0  0  2  0  0  0  0  0  0
  187.8540  176.9180  145.8170 C   0  0  0  0  0  0  0  0  0  0  0  0
  185.9000  178.9200  146.9000 C   0  0  0  0  0  2  0  0  0  0  0  0
  190.4870  173.4160  145.0170 C   0  0  0  0  0  0  0  0  0  0  0  0
  187.4670  177.8060  144.7700 C   0  0  0  0  0  0  0  0  0  0  0  0
  189.3160  172.8730  145.7630 C   0  0  0  0  0  1  0  0  0  0  0  0
  190.1610  177.2540  145.1410 C   0  0  0  0  0  0  0  0  0  0  0  0
  190.6290  178.3030  143.0110 C   0  0  0  0  0  3  0  0  0  0  0  0
  188.4010  178.2640  143.8910 N   0  0  0  0  0  0  0  0  0  0  0  0
  192.3710  177.1030  144.2090 C   0  0  0  0  0  0  0  0  0  0  0  0
  185.3980  176.5180  146.5130 C   0  0  0  0  0  2  0  0  0  0  0  0
  191.1890  175.1390  146.7990 C   0  0  2  0  0  3  0  0  0  0  0  0
  185.2090  178.8070  145.6160 C   0  0  2  0  0  3  0  0  0  0  0  0
  184.8620  177.8810  146.7310 N   0  0  2  0  0  0  0  0  0  0  0  0
  193.4810  176.2070  144.1040 N   0  0  0  0  0  2  0  0  0  0  0  0
  189.2240  176.6210  145.9730 C   0  0  0  0  0  0  0  0  0  0  0  0
  191.5270  177.0200  145.3180 C   0  0  0  0  0  0  0  0  0  0  0  0
  186.8870  176.3300  146.8290 C   0  0  0  0  0  2  0  0  0  0  0  0
  191.4890  174.2260  145.6710 N   0  0  0  0  0  0  0  0  0  0  0  0
  186.0320  178.1520  144.4740 C   0  0  0  0  0  2  0  0  0  0  0  0
  192.9130  174.0850  145.2980 C   0  0  1  0  0  3  0  0  0  0  0  0
  189.6940  175.5460  146.9520 C   0  0  0  0  0  2  0  0  0  0  0  0
  189.7210  177.9840  144.0280 C   0  0  0  0  0  0  0  0  0  0  0  0
  191.9880  176.4150  146.6080 C   0  0  0  0  0  2  0  0  0  0  0  0
  190.6230  173.1070  143.8040 O   0  0  0  0  0  0  0  0  0  0  0  0
  193.3500  172.6260  145.3100 C   0  0  0  0  0  2  0  0  0  0  0  0
  194.7360  172.5450  145.4530 O   0  0  0  0  0  1  0  0  0  0  0  0
  1 11  1  0  0  0  0
  2 16  1  0  0  0  0
  2 22  1  0  0  0  0
  3 17  1  0  0  0  0
  3 19  1  0  0  0  0
  5 20  1  0  0  0  0
  5  7  1  0  0  0  0
  6  3  2  0  0  0  0
  8 18  1  0  0  0  0
  8 17  2  0  0  0  0
  9  1  2  0  0  0  0
  9 24  1  0  0  0  0
 10 24  2  0  0  0  0
 10  6  1  0  0  0  0
 11 18  2  0  0  0  0
 12 19  1  0  0  0  0
 13 25  1  6  0  0  0
 13 23  1  0  0  0  0
 14 21  1  6  0  0  0
 14 15  1  0  0  0  0
 14  4  1  0  0  0  0
 15 12  1  6  0  0  0
 15  4  1  0  0  0  0
 16 11  1  0  0  0  0
 17 23  1  0  0  0  0
 18 25  1  0  0  0  0
 20 13  1  0  0  0  0
 21  6  1  0  0  0  0
 22 27  1  6  0  0  0
 22 20  1  0  0  0  0
 24  8  1  0  0  0  0
 26  5  2  0  0  0  0
 27 28  1  0  0  0  0
M  END
>  <MODEL>
3

>  <REMARK>
 VINA RESULT:      -7.5      1.969      2.601
  Name = 
  1 active torsions:
  status: ('A' for Active; 'I' for Inactive)
    1  A    between atoms: C_15  and  C_24
                            x       y       z     vdW  Elec       q    Type
                         _______ _______ _______ _____ _____    ______ ____

>  <TORSDO>
F 1

$$$$
=
 OpenBabel11062419583D

 28 33  0  0  1  0  0  0  0  0999 V2000
  191.4730  175.7350  147.4560 C   0  0  0  0  0  3  0  0  0  0  0  0
  192.7900  175.4540  144.3000 C   0  0  0  0  0  2  0  0  0  0  0  0
  187.1370  177.3650  145.5700 C   0  0  0  0  0  0  0  0  0  0  0  0
  184.4410  177.3440  146.8870 C   0  0  0  0  0  2  0  0  0  0  0  0
  190.6020  177.3150  142.7720 C   0  0  0  0  0  0  0  0  0  0  0  0
  187.2540  177.9160  146.8810 C   0  0  0  0  0  0  0  0  0  0  0  0
  189.4760  177.9160  142.0020 C   0  0  0  0  0  1  0  0  0  0  0  0
  189.0810  175.9960  146.0590 C   0  0  0  0  0  0  0  0  0  0  0  0
  190.4380  176.5160  147.9940 C   0  0  0  0  0  3  0  0  0  0  0  0
  188.3260  177.5950  147.6580 N   0  0  0  0  0  0  0  0  0  0  0  0
  191.2740  175.0350  146.2570 C   0  0  0  0  0  0  0  0  0  0  0  0
  185.0970  178.8540  145.0250 C   0  0  0  0  0  2  0  0  0  0  0  0
  189.4120  175.1030  143.3440 C   0  0  2  0  0  3  0  0  0  0  0  0
  184.8130  178.6360  147.4650 C   0  0  2  0  0  3  0  0  0  0  0  0
  184.1500  178.5810  146.1310 N   0  0  2  0  0  0  0  0  0  0  0  0
  192.4030  174.6530  145.4670 N   0  0  0  0  0  2  0  0  0  0  0  0
  188.0920  176.4150  145.1550 C   0  0  0  0  0  0  0  0  0  0  0  0
  190.0000  175.0120  145.6870 C   0  0  0  0  0  0  0  0  0  0  0  0
  185.9990  177.6820  144.6180 C   0  0  0  0  0  2  0  0  0  0  0  0
  190.6310  175.9070  143.0920 N   0  0  0  0  0  0  0  0  0  0  0  0
  186.3270  178.9770  147.4130 C   0  0  0  0  0  2  0  0  0  0  0  0
  191.9130  175.1690  143.0700 C   0  0  1  0  0  3  0  0  0  0  0  0
  188.1360  175.9180  143.7100 C   0  0  0  0  0  2  0  0  0  0  0  0
  189.2520  176.6840  147.2680 C   0  0  0  0  0  0  0  0  0  0  0  0
  189.6910  174.1570  144.4980 C   0  0  0  0  0  2  0  0  0  0  0  0
  191.5700  178.0530  143.0960 O   0  0  0  0  0  0  0  0  0  0  0  0
  192.6730  175.4130  141.7720 C   0  0  0  0  0  2  0  0  0  0  0  0
  193.9320  175.9450  142.0510 O   0  0  0  0  0  1  0  0  0  0  0  0
  1  9  1  0  0  0  0
  2 16  1  0  0  0  0
  3  6  1  0  0  0  0
  5 20  1  0  0  0  0
  5 26  2  0  0  0  0
  6 21  1  0  0  0  0
  6 10  2  0  0  0  0
  7  5  1  0  0  0  0
  8 24  1  0  0  0  0
 11  1  2  0  0  0  0
 13 23  1  1  0  0  0
 13 25  1  0  0  0  0
 14  4  1  6  0  0  0
 15 12  1  6  0  0  0
 15  4  1  0  0  0  0
 15 14  1  0  0  0  0
 16 11  1  0  0  0  0
 17  3  2  0  0  0  0
 17  8  1  0  0  0  0
 18  8  2  0  0  0  0
 18 11  1  0  0  0  0
 19 12  1  0  0  0  0
 19  3  1  0  0  0  0
 20 13  1  0  0  0  0
 21 14  1  0  0  0  0
 22 27  1  6  0  0  0
 22 20  1  0  0  0  0
 22  2  1  0  0  0  0
 23 17  1  0  0  0  0
 24 10  1  0  0  0  0
 24  9  2  0  0  0  0
 25 18  1  0  0  0  0
 27 28  1  0  0  0  0
M  END
>  <MODEL>
4

>  <REMARK>
 VINA RESULT:      -7.5      1.816      3.616
  Name = 
  1 active torsions:
  status: ('A' for Active; 'I' for Inactive)
    1  A    between atoms: C_15  and  C_24
                            x       y       z     vdW  Elec       q    Type
                         _______ _______ _______ _____ _____    ______ ____

>  <TORSDO>
F 1

$$$$
=
 OpenBabel11062419583D

 28 33  0  0  1  0  0  0  0  0999 V2000
  189.2310  175.2360  147.2630 C   0  0  0  0  0  3  0  0  0  0  0  0
  186.9630  177.7730  146.8230 C   0  0  0  0  0  2  0  0  0  0  0  0
  189.2650  174.3290  142.3440 C   0  0  0  0  0  0  0  0  0  0  0  0
  191.3750  172.9060  140.7560 C   0  0  0  0  0  2  0  0  0  0  0  0
  185.9740  176.9310  143.8400 C   0  0  0  0  0  0  0  0  0  0  0  0
  189.5920  173.1020  142.9960 C   0  0  0  0  0  0  0  0  0  0  0  0
  185.7080  176.7470  142.3860 C   0  0  0  0  0  1  0  0  0  0  0  0
  189.4640  175.4330  144.4960 C   0  0  0  0  0  0  0  0  0  0  0  0
  189.5450  174.0930  146.5100 C   0  0  0  0  0  3  0  0  0  0  0  0
  189.7060  173.0660  144.3520 N   0  0  0  0  0  0  0  0  0  0  0  0
  189.1070  176.4810  146.6290 C   0  0  0  0  0  0  0  0  0  0  0  0
  189.0030  173.1540  140.0580 C   0  0  0  0  0  2  0  0  0  0  0  0
  188.3400  177.9160  143.5780 C   0  0  2  0  0  3  0  0  0  0  0  0
  190.6740  171.6690  141.1010 C   0  0  2  0  0  3  0  0  0  0  0  0
  190.2830  172.4300  139.8800 N   0  0  2  0  0  0  0  0  0  0  0  0
  188.3430  177.5180  147.2520 N   0  0  0  0  0  2  0  0  0  0  0  0
  189.1710  175.4990  143.1250 C   0  0  0  0  0  0  0  0  0  0  0  0
  189.4360  176.5910  145.2760 C   0  0  0  0  0  0  0  0  0  0  0  0
  189.0860  174.4680  140.8430 C   0  0  0  0  0  2  0  0  0  0  0  0
  187.0610  177.7580  144.3100 N   0  0  0  0  0  0  0  0  0  0  0  0
  189.6640  171.7820  142.2740 C   0  0  0  0  0  2  0  0  0  0  0  0
  186.8890  178.5880  145.5210 C   0  0  1  0  0  3  0  0  0  0  0  0
  188.6540  176.8080  142.5300 C   0  0  0  0  0  2  0  0  0  0  0  0
  189.6160  174.1840  145.1140 C   0  0  0  0  0  0  0  0  0  0  0  0
  189.4730  177.9190  144.5860 C   0  0  0  0  0  2  0  0  0  0  0  0
  185.1920  176.3920  144.6670 O   0  0  0  0  0  0  0  0  0  0  0  0
  185.6120  179.4160  145.4520 C   0  0  0  0  0  2  0  0  0  0  0  0
  185.5920  180.1640  144.2740 O   0  0  0  0  0  1  0  0  0  0  0  0
  2 16  1  0  0  0  0
  3  6  2  0  0  0  0
  3 17  1  0  0  0  0
  5 20  1  0  0  0  0
  5 26  2  0  0  0  0
  6 10  1  0  0  0  0
  7  5  1  0  0  0  0
  8 24  1  0  0  0  0
  8 18  1  0  0  0  0
  9  1  2  0  0  0  0
 10 24  2  0  0  0  0
 11 16  1  0  0  0  0
 11  1  1  0  0  0  0
 12 19  1  0  0  0  0
 13 23  1  6  0  0  0
 13 20  1  0  0  0  0
 13 25  1  0  0  0  0
 14  4  1  1  0  0  0
 14 21  1  0  0  0  0
 15 12  1  1  0  0  0
 15  4  1  0  0  0  0
 15 14  1  0  0  0  0
 17  8  2  0  0  0  0
 18 11  2  0  0  0  0
 19  3  1  0  0  0  0
 20 22  1  0  0  0  0
 21  6  1  0  0  0  0
 22 27  1  6  0  0  0
 22  2  1  0  0  0  0
 23 17  1  0  0  0  0
 24  9  1  0  0  0  0
 25 18  1  0  0  0  0
 28 27  1  0  0  0  0
M  END
>  <MODEL>
5

>  <REMARK>
 VINA RESULT:      -7.3      2.950      6.706
  Name = 
  1 active torsions:
  status: ('A' for Active; 'I' for Inactive)
    1  A    between atoms: C_15  and  C_24
                            x       y       z     vdW  Elec       q    Type
                         _______ _______ _______ _____ _____    ______ ____

>  <TORSDO>
F 1

$$$$
=
 OpenBabel11062419583D

 28 33  0  0  1  0  0  0  0  0999 V2000
  189.4300  176.3180  147.1240 C   0  0  0  0  0  3  0  0  0  0  0  0
  187.4230  176.7100  144.3680 C   0  0  0  0  0  2  0  0  0  0  0  0
  193.2550  174.9220  144.2190 C   0  0  0  0  0  0  0  0  0  0  0  0
  196.1790  174.9650  144.8900 C   0  0  0  0  0  2  0  0  0  0  0  0
  189.2430  174.9970  142.2850 C   0  0  0  0  0  0  0  0  0  0  0  0
  193.4510  174.3050  145.4900 C   0  0  0  0  0  0  0  0  0  0  0  0
  190.1760  174.4710  141.2490 C   0  0  0  0  0  1  0  0  0  0  0  0
  191.4460  176.2020  145.2090 C   0  0  0  0  0  0  0  0  0  0  0  0
  190.5760  175.5460  147.3700 C   0  0  0  0  0  3  0  0  0  0  0  0
  192.5780  174.5530  146.5050 N   0  0  0  0  0  0  0  0  0  0  0  0
  189.3370  177.0820  145.9510 C   0  0  0  0  0  0  0  0  0  0  0  0
  195.1470  173.5280  143.1450 C   0  0  0  0  0  2  0  0  0  0  0  0
  190.4880  177.2160  142.6930 C   0  0  2  0  0  3  0  0  0  0  0  0
  195.9750  173.6360  145.4660 C   0  0  2  0  0  3  0  0  0  0  0  0
  196.3150  173.7770  144.0210 N   0  0  2  0  0  0  0  0  0  0  0  0
  188.0500  177.4660  145.4590 N   0  0  0  0  0  2  0  0  0  0  0  0
  192.2110  175.8600  144.0830 C   0  0  0  0  0  0  0  0  0  0  0  0
  190.4470  177.1730  145.1090 C   0  0  0  0  0  0  0  0  0  0  0  0
  194.1530  174.6890  143.0170 C   0  0  0  0  0  2  0  0  0  0  0  0
  189.2590  176.3870  142.6800 N   0  0  0  0  0  0  0  0  0  0  0  0
  194.4960  173.2490  145.7390 C   0  0  0  0  0  2  0  0  0  0  0  0
  187.9920  177.0830  142.9890 C   0  0  1  0  0  3  0  0  0  0  0  0
  191.8290  176.4260  142.7150 C   0  0  0  0  0  2  0  0  0  0  0  0
  191.5690  175.4510  146.3860 C   0  0  0  0  0  0  0  0  0  0  0  0
  190.4600  178.0950  143.9300 C   0  0  0  0  0  2  0  0  0  0  0  0
  188.3900  174.2140  142.7790 O   0  0  0  0  0  0  0  0  0  0  0  0
  186.9610  176.8780  141.8860 C   0  0  0  0  0  2  0  0  0  0  0  0
  187.2920  177.6530  140.7740 O   0  0  0  0  0  1  0  0  0  0  0  0
  1  9  1  0  0  0  0
  2 16  1  0  0  0  0
  3  6  1  0  0  0  0
  5 20  1  0  0  0  0
  5 26  2  0  0  0  0
  6 21  1  0  0  0  0
  6 10  2  0  0  0  0
  7  5  1  0  0  0  0
  8 24  1  0  0  0  0
 11  1  2  0  0  0  0
 13 23  1  1  0  0  0
 13 25  1  0  0  0  0
 14  4  1  1  0  0  0
 14 21  1  0  0  0  0
 15 12  1  6  0  0  0
 15  4  1  0  0  0  0
 15 14  1  0  0  0  0
 16 11  1  0  0  0  0
 17  3  2  0  0  0  0
 17  8  1  0  0  0  0
 18  8  2  0  0  0  0
 18 11  1  0  0  0  0
 19 12  1  0  0  0  0
 19  3  1  0  0  0  0
 20 13  1  0  0  0  0
 20 22  1  0  0  0  0
 22 27  1  6  0  0  0
 22  2  1  0  0  0  0
 23 17  1  0  0  0  0
 24 10  1  0  0  0  0
 24  9  2  0  0  0  0
 25 18  1  0  0  0  0
 28 27  1  0  0  0  0
M  END
>  <MODEL>
6

>  <REMARK>
 VINA RESULT:      -7.3      2.486      6.986
  Name = 
  1 active torsions:
  status: ('A' for Active; 'I' for Inactive)
    1  A    between atoms: C_15  and  C_24
                            x       y       z     vdW  Elec       q    Type
                         _______ _______ _______ _____ _____    ______ ____

>  <TORSDO>
F 1

$$$$
=
 OpenBabel11062419583D

 28 33  0  0  1  0  0  0  0  0999 V2000
  192.4200  171.9450  143.5410 C   0  0  0  0  0  3  0  0  0  0  0  0
  195.4930  173.4580  143.3290 C   0  0  0  0  0  2  0  0  0  0  0  0
  190.4470  176.0900  145.5280 C   0  0  0  0  0  0  0  0  0  0  0  0
  187.5550  176.8860  145.6130 C   0  0  0  0  0  2  0  0  0  0  0  0
  194.8950  175.9000  145.3940 C   0  0  0  0  0  0  0  0  0  0  0  0
  189.6740  174.9900  146.0070 C   0  0  0  0  0  0  0  0  0  0  0  0
  194.5710  177.1710  146.1000 C   0  0  0  0  0  1  0  0  0  0  0  0
  191.5580  174.5480  144.0180 C   0  0  0  0  0  0  0  0  0  0  0  0
  191.3000  172.1660  144.3590 C   0  0  0  0  0  3  0  0  0  0  0  0
  189.9580  173.7280  145.5830 N   0  0  0  0  0  0  0  0  0  0  0  0
  193.0540  173.0270  142.9130 C   0  0  0  0  0  0  0  0  0  0  0  0
  189.3030  177.7290  147.1660 C   0  0  0  0  0  2  0  0  0  0  0  0
  193.5900  176.4280  143.2360 C   0  0  2  0  0  3  0  0  0  0  0  0
  187.4710  176.1090  146.8500 C   0  0  2  0  0  3  0  0  0  0  0  0
  187.8570  177.5480  146.9010 N   0  0  2  0  0  0  0  0  0  0  0  0
  194.4180  172.9020  142.4990 N   0  0  0  0  0  2  0  0  0  0  0  0
  191.4230  175.8440  144.5410 C   0  0  0  0  0  0  0  0  0  0  0  0
  192.4770  174.2960  142.9970 C   0  0  0  0  0  0  0  0  0  0  0  0
  190.2300  177.5290  145.9600 C   0  0  0  0  0  2  0  0  0  0  0  0
  194.6830  175.7500  143.9730 N   0  0  0  0  0  0  0  0  0  0  0  0
  188.6440  175.1230  147.0970 C   0  0  0  0  0  2  0  0  0  0  0  0
  195.6460  174.9780  143.1590 C   0  0  1  0  0  3  0  0  0  0  0  0
  192.4050  176.9330  144.1110 C   0  0  0  0  0  2  0  0  0  0  0  0
  190.8960  173.4780  144.6360 C   0  0  0  0  0  0  0  0  0  0  0  0
  193.0210  175.4550  142.2210 C   0  0  0  0  0  2  0  0  0  0  0  0
  195.4170  174.9620  146.0530 O   0  0  0  0  0  0  0  0  0  0  0  0
  197.0790  175.4280  143.4160 C   0  0  0  0  0  2  0  0  0  0  0  0
  197.2390  176.7570  143.0240 O   0  0  0  0  0  1  0  0  0  0  0  0
  1  9  1  0  0  0  0
  3 19  1  0  0  0  0
  3  6  1  0  0  0  0
  5 26  2  0  0  0  0
  5  7  1  0  0  0  0
  6 21  1  0  0  0  0
  8 17  1  0  0  0  0
  8 24  1  0  0  0  0
  9 24  2  0  0  0  0
 10  6  2  0  0  0  0
 11 18  1  0  0  0  0
 11  1  2  0  0  0  0
 13 25  1  6  0  0  0
 13 20  1  0  0  0  0
 13 23  1  0  0  0  0
 14  4  1  6  0  0  0
 14 15  1  0  0  0  0
 14 21  1  0  0  0  0
 15  4  1  6  0  0  0
 15 12  1  0  0  0  0
 16 11  1  0  0  0  0
 16  2  1  0  0  0  0
 17  3  2  0  0  0  0
 18  8  2  0  0  0  0
 19 12  1  0  0  0  0
 20  5  1  0  0  0  0
 22  2  1  0  0  0  0
 22 27  1  1  0  0  0
 22 20  1  0  0  0  0
 23 17  1  0  0  0  0
 24 10  1  0  0  0  0
 25 18  1  0  0  0  0
 28 27  1  0  0  0  0
M  END
>  <MODEL>
7

>  <REMARK>
 VINA RESULT:      -7.3      2.550      3.824
  Name = 
  1 active torsions:
  status: ('A' for Active; 'I' for Inactive)
    1  A    between atoms: C_15  and  C_24
                            x       y       z     vdW  Elec       q    Type
                         _______ _______ _______ _____ _____    ______ ____

>  <TORSDO>
F 1

$$$$
=
 OpenBabel11062419583D

 28 33  0  0  1  0  0  0  0  0999 V2000
  190.8350  173.8960  141.7660 C   0  0  0  0  0  3  0  0  0  0  0  0
  193.2450  174.3110  144.1740 C   0  0  0  0  0  2  0  0  0  0  0  0
  187.9300  177.3020  143.9970 C   0  0  0  0  0  0  0  0  0  0  0  0
  185.6770  178.8680  142.7820 C   0  0  0  0  0  2  0  0  0  0  0  0
  191.3680  175.7840  146.3860 C   0  0  0  0  0  0  0  0  0  0  0  0
  187.0630  176.4090  143.2980 C   0  0  0  0  0  0  0  0  0  0  0  0
  190.6240  176.7020  147.2950 C   0  0  0  0  0  1  0  0  0  0  0  0
  189.8020  176.2220  142.8920 C   0  0  0  0  0  0  0  0  0  0  0  0
  189.4490  174.1160  141.7530 C   0  0  0  0  0  3  0  0  0  0  0  0
  187.5900  175.4000  142.5510 N   0  0  0  0  0  0  0  0  0  0  0  0
  191.6970  174.8770  142.2790 C   0  0  0  0  0  0  0  0  0  0  0  0
  185.9460  178.4250  145.2130 C   0  0  0  0  0  2  0  0  0  0  0  0
  191.7930  177.5090  144.5210 C   0  0  2  0  0  3  0  0  0  0  0  0
  184.8200  177.7340  143.1300 C   0  0  2  0  0  3  0  0  0  0  0  0
  185.0380  178.8320  144.1160 N   0  0  2  0  0  0  0  0  0  0  0  0
  192.9980  174.5030  142.7400 N   0  0  0  0  0  2  0  0  0  0  0  0
  189.3200  177.1730  143.8050 C   0  0  0  0  0  0  0  0  0  0  0  0
  191.1720  176.1190  142.6430 C   0  0  0  0  0  0  0  0  0  0  0  0
  187.4420  178.4380  144.8770 C   0  0  0  0  0  2  0  0  0  0  0  0
  192.1490  176.2870  145.2800 N   0  0  0  0  0  0  0  0  0  0  0  0
  185.5670  176.4160  143.4670 C   0  0  0  0  0  2  0  0  0  0  0  0
  193.4300  175.6410  144.9250 C   0  0  1  0  0  3  0  0  0  0  0  0
  190.3120  177.9720  144.6510 C   0  0  0  0  0  2  0  0  0  0  0  0
  188.9260  175.2640  142.3620 C   0  0  0  0  0  0  0  0  0  0  0  0
  192.0600  177.2540  143.0490 C   0  0  0  0  0  2  0  0  0  0  0  0
  191.3520  174.5490  146.6340 O   0  0  0  0  0  0  0  0  0  0  0  0
  194.3260  175.4720  146.1450 C   0  0  0  0  0  2  0  0  0  0  0  0
  195.5470  174.9120  145.7670 O   0  0  0  0  0  1  0  0  0  0  0  0
  1 11  1  0  0  0  0
  2 22  1  0  0  0  0
  3 19  1  0  0  0  0
  5 26  2  0  0  0  0
  5  7  1  0  0  0  0
  6 21  1  0  0  0  0
  6  3  2  0  0  0  0
  8 17  2  0  0  0  0
  9  1  2  0  0  0  0
  9 24  1  0  0  0  0
 10  6  1  0  0  0  0
 11 18  2  0  0  0  0
 11 16  1  0  0  0  0
 13 25  1  6  0  0  0
 13 23  1  0  0  0  0
 13 20  1  0  0  0  0
 14  4  1  6  0  0  0
 14 21  1  0  0  0  0
 14 15  1  0  0  0  0
 15  4  1  6  0  0  0
 15 12  1  0  0  0  0
 16  2  1  0  0  0  0
 17  3  1  0  0  0  0
 17 23  1  0  0  0  0
 18  8  1  0  0  0  0
 18 25  1  0  0  0  0
 19 12  1  0  0  0  0
 20  5  1  0  0  0  0
 22 20  1  0  0  0  0
 22 27  1  1  0  0  0
 24 10  2  0  0  0  0
 24  8  1  0  0  0  0
 28 27  1  0  0  0  0
M  END
>  <MODEL>
8

>  <REMARK>
 VINA RESULT:      -7.2      1.576      2.057
  Name = 
  1 active torsions:
  status: ('A' for Active; 'I' for Inactive)
    1  A    between atoms: C_15  and  C_24
                            x       y       z     vdW  Elec       q    Type
                         _______ _______ _______ _____ _____    ______ ____

>  <TORSDO>
F 1

$$$$
=
 OpenBabel11062419583D

 28 33  0  0  1  0  0  0  0  0999 V2000
  190.6440  176.6610  147.4790 C   0  0  0  0  0  3  0  0  0  0  0  0
  193.0370  174.5790  146.1700 C   0  0  0  0  0  2  0  0  0  0  0  0
  188.0900  176.5320  143.1800 C   0  0  0  0  0  0  0  0  0  0  0  0
  185.1890  177.1660  142.7510 C   0  0  0  0  0  2  0  0  0  0  0  0
  192.2610  174.9770  143.0360 C   0  0  0  0  0  0  0  0  0  0  0  0
  187.7870  177.7770  143.8070 C   0  0  0  0  0  0  0  0  0  0  0  0
  191.7620  174.9110  141.6330 C   0  0  0  0  0  1  0  0  0  0  0  0
  189.2170  175.8680  145.2250 C   0  0  0  0  0  0  0  0  0  0  0  0
  189.7230  177.5450  146.8950 C   0  0  0  0  0  3  0  0  0  0  0  0
  188.3100  178.0640  145.0310 N   0  0  0  0  0  0  0  0  0  0  0  0
  190.7890  175.3620  146.9700 C   0  0  0  0  0  0  0  0  0  0  0  0
  186.9340  177.2490  140.9830 C   0  0  0  0  0  2  0  0  0  0  0  0
  190.4070  173.5180  144.0700 C   0  0  2  0  0  3  0  0  0  0  0  0
  185.6090  178.5590  142.5990 C   0  0  2  0  0  3  0  0  0  0  0  0
  185.5770  177.6580  141.4110 N   0  0  2  0  0  0  0  0  0  0  0  0
  192.0020  174.6420  147.2080 N   0  0  0  0  0  2  0  0  0  0  0  0
  188.8460  175.5850  143.9010 C   0  0  0  0  0  0  0  0  0  0  0  0
  189.9140  174.9190  145.9760 C   0  0  0  0  0  0  0  0  0  0  0  0
  187.5820  176.1300  141.8080 C   0  0  0  0  0  2  0  0  0  0  0  0
  191.7840  174.0670  144.0500 N   0  0  0  0  0  0  0  0  0  0  0  0
  187.0360  178.8840  143.1150 C   0  0  0  0  0  2  0  0  0  0  0  0
  192.7140  173.5480  145.0760 C   0  0  1  0  0  3  0  0  0  0  0  0
  189.3580  174.3090  143.2340 C   0  0  0  0  0  2  0  0  0  0  0  0
  189.0400  177.1630  145.7330 C   0  0  0  0  0  0  0  0  0  0  0  0
  189.9190  173.4980  145.5060 C   0  0  0  0  0  2  0  0  0  0  0  0
  193.1610  175.8130  143.3150 O   0  0  0  0  0  0  0  0  0  0  0  0
  193.9830  172.9870  144.4450 C   0  0  0  0  0  2  0  0  0  0  0  0
  195.1020  173.4380  145.1450 O   0  0  0  0  0  1  0  0  0  0  0  0
  2 16  1  0  0  0  0
  3  6  2  0  0  0  0
  3 17  1  0  0  0  0
  5 26  2  0  0  0  0
  5 20  1  0  0  0  0
  6 10  1  0  0  0  0
  7  5  1  0  0  0  0
  8 24  1  0  0  0  0
  8 18  1  0  0  0  0
  9  1  2  0  0  0  0
 10 24  2  0  0  0  0
 11 16  1  0  0  0  0
 11  1  1  0  0  0  0
 12 19  1  0  0  0  0
 13 23  1  6  0  0  0
 13 25  1  0  0  0  0
 14  4  1  1  0  0  0
 14 21  1  0  0  0  0
 15 12  1  1  0  0  0
 15 14  1  0  0  0  0
 15  4  1  0  0  0  0
 17  8  2  0  0  0  0
 18 11  2  0  0  0  0
 19  3  1  0  0  0  0
 20 13  1  0  0  0  0
 20 22  1  0  0  0  0
 21  6  1  0  0  0  0
 22 27  1  6  0  0  0
 22  2  1  0  0  0  0
 23 17  1  0  0  0  0
 24  9  1  0  0  0  0
 25 18  1  0  0  0  0
 27 28  1  0  0  0  0
M  END
>  <MODEL>
9

>  <REMARK>
 VINA RESULT:      -7.2      2.313      4.175
  Name = 
  1 active torsions:
  status: ('A' for Active; 'I' for Inactive)
    1  A    between atoms: C_15  and  C_24
                            x       y       z     vdW  Elec       q    Type
                         _______ _______ _______ _____ _____    ______ ____

>  <TORSDO>
F 1

$$$$
