=
 OpenBabel11062420383D

 32 35  0  0  1  0  0  0  0  0999 V2000
  191.7480  175.5790  145.5060 C   0  0  0  0  0  2  0  0  0  0  0  0
  192.7960  176.4230  143.3300 C   0  0  1  0  0  3  0  0  0  0  0  0
  193.0020  176.0050  144.7570 C   0  0  2  0  0  3  0  0  0  0  0  0
  193.1980  175.1180  143.6810 O   0  0  0  0  0  0  0  0  0  0  0  0
  191.3870  176.4420  142.9180 N   0  0  0  0  0  0  0  0  0  0  0  0
  190.6580  177.6910  142.9790 C   0  0  0  0  0  0  0  0  0  0  0  0
  191.0920  178.6200  143.7130 O   0  0  0  0  0  0  0  0  0  0  0  0
  189.4160  177.9570  142.2260 C   0  0  0  0  0  3  0  0  0  0  0  0
  188.1890  177.7920  142.7150 C   0  0  0  0  0  3  0  0  0  0  0  0
  187.0020  178.0860  141.9110 C   0  0  0  0  0  0  0  0  0  0  0  0
  186.1560  178.9150  142.3350 O   0  0  0  0  0  1  0  0  0  0  0  0
  186.8040  177.4670  140.6790 O   0  0  0  0  0  0  0  0  0  0  0  0
  190.8420  175.2450  142.2780 C   0  0  0  0  0  2  0  0  0  0  0  0
  188.8300  173.8190  142.2450 C   0  0  0  0  0  2  0  0  0  0  0  0
  189.8580  173.1310  143.1200 C   0  0  0  0  0  2  0  0  0  0  0  0
  189.7400  174.6440  143.1330 C   0  0  0  0  0  3  0  0  0  0  0  0
  192.1200  175.0950  146.8960 C   0  0  0  0  0  2  0  0  0  0  0  0
  187.7500  175.8380  146.0990 C   0  0  0  0  0  3  0  0  0  0  0  0
  187.5800  177.2330  146.2330 C   0  0  0  0  0  0  0  0  0  0  0  0
  189.6710  177.3400  147.4020 C   0  0  0  0  0  0  0  0  0  0  0  0
  191.6640  176.8960  148.4860 N   0  0  0  0  0  0  0  0  0  0  0  0
  189.8420  176.0050  147.2700 C   0  0  0  0  0  0  0  0  0  0  0  0
  191.1330  175.6340  147.9210 C   0  0  1  0  0  3  0  0  0  0  0  0
  188.5510  178.0020  146.9020 C   0  0  0  0  0  3  0  0  0  0  0  0
  190.7440  177.8990  148.1150 N   0  0  0  0  0  0  0  0  0  0  0  0
  188.8900  175.2080  146.6290 C   0  0  0  0  0  3  0  0  0  0  0  0
  186.3650  177.8990  145.6670 C   0  0  0  0  0  2  0  0  0  0  0  0
  184.7190  176.4530  146.6060 F   0  0  0  0  0  0  0  0  0  0  0  0
  185.1480  177.7700  146.5790 C   0  0  2  0  0  0  0  0  0  0  0  0
  184.1270  178.5740  146.0650 O   0  0  0  0  0  1  0  0  0  0  0  0
  185.6330  179.5100  147.8080 F   0  0  0  0  0  0  0  0  0  0  0  0
  185.4800  178.1950  147.8740 O   0  0  0  0  0  0  0  0  0  0  0  0
  1 17  1  0  0  0  0
  2  5  1  1  0  0  0
  2  4  1  0  0  0  0
  2  3  1  0  0  0  0
  3  1  1  1  0  0  0
  4  3  1  0  0  0  0
  5  6  1  0  0  0  0
  6  7  2  0  0  0  0
  8  9  2  0  0  0  0
  8  6  1  0  0  0  0
 10 11  1  0  0  0  0
 10  9  1  0  0  0  0
 12 10  2  0  0  0  0
 13  5  1  0  0  0  0
 13 16  1  0  0  0  0
 14 15  1  0  0  0  0
 14 16  1  0  0  0  0
 15 16  1  0  0  0  0
 18 19  2  0  0  0  0
 18 26  1  0  0  0  0
 19 24  1  0  0  0  0
 20 25  1  0  0  0  0
 22 20  1  0  0  0  0
 22 23  1  0  0  0  0
 23 17  1  6  0  0  0
 23 21  1  0  0  0  0
 24 20  2  0  0  0  0
 25 21  2  0  0  0  0
 26 22  2  0  0  0  0
 27 19  1  0  0  0  0
 27 29  1  0  0  0  0
 29 30  1  6  0  0  0
 29 28  1  0  0  0  0
 29 32  1  0  0  0  0
 31 32  1  0  0  0  0
M  END
>  <MODEL>
1

>  <REMARK>
 VINA RESULT:      -6.5      0.000      0.000
  Name = 
  11 active torsions:
  status: ('A' for Active; 'I' for Inactive)
    1  A    between atoms: C_2  and  C_7
    2  A    between atoms: C_5  and  C_24
    3  A    between atoms: C_7  and  C_10
    4  A    between atoms: C_8  and  C_29
    5  A    between atoms: C_9  and  N_16
    6  A    between atoms: C_10  and  O_19
    7  A    between atoms: C_11  and  C_13
    8  A    between atoms: C_13  and  C_31
    9  A    between atoms: N_16  and  C_22
   10  A    between atoms: C_18  and  C_22
   11  A    between atoms: C_23  and  C_31
                            x       y       z     vdW  Elec       q    Type
                         _______ _______ _______ _____ _____    ______ ____

>  <TORSDO>
F 11

$$$$
=
 OpenBabel11062420383D

 32 35  0  0  1  0  0  0  0  0999 V2000
  192.8360  175.8270  146.7370 C   0  0  0  0  0  2  0  0  0  0  0  0
  194.5340  176.5820  144.9780 C   0  0  1  0  0  3  0  0  0  0  0  0
  193.9490  176.7880  146.3450 C   0  0  2  0  0  3  0  0  0  0  0  0
  195.1250  176.0430  146.1390 O   0  0  0  0  0  0  0  0  0  0  0  0
  193.8610  175.5340  144.2010 N   0  0  0  0  0  0  0  0  0  0  0  0
  192.8640  175.9190  143.2240 C   0  0  0  0  0  0  0  0  0  0  0  0
  192.3230  177.0540  143.3150 O   0  0  0  0  0  0  0  0  0  0  0  0
  192.4280  175.0560  142.1080 C   0  0  0  0  0  3  0  0  0  0  0  0
  191.1970  174.5700  141.9680 C   0  0  0  0  0  3  0  0  0  0  0  0
  190.8360  173.7280  140.8270 C   0  0  0  0  0  0  0  0  0  0  0  0
  191.7410  173.1400  140.1800 O   0  0  0  0  0  0  0  0  0  0  0  0
  189.5040  173.5630  140.4560 O   0  0  0  0  0  1  0  0  0  0  0  0
  194.3710  174.1670  144.3050 C   0  0  0  0  0  2  0  0  0  0  0  0
  193.2690  171.9660  144.1470 C   0  0  0  0  0  2  0  0  0  0  0  0
  193.9980  172.0120  145.4740 C   0  0  0  0  0  2  0  0  0  0  0  0
  193.3260  173.2600  144.9330 C   0  0  0  0  0  3  0  0  0  0  0  0
  191.4890  176.5120  146.5830 C   0  0  0  0  0  2  0  0  0  0  0  0
  187.9270  177.5300  144.0230 C   0  0  0  0  0  3  0  0  0  0  0  0
  186.8010  177.2800  144.8370 C   0  0  0  0  0  0  0  0  0  0  0  0
  188.1870  175.9680  146.2890 C   0  0  0  0  0  0  0  0  0  0  0  0
  189.9030  174.7970  147.3050 N   0  0  0  0  0  0  0  0  0  0  0  0
  189.2700  176.2110  145.5170 C   0  0  0  0  0  0  0  0  0  0  0  0
  190.4410  175.5110  146.1230 C   0  0  1  0  0  3  0  0  0  0  0  0
  186.9250  176.4790  145.9880 C   0  0  0  0  0  3  0  0  0  0  0  0
  188.5340  175.1360  147.3660 N   0  0  0  0  0  0  0  0  0  0  0  0
  189.1800  176.9850  144.3570 C   0  0  0  0  0  3  0  0  0  0  0  0
  185.4710  177.8630  144.4770 C   0  0  0  0  0  2  0  0  0  0  0  0
  186.1370  179.3700  146.1990 F   0  0  0  0  0  0  0  0  0  0  0  0
  185.1830  179.1670  145.2150 C   0  0  2  0  0  0  0  0  0  0  0  0
  183.9240  179.0670  145.8120 O   0  0  0  0  0  1  0  0  0  0  0  0
  185.6620  179.7520  143.1660 F   0  0  0  0  0  0  0  0  0  0  0  0
  185.1940  180.2370  144.3060 O   0  0  0  0  0  0  0  0  0  0  0  0
  2  5  1  6  0  0  0
  2  4  1  0  0  0  0
  2  3  1  0  0  0  0
  3  1  1  6  0  0  0
  4  3  1  0  0  0  0
  5 13  1  0  0  0  0
  6  7  2  0  0  0  0
  6  5  1  0  0  0  0
  8  6  1  0  0  0  0
  9  8  2  0  0  0  0
 10  9  1  0  0  0  0
 11 10  2  0  0  0  0
 12 10  1  0  0  0  0
 13 16  1  0  0  0  0
 14 16  1  0  0  0  0
 14 15  1  0  0  0  0
 16 15  1  0  0  0  0
 17  1  1  0  0  0  0
 18 26  2  0  0  0  0
 18 19  1  0  0  0  0
 19 24  2  0  0  0  0
 20 25  1  0  0  0  0
 21 25  2  0  0  0  0
 22 23  1  0  0  0  0
 22 20  2  0  0  0  0
 23 17  1  1  0  0  0
 23 21  1  0  0  0  0
 24 20  1  0  0  0  0
 26 22  1  0  0  0  0
 27 19  1  0  0  0  0
 27 29  1  0  0  0  0
 29 30  1  1  0  0  0
 29 28  1  0  0  0  0
 31 32  1  0  0  0  0
 32 29  1  0  0  0  0
M  END
>  <MODEL>
2

>  <REMARK>
 VINA RESULT:      -6.4      2.476      3.584
  Name = 
  11 active torsions:
  status: ('A' for Active; 'I' for Inactive)
    1  A    between atoms: C_2  and  C_7
    2  A    between atoms: C_5  and  C_24
    3  A    between atoms: C_7  and  C_10
    4  A    between atoms: C_8  and  C_29
    5  A    between atoms: C_9  and  N_16
    6  A    between atoms: C_10  and  O_19
    7  A    between atoms: C_11  and  C_13
    8  A    between atoms: C_13  and  C_31
    9  A    between atoms: N_16  and  C_22
   10  A    between atoms: C_18  and  C_22
   11  A    between atoms: C_23  and  C_31
                            x       y       z     vdW  Elec       q    Type
                         _______ _______ _______ _____ _____    ______ ____

>  <TORSDO>
F 11

$$$$
=
 OpenBabel11062420383D

 32 35  0  0  1  0  0  0  0  0999 V2000
  190.2170  174.0450  142.4990 C   0  0  0  0  0  2  0  0  0  0  0  0
  190.9830  172.5400  144.4210 C   0  0  1  0  0  3  0  0  0  0  0  0
  190.2820  172.6470  143.0980 C   0  0  2  0  0  3  0  0  0  0  0  0
  191.6350  172.2720  143.1990 O   0  0  0  0  0  0  0  0  0  0  0  0
  191.4130  173.8320  144.9680 N   0  0  0  0  0  0  0  0  0  0  0  0
  190.5440  174.5200  145.9000 C   0  0  0  0  0  0  0  0  0  0  0  0
  189.3190  174.2190  145.9350 O   0  0  0  0  0  0  0  0  0  0  0  0
  191.0010  175.5720  146.8290 C   0  0  0  0  0  3  0  0  0  0  0  0
  190.2210  176.5300  147.3250 C   0  0  0  0  0  3  0  0  0  0  0  0
  190.7450  177.5350  148.2520 C   0  0  0  0  0  0  0  0  0  0  0  0
  191.8490  177.3360  148.8220 O   0  0  0  0  0  1  0  0  0  0  0  0
  190.0420  178.7100  148.5010 O   0  0  0  0  0  0  0  0  0  0  0  0
  192.7830  174.2700  144.7030 C   0  0  0  0  0  2  0  0  0  0  0  0
  194.9030  173.0400  144.9800 C   0  0  0  0  0  2  0  0  0  0  0  0
  195.0700  174.3870  145.6540 C   0  0  0  0  0  2  0  0  0  0  0  0
  193.7360  173.6650  145.7190 C   0  0  0  0  0  3  0  0  0  0  0  0
  188.7680  174.4370  142.2700 C   0  0  0  0  0  2  0  0  0  0  0  0
  187.6640  177.9410  144.8760 C   0  0  0  0  0  3  0  0  0  0  0  0
  186.4480  178.4280  144.3480 C   0  0  0  0  0  0  0  0  0  0  0  0
  186.8850  177.2200  142.3220 C   0  0  0  0  0  0  0  0  0  0  0  0
  187.7850  175.9460  140.6160 N   0  0  0  0  0  0  0  0  0  0  0  0
  188.0470  176.7450  142.8260 C   0  0  0  0  0  0  0  0  0  0  0  0
  188.6840  175.8790  141.7910 C   0  0  1  0  0  3  0  0  0  0  0  0
  186.0500  178.0700  143.0450 C   0  0  0  0  0  3  0  0  0  0  0  0
  186.6980  176.7540  141.0110 N   0  0  0  0  0  0  0  0  0  0  0  0
  188.4820  177.0940  144.1070 C   0  0  0  0  0  3  0  0  0  0  0  0
  185.5800  179.3280  145.1690 C   0  0  0  0  0  2  0  0  0  0  0  0
  183.4470  178.9790  146.1730 F   0  0  0  0  0  0  0  0  0  0  0  0
  184.7690  178.5670  146.2140 C   0  0  2  0  0  0  0  0  0  0  0  0
  185.2990  178.8520  147.4750 O   0  0  0  0  0  1  0  0  0  0  0  0
  185.3930  176.6450  147.0460 F   0  0  0  0  0  0  0  0  0  0  0  0
  184.8520  177.1880  145.9650 O   0  0  0  0  0  0  0  0  0  0  0  0
  2  5  1  6  0  0  0
  3  1  1  6  0  0  0
  3  4  1  0  0  0  0
  3  2  1  0  0  0  0
  4  2  1  0  0  0  0
  5  6  1  0  0  0  0
  6  7  2  0  0  0  0
  6  8  1  0  0  0  0
  8  9  2  0  0  0  0
  9 10  1  0  0  0  0
 10 12  2  0  0  0  0
 10 11  1  0  0  0  0
 13  5  1  0  0  0  0
 13 16  1  0  0  0  0
 14 15  1  0  0  0  0
 14 16  1  0  0  0  0
 15 16  1  0  0  0  0
 17  1  1  0  0  0  0
 19 18  1  0  0  0  0
 19 27  1  0  0  0  0
 20 22  2  0  0  0  0
 20 24  1  0  0  0  0
 21 25  2  0  0  0  0
 21 23  1  0  0  0  0
 22 26  1  0  0  0  0
 23 17  1  1  0  0  0
 23 22  1  0  0  0  0
 24 19  2  0  0  0  0
 25 20  1  0  0  0  0
 26 18  2  0  0  0  0
 27 29  1  0  0  0  0
 29 28  1  6  0  0  0
 29 30  1  0  0  0  0
 32 29  1  0  0  0  0
 32 31  1  0  0  0  0
M  END
>  <MODEL>
3

>  <REMARK>
 VINA RESULT:      -6.3      2.551      5.156
  Name = 
  11 active torsions:
  status: ('A' for Active; 'I' for Inactive)
    1  A    between atoms: C_2  and  C_7
    2  A    between atoms: C_5  and  C_24
    3  A    between atoms: C_7  and  C_10
    4  A    between atoms: C_8  and  C_29
    5  A    between atoms: C_9  and  N_16
    6  A    between atoms: C_10  and  O_19
    7  A    between atoms: C_11  and  C_13
    8  A    between atoms: C_13  and  C_31
    9  A    between atoms: N_16  and  C_22
   10  A    between atoms: C_18  and  C_22
   11  A    between atoms: C_23  and  C_31
                            x       y       z     vdW  Elec       q    Type
                         _______ _______ _______ _____ _____    ______ ____

>  <TORSDO>
F 11

$$$$
=
 OpenBabel11062420383D

 32 35  0  0  1  0  0  0  0  0999 V2000
  186.9520  175.8810  142.4260 C   0  0  0  0  0  2  0  0  0  0  0  0
  187.0110  178.3020  143.2490 C   0  0  1  0  0  3  0  0  0  0  0  0
  186.8080  177.3590  142.0980 C   0  0  2  0  0  3  0  0  0  0  0  0
  185.7300  177.8750  142.8430 O   0  0  0  0  0  0  0  0  0  0  0  0
  187.4120  177.6370  144.4940 N   0  0  0  0  0  0  0  0  0  0  0  0
  188.8220  177.5080  144.7940 C   0  0  0  0  0  0  0  0  0  0  0  0
  189.6610  177.6080  143.8580 O   0  0  0  0  0  0  0  0  0  0  0  0
  189.3570  177.2610  146.1480 C   0  0  0  0  0  3  0  0  0  0  0  0
  190.5390  176.7040  146.4020 C   0  0  0  0  0  3  0  0  0  0  0  0
  191.0060  176.5000  147.7740 C   0  0  0  0  0  0  0  0  0  0  0  0
  191.1880  175.3290  148.1980 O   0  0  0  0  0  0  0  0  0  0  0  0
  191.2590  177.5840  148.6100 O   0  0  0  0  0  1  0  0  0  0  0  0
  186.3690  177.3130  145.4670 C   0  0  0  0  0  2  0  0  0  0  0  0
  184.2970  178.5240  146.0360 C   0  0  0  0  0  2  0  0  0  0  0  0
  185.0230  178.2350  147.3340 C   0  0  0  0  0  2  0  0  0  0  0  0
  185.8110  178.5840  146.0850 C   0  0  0  0  0  3  0  0  0  0  0  0
  188.1430  175.3040  141.6820 C   0  0  0  0  0  2  0  0  0  0  0  0
  190.7590  173.4430  144.8410 C   0  0  0  0  0  3  0  0  0  0  0  0
  191.7140  172.6820  144.1320 C   0  0  0  0  0  0  0  0  0  0  0  0
  190.3010  172.7790  142.1970 C   0  0  0  0  0  0  0  0  0  0  0  0
  188.5920  173.1200  140.6770 N   0  0  0  0  0  0  0  0  0  0  0  0
  189.3870  173.5150  142.8690 C   0  0  0  0  0  0  0  0  0  0  0  0
  188.2530  173.8100  141.9440 C   0  0  1  0  0  3  0  0  0  0  0  0
  191.4820  172.3350  142.7870 C   0  0  0  0  0  3  0  0  0  0  0  0
  189.8590  172.5360  140.8860 N   0  0  0  0  0  0  0  0  0  0  0  0
  189.5740  173.8620  144.2100 C   0  0  0  0  0  3  0  0  0  0  0  0
  192.9720  172.2390  144.8080 C   0  0  0  0  0  2  0  0  0  0  0  0
  193.3070  174.0990  146.2600 F   0  0  0  0  0  0  0  0  0  0  0  0
  193.8710  173.4090  145.1990 C   0  0  2  0  0  0  0  0  0  0  0  0
  193.9800  174.2670  144.1010 O   0  0  0  0  0  1  0  0  0  0  0  0
  195.3360  171.8260  144.8510 F   0  0  0  0  0  0  0  0  0  0  0  0
  195.1410  172.9310  145.5560 O   0  0  0  0  0  0  0  0  0  0  0  0
  2  5  1  1  0  0  0
  3  1  1  1  0  0  0
  3  4  1  0  0  0  0
  3  2  1  0  0  0  0
  4  2  1  0  0  0  0
  5  6  1  0  0  0  0
  5 13  1  0  0  0  0
  6  8  1  0  0  0  0
  7  6  2  0  0  0  0
  8  9  2  0  0  0  0
  9 10  1  0  0  0  0
 10 11  2  0  0  0  0
 10 12  1  0  0  0  0
 13 16  1  0  0  0  0
 14 16  1  0  0  0  0
 14 15  1  0  0  0  0
 16 15  1  0  0  0  0
 17  1  1  0  0  0  0
 19 27  1  0  0  0  0
 19 18  2  0  0  0  0
 20 24  2  0  0  0  0
 20 22  1  0  0  0  0
 21 25  2  0  0  0  0
 21 23  1  0  0  0  0
 22 26  2  0  0  0  0
 23 17  1  6  0  0  0
 23 22  1  0  0  0  0
 24 19  1  0  0  0  0
 25 20  1  0  0  0  0
 26 18  1  0  0  0  0
 27 29  1  0  0  0  0
 29 30  1  6  0  0  0
 29 32  1  0  0  0  0
 29 28  1  0  0  0  0
 31 32  1  0  0  0  0
M  END
>  <MODEL>
4

>  <REMARK>
 VINA RESULT:      -6.2      3.573      7.436
  Name = 
  11 active torsions:
  status: ('A' for Active; 'I' for Inactive)
    1  A    between atoms: C_2  and  C_7
    2  A    between atoms: C_5  and  C_24
    3  A    between atoms: C_7  and  C_10
    4  A    between atoms: C_8  and  C_29
    5  A    between atoms: C_9  and  N_16
    6  A    between atoms: C_10  and  O_19
    7  A    between atoms: C_11  and  C_13
    8  A    between atoms: C_13  and  C_31
    9  A    between atoms: N_16  and  C_22
   10  A    between atoms: C_18  and  C_22
   11  A    between atoms: C_23  and  C_31
                            x       y       z     vdW  Elec       q    Type
                         _______ _______ _______ _____ _____    ______ ____

>  <TORSDO>
F 11

$$$$
=
 OpenBabel11062420383D

 32 35  0  0  1  0  0  0  0  0999 V2000
  189.5140  173.7460  142.4360 C   0  0  0  0  0  2  0  0  0  0  0  0
  190.2470  172.1880  144.3280 C   0  0  1  0  0  3  0  0  0  0  0  0
  189.1930  172.5530  143.3240 C   0  0  2  0  0  3  0  0  0  0  0  0
  190.1480  171.5480  143.0770 O   0  0  0  0  0  0  0  0  0  0  0  0
  191.3860  173.1150  144.3510 N   0  0  0  0  0  0  0  0  0  0  0  0
  191.3970  174.1850  145.3260 C   0  0  0  0  0  0  0  0  0  0  0  0
  190.3110  174.5390  145.8610 O   0  0  0  0  0  0  0  0  0  0  0  0
  192.6160  174.9060  145.7440 C   0  0  0  0  0  3  0  0  0  0  0  0
  192.9830  176.0980  145.2800 C   0  0  0  0  0  3  0  0  0  0  0  0
  194.2030  176.7560  145.7500 C   0  0  0  0  0  0  0  0  0  0  0  0
  194.2670  177.1650  146.9380 O   0  0  0  0  0  1  0  0  0  0  0  0
  195.2930  176.9260  144.9010 O   0  0  0  0  0  0  0  0  0  0  0  0
  192.5490  172.7950  143.5240 C   0  0  0  0  0  2  0  0  0  0  0  0
  194.3450  171.1390  143.1800 C   0  0  0  0  0  2  0  0  0  0  0  0
  194.8670  172.1790  144.1510 C   0  0  0  0  0  2  0  0  0  0  0  0
  193.4130  171.7500  144.2080 C   0  0  0  0  0  3  0  0  0  0  0  0
  188.2320  174.3100  141.8520 C   0  0  0  0  0  2  0  0  0  0  0  0
  187.6820  177.5060  144.9770 C   0  0  0  0  0  3  0  0  0  0  0  0
  186.5630  178.2540  144.5510 C   0  0  0  0  0  0  0  0  0  0  0  0
  186.8160  177.3160  142.3580 C   0  0  0  0  0  0  0  0  0  0  0  0
  187.5130  176.1900  140.4630 N   0  0  0  0  0  0  0  0  0  0  0  0
  187.8840  176.5910  142.7640 C   0  0  0  0  0  0  0  0  0  0  0  0
  188.3820  175.8030  141.5990 C   0  0  1  0  0  3  0  0  0  0  0  0
  186.1220  178.1670  143.2170 C   0  0  0  0  0  3  0  0  0  0  0  0
  186.5660  177.0910  140.9950 N   0  0  0  0  0  0  0  0  0  0  0  0
  188.3600  176.6670  144.0750 C   0  0  0  0  0  3  0  0  0  0  0  0
  185.8440  179.1450  145.5140 C   0  0  0  0  0  2  0  0  0  0  0  0
  184.8440  177.0540  146.0690 F   0  0  0  0  0  0  0  0  0  0  0  0
  184.7260  178.4210  146.2590 C   0  0  2  0  0  0  0  0  0  0  0  0
  183.5010  178.8510  145.7410 O   0  0  0  0  0  1  0  0  0  0  0  0
  185.7980  179.5800  147.7690 F   0  0  0  0  0  0  0  0  0  0  0  0
  184.7960  178.7250  147.6280 O   0  0  0  0  0  0  0  0  0  0  0  0
  2  5  1  6  0  0  0
  3  1  1  6  0  0  0
  3  2  1  0  0  0  0
  4  3  1  0  0  0  0
  4  2  1  0  0  0  0
  5  6  1  0  0  0  0
  6  8  1  0  0  0  0
  6  7  2  0  0  0  0
  9  8  2  0  0  0  0
  9 10  1  0  0  0  0
 10 11  1  0  0  0  0
 12 10  2  0  0  0  0
 13 16  1  0  0  0  0
 13  5  1  0  0  0  0
 14 15  1  0  0  0  0
 14 16  1  0  0  0  0
 15 16  1  0  0  0  0
 17  1  1  0  0  0  0
 19 18  1  0  0  0  0
 19 27  1  0  0  0  0
 20 22  2  0  0  0  0
 20 24  1  0  0  0  0
 21 25  2  0  0  0  0
 21 23  1  0  0  0  0
 22 26  1  0  0  0  0
 23 17  1  1  0  0  0
 23 22  1  0  0  0  0
 24 19  2  0  0  0  0
 25 20  1  0  0  0  0
 26 18  2  0  0  0  0
 27 29  1  0  0  0  0
 28 29  1  0  0  0  0
 29 30  1  6  0  0  0
 29 32  1  0  0  0  0
 32 31  1  0  0  0  0
M  END
>  <MODEL>
5

>  <REMARK>
 VINA RESULT:      -6.2      2.788      5.301
  Name = 
  11 active torsions:
  status: ('A' for Active; 'I' for Inactive)
    1  A    between atoms: C_2  and  C_7
    2  A    between atoms: C_5  and  C_24
    3  A    between atoms: C_7  and  C_10
    4  A    between atoms: C_8  and  C_29
    5  A    between atoms: C_9  and  N_16
    6  A    between atoms: C_10  and  O_19
    7  A    between atoms: C_11  and  C_13
    8  A    between atoms: C_13  and  C_31
    9  A    between atoms: N_16  and  C_22
   10  A    between atoms: C_18  and  C_22
   11  A    between atoms: C_23  and  C_31
                            x       y       z     vdW  Elec       q    Type
                         _______ _______ _______ _____ _____    ______ ____

>  <TORSDO>
F 11

$$$$
=
 OpenBabel11062420383D

 32 35  0  0  1  0  0  0  0  0999 V2000
  191.1280  172.9900  143.6810 C   0  0  0  0  0  2  0  0  0  0  0  0
  189.8270  171.7610  141.8540 C   0  0  1  0  0  3  0  0  0  0  0  0
  190.6270  171.6670  143.1200 C   0  0  2  0  0  3  0  0  0  0  0  0
  189.2200  171.6890  143.1240 O   0  0  0  0  0  0  0  0  0  0  0  0
  189.7390  173.1210  141.3100 N   0  0  0  0  0  0  0  0  0  0  0  0
  188.5750  173.9240  141.6180 C   0  0  0  0  0  0  0  0  0  0  0  0
  187.5190  173.3510  142.0030 O   0  0  0  0  0  0  0  0  0  0  0  0
  188.5370  175.3960  141.5090 C   0  0  0  0  0  3  0  0  0  0  0  0
  187.4730  176.1450  141.7910 C   0  0  0  0  0  3  0  0  0  0  0  0
  187.5150  177.6030  141.6690 C   0  0  0  0  0  0  0  0  0  0  0  0
  188.6270  178.1900  141.6350 O   0  0  0  0  0  1  0  0  0  0  0  0
  186.3400  178.3450  141.5800 O   0  0  0  0  0  0  0  0  0  0  0  0
  190.9210  173.6740  140.6480 C   0  0  0  0  0  2  0  0  0  0  0  0
  190.5790  173.5020  138.2110 C   0  0  0  0  0  2  0  0  0  0  0  0
  192.0600  173.7240  138.4460 C   0  0  0  0  0  2  0  0  0  0  0  0
  191.2590  172.8650  139.4080 C   0  0  0  0  0  3  0  0  0  0  0  0
  190.3430  173.3470  144.9310 C   0  0  0  0  0  2  0  0  0  0  0  0
  187.6010  176.2680  146.9880 C   0  0  0  0  0  3  0  0  0  0  0  0
  187.5320  177.3840  146.1260 C   0  0  0  0  0  0  0  0  0  0  0  0
  189.5080  176.6010  145.0140 C   0  0  0  0  0  0  0  0  0  0  0  0
  191.4070  175.4670  144.3390 N   0  0  0  0  0  0  0  0  0  0  0  0
  189.5740  175.5260  145.8330 C   0  0  0  0  0  0  0  0  0  0  0  0
  190.7650  174.7150  145.4430 C   0  0  1  0  0  3  0  0  0  0  0  0
  188.5050  177.5620  145.1230 C   0  0  0  0  0  3  0  0  0  0  0  0
  190.5810  176.5880  144.1080 N   0  0  0  0  0  0  0  0  0  0  0  0
  188.6380  175.3270  146.8500 C   0  0  0  0  0  3  0  0  0  0  0  0
  186.4280  178.3810  146.2760 C   0  0  0  0  0  2  0  0  0  0  0  0
  185.4330  176.8570  144.7380 F   0  0  0  0  0  0  0  0  0  0  0  0
  185.1980  178.0240  145.4460 C   0  0  2  0  0  0  0  0  0  0  0  0
  184.9550  179.0650  144.5470 O   0  0  0  0  0  1  0  0  0  0  0  0
  184.3690  178.5170  147.4070 F   0  0  0  0  0  0  0  0  0  0  0  0
  184.0890  177.8580  146.2920 O   0  0  0  0  0  0  0  0  0  0  0  0
  1 17  1  0  0  0  0
  2  5  1  1  0  0  0
  2  3  1  0  0  0  0
  2  4  1  0  0  0  0
  3  4  1  0  0  0  0
  3  1  1  1  0  0  0
  5  6  1  0  0  0  0
  6  7  2  0  0  0  0
  8  6  1  0  0  0  0
  8  9  2  0  0  0  0
 10  9  1  0  0  0  0
 11 10  1  0  0  0  0
 12 10  2  0  0  0  0
 13  5  1  0  0  0  0
 14 15  1  0  0  0  0
 14 16  1  0  0  0  0
 15 16  1  0  0  0  0
 16 13  1  0  0  0  0
 19 27  1  0  0  0  0
 19 18  2  0  0  0  0
 20 24  2  0  0  0  0
 20 22  1  0  0  0  0
 21 23  1  0  0  0  0
 22 26  2  0  0  0  0
 23 17  1  6  0  0  0
 23 22  1  0  0  0  0
 24 19  1  0  0  0  0
 25 21  2  0  0  0  0
 25 20  1  0  0  0  0
 26 18  1  0  0  0  0
 28 29  1  0  0  0  0
 29 30  1  6  0  0  0
 29 27  1  0  0  0  0
 29 32  1  0  0  0  0
 32 31  1  0  0  0  0
M  END
>  <MODEL>
6

>  <REMARK>
 VINA RESULT:      -6.2      2.338      3.330
  Name = 
  11 active torsions:
  status: ('A' for Active; 'I' for Inactive)
    1  A    between atoms: C_2  and  C_7
    2  A    between atoms: C_5  and  C_24
    3  A    between atoms: C_7  and  C_10
    4  A    between atoms: C_8  and  C_29
    5  A    between atoms: C_9  and  N_16
    6  A    between atoms: C_10  and  O_19
    7  A    between atoms: C_11  and  C_13
    8  A    between atoms: C_13  and  C_31
    9  A    between atoms: N_16  and  C_22
   10  A    between atoms: C_18  and  C_22
   11  A    between atoms: C_23  and  C_31
                            x       y       z     vdW  Elec       q    Type
                         _______ _______ _______ _____ _____    ______ ____

>  <TORSDO>
F 11

$$$$
=
 OpenBabel11062420383D

 32 35  0  0  1  0  0  0  0  0999 V2000
  189.3800  173.8440  142.2180 C   0  0  0  0  0  2  0  0  0  0  0  0
  189.8330  172.1350  144.0660 C   0  0  1  0  0  3  0  0  0  0  0  0
  189.1190  172.4570  142.7860 C   0  0  2  0  0  3  0  0  0  0  0  0
  190.3360  171.7510  142.8070 O   0  0  0  0  0  0  0  0  0  0  0  0
  190.6000  173.2600  144.6140 N   0  0  0  0  0  0  0  0  0  0  0  0
  192.0360  173.2830  144.4290 C   0  0  0  0  0  0  0  0  0  0  0  0
  192.6370  172.2070  144.1590 O   0  0  0  0  0  0  0  0  0  0  0  0
  192.8610  174.5020  144.5370 C   0  0  0  0  0  3  0  0  0  0  0  0
  193.2900  175.0220  145.6850 C   0  0  0  0  0  3  0  0  0  0  0  0
  194.1150  176.2310  145.7120 C   0  0  0  0  0  0  0  0  0  0  0  0
  194.6980  176.6070  144.6620 O   0  0  0  0  0  0  0  0  0  0  0  0
  194.2530  176.9730  146.8820 O   0  0  0  0  0  1  0  0  0  0  0  0
  189.8590  174.4040  145.1440 C   0  0  0  0  0  2  0  0  0  0  0  0
  190.0380  175.6580  147.2610 C   0  0  0  0  0  2  0  0  0  0  0  0
  188.6040  175.1860  147.1350 C   0  0  0  0  0  2  0  0  0  0  0  0
  189.7400  174.3010  146.6550 C   0  0  0  0  0  3  0  0  0  0  0  0
  188.1010  174.4030  141.6210 C   0  0  0  0  0  2  0  0  0  0  0  0
  187.5470  177.6240  144.7190 C   0  0  0  0  0  3  0  0  0  0  0  0
  186.4300  178.3700  144.2840 C   0  0  0  0  0  0  0  0  0  0  0  0
  186.6860  177.4130  142.1000 C   0  0  0  0  0  0  0  0  0  0  0  0
  187.3850  176.2720  140.2150 N   0  0  0  0  0  0  0  0  0  0  0  0
  187.7520  176.6910  142.5140 C   0  0  0  0  0  0  0  0  0  0  0  0
  188.2520  175.8930  141.3560 C   0  0  1  0  0  3  0  0  0  0  0  0
  185.9910  178.2720  142.9500 C   0  0  0  0  0  3  0  0  0  0  0  0
  186.4380  177.1770  140.7380 N   0  0  0  0  0  0  0  0  0  0  0  0
  188.2270  176.7780  143.8250 C   0  0  0  0  0  3  0  0  0  0  0  0
  185.7090  179.2690  145.2390 C   0  0  0  0  0  2  0  0  0  0  0  0
  184.7690  177.1610  145.8320 F   0  0  0  0  0  0  0  0  0  0  0  0
  184.7130  178.5150  146.1160 C   0  0  2  0  0  0  0  0  0  0  0  0
  183.4300  178.9900  145.8330 O   0  0  0  0  0  1  0  0  0  0  0  0
  186.0170  177.9230  147.7660 F   0  0  0  0  0  0  0  0  0  0  0  0
  185.0140  178.7360  147.4690 O   0  0  0  0  0  0  0  0  0  0  0  0
  2  5  1  6  0  0  0
  3  1  1  6  0  0  0
  3  4  1  0  0  0  0
  3  2  1  0  0  0  0
  4  2  1  0  0  0  0
  5 13  1  0  0  0  0
  6  8  1  0  0  0  0
  6  5  1  0  0  0  0
  7  6  2  0  0  0  0
  8  9  2  0  0  0  0
  9 10  1  0  0  0  0
 10 12  1  0  0  0  0
 11 10  2  0  0  0  0
 13 16  1  0  0  0  0
 15 14  1  0  0  0  0
 16 15  1  0  0  0  0
 16 14  1  0  0  0  0
 17  1  1  0  0  0  0
 19 18  1  0  0  0  0
 19 27  1  0  0  0  0
 20 22  2  0  0  0  0
 20 24  1  0  0  0  0
 21 25  2  0  0  0  0
 21 23  1  0  0  0  0
 22 26  1  0  0  0  0
 23 17  1  1  0  0  0
 23 22  1  0  0  0  0
 24 19  2  0  0  0  0
 25 20  1  0  0  0  0
 26 18  2  0  0  0  0
 27 29  1  0  0  0  0
 29 28  1  6  0  0  0
 29 32  1  0  0  0  0
 30 29  1  0  0  0  0
 32 31  1  0  0  0  0
M  END
>  <MODEL>
7

>  <REMARK>
 VINA RESULT:      -6.2      2.608      5.438
  Name = 
  11 active torsions:
  status: ('A' for Active; 'I' for Inactive)
    1  A    between atoms: C_2  and  C_7
    2  A    between atoms: C_5  and  C_24
    3  A    between atoms: C_7  and  C_10
    4  A    between atoms: C_8  and  C_29
    5  A    between atoms: C_9  and  N_16
    6  A    between atoms: C_10  and  O_19
    7  A    between atoms: C_11  and  C_13
    8  A    between atoms: C_13  and  C_31
    9  A    between atoms: N_16  and  C_22
   10  A    between atoms: C_18  and  C_22
   11  A    between atoms: C_23  and  C_31
                            x       y       z     vdW  Elec       q    Type
                         _______ _______ _______ _____ _____    ______ ____

>  <TORSDO>
F 11

$$$$
=
 OpenBabel11062420383D

 32 35  0  0  1  0  0  0  0  0999 V2000
  192.7600  175.4630  146.6870 C   0  0  0  0  0  2  0  0  0  0  0  0
  194.5530  176.2040  145.0190 C   0  0  1  0  0  3  0  0  0  0  0  0
  193.9190  176.3960  146.3660 C   0  0  2  0  0  3  0  0  0  0  0  0
  195.0780  175.6170  146.1880 O   0  0  0  0  0  0  0  0  0  0  0  0
  193.8790  175.1990  144.1870 N   0  0  0  0  0  0  0  0  0  0  0  0
  192.8730  175.6350  143.2420 C   0  0  0  0  0  0  0  0  0  0  0  0
  192.3260  176.7600  143.4020 O   0  0  0  0  0  0  0  0  0  0  0  0
  192.4320  174.8350  142.0820 C   0  0  0  0  0  3  0  0  0  0  0  0
  191.3640  174.0400  142.0760 C   0  0  0  0  0  3  0  0  0  0  0  0
  190.9830  173.2850  140.8820 C   0  0  0  0  0  0  0  0  0  0  0  0
  191.5070  172.1600  140.6670 O   0  0  0  0  0  1  0  0  0  0  0  0
  190.0440  173.7910  139.9880 O   0  0  0  0  0  0  0  0  0  0  0  0
  194.3960  173.8310  144.2090 C   0  0  0  0  0  2  0  0  0  0  0  0
  193.4290  171.5620  144.2460 C   0  0  0  0  0  2  0  0  0  0  0  0
  194.1940  171.7490  145.5410 C   0  0  0  0  0  2  0  0  0  0  0  0
  193.4290  172.9120  144.9350 C   0  0  0  0  0  3  0  0  0  0  0  0
  191.4710  176.2610  146.7810 C   0  0  0  0  0  2  0  0  0  0  0  0
  188.2310  177.9550  144.1520 C   0  0  0  0  0  3  0  0  0  0  0  0
  187.0390  177.8230  144.8990 C   0  0  0  0  0  0  0  0  0  0  0  0
  188.1440  176.2310  146.3110 C   0  0  0  0  0  0  0  0  0  0  0  0
  189.6180  174.7570  147.3130 N   0  0  0  0  0  0  0  0  0  0  0  0
  189.2900  176.3590  145.6040 C   0  0  0  0  0  0  0  0  0  0  0  0
  190.3140  175.4570  146.2080 C   0  0  1  0  0  3  0  0  0  0  0  0
  186.9870  176.9410  145.9950 C   0  0  0  0  0  3  0  0  0  0  0  0
  188.3120  175.2900  147.3410 N   0  0  0  0  0  0  0  0  0  0  0  0
  189.3720  177.2100  144.4990 C   0  0  0  0  0  3  0  0  0  0  0  0
  185.8280  178.6180  144.5260 C   0  0  0  0  0  2  0  0  0  0  0  0
  185.9010  178.9930  142.1740 F   0  0  0  0  0  0  0  0  0  0  0  0
  185.2780  178.2390  143.1540 C   0  0  2  0  0  0  0  0  0  0  0  0
  183.9070  178.5120  143.1390 O   0  0  0  0  0  1  0  0  0  0  0  0
  186.1880  176.7920  141.7940 F   0  0  0  0  0  0  0  0  0  0  0  0
  185.4930  176.8720  142.9190 O   0  0  0  0  0  0  0  0  0  0  0  0
  1 17  1  0  0  0  0
  2  5  1  6  0  0  0
  2  4  1  0  0  0  0
  2  3  1  0  0  0  0
  3  1  1  6  0  0  0
  4  3  1  0  0  0  0
  5 13  1  0  0  0  0
  6  7  2  0  0  0  0
  6  5  1  0  0  0  0
  8  6  1  0  0  0  0
  9  8  2  0  0  0  0
 10  9  1  0  0  0  0
 11 10  1  0  0  0  0
 12 10  2  0  0  0  0
 13 16  1  0  0  0  0
 14 16  1  0  0  0  0
 14 15  1  0  0  0  0
 16 15  1  0  0  0  0
 18 26  2  0  0  0  0
 18 19  1  0  0  0  0
 19 24  2  0  0  0  0
 20 25  1  0  0  0  0
 21 25  2  0  0  0  0
 22 23  1  0  0  0  0
 22 20  2  0  0  0  0
 23 17  1  1  0  0  0
 23 21  1  0  0  0  0
 24 20  1  0  0  0  0
 26 22  1  0  0  0  0
 27 19  1  0  0  0  0
 29 28  1  6  0  0  0
 29 27  1  0  0  0  0
 30 29  1  0  0  0  0
 31 32  1  0  0  0  0
 32 29  1  0  0  0  0
M  END
>  <MODEL>
8

>  <REMARK>
 VINA RESULT:      -6.2      2.763      3.980
  Name = 
  11 active torsions:
  status: ('A' for Active; 'I' for Inactive)
    1  A    between atoms: C_2  and  C_7
    2  A    between atoms: C_5  and  C_24
    3  A    between atoms: C_7  and  C_10
    4  A    between atoms: C_8  and  C_29
    5  A    between atoms: C_9  and  N_16
    6  A    between atoms: C_10  and  O_19
    7  A    between atoms: C_11  and  C_13
    8  A    between atoms: C_13  and  C_31
    9  A    between atoms: N_16  and  C_22
   10  A    between atoms: C_18  and  C_22
   11  A    between atoms: C_23  and  C_31
                            x       y       z     vdW  Elec       q    Type
                         _______ _______ _______ _____ _____    ______ ____

>  <TORSDO>
F 11

$$$$
=
 OpenBabel11062420383D

 32 35  0  0  1  0  0  0  0  0999 V2000
  189.6130  174.2900  145.2630 C   0  0  0  0  0  2  0  0  0  0  0  0
  191.3220  172.6680  144.2650 C   0  0  1  0  0  3  0  0  0  0  0  0
  190.1210  172.8600  145.1450 C   0  0  2  0  0  3  0  0  0  0  0  0
  190.0080  172.4600  143.7990 O   0  0  0  0  0  0  0  0  0  0  0  0
  191.8710  173.9220  143.7350 N   0  0  0  0  0  0  0  0  0  0  0  0
  192.8960  174.6100  144.4910 C   0  0  0  0  0  0  0  0  0  0  0  0
  193.0270  174.3590  145.7200 O   0  0  0  0  0  0  0  0  0  0  0  0
  193.8160  175.6090  143.9100 C   0  0  0  0  0  3  0  0  0  0  0  0
  194.9600  175.3130  143.2980 C   0  0  0  0  0  3  0  0  0  0  0  0
  195.8170  176.3590  142.7380 C   0  0  0  0  0  0  0  0  0  0  0  0
  195.6290  176.7460  141.5550 O   0  0  0  0  0  0  0  0  0  0  0  0
  196.8290  176.9360  143.5000 O   0  0  0  0  0  1  0  0  0  0  0  0
  191.5040  174.3120  142.3740 C   0  0  0  0  0  2  0  0  0  0  0  0
  191.3610  173.4480  140.0680 C   0  0  0  0  0  2  0  0  0  0  0  0
  192.6820  174.1790  140.1970 C   0  0  0  0  0  2  0  0  0  0  0  0
  192.1430  173.3740  141.3650 C   0  0  0  0  0  3  0  0  0  0  0  0
  189.4490  174.6560  146.7270 C   0  0  0  0  0  2  0  0  0  0  0  0
  185.7430  177.1540  146.1760 C   0  0  0  0  0  3  0  0  0  0  0  0
  186.0140  177.9810  145.0630 C   0  0  0  0  0  0  0  0  0  0  0  0
  188.3500  177.5050  145.3250 C   0  0  0  0  0  0  0  0  0  0  0  0
  190.4310  176.7830  146.0280 N   0  0  0  0  0  0  0  0  0  0  0  0
  188.0950  176.7060  146.3860 C   0  0  0  0  0  0  0  0  0  0  0  0
  189.3930  176.1670  146.8870 C   0  0  1  0  0  3  0  0  0  0  0  0
  187.3400  178.1690  144.6300 C   0  0  0  0  0  3  0  0  0  0  0  0
  189.7320  177.5630  145.0830 N   0  0  0  0  0  0  0  0  0  0  0  0
  186.7930  176.5110  146.8550 C   0  0  0  0  0  3  0  0  0  0  0  0
  184.8940  178.6620  144.3430 C   0  0  0  0  0  2  0  0  0  0  0  0
  185.5250  179.0550  142.0790 F   0  0  0  0  0  0  0  0  0  0  0  0
  184.7750  178.2170  142.8880 C   0  0  2  0  0  0  0  0  0  0  0  0
  183.4320  178.2970  142.5110 O   0  0  0  0  0  1  0  0  0  0  0  0
  186.0730  176.8850  141.7400 F   0  0  0  0  0  0  0  0  0  0  0  0
  185.2270  176.8940  142.7600 O   0  0  0  0  0  0  0  0  0  0  0  0
  1 17  1  0  0  0  0
  2  5  1  6  0  0  0
  2  3  1  0  0  0  0
  3  1  1  6  0  0  0
  4  2  1  0  0  0  0
  4  3  1  0  0  0  0
  5  6  1  0  0  0  0
  6  7  2  0  0  0  0
  8  6  1  0  0  0  0
  9  8  2  0  0  0  0
 10  9  1  0  0  0  0
 10 12  1  0  0  0  0
 11 10  2  0  0  0  0
 13  5  1  0  0  0  0
 14 15  1  0  0  0  0
 14 16  1  0  0  0  0
 15 16  1  0  0  0  0
 16 13  1  0  0  0  0
 18 26  1  0  0  0  0
 19 18  2  0  0  0  0
 20 22  1  0  0  0  0
 21 23  1  0  0  0  0
 22 26  2  0  0  0  0
 22 23  1  0  0  0  0
 23 17  1  6  0  0  0
 24 19  1  0  0  0  0
 24 20  2  0  0  0  0
 25 20  1  0  0  0  0
 25 21  2  0  0  0  0
 27 19  1  0  0  0  0
 29 28  1  6  0  0  0
 29 27  1  0  0  0  0
 30 29  1  0  0  0  0
 31 32  1  0  0  0  0
 32 29  1  0  0  0  0
M  END
>  <MODEL>
9

>  <REMARK>
 VINA RESULT:      -6.1      2.719      4.708
  Name = 
  11 active torsions:
  status: ('A' for Active; 'I' for Inactive)
    1  A    between atoms: C_2  and  C_7
    2  A    between atoms: C_5  and  C_24
    3  A    between atoms: C_7  and  C_10
    4  A    between atoms: C_8  and  C_29
    5  A    between atoms: C_9  and  N_16
    6  A    between atoms: C_10  and  O_19
    7  A    between atoms: C_11  and  C_13
    8  A    between atoms: C_13  and  C_31
    9  A    between atoms: N_16  and  C_22
   10  A    between atoms: C_18  and  C_22
   11  A    between atoms: C_23  and  C_31
                            x       y       z     vdW  Elec       q    Type
                         _______ _______ _______ _____ _____    ______ ____

>  <TORSDO>
F 11

$$$$
