=
 OpenBabel11062422253D

 36 40  0  0  1  0  0  0  0  0999 V2000
  190.4900  174.4460  145.7600 N   0  0  0  0  0  2  0  0  0  0  0  0
  191.7560  174.0440  145.3070 N   0  0  0  0  0  2  0  0  0  0  0  0
  190.5760  175.8750  146.0130 C   0  0  2  0  0  3  0  0  0  0  0  0
  192.1820  176.2160  146.7740 S   0  0  0  0  0  0  0  0  0  0  0  0
  192.7240  174.5660  146.2560 C   0  0  2  0  0  3  0  0  0  0  0  0
  187.2050  177.3400  146.8900 C   0  0  2  0  0  3  0  0  0  0  0  0
  186.4500  177.6990  145.6600 C   0  0  0  0  0  0  0  0  0  0  0  0
  185.3330  178.3630  143.1950 C   0  0  0  0  0  0  0  0  0  0  0  0
  189.5050  176.2800  146.9170 N   0  0  1  0  0  0  0  0  0  0  0  0
  188.6970  177.6000  144.8250 C   0  0  0  0  0  2  0  0  0  0  0  0
  187.1320  178.3960  147.8030 O   0  0  0  0  0  1  0  0  0  0  0  0
  187.2610  177.8450  144.5410 C   0  0  0  0  0  0  0  0  0  0  0  0
  184.5110  178.2150  144.3250 C   0  0  0  0  0  3  0  0  0  0  0  0
  186.7190  178.1760  143.2980 C   0  0  0  0  0  3  0  0  0  0  0  0
  189.6300  177.6570  147.0890 O   0  0  0  0  0  0  0  0  0  0  0  0
  184.7710  178.6930  141.9700 O   0  0  0  0  0  1  0  0  0  0  0  0
  188.6080  177.2390  146.3070 C   0  0  1  0  0  0  0  0  0  0  0  0
  185.0680  177.8800  145.5680 C   0  0  0  0  0  3  0  0  0  0  0  0
  194.0890  174.6450  145.5970 C   0  0  0  0  0  2  0  0  0  0  0  0
  193.9420  174.7170  144.1480 N   0  0  0  0  0  0  0  0  0  0  0  0
  194.4360  176.0110  143.6560 C   0  0  0  0  0  2  0  0  0  0  0  0
  195.8330  176.3850  144.1660 C   0  0  0  0  0  2  0  0  0  0  0  0
  196.0440  176.7480  141.8140 O   0  0  0  0  0  1  0  0  0  0  0  0
  196.7310  176.8330  143.0240 C   0  0  0  0  0  2  0  0  0  0  0  0
  194.7040  173.6270  143.5540 C   0  0  0  0  0  2  0  0  0  0  0  0
  194.4190  173.5590  142.0680 C   0  0  0  0  0  2  0  0  0  0  0  0
  193.0700  172.9120  141.8420 C   0  0  0  0  0  2  0  0  0  0  0  0
  192.1620  173.8860  141.1050 C   0  0  0  0  0  2  0  0  0  0  0  0
  190.5870  172.6430  142.3590 O   0  0  0  0  0  1  0  0  0  0  0  0
  187.9920  174.6180  141.3460 N   0  0  0  0  0  0  0  0  0  0  0  0
  190.6880  173.7280  141.4820 C   0  0  1  0  0  0  0  0  0  0  0  0
  190.2090  174.9840  142.2270 C   0  0  0  0  0  2  0  0  0  0  0  0
  189.4930  172.1060  140.0870 O   0  0  0  0  0  1  0  0  0  0  0  0
  189.8460  173.4530  140.1990 C   0  0  1  0  0  3  0  0  0  0  0  0
  188.5950  174.3370  140.0590 C   0  0  0  0  0  2  0  0  0  0  0  0
  188.7140  174.9410  142.3620 C   0  0  0  0  0  3  0  0  0  0  0  0
  2  1  1  0  0  0  0
  2  5  1  0  0  0  0
  3  1  1  1  0  0  0
  3  4  1  0  0  0  0
  3  9  1  0  0  0  0
  5 19  1  6  0  0  0
  5  4  1  0  0  0  0
  6 11  1  1  0  0  0
  7  6  1  0  0  0  0
  8 14  2  0  0  0  0
  8 13  1  0  0  0  0
  9 15  1  1  0  0  0
 12 10  1  0  0  0  0
 12  7  2  0  0  0  0
 13 18  2  0  0  0  0
 14 12  1  0  0  0  0
 16  8  1  0  0  0  0
 17 10  1  6  0  0  0
 17  6  1  0  0  0  0
 17  9  1  0  0  0  0
 17 15  1  0  0  0  0
 18  7  1  0  0  0  0
 20 19  1  0  0  0  0
 21 20  1  0  0  0  0
 21 22  1  0  0  0  0
 23 24  1  0  0  0  0
 24 22  1  0  0  0  0
 25 20  1  0  0  0  0
 26 25  1  0  0  0  0
 27 26  1  0  0  0  0
 28 31  1  0  0  0  0
 28 27  1  0  0  0  0
 30 36  2  0  0  0  0
 31 32  1  0  0  0  0
 31 29  1  1  0  0  0
 32 36  1  0  0  0  0
 34 33  1  1  0  0  0
 34 31  1  0  0  0  0
 35 34  1  0  0  0  0
 35 30  1  0  0  0  0
M  END
>  <MODEL>
1

>  <REMARK>
 VINA RESULT:      -6.5      0.000      0.000
  Name = 
  11 active torsions:
  status: ('A' for Active; 'I' for Inactive)
    1  A    between atoms: C_3  and  C_17
    2  A    between atoms: C_3  and  C_19
    3  A    between atoms: C_4  and  C_5
    4  A    between atoms: C_4  and  N_23
    5  A    between atoms: C_5  and  C_31
    6  A    between atoms: N_9  and  C_12
    7  A    between atoms: C_15  and  C_19
    8  A    between atoms: C_15  and  C_20
    9  A    between atoms: C_20  and  N_23
   10  A    between atoms: N_23  and  C_28
   11  A    between atoms: C_25  and  C_28
                            x       y       z     vdW  Elec       q    Type
                         _______ _______ _______ _____ _____    ______ ____

>  <TORSDO>
F 11

$$$$
=
 OpenBabel11062422253D

 36 40  0  0  1  0  0  0  0  0999 V2000
  188.6550  174.8790  147.2780 N   0  0  0  0  0  2  0  0  0  0  0  0
  189.9900  174.4490  147.2380 N   0  0  0  0  0  2  0  0  0  0  0  0
  188.5740  176.0560  146.4280 C   0  0  2  0  0  3  0  0  0  0  0  0
  190.0630  177.0470  146.6960 S   0  0  0  0  0  0  0  0  0  0  0  0
  190.8120  175.6140  147.5130 C   0  0  2  0  0  3  0  0  0  0  0  0
  185.4590  178.0680  145.7020 C   0  0  2  0  0  3  0  0  0  0  0  0
  185.1780  178.0970  144.2420 C   0  0  0  0  0  0  0  0  0  0  0  0
  184.9760  178.0630  141.4630 C   0  0  0  0  0  0  0  0  0  0  0  0
  187.3910  176.8350  146.7780 N   0  0  1  0  0  0  0  0  0  0  0  0
  187.5020  177.5050  144.2660 C   0  0  0  0  0  2  0  0  0  0  0  0
  185.3390  179.3590  146.2230 O   0  0  0  0  0  1  0  0  0  0  0  0
  186.2890  177.7970  143.4630 C   0  0  0  0  0  0  0  0  0  0  0  0
  183.8510  178.3660  142.2490 C   0  0  0  0  0  3  0  0  0  0  0  0
  186.2070  177.7740  142.0700 C   0  0  0  0  0  3  0  0  0  0  0  0
  187.7350  178.1760  146.6110 O   0  0  0  0  0  0  0  0  0  0  0  0
  184.8690  178.0470  140.0800 O   0  0  0  0  0  1  0  0  0  0  0  0
  186.9200  177.6410  145.6720 C   0  0  1  0  0  0  0  0  0  0  0  0
  183.9470  178.3840  143.6480 C   0  0  0  0  0  3  0  0  0  0  0  0
  192.2160  175.3820  146.9830 C   0  0  0  0  0  2  0  0  0  0  0  0
  192.3490  175.9560  145.6490 N   0  0  0  0  0  0  0  0  0  0  0  0
  193.6690  176.5840  145.5010 C   0  0  0  0  0  2  0  0  0  0  0  0
  194.8370  175.7130  145.9800 C   0  0  0  0  0  2  0  0  0  0  0  0
  196.1160  176.4620  144.1070 O   0  0  0  0  0  1  0  0  0  0  0  0
  195.7420  175.3250  144.8230 C   0  0  0  0  0  2  0  0  0  0  0  0
  192.1850  174.8890  144.6720 C   0  0  0  0  0  2  0  0  0  0  0  0
  191.4120  175.4100  143.4770 C   0  0  0  0  0  2  0  0  0  0  0  0
  190.0620  174.7310  143.4140 C   0  0  0  0  0  2  0  0  0  0  0  0
  189.3890  175.0700  142.0910 C   0  0  0  0  0  2  0  0  0  0  0  0
  187.7170  173.4000  141.9680 O   0  0  0  0  0  1  0  0  0  0  0  0
  189.1260  171.9750  139.2030 N   0  0  0  0  0  0  0  0  0  0  0  0
  188.8910  173.8330  141.3420 C   0  0  1  0  0  0  0  0  0  0  0  0
  188.5410  174.2120  139.8940 C   0  0  0  0  0  2  0  0  0  0  0  0
  189.6400  171.7230  142.3370 O   0  0  0  0  0  1  0  0  0  0  0  0
  189.9710  172.7110  141.4070 C   0  0  1  0  0  3  0  0  0  0  0  0
  190.2990  172.0660  140.0510 C   0  0  0  0  0  2  0  0  0  0  0  0
  188.3070  172.9630  139.0960 C   0  0  0  0  0  3  0  0  0  0  0  0
  2  1  1  0  0  0  0
  2  5  1  0  0  0  0
  3  4  1  1  0  0  0
  3  9  1  0  0  0  0
  3  1  1  0  0  0  0
  4  5  1  0  0  0  0
  5 19  1  6  0  0  0
  6 11  1  6  0  0  0
  7  6  1  0  0  0  0
  8 14  2  0  0  0  0
  8 13  1  0  0  0  0
  9 15  1  1  0  0  0
 12  7  2  0  0  0  0
 12 10  1  0  0  0  0
 13 18  2  0  0  0  0
 14 12  1  0  0  0  0
 16  8  1  0  0  0  0
 17 10  1  6  0  0  0
 17  6  1  0  0  0  0
 17 15  1  0  0  0  0
 17  9  1  0  0  0  0
 18  7  1  0  0  0  0
 20 19  1  0  0  0  0
 21 20  1  0  0  0  0
 21 22  1  0  0  0  0
 23 24  1  0  0  0  0
 24 22  1  0  0  0  0
 25 20  1  0  0  0  0
 26 25  1  0  0  0  0
 27 26  1  0  0  0  0
 28 27  1  0  0  0  0
 30 35  1  0  0  0  0
 31 34  1  0  0  0  0
 31 29  1  1  0  0  0
 31 28  1  0  0  0  0
 32 31  1  0  0  0  0
 34 33  1  1  0  0  0
 35 34  1  0  0  0  0
 36 30  2  0  0  0  0
 36 32  1  0  0  0  0
M  END
>  <MODEL>
2

>  <REMARK>
 VINA RESULT:      -6.5      1.824      2.500
  Name = 
  11 active torsions:
  status: ('A' for Active; 'I' for Inactive)
    1  A    between atoms: C_3  and  C_17
    2  A    between atoms: C_3  and  C_19
    3  A    between atoms: C_4  and  C_5
    4  A    between atoms: C_4  and  N_23
    5  A    between atoms: C_5  and  C_31
    6  A    between atoms: N_9  and  C_12
    7  A    between atoms: C_15  and  C_19
    8  A    between atoms: C_15  and  C_20
    9  A    between atoms: C_20  and  N_23
   10  A    between atoms: N_23  and  C_28
   11  A    between atoms: C_25  and  C_28
                            x       y       z     vdW  Elec       q    Type
                         _______ _______ _______ _____ _____    ______ ____

>  <TORSDO>
F 11

$$$$
=
 OpenBabel11062422253D

 36 40  0  0  1  0  0  0  0  0999 V2000
  191.6120  178.0110  143.6630 N   0  0  0  0  0  2  0  0  0  0  0  0
  192.7040  177.2820  144.1580 N   0  0  0  0  0  2  0  0  0  0  0  0
  190.5510  177.0480  143.4140 C   0  0  2  0  0  3  0  0  0  0  0  0
  191.2980  175.5590  142.7070 S   0  0  0  0  0  0  0  0  0  0  0  0
  192.9160  176.1740  143.2420 C   0  0  2  0  0  3  0  0  0  0  0  0
  187.1790  178.3870  142.3580 C   0  0  2  0  0  3  0  0  0  0  0  0
  186.2500  178.4510  143.5180 C   0  0  0  0  0  0  0  0  0  0  0  0
  184.7180  178.3520  145.8430 C   0  0  0  0  0  0  0  0  0  0  0  0
  189.5870  177.6120  142.4750 N   0  0  1  0  0  0  0  0  0  0  0  0
  187.8880  176.8850  144.3070 C   0  0  0  0  0  2  0  0  0  0  0  0
  186.5210  177.8080  141.2690 O   0  0  0  0  0  1  0  0  0  0  0  0
  186.6320  177.6320  144.5730 C   0  0  0  0  0  0  0  0  0  0  0  0
  184.3310  179.1810  144.7780 C   0  0  0  0  0  3  0  0  0  0  0  0
  185.8790  177.5700  145.7460 C   0  0  0  0  0  3  0  0  0  0  0  0
  188.7830  176.5550  142.0500 O   0  0  0  0  0  0  0  0  0  0  0  0
  183.9520  178.3070  146.9990 O   0  0  0  0  0  1  0  0  0  0  0  0
  188.2210  177.4290  142.9190 C   0  0  1  0  0  0  0  0  0  0  0  0
  185.0980  179.2360  143.6050 C   0  0  0  0  0  3  0  0  0  0  0  0
  193.6890  175.0740  143.9470 C   0  0  0  0  0  2  0  0  0  0  0  0
  193.7440  175.3390  145.3800 N   0  0  0  0  0  0  0  0  0  0  0  0
  192.7840  174.4790  146.0860 C   0  0  0  0  0  2  0  0  0  0  0  0
  191.7480  175.2440  146.9190 C   0  0  0  0  0  2  0  0  0  0  0  0
  189.4950  174.7750  147.5610 O   0  0  0  0  0  1  0  0  0  0  0  0
  190.3340  174.9330  146.4580 C   0  0  0  0  0  2  0  0  0  0  0  0
  195.0980  175.0720  145.8440 C   0  0  0  0  0  2  0  0  0  0  0  0
  196.0680  175.2260  144.6910 C   0  0  0  0  0  2  0  0  0  0  0  0
  197.1580  174.1820  144.8070 C   0  0  0  0  0  2  0  0  0  0  0  0
  196.9870  173.1520  143.6990 C   0  0  0  0  0  2  0  0  0  0  0  0
  197.1530  170.8100  143.4080 O   0  0  0  0  0  1  0  0  0  0  0  0
  195.1820  170.1790  146.1240 N   0  0  0  0  0  0  0  0  0  0  0  0
  196.5580  171.7800  144.2210 C   0  0  1  0  0  0  0  0  0  0  0  0
  197.0860  171.5850  145.6510 C   0  0  0  0  0  2  0  0  0  0  0  0
  194.5980  170.8680  143.0700 O   0  0  0  0  0  1  0  0  0  0  0  0
  195.0070  171.6550  144.1490 C   0  0  1  0  0  3  0  0  0  0  0  0
  194.3490  171.1510  145.4440 C   0  0  0  0  0  2  0  0  0  0  0  0
  196.4500  170.3650  146.2530 C   0  0  0  0  0  3  0  0  0  0  0  0
  1  2  1  0  0  0  0
  3  4  1  6  0  0  0
  3  1  1  0  0  0  0
  4  5  1  0  0  0  0
  5 19  1  1  0  0  0
  5  2  1  0  0  0  0
  6 11  1  6  0  0  0
  6 17  1  0  0  0  0
  6  7  1  0  0  0  0
  7 18  2  0  0  0  0
  7 12  1  0  0  0  0
  8 16  1  0  0  0  0
  9 15  1  6  0  0  0
  9 17  1  0  0  0  0
  9  3  1  0  0  0  0
 10 12  1  0  0  0  0
 12 14  2  0  0  0  0
 13  8  2  0  0  0  0
 14  8  1  0  0  0  0
 15 17  1  0  0  0  0
 17 10  1  1  0  0  0
 18 13  1  0  0  0  0
 19 20  1  0  0  0  0
 20 25  1  0  0  0  0
 20 21  1  0  0  0  0
 21 22  1  0  0  0  0
 24 22  1  0  0  0  0
 24 23  1  0  0  0  0
 26 27  1  0  0  0  0
 26 25  1  0  0  0  0
 28 31  1  0  0  0  0
 28 27  1  0  0  0  0
 30 36  2  0  0  0  0
 31 29  1  6  0  0  0
 31 32  1  0  0  0  0
 32 36  1  0  0  0  0
 34 33  1  6  0  0  0
 34 31  1  0  0  0  0
 34 35  1  0  0  0  0
 35 30  1  0  0  0  0
M  END
>  <MODEL>
3

>  <REMARK>
 VINA RESULT:      -6.5      2.860      5.302
  Name = 
  11 active torsions:
  status: ('A' for Active; 'I' for Inactive)
    1  A    between atoms: C_3  and  C_17
    2  A    between atoms: C_3  and  C_19
    3  A    between atoms: C_4  and  C_5
    4  A    between atoms: C_4  and  N_23
    5  A    between atoms: C_5  and  C_31
    6  A    between atoms: N_9  and  C_12
    7  A    between atoms: C_15  and  C_19
    8  A    between atoms: C_15  and  C_20
    9  A    between atoms: C_20  and  N_23
   10  A    between atoms: N_23  and  C_28
   11  A    between atoms: C_25  and  C_28
                            x       y       z     vdW  Elec       q    Type
                         _______ _______ _______ _____ _____    ______ ____

>  <TORSDO>
F 11

$$$$
=
 OpenBabel11062422253D

 36 40  0  0  1  0  0  0  0  0999 V2000
  190.5040  174.4790  145.8820 N   0  0  0  0  0  2  0  0  0  0  0  0
  191.7910  174.1240  145.4490 N   0  0  0  0  0  2  0  0  0  0  0  0
  190.5190  175.9180  146.0870 C   0  0  2  0  0  3  0  0  0  0  0  0
  192.1010  176.3620  146.8430 S   0  0  0  0  0  0  0  0  0  0  0  0
  192.7260  174.7250  146.3840 C   0  0  2  0  0  3  0  0  0  0  0  0
  187.1130  177.3370  146.9060 C   0  0  2  0  0  3  0  0  0  0  0  0
  186.3820  177.7040  145.6640 C   0  0  0  0  0  0  0  0  0  0  0  0
  185.3130  178.3890  143.1840 C   0  0  0  0  0  0  0  0  0  0  0  0
  189.4230  176.2990  146.9710 N   0  0  1  0  0  0  0  0  0  0  0  0
  188.6480  177.6390  144.8790 C   0  0  0  0  0  2  0  0  0  0  0  0
  187.0090  178.3790  147.8310 O   0  0  0  0  0  1  0  0  0  0  0  0
  187.2160  177.8730  144.5660 C   0  0  0  0  0  0  0  0  0  0  0  0
  184.4690  178.2170  144.2930 C   0  0  0  0  0  3  0  0  0  0  0  0
  186.6990  178.2150  143.3160 C   0  0  0  0  0  3  0  0  0  0  0  0
  189.5300  177.6760  147.1650 O   0  0  0  0  0  0  0  0  0  0  0  0
  184.7760  178.7300  141.9510 O   0  0  0  0  0  1  0  0  0  0  0  0
  188.5300  177.2570  146.3530 C   0  0  1  0  0  0  0  0  0  0  0  0
  185.0010  177.8710  145.5440 C   0  0  0  0  0  3  0  0  0  0  0  0
  194.0900  174.8480  145.7280 C   0  0  0  0  0  2  0  0  0  0  0  0
  193.9820  174.5970  144.2960 N   0  0  0  0  0  0  0  0  0  0  0  0
  194.2490  175.8340  143.5480 C   0  0  0  0  0  2  0  0  0  0  0  0
  193.3780  176.0140  142.2990 C   0  0  0  0  0  2  0  0  0  0  0  0
  191.7340  177.5860  143.0300 O   0  0  0  0  0  1  0  0  0  0  0  0
  191.9250  176.2510  142.6740 C   0  0  0  0  0  2  0  0  0  0  0  0
  194.9490  173.5690  143.9360 C   0  0  0  0  0  2  0  0  0  0  0  0
  194.2750  172.2120  143.9510 C   0  0  0  0  0  2  0  0  0  0  0  0
  193.2540  172.1450  142.8360 C   0  0  0  0  0  2  0  0  0  0  0  0
  192.0980  171.2520  143.2670 C   0  0  0  0  0  2  0  0  0  0  0  0
  190.4390  170.1640  141.9770 O   0  0  0  0  0  1  0  0  0  0  0  0
  188.8530  173.1010  141.2590 N   0  0  0  0  0  0  0  0  0  0  0  0
  190.8510  171.4320  142.4000 C   0  0  1  0  0  0  0  0  0  0  0  0
  189.7190  172.0370  143.2450 C   0  0  0  0  0  2  0  0  0  0  0  0
  191.3390  171.5560  140.0030 O   0  0  0  0  0  1  0  0  0  0  0  0
  191.1950  172.3170  141.1650 C   0  0  1  0  0  3  0  0  0  0  0  0
  190.2110  173.4720  140.9170 C   0  0  0  0  0  2  0  0  0  0  0  0
  188.5940  172.4550  142.3420 C   0  0  0  0  0  3  0  0  0  0  0  0
  2  1  1  0  0  0  0
  2  5  1  0  0  0  0
  3  1  1  1  0  0  0
  3  4  1  0  0  0  0
  3  9  1  0  0  0  0
  5 19  1  6  0  0  0
  5  4  1  0  0  0  0
  6 11  1  1  0  0  0
  7  6  1  0  0  0  0
  8 14  2  0  0  0  0
  8 13  1  0  0  0  0
  9 15  1  1  0  0  0
 12 10  1  0  0  0  0
 12  7  2  0  0  0  0
 13 18  2  0  0  0  0
 14 12  1  0  0  0  0
 16  8  1  0  0  0  0
 17 10  1  6  0  0  0
 17  6  1  0  0  0  0
 17  9  1  0  0  0  0
 17 15  1  0  0  0  0
 18  7  1  0  0  0  0
 20 19  1  0  0  0  0
 21 20  1  0  0  0  0
 22 24  1  0  0  0  0
 22 21  1  0  0  0  0
 24 23  1  0  0  0  0
 25 26  1  0  0  0  0
 25 20  1  0  0  0  0
 27 28  1  0  0  0  0
 27 26  1  0  0  0  0
 30 36  2  0  0  0  0
 31 29  1  6  0  0  0
 31 32  1  0  0  0  0
 31 28  1  0  0  0  0
 34 33  1  6  0  0  0
 34 31  1  0  0  0  0
 35 34  1  0  0  0  0
 35 30  1  0  0  0  0
 36 32  1  0  0  0  0
M  END
>  <MODEL>
4

>  <REMARK>
 VINA RESULT:      -6.3      1.434      1.800
  Name = 
  11 active torsions:
  status: ('A' for Active; 'I' for Inactive)
    1  A    between atoms: C_3  and  C_17
    2  A    between atoms: C_3  and  C_19
    3  A    between atoms: C_4  and  C_5
    4  A    between atoms: C_4  and  N_23
    5  A    between atoms: C_5  and  C_31
    6  A    between atoms: N_9  and  C_12
    7  A    between atoms: C_15  and  C_19
    8  A    between atoms: C_15  and  C_20
    9  A    between atoms: C_20  and  N_23
   10  A    between atoms: N_23  and  C_28
   11  A    between atoms: C_25  and  C_28
                            x       y       z     vdW  Elec       q    Type
                         _______ _______ _______ _____ _____    ______ ____

>  <TORSDO>
F 11

$$$$
=
 OpenBabel11062422253D

 36 40  0  0  1  0  0  0  0  0999 V2000
  190.8190  176.1000  142.3110 N   0  0  0  0  0  2  0  0  0  0  0  0
  191.6370  174.9640  142.4080 N   0  0  0  0  0  2  0  0  0  0  0  0
  189.4520  175.6170  142.2000 C   0  0  2  0  0  3  0  0  0  0  0  0
  189.4560  174.1610  141.1260 S   0  0  0  0  0  0  0  0  0  0  0  0
  191.2550  174.0800  141.3210 C   0  0  2  0  0  3  0  0  0  0  0  0
  186.7110  178.2180  142.2360 C   0  0  2  0  0  3  0  0  0  0  0  0
  186.1330  178.3560  143.5990 C   0  0  0  0  0  0  0  0  0  0  0  0
  185.1850  178.3120  146.2190 C   0  0  0  0  0  0  0  0  0  0  0  0
  188.6090  176.6570  141.6220 N   0  0  1  0  0  0  0  0  0  0  0  0
  187.1700  176.1970  143.7410 C   0  0  0  0  0  2  0  0  0  0  0  0
  185.6770  178.1370  141.3000 O   0  0  0  0  0  1  0  0  0  0  0  0
  186.3780  177.2570  144.4130 C   0  0  0  0  0  0  0  0  0  0  0  0
  184.9380  179.4250  145.3980 C   0  0  0  0  0  3  0  0  0  0  0  0
  185.9120  177.2180  145.7280 C   0  0  0  0  0  3  0  0  0  0  0  0
  187.3940  176.0520  141.3050 O   0  0  0  0  0  0  0  0  0  0  0  0
  184.7110  178.2960  147.5230 O   0  0  0  0  0  1  0  0  0  0  0  0
  187.3970  176.8670  142.3870 C   0  0  1  0  0  0  0  0  0  0  0  0
  185.4130  179.4530  144.0780 C   0  0  0  0  0  3  0  0  0  0  0  0
  191.6840  172.6600  141.6470 C   0  0  0  0  0  2  0  0  0  0  0  0
  190.5570  171.9080  142.1880 N   0  0  0  0  0  0  0  0  0  0  0  0
  190.4500  170.6080  141.5110 C   0  0  0  0  0  2  0  0  0  0  0  0
  190.8690  170.6310  140.0360 C   0  0  0  0  0  2  0  0  0  0  0  0
  189.8090  169.6860  138.1140 O   0  0  0  0  0  1  0  0  0  0  0  0
  190.4290  169.3640  139.3210 C   0  0  0  0  0  2  0  0  0  0  0  0
  190.7750  171.7190  143.6150 C   0  0  0  0  0  2  0  0  0  0  0  0
  189.7440  172.5090  144.3940 C   0  0  0  0  0  2  0  0  0  0  0  0
  190.4400  173.5650  145.2240 C   0  0  0  0  0  2  0  0  0  0  0  0
  189.4190  174.2580  146.1160 C   0  0  0  0  0  2  0  0  0  0  0  0
  188.8720  176.2800  147.2160 O   0  0  0  0  0  1  0  0  0  0  0  0
  192.1550  177.1200  147.6330 N   0  0  0  0  0  0  0  0  0  0  0  0
  189.9640  175.5270  146.7720 C   0  0  1  0  0  0  0  0  0  0  0  0
  190.8080  175.1520  148.0010 C   0  0  0  0  0  2  0  0  0  0  0  0
  190.0660  177.4440  145.2490 O   0  0  0  0  0  1  0  0  0  0  0  0
  190.7830  176.3450  145.7280 C   0  0  1  0  0  3  0  0  0  0  0  0
  192.1690  176.7960  146.2200 C   0  0  0  0  0  2  0  0  0  0  0  0
  191.5510  176.3640  148.4820 C   0  0  0  0  0  3  0  0  0  0  0  0
  1  2  1  0  0  0  0
  3  4  1  6  0  0  0
  3  1  1  0  0  0  0
  4  5  1  0  0  0  0
  5 19  1  1  0  0  0
  5  2  1  0  0  0  0
  6 11  1  6  0  0  0
  6 17  1  0  0  0  0
  6  7  1  0  0  0  0
  7 18  2  0  0  0  0
  7 12  1  0  0  0  0
  8 16  1  0  0  0  0
  9 15  1  6  0  0  0
  9  3  1  0  0  0  0
  9 17  1  0  0  0  0
 10 12  1  0  0  0  0
 12 14  2  0  0  0  0
 13  8  2  0  0  0  0
 14  8  1  0  0  0  0
 15 17  1  0  0  0  0
 17 10  1  1  0  0  0
 18 13  1  0  0  0  0
 19 20  1  0  0  0  0
 20 25  1  0  0  0  0
 21 20  1  0  0  0  0
 22 21  1  0  0  0  0
 23 24  1  0  0  0  0
 24 22  1  0  0  0  0
 25 26  1  0  0  0  0
 26 27  1  0  0  0  0
 27 28  1  0  0  0  0
 28 31  1  0  0  0  0
 30 36  2  0  0  0  0
 31 29  1  1  0  0  0
 31 32  1  0  0  0  0
 32 36  1  0  0  0  0
 34 33  1  1  0  0  0
 34 35  1  0  0  0  0
 34 31  1  0  0  0  0
 35 30  1  0  0  0  0
M  END
>  <MODEL>
5

>  <REMARK>
 VINA RESULT:      -6.3      2.938      5.731
  Name = 
  11 active torsions:
  status: ('A' for Active; 'I' for Inactive)
    1  A    between atoms: C_3  and  C_17
    2  A    between atoms: C_3  and  C_19
    3  A    between atoms: C_4  and  C_5
    4  A    between atoms: C_4  and  N_23
    5  A    between atoms: C_5  and  C_31
    6  A    between atoms: N_9  and  C_12
    7  A    between atoms: C_15  and  C_19
    8  A    between atoms: C_15  and  C_20
    9  A    between atoms: C_20  and  N_23
   10  A    between atoms: N_23  and  C_28
   11  A    between atoms: C_25  and  C_28
                            x       y       z     vdW  Elec       q    Type
                         _______ _______ _______ _____ _____    ______ ____

>  <TORSDO>
F 11

$$$$
=
 OpenBabel11062422253D

 36 40  0  0  1  0  0  0  0  0999 V2000
  191.7130  177.5440  144.3420 N   0  0  0  0  0  2  0  0  0  0  0  0
  192.7590  176.7850  144.8880 N   0  0  0  0  0  2  0  0  0  0  0  0
  190.8370  176.6080  143.6560 C   0  0  2  0  0  3  0  0  0  0  0  0
  191.8690  175.3830  142.8160 S   0  0  0  0  0  0  0  0  0  0  0  0
  193.2700  175.9480  143.8160 C   0  0  2  0  0  3  0  0  0  0  0  0
  187.6970  178.2830  142.3840 C   0  0  2  0  0  3  0  0  0  0  0  0
  186.6500  178.3140  143.4400 C   0  0  0  0  0  0  0  0  0  0  0  0
  184.8650  178.1240  145.5710 C   0  0  0  0  0  0  0  0  0  0  0  0
  190.0220  177.3230  142.6800 N   0  0  1  0  0  0  0  0  0  0  0  0
  188.0850  176.5660  144.2440 C   0  0  0  0  0  2  0  0  0  0  0  0
  187.1300  177.8540  141.1820 O   0  0  0  0  0  1  0  0  0  0  0  0
  186.8590  177.3780  144.4460 C   0  0  0  0  0  0  0  0  0  0  0  0
  184.6540  179.0710  144.5550 C   0  0  0  0  0  3  0  0  0  0  0  0
  185.9760  177.2690  145.5220 C   0  0  0  0  0  3  0  0  0  0  0  0
  189.2040  176.3710  142.0730 O   0  0  0  0  0  0  0  0  0  0  0  0
  183.9730  178.0340  146.6300 O   0  0  0  0  0  1  0  0  0  0  0  0
  188.6060  177.2040  142.9570 C   0  0  1  0  0  0  0  0  0  0  0  0
  185.5490  179.1720  143.4810 C   0  0  0  0  0  3  0  0  0  0  0  0
  194.0050  174.7580  144.4090 C   0  0  0  0  0  2  0  0  0  0  0  0
  194.6500  173.9900  143.3490 N   0  0  0  0  0  0  0  0  0  0  0  0
  196.0580  174.3920  143.2240 C   0  0  0  0  0  2  0  0  0  0  0  0
  196.4070  175.0500  141.8830 C   0  0  0  0  0  2  0  0  0  0  0  0
  196.7130  176.9310  143.3230 O   0  0  0  0  0  1  0  0  0  0  0  0
  196.4370  176.5640  142.0060 C   0  0  0  0  0  2  0  0  0  0  0  0
  194.5560  172.5760  143.6850 C   0  0  0  0  0  2  0  0  0  0  0  0
  193.3760  172.3530  144.6090 C   0  0  0  0  0  2  0  0  0  0  0  0
  192.4890  171.2670  144.0390 C   0  0  0  0  0  2  0  0  0  0  0  0
  192.3280  171.4840  142.5410 C   0  0  0  0  0  2  0  0  0  0  0  0
  190.4680  170.1190  142.0170 O   0  0  0  0  0  1  0  0  0  0  0  0
  188.4720  172.8150  141.3820 N   0  0  0  0  0  0  0  0  0  0  0  0
  190.8670  171.4570  142.0890 C   0  0  1  0  0  0  0  0  0  0  0  0
  189.9890  172.1550  143.1390 C   0  0  0  0  0  2  0  0  0  0  0  0
  190.6010  171.1760  139.6700 O   0  0  0  0  0  1  0  0  0  0  0  0
  190.7410  172.1240  140.6860 C   0  0  1  0  0  3  0  0  0  0  0  0
  189.6250  173.1760  140.5800 C   0  0  0  0  0  2  0  0  0  0  0  0
  188.6110  172.3610  142.5780 C   0  0  0  0  0  3  0  0  0  0  0  0
  1  2  1  0  0  0  0
  3  4  1  6  0  0  0
  3  1  1  0  0  0  0
  4  5  1  0  0  0  0
  5 19  1  1  0  0  0
  5  2  1  0  0  0  0
  6 11  1  6  0  0  0
  6 17  1  0  0  0  0
  6  7  1  0  0  0  0
  7 18  2  0  0  0  0
  7 12  1  0  0  0  0
  8 16  1  0  0  0  0
  9 15  1  6  0  0  0
  9 17  1  0  0  0  0
  9  3  1  0  0  0  0
 10 12  1  0  0  0  0
 12 14  2  0  0  0  0
 13  8  2  0  0  0  0
 14  8  1  0  0  0  0
 15 17  1  0  0  0  0
 17 10  1  1  0  0  0
 18 13  1  0  0  0  0
 20 25  1  0  0  0  0
 20 19  1  0  0  0  0
 21 20  1  0  0  0  0
 22 24  1  0  0  0  0
 22 21  1  0  0  0  0
 24 23  1  0  0  0  0
 25 26  1  0  0  0  0
 27 26  1  0  0  0  0
 28 27  1  0  0  0  0
 30 36  2  0  0  0  0
 31 29  1  6  0  0  0
 31 28  1  0  0  0  0
 31 32  1  0  0  0  0
 34 33  1  6  0  0  0
 34 31  1  0  0  0  0
 35 34  1  0  0  0  0
 35 30  1  0  0  0  0
 36 32  1  0  0  0  0
M  END
>  <MODEL>
6

>  <REMARK>
 VINA RESULT:      -6.2      2.195      2.934
  Name = 
  11 active torsions:
  status: ('A' for Active; 'I' for Inactive)
    1  A    between atoms: C_3  and  C_17
    2  A    between atoms: C_3  and  C_19
    3  A    between atoms: C_4  and  C_5
    4  A    between atoms: C_4  and  N_23
    5  A    between atoms: C_5  and  C_31
    6  A    between atoms: N_9  and  C_12
    7  A    between atoms: C_15  and  C_19
    8  A    between atoms: C_15  and  C_20
    9  A    between atoms: C_20  and  N_23
   10  A    between atoms: N_23  and  C_28
   11  A    between atoms: C_25  and  C_28
                            x       y       z     vdW  Elec       q    Type
                         _______ _______ _______ _____ _____    ______ ____

>  <TORSDO>
F 11

$$$$
=
 OpenBabel11062422253D

 36 40  0  0  1  0  0  0  0  0999 V2000
  190.9560  176.1780  142.5270 N   0  0  0  0  0  2  0  0  0  0  0  0
  191.7390  175.0330  142.7390 N   0  0  0  0  0  2  0  0  0  0  0  0
  189.5770  175.7250  142.4390 C   0  0  2  0  0  3  0  0  0  0  0  0
  189.5510  174.1790  141.5000 S   0  0  0  0  0  0  0  0  0  0  0  0
  191.3440  174.0650  141.7300 C   0  0  2  0  0  3  0  0  0  0  0  0
  186.7690  178.2360  142.1340 C   0  0  2  0  0  3  0  0  0  0  0  0
  186.0370  178.3680  143.4220 C   0  0  0  0  0  0  0  0  0  0  0  0
  184.8010  178.3160  145.9180 C   0  0  0  0  0  0  0  0  0  0  0  0
  188.7720  176.7330  141.7560 N   0  0  1  0  0  0  0  0  0  0  0  0
  187.1180  176.2450  143.7060 C   0  0  0  0  0  2  0  0  0  0  0  0
  185.8500  178.1130  141.0880 O   0  0  0  0  0  1  0  0  0  0  0  0
  186.2230  177.2840  144.2720 C   0  0  0  0  0  0  0  0  0  0  0  0
  184.6130  179.4130  145.0610 C   0  0  0  0  0  3  0  0  0  0  0  0
  185.6130  177.2410  145.5260 C   0  0  0  0  0  3  0  0  0  0  0  0
  187.6200  176.0850  141.3130 O   0  0  0  0  0  0  0  0  0  0  0  0
  184.1840  178.2960  147.1610 O   0  0  0  0  0  1  0  0  0  0  0  0
  187.4760  176.9100  142.3780 C   0  0  1  0  0  0  0  0  0  0  0  0
  185.2330  179.4440  143.8030 C   0  0  0  0  0  3  0  0  0  0  0  0
  191.7270  172.6690  142.1880 C   0  0  0  0  0  2  0  0  0  0  0  0
  191.8880  172.6450  143.6380 N   0  0  0  0  0  0  0  0  0  0  0  0
  190.8620  171.7830  144.2420 C   0  0  0  0  0  2  0  0  0  0  0  0
  189.6960  172.5470  144.8820 C   0  0  0  0  0  2  0  0  0  0  0  0
  189.3460  174.1900  146.5800 O   0  0  0  0  0  1  0  0  0  0  0  0
  190.1700  173.8470  145.5090 C   0  0  0  0  0  2  0  0  0  0  0  0
  193.2180  172.1380  143.9440 C   0  0  0  0  0  2  0  0  0  0  0  0
  194.0470  172.0940  142.6760 C   0  0  0  0  0  2  0  0  0  0  0  0
  195.5140  172.2100  143.0290 C   0  0  0  0  0  2  0  0  0  0  0  0
  195.6490  172.7310  144.4540 C   0  0  0  0  0  2  0  0  0  0  0  0
  197.1790  174.1660  145.5480 O   0  0  0  0  0  1  0  0  0  0  0  0
  196.4130  176.7930  143.5060 N   0  0  0  0  0  0  0  0  0  0  0  0
  196.2330  174.1440  144.5180 C   0  0  1  0  0  0  0  0  0  0  0  0
  196.9590  174.4620  143.2020 C   0  0  0  0  0  2  0  0  0  0  0  0
  195.1140  175.5860  146.1520 O   0  0  0  0  0  1  0  0  0  0  0  0
  195.0960  175.1660  144.8200 C   0  0  1  0  0  3  0  0  0  0  0  0
  195.0750  176.3870  143.8860 C   0  0  0  0  0  2  0  0  0  0  0  0
  197.2990  175.9240  143.1640 C   0  0  0  0  0  3  0  0  0  0  0  0
  1  2  1  0  0  0  0
  3  4  1  6  0  0  0
  3  1  1  0  0  0  0
  4  5  1  0  0  0  0
  5 19  1  1  0  0  0
  5  2  1  0  0  0  0
  6 11  1  6  0  0  0
  6 17  1  0  0  0  0
  6  7  1  0  0  0  0
  7 18  2  0  0  0  0
  7 12  1  0  0  0  0
  8 16  1  0  0  0  0
  9 15  1  6  0  0  0
  9 17  1  0  0  0  0
  9  3  1  0  0  0  0
 10 12  1  0  0  0  0
 12 14  2  0  0  0  0
 13  8  2  0  0  0  0
 14  8  1  0  0  0  0
 15 17  1  0  0  0  0
 17 10  1  1  0  0  0
 18 13  1  0  0  0  0
 19 20  1  0  0  0  0
 20 25  1  0  0  0  0
 20 21  1  0  0  0  0
 21 22  1  0  0  0  0
 22 24  1  0  0  0  0
 24 23  1  0  0  0  0
 26 27  1  0  0  0  0
 26 25  1  0  0  0  0
 27 28  1  0  0  0  0
 28 31  1  0  0  0  0
 30 35  1  0  0  0  0
 31 34  1  0  0  0  0
 31 29  1  1  0  0  0
 32 31  1  0  0  0  0
 34 33  1  1  0  0  0
 35 34  1  0  0  0  0
 36 32  1  0  0  0  0
 36 30  2  0  0  0  0
M  END
>  <MODEL>
7

>  <REMARK>
 VINA RESULT:      -6.2      2.587      5.505
  Name = 
  11 active torsions:
  status: ('A' for Active; 'I' for Inactive)
    1  A    between atoms: C_3  and  C_17
    2  A    between atoms: C_3  and  C_19
    3  A    between atoms: C_4  and  C_5
    4  A    between atoms: C_4  and  N_23
    5  A    between atoms: C_5  and  C_31
    6  A    between atoms: N_9  and  C_12
    7  A    between atoms: C_15  and  C_19
    8  A    between atoms: C_15  and  C_20
    9  A    between atoms: C_20  and  N_23
   10  A    between atoms: N_23  and  C_28
   11  A    between atoms: C_25  and  C_28
                            x       y       z     vdW  Elec       q    Type
                         _______ _______ _______ _____ _____    ______ ____

>  <TORSDO>
F 11

$$$$
=
 OpenBabel11062422253D

 36 40  0  0  1  0  0  0  0  0999 V2000
  190.8320  176.3830  142.7650 N   0  0  0  0  0  2  0  0  0  0  0  0
  191.7830  175.3700  142.9560 N   0  0  0  0  0  2  0  0  0  0  0  0
  189.5720  175.7180  142.4740 C   0  0  2  0  0  3  0  0  0  0  0  0
  189.9170  174.3080  141.3930 S   0  0  0  0  0  0  0  0  0  0  0  0
  191.6710  174.4720  141.8190 C   0  0  2  0  0  3  0  0  0  0  0  0
  186.6470  178.1010  142.2590 C   0  0  2  0  0  3  0  0  0  0  0  0
  186.0260  178.2950  143.5960 C   0  0  0  0  0  0  0  0  0  0  0  0
  185.0150  178.3710  146.1920 C   0  0  0  0  0  0  0  0  0  0  0  0
  188.6700  176.6470  141.8020 N   0  0  1  0  0  0  0  0  0  0  0  0
  187.2140  176.2360  143.9200 C   0  0  0  0  0  2  0  0  0  0  0  0
  185.6460  177.8740  141.3110 O   0  0  0  0  0  1  0  0  0  0  0  0
  186.3290  177.2790  144.4950 C   0  0  0  0  0  0  0  0  0  0  0  0
  184.7090  179.3990  145.2850 C   0  0  0  0  0  3  0  0  0  0  0  0
  185.8340  177.3010  145.7990 C   0  0  0  0  0  3  0  0  0  0  0  0
  187.5110  175.9310  141.5060 O   0  0  0  0  0  0  0  0  0  0  0  0
  184.5110  178.4140  147.4830 O   0  0  0  0  0  1  0  0  0  0  0  0
  187.4270  176.8200  142.5240 C   0  0  1  0  0  0  0  0  0  0  0  0
  185.2150  179.3660  143.9770 C   0  0  0  0  0  3  0  0  0  0  0  0
  192.2520  173.1170  142.1820 C   0  0  0  0  0  2  0  0  0  0  0  0
  191.2970  172.3630  142.9870 N   0  0  0  0  0  0  0  0  0  0  0  0
  191.1630  170.9980  142.4590 C   0  0  0  0  0  2  0  0  0  0  0  0
  191.8660  170.7720  141.1150 C   0  0  0  0  0  2  0  0  0  0  0  0
  190.0580  171.2020  139.6150 O   0  0  0  0  0  1  0  0  0  0  0  0
  190.9070  170.2010  140.0840 C   0  0  0  0  0  2  0  0  0  0  0  0
  191.7820  172.3290  144.3600 C   0  0  0  0  0  2  0  0  0  0  0  0
  193.0360  171.4820  144.4340 C   0  0  0  0  0  2  0  0  0  0  0  0
  193.9680  172.0520  145.4810 C   0  0  0  0  0  2  0  0  0  0  0  0
  193.7990  173.5640  145.5350 C   0  0  0  0  0  2  0  0  0  0  0  0
  195.1360  175.3640  146.2910 O   0  0  0  0  0  1  0  0  0  0  0  0
  197.6590  174.6050  144.1190 N   0  0  0  0  0  0  0  0  0  0  0  0
  195.1200  174.3180  145.3630 C   0  0  1  0  0  0  0  0  0  0  0  0
  196.2940  173.3810  145.6890 C   0  0  0  0  0  2  0  0  0  0  0  0
  194.9480  176.2600  143.8800 O   0  0  0  0  0  1  0  0  0  0  0  0
  195.2120  174.8890  143.9160 C   0  0  1  0  0  3  0  0  0  0  0  0
  196.5390  174.5920  143.1990 C   0  0  0  0  0  2  0  0  0  0  0  0
  197.5800  174.0330  145.2700 C   0  0  0  0  0  3  0  0  0  0  0  0
  1  2  1  0  0  0  0
  3  4  1  6  0  0  0
  3  1  1  0  0  0  0
  4  5  1  0  0  0  0
  5 19  1  1  0  0  0
  5  2  1  0  0  0  0
  6 11  1  6  0  0  0
  6 17  1  0  0  0  0
  6  7  1  0  0  0  0
  7 18  2  0  0  0  0
  7 12  1  0  0  0  0
  8 16  1  0  0  0  0
  9 15  1  6  0  0  0
  9  3  1  0  0  0  0
  9 17  1  0  0  0  0
 10 12  1  0  0  0  0
 12 14  2  0  0  0  0
 13  8  2  0  0  0  0
 14  8  1  0  0  0  0
 15 17  1  0  0  0  0
 17 10  1  1  0  0  0
 18 13  1  0  0  0  0
 19 20  1  0  0  0  0
 20 25  1  0  0  0  0
 21 20  1  0  0  0  0
 22 21  1  0  0  0  0
 23 24  1  0  0  0  0
 24 22  1  0  0  0  0
 25 26  1  0  0  0  0
 26 27  1  0  0  0  0
 27 28  1  0  0  0  0
 30 36  2  0  0  0  0
 31 28  1  0  0  0  0
 31 32  1  0  0  0  0
 31 29  1  1  0  0  0
 34 33  1  1  0  0  0
 34 31  1  0  0  0  0
 35 34  1  0  0  0  0
 35 30  1  0  0  0  0
 36 32  1  0  0  0  0
M  END
>  <MODEL>
8

>  <REMARK>
 VINA RESULT:      -6.1      2.524      5.645
  Name = 
  11 active torsions:
  status: ('A' for Active; 'I' for Inactive)
    1  A    between atoms: C_3  and  C_17
    2  A    between atoms: C_3  and  C_19
    3  A    between atoms: C_4  and  C_5
    4  A    between atoms: C_4  and  N_23
    5  A    between atoms: C_5  and  C_31
    6  A    between atoms: N_9  and  C_12
    7  A    between atoms: C_15  and  C_19
    8  A    between atoms: C_15  and  C_20
    9  A    between atoms: C_20  and  N_23
   10  A    between atoms: N_23  and  C_28
   11  A    between atoms: C_25  and  C_28
                            x       y       z     vdW  Elec       q    Type
                         _______ _______ _______ _____ _____    ______ ____

>  <TORSDO>
F 11

$$$$
=
 OpenBabel11062422253D

 36 40  0  0  1  0  0  0  0  0999 V2000
  193.5830  176.1330  142.8310 N   0  0  0  0  0  2  0  0  0  0  0  0
  192.2800  176.5960  142.6010 N   0  0  0  0  0  2  0  0  0  0  0  0
  193.5530  175.4260  144.1020 C   0  0  2  0  0  3  0  0  0  0  0  0
  192.4930  176.3560  145.2360 S   0  0  0  0  0  0  0  0  0  0  0  0
  191.8590  177.2780  143.8120 C   0  0  2  0  0  3  0  0  0  0  0  0
  196.5370  173.6440  145.5850 C   0  0  2  0  0  3  0  0  0  0  0  0
  196.3010  172.1770  145.6410 C   0  0  0  0  0  0  0  0  0  0  0  0
  195.5290  169.5010  145.7170 C   0  0  0  0  0  0  0  0  0  0  0  0
  194.9030  175.3370  144.6470 N   0  0  1  0  0  0  0  0  0  0  0  0
  194.0590  173.0120  145.4550 C   0  0  0  0  0  2  0  0  0  0  0  0
  197.0570  174.0780  146.8080 O   0  0  0  0  0  1  0  0  0  0  0  0
  194.9560  171.8350  145.5770 C   0  0  0  0  0  0  0  0  0  0  0  0
  196.8900  169.8450  145.7810 C   0  0  0  0  0  3  0  0  0  0  0  0
  194.5500  170.5000  145.6120 C   0  0  0  0  0  3  0  0  0  0  0  0
  194.7680  175.2850  146.0340 O   0  0  0  0  0  0  0  0  0  0  0  0
  195.1510  168.1670  145.7550 O   0  0  0  0  0  1  0  0  0  0  0  0
  195.1030  174.1270  145.4170 C   0  0  1  0  0  0  0  0  0  0  0  0
  197.2840  171.1910  145.7430 C   0  0  0  0  0  3  0  0  0  0  0  0
  190.3420  177.3400  143.8590 C   0  0  0  0  0  2  0  0  0  0  0  0
  189.7720  176.2270  143.1070 N   0  0  0  0  0  0  0  0  0  0  0  0
  189.0790  175.3080  144.0200 C   0  0  0  0  0  2  0  0  0  0  0  0
  189.8070  173.9770  144.2460 C   0  0  0  0  0  2  0  0  0  0  0  0
  190.2680  171.8320  143.3020 O   0  0  0  0  0  1  0  0  0  0  0  0
  189.5330  173.0020  143.1140 C   0  0  0  0  0  2  0  0  0  0  0  0
  188.8400  176.7660  142.1270 C   0  0  0  0  0  2  0  0  0  0  0  0
  188.4010  178.1520  142.5540 C   0  0  0  0  0  2  0  0  0  0  0  0
  186.8950  178.1810  142.6980 C   0  0  0  0  0  2  0  0  0  0  0  0
  186.5230  179.0070  143.9220 C   0  0  0  0  0  2  0  0  0  0  0  0
  185.3450  177.0630  144.5800 O   0  0  0  0  0  1  0  0  0  0  0  0
  185.9840  177.6090  147.8900 N   0  0  0  0  0  0  0  0  0  0  0  0
  186.0560  178.1490  145.1000 C   0  0  1  0  0  0  0  0  0  0  0  0
  187.2780  177.5970  145.8520 C   0  0  0  0  0  2  0  0  0  0  0  0
  183.7840  178.6770  145.8480 O   0  0  0  0  0  1  0  0  0  0  0  0
  185.1320  178.9940  146.0280 C   0  0  1  0  0  3  0  0  0  0  0  0
  185.4940  178.9220  147.5210 C   0  0  0  0  0  2  0  0  0  0  0  0
  186.8280  176.9820  147.1460 C   0  0  0  0  0  3  0  0  0  0  0  0
  2  1  1  0  0  0  0
  2  5  1  0  0  0  0
  3  1  1  6  0  0  0
  3  9  1  0  0  0  0
  3  4  1  0  0  0  0
  5 19  1  1  0  0  0
  5  4  1  0  0  0  0
  6  7  1  0  0  0  0
  6 11  1  1  0  0  0
  7 18  1  0  0  0  0
  8 16  1  0  0  0  0
  8 13  1  0  0  0  0
  9 17  1  0  0  0  0
  9 15  1  1  0  0  0
 10 12  1  0  0  0  0
 12 14  1  0  0  0  0
 12  7  2  0  0  0  0
 14  8  2  0  0  0  0
 17 10  1  6  0  0  0
 17  6  1  0  0  0  0
 17 15  1  0  0  0  0
 18 13  2  0  0  0  0
 20 19  1  0  0  0  0
 20 21  1  0  0  0  0
 21 22  1  0  0  0  0
 24 23  1  0  0  0  0
 24 22  1  0  0  0  0
 25 26  1  0  0  0  0
 25 20  1  0  0  0  0
 26 27  1  0  0  0  0
 27 28  1  0  0  0  0
 28 31  1  0  0  0  0
 31 29  1  6  0  0  0
 31 32  1  0  0  0  0
 31 34  1  0  0  0  0
 32 36  1  0  0  0  0
 34 33  1  1  0  0  0
 34 35  1  0  0  0  0
 35 30  1  0  0  0  0
 36 30  2  0  0  0  0
M  END
>  <MODEL>
9

>  <REMARK>
 VINA RESULT:      -6.1      2.991      8.546
  Name = 
  11 active torsions:
  status: ('A' for Active; 'I' for Inactive)
    1  A    between atoms: C_3  and  C_17
    2  A    between atoms: C_3  and  C_19
    3  A    between atoms: C_4  and  C_5
    4  A    between atoms: C_4  and  N_23
    5  A    between atoms: C_5  and  C_31
    6  A    between atoms: N_9  and  C_12
    7  A    between atoms: C_15  and  C_19
    8  A    between atoms: C_15  and  C_20
    9  A    between atoms: C_20  and  N_23
   10  A    between atoms: N_23  and  C_28
   11  A    between atoms: C_25  and  C_28
                            x       y       z     vdW  Elec       q    Type
                         _______ _______ _______ _____ _____    ______ ____

>  <TORSDO>
F 11

$$$$
