=
 OpenBabel11062422083D

 27 31  0  0  1  0  0  0  0  0999 V2000
  190.7170  175.3910  145.8740 C   0  0  1  0  0  3  0  0  0  0  0  0
  189.4160  177.0000  147.0190 N   0  0  0  0  0  0  0  0  0  0  0  0
  191.6570  176.6720  144.1130 C   0  0  1  0  0  3  0  0  0  0  0  0
  190.5940  176.4260  145.1130 C   0  0  2  0  0  3  0  0  0  0  0  0
  192.1920  174.4350  145.6330 S   0  0  0  0  0  0  0  0  0  0  0  0
  192.8130  175.7390  144.4960 C   0  0  2  0  0  3  0  0  0  0  0  0
  190.0320  175.6690  147.1700 C   0  0  0  0  0  2  0  0  0  0  0  0
  189.8340  177.4300  145.7480 N   0  0  0  0  0  2  0  0  0  0  0  0
  191.1360  176.3290  142.7260 C   0  0  0  0  0  2  0  0  0  0  0  0
  189.6700  175.9230  142.7740 C   0  0  1  0  0  3  0  0  0  0  0  0
  188.8230  177.0460  142.4140 N   0  0  0  0  0  0  0  0  0  0  0  0
  187.9450  175.4750  140.8790 C   0  0  0  0  0  2  0  0  0  0  0  0
  187.0740  177.8680  141.0660 N   0  0  0  0  0  2  0  0  0  0  0  0
  189.3690  174.5850  141.5760 S   0  0  0  0  0  0  0  0  0  0  0  0
  187.9630  176.8310  141.4830 C   0  0  0  0  0  0  0  0  0  0  0  0
  186.0880  177.6710  140.0160 C   0  0  0  0  0  2  0  0  0  0  0  0
  184.7420  178.2070  140.4640 C   0  0  0  0  0  2  0  0  0  0  0  0
  184.7640  178.4580  141.8360 O   0  0  0  0  0  1  0  0  0  0  0  0
  193.9110  176.5480  145.1710 C   0  0  0  0  0  2  0  0  0  0  0  0
  194.4990  175.7880  146.3490 C   0  0  0  0  0  2  0  0  0  0  0  0
  195.6510  175.1050  145.9580 O   0  0  0  0  0  1  0  0  0  0  0  0
  187.9750  176.8080  146.9500 C   0  0  0  0  0  2  0  0  0  0  0  0
  187.4100  177.5490  145.7490 C   0  0  2  0  0  3  0  0  0  0  0  0
  186.1040  178.2160  146.1210 C   0  0  1  0  0  0  0  0  0  0  0  0
  186.1040  176.9190  145.3160 C   0  0  2  0  0  3  0  0  0  0  0  0
  184.9740  177.2220  146.2740 C   0  0  0  0  0  2  0  0  0  0  0  0
  185.7760  179.2420  145.2380 O   0  0  0  0  0  1  0  0  0  0  0  0
  1  7  1  1  0  0  0
  2  7  1  0  0  0  0
  3  9  1  6  0  0  0
  3  6  1  0  0  0  0
  3  4  1  0  0  0  0
  4  8  1  1  0  0  0
  4  1  1  0  0  0  0
  5  1  1  0  0  0  0
  6 19  1  1  0  0  0
  6  5  1  0  0  0  0
  8  2  1  0  0  0  0
 10  9  1  6  0  0  0
 11 10  1  0  0  0  0
 12 15  1  0  0  0  0
 12 14  1  0  0  0  0
 13 15  1  0  0  0  0
 14 10  1  0  0  0  0
 15 11  2  0  0  0  0
 16 17  1  0  0  0  0
 16 13  1  0  0  0  0
 17 18  1  0  0  0  0
 19 20  1  0  0  0  0
 21 20  1  0  0  0  0
 22  2  1  0  0  0  0
 23 24  1  0  0  0  0
 23 22  1  1  0  0  0
 24 27  1  6  0  0  0
 24 26  1  0  0  0  0
 25 23  1  0  0  0  0
 25 24  1  0  0  0  0
 25 26  1  1  0  0  0
M  END
>  <MODEL>
1

>  <REMARK>
 VINA RESULT:      -6.3      0.000      0.000
  Name = 
  8 active torsions:
  status: ('A' for Active; 'I' for Inactive)
    1  A    between atoms: C_2  and  C_7
    2  A    between atoms: C_4  and  C_11
    3  A    between atoms: C_4  and  N_16
    4  A    between atoms: N_5  and  C_21
    5  A    between atoms: C_6  and  C_7
    6  A    between atoms: C_10  and  C_21
    7  A    between atoms: C_13  and  C_19
    8  A    between atoms: C_18  and  C_19
                            x       y       z     vdW  Elec       q    Type
                         _______ _______ _______ _____ _____    ______ ____

>  <TORSDO>
F 8

$$$$
=
 OpenBabel11062422083D

 27 31  0  0  1  0  0  0  0  0999 V2000
  190.3520  174.8300  142.0950 C   0  0  1  0  0  3  0  0  0  0  0  0
  188.0040  174.9320  141.8380 N   0  0  0  0  0  0  0  0  0  0  0  0
  190.5940  174.7860  144.4540 C   0  0  1  0  0  3  0  0  0  0  0  0
  189.8350  175.1440  143.2350 C   0  0  2  0  0  3  0  0  0  0  0  0
  191.8970  173.9590  142.1700 S   0  0  0  0  0  0  0  0  0  0  0  0
  191.6950  173.8240  143.9920 C   0  0  2  0  0  3  0  0  0  0  0  0
  189.2500  174.6150  141.1140 C   0  0  0  0  0  2  0  0  0  0  0  0
  188.4290  175.2100  143.1480 N   0  0  0  0  0  2  0  0  0  0  0  0
  191.2050  176.0420  145.0570 C   0  0  0  0  0  2  0  0  0  0  0  0
  190.4060  176.5200  146.2600 C   0  0  1  0  0  3  0  0  0  0  0  0
  189.2760  177.3240  145.8300 N   0  0  0  0  0  0  0  0  0  0  0  0
  188.0860  175.7910  147.1820 C   0  0  0  0  0  2  0  0  0  0  0  0
  186.9540  177.7100  145.9340 N   0  0  0  0  0  2  0  0  0  0  0  0
  189.7580  175.0800  147.1700 S   0  0  0  0  0  0  0  0  0  0  0  0
  188.1260  176.9740  146.2870 C   0  0  0  0  0  0  0  0  0  0  0  0
  185.6330  177.3500  146.4250 C   0  0  0  0  0  2  0  0  0  0  0  0
  184.9200  178.5850  146.9410 C   0  0  0  0  0  2  0  0  0  0  0  0
  185.8350  179.4360  147.5610 O   0  0  0  0  0  1  0  0  0  0  0  0
  191.3170  172.4010  144.3760 C   0  0  0  0  0  2  0  0  0  0  0  0
  189.8340  172.3000  144.6930 C   0  0  0  0  0  2  0  0  0  0  0  0
  189.1410  171.7720  143.6040 O   0  0  0  0  0  1  0  0  0  0  0  0
  187.4850  176.1750  141.2870 C   0  0  0  0  0  2  0  0  0  0  0  0
  186.8380  177.0000  142.3880 C   0  0  2  0  0  3  0  0  0  0  0  0
  185.4130  177.3380  142.0100 C   0  0  1  0  0  0  0  0  0  0  0  0
  186.5140  178.3870  141.8770 C   0  0  2  0  0  3  0  0  0  0  0  0
  185.3390  178.3890  140.9240 C   0  0  0  0  0  2  0  0  0  0  0  0
  184.6510  177.6870  143.1230 O   0  0  0  0  0  1  0  0  0  0  0  0
  1  7  1  1  0  0  0
  1  5  1  0  0  0  0
  1  4  1  0  0  0  0
  2  8  1  0  0  0  0
  3  9  1  6  0  0  0
  4  8  1  1  0  0  0
  4  3  1  0  0  0  0
  5  6  1  0  0  0  0
  6 19  1  6  0  0  0
  6  3  1  0  0  0  0
  7  2  1  0  0  0  0
 10  9  1  6  0  0  0
 10 14  1  0  0  0  0
 11 10  1  0  0  0  0
 11 15  2  0  0  0  0
 13 15  1  0  0  0  0
 13 16  1  0  0  0  0
 14 12  1  0  0  0  0
 15 12  1  0  0  0  0
 16 17  1  0  0  0  0
 17 18  1  0  0  0  0
 19 20  1  0  0  0  0
 21 20  1  0  0  0  0
 22  2  1  0  0  0  0
 23 22  1  6  0  0  0
 24 23  1  0  0  0  0
 24 27  1  1  0  0  0
 25 26  1  6  0  0  0
 25 24  1  0  0  0  0
 25 23  1  0  0  0  0
 26 24  1  0  0  0  0
M  END
>  <MODEL>
2

>  <REMARK>
 VINA RESULT:      -6.2      2.387      4.833
  Name = 
  8 active torsions:
  status: ('A' for Active; 'I' for Inactive)
    1  A    between atoms: C_2  and  C_7
    2  A    between atoms: C_4  and  C_11
    3  A    between atoms: C_4  and  N_16
    4  A    between atoms: N_5  and  C_21
    5  A    between atoms: C_6  and  C_7
    6  A    between atoms: C_10  and  C_21
    7  A    between atoms: C_13  and  C_19
    8  A    between atoms: C_18  and  C_19
                            x       y       z     vdW  Elec       q    Type
                         _______ _______ _______ _____ _____    ______ ____

>  <TORSDO>
F 8

$$$$
=
 OpenBabel11062422083D

 27 31  0  0  1  0  0  0  0  0999 V2000
  189.2430  175.9920  146.1640 C   0  0  1  0  0  3  0  0  0  0  0  0
  188.3650  177.4130  144.4900 N   0  0  0  0  0  0  0  0  0  0  0  0
  190.4640  174.4110  144.8860 C   0  0  1  0  0  3  0  0  0  0  0  0
  189.3730  175.4010  145.0240 C   0  0  2  0  0  3  0  0  0  0  0  0
  190.4460  175.5550  147.3940 S   0  0  0  0  0  0  0  0  0  0  0  0
  191.3630  174.6060  146.1130 C   0  0  2  0  0  3  0  0  0  0  0  0
  188.6440  177.3390  145.9370 C   0  0  0  0  0  2  0  0  0  0  0  0
  188.8750  176.2070  143.9800 N   0  0  0  0  0  2  0  0  0  0  0  0
  189.8760  173.0080  144.8760 C   0  0  0  0  0  2  0  0  0  0  0  0
  190.0250  172.3580  143.5080 C   0  0  1  0  0  3  0  0  0  0  0  0
  188.9180  172.7330  142.6470 N   0  0  0  0  0  0  0  0  0  0  0  0
  190.6790  173.3520  141.1950 C   0  0  0  0  0  2  0  0  0  0  0  0
  188.2160  173.6060  140.5740 N   0  0  0  0  0  2  0  0  0  0  0  0
  191.5660  172.9350  142.7260 S   0  0  0  0  0  0  0  0  0  0  0  0
  189.2320  173.2190  141.4990 C   0  0  0  0  0  0  0  0  0  0  0  0
  188.5240  174.1610  139.2670 C   0  0  0  0  0  2  0  0  0  0  0  0
  188.4090  173.0830  138.2070 C   0  0  0  0  0  2  0  0  0  0  0  0
  189.4420  173.2180  137.2790 O   0  0  0  0  0  1  0  0  0  0  0  0
  192.6220  175.3550  145.7030 C   0  0  0  0  0  2  0  0  0  0  0  0
  192.9920  176.4040  146.7380 C   0  0  0  0  0  2  0  0  0  0  0  0
  194.3420  176.7380  146.6290 O   0  0  0  0  0  1  0  0  0  0  0  0
  186.9200  177.3700  144.3220 C   0  0  0  0  0  2  0  0  0  0  0  0
  186.2500  178.2270  145.3840 C   0  0  2  0  0  3  0  0  0  0  0  0
  184.7470  178.1460  145.2390 C   0  0  1  0  0  0  0  0  0  0  0  0
  185.5030  179.3710  144.7330 C   0  0  2  0  0  3  0  0  0  0  0  0
  184.2420  178.9120  144.0360 C   0  0  0  0  0  2  0  0  0  0  0  0
  184.0920  178.5270  146.4080 O   0  0  0  0  0  1  0  0  0  0  0  0
  1  7  1  6  0  0  0
  1  5  1  0  0  0  0
  2  7  1  0  0  0  0
  3  9  1  1  0  0  0
  3  4  1  0  0  0  0
  3  6  1  0  0  0  0
  4  8  1  6  0  0  0
  4  1  1  0  0  0  0
  6 19  1  6  0  0  0
  6  5  1  0  0  0  0
  8  2  1  0  0  0  0
 10  9  1  1  0  0  0
 11 10  1  0  0  0  0
 12 15  1  0  0  0  0
 12 14  1  0  0  0  0
 13 15  1  0  0  0  0
 14 10  1  0  0  0  0
 15 11  2  0  0  0  0
 16 13  1  0  0  0  0
 17 16  1  0  0  0  0
 18 17  1  0  0  0  0
 19 20  1  0  0  0  0
 21 20  1  0  0  0  0
 22  2  1  0  0  0  0
 23 22  1  6  0  0  0
 24 23  1  0  0  0  0
 24 27  1  1  0  0  0
 25 26  1  6  0  0  0
 25 24  1  0  0  0  0
 25 23  1  0  0  0  0
 26 24  1  0  0  0  0
M  END
>  <MODEL>
3

>  <REMARK>
 VINA RESULT:      -6.2      2.871      3.481
  Name = 
  8 active torsions:
  status: ('A' for Active; 'I' for Inactive)
    1  A    between atoms: C_2  and  C_7
    2  A    between atoms: C_4  and  C_11
    3  A    between atoms: C_4  and  N_16
    4  A    between atoms: N_5  and  C_21
    5  A    between atoms: C_6  and  C_7
    6  A    between atoms: C_10  and  C_21
    7  A    between atoms: C_13  and  C_19
    8  A    between atoms: C_18  and  C_19
                            x       y       z     vdW  Elec       q    Type
                         _______ _______ _______ _____ _____    ______ ____

>  <TORSDO>
F 8

$$$$
=
 OpenBabel11062422083D

 27 31  0  0  1  0  0  0  0  0999 V2000
  188.8370  175.8810  145.9300 C   0  0  1  0  0  3  0  0  0  0  0  0
  188.2330  177.9630  144.9840 N   0  0  0  0  0  0  0  0  0  0  0  0
  190.7010  175.2530  144.6040 C   0  0  1  0  0  3  0  0  0  0  0  0
  189.4340  175.9960  144.7910 C   0  0  2  0  0  3  0  0  0  0  0  0
  189.6670  174.8740  147.1310 S   0  0  0  0  0  0  0  0  0  0  0  0
  191.1150  174.7760  146.0010 C   0  0  2  0  0  3  0  0  0  0  0  0
  188.0630  177.1290  146.1890 C   0  0  0  0  0  2  0  0  0  0  0  0
  189.1210  177.2280  144.1810 N   0  0  0  0  0  2  0  0  0  0  0  0
  190.4600  174.0650  143.6860 C   0  0  0  0  0  2  0  0  0  0  0  0
  191.0140  174.3240  142.2930 C   0  0  1  0  0  3  0  0  0  0  0  0
  191.9020  175.4730  142.3090 N   0  0  0  0  0  0  0  0  0  0  0  0
  193.3800  173.9370  141.2840 C   0  0  0  0  0  2  0  0  0  0  0  0
  194.0140  176.3630  141.7610 N   0  0  0  0  0  2  0  0  0  0  0  0
  191.9750  172.8780  141.7420 S   0  0  0  0  0  0  0  0  0  0  0  0
  193.0720  175.2920  141.8050 C   0  0  0  0  0  0  0  0  0  0  0  0
  195.3480  176.2040  141.2040 C   0  0  0  0  0  2  0  0  0  0  0  0
  196.3880  176.6010  142.2330 C   0  0  0  0  0  2  0  0  0  0  0  0
  196.3950  175.6800  143.2810 O   0  0  0  0  0  1  0  0  0  0  0  0
  192.2480  175.6490  146.5190 C   0  0  0  0  0  2  0  0  0  0  0  0
  193.4750  175.5290  145.6310 C   0  0  0  0  0  2  0  0  0  0  0  0
  193.9130  176.7930  145.2370 O   0  0  0  0  0  1  0  0  0  0  0  0
  186.9540  177.9920  144.2900 C   0  0  0  0  0  2  0  0  0  0  0  0
  185.9700  178.8620  145.0550 C   0  0  2  0  0  3  0  0  0  0  0  0
  184.5580  178.3680  144.8240 C   0  0  1  0  0  0  0  0  0  0  0  0
  185.0720  179.6030  144.0890 C   0  0  2  0  0  3  0  0  0  0  0  0
  184.0540  178.6950  143.4350 C   0  0  0  0  0  2  0  0  0  0  0  0
  183.6850  178.8180  145.8120 O   0  0  0  0  0  1  0  0  0  0  0  0
  1  7  1  1  0  0  0
  1  5  1  0  0  0  0
  2  7  1  0  0  0  0
  3  9  1  6  0  0  0
  3  4  1  0  0  0  0
  3  6  1  0  0  0  0
  4  8  1  1  0  0  0
  4  1  1  0  0  0  0
  6 19  1  1  0  0  0
  6  5  1  0  0  0  0
  8  2  1  0  0  0  0
 10 11  1  0  0  0  0
 10  9  1  1  0  0  0
 12 14  1  0  0  0  0
 12 15  1  0  0  0  0
 13 15  1  0  0  0  0
 14 10  1  0  0  0  0
 15 11  2  0  0  0  0
 16 13  1  0  0  0  0
 16 17  1  0  0  0  0
 17 18  1  0  0  0  0
 20 19  1  0  0  0  0
 21 20  1  0  0  0  0
 22  2  1  0  0  0  0
 23 22  1  6  0  0  0
 24 23  1  0  0  0  0
 24 27  1  1  0  0  0
 25 26  1  6  0  0  0
 25 24  1  0  0  0  0
 25 23  1  0  0  0  0
 26 24  1  0  0  0  0
M  END
>  <MODEL>
4

>  <REMARK>
 VINA RESULT:      -6.1      2.580      4.781
  Name = 
  8 active torsions:
  status: ('A' for Active; 'I' for Inactive)
    1  A    between atoms: C_2  and  C_7
    2  A    between atoms: C_4  and  C_11
    3  A    between atoms: C_4  and  N_16
    4  A    between atoms: N_5  and  C_21
    5  A    between atoms: C_6  and  C_7
    6  A    between atoms: C_10  and  C_21
    7  A    between atoms: C_13  and  C_19
    8  A    between atoms: C_18  and  C_19
                            x       y       z     vdW  Elec       q    Type
                         _______ _______ _______ _____ _____    ______ ____

>  <TORSDO>
F 8

$$$$
=
 OpenBabel11062422083D

 27 31  0  0  1  0  0  0  0  0999 V2000
  190.2180  175.5900  146.2910 C   0  0  1  0  0  3  0  0  0  0  0  0
  188.4410  177.0570  145.7610 N   0  0  0  0  0  0  0  0  0  0  0  0
  190.2280  174.1240  144.4260 C   0  0  1  0  0  3  0  0  0  0  0  0
  189.5300  175.0620  145.3350 C   0  0  2  0  0  3  0  0  0  0  0  0
  191.9330  175.1390  146.3390 S   0  0  0  0  0  0  0  0  0  0  0  0
  191.7230  174.2930  144.7200 C   0  0  2  0  0  3  0  0  0  0  0  0
  189.6320  176.9210  146.6210 C   0  0  0  0  0  2  0  0  0  0  0  0
  188.4580  175.8990  144.9650 N   0  0  0  0  0  2  0  0  0  0  0  0
  189.7840  172.7010  144.7310 C   0  0  0  0  0  2  0  0  0  0  0  0
  189.3310  171.9840  143.4670 C   0  0  1  0  0  3  0  0  0  0  0  0
  188.7240  172.9240  142.5420 N   0  0  0  0  0  0  0  0  0  0  0  0
  190.2990  171.9780  141.0530 C   0  0  0  0  0  2  0  0  0  0  0  0
  188.6530  173.8020  140.3560 N   0  0  0  0  0  2  0  0  0  0  0  0
  190.7740  171.2360  142.6430 S   0  0  0  0  0  0  0  0  0  0  0  0
  189.1920  172.9230  141.3450 C   0  0  0  0  0  0  0  0  0  0  0  0
  189.1520  173.8360  138.9920 C   0  0  0  0  0  2  0  0  0  0  0  0
  188.0710  174.3490  138.0590 C   0  0  0  0  0  2  0  0  0  0  0  0
  188.6100  174.5870  136.7940 O   0  0  0  0  0  1  0  0  0  0  0  0
  192.3670  175.1110  143.6100 C   0  0  0  0  0  2  0  0  0  0  0  0
  191.3200  175.6170  142.6320 C   0  0  0  0  0  2  0  0  0  0  0  0
  191.1560  176.9960  142.7690 O   0  0  0  0  0  1  0  0  0  0  0  0
  187.2710  176.9650  146.6220 C   0  0  0  0  0  2  0  0  0  0  0  0
  186.0290  176.7170  145.7810 C   0  0  2  0  0  3  0  0  0  0  0  0
  185.5370  178.0200  145.1910 C   0  0  1  0  0  0  0  0  0  0  0  0
  184.8350  177.4100  146.4010 C   0  0  2  0  0  3  0  0  0  0  0  0
  184.8860  178.9120  146.2260 C   0  0  0  0  0  2  0  0  0  0  0  0
  184.7080  177.8110  144.0910 O   0  0  0  0  0  1  0  0  0  0  0  0
  1  5  1  0  0  0  0
  1  7  1  6  0  0  0
  2  7  1  0  0  0  0
  2 22  1  0  0  0  0
  3  6  1  0  0  0  0
  3  9  1  1  0  0  0
  3  4  1  0  0  0  0
  4  8  1  6  0  0  0
  4  1  1  0  0  0  0
  6 19  1  6  0  0  0
  6  5  1  0  0  0  0
  8  2  1  0  0  0  0
 10  9  1  1  0  0  0
 11 10  1  0  0  0  0
 12 15  1  0  0  0  0
 12 14  1  0  0  0  0
 13 15  1  0  0  0  0
 14 10  1  0  0  0  0
 15 11  2  0  0  0  0
 16 13  1  0  0  0  0
 17 16  1  0  0  0  0
 18 17  1  0  0  0  0
 20 21  1  0  0  0  0
 20 19  1  0  0  0  0
 23 25  1  0  0  0  0
 23 22  1  1  0  0  0
 24 27  1  6  0  0  0
 24 23  1  0  0  0  0
 24 26  1  0  0  0  0
 24 25  1  0  0  0  0
 25 26  1  1  0  0  0
M  END
>  <MODEL>
5

>  <REMARK>
 VINA RESULT:      -6.0      2.944      3.540
  Name = 
  8 active torsions:
  status: ('A' for Active; 'I' for Inactive)
    1  A    between atoms: C_2  and  C_7
    2  A    between atoms: C_4  and  C_11
    3  A    between atoms: C_4  and  N_16
    4  A    between atoms: N_5  and  C_21
    5  A    between atoms: C_6  and  C_7
    6  A    between atoms: C_10  and  C_21
    7  A    between atoms: C_13  and  C_19
    8  A    between atoms: C_18  and  C_19
                            x       y       z     vdW  Elec       q    Type
                         _______ _______ _______ _____ _____    ______ ____

>  <TORSDO>
F 8

$$$$
=
 OpenBabel11062422083D

 27 31  0  0  1  0  0  0  0  0999 V2000
  191.5420  173.9650  142.5600 C   0  0  1  0  0  3  0  0  0  0  0  0
  193.1510  175.6520  142.1660 N   0  0  0  0  0  0  0  0  0  0  0  0
  189.5990  175.2330  143.0510 C   0  0  1  0  0  3  0  0  0  0  0  0
  191.0700  175.0820  143.0010 C   0  0  2  0  0  3  0  0  0  0  0  0
  190.3320  172.7810  142.0280 S   0  0  0  0  0  0  0  0  0  0  0  0
  189.0320  174.0640  142.2370 C   0  0  2  0  0  3  0  0  0  0  0  0
  192.8760  174.2200  141.9440 C   0  0  0  0  0  2  0  0  0  0  0  0
  191.9840  176.1340  142.7840 N   0  0  0  0  0  2  0  0  0  0  0  0
  189.1310  175.1500  144.4970 C   0  0  0  0  0  2  0  0  0  0  0  0
  188.9100  176.5370  145.0830 C   0  0  1  0  0  3  0  0  0  0  0  0
  188.2060  177.3800  144.1340 N   0  0  0  0  0  0  0  0  0  0  0  0
  186.7640  177.7010  145.9820 C   0  0  0  0  0  2  0  0  0  0  0  0
  186.3920  178.8270  143.7200 N   0  0  0  0  0  2  0  0  0  0  0  0
  187.8870  176.4060  146.5850 S   0  0  0  0  0  0  0  0  0  0  0  0
  187.1470  177.9650  144.5720 C   0  0  0  0  0  0  0  0  0  0  0  0
  185.1890  179.5070  144.1720 C   0  0  0  0  0  2  0  0  0  0  0  0
  183.9670  178.6770  143.8270 C   0  0  0  0  0  2  0  0  0  0  0  0
  184.1610  178.0320  142.6060 O   0  0  0  0  0  1  0  0  0  0  0  0
  188.5680  174.5710  140.8800 C   0  0  0  0  0  2  0  0  0  0  0  0
  189.0080  173.6310  139.7700 C   0  0  0  0  0  2  0  0  0  0  0  0
  187.9570  172.7910  139.4020 O   0  0  0  0  0  1  0  0  0  0  0  0
  194.2210  175.7430  143.1490 C   0  0  0  0  0  2  0  0  0  0  0  0
  193.7100  176.4250  144.4080 C   0  0  2  0  0  3  0  0  0  0  0  0
  194.8320  176.5560  145.4140 C   0  0  1  0  0  0  0  0  0  0  0  0
  193.7740  175.4690  145.5790 C   0  0  2  0  0  3  0  0  0  0  0  0
  195.1910  175.2320  146.0530 C   0  0  0  0  0  2  0  0  0  0  0  0
  194.5610  177.5350  146.3670 O   0  0  0  0  0  1  0  0  0  0  0  0
  1  7  1  6  0  0  0
  1  4  1  0  0  0  0
  2  8  1  0  0  0  0
  2 22  1  0  0  0  0
  3  9  1  1  0  0  0
  4  8  1  6  0  0  0
  4  3  1  0  0  0  0
  5  6  1  0  0  0  0
  5  1  1  0  0  0  0
  6 19  1  6  0  0  0
  6  3  1  0  0  0  0
  7  2  1  0  0  0  0
 10  9  1  6  0  0  0
 10 14  1  0  0  0  0
 11 15  2  0  0  0  0
 11 10  1  0  0  0  0
 12 14  1  0  0  0  0
 13 16  1  0  0  0  0
 13 15  1  0  0  0  0
 15 12  1  0  0  0  0
 17 16  1  0  0  0  0
 18 17  1  0  0  0  0
 20 19  1  0  0  0  0
 21 20  1  0  0  0  0
 23 22  1  6  0  0  0
 23 24  1  0  0  0  0
 23 25  1  0  0  0  0
 24 25  1  0  0  0  0
 24 26  1  0  0  0  0
 24 27  1  1  0  0  0
 25 26  1  6  0  0  0
M  END
>  <MODEL>
6

>  <REMARK>
 VINA RESULT:      -5.8      2.630      5.966
  Name = 
  8 active torsions:
  status: ('A' for Active; 'I' for Inactive)
    1  A    between atoms: C_2  and  C_7
    2  A    between atoms: C_4  and  C_11
    3  A    between atoms: C_4  and  N_16
    4  A    between atoms: N_5  and  C_21
    5  A    between atoms: C_6  and  C_7
    6  A    between atoms: C_10  and  C_21
    7  A    between atoms: C_13  and  C_19
    8  A    between atoms: C_18  and  C_19
                            x       y       z     vdW  Elec       q    Type
                         _______ _______ _______ _____ _____    ______ ____

>  <TORSDO>
F 8

$$$$
=
 OpenBabel11062422083D

 27 31  0  0  1  0  0  0  0  0999 V2000
  189.2550  175.5210  144.9770 C   0  0  1  0  0  3  0  0  0  0  0  0
  188.1090  177.5890  145.0320 N   0  0  0  0  0  0  0  0  0  0  0  0
  191.5190  176.1990  145.1780 C   0  0  1  0  0  3  0  0  0  0  0  0
  190.1160  176.4640  144.7880 C   0  0  2  0  0  3  0  0  0  0  0  0
  189.8900  174.0460  145.7320 S   0  0  0  0  0  0  0  0  0  0  0  0
  191.4830  174.9160  146.0180 C   0  0  2  0  0  3  0  0  0  0  0  0
  187.9150  176.1360  145.2000 C   0  0  0  0  0  2  0  0  0  0  0  0
  189.4920  177.7280  144.8220 N   0  0  0  0  0  2  0  0  0  0  0  0
  192.3610  175.9930  143.9280 C   0  0  0  0  0  2  0  0  0  0  0  0
  193.6720  175.2940  144.2570 C   0  0  1  0  0  3  0  0  0  0  0  0
  194.2350  174.6890  143.0630 N   0  0  0  0  0  0  0  0  0  0  0  0
  196.1380  175.9270  143.7270 C   0  0  0  0  0  2  0  0  0  0  0  0
  196.1060  174.4370  141.6530 N   0  0  0  0  0  2  0  0  0  0  0  0
  194.8690  176.5130  144.8880 S   0  0  0  0  0  0  0  0  0  0  0  0
  195.4560  174.9910  142.7970 C   0  0  0  0  0  0  0  0  0  0  0  0
  197.4840  174.7520  141.3130 C   0  0  0  0  0  2  0  0  0  0  0  0
  197.5210  175.6600  140.0980 C   0  0  0  0  0  2  0  0  0  0  0  0
  196.5130  175.2990  139.2050 O   0  0  0  0  0  1  0  0  0  0  0  0
  191.6340  175.2720  147.4890 C   0  0  0  0  0  2  0  0  0  0  0  0
  192.1250  176.7000  147.6560 C   0  0  0  0  0  2  0  0  0  0  0  0
  191.4670  177.3180  148.7190 O   0  0  0  0  0  1  0  0  0  0  0  0
  187.4490  177.9760  143.7940 C   0  0  0  0  0  2  0  0  0  0  0  0
  185.9630  177.6680  143.8820 C   0  0  2  0  0  3  0  0  0  0  0  0
  185.1640  178.8160  143.3060 C   0  0  1  0  0  0  0  0  0  0  0  0
  185.2840  178.6450  144.8180 C   0  0  2  0  0  3  0  0  0  0  0  0
  185.1570  180.0260  144.2150 C   0  0  0  0  0  2  0  0  0  0  0  0
  183.8740  178.4240  142.9540 O   0  0  0  0  0  1  0  0  0  0  0  0
  1  7  1  1  0  0  0
  1  5  1  0  0  0  0
  2  7  1  0  0  0  0
  3  9  1  6  0  0  0
  3  6  1  0  0  0  0
  4  8  1  1  0  0  0
  4  1  1  0  0  0  0
  4  3  1  0  0  0  0
  5  6  1  0  0  0  0
  6 19  1  1  0  0  0
  8  2  1  0  0  0  0
 10  9  1  6  0  0  0
 10 14  1  0  0  0  0
 11 10  1  0  0  0  0
 12 14  1  0  0  0  0
 13 15  1  0  0  0  0
 15 11  2  0  0  0  0
 15 12  1  0  0  0  0
 16 13  1  0  0  0  0
 17 16  1  0  0  0  0
 18 17  1  0  0  0  0
 19 20  1  0  0  0  0
 20 21  1  0  0  0  0
 22  2  1  0  0  0  0
 23 22  1  6  0  0  0
 23 25  1  0  0  0  0
 24 27  1  6  0  0  0
 24 23  1  0  0  0  0
 24 26  1  0  0  0  0
 24 25  1  0  0  0  0
 25 26  1  6  0  0  0
M  END
>  <MODEL>
7

>  <REMARK>
 VINA RESULT:      -5.8      3.476      5.869
  Name = 
  8 active torsions:
  status: ('A' for Active; 'I' for Inactive)
    1  A    between atoms: C_2  and  C_7
    2  A    between atoms: C_4  and  C_11
    3  A    between atoms: C_4  and  N_16
    4  A    between atoms: N_5  and  C_21
    5  A    between atoms: C_6  and  C_7
    6  A    between atoms: C_10  and  C_21
    7  A    between atoms: C_13  and  C_19
    8  A    between atoms: C_18  and  C_19
                            x       y       z     vdW  Elec       q    Type
                         _______ _______ _______ _____ _____    ______ ____

>  <TORSDO>
F 8

$$$$
=
 OpenBabel11062422083D

 27 31  0  0  1  0  0  0  0  0999 V2000
  188.1700  175.8650  146.6890 C   0  0  1  0  0  3  0  0  0  0  0  0
  186.7080  177.5920  147.3760 N   0  0  0  0  0  0  0  0  0  0  0  0
  190.1670  177.0570  146.2240 C   0  0  1  0  0  3  0  0  0  0  0  0
  188.6930  176.9950  146.3500 C   0  0  2  0  0  3  0  0  0  0  0  0
  189.3210  174.5520  147.0030 S   0  0  0  0  0  0  0  0  0  0  0  0
  190.6950  175.7650  146.8600 C   0  0  2  0  0  3  0  0  0  0  0  0
  186.8930  176.1290  147.4140 C   0  0  0  0  0  2  0  0  0  0  0  0
  187.8700  178.0690  146.7450 N   0  0  0  0  0  2  0  0  0  0  0  0
  190.5460  177.1180  144.7520 C   0  0  0  0  0  2  0  0  0  0  0  0
  191.1700  175.8090  144.2910 C   0  0  1  0  0  3  0  0  0  0  0  0
  190.2500  175.0860  143.4300 N   0  0  0  0  0  0  0  0  0  0  0  0
  192.1210  175.0760  141.9830 C   0  0  0  0  0  2  0  0  0  0  0  0
  189.8940  173.9850  141.3770 N   0  0  0  0  0  2  0  0  0  0  0  0
  192.6800  176.1590  143.3320 S   0  0  0  0  0  0  0  0  0  0  0  0
  190.7150  174.7140  142.2900 C   0  0  0  0  0  0  0  0  0  0  0  0
  190.3760  173.5470  140.0780 C   0  0  0  0  0  2  0  0  0  0  0  0
  189.2510  173.6090  139.0620 C   0  0  0  0  0  2  0  0  0  0  0  0
  188.1490  172.8940  139.5310 O   0  0  0  0  0  1  0  0  0  0  0  0
  191.2680  176.0770  148.2350 C   0  0  0  0  0  2  0  0  0  0  0  0
  191.4310  177.5750  148.4280 C   0  0  0  0  0  2  0  0  0  0  0  0
  191.5900  177.8740  149.7810 O   0  0  0  0  0  1  0  0  0  0  0  0
  185.5940  177.8670  146.4810 C   0  0  0  0  0  2  0  0  0  0  0  0
  186.0930  178.5970  145.2440 C   0  0  2  0  0  3  0  0  0  0  0  0
  185.0310  179.5540  144.7470 C   0  0  1  0  0  0  0  0  0  0  0  0
  185.2530  178.2180  144.0430 C   0  0  2  0  0  3  0  0  0  0  0  0
  183.8740  178.8380  144.0860 C   0  0  0  0  0  2  0  0  0  0  0  0
  185.5690  180.5410  143.9240 O   0  0  0  0  0  1  0  0  0  0  0  0
  1  5  1  0  0  0  0
  1  7  1  1  0  0  0
  2  7  1  0  0  0  0
  3  9  1  6  0  0  0
  3  4  1  0  0  0  0
  3  6  1  0  0  0  0
  4  1  1  0  0  0  0
  4  8  1  1  0  0  0
  6  5  1  0  0  0  0
  6 19  1  1  0  0  0
  8  2  1  0  0  0  0
 10  9  1  6  0  0  0
 11 10  1  0  0  0  0
 12 15  1  0  0  0  0
 12 14  1  0  0  0  0
 13 15  1  0  0  0  0
 14 10  1  0  0  0  0
 15 11  2  0  0  0  0
 16 13  1  0  0  0  0
 17 18  1  0  0  0  0
 17 16  1  0  0  0  0
 19 20  1  0  0  0  0
 20 21  1  0  0  0  0
 22  2  1  0  0  0  0
 23 22  1  1  0  0  0
 24 27  1  6  0  0  0
 24 23  1  0  0  0  0
 25 26  1  1  0  0  0
 25 24  1  0  0  0  0
 25 23  1  0  0  0  0
 26 24  1  0  0  0  0
M  END
>  <MODEL>
8

>  <REMARK>
 VINA RESULT:      -5.7      2.779      3.755
  Name = 
  8 active torsions:
  status: ('A' for Active; 'I' for Inactive)
    1  A    between atoms: C_2  and  C_7
    2  A    between atoms: C_4  and  C_11
    3  A    between atoms: C_4  and  N_16
    4  A    between atoms: N_5  and  C_21
    5  A    between atoms: C_6  and  C_7
    6  A    between atoms: C_10  and  C_21
    7  A    between atoms: C_13  and  C_19
    8  A    between atoms: C_18  and  C_19
                            x       y       z     vdW  Elec       q    Type
                         _______ _______ _______ _____ _____    ______ ____

>  <TORSDO>
F 8

$$$$
=
 OpenBabel11062422083D

 27 31  0  0  1  0  0  0  0  0999 V2000
  190.7070  173.1290  142.7730 C   0  0  1  0  0  3  0  0  0  0  0  0
  192.4510  174.5650  143.4690 N   0  0  0  0  0  0  0  0  0  0  0  0
  189.2560  174.6210  141.6340 C   0  0  1  0  0  3  0  0  0  0  0  0
  190.3000  174.3470  142.6480 C   0  0  2  0  0  3  0  0  0  0  0  0
  189.9740  171.9590  141.6580 S   0  0  0  0  0  0  0  0  0  0  0  0
  189.1710  173.3560  140.7710 C   0  0  2  0  0  3  0  0  0  0  0  0
  192.1180  173.1440  143.2530 C   0  0  0  0  0  2  0  0  0  0  0  0
  191.3050  175.2560  143.0390 N   0  0  0  0  0  2  0  0  0  0  0  0
  187.9290  174.8770  142.3330 C   0  0  0  0  0  2  0  0  0  0  0  0
  187.2810  176.1590  141.8280 C   0  0  1  0  0  3  0  0  0  0  0  0
  186.0190  176.3890  142.5090 N   0  0  0  0  0  0  0  0  0  0  0  0
  187.0050  178.4960  142.9350 C   0  0  0  0  0  2  0  0  0  0  0  0
  184.6610  177.8740  143.7350 N   0  0  0  0  0  2  0  0  0  0  0  0
  188.3760  177.5720  142.1800 S   0  0  0  0  0  0  0  0  0  0  0  0
  185.8720  177.5450  143.0530 C   0  0  0  0  0  0  0  0  0  0  0  0
  184.4510  179.1660  144.3660 C   0  0  0  0  0  2  0  0  0  0  0  0
  184.4750  179.0150  145.8750 C   0  0  0  0  0  2  0  0  0  0  0  0
  184.3630  177.6670  146.2170 O   0  0  0  0  0  1  0  0  0  0  0  0
  189.8660  173.6050  139.4410 C   0  0  0  0  0  2  0  0  0  0  0  0
  188.8740  173.5530  138.2920 C   0  0  0  0  0  2  0  0  0  0  0  0
  187.9150  174.5560  138.4330 O   0  0  0  0  0  1  0  0  0  0  0  0
  192.5590  174.7740  144.9050 C   0  0  0  0  0  2  0  0  0  0  0  0
  193.4040  176.0060  145.1870 C   0  0  2  0  0  3  0  0  0  0  0  0
  194.8420  175.7460  144.7950 C   0  0  1  0  0  0  0  0  0  0  0  0
  194.4250  175.7010  146.2620 C   0  0  2  0  0  3  0  0  0  0  0  0
  195.5430  174.8150  145.7600 C   0  0  0  0  0  2  0  0  0  0  0  0
  195.5500  176.9310  144.6090 O   0  0  0  0  0  1  0  0  0  0  0  0
  1  7  1  6  0  0  0
  2 22  1  0  0  0  0
  3  9  1  1  0  0  0
  3  4  1  0  0  0  0
  4  1  1  0  0  0  0
  4  8  1  6  0  0  0
  5  1  1  0  0  0  0
  6 19  1  6  0  0  0
  6  3  1  0  0  0  0
  6  5  1  0  0  0  0
  7  2  1  0  0  0  0
  8  2  1  0  0  0  0
 10 14  1  0  0  0  0
 10  9  1  1  0  0  0
 10 11  1  0  0  0  0
 11 15  2  0  0  0  0
 12 15  1  0  0  0  0
 13 16  1  0  0  0  0
 14 12  1  0  0  0  0
 15 13  1  0  0  0  0
 16 17  1  0  0  0  0
 17 18  1  0  0  0  0
 20 21  1  0  0  0  0
 20 19  1  0  0  0  0
 23 22  1  6  0  0  0
 23 25  1  0  0  0  0
 24 27  1  6  0  0  0
 24 23  1  0  0  0  0
 24 26  1  0  0  0  0
 24 25  1  0  0  0  0
 25 26  1  6  0  0  0
M  END
>  <MODEL>
9

>  <REMARK>
 VINA RESULT:      -5.7      2.792      6.189
  Name = 
  8 active torsions:
  status: ('A' for Active; 'I' for Inactive)
    1  A    between atoms: C_2  and  C_7
    2  A    between atoms: C_4  and  C_11
    3  A    between atoms: C_4  and  N_16
    4  A    between atoms: N_5  and  C_21
    5  A    between atoms: C_6  and  C_7
    6  A    between atoms: C_10  and  C_21
    7  A    between atoms: C_13  and  C_19
    8  A    between atoms: C_18  and  C_19
                            x       y       z     vdW  Elec       q    Type
                         _______ _______ _______ _____ _____    ______ ____

>  <TORSDO>
F 8

$$$$
