=
 OpenBabel11072409363D

 63 67  0  0  1  0  0  0  0  0999 V2000
  187.6070  176.3620  146.2840 O   0  0  0  0  0  0  0  0  0  0  0  0
  189.1110  170.8630  138.2790 O   0  0  0  0  0  0  0  0  0  0  0  0
  195.3840  171.9190  140.5300 C   0  0  2  0  0  3  0  0  0  0  0  0
  186.4610  177.5300  140.2470 C   0  0  0  0  0  0  0  0  0  0  0  0
  193.7850  172.6440  142.3100 C   0  0  0  0  0  2  0  0  0  0  0  0
  187.4700  175.0960  141.1900 C   0  0  0  0  0  3  0  0  0  0  0  0
  195.2130  170.8210  139.6640 O   0  0  0  0  0  0  0  0  0  0  0  0
  190.9610  177.6130  143.8690 C   0  0  0  0  0  2  0  0  0  0  0  0
  185.9630  178.7370  139.7760 O   0  0  0  0  0  1  0  0  0  0  0  0
  193.9150  170.9390  139.1350 C   0  0  2  0  0  3  0  0  0  0  0  0
  187.4260  175.3440  139.8090 C   0  0  0  0  0  0  0  0  0  0  0  0
  186.9970  176.0580  142.0930 C   0  0  0  0  0  0  0  0  0  0  0  0
  189.8860  176.8290  145.9500 N   0  0  0  0  0  0  0  0  0  0  0  0
  190.3730  170.9380  138.8920 C   0  0  0  0  0  2  0  0  0  0  0  0
  188.6980  172.1700  137.9280 C   0  0  1  0  0  3  0  0  0  0  0  0
  186.4980  177.2760  141.6180 C   0  0  0  0  0  3  0  0  0  0  0  0
  192.4550  173.3250  142.6180 C   0  0  0  0  0  2  0  0  0  0  0  0
  191.2340  175.4100  144.5050 C   0  0  0  0  0  0  0  0  0  0  0  0
  194.0360  172.5600  140.8130 C   0  0  2  0  0  3  0  0  0  0  0  0
  193.0650  171.6330  140.1620 C   0  0  0  0  0  2  0  0  0  0  0  0
  187.8760  174.3810  138.8450 N   0  0  0  0  0  2  0  0  0  0  0  0
  192.6260  175.1490  141.0930 O   0  0  0  0  0  1  0  0  0  0  0  0
  188.5650  176.4760  145.4710 C   0  0  0  0  0  0  0  0  0  0  0  0
  192.5330  174.8390  142.4510 C   0  0  1  0  0  3  0  0  0  0  0  0
  188.3370  176.2470  144.0770 N   0  0  0  0  0  2  0  0  0  0  0  0
  186.9230  176.5670  139.3470 C   0  0  0  0  0  3  0  0  0  0  0  0
  193.3390  169.5640  138.7560 C   0  0  1  0  0  3  0  0  0  0  0  0
  188.3240  173.0420  139.0990 C   0  0  0  0  0  0  0  0  0  0  0  0
  191.2680  176.8720  142.6980 O   0  0  0  0  0  0  0  0  0  0  0  0
  191.0820  176.7340  145.0990 C   0  0  1  0  0  3  0  0  0  0  0  0
  191.2800  175.4970  143.0300 C   0  0  2  0  0  3  0  0  0  0  0  0
  191.2790  174.3710  145.1460 O   0  0  0  0  0  0  0  0  0  0  0  0
  188.3500  172.5810  140.2720 O   0  0  0  0  0  0  0  0  0  0  0  0
  191.9750  169.6520  138.0540 C   0  0  0  0  0  2  0  0  0  0  0  0
  187.0520  175.8120  143.5590 C   0  0  0  0  0  2  0  0  0  0  0  0
  190.9370  169.6640  138.9910 O   0  0  0  0  0  0  0  0  0  0  0  0
  195.8370  173.3460  137.7650 C   0  0  0  0  0  2  0  0  0  0  0  0
  196.4030  172.9090  139.9490 C   0  0  1  0  0  3  0  0  0  0  0  0
  196.1450  174.7300  137.7340 O   0  0  0  0  0  0  0  0  0  0  0  0
  196.7200  172.6250  138.5950 O   0  0  0  0  0  0  0  0  0  0  0  0
  197.9370  175.3400  139.0430 O   0  0  0  0  0  1  0  0  0  0  0  0
  196.5440  175.2190  139.0070 C   0  0  2  0  0  3  0  0  0  0  0  0
  196.0300  174.3830  140.1980 C   0  0  2  0  0  3  0  0  0  0  0  0
  196.5740  174.8970  141.5390 C   0  0  1  0  0  3  0  0  0  0  0  0
  197.9380  174.6140  141.6510 O   0  0  0  0  0  1  0  0  0  0  0  0
  195.2190  176.9720  141.1960 O   0  0  0  0  0  0  0  0  0  0  0  0
  196.3680  176.3690  141.6890 C   0  0  0  0  0  0  0  0  0  0  0  0
  197.2390  177.0660  142.2720 O   0  0  0  0  0  1  0  0  0  0  0  0
  194.1850  169.0890  136.6740 C   0  0  0  0  0  1  0  0  0  0  0  0
  194.2590  168.7640  138.0400 O   0  0  0  0  0  0  0  0  0  0  0  0
  190.0810  177.2840  147.3020 C   0  0  0  0  0  0  0  0  0  0  0  0
  189.4370  178.3540  147.7610 C   0  0  0  0  0  2  0  0  0  0  0  0
  191.0870  176.6190  148.1850 C   0  0  0  0  0  2  0  0  0  0  0  0
  191.6820  177.6350  149.1420 C   0  0  0  0  0  1  0  0  0  0  0  0
  189.6400  172.8750  136.9480 C   0  0  0  0  0  2  0  0  0  0  0  0
  189.5890  172.1940  135.5940 C   0  0  0  0  0  2  0  0  0  0  0  0
  190.3100  173.0530  134.5700 C   0  0  0  0  0  2  0  0  0  0  0  0
  192.7880  173.2950  134.7790 C   0  0  0  0  0  1  0  0  0  0  0  0
  191.4360  173.8350  135.2310 C   0  0  1  0  0  3  0  0  0  0  0  0
  190.0260  175.7570  135.3380 F   0  0  0  0  0  0  0  0  0  0  0  0
  191.2930  175.3370  134.9750 C   0  0  1  0  0  3  0  0  0  0  0  0
  192.3490  176.1560  135.7110 C   0  0  0  0  0  2  0  0  0  0  0  0
  192.2930  177.4750  135.3010 F   0  0  0  0  0  0  0  0  0  0  0  0
  2 14  1  0  0  0  0
  3  7  1  6  0  0  0
  3 19  1  0  0  0  0
  4 16  1  0  0  0  0
  5 17  1  0  0  0  0
  6 12  1  0  0  0  0
  9  4  1  0  0  0  0
 10  7  1  0  0  0  0
 10 20  1  1  0  0  0
 11  6  2  0  0  0  0
 12 35  1  0  0  0  0
 13 51  1  0  0  0  0
 14 36  1  0  0  0  0
 15 55  1  1  0  0  0
 15  2  1  0  0  0  0
 15 28  1  0  0  0  0
 16 12  2  0  0  0  0
 18 30  1  0  0  0  0
 18 32  2  0  0  0  0
 19 20  1  6  0  0  0
 19  5  1  0  0  0  0
 21 28  1  0  0  0  0
 21 11  1  0  0  0  0
 23 13  1  0  0  0  0
 23  1  2  0  0  0  0
 24 22  1  6  0  0  0
 24 17  1  0  0  0  0
 24 31  1  0  0  0  0
 25 23  1  0  0  0  0
 26 11  1  0  0  0  0
 26  4  2  0  0  0  0
 27 50  1  6  0  0  0
 27 10  1  0  0  0  0
 28 33  2  0  0  0  0
 29  8  1  0  0  0  0
 30  8  1  6  0  0  0
 30 13  1  0  0  0  0
 31 29  1  1  0  0  0
 31 18  1  0  0  0  0
 34 27  1  0  0  0  0
 34 36  1  0  0  0  0
 35 25  1  0  0  0  0
 37 40  1  0  0  0  0
 38 40  1  6  0  0  0
 38 43  1  0  0  0  0
 38  3  1  0  0  0  0
 39 37  1  0  0  0  0
 39 42  1  0  0  0  0
 42 41  1  6  0  0  0
 42 43  1  0  0  0  0
 43 44  1  1  0  0  0
 44 45  1  6  0  0  0
 44 47  1  0  0  0  0
 46 47  2  0  0  0  0
 47 48  1  0  0  0  0
 49 50  1  0  0  0  0
 51 52  2  0  0  0  0
 51 53  1  0  0  0  0
 53 54  1  0  0  0  0
 56 55  1  0  0  0  0
 57 59  1  0  0  0  0
 57 56  1  0  0  0  0
 59 58  1  6  0  0  0
 61 59  1  0  0  0  0
 61 60  1  1  0  0  0
 61 62  1  0  0  0  0
 63 62  1  0  0  0  0
M  END
>  <MODEL>
1

>  <REMARK>
 VINA RESULT:      -5.5      0.000      0.000
  Name = 
  12 active torsions:
  status: ('A' for Active; 'I' for Inactive)
    1  A    between atoms: C_3  and  C_7
    2  A    between atoms: C_4  and  C_28
    3  A    between atoms: C_7  and  N_22
    4  A    between atoms: C_8  and  C_54
    5  A    between atoms: C_14  and  C_41
    6  A    between atoms: C_14  and  C_44
    7  A    between atoms: C_15  and  C_34
    8  A    between atoms: C_15  and  C_62
    9  A    between atoms: O_18  and  C_46
   10  A    between atoms: C_24  and  C_29
   11  A    between atoms: C_29  and  C_44
   12  A    between atoms: C_41  and  C_54
                            x       y       z     vdW  Elec       q    Type
                         _______ _______ _______ _____ _____    ______ ____

>  <TORSDO>
F 12

$$$$
=
 OpenBabel11072409363D

 63 67  0  0  1  0  0  0  0  0999 V2000
  184.3070  177.7390  141.3900 O   0  0  0  0  0  0  0  0  0  0  0  0
  189.9170  170.2020  138.5100 O   0  0  0  0  0  0  0  0  0  0  0  0
  192.9610  172.2070  144.1900 C   0  0  2  0  0  3  0  0  0  0  0  0
  187.8680  177.0030  136.3000 C   0  0  0  0  0  0  0  0  0  0  0  0
  190.7360  173.3410  144.0550 C   0  0  0  0  0  2  0  0  0  0  0  0
  187.5000  175.0150  138.2340 C   0  0  0  0  0  3  0  0  0  0  0  0
  193.2450  170.8940  143.7640 O   0  0  0  0  0  0  0  0  0  0  0  0
  188.5490  178.3930  141.8670 C   0  0  0  0  0  2  0  0  0  0  0  0
  188.0540  177.9880  135.3400 O   0  0  0  0  0  1  0  0  0  0  0  0
  192.7180  170.7820  142.4650 C   0  0  2  0  0  3  0  0  0  0  0  0
  188.4640  174.8400  137.2300 C   0  0  0  0  0  0  0  0  0  0  0  0
  186.7130  176.1750  138.2610 C   0  0  0  0  0  0  0  0  0  0  0  0
  186.2210  178.2060  142.6710 N   0  0  0  0  0  0  0  0  0  0  0  0
  190.3950  170.5220  139.7920 C   0  0  0  0  0  2  0  0  0  0  0  0
  190.0990  171.3230  137.6660 C   0  0  1  0  0  3  0  0  0  0  0  0
  186.9040  177.1690  137.2950 C   0  0  0  0  0  3  0  0  0  0  0  0
  189.7090  174.0120  143.1480 C   0  0  0  0  0  2  0  0  0  0  0  0
  187.9160  176.4960  143.0190 C   0  0  0  0  0  0  0  0  0  0  0  0
  191.9310  172.8310  143.2630 C   0  0  2  0  0  3  0  0  0  0  0  0
  191.5340  171.7030  142.3710 C   0  0  0  0  0  2  0  0  0  0  0  0
  189.2770  173.6600  137.1480 N   0  0  0  0  0  2  0  0  0  0  0  0
  191.2000  175.3080  141.8150 O   0  0  0  0  0  1  0  0  0  0  0  0
  185.5610  177.6580  141.5040 C   0  0  0  0  0  0  0  0  0  0  0  0
  190.1440  175.4110  142.7230 C   0  0  1  0  0  3  0  0  0  0  0  0
  186.3210  177.0130  140.4770 N   0  0  0  0  0  2  0  0  0  0  0  0
  188.6440  175.8420  136.2680 C   0  0  0  0  0  3  0  0  0  0  0  0
  192.3330  169.3280  142.1430 C   0  0  1  0  0  3  0  0  0  0  0  0
  189.1810  172.4810  137.9610 C   0  0  0  0  0  0  0  0  0  0  0  0
  189.4420  177.3550  141.4910 O   0  0  0  0  0  0  0  0  0  0  0  0
  187.6310  177.9260  142.9810 C   0  0  1  0  0  3  0  0  0  0  0  0
  188.9800  176.1430  142.0560 C   0  0  2  0  0  3  0  0  0  0  0  0
  187.3230  175.6970  143.7290 O   0  0  0  0  0  0  0  0  0  0  0  0
  188.3110  172.3900  138.8680 O   0  0  0  0  0  0  0  0  0  0  0  0
  191.8740  169.1320  140.6890 C   0  0  0  0  0  2  0  0  0  0  0  0
  185.6990  176.3770  139.3290 C   0  0  0  0  0  2  0  0  0  0  0  0
  190.5010  169.3660  140.5700 O   0  0  0  0  0  0  0  0  0  0  0  0
  195.2510  173.0740  142.2170 C   0  0  0  0  0  2  0  0  0  0  0  0
  194.2510  173.0330  144.2870 C   0  0  1  0  0  3  0  0  0  0  0  0
  195.7110  174.4150  142.2260 O   0  0  0  0  0  0  0  0  0  0  0  0
  195.3000  172.4890  143.5000 O   0  0  0  0  0  0  0  0  0  0  0  0
  196.3520  175.1940  144.2950 O   0  0  0  0  0  1  0  0  0  0  0  0
  195.2920  175.1190  143.3870 C   0  0  2  0  0  3  0  0  0  0  0  0
  194.0280  174.5400  144.0580 C   0  0  2  0  0  3  0  0  0  0  0  0
  193.6800  175.2760  145.3600 C   0  0  1  0  0  3  0  0  0  0  0  0
  194.6460  175.0190  146.3360 O   0  0  0  0  0  1  0  0  0  0  0  0
  194.5330  177.6050  145.6880 O   0  0  0  0  0  1  0  0  0  0  0  0
  193.5800  176.7510  145.1490 C   0  0  0  0  0  0  0  0  0  0  0  0
  192.6290  177.2230  144.4740 O   0  0  0  0  0  0  0  0  0  0  0  0
  194.2910  168.3170  141.4910 C   0  0  0  0  0  1  0  0  0  0  0  0
  193.3330  168.4010  142.5180 O   0  0  0  0  0  0  0  0  0  0  0  0
  185.5060  179.0500  143.5920 C   0  0  0  0  0  0  0  0  0  0  0  0
  185.7990  180.3440  143.7000 C   0  0  0  0  0  2  0  0  0  0  0  0
  184.4860  178.4670  144.5160 C   0  0  0  0  0  2  0  0  0  0  0  0
  184.9960  178.5220  145.9440 C   0  0  0  0  0  1  0  0  0  0  0  0
  191.5600  171.7540  137.5140 C   0  0  0  0  0  2  0  0  0  0  0  0
  192.3500  170.6780  136.7940 C   0  0  0  0  0  2  0  0  0  0  0  0
  193.8190  171.0610  136.7700 C   0  0  0  0  0  2  0  0  0  0  0  0
  194.8520  171.1120  139.0440 C   0  0  0  0  0  1  0  0  0  0  0  0
  194.1590  171.9380  137.9660 C   0  0  1  0  0  3  0  0  0  0  0  0
  194.2630  174.3150  137.7850 F   0  0  0  0  0  0  0  0  0  0  0  0
  194.9830  173.1570  137.5450 C   0  0  1  0  0  3  0  0  0  0  0  0
  196.3320  173.2210  138.2530 C   0  0  0  0  0  2  0  0  0  0  0  0
  196.3810  174.3320  139.0740 F   0  0  0  0  0  0  0  0  0  0  0  0
  1 23  2  0  0  0  0
  2 14  1  0  0  0  0
  3  7  1  6  0  0  0
  3 38  1  0  0  0  0
  4 16  1  0  0  0  0
  6 12  1  0  0  0  0
  9  4  1  0  0  0  0
 10 20  1  1  0  0  0
 10  7  1  0  0  0  0
 11  6  2  0  0  0  0
 12 35  1  0  0  0  0
 13 30  1  0  0  0  0
 13 51  1  0  0  0  0
 14 36  1  0  0  0  0
 15 55  1  1  0  0  0
 15 28  1  0  0  0  0
 15  2  1  0  0  0  0
 16 12  2  0  0  0  0
 17  5  1  0  0  0  0
 18 32  2  0  0  0  0
 19 20  1  6  0  0  0
 19  5  1  0  0  0  0
 19  3  1  0  0  0  0
 21 11  1  0  0  0  0
 21 28  1  0  0  0  0
 23 13  1  0  0  0  0
 24 22  1  6  0  0  0
 24 17  1  0  0  0  0
 25 23  1  0  0  0  0
 26  4  2  0  0  0  0
 26 11  1  0  0  0  0
 27 10  1  0  0  0  0
 27 50  1  6  0  0  0
 28 33  2  0  0  0  0
 29  8  1  0  0  0  0
 30  8  1  6  0  0  0
 30 18  1  0  0  0  0
 31 29  1  1  0  0  0
 31 24  1  0  0  0  0
 31 18  1  0  0  0  0
 34 27  1  0  0  0  0
 35 25  1  0  0  0  0
 36 34  1  0  0  0  0
 37 39  1  0  0  0  0
 37 40  1  0  0  0  0
 38 40  1  6  0  0  0
 39 42  1  0  0  0  0
 42 43  1  0  0  0  0
 42 41  1  1  0  0  0
 43 38  1  0  0  0  0
 43 44  1  1  0  0  0
 44 45  1  1  0  0  0
 47 44  1  0  0  0  0
 47 46  1  0  0  0  0
 48 47  2  0  0  0  0
 49 50  1  0  0  0  0
 51 52  2  0  0  0  0
 51 53  1  0  0  0  0
 53 54  1  0  0  0  0
 56 55  1  0  0  0  0
 57 56  1  0  0  0  0
 57 59  1  0  0  0  0
 59 58  1  1  0  0  0
 61 60  1  1  0  0  0
 61 59  1  0  0  0  0
 61 62  1  0  0  0  0
 62 63  1  0  0  0  0
M  END
>  <MODEL>
2

>  <REMARK>
 VINA RESULT:      -5.1      2.741      4.301
  Name = 
  12 active torsions:
  status: ('A' for Active; 'I' for Inactive)
    1  A    between atoms: C_3  and  C_7
    2  A    between atoms: C_4  and  C_28
    3  A    between atoms: C_7  and  N_22
    4  A    between atoms: C_8  and  C_54
    5  A    between atoms: C_14  and  C_41
    6  A    between atoms: C_14  and  C_44
    7  A    between atoms: C_15  and  C_34
    8  A    between atoms: C_15  and  C_62
    9  A    between atoms: O_18  and  C_46
   10  A    between atoms: C_24  and  C_29
   11  A    between atoms: C_29  and  C_44
   12  A    between atoms: C_41  and  C_54
                            x       y       z     vdW  Elec       q    Type
                         _______ _______ _______ _____ _____    ______ ____

>  <TORSDO>
F 12

$$$$
=
 OpenBabel11072409363D

 63 67  0  0  1  0  0  0  0  0999 V2000
  187.5440  178.8010  144.4140 O   0  0  0  0  0  0  0  0  0  0  0  0
  196.5640  175.5760  142.2210 O   0  0  0  0  0  0  0  0  0  0  0  0
  192.7080  172.2780  137.7720 C   0  0  2  0  0  3  0  0  0  0  0  0
  191.6140  175.4400  147.7720 C   0  0  0  0  0  0  0  0  0  0  0  0
  191.3160  174.0610  138.8400 C   0  0  0  0  0  2  0  0  0  0  0  0
  192.1690  176.4480  145.2210 C   0  0  0  0  0  3  0  0  0  0  0  0
  194.0760  172.3810  137.4500 O   0  0  0  0  0  0  0  0  0  0  0  0
  187.7630  174.5750  143.5510 C   0  0  0  0  0  2  0  0  0  0  0  0
  191.3400  174.9370  149.0360 O   0  0  0  0  0  1  0  0  0  0  0  0
  194.7130  172.8720  138.6040 C   0  0  2  0  0  3  0  0  0  0  0  0
  193.0580  175.5440  145.8220 C   0  0  0  0  0  0  0  0  0  0  0  0
  191.0130  176.8560  145.9020 C   0  0  0  0  0  0  0  0  0  0  0  0
  186.9520  176.8800  143.1950 N   0  0  0  0  0  0  0  0  0  0  0  0
  195.7540  175.0710  141.1910 C   0  0  0  0  0  2  0  0  0  0  0  0
  196.1190  175.0410  143.4530 C   0  0  1  0  0  3  0  0  0  0  0  0
  190.7360  176.3460  147.1750 C   0  0  0  0  0  3  0  0  0  0  0  0
  190.9880  174.8100  140.1260 C   0  0  0  0  0  2  0  0  0  0  0  0
  188.5830  175.7820  141.7630 C   0  0  0  0  0  0  0  0  0  0  0  0
  192.4270  173.0440  139.0540 C   0  0  2  0  0  3  0  0  0  0  0  0
  193.7220  173.7250  139.3450 C   0  0  0  0  0  2  0  0  0  0  0  0
  194.2650  175.1150  145.1750 N   0  0  0  0  0  2  0  0  0  0  0  0
  190.9590  172.9560  141.6240 O   0  0  0  0  0  1  0  0  0  0  0  0
  187.8490  177.6320  144.0490 C   0  0  0  0  0  0  0  0  0  0  0  0
  190.1570  173.9660  141.0870 C   0  0  1  0  0  3  0  0  0  0  0  0
  189.0880  177.0600  144.4800 N   0  0  0  0  0  2  0  0  0  0  0  0
  192.7700  175.0420  147.0970 C   0  0  0  0  0  3  0  0  0  0  0  0
  195.9860  173.6580  138.2480 C   0  0  1  0  0  3  0  0  0  0  0  0
  194.7950  175.5850  143.9260 C   0  0  0  0  0  0  0  0  0  0  0  0
  189.0230  174.0170  143.2100 O   0  0  0  0  0  0  0  0  0  0  0  0
  187.3570  175.6280  142.5380 C   0  0  1  0  0  3  0  0  0  0  0  0
  189.6220  174.8360  142.2240 C   0  0  2  0  0  3  0  0  0  0  0  0
  188.7350  176.6090  140.8760 O   0  0  0  0  0  0  0  0  0  0  0  0
  194.1970  176.4740  143.2640 O   0  0  0  0  0  0  0  0  0  0  0  0
  196.7870  174.1040  139.4820 C   0  0  0  0  0  2  0  0  0  0  0  0
  190.0560  177.8020  145.2690 C   0  0  0  0  0  2  0  0  0  0  0  0
  196.3300  175.3400  139.9470 O   0  0  0  0  0  0  0  0  0  0  0  0
  193.4750  169.7920  139.5370 C   0  0  0  0  0  2  0  0  0  0  0  0
  192.2830  170.8060  137.8530 C   0  0  1  0  0  3  0  0  0  0  0  0
  192.4510  168.9610  140.0570 O   0  0  0  0  0  0  0  0  0  0  0  0
  193.3750  169.9450  138.1390 O   0  0  0  0  0  0  0  0  0  0  0  0
  190.9720  168.1660  138.4830 O   0  0  0  0  0  1  0  0  0  0  0  0
  191.2030  169.1820  139.4150 C   0  0  2  0  0  3  0  0  0  0  0  0
  191.0620  170.5730  138.7640 C   0  0  2  0  0  3  0  0  0  0  0  0
  189.7380  170.7200  138.0010 C   0  0  1  0  0  3  0  0  0  0  0  0
  188.9600  171.7330  138.5660 O   0  0  0  0  0  1  0  0  0  0  0  0
  189.6800  172.2900  136.0540 O   0  0  0  0  0  1  0  0  0  0  0  0
  189.9660  171.0280  136.5570 C   0  0  0  0  0  0  0  0  0  0  0  0
  190.4250  170.1400  135.7930 O   0  0  0  0  0  0  0  0  0  0  0  0
  197.1860  173.9070  136.3050 C   0  0  0  0  0  1  0  0  0  0  0  0
  196.7940  172.9920  137.2980 O   0  0  0  0  0  0  0  0  0  0  0  0
  185.6130  177.3460  142.9440 C   0  0  0  0  0  0  0  0  0  0  0  0
  185.2240  177.6710  141.7130 C   0  0  0  0  0  2  0  0  0  0  0  0
  184.6640  177.5660  144.0770 C   0  0  0  0  0  2  0  0  0  0  0  0
  183.8180  178.7960  143.8070 C   0  0  0  0  0  1  0  0  0  0  0  0
  196.1870  173.5140  143.5260 C   0  0  0  0  0  2  0  0  0  0  0  0
  197.3140  173.0860  144.4460 C   0  0  0  0  0  2  0  0  0  0  0  0
  196.7380  172.3370  145.6360 C   0  0  0  0  0  2  0  0  0  0  0  0
  197.3960  169.9280  145.5600 C   0  0  0  0  0  1  0  0  0  0  0  0
  196.3050  170.9380  145.2230 C   0  0  1  0  0  3  0  0  0  0  0  0
  194.1480  171.6890  145.9140 F   0  0  0  0  0  0  0  0  0  0  0  0
  194.9560  170.5680  145.8440 C   0  0  1  0  0  3  0  0  0  0  0  0
  194.2470  169.4560  145.0780 C   0  0  0  0  0  2  0  0  0  0  0  0
  192.9440  169.8280  144.8060 F   0  0  0  0  0  0  0  0  0  0  0  0
  2 15  1  0  0  0  0
  3  7  1  1  0  0  0
  3 38  1  0  0  0  0
  3 19  1  0  0  0  0
  4  9  1  0  0  0  0
  5 17  1  0  0  0  0
  6 11  2  0  0  0  0
  6 12  1  0  0  0  0
  7 10  1  0  0  0  0
 10 20  1  6  0  0  0
 11 26  1  0  0  0  0
 12 16  2  0  0  0  0
 13 23  1  0  0  0  0
 14  2  1  0  0  0  0
 15 55  1  6  0  0  0
 15 28  1  0  0  0  0
 16  4  1  0  0  0  0
 17 24  1  0  0  0  0
 18 30  1  0  0  0  0
 19  5  1  6  0  0  0
 19 20  1  0  0  0  0
 21 11  1  0  0  0  0
 23  1  2  0  0  0  0
 23 25  1  0  0  0  0
 24 22  1  1  0  0  0
 24 31  1  0  0  0  0
 25 35  1  0  0  0  0
 26  4  2  0  0  0  0
 27 50  1  6  0  0  0
 27 10  1  0  0  0  0
 27 34  1  0  0  0  0
 28 21  1  0  0  0  0
 29  8  1  0  0  0  0
 30 13  1  0  0  0  0
 30  8  1  1  0  0  0
 31 18  1  6  0  0  0
 31 29  1  0  0  0  0
 32 18  2  0  0  0  0
 33 28  2  0  0  0  0
 34 36  1  0  0  0  0
 35 12  1  0  0  0  0
 36 14  1  0  0  0  0
 37 39  1  0  0  0  0
 38 40  1  1  0  0  0
 38 43  1  0  0  0  0
 40 37  1  0  0  0  0
 42 41  1  6  0  0  0
 42 39  1  0  0  0  0
 43 44  1  6  0  0  0
 43 42  1  0  0  0  0
 44 45  1  1  0  0  0
 46 47  1  0  0  0  0
 47 44  1  0  0  0  0
 48 47  2  0  0  0  0
 49 50  1  0  0  0  0
 51 13  1  0  0  0  0
 51 53  1  0  0  0  0
 52 51  2  0  0  0  0
 54 53  1  0  0  0  0
 55 56  1  0  0  0  0
 56 57  1  0  0  0  0
 59 58  1  1  0  0  0
 59 57  1  0  0  0  0
 59 61  1  0  0  0  0
 61 60  1  6  0  0  0
 62 61  1  0  0  0  0
 63 62  1  0  0  0  0
M  END
>  <MODEL>
3

>  <REMARK>
 VINA RESULT:      -5.0      3.215      7.651
  Name = 
  12 active torsions:
  status: ('A' for Active; 'I' for Inactive)
    1  A    between atoms: C_3  and  C_7
    2  A    between atoms: C_4  and  C_28
    3  A    between atoms: C_7  and  N_22
    4  A    between atoms: C_8  and  C_54
    5  A    between atoms: C_14  and  C_41
    6  A    between atoms: C_14  and  C_44
    7  A    between atoms: C_15  and  C_34
    8  A    between atoms: C_15  and  C_62
    9  A    between atoms: O_18  and  C_46
   10  A    between atoms: C_24  and  C_29
   11  A    between atoms: C_29  and  C_44
   12  A    between atoms: C_41  and  C_54
                            x       y       z     vdW  Elec       q    Type
                         _______ _______ _______ _____ _____    ______ ____

>  <TORSDO>
F 12

$$$$
=
 OpenBabel11072409363D

 63 67  0  0  1  0  0  0  0  0999 V2000
  184.2860  177.7370  141.4860 O   0  0  0  0  0  0  0  0  0  0  0  0
  189.8990  170.1770  138.6740 O   0  0  0  0  0  0  0  0  0  0  0  0
  192.9420  172.2330  144.3360 C   0  0  2  0  0  3  0  0  0  0  0  0
  187.8480  176.9570  136.4030 C   0  0  0  0  0  0  0  0  0  0  0  0
  190.7170  173.3660  144.1910 C   0  0  0  0  0  2  0  0  0  0  0  0
  187.4800  174.9860  138.3550 C   0  0  0  0  0  3  0  0  0  0  0  0
  193.2260  170.9160  143.9220 O   0  0  0  0  0  0  0  0  0  0  0  0
  188.5280  178.3970  141.9570 C   0  0  0  0  0  2  0  0  0  0  0  0
  188.0330  177.9340  135.4350 O   0  0  0  0  0  1  0  0  0  0  0  0
  192.6990  170.7930  142.6240 C   0  0  2  0  0  3  0  0  0  0  0  0
  188.4450  174.8030  137.3530 C   0  0  0  0  0  0  0  0  0  0  0  0
  186.6940  176.1470  138.3710 C   0  0  0  0  0  0  0  0  0  0  0  0
  186.2000  178.2160  142.7630 N   0  0  0  0  0  0  0  0  0  0  0  0
  190.3770  170.5090  139.9530 C   0  0  0  0  0  2  0  0  0  0  0  0
  190.0810  171.2900  137.8200 C   0  0  1  0  0  3  0  0  0  0  0  0
  186.8840  177.1320  137.3970 C   0  0  0  0  0  3  0  0  0  0  0  0
  189.6900  174.0280  143.2780 C   0  0  0  0  0  2  0  0  0  0  0  0
  187.8950  176.5100  143.1270 C   0  0  0  0  0  0  0  0  0  0  0  0
  191.9110  172.8490  143.4040 C   0  0  2  0  0  3  0  0  0  0  0  0
  191.5160  171.7120  142.5220 C   0  0  0  0  0  2  0  0  0  0  0  0
  189.2580  173.6220  137.2810 N   0  0  0  0  0  2  0  0  0  0  0  0
  191.1800  175.3130  141.9340 O   0  0  0  0  0  1  0  0  0  0  0  0
  185.5400  177.6570  141.6010 C   0  0  0  0  0  0  0  0  0  0  0  0
  190.1240  175.4230  142.8400 C   0  0  1  0  0  3  0  0  0  0  0  0
  186.3010  177.0040  140.5800 N   0  0  0  0  0  2  0  0  0  0  0  0
  188.6240  175.7960  136.3820 C   0  0  0  0  0  3  0  0  0  0  0  0
  192.3150  169.3360  142.3150 C   0  0  1  0  0  3  0  0  0  0  0  0
  189.1620  172.4510  138.1050 C   0  0  0  0  0  0  0  0  0  0  0  0
  189.4210  177.3560  141.5910 O   0  0  0  0  0  0  0  0  0  0  0  0
  187.6110  177.9400  143.0760 C   0  0  1  0  0  3  0  0  0  0  0  0
  188.9600  176.1490  142.1670 C   0  0  2  0  0  3  0  0  0  0  0  0
  187.3030  175.7180  143.8440 O   0  0  0  0  0  0  0  0  0  0  0  0
  188.2920  172.3680  139.0120 O   0  0  0  0  0  0  0  0  0  0  0  0
  191.8560  169.1270  140.8630 C   0  0  0  0  0  2  0  0  0  0  0  0
  185.6790  176.3580  139.4380 C   0  0  0  0  0  2  0  0  0  0  0  0
  190.4830  169.3600  140.7410 O   0  0  0  0  0  0  0  0  0  0  0  0
  195.7430  171.9200  145.7300 C   0  0  0  0  0  2  0  0  0  0  0  0
  194.2320  173.0600  144.4260 C   0  0  1  0  0  3  0  0  0  0  0  0
  196.9230  172.2160  145.0020 O   0  0  0  0  0  0  0  0  0  0  0  0
  194.8270  172.9930  145.7130 O   0  0  0  0  0  0  0  0  0  0  0  0
  196.9500  174.3000  144.0280 O   0  0  0  0  0  1  0  0  0  0  0  0
  196.6530  172.9500  143.8160 C   0  0  2  0  0  3  0  0  0  0  0  0
  195.2180  172.7770  143.2760 C   0  0  2  0  0  3  0  0  0  0  0  0
  194.9520  173.6700  142.0550 C   0  0  1  0  0  3  0  0  0  0  0  0
  194.7870  174.9990  142.4520 O   0  0  0  0  0  1  0  0  0  0  0  0
  196.7580  174.7350  140.6910 O   0  0  0  0  0  1  0  0  0  0  0  0
  196.0640  173.5910  141.0620 C   0  0  0  0  0  0  0  0  0  0  0  0
  196.3790  172.4800  140.5620 O   0  0  0  0  0  0  0  0  0  0  0  0
  194.3070  168.3690  141.7020 C   0  0  0  0  0  1  0  0  0  0  0  0
  193.3150  168.4120  142.6980 O   0  0  0  0  0  0  0  0  0  0  0  0
  185.4850  179.0690  143.6770 C   0  0  0  0  0  0  0  0  0  0  0  0
  185.8490  180.3360  143.8550 C   0  0  0  0  0  2  0  0  0  0  0  0
  184.3780  178.5170  144.5160 C   0  0  0  0  0  2  0  0  0  0  0  0
  184.9560  177.8290  145.7400 C   0  0  0  0  0  1  0  0  0  0  0  0
  191.5410  171.7210  137.6640 C   0  0  0  0  0  2  0  0  0  0  0  0
  192.1080  171.1830  136.3640 C   0  0  0  0  0  2  0  0  0  0  0  0
  193.4480  171.8420  136.0860 C   0  0  0  0  0  2  0  0  0  0  0  0
  194.8730  173.3560  137.4700 C   0  0  0  0  0  1  0  0  0  0  0  0
  193.5260  173.1960  136.7760 C   0  0  1  0  0  3  0  0  0  0  0  0
  192.4640  173.8700  134.7470 F   0  0  0  0  0  0  0  0  0  0  0  0
  193.2370  174.3370  135.7960 C   0  0  1  0  0  3  0  0  0  0  0  0
  192.5510  175.5220  136.4680 C   0  0  0  0  0  2  0  0  0  0  0  0
  192.0100  176.3580  135.5090 F   0  0  0  0  0  0  0  0  0  0  0  0
  1 23  2  0  0  0  0
  2 14  1  0  0  0  0
  3  7  1  6  0  0  0
  3 38  1  0  0  0  0
  4 16  1  0  0  0  0
  6 12  1  0  0  0  0
  9  4  1  0  0  0  0
 10 20  1  1  0  0  0
 10  7  1  0  0  0  0
 11  6  2  0  0  0  0
 12 35  1  0  0  0  0
 13 30  1  0  0  0  0
 13 51  1  0  0  0  0
 14 36  1  0  0  0  0
 15 55  1  1  0  0  0
 15 28  1  0  0  0  0
 15  2  1  0  0  0  0
 16 12  2  0  0  0  0
 17  5  1  0  0  0  0
 18 32  2  0  0  0  0
 19 20  1  6  0  0  0
 19  5  1  0  0  0  0
 19  3  1  0  0  0  0
 21 11  1  0  0  0  0
 21 28  1  0  0  0  0
 23 13  1  0  0  0  0
 24 22  1  6  0  0  0
 24 17  1  0  0  0  0
 25 23  1  0  0  0  0
 26  4  2  0  0  0  0
 26 11  1  0  0  0  0
 27 10  1  0  0  0  0
 27 50  1  6  0  0  0
 28 33  2  0  0  0  0
 29  8  1  0  0  0  0
 30  8  1  6  0  0  0
 30 18  1  0  0  0  0
 31 29  1  1  0  0  0
 31 24  1  0  0  0  0
 31 18  1  0  0  0  0
 34 27  1  0  0  0  0
 35 25  1  0  0  0  0
 36 34  1  0  0  0  0
 38 40  1  1  0  0  0
 39 37  1  0  0  0  0
 40 37  1  0  0  0  0
 42 41  1  1  0  0  0
 42 39  1  0  0  0  0
 43 44  1  6  0  0  0
 43 42  1  0  0  0  0
 43 38  1  0  0  0  0
 44 45  1  1  0  0  0
 46 47  1  0  0  0  0
 47 44  1  0  0  0  0
 48 47  2  0  0  0  0
 49 50  1  0  0  0  0
 51 52  2  0  0  0  0
 51 53  1  0  0  0  0
 53 54  1  0  0  0  0
 56 55  1  0  0  0  0
 57 56  1  0  0  0  0
 57 59  1  0  0  0  0
 59 58  1  6  0  0  0
 61 60  1  6  0  0  0
 61 62  1  0  0  0  0
 61 59  1  0  0  0  0
 63 62  1  0  0  0  0
M  END
>  <MODEL>
4

>  <REMARK>
 VINA RESULT:      -4.6      2.534      4.123
  Name = 
  12 active torsions:
  status: ('A' for Active; 'I' for Inactive)
    1  A    between atoms: C_3  and  C_7
    2  A    between atoms: C_4  and  C_28
    3  A    between atoms: C_7  and  N_22
    4  A    between atoms: C_8  and  C_54
    5  A    between atoms: C_14  and  C_41
    6  A    between atoms: C_14  and  C_44
    7  A    between atoms: C_15  and  C_34
    8  A    between atoms: C_15  and  C_62
    9  A    between atoms: O_18  and  C_46
   10  A    between atoms: C_24  and  C_29
   11  A    between atoms: C_29  and  C_44
   12  A    between atoms: C_41  and  C_54
                            x       y       z     vdW  Elec       q    Type
                         _______ _______ _______ _____ _____    ______ ____

>  <TORSDO>
F 12

$$$$
=
 OpenBabel11072409363D

 63 67  0  0  1  0  0  0  0  0999 V2000
  184.4610  177.5290  141.9340 O   0  0  0  0  0  0  0  0  0  0  0  0
  190.0220  170.1280  138.6360 O   0  0  0  0  0  0  0  0  0  0  0  0
  193.3770  172.1430  144.1340 C   0  0  2  0  0  3  0  0  0  0  0  0
  187.7100  176.9060  136.6250 C   0  0  0  0  0  0  0  0  0  0  0  0
  191.1270  173.2350  144.1490 C   0  0  0  0  0  2  0  0  0  0  0  0
  187.5010  174.8950  138.5590 C   0  0  0  0  0  3  0  0  0  0  0  0
  193.6580  170.8390  143.6790 O   0  0  0  0  0  0  0  0  0  0  0  0
  188.7110  178.2610  142.1520 C   0  0  0  0  0  2  0  0  0  0  0  0
  187.8160  177.9030  135.6650 O   0  0  0  0  0  1  0  0  0  0  0  0
  193.0530  170.7280  142.4140 C   0  0  2  0  0  3  0  0  0  0  0  0
  188.4040  174.7470  137.4950 C   0  0  0  0  0  0  0  0  0  0  0  0
  186.6960  176.0400  138.6460 C   0  0  0  0  0  0  0  0  0  0  0  0
  186.4430  178.0220  143.0980 N   0  0  0  0  0  0  0  0  0  0  0  0
  190.5730  170.4460  139.8890 C   0  0  0  0  0  2  0  0  0  0  0  0
  190.1290  171.2590  137.7930 C   0  0  1  0  0  3  0  0  0  0  0  0
  186.8070  177.0450  137.6800 C   0  0  0  0  0  3  0  0  0  0  0  0
  190.0330  173.8930  143.3150 C   0  0  0  0  0  2  0  0  0  0  0  0
  188.1880  176.3420  143.3230 C   0  0  0  0  0  0  0  0  0  0  0  0
  192.2790  172.7550  143.2800 C   0  0  2  0  0  3  0  0  0  0  0  0
  191.8490  171.6270  142.4030 C   0  0  0  0  0  2  0  0  0  0  0  0
  189.2320  173.5840  137.3500 N   0  0  0  0  0  2  0  0  0  0  0  0
  191.4120  175.2300  141.9050 O   0  0  0  0  0  1  0  0  0  0  0  0
  185.7210  177.4710  141.9690 C   0  0  0  0  0  0  0  0  0  0  0  0
  190.4140  175.3030  142.8780 C   0  0  1  0  0  3  0  0  0  0  0  0
  186.4280  176.8510  140.8910 N   0  0  0  0  0  2  0  0  0  0  0  0
  188.5040  175.7610  136.5340 C   0  0  0  0  0  3  0  0  0  0  0  0
  192.6760  169.2690  142.1030 C   0  0  1  0  0  3  0  0  0  0  0  0
  189.2100  172.3970  138.1570 C   0  0  0  0  0  0  0  0  0  0  0  0
  189.5980  177.2450  141.7110 O   0  0  0  0  0  0  0  0  0  0  0  0
  187.8750  177.7670  143.3160 C   0  0  1  0  0  3  0  0  0  0  0  0
  189.1970  176.0190  142.2920 C   0  0  2  0  0  3  0  0  0  0  0  0
  187.6560  175.5270  144.0610 O   0  0  0  0  0  0  0  0  0  0  0  0
  188.4000  172.2810  139.1150 O   0  0  0  0  0  0  0  0  0  0  0  0
  192.1310  169.0770  140.6780 C   0  0  0  0  0  2  0  0  0  0  0  0
  185.7470  176.2120  139.7780 C   0  0  0  0  0  2  0  0  0  0  0  0
  190.7490  169.2860  140.6470 O   0  0  0  0  0  0  0  0  0  0  0  0
  194.3070  174.7980  145.5380 C   0  0  0  0  0  2  0  0  0  0  0  0
  194.6540  172.9930  144.1580 C   0  0  1  0  0  3  0  0  0  0  0  0
  195.5870  174.8570  146.1440 O   0  0  0  0  0  0  0  0  0  0  0  0
  194.3760  174.3840  144.1910 O   0  0  0  0  0  0  0  0  0  0  0  0
  197.3270  174.2470  144.7660 O   0  0  0  0  0  1  0  0  0  0  0  0
  196.4260  173.7870  145.7320 C   0  0  2  0  0  3  0  0  0  0  0  0
  195.6660  172.5420  145.2310 C   0  0  2  0  0  3  0  0  0  0  0  0
  196.6190  171.4590  144.7040 C   0  0  1  0  0  3  0  0  0  0  0  0
  197.9410  171.9030  144.7670 O   0  0  0  0  0  1  0  0  0  0  0  0
  196.4690  168.9640  144.8290 O   0  0  0  0  0  0  0  0  0  0  0  0
  196.4930  170.1900  145.4820 C   0  0  0  0  0  0  0  0  0  0  0  0
  196.4150  170.2310  146.7370 O   0  0  0  0  0  1  0  0  0  0  0  0
  194.6850  168.4130  141.3870 C   0  0  0  0  0  1  0  0  0  0  0  0
  193.7150  168.3590  142.4050 O   0  0  0  0  0  0  0  0  0  0  0  0
  185.7710  178.8440  144.0700 C   0  0  0  0  0  0  0  0  0  0  0  0
  185.7470  180.1690  143.9440 C   0  0  0  0  0  2  0  0  0  0  0  0
  185.1710  178.2310  145.2940 C   0  0  0  0  0  2  0  0  0  0  0  0
  185.5490  179.0470  146.5160 C   0  0  0  0  0  1  0  0  0  0  0  0
  191.5690  171.7210  137.5540 C   0  0  0  0  0  2  0  0  0  0  0  0
  191.8760  172.9360  138.4090 C   0  0  0  0  0  2  0  0  0  0  0  0
  192.8350  173.8480  137.6640 C   0  0  0  0  0  2  0  0  0  0  0  0
  193.8600  173.6020  139.9280 C   0  0  0  0  0  1  0  0  0  0  0  0
  193.9330  174.3380  138.5950 C   0  0  1  0  0  3  0  0  0  0  0  0
  196.2910  174.6320  138.8270 F   0  0  0  0  0  0  0  0  0  0  0  0
  195.3120  174.2190  137.9400 C   0  0  1  0  0  3  0  0  0  0  0  0
  195.6060  172.8040  137.4530 C   0  0  0  0  0  2  0  0  0  0  0  0
  196.8010  172.3610  137.9880 F   0  0  0  0  0  0  0  0  0  0  0  0
  1 23  2  0  0  0  0
  2 14  1  0  0  0  0
  3  7  1  6  0  0  0
  3 38  1  0  0  0  0
  4 16  1  0  0  0  0
  6 12  1  0  0  0  0
  9  4  1  0  0  0  0
 10 20  1  1  0  0  0
 10  7  1  0  0  0  0
 11  6  2  0  0  0  0
 12 35  1  0  0  0  0
 13 30  1  0  0  0  0
 13 51  1  0  0  0  0
 14 36  1  0  0  0  0
 15 55  1  1  0  0  0
 15 28  1  0  0  0  0
 15  2  1  0  0  0  0
 16 12  2  0  0  0  0
 17  5  1  0  0  0  0
 18 32  2  0  0  0  0
 19 20  1  6  0  0  0
 19  3  1  0  0  0  0
 19  5  1  0  0  0  0
 21 11  1  0  0  0  0
 21 28  1  0  0  0  0
 23 13  1  0  0  0  0
 24 22  1  6  0  0  0
 24 17  1  0  0  0  0
 25 23  1  0  0  0  0
 26  4  2  0  0  0  0
 26 11  1  0  0  0  0
 27 50  1  6  0  0  0
 27 10  1  0  0  0  0
 28 33  2  0  0  0  0
 29  8  1  0  0  0  0
 30  8  1  6  0  0  0
 30 18  1  0  0  0  0
 31 29  1  1  0  0  0
 31 24  1  0  0  0  0
 31 18  1  0  0  0  0
 34 27  1  0  0  0  0
 35 25  1  0  0  0  0
 36 34  1  0  0  0  0
 37 39  1  0  0  0  0
 38 40  1  1  0  0  0
 38 43  1  0  0  0  0
 40 37  1  0  0  0  0
 42 41  1  6  0  0  0
 42 39  1  0  0  0  0
 43 44  1  6  0  0  0
 43 42  1  0  0  0  0
 44 45  1  1  0  0  0
 44 47  1  0  0  0  0
 46 47  2  0  0  0  0
 47 48  1  0  0  0  0
 49 50  1  0  0  0  0
 51 53  1  0  0  0  0
 52 51  2  0  0  0  0
 53 54  1  0  0  0  0
 55 56  1  0  0  0  0
 57 56  1  0  0  0  0
 57 59  1  0  0  0  0
 59 58  1  1  0  0  0
 61 59  1  0  0  0  0
 61 60  1  1  0  0  0
 62 61  1  0  0  0  0
 62 63  1  0  0  0  0
M  END
>  <MODEL>
5

>  <REMARK>
 VINA RESULT:      -4.3      3.159      4.638
  Name = 
  12 active torsions:
  status: ('A' for Active; 'I' for Inactive)
    1  A    between atoms: C_3  and  C_7
    2  A    between atoms: C_4  and  C_28
    3  A    between atoms: C_7  and  N_22
    4  A    between atoms: C_8  and  C_54
    5  A    between atoms: C_14  and  C_41
    6  A    between atoms: C_14  and  C_44
    7  A    between atoms: C_15  and  C_34
    8  A    between atoms: C_15  and  C_62
    9  A    between atoms: O_18  and  C_46
   10  A    between atoms: C_24  and  C_29
   11  A    between atoms: C_29  and  C_44
   12  A    between atoms: C_41  and  C_54
                            x       y       z     vdW  Elec       q    Type
                         _______ _______ _______ _____ _____    ______ ____

>  <TORSDO>
F 12

$$$$
=
 OpenBabel11072409363D

 63 67  0  0  1  0  0  0  0  0999 V2000
  186.2820  176.9810  146.3750 O   0  0  0  0  0  0  0  0  0  0  0  0
  189.6640  170.9120  139.4250 O   0  0  0  0  0  0  0  0  0  0  0  0
  195.2900  172.6370  142.7270 C   0  0  2  0  0  3  0  0  0  0  0  0
  186.3040  177.5100  140.1420 C   0  0  0  0  0  0  0  0  0  0  0  0
  193.3290  173.3970  144.0790 C   0  0  0  0  0  2  0  0  0  0  0  0
  187.2380  175.2540  141.5090 C   0  0  0  0  0  3  0  0  0  0  0  0
  195.3580  171.4550  141.9620 O   0  0  0  0  0  0  0  0  0  0  0  0
  189.9760  178.2590  144.5400 C   0  0  0  0  0  2  0  0  0  0  0  0
  185.8430  178.6290  139.4620 O   0  0  0  0  0  1  0  0  0  0  0  0
  194.1880  171.4280  141.1830 C   0  0  2  0  0  3  0  0  0  0  0  0
  187.4580  175.3730  140.1280 C   0  0  0  0  0  0  0  0  0  0  0  0
  186.5410  176.2560  142.2000 C   0  0  0  0  0  0  0  0  0  0  0  0
  188.5520  177.5880  146.4420 N   0  0  0  0  0  0  0  0  0  0  0  0
  190.7710  171.1380  140.2600 C   0  0  0  0  0  2  0  0  0  0  0  0
  189.2570  172.1480  138.8670 C   0  0  1  0  0  3  0  0  0  0  0  0
  186.0800  177.3840  141.5140 C   0  0  0  0  0  3  0  0  0  0  0  0
  191.9290  174.0000  144.0510 C   0  0  0  0  0  2  0  0  0  0  0  0
  190.2390  176.1500  145.4410 C   0  0  0  0  0  0  0  0  0  0  0  0
  193.8790  173.1980  142.6750 C   0  0  2  0  0  3  0  0  0  0  0  0
  193.1120  172.1450  141.9480 C   0  0  0  0  0  2  0  0  0  0  0  0
  188.1450  174.3640  139.3740 N   0  0  0  0  0  2  0  0  0  0  0  0
  192.2980  175.6870  142.4090 O   0  0  0  0  0  1  0  0  0  0  0  0
  187.3750  177.0940  145.7560 C   0  0  0  0  0  0  0  0  0  0  0  0
  191.9530  175.4950  143.7480 C   0  0  1  0  0  3  0  0  0  0  0  0
  187.4450  176.7230  144.3750 N   0  0  0  0  0  2  0  0  0  0  0  0
  186.9900  176.5070  139.4530 C   0  0  0  0  0  3  0  0  0  0  0  0
  193.7770  169.9840  140.8440 C   0  0  1  0  0  3  0  0  0  0  0  0
  188.6080  173.0900  139.8480 C   0  0  0  0  0  0  0  0  0  0  0  0
  190.5520  177.4410  143.5330 O   0  0  0  0  0  0  0  0  0  0  0  0
  189.8970  177.5060  145.8540 C   0  0  1  0  0  3  0  0  0  0  0  0
  190.5750  176.1060  144.0020 C   0  0  2  0  0  3  0  0  0  0  0  0
  190.2130  175.1790  146.1820 O   0  0  0  0  0  0  0  0  0  0  0  0
  188.4250  172.7400  141.0440 O   0  0  0  0  0  0  0  0  0  0  0  0
  192.5780  169.9060  139.8850 C   0  0  0  0  0  2  0  0  0  0  0  0
  186.3160  176.1470  143.6660 C   0  0  0  0  0  2  0  0  0  0  0  0
  191.3750  169.9240  140.5970 O   0  0  0  0  0  0  0  0  0  0  0  0
  196.0110  174.0700  140.0220 C   0  0  0  0  0  2  0  0  0  0  0  0
  196.3480  173.6450  142.2560 C   0  0  1  0  0  3  0  0  0  0  0  0
  196.2950  175.4580  140.0210 O   0  0  0  0  0  0  0  0  0  0  0  0
  196.8120  173.3650  140.9440 O   0  0  0  0  0  0  0  0  0  0  0  0
  197.9260  176.1030  141.5120 O   0  0  0  0  0  1  0  0  0  0  0  0
  196.5480  175.9560  141.3270 C   0  0  2  0  0  3  0  0  0  0  0  0
  195.9240  175.1130  142.4590 C   0  0  2  0  0  3  0  0  0  0  0  0
  196.3130  175.6380  143.8490 C   0  0  1  0  0  3  0  0  0  0  0  0
  195.2350  176.3050  144.4340 O   0  0  0  0  0  1  0  0  0  0  0  0
  197.9290  173.8430  144.5000 O   0  0  0  0  0  0  0  0  0  0  0  0
  196.7510  174.5320  144.7520 C   0  0  0  0  0  0  0  0  0  0  0  0
  196.0500  174.2280  145.7520 O   0  0  0  0  0  1  0  0  0  0  0  0
  195.1340  169.4890  139.0580 C   0  0  0  0  0  1  0  0  0  0  0  0
  194.8650  169.1940  140.4060 O   0  0  0  0  0  0  0  0  0  0  0  0
  188.4460  178.1750  147.7520 C   0  0  0  0  0  0  0  0  0  0  0  0
  187.2640  178.3020  148.3500 C   0  0  0  0  0  2  0  0  0  0  0  0
  189.6530  178.7460  148.4240 C   0  0  0  0  0  2  0  0  0  0  0  0
  190.5960  177.6260  148.8240 C   0  0  0  0  0  1  0  0  0  0  0  0
  190.3350  172.8300  138.0220 C   0  0  0  0  0  2  0  0  0  0  0  0
  189.8630  172.9670  136.5860 C   0  0  0  0  0  2  0  0  0  0  0  0
  190.9080  172.3810  135.6530 C   0  0  0  0  0  2  0  0  0  0  0  0
  190.9640  174.7940  135.0100 C   0  0  0  0  0  1  0  0  0  0  0  0
  191.7500  173.4890  135.0380 C   0  0  1  0  0  3  0  0  0  0  0  0
  194.0400  172.8260  135.1520 F   0  0  0  0  0  0  0  0  0  0  0  0
  193.0930  173.6320  135.7590 C   0  0  1  0  0  3  0  0  0  0  0  0
  193.5810  175.0770  135.8000 C   0  0  0  0  0  2  0  0  0  0  0  0
  193.5460  175.5490  137.0980 F   0  0  0  0  0  0  0  0  0  0  0  0
  2 14  1  0  0  0  0
  3  7  1  6  0  0  0
  4 16  1  0  0  0  0
  6 12  1  0  0  0  0
  9  4  1  0  0  0  0
 10 20  1  1  0  0  0
 10  7  1  0  0  0  0
 11  6  2  0  0  0  0
 12 35  1  0  0  0  0
 13 51  1  0  0  0  0
 14 36  1  0  0  0  0
 15 55  1  1  0  0  0
 15  2  1  0  0  0  0
 15 28  1  0  0  0  0
 16 12  2  0  0  0  0
 17  5  1  0  0  0  0
 18 30  1  0  0  0  0
 18 32  2  0  0  0  0
 19 20  1  6  0  0  0
 19  3  1  0  0  0  0
 19  5  1  0  0  0  0
 21 28  1  0  0  0  0
 21 11  1  0  0  0  0
 23  1  2  0  0  0  0
 23 13  1  0  0  0  0
 24 22  1  6  0  0  0
 24 31  1  0  0  0  0
 24 17  1  0  0  0  0
 25 23  1  0  0  0  0
 26 11  1  0  0  0  0
 26  4  2  0  0  0  0
 27 50  1  6  0  0  0
 27 10  1  0  0  0  0
 28 33  2  0  0  0  0
 29  8  1  0  0  0  0
 30  8  1  6  0  0  0
 30 13  1  0  0  0  0
 31 29  1  1  0  0  0
 31 18  1  0  0  0  0
 34 36  1  0  0  0  0
 34 27  1  0  0  0  0
 35 25  1  0  0  0  0
 37 40  1  0  0  0  0
 38 40  1  6  0  0  0
 38 43  1  0  0  0  0
 38  3  1  0  0  0  0
 39 37  1  0  0  0  0
 39 42  1  0  0  0  0
 42 41  1  1  0  0  0
 42 43  1  0  0  0  0
 43 44  1  1  0  0  0
 44 45  1  1  0  0  0
 44 47  1  0  0  0  0
 46 47  2  0  0  0  0
 47 48  1  0  0  0  0
 49 50  1  0  0  0  0
 51 52  2  0  0  0  0
 51 53  1  0  0  0  0
 53 54  1  0  0  0  0
 56 55  1  0  0  0  0
 57 56  1  0  0  0  0
 59 58  1  1  0  0  0
 59 57  1  0  0  0  0
 59 61  1  0  0  0  0
 61 60  1  6  0  0  0
 61 62  1  0  0  0  0
 62 63  1  0  0  0  0
M  END
>  <MODEL>
6

>  <REMARK>
 VINA RESULT:      -4.1      1.679      2.130
  Name = 
  12 active torsions:
  status: ('A' for Active; 'I' for Inactive)
    1  A    between atoms: C_3  and  C_7
    2  A    between atoms: C_4  and  C_28
    3  A    between atoms: C_7  and  N_22
    4  A    between atoms: C_8  and  C_54
    5  A    between atoms: C_14  and  C_41
    6  A    between atoms: C_14  and  C_44
    7  A    between atoms: C_15  and  C_34
    8  A    between atoms: C_15  and  C_62
    9  A    between atoms: O_18  and  C_46
   10  A    between atoms: C_24  and  C_29
   11  A    between atoms: C_29  and  C_44
   12  A    between atoms: C_41  and  C_54
                            x       y       z     vdW  Elec       q    Type
                         _______ _______ _______ _____ _____    ______ ____

>  <TORSDO>
F 12

$$$$
=
 OpenBabel11072409363D

 63 67  0  0  1  0  0  0  0  0999 V2000
  187.3940  178.9850  144.4800 O   0  0  0  0  0  0  0  0  0  0  0  0
  195.7530  175.7120  140.4830 O   0  0  0  0  0  0  0  0  0  0  0  0
  191.0440  172.6070  136.7790 C   0  0  2  0  0  3  0  0  0  0  0  0
  191.9730  175.4670  146.8850 C   0  0  0  0  0  0  0  0  0  0  0  0
  189.9200  174.3730  138.1470 C   0  0  0  0  0  2  0  0  0  0  0  0
  192.0420  176.5480  144.3050 C   0  0  0  0  0  3  0  0  0  0  0  0
  192.3250  172.7020  136.2000 O   0  0  0  0  0  0  0  0  0  0  0  0
  187.3610  174.7870  143.4730 C   0  0  0  0  0  2  0  0  0  0  0  0
  191.9410  174.9280  148.1640 O   0  0  0  0  0  1  0  0  0  0  0  0
  193.1830  173.1470  137.2210 C   0  0  2  0  0  3  0  0  0  0  0  0
  193.0130  175.6130  144.6950 C   0  0  0  0  0  0  0  0  0  0  0  0
  191.0480  176.9490  145.2090 C   0  0  0  0  0  0  0  0  0  0  0  0
  186.5400  177.1130  143.3460 N   0  0  0  0  0  0  0  0  0  0  0  0
  194.7480  175.2500  139.6160 C   0  0  0  0  0  2  0  0  0  0  0  0
  195.5450  175.1440  141.7620 C   0  0  1  0  0  3  0  0  0  0  0  0
  191.0140  176.4030  146.4960 C   0  0  0  0  0  3  0  0  0  0  0  0
  189.8630  175.0860  139.4930 C   0  0  0  0  0  2  0  0  0  0  0  0
  187.8400  176.0380  141.5930 C   0  0  0  0  0  0  0  0  0  0  0  0
  191.0320  173.3360  138.1120 C   0  0  2  0  0  3  0  0  0  0  0  0
  192.3720  173.9900  138.1640 C   0  0  0  0  0  2  0  0  0  0  0  0
  194.0630  175.1890  143.8130 N   0  0  0  0  0  2  0  0  0  0  0  0
  190.0890  173.1870  140.9150 O   0  0  0  0  0  1  0  0  0  0  0  0
  187.6000  177.8250  144.0310 C   0  0  0  0  0  0  0  0  0  0  0  0
  189.2180  174.2230  140.5730 C   0  0  1  0  0  3  0  0  0  0  0  0
  188.8880  177.2240  144.1950 N   0  0  0  0  0  2  0  0  0  0  0  0
  192.9690  175.0750  145.9870 C   0  0  0  0  0  3  0  0  0  0  0  0
  194.3770  173.9280  136.6460 C   0  0  1  0  0  3  0  0  0  0  0  0
  194.3490  175.6900  142.4990 C   0  0  0  0  0  0  0  0  0  0  0  0
  188.5190  174.2230  142.8770 O   0  0  0  0  0  0  0  0  0  0  0  0
  186.7860  175.8760  142.5880 C   0  0  1  0  0  3  0  0  0  0  0  0
  188.9300  175.0640  141.8170 C   0  0  2  0  0  3  0  0  0  0  0  0
  187.8330  176.8900  140.7180 O   0  0  0  0  0  0  0  0  0  0  0  0
  193.6510  176.6080  141.9910 O   0  0  0  0  0  0  0  0  0  0  0  0
  195.4110  174.3230  137.7130 C   0  0  0  0  0  2  0  0  0  0  0  0
  190.0050  177.9280  144.8010 C   0  0  0  0  0  2  0  0  0  0  0  0
  195.0770  175.5510  138.2920 O   0  0  0  0  0  0  0  0  0  0  0  0
  191.1620  170.0530  134.9490 C   0  0  0  0  0  2  0  0  0  0  0  0
  190.6150  171.1380  136.9000 C   0  0  1  0  0  3  0  0  0  0  0  0
  191.5840  168.8170  135.5000 O   0  0  0  0  0  0  0  0  0  0  0  0
  190.1000  170.6250  135.6800 O   0  0  0  0  0  0  0  0  0  0  0  0
  190.4370  168.1690  137.3870 O   0  0  0  0  0  1  0  0  0  0  0  0
  191.5760  168.8320  136.9210 C   0  0  2  0  0  3  0  0  0  0  0  0
  191.6910  170.2400  137.5410 C   0  0  2  0  0  3  0  0  0  0  0  0
  191.5750  170.2060  139.0720 C   0  0  1  0  0  3  0  0  0  0  0  0
  190.2450  170.0230  139.4550 O   0  0  0  0  0  1  0  0  0  0  0  0
  191.8330  168.1660  140.4970 O   0  0  0  0  0  1  0  0  0  0  0  0
  192.4070  169.1150  139.6620 C   0  0  0  0  0  0  0  0  0  0  0  0
  193.6360  169.0520  139.3970 O   0  0  0  0  0  0  0  0  0  0  0  0
  196.3280  173.0380  135.8210 C   0  0  0  0  0  1  0  0  0  0  0  0
  194.9720  173.2800  135.5380 O   0  0  0  0  0  0  0  0  0  0  0  0
  185.1870  177.6030  143.3740 C   0  0  0  0  0  0  0  0  0  0  0  0
  184.5610  177.9400  142.2490 C   0  0  0  0  0  2  0  0  0  0  0  0
  184.4940  177.8360  144.6770 C   0  0  0  0  0  2  0  0  0  0  0  0
  185.1050  176.9530  145.7490 C   0  0  0  0  0  1  0  0  0  0  0  0
  195.5970  173.6150  141.7780 C   0  0  0  0  0  2  0  0  0  0  0  0
  196.4100  173.1320  142.9640 C   0  0  0  0  0  2  0  0  0  0  0  0
  196.2390  171.6310  143.1160 C   0  0  0  0  0  2  0  0  0  0  0  0
  194.6310  169.8380  143.7780 C   0  0  0  0  0  1  0  0  0  0  0  0
  194.9740  171.3180  143.9010 C   0  0  1  0  0  3  0  0  0  0  0  0
  194.0270  171.2890  146.0920 F   0  0  0  0  0  0  0  0  0  0  0  0
  195.1000  171.7670  145.3590 C   0  0  1  0  0  3  0  0  0  0  0  0
  196.4120  171.3210  145.9960 C   0  0  0  0  0  2  0  0  0  0  0  0
  197.2040  172.4220  146.2620 F   0  0  0  0  0  0  0  0  0  0  0  0
  2 15  1  0  0  0  0
  3  7  1  1  0  0  0
  3 38  1  0  0  0  0
  3 19  1  0  0  0  0
  4  9  1  0  0  0  0
  5 17  1  0  0  0  0
  6 11  2  0  0  0  0
  6 12  1  0  0  0  0
  7 10  1  0  0  0  0
 10 20  1  1  0  0  0
 11 26  1  0  0  0  0
 12 16  2  0  0  0  0
 13 51  1  0  0  0  0
 13 23  1  0  0  0  0
 14  2  1  0  0  0  0
 15 55  1  6  0  0  0
 15 28  1  0  0  0  0
 16  4  1  0  0  0  0
 17 24  1  0  0  0  0
 18 30  1  0  0  0  0
 19  5  1  6  0  0  0
 19 20  1  0  0  0  0
 21 11  1  0  0  0  0
 23 25  1  0  0  0  0
 23  1  2  0  0  0  0
 24 22  1  1  0  0  0
 24 31  1  0  0  0  0
 25 35  1  0  0  0  0
 26  4  2  0  0  0  0
 27 50  1  6  0  0  0
 27 10  1  0  0  0  0
 27 34  1  0  0  0  0
 28 21  1  0  0  0  0
 29  8  1  0  0  0  0
 30 13  1  0  0  0  0
 30  8  1  1  0  0  0
 31 18  1  6  0  0  0
 31 29  1  0  0  0  0
 32 18  2  0  0  0  0
 33 28  2  0  0  0  0
 34 36  1  0  0  0  0
 35 12  1  0  0  0  0
 36 14  1  0  0  0  0
 37 39  1  0  0  0  0
 37 40  1  0  0  0  0
 38 40  1  6  0  0  0
 38 43  1  0  0  0  0
 39 42  1  0  0  0  0
 42 41  1  6  0  0  0
 42 43  1  0  0  0  0
 43 44  1  1  0  0  0
 44 45  1  6  0  0  0
 44 47  1  0  0  0  0
 47 46  1  0  0  0  0
 48 47  2  0  0  0  0
 50 49  1  0  0  0  0
 51 53  1  0  0  0  0
 52 51  2  0  0  0  0
 53 54  1  0  0  0  0
 55 56  1  0  0  0  0
 56 57  1  0  0  0  0
 57 59  1  0  0  0  0
 59 58  1  1  0  0  0
 59 61  1  0  0  0  0
 61 62  1  0  0  0  0
 61 60  1  1  0  0  0
 62 63  1  0  0  0  0
M  END
>  <MODEL>
7

>  <REMARK>
 VINA RESULT:      -4.0      3.227      7.324
  Name = 
  12 active torsions:
  status: ('A' for Active; 'I' for Inactive)
    1  A    between atoms: C_3  and  C_7
    2  A    between atoms: C_4  and  C_28
    3  A    between atoms: C_7  and  N_22
    4  A    between atoms: C_8  and  C_54
    5  A    between atoms: C_14  and  C_41
    6  A    between atoms: C_14  and  C_44
    7  A    between atoms: C_15  and  C_34
    8  A    between atoms: C_15  and  C_62
    9  A    between atoms: O_18  and  C_46
   10  A    between atoms: C_24  and  C_29
   11  A    between atoms: C_29  and  C_44
   12  A    between atoms: C_41  and  C_54
                            x       y       z     vdW  Elec       q    Type
                         _______ _______ _______ _____ _____    ______ ____

>  <TORSDO>
F 12

$$$$
=
 OpenBabel11072409363D

 63 67  0  0  1  0  0  0  0  0999 V2000
  188.5140  175.7890  146.7660 O   0  0  0  0  0  0  0  0  0  0  0  0
  189.3140  170.7800  138.3490 O   0  0  0  0  0  0  0  0  0  0  0  0
  195.7590  171.9100  139.9980 C   0  0  2  0  0  3  0  0  0  0  0  0
  186.7130  177.2440  140.9550 C   0  0  0  0  0  0  0  0  0  0  0  0
  194.3360  172.4870  141.9730 C   0  0  0  0  0  2  0  0  0  0  0  0
  187.8780  174.7960  141.6490 C   0  0  0  0  0  3  0  0  0  0  0  0
  195.5260  170.8550  139.0940 O   0  0  0  0  0  0  0  0  0  0  0  0
  191.5640  177.2730  144.0940 C   0  0  0  0  0  2  0  0  0  0  0  0
  186.1380  178.4590  140.6080 O   0  0  0  0  0  1  0  0  0  0  0  0
  194.1780  170.9610  138.7090 C   0  0  2  0  0  3  0  0  0  0  0  0
  187.6830  175.1170  140.2970 C   0  0  0  0  0  0  0  0  0  0  0  0
  187.4770  175.6930  142.6500 C   0  0  0  0  0  0  0  0  0  0  0  0
  190.7330  176.3460  146.2260 N   0  0  0  0  0  0  0  0  0  0  0  0
  190.6310  170.8620  138.8320 C   0  0  0  0  0  2  0  0  0  0  0  0
  188.8340  172.0910  138.1170 C   0  0  1  0  0  3  0  0  0  0  0  0
  186.9000  176.9180  142.2990 C   0  0  0  0  0  3  0  0  0  0  0  0
  193.0290  173.1080  142.4530 C   0  0  0  0  0  2  0  0  0  0  0  0
  191.9590  175.0500  144.5720 C   0  0  0  0  0  0  0  0  0  0  0  0
  194.4310  172.4920  140.4550 C   0  0  2  0  0  3  0  0  0  0  0  0
  193.4220  171.5710  139.8550 C   0  0  0  0  0  2  0  0  0  0  0  0
  188.0550  174.2220  139.2380 N   0  0  0  0  0  2  0  0  0  0  0  0
  192.9920  175.0160  141.0260 O   0  0  0  0  0  1  0  0  0  0  0  0
  189.3790  175.9770  145.8670 C   0  0  0  0  0  0  0  0  0  0  0  0
  193.0500  174.6310  142.3660 C   0  0  1  0  0  3  0  0  0  0  0  0
  189.0130  175.8160  144.4930 N   0  0  0  0  0  2  0  0  0  0  0  0
  187.1040  176.3460  139.9590 C   0  0  0  0  0  3  0  0  0  0  0  0
  193.6010  169.5910  138.3140 C   0  0  1  0  0  3  0  0  0  0  0  0
  188.5610  172.8850  139.3680 C   0  0  0  0  0  0  0  0  0  0  0  0
  191.7660  176.6070  142.8570 O   0  0  0  0  0  0  0  0  0  0  0  0
  191.8360  176.3340  145.2530 C   0  0  1  0  0  3  0  0  0  0  0  0
  191.8480  175.2170  143.1070 C   0  0  2  0  0  3  0  0  0  0  0  0
  192.0970  173.9800  145.1450 O   0  0  0  0  0  0  0  0  0  0  0  0
  188.7220  172.3630  140.5040 O   0  0  0  0  0  0  0  0  0  0  0  0
  192.1690  169.6740  137.7620 C   0  0  0  0  0  2  0  0  0  0  0  0
  187.6920  175.3700  144.0850 C   0  0  0  0  0  2  0  0  0  0  0  0
  191.2350  169.6030  138.8000 O   0  0  0  0  0  0  0  0  0  0  0  0
  197.8200  171.9910  137.6250 C   0  0  0  0  0  2  0  0  0  0  0  0
  196.6860  172.9620  139.3730 C   0  0  1  0  0  3  0  0  0  0  0  0
  197.8060  173.0850  136.7240 O   0  0  0  0  0  0  0  0  0  0  0  0
  197.9300  172.4100  138.9680 O   0  0  0  0  0  0  0  0  0  0  0  0
  197.9410  175.1520  137.7270 O   0  0  0  0  0  1  0  0  0  0  0  0
  197.0630  174.1860  137.2280 C   0  0  2  0  0  3  0  0  0  0  0  0
  196.0010  173.8060  138.2810 C   0  0  2  0  0  3  0  0  0  0  0  0
  195.2990  175.0410  138.8630 C   0  0  1  0  0  3  0  0  0  0  0  0
  196.1660  175.7410  139.7050 O   0  0  0  0  0  1  0  0  0  0  0  0
  193.6660  176.7110  137.9670 O   0  0  0  0  0  1  0  0  0  0  0  0
  194.8190  175.9590  137.7870 C   0  0  0  0  0  0  0  0  0  0  0  0
  195.4670  176.0570  136.7120 O   0  0  0  0  0  0  0  0  0  0  0  0
  194.3930  169.4000  136.1660 C   0  0  0  0  0  1  0  0  0  0  0  0
  194.4610  168.8600  137.4620 O   0  0  0  0  0  0  0  0  0  0  0  0
  191.0560  176.7320  147.5750 C   0  0  0  0  0  0  0  0  0  0  0  0
  191.7610  175.9260  148.3650 C   0  0  0  0  0  2  0  0  0  0  0  0
  190.5210  178.0060  148.1450 C   0  0  0  0  0  2  0  0  0  0  0  0
  191.1250  178.2480  149.5160 C   0  0  0  0  0  1  0  0  0  0  0  0
  189.6490  172.8770  137.0880 C   0  0  0  0  0  2  0  0  0  0  0  0
  190.5790  173.8480  137.7900 C   0  0  0  0  0  2  0  0  0  0  0  0
  191.8370  174.0330  136.9590 C   0  0  0  0  0  2  0  0  0  0  0  0
  191.1240  176.0310  135.6410 C   0  0  0  0  0  1  0  0  0  0  0  0
  191.4860  174.5520  135.5730 C   0  0  1  0  0  3  0  0  0  0  0  0
  193.4710  175.3550  134.5200 F   0  0  0  0  0  0  0  0  0  0  0  0
  192.6110  174.2720  134.5730 C   0  0  1  0  0  3  0  0  0  0  0  0
  193.3850  173.0020  134.9080 C   0  0  0  0  0  2  0  0  0  0  0  0
  194.7420  173.2640  134.9090 F   0  0  0  0  0  0  0  0  0  0  0  0
  2 14  1  0  0  0  0
  3  7  1  6  0  0  0
  3 19  1  0  0  0  0
  4 16  1  0  0  0  0
  5 17  1  0  0  0  0
  6 12  1  0  0  0  0
  9  4  1  0  0  0  0
 10  7  1  0  0  0  0
 10 20  1  1  0  0  0
 11  6  2  0  0  0  0
 12 35  1  0  0  0  0
 13 51  1  0  0  0  0
 15 55  1  6  0  0  0
 15  2  1  0  0  0  0
 15 28  1  0  0  0  0
 16 12  2  0  0  0  0
 18 32  2  0  0  0  0
 18 30  1  0  0  0  0
 19 20  1  6  0  0  0
 19  5  1  0  0  0  0
 21 28  1  0  0  0  0
 21 11  1  0  0  0  0
 23 13  1  0  0  0  0
 23  1  2  0  0  0  0
 24 22  1  6  0  0  0
 24 17  1  0  0  0  0
 24 31  1  0  0  0  0
 25 23  1  0  0  0  0
 26 11  1  0  0  0  0
 26  4  2  0  0  0  0
 27 50  1  6  0  0  0
 27 10  1  0  0  0  0
 28 33  2  0  0  0  0
 29  8  1  0  0  0  0
 30  8  1  6  0  0  0
 30 13  1  0  0  0  0
 31 29  1  1  0  0  0
 31 18  1  0  0  0  0
 34 27  1  0  0  0  0
 34 36  1  0  0  0  0
 35 25  1  0  0  0  0
 36 14  1  0  0  0  0
 37 40  1  0  0  0  0
 38 40  1  6  0  0  0
 38  3  1  0  0  0  0
 39 42  1  0  0  0  0
 39 37  1  0  0  0  0
 42 41  1  1  0  0  0
 42 43  1  0  0  0  0
 43 44  1  1  0  0  0
 43 38  1  0  0  0  0
 44 45  1  1  0  0  0
 47 46  1  0  0  0  0
 47 44  1  0  0  0  0
 48 47  2  0  0  0  0
 49 50  1  0  0  0  0
 51 53  1  0  0  0  0
 51 52  2  0  0  0  0
 53 54  1  0  0  0  0
 55 56  1  0  0  0  0
 57 56  1  0  0  0  0
 59 58  1  1  0  0  0
 59 57  1  0  0  0  0
 61 60  1  1  0  0  0
 61 62  1  0  0  0  0
 61 59  1  0  0  0  0
 62 63  1  0  0  0  0
M  END
>  <MODEL>
8

>  <REMARK>
 VINA RESULT:      -2.9      1.293      1.876
  Name = 
  12 active torsions:
  status: ('A' for Active; 'I' for Inactive)
    1  A    between atoms: C_3  and  C_7
    2  A    between atoms: C_4  and  C_28
    3  A    between atoms: C_7  and  N_22
    4  A    between atoms: C_8  and  C_54
    5  A    between atoms: C_14  and  C_41
    6  A    between atoms: C_14  and  C_44
    7  A    between atoms: C_15  and  C_34
    8  A    between atoms: C_15  and  C_62
    9  A    between atoms: O_18  and  C_46
   10  A    between atoms: C_24  and  C_29
   11  A    between atoms: C_29  and  C_44
   12  A    between atoms: C_41  and  C_54
                            x       y       z     vdW  Elec       q    Type
                         _______ _______ _______ _____ _____    ______ ____

>  <TORSDO>
F 12

$$$$
=
 OpenBabel11072409363D

 63 67  0  0  1  0  0  0  0  0999 V2000
  187.6470  178.8120  144.7520 O   0  0  0  0  0  0  0  0  0  0  0  0
  196.6430  175.5860  142.4670 O   0  0  0  0  0  0  0  0  0  0  0  0
  192.7650  172.4550  137.9170 C   0  0  2  0  0  3  0  0  0  0  0  0
  191.6870  175.3190  148.0080 C   0  0  0  0  0  0  0  0  0  0  0  0
  191.3870  174.2150  139.0370 C   0  0  0  0  0  2  0  0  0  0  0  0
  192.2520  176.4000  145.4890 C   0  0  0  0  0  3  0  0  0  0  0  0
  194.1350  172.5570  137.5990 O   0  0  0  0  0  0  0  0  0  0  0  0
  187.8340  174.6140  143.7610 C   0  0  0  0  0  2  0  0  0  0  0  0
  191.4080  174.7800  149.2560 O   0  0  0  0  0  1  0  0  0  0  0  0
  194.7740  173.0070  138.7680 C   0  0  2  0  0  3  0  0  0  0  0  0
  193.1340  175.4710  146.0630 C   0  0  0  0  0  0  0  0  0  0  0  0
  191.0990  176.7960  146.1820 C   0  0  0  0  0  0  0  0  0  0  0  0
  187.0410  176.9350  143.4740 N   0  0  0  0  0  0  0  0  0  0  0  0
  195.8300  175.1180  141.4210 C   0  0  0  0  0  2  0  0  0  0  0  0
  196.1920  175.0160  143.6810 C   0  0  1  0  0  3  0  0  0  0  0  0
  190.8170  176.2500  147.4380 C   0  0  0  0  0  3  0  0  0  0  0  0
  191.0630  174.9280  140.3460 C   0  0  0  0  0  2  0  0  0  0  0  0
  188.6640  175.8680  142.0100 C   0  0  0  0  0  0  0  0  0  0  0  0
  192.4890  173.1840  139.2220 C   0  0  2  0  0  3  0  0  0  0  0  0
  193.7900  173.8450  139.5340 C   0  0  0  0  0  2  0  0  0  0  0  0
  194.3380  175.0530  145.4040 N   0  0  0  0  0  2  0  0  0  0  0  0
  191.0180  173.0290  141.7860 O   0  0  0  0  0  1  0  0  0  0  0  0
  187.9420  177.6530  144.3520 C   0  0  0  0  0  0  0  0  0  0  0  0
  190.2250  174.0610  141.2800 C   0  0  1  0  0  3  0  0  0  0  0  0
  189.1770  177.0590  144.7650 N   0  0  0  0  0  2  0  0  0  0  0  0
  192.8410  174.9320  147.3220 C   0  0  0  0  0  3  0  0  0  0  0  0
  196.0530  173.7940  138.4370 C   0  0  1  0  0  3  0  0  0  0  0  0
  194.8720  175.5560  144.1700 C   0  0  0  0  0  0  0  0  0  0  0  0
  189.0890  174.0560  143.4030 O   0  0  0  0  0  0  0  0  0  0  0  0
  187.4370  175.7000  142.7800 C   0  0  1  0  0  3  0  0  0  0  0  0
  189.6950  174.9000  142.4430 C   0  0  2  0  0  3  0  0  0  0  0  0
  188.8240  176.7200  141.1490 O   0  0  0  0  0  0  0  0  0  0  0  0
  194.2820  176.4700  143.5350 O   0  0  0  0  0  0  0  0  0  0  0  0
  196.8570  174.1950  139.6850 C   0  0  0  0  0  2  0  0  0  0  0  0
  190.1500  177.7690  145.5770 C   0  0  0  0  0  2  0  0  0  0  0  0
  196.4090  175.4210  140.1870 O   0  0  0  0  0  0  0  0  0  0  0  0
  190.0320  170.9030  137.9950 C   0  0  0  0  0  2  0  0  0  0  0  0
  192.3290  170.9840  137.9530 C   0  0  1  0  0  3  0  0  0  0  0  0
  189.8400  169.7830  137.1470 O   0  0  0  0  0  0  0  0  0  0  0  0
  191.1950  170.7790  138.7820 O   0  0  0  0  0  0  0  0  0  0  0  0
  191.4700  168.1670  137.3120 O   0  0  0  0  0  1  0  0  0  0  0  0
  191.0630  169.3030  136.6060 C   0  0  2  0  0  3  0  0  0  0  0  0
  192.1890  170.3560  136.5530 C   0  0  2  0  0  3  0  0  0  0  0  0
  193.5130  169.7570  136.0550 C   0  0  1  0  0  3  0  0  0  0  0  0
  193.2830  168.5450  135.4000 O   0  0  0  0  0  1  0  0  0  0  0  0
  195.5910  170.5650  134.9200 O   0  0  0  0  0  1  0  0  0  0  0  0
  194.2230  170.6860  135.1270 C   0  0  0  0  0  0  0  0  0  0  0  0
  193.5770  171.5820  134.5230 O   0  0  0  0  0  0  0  0  0  0  0  0
  197.9400  173.9850  137.1400 C   0  0  0  0  0  1  0  0  0  0  0  0
  196.8570  173.1510  137.4670 O   0  0  0  0  0  0  0  0  0  0  0  0
  185.7060  177.4180  143.2360 C   0  0  0  0  0  0  0  0  0  0  0  0
  185.3890  178.0110  142.0870 C   0  0  0  0  0  2  0  0  0  0  0  0
  184.6750  177.3520  144.3160 C   0  0  0  0  0  2  0  0  0  0  0  0
  185.3470  177.1160  145.6560 C   0  0  0  0  0  1  0  0  0  0  0  0
  196.2490  173.4870  143.7080 C   0  0  0  0  0  2  0  0  0  0  0  0
  197.3570  173.0220  144.6330 C   0  0  0  0  0  2  0  0  0  0  0  0
  197.9390  171.7200  144.1100 C   0  0  0  0  0  2  0  0  0  0  0  0
  196.6290  171.0460  146.1260 C   0  0  0  0  0  1  0  0  0  0  0  0
  197.5830  170.5690  145.0380 C   0  0  1  0  0  3  0  0  0  0  0  0
  196.7090  168.3500  145.1270 F   0  0  0  0  0  0  0  0  0  0  0  0
  197.0260  169.3770  144.2550 C   0  0  1  0  0  3  0  0  0  0  0  0
  195.8070  169.7480  143.4170 C   0  0  0  0  0  2  0  0  0  0  0  0
  194.6520  169.5500  144.1500 F   0  0  0  0  0  0  0  0  0  0  0  0
  2 15  1  0  0  0  0
  3  7  1  1  0  0  0
  3 38  1  0  0  0  0
  3 19  1  0  0  0  0
  4  9  1  0  0  0  0
  5 17  1  0  0  0  0
  6 11  2  0  0  0  0
  6 12  1  0  0  0  0
  7 10  1  0  0  0  0
 10 20  1  6  0  0  0
 11 26  1  0  0  0  0
 12 16  2  0  0  0  0
 13 23  1  0  0  0  0
 14  2  1  0  0  0  0
 15 55  1  6  0  0  0
 15 28  1  0  0  0  0
 16  4  1  0  0  0  0
 17 24  1  0  0  0  0
 18 30  1  0  0  0  0
 19  5  1  6  0  0  0
 19 20  1  0  0  0  0
 21 11  1  0  0  0  0
 23  1  2  0  0  0  0
 23 25  1  0  0  0  0
 24 22  1  1  0  0  0
 24 31  1  0  0  0  0
 25 35  1  0  0  0  0
 26  4  2  0  0  0  0
 27 50  1  6  0  0  0
 27 10  1  0  0  0  0
 27 34  1  0  0  0  0
 28 21  1  0  0  0  0
 29  8  1  0  0  0  0
 30 13  1  0  0  0  0
 30  8  1  1  0  0  0
 31 18  1  6  0  0  0
 31 29  1  0  0  0  0
 32 18  2  0  0  0  0
 33 28  2  0  0  0  0
 34 36  1  0  0  0  0
 35 12  1  0  0  0  0
 36 14  1  0  0  0  0
 37 40  1  0  0  0  0
 38 40  1  6  0  0  0
 39 37  1  0  0  0  0
 42 39  1  0  0  0  0
 42 41  1  1  0  0  0
 43 44  1  1  0  0  0
 43 42  1  0  0  0  0
 43 38  1  0  0  0  0
 44 45  1  6  0  0  0
 46 47  1  0  0  0  0
 47 44  1  0  0  0  0
 48 47  2  0  0  0  0
 49 50  1  0  0  0  0
 51 13  1  0  0  0  0
 51 53  1  0  0  0  0
 52 51  2  0  0  0  0
 53 54  1  0  0  0  0
 55 56  1  0  0  0  0
 57 56  1  0  0  0  0
 57 59  1  0  0  0  0
 59 58  1  1  0  0  0
 61 59  1  0  0  0  0
 61 60  1  1  0  0  0
 62 63  1  0  0  0  0
 62 61  1  0  0  0  0
M  END
>  <MODEL>
9

>  <REMARK>
 VINA RESULT:      -2.9      3.426      7.669
  Name = 
  12 active torsions:
  status: ('A' for Active; 'I' for Inactive)
    1  A    between atoms: C_3  and  C_7
    2  A    between atoms: C_4  and  C_28
    3  A    between atoms: C_7  and  N_22
    4  A    between atoms: C_8  and  C_54
    5  A    between atoms: C_14  and  C_41
    6  A    between atoms: C_14  and  C_44
    7  A    between atoms: C_15  and  C_34
    8  A    between atoms: C_15  and  C_62
    9  A    between atoms: O_18  and  C_46
   10  A    between atoms: C_24  and  C_29
   11  A    between atoms: C_29  and  C_44
   12  A    between atoms: C_41  and  C_54
                            x       y       z     vdW  Elec       q    Type
                         _______ _______ _______ _____ _____    ______ ____

>  <TORSDO>
F 12

$$$$
