=
 OpenBabel11062419543D

 28 30  0  0  1  0  0  0  0  0999 V2000
  190.8340  173.8680  142.7010 C   0  0  0  0  0  2  0  0  0  0  0  0
  189.3120  174.0360  142.8050 C   0  0  2  0  0  0  0  0  0  0  0  0
  191.6080  174.8570  143.5750 C   0  0  0  0  0  2  0  0  0  0  0  0
  188.9760  174.2320  144.1380 F   0  0  0  0  0  0  0  0  0  0  0  0
  193.1400  176.2640  142.3970 O   0  0  0  0  0  1  0  0  0  0  0  0
  188.2720  173.6050  140.0730 C   0  0  0  0  0  0  0  0  0  0  0  0
  191.4960  177.3410  143.7610 C   0  0  0  0  0  0  0  0  0  0  0  0
  188.6330  172.7280  142.3780 C   0  0  0  0  0  2  0  0  0  0  0  0
  191.8250  176.1810  142.8580 C   0  0  2  0  0  3  0  0  0  0  0  0
  188.8650  175.2540  141.9420 C   0  0  1  0  0  3  0  0  0  0  0  0
  187.7520  175.9060  139.9130 O   0  0  0  0  0  0  0  0  0  0  0  0
  190.1110  177.8190  143.9020 C   0  0  0  0  0  3  0  0  0  0  0  0
  187.9980  173.3750  138.8660 O   0  0  0  0  0  0  0  0  0  0  0  0
  188.6570  172.5390  140.9340 N   0  0  0  0  0  2  0  0  0  0  0  0
  188.2290  174.9680  140.6060 C   0  0  0  0  0  0  0  0  0  0  0  0
  188.2830  176.4100  142.6960 C   0  0  0  0  0  0  0  0  0  0  0  0
  192.4060  177.8990  144.4310 O   0  0  0  0  0  0  0  0  0  0  0  0
  189.1440  177.1700  143.3160 C   0  0  0  0  0  0  0  0  0  0  0  0
  186.8830  176.4240  143.0110 N   0  0  0  0  0  2  0  0  0  0  0  0
  186.3260  177.3120  146.6180 C   0  0  2  0  0  3  0  0  0  0  0  0
  185.7860  179.5040  147.3460 O   0  0  0  0  0  0  0  0  0  0  0  0
  185.9840  176.4110  145.4230 C   0  0  0  0  0  2  0  0  0  0  0  0
  185.8110  178.7200  146.4110 C   0  0  0  0  0  0  0  0  0  0  0  0
  185.2610  179.1470  145.0770 C   0  0  0  0  0  2  0  0  0  0  0  0
  186.2480  177.0990  144.1050 C   0  0  0  0  0  0  0  0  0  0  0  0
  185.9200  178.3850  143.9630 C   0  0  0  0  0  3  0  0  0  0  0  0
  187.8330  177.3090  146.8480 C   0  0  0  0  0  2  0  0  0  0  0  0
  188.3690  175.8900  146.8500 C   0  0  0  0  0  1  0  0  0  0  0  0
  1  2  1  0  0  0  0
  1  3  1  0  0  0  0
  2  4  1  1  0  0  0
  6 15  1  0  0  0  0
  6 14  1  0  0  0  0
  7 12  1  0  0  0  0
  7 17  2  0  0  0  0
  8  2  1  0  0  0  0
  9  5  1  1  0  0  0
  9  3  1  0  0  0  0
  9  7  1  0  0  0  0
 10 15  1  6  0  0  0
 10 16  1  0  0  0  0
 10  2  1  0  0  0  0
 11 15  2  0  0  0  0
 13  6  2  0  0  0  0
 14  8  1  0  0  0  0
 16 19  1  0  0  0  0
 16 18  2  0  0  0  0
 18 12  2  0  0  0  0
 19 25  1  0  0  0  0
 20 27  1  6  0  0  0
 22 20  1  0  0  0  0
 23 20  1  0  0  0  0
 23 21  2  0  0  0  0
 24 23  1  0  0  0  0
 25 22  1  0  0  0  0
 26 25  2  0  0  0  0
 26 24  1  0  0  0  0
 27 28  1  0  0  0  0
M  END
>  <MODEL>
1

>  <REMARK>
 VINA RESULT:      -7.4      0.000      0.000
  Name = 
  3 active torsions:
  status: ('A' for Active; 'I' for Inactive)
    1  A    between atoms: C_1  and  C_2
    2  A    between atoms: N_6  and  C_18
    3  A    between atoms: N_6  and  C_26
                            x       y       z     vdW  Elec       q    Type
                         _______ _______ _______ _____ _____    ______ ____

>  <TORSDO>
F 3

$$$$
=
 OpenBabel11062419543D

 28 30  0  0  1  0  0  0  0  0999 V2000
  186.4180  176.9680  143.4570 C   0  0  0  0  0  2  0  0  0  0  0  0
  187.9160  176.9350  143.1260 C   0  0  2  0  0  0  0  0  0  0  0  0
  186.0990  177.7830  144.7130 C   0  0  0  0  0  2  0  0  0  0  0  0
  188.4410  178.2080  143.3090 F   0  0  0  0  0  0  0  0  0  0  0  0
  184.9740  176.5770  146.4430 O   0  0  0  0  0  1  0  0  0  0  0  0
  188.4590  174.1960  142.1590 C   0  0  0  0  0  0  0  0  0  0  0  0
  187.0140  177.6810  147.0300 C   0  0  0  0  0  0  0  0  0  0  0  0
  188.0930  176.6060  141.6380 C   0  0  0  0  0  2  0  0  0  0  0  0
  186.2370  176.9410  145.9720 C   0  0  2  0  0  3  0  0  0  0  0  0
  188.6290  175.9090  144.0560 C   0  0  1  0  0  3  0  0  0  0  0  0
  189.6630  173.7390  144.1420 O   0  0  0  0  0  0  0  0  0  0  0  0
  188.4860  177.6590  147.0380 C   0  0  0  0  0  3  0  0  0  0  0  0
  188.5120  173.0050  141.7550 O   0  0  0  0  0  0  0  0  0  0  0  0
  187.8520  175.1980  141.3510 N   0  0  0  0  0  2  0  0  0  0  0  0
  188.9910  174.5680  143.4720 C   0  0  0  0  0  0  0  0  0  0  0  0
  189.6280  176.4810  145.0160 C   0  0  0  0  0  0  0  0  0  0  0  0
  186.4080  178.3520  147.9070 O   0  0  0  0  0  0  0  0  0  0  0  0
  189.1260  177.0770  146.0630 C   0  0  0  0  0  0  0  0  0  0  0  0
  190.9850  176.6830  144.5970 N   0  0  0  0  0  2  0  0  0  0  0  0
  193.4750  174.3050  146.0970 C   0  0  2  0  0  3  0  0  0  0  0  0
  195.8170  174.6770  146.0480 O   0  0  0  0  0  0  0  0  0  0  0  0
  192.2080  175.1560  146.2680 C   0  0  0  0  0  2  0  0  0  0  0  0
  194.7060  175.1750  145.9590 C   0  0  0  0  0  0  0  0  0  0  0  0
  194.5780  176.6630  145.7820 C   0  0  0  0  0  2  0  0  0  0  0  0
  192.1760  176.3190  145.3070 C   0  0  0  0  0  0  0  0  0  0  0  0
  193.2980  177.0050  145.0750 C   0  0  0  0  0  3  0  0  0  0  0  0
  193.3160  173.3850  144.8930 C   0  0  0  0  0  2  0  0  0  0  0  0
  193.8750  172.0070  145.1970 C   0  0  0  0  0  1  0  0  0  0  0  0
  1  3  1  0  0  0  0
  2  4  1  1  0  0  0
  2  1  1  0  0  0  0
  2 10  1  0  0  0  0
  3  9  1  0  0  0  0
  6 15  1  0  0  0  0
  7 12  1  0  0  0  0
  7 17  2  0  0  0  0
  8  2  1  0  0  0  0
  9  5  1  1  0  0  0
  9  7  1  0  0  0  0
 10 15  1  6  0  0  0
 10 16  1  0  0  0  0
 13  6  2  0  0  0  0
 14  8  1  0  0  0  0
 14  6  1  0  0  0  0
 15 11  2  0  0  0  0
 16 18  2  0  0  0  0
 18 12  2  0  0  0  0
 19 16  1  0  0  0  0
 19 25  1  0  0  0  0
 20 27  1  6  0  0  0
 20 22  1  0  0  0  0
 23 21  2  0  0  0  0
 23 20  1  0  0  0  0
 24 23  1  0  0  0  0
 25 22  1  0  0  0  0
 26 25  2  0  0  0  0
 26 24  1  0  0  0  0
 27 28  1  0  0  0  0
M  END
>  <MODEL>
2

>  <REMARK>
 VINA RESULT:      -7.4      2.677      6.064
  Name = 
  3 active torsions:
  status: ('A' for Active; 'I' for Inactive)
    1  A    between atoms: C_1  and  C_2
    2  A    between atoms: N_6  and  C_18
    3  A    between atoms: N_6  and  C_26
                            x       y       z     vdW  Elec       q    Type
                         _______ _______ _______ _____ _____    ______ ____

>  <TORSDO>
F 3

$$$$
=
 OpenBabel11062419543D

 28 30  0  0  1  0  0  0  0  0999 V2000
  191.9210  174.1340  145.9160 C   0  0  0  0  0  2  0  0  0  0  0  0
  190.5270  174.0910  145.2760 C   0  0  2  0  0  0  0  0  0  0  0  0
  191.9530  174.9160  147.2310 C   0  0  0  0  0  2  0  0  0  0  0  0
  189.5860  173.8610  146.2710 F   0  0  0  0  0  0  0  0  0  0  0  0
  193.4680  176.7640  147.2730 O   0  0  0  0  0  1  0  0  0  0  0  0
  190.9770  174.3390  142.3650 C   0  0  0  0  0  0  0  0  0  0  0  0
  191.1800  177.2150  147.8100 C   0  0  0  0  0  0  0  0  0  0  0  0
  190.4500  172.8890  144.3240 C   0  0  0  0  0  2  0  0  0  0  0  0
  192.1490  176.4050  146.9880 C   0  0  2  0  0  3  0  0  0  0  0  0
  190.2450  175.4440  144.5570 C   0  0  1  0  0  3  0  0  0  0  0  0
  190.0550  176.5150  142.4120 O   0  0  0  0  0  0  0  0  0  0  0  0
  189.8130  177.4710  147.3280 C   0  0  0  0  0  3  0  0  0  0  0  0
  191.3450  174.4310  141.1650 O   0  0  0  0  0  0  0  0  0  0  0  0
  191.1710  173.1230  143.0800 N   0  0  0  0  0  2  0  0  0  0  0  0
  190.3740  175.4800  143.0560 C   0  0  0  0  0  0  0  0  0  0  0  0
  189.1270  176.2650  145.1250 C   0  0  0  0  0  0  0  0  0  0  0  0
  191.5240  177.6590  148.9380 O   0  0  0  0  0  0  0  0  0  0  0  0
  189.4040  176.9100  146.2250 C   0  0  0  0  0  0  0  0  0  0  0  0
  187.7790  176.0290  144.6940 N   0  0  0  0  0  2  0  0  0  0  0  0
  185.1090  178.5390  145.5170 C   0  0  2  0  0  3  0  0  0  0  0  0
  184.8490  180.5870  144.3480 O   0  0  0  0  0  0  0  0  0  0  0  0
  185.4840  177.0910  145.1720 C   0  0  0  0  0  2  0  0  0  0  0  0
  185.3100  179.4570  144.3300 C   0  0  0  0  0  0  0  0  0  0  0  0
  186.0160  178.9680  143.0940 C   0  0  0  0  0  2  0  0  0  0  0  0
  186.7780  177.0120  144.4000 C   0  0  0  0  0  0  0  0  0  0  0  0
  187.0220  177.9090  143.4410 C   0  0  0  0  0  3  0  0  0  0  0  0
  185.9240  179.0080  146.7160 C   0  0  0  0  0  2  0  0  0  0  0  0
  185.9590  177.9360  147.7890 C   0  0  0  0  0  1  0  0  0  0  0  0
  1  3  1  0  0  0  0
  2  1  1  0  0  0  0
  2  4  1  1  0  0  0
  6 15  1  0  0  0  0
  6 14  1  0  0  0  0
  7 17  2  0  0  0  0
  8  2  1  0  0  0  0
  9  3  1  0  0  0  0
  9  5  1  1  0  0  0
  9  7  1  0  0  0  0
 10 15  1  6  0  0  0
 10 16  1  0  0  0  0
 10  2  1  0  0  0  0
 11 15  2  0  0  0  0
 12  7  1  0  0  0  0
 13  6  2  0  0  0  0
 14  8  1  0  0  0  0
 16 18  2  0  0  0  0
 18 12  2  0  0  0  0
 19 16  1  0  0  0  0
 20 27  1  1  0  0  0
 22 20  1  0  0  0  0
 23 21  2  0  0  0  0
 23 20  1  0  0  0  0
 24 26  1  0  0  0  0
 24 23  1  0  0  0  0
 25 19  1  0  0  0  0
 25 22  1  0  0  0  0
 26 25  2  0  0  0  0
 27 28  1  0  0  0  0
M  END
>  <MODEL>
3

>  <REMARK>
 VINA RESULT:      -7.3      2.346      3.126
  Name = 
  3 active torsions:
  status: ('A' for Active; 'I' for Inactive)
    1  A    between atoms: C_1  and  C_2
    2  A    between atoms: N_6  and  C_18
    3  A    between atoms: N_6  and  C_26
                            x       y       z     vdW  Elec       q    Type
                         _______ _______ _______ _____ _____    ______ ____

>  <TORSDO>
F 3

$$$$
=
 OpenBabel11062419543D

 28 30  0  0  1  0  0  0  0  0999 V2000
  191.8070  173.4790  144.0690 C   0  0  0  0  0  2  0  0  0  0  0  0
  190.3080  173.6200  144.3660 C   0  0  2  0  0  0  0  0  0  0  0  0
  192.6940  174.0810  145.1620 C   0  0  0  0  0  2  0  0  0  0  0  0
  190.0900  173.3330  145.7060 F   0  0  0  0  0  0  0  0  0  0  0  0
  194.1890  175.7930  144.4230 O   0  0  0  0  0  1  0  0  0  0  0  0
  189.0320  174.2070  141.7650 C   0  0  0  0  0  0  0  0  0  0  0  0
  192.7110  176.3360  146.2250 C   0  0  0  0  0  0  0  0  0  0  0  0
  189.5380  172.5600  143.5670 C   0  0  0  0  0  2  0  0  0  0  0  0
  192.9120  175.5710  144.9430 C   0  0  2  0  0  3  0  0  0  0  0  0
  189.8490  175.0720  144.0340 C   0  0  1  0  0  3  0  0  0  0  0  0
  188.6070  176.4210  142.4780 O   0  0  0  0  0  0  0  0  0  0  0  0
  191.3650  176.7520  146.6520 C   0  0  0  0  0  3  0  0  0  0  0  0
  188.6520  174.4260  140.5850 O   0  0  0  0  0  0  0  0  0  0  0  0
  189.4370  172.8980  142.1540 N   0  0  0  0  0  2  0  0  0  0  0  0
  189.0950  175.2900  142.7480 C   0  0  0  0  0  0  0  0  0  0  0  0
  189.3830  175.8920  145.1980 C   0  0  0  0  0  0  0  0  0  0  0  0
  193.6960  176.6060  146.9630 O   0  0  0  0  0  0  0  0  0  0  0  0
  190.3250  176.3680  145.9650 C   0  0  0  0  0  0  0  0  0  0  0  0
  188.0150  175.8110  145.6250 N   0  0  0  0  0  2  0  0  0  0  0  0
  185.7150  178.5620  144.5080 C   0  0  2  0  0  3  0  0  0  0  0  0
  183.6670  179.0620  145.5950 O   0  0  0  0  0  0  0  0  0  0  0  0
  187.1260  178.1220  144.9230 C   0  0  0  0  0  2  0  0  0  0  0  0
  184.7610  178.5290  145.6830 C   0  0  0  0  0  0  0  0  0  0  0  0
  185.1730  177.9030  146.9880 C   0  0  0  0  0  2  0  0  0  0  0  0
  187.0980  176.8980  145.8060 C   0  0  0  0  0  0  0  0  0  0  0  0
  186.1670  176.8010  146.7570 C   0  0  0  0  0  3  0  0  0  0  0  0
  185.2160  177.6790  143.3720 C   0  0  0  0  0  2  0  0  0  0  0  0
  185.4420  178.3540  142.0320 C   0  0  0  0  0  1  0  0  0  0  0  0
  1  2  1  0  0  0  0
  1  3  1  0  0  0  0
  2  4  1  1  0  0  0
  6 14  1  0  0  0  0
  6 15  1  0  0  0  0
  7 12  1  0  0  0  0
  7 17  2  0  0  0  0
  8  2  1  0  0  0  0
  9  5  1  1  0  0  0
  9  3  1  0  0  0  0
  9  7  1  0  0  0  0
 10 15  1  6  0  0  0
 10  2  1  0  0  0  0
 10 16  1  0  0  0  0
 11 15  2  0  0  0  0
 13  6  2  0  0  0  0
 14  8  1  0  0  0  0
 16 19  1  0  0  0  0
 16 18  2  0  0  0  0
 18 12  2  0  0  0  0
 19 25  1  0  0  0  0
 20 27  1  6  0  0  0
 20 22  1  0  0  0  0
 20 23  1  0  0  0  0
 21 23  2  0  0  0  0
 22 25  1  0  0  0  0
 23 24  1  0  0  0  0
 25 26  2  0  0  0  0
 26 24  1  0  0  0  0
 28 27  1  0  0  0  0
M  END
>  <MODEL>
4

>  <REMARK>
 VINA RESULT:      -7.2      1.964      2.727
  Name = 
  3 active torsions:
  status: ('A' for Active; 'I' for Inactive)
    1  A    between atoms: C_1  and  C_2
    2  A    between atoms: N_6  and  C_18
    3  A    between atoms: N_6  and  C_26
                            x       y       z     vdW  Elec       q    Type
                         _______ _______ _______ _____ _____    ______ ____

>  <TORSDO>
F 3

$$$$
=
 OpenBabel11062419543D

 28 30  0  0  1  0  0  0  0  0999 V2000
  186.5410  179.0380  143.1610 C   0  0  0  0  0  2  0  0  0  0  0  0
  187.7710  178.1280  143.2840 C   0  0  2  0  0  0  0  0  0  0  0  0
  185.8970  179.3620  144.5110 C   0  0  0  0  0  2  0  0  0  0  0  0
  188.5360  178.5570  144.3600 F   0  0  0  0  0  0  0  0  0  0  0  0
  183.6020  178.7270  144.7150 O   0  0  0  0  0  1  0  0  0  0  0  0
  187.6320  176.2820  140.9810 C   0  0  0  0  0  0  0  0  0  0  0  0
  185.1180  177.8940  146.3690 C   0  0  0  0  0  0  0  0  0  0  0  0
  188.6480  178.2990  142.0370 C   0  0  0  0  0  2  0  0  0  0  0  0
  184.9090  178.2840  144.9290 C   0  0  2  0  0  3  0  0  0  0  0  0
  187.3060  176.6560  143.4940 C   0  0  1  0  0  3  0  0  0  0  0  0
  187.1110  174.5000  142.4450 O   0  0  0  0  0  0  0  0  0  0  0  0
  186.1320  176.8940  146.7400 C   0  0  0  0  0  3  0  0  0  0  0  0
  187.4340  175.5960  139.9430 O   0  0  0  0  0  0  0  0  0  0  0  0
  188.0890  177.6260  140.8720 N   0  0  0  0  0  2  0  0  0  0  0  0
  187.3720  175.7260  142.3100 C   0  0  0  0  0  0  0  0  0  0  0  0
  187.6610  176.0400  144.8130 C   0  0  0  0  0  0  0  0  0  0  0  0
  184.4410  178.4440  147.2780 O   0  0  0  0  0  0  0  0  0  0  0  0
  186.9260  176.4130  145.8250 C   0  0  0  0  0  0  0  0  0  0  0  0
  188.9390  175.4100  144.9860 N   0  0  0  0  0  2  0  0  0  0  0  0
  192.3610  176.5540  146.0290 C   0  0  2  0  0  3  0  0  0  0  0  0
  194.2740  176.3560  144.6410 O   0  0  0  0  0  0  0  0  0  0  0  0
  190.8710  176.8760  145.8460 C   0  0  0  0  0  2  0  0  0  0  0  0
  193.0560  176.3840  144.6940 C   0  0  0  0  0  0  0  0  0  0  0  0
  192.2600  176.3200  143.4190 C   0  0  0  0  0  2  0  0  0  0  0  0
  190.2310  176.0030  144.7950 C   0  0  0  0  0  0  0  0  0  0  0  0
  190.9000  175.7360  143.6710 C   0  0  0  0  0  3  0  0  0  0  0  0
  192.5130  175.3040  146.8880 C   0  0  0  0  0  2  0  0  0  0  0  0
  191.4810  175.2920  147.9990 C   0  0  0  0  0  1  0  0  0  0  0  0
  1  2  1  0  0  0  0
  1  3  1  0  0  0  0
  2 10  1  0  0  0  0
  2  4  1  1  0  0  0
  3  9  1  0  0  0  0
  6 15  1  0  0  0  0
  7 12  1  0  0  0  0
  7 17  2  0  0  0  0
  8  2  1  0  0  0  0
  9  5  1  1  0  0  0
  9  7  1  0  0  0  0
 10 15  1  6  0  0  0
 10 16  1  0  0  0  0
 13  6  2  0  0  0  0
 14  6  1  0  0  0  0
 14  8  1  0  0  0  0
 15 11  2  0  0  0  0
 16 19  1  0  0  0  0
 16 18  2  0  0  0  0
 18 12  2  0  0  0  0
 20 27  1  1  0  0  0
 21 23  2  0  0  0  0
 22 20  1  0  0  0  0
 23 20  1  0  0  0  0
 24 26  1  0  0  0  0
 24 23  1  0  0  0  0
 25 19  1  0  0  0  0
 25 22  1  0  0  0  0
 26 25  2  0  0  0  0
 27 28  1  0  0  0  0
M  END
>  <MODEL>
5

>  <REMARK>
 VINA RESULT:      -7.2      2.167      5.723
  Name = 
  3 active torsions:
  status: ('A' for Active; 'I' for Inactive)
    1  A    between atoms: C_1  and  C_2
    2  A    between atoms: N_6  and  C_18
    3  A    between atoms: N_6  and  C_26
                            x       y       z     vdW  Elec       q    Type
                         _______ _______ _______ _____ _____    ______ ____

>  <TORSDO>
F 3

$$$$
=
 OpenBabel11062419543D

 28 30  0  0  1  0  0  0  0  0999 V2000
  191.6230  174.3460  143.6730 C   0  0  0  0  0  2  0  0  0  0  0  0
  191.1160  175.7070  144.1710 C   0  0  2  0  0  0  0  0  0  0  0  0
  190.9130  173.8700  142.4030 C   0  0  0  0  0  2  0  0  0  0  0  0
  190.9560  176.5490  143.0790 F   0  0  0  0  0  0  0  0  0  0  0  0
  189.8090  171.7590  142.5920 O   0  0  0  0  0  1  0  0  0  0  0  0
  191.0710  175.5120  147.1190 C   0  0  0  0  0  0  0  0  0  0  0  0
  188.4950  173.6170  141.8540 C   0  0  0  0  0  0  0  0  0  0  0  0
  192.1930  176.3490  145.0560 C   0  0  0  0  0  2  0  0  0  0  0  0
  189.6220  173.1360  142.7300 C   0  0  2  0  0  3  0  0  0  0  0  0
  189.7620  175.5140  144.9170 C   0  0  1  0  0  3  0  0  0  0  0  0
  188.7070  175.5000  147.0780 O   0  0  0  0  0  0  0  0  0  0  0  0
  187.7230  174.8190  142.2100 C   0  0  0  0  0  3  0  0  0  0  0  0
  191.1330  175.2690  148.3530 O   0  0  0  0  0  0  0  0  0  0  0  0
  192.2640  175.7320  146.3740 N   0  0  0  0  0  2  0  0  0  0  0  0
  189.7830  175.5440  146.4230 C   0  0  0  0  0  0  0  0  0  0  0  0
  188.5670  176.1540  144.2790 C   0  0  0  0  0  0  0  0  0  0  0  0
  188.2190  173.0080  140.7860 O   0  0  0  0  0  0  0  0  0  0  0  0
  188.0810  175.5310  143.2410 C   0  0  0  0  0  0  0  0  0  0  0  0
  188.2560  177.5260  144.5640 N   0  0  0  0  0  2  0  0  0  0  0  0
  185.3140  178.8190  142.6200 C   0  0  2  0  0  3  0  0  0  0  0  0
  183.0850  178.7290  143.4270 O   0  0  0  0  0  0  0  0  0  0  0  0
  186.7100  179.0720  143.2080 C   0  0  0  0  0  2  0  0  0  0  0  0
  184.2710  178.6990  143.7110 C   0  0  0  0  0  0  0  0  0  0  0  0
  184.6810  178.6120  145.1570 C   0  0  0  0  0  2  0  0  0  0  0  0
  186.9930  178.1820  144.3930 C   0  0  0  0  0  0  0  0  0  0  0  0
  186.0270  177.9600  145.2880 C   0  0  0  0  0  3  0  0  0  0  0  0
  185.3430  177.5670  141.7500 C   0  0  0  0  0  2  0  0  0  0  0  0
  186.2050  177.7920  140.5220 C   0  0  0  0  0  1  0  0  0  0  0  0
  1  2  1  0  0  0  0
  2  4  1  6  0  0  0
  2 10  1  0  0  0  0
  2  8  1  0  0  0  0
  3  9  1  0  0  0  0
  3  1  1  0  0  0  0
  6 13  2  0  0  0  0
  7 12  1  0  0  0  0
  7  9  1  0  0  0  0
  8 14  1  0  0  0  0
  9  5  1  6  0  0  0
 10 16  1  6  0  0  0
 10 15  1  0  0  0  0
 12 18  2  0  0  0  0
 14  6  1  0  0  0  0
 15 11  2  0  0  0  0
 15  6  1  0  0  0  0
 16 19  1  0  0  0  0
 17  7  2  0  0  0  0
 18 16  2  0  0  0  0
 20 27  1  1  0  0  0
 20 22  1  0  0  0  0
 20 23  1  0  0  0  0
 21 23  2  0  0  0  0
 22 25  1  0  0  0  0
 23 24  1  0  0  0  0
 24 26  1  0  0  0  0
 25 19  1  0  0  0  0
 25 26  2  0  0  0  0
 28 27  1  0  0  0  0
M  END
>  <MODEL>
6

>  <REMARK>
 VINA RESULT:      -7.2      2.719      4.921
  Name = 
  3 active torsions:
  status: ('A' for Active; 'I' for Inactive)
    1  A    between atoms: C_1  and  C_2
    2  A    between atoms: N_6  and  C_18
    3  A    between atoms: N_6  and  C_26
                            x       y       z     vdW  Elec       q    Type
                         _______ _______ _______ _____ _____    ______ ____

>  <TORSDO>
F 3

$$$$
=
 OpenBabel11062419543D

 28 30  0  0  1  0  0  0  0  0999 V2000
  186.2360  177.3510  143.1640 C   0  0  0  0  0  2  0  0  0  0  0  0
  187.6880  177.4390  142.6750 C   0  0  2  0  0  0  0  0  0  0  0  0
  186.0380  177.9360  144.5650 C   0  0  0  0  0  2  0  0  0  0  0  0
  188.1960  178.6860  143.0110 F   0  0  0  0  0  0  0  0  0  0  0  0
  185.1460  176.4160  146.1790 O   0  0  0  0  0  1  0  0  0  0  0  0
  188.1910  174.9200  141.2140 C   0  0  0  0  0  0  0  0  0  0  0  0
  187.2090  177.4980  146.7220 C   0  0  0  0  0  0  0  0  0  0  0  0
  187.7050  177.3640  141.1430 C   0  0  0  0  0  2  0  0  0  0  0  0
  186.3380  176.9070  145.6440 C   0  0  2  0  0  3  0  0  0  0  0  0
  188.5270  176.3070  143.3410 C   0  0  1  0  0  3  0  0  0  0  0  0
  189.6210  174.2000  142.9540 O   0  0  0  0  0  0  0  0  0  0  0  0
  188.6730  177.5410  146.5700 C   0  0  0  0  0  3  0  0  0  0  0  0
  188.2300  173.8140  140.6130 O   0  0  0  0  0  0  0  0  0  0  0  0
  187.4710  176.0120  140.6530 N   0  0  0  0  0  2  0  0  0  0  0  0
  188.8570  175.0970  142.5060 C   0  0  0  0  0  0  0  0  0  0  0  0
  189.6120  176.7590  144.2710 C   0  0  0  0  0  0  0  0  0  0  0  0
  186.6880  177.9910  147.7580 O   0  0  0  0  0  0  0  0  0  0  0  0
  189.2150  177.1540  145.4490 C   0  0  0  0  0  0  0  0  0  0  0  0
  190.9080  177.0880  143.7500 N   0  0  0  0  0  2  0  0  0  0  0  0
  193.3790  175.7110  146.2200 C   0  0  2  0  0  3  0  0  0  0  0  0
  194.8980  173.9640  145.6990 O   0  0  0  0  0  0  0  0  0  0  0  0
  192.7860  176.9310  145.5020 C   0  0  0  0  0  2  0  0  0  0  0  0
  194.1690  174.8410  145.2640 C   0  0  0  0  0  0  0  0  0  0  0  0
  194.1220  175.0920  143.7820 C   0  0  0  0  0  2  0  0  0  0  0  0
  192.1720  176.5610  144.1740 C   0  0  0  0  0  0  0  0  0  0  0  0
  192.7990  175.6850  143.3860 C   0  0  0  0  0  3  0  0  0  0  0  0
  192.2640  174.9160  146.8880 C   0  0  0  0  0  2  0  0  0  0  0  0
  191.5660  175.7570  147.9400 C   0  0  0  0  0  1  0  0  0  0  0  0
  1  3  1  0  0  0  0
  2  4  1  1  0  0  0
  2  1  1  0  0  0  0
  2 10  1  0  0  0  0
  3  9  1  0  0  0  0
  6 15  1  0  0  0  0
  7 17  2  0  0  0  0
  8  2  1  0  0  0  0
  9  5  1  1  0  0  0
  9  7  1  0  0  0  0
 10 15  1  6  0  0  0
 10 16  1  0  0  0  0
 12  7  1  0  0  0  0
 13  6  2  0  0  0  0
 14  8  1  0  0  0  0
 14  6  1  0  0  0  0
 15 11  2  0  0  0  0
 16 18  2  0  0  0  0
 18 12  2  0  0  0  0
 19 25  1  0  0  0  0
 19 16  1  0  0  0  0
 20 27  1  6  0  0  0
 22 20  1  0  0  0  0
 23 21  2  0  0  0  0
 23 20  1  0  0  0  0
 24 23  1  0  0  0  0
 25 22  1  0  0  0  0
 26 24  1  0  0  0  0
 26 25  2  0  0  0  0
 27 28  1  0  0  0  0
M  END
>  <MODEL>
7

>  <REMARK>
 VINA RESULT:      -7.1      2.459      5.751
  Name = 
  3 active torsions:
  status: ('A' for Active; 'I' for Inactive)
    1  A    between atoms: C_1  and  C_2
    2  A    between atoms: N_6  and  C_18
    3  A    between atoms: N_6  and  C_26
                            x       y       z     vdW  Elec       q    Type
                         _______ _______ _______ _____ _____    ______ ____

>  <TORSDO>
F 3

$$$$
=
 OpenBabel11062419543D

 28 30  0  0  1  0  0  0  0  0999 V2000
  191.3870  173.0230  144.3920 C   0  0  0  0  0  2  0  0  0  0  0  0
  190.0690  173.3050  143.6570 C   0  0  2  0  0  0  0  0  0  0  0  0
  191.9450  174.2520  145.1140 C   0  0  0  0  0  2  0  0  0  0  0  0
  189.2620  174.0860  144.4730 F   0  0  0  0  0  0  0  0  0  0  0  0
  194.1430  174.9080  144.4420 O   0  0  0  0  0  1  0  0  0  0  0  0
  190.2190  171.7730  141.1340 C   0  0  0  0  0  0  0  0  0  0  0  0
  192.4220  176.5660  144.3170 C   0  0  0  0  0  0  0  0  0  0  0  0
  189.3190  171.9820  143.4500 C   0  0  0  0  0  2  0  0  0  0  0  0
  192.7860  175.1110  144.1810 C   0  0  2  0  0  3  0  0  0  0  0  0
  190.3700  174.0400  142.3170 C   0  0  1  0  0  3  0  0  0  0  0  0
  190.4420  173.7940  139.9260 O   0  0  0  0  0  0  0  0  0  0  0  0
  191.2880  177.1330  143.5680 C   0  0  0  0  0  3  0  0  0  0  0  0
  190.4350  171.0500  140.1260 O   0  0  0  0  0  0  0  0  0  0  0  0
  189.9050  171.1750  142.3870 N   0  0  0  0  0  2  0  0  0  0  0  0
  190.3130  173.2320  141.0470 C   0  0  0  0  0  0  0  0  0  0  0  0
  189.8490  175.4410  142.2100 C   0  0  0  0  0  0  0  0  0  0  0  0
  193.0710  177.3100  145.1000 O   0  0  0  0  0  0  0  0  0  0  0  0
  190.5300  176.3470  142.8560 C   0  0  0  0  0  0  0  0  0  0  0  0
  188.5060  175.6700  141.7580 N   0  0  0  0  0  2  0  0  0  0  0  0
  186.6820  177.3130  144.6000 C   0  0  2  0  0  3  0  0  0  0  0  0
  185.9450  179.5670  144.5390 O   0  0  0  0  0  0  0  0  0  0  0  0
  186.7880  176.1410  143.6150 C   0  0  0  0  0  2  0  0  0  0  0  0
  186.2990  178.5950  143.8920 C   0  0  0  0  0  0  0  0  0  0  0  0
  186.2810  178.6640  142.3890 C   0  0  0  0  0  2  0  0  0  0  0  0
  187.5250  176.5270  142.3560 C   0  0  0  0  0  0  0  0  0  0  0  0
  187.2910  177.7200  141.8020 C   0  0  0  0  0  3  0  0  0  0  0  0
  188.0000  177.4740  145.3480 C   0  0  0  0  0  2  0  0  0  0  0  0
  188.1370  176.4120  146.4220 C   0  0  0  0  0  1  0  0  0  0  0  0
  1  3  1  0  0  0  0
  2  1  1  0  0  0  0
  2  4  1  1  0  0  0
  6 14  1  0  0  0  0
  7 17  2  0  0  0  0
  8  2  1  0  0  0  0
  9  7  1  0  0  0  0
  9  5  1  1  0  0  0
  9  3  1  0  0  0  0
 10 15  1  6  0  0  0
 10  2  1  0  0  0  0
 11 15  2  0  0  0  0
 12  7  1  0  0  0  0
 13  6  2  0  0  0  0
 14  8  1  0  0  0  0
 15  6  1  0  0  0  0
 16 10  1  0  0  0  0
 16 18  2  0  0  0  0
 18 12  2  0  0  0  0
 19 16  1  0  0  0  0
 19 25  1  0  0  0  0
 20 27  1  6  0  0  0
 22 20  1  0  0  0  0
 23 21  2  0  0  0  0
 23 20  1  0  0  0  0
 24 23  1  0  0  0  0
 25 22  1  0  0  0  0
 26 25  2  0  0  0  0
 26 24  1  0  0  0  0
 27 28  1  0  0  0  0
M  END
>  <MODEL>
8

>  <REMARK>
 VINA RESULT:      -7.1      1.769      2.186
  Name = 
  3 active torsions:
  status: ('A' for Active; 'I' for Inactive)
    1  A    between atoms: C_1  and  C_2
    2  A    between atoms: N_6  and  C_18
    3  A    between atoms: N_6  and  C_26
                            x       y       z     vdW  Elec       q    Type
                         _______ _______ _______ _____ _____    ______ ____

>  <TORSDO>
F 3

$$$$
=
 OpenBabel11062419543D

 28 30  0  0  1  0  0  0  0  0999 V2000
  192.3680  174.4000  143.8280 C   0  0  0  0  0  2  0  0  0  0  0  0
  191.5300  175.6270  144.2110 C   0  0  2  0  0  0  0  0  0  0  0  0
  191.9160  173.7500  142.5180 C   0  0  0  0  0  2  0  0  0  0  0  0
  191.3090  176.3880  143.0710 F   0  0  0  0  0  0  0  0  0  0  0  0
  191.2800  171.4530  142.6950 O   0  0  0  0  0  1  0  0  0  0  0  0
  191.2170  175.4970  147.1460 C   0  0  0  0  0  0  0  0  0  0  0  0
  189.6810  172.9600  141.7470 C   0  0  0  0  0  0  0  0  0  0  0  0
  192.3430  176.5100  145.1660 C   0  0  0  0  0  2  0  0  0  0  0  0
  190.7870  172.7580  142.7500 C   0  0  2  0  0  3  0  0  0  0  0  0
  190.1790  175.1600  144.8290 C   0  0  1  0  0  3  0  0  0  0  0  0
  188.9290  174.9660  146.8750 O   0  0  0  0  0  0  0  0  0  0  0  0
  188.6350  173.9710  141.9700 C   0  0  0  0  0  3  0  0  0  0  0  0
  191.2000  175.3020  148.3900 O   0  0  0  0  0  0  0  0  0  0  0  0
  192.4060  175.9560  146.5120 N   0  0  0  0  0  2  0  0  0  0  0  0
  190.0340  175.2290  146.3270 C   0  0  0  0  0  0  0  0  0  0  0  0
  188.9480  175.5070  144.0480 C   0  0  0  0  0  0  0  0  0  0  0  0
  189.6580  172.2790  140.6860 O   0  0  0  0  0  0  0  0  0  0  0  0
  188.7200  174.7680  142.9980 C   0  0  0  0  0  0  0  0  0  0  0  0
  188.3200  176.7830  144.2380 N   0  0  0  0  0  2  0  0  0  0  0  0
  184.9580  177.9460  145.4440 C   0  0  2  0  0  3  0  0  0  0  0  0
  183.4840  179.2490  144.1190 O   0  0  0  0  0  0  0  0  0  0  0  0
  185.9410  176.7880  145.2190 C   0  0  0  0  0  2  0  0  0  0  0  0
  184.4400  178.4910  144.1300 C   0  0  0  0  0  0  0  0  0  0  0  0
  185.0480  178.0520  142.8250 C   0  0  0  0  0  2  0  0  0  0  0  0
  186.9240  177.0890  144.1160 C   0  0  0  0  0  0  0  0  0  0  0  0
  186.4960  177.6980  143.0070 C   0  0  0  0  0  3  0  0  0  0  0  0
  185.6340  179.0410  146.2620 C   0  0  0  0  0  2  0  0  0  0  0  0
  186.0410  178.5140  147.6250 C   0  0  0  0  0  1  0  0  0  0  0  0
  1  2  1  0  0  0  0
  2  4  1  6  0  0  0
  2 10  1  0  0  0  0
  2  8  1  0  0  0  0
  3  9  1  0  0  0  0
  3  1  1  0  0  0  0
  6 13  2  0  0  0  0
  7 12  1  0  0  0  0
  7  9  1  0  0  0  0
  8 14  1  0  0  0  0
  9  5  1  6  0  0  0
 10 16  1  6  0  0  0
 10 15  1  0  0  0  0
 12 18  2  0  0  0  0
 14  6  1  0  0  0  0
 15 11  2  0  0  0  0
 15  6  1  0  0  0  0
 16 19  1  0  0  0  0
 17  7  2  0  0  0  0
 18 16  2  0  0  0  0
 20 27  1  6  0  0  0
 21 23  2  0  0  0  0
 22 20  1  0  0  0  0
 23 20  1  0  0  0  0
 24 26  1  0  0  0  0
 24 23  1  0  0  0  0
 25 19  1  0  0  0  0
 25 22  1  0  0  0  0
 26 25  2  0  0  0  0
 27 28  1  0  0  0  0
M  END
>  <MODEL>
9

>  <REMARK>
 VINA RESULT:      -7.0      2.659      4.601
  Name = 
  3 active torsions:
  status: ('A' for Active; 'I' for Inactive)
    1  A    between atoms: C_1  and  C_2
    2  A    between atoms: N_6  and  C_18
    3  A    between atoms: N_6  and  C_26
                            x       y       z     vdW  Elec       q    Type
                         _______ _______ _______ _____ _____    ______ ____

>  <TORSDO>
F 3

$$$$
