=
 OpenBabel11062419213D

 50 56  0  0  1  0  0  0  0  0999 V2000
  194.5770  174.4910  144.7810 C   0  0  0  0  0  0  0  0  0  0  0  0
  193.6960  173.9160  145.6170 C   0  0  0  0  0  3  0  0  0  0  0  0
  189.8260  174.6930  146.3310 C   0  0  1  0  0  3  0  0  0  0  0  0
  190.8550  173.7250  145.1830 S   0  0  0  0  0  0  0  0  0  0  0  0
  190.7320  175.4980  147.2900 C   0  0  1  0  0  3  0  0  0  0  0  0
  192.3370  174.3810  145.9370 C   0  0  0  0  0  0  0  0  0  0  0  0
  192.1440  175.1790  146.9700 C   0  0  0  0  0  3  0  0  0  0  0  0
  189.0280  177.3360  147.3790 C   0  0  0  0  0  2  0  0  0  0  0  0
  188.8550  175.5680  145.5340 C   0  0  0  0  0  2  0  0  0  0  0  0
  188.0990  176.5220  146.4590 C   0  0  2  0  0  3  0  0  0  0  0  0
  190.5100  177.0090  147.1980 C   0  0  0  0  0  2  0  0  0  0  0  0
  187.2370  177.4530  145.6230 C   0  0  0  0  0  2  0  0  0  0  0  0
  185.9010  176.8140  145.2830 C   0  0  0  0  0  2  0  0  0  0  0  0
  184.8130  177.7460  145.5360 N   0  0  0  0  0  2  0  0  0  0  0  0
  184.4460  178.3540  144.2680 C   0  0  0  0  0  2  0  0  0  0  0  0
  184.8880  177.4720  143.1060 C   0  0  2  0  0  3  0  0  0  0  0  0
  185.8910  178.1750  142.2090 C   0  0  1  0  0  0  0  0  0  0  0  0
  184.4480  178.0850  141.7780 C   0  0  0  0  0  2  0  0  0  0  0  0
  186.2720  179.4780  142.5370 O   0  0  0  0  0  1  0  0  0  0  0  0
  186.8460  177.3240  141.3790 C   0  0  0  0  0  2  0  0  0  0  0  0
  188.1480  176.9890  142.1120 C   0  0  1  0  0  3  0  0  0  0  0  0
  188.6870  175.6320  141.6880 C   0  0  0  0  0  1  0  0  0  0  0  0
  190.1510  177.6620  142.7730 C   0  0  0  0  0  1  0  0  0  0  0  0
  189.1090  177.9820  141.9020 O   0  0  0  0  0  0  0  0  0  0  0  0
  197.1490  174.4030  144.9600 C   0  0  0  0  0  2  0  0  0  0  0  0
  195.8560  173.7530  144.4820 C   0  0  0  0  0  0  0  0  0  0  0  0
  196.5410  173.2570  145.7450 C   0  0  0  0  0  2  0  0  0  0  0  0
  196.4240  171.0590  143.9850 S   0  0  0  0  0  0  0  0  0  0  0  0
  194.5220  172.2330  142.9300 C   0  0  0  0  0  2  0  0  0  0  0  0
  194.7230  170.8040  143.3920 C   0  0  2  0  0  3  0  0  0  0  0  0
  195.9050  172.6950  143.3610 C   0  0  1  0  0  3  0  0  0  0  0  0
  193.1510  169.1540  144.3850 C   0  0  0  0  0  1  0  0  0  0  0  0
  193.7990  170.5130  144.5630 C   0  0  0  0  0  2  0  0  0  0  0  0
  194.7650  176.8600  144.7140 O   0  0  0  0  0  0  0  0  0  0  0  0
  194.3520  175.8110  144.1510 C   0  0  0  0  0  0  0  0  0  0  0  0
  193.6150  175.8960  142.8490 C   0  0  0  0  0  2  0  0  0  0  0  0
  195.8410  176.1340  141.7380 C   0  0  0  0  0  3  0  0  0  0  0  0
  194.5210  175.6750  141.6800 C   0  0  0  0  0  0  0  0  0  0  0  0
  196.2310  175.3470  139.4770 C   0  0  0  0  0  0  0  0  0  0  0  0
  194.9050  174.8900  139.4180 C   0  0  0  0  0  3  0  0  0  0  0  0
  196.6920  175.9680  140.6410 C   0  0  0  0  0  3  0  0  0  0  0  0
  194.0440  175.0520  140.5170 C   0  0  0  0  0  0  0  0  0  0  0  0
  197.1060  175.2000  138.3960 O   0  0  0  0  0  0  0  0  0  0  0  0
  197.1340  174.0310  137.5890 C   0  0  0  0  0  1  0  0  0  0  0  0
  192.7190  174.6080  140.4730 O   0  0  0  0  0  0  0  0  0  0  0  0
  190.9140  173.1740  139.9570 C   0  0  1  0  0  3  0  0  0  0  0  0
  191.4190  172.8640  141.2310 O   0  0  0  0  0  0  0  0  0  0  0  0
  192.3590  173.2510  140.2570 C   0  0  2  0  0  3  0  0  0  0  0  0
  189.4620  171.5460  139.0830 O   0  0  0  0  0  0  0  0  0  0  0  0
  190.6170  171.9100  139.2290 C   0  0  0  0  0  3  0  0  0  0  0  0
  1  2  2  0  0  0  0
  2  6  1  0  0  0  0
  3  9  1  6  0  0  0
  3  5  1  0  0  0  0
  4  6  1  0  0  0  0
  4  3  1  0  0  0  0
  5  7  1  6  0  0  0
  6  7  2  0  0  0  0
  9 10  1  0  0  0  0
 10 12  1  6  0  0  0
 10  8  1  0  0  0  0
 11  5  1  0  0  0  0
 11  8  1  0  0  0  0
 13 14  1  0  0  0  0
 13 12  1  0  0  0  0
 15 14  1  0  0  0  0
 16 15  1  1  0  0  0
 17 19  1  1  0  0  0
 17 16  1  0  0  0  0
 18 17  1  0  0  0  0
 18 16  1  0  0  0  0
 20 21  1  0  0  0  0
 20 17  1  0  0  0  0
 21 22  1  6  0  0  0
 24 21  1  0  0  0  0
 24 23  1  0  0  0  0
 25 27  1  0  0  0  0
 26  1  1  0  0  0  0
 26 25  1  0  0  0  0
 26 27  1  0  0  0  0
 29 30  1  0  0  0  0
 30 28  1  0  0  0  0
 30 33  1  1  0  0  0
 31 29  1  1  0  0  0
 31 28  1  0  0  0  0
 31 26  1  0  0  0  0
 32 33  1  0  0  0  0
 35 34  2  0  0  0  0
 35  1  1  0  0  0  0
 36 35  1  0  0  0  0
 38 37  1  0  0  0  0
 38 36  1  0  0  0  0
 39 41  1  0  0  0  0
 40 39  2  0  0  0  0
 40 42  1  0  0  0  0
 41 37  2  0  0  0  0
 42 38  2  0  0  0  0
 43 39  1  0  0  0  0
 44 43  1  0  0  0  0
 45 42  1  0  0  0  0
 46 50  1  6  0  0  0
 46 48  1  0  0  0  0
 46 47  1  0  0  0  0
 48 45  1  1  0  0  0
 48 47  1  0  0  0  0
 49 50  2  0  0  0  0
M  END
>  <MODEL>
1

>  <REMARK>
 VINA RESULT:      -6.3      0.000      0.000
  Name = 
  19 active torsions:
  status: ('A' for Active; 'I' for Inactive)
    1  A    between atoms: C_1  and  C_22
    2  A    between atoms: C_1  and  C_30
    3  A    between atoms: C_5  and  C_9
    4  A    between atoms: C_9  and  N_20
    5  A    between atoms: O_12  and  C_35
    6  A    between atoms: O_12  and  C_45
    7  A    between atoms: C_14  and  C_48
    8  A    between atoms: C_15  and  C_40
    9  A    between atoms: C_16  and  C_31
   10  A    between atoms: C_17  and  C_31
   11  A    between atoms: C_17  and  O_46
   12  A    between atoms: C_18  and  C_29
   13  A    between atoms: C_18  and  C_36
   14  A    between atoms: N_20  and  C_29
   15  A    between atoms: C_21  and  C_49
   16  A    between atoms: C_22  and  C_39
   17  A    between atoms: C_26  and  C_43
   18  A    between atoms: C_30  and  C_48
   19  A    between atoms: C_34  and  O_38
                            x       y       z     vdW  Elec       q    Type
                         _______ _______ _______ _____ _____    ______ ____

>  <TORSDO>
F 19

$$$$
=
 OpenBabel11062419213D

 50 56  0  0  1  0  0  0  0  0999 V2000
  195.0830  174.0230  144.5730 C   0  0  0  0  0  0  0  0  0  0  0  0
  194.2570  174.1950  145.6190 C   0  0  0  0  0  3  0  0  0  0  0  0
  190.8490  176.2840  145.2830 C   0  0  1  0  0  3  0  0  0  0  0  0
  192.6460  176.5690  145.3650 S   0  0  0  0  0  0  0  0  0  0  0  0
  190.5530  174.7770  145.4430 C   0  0  1  0  0  3  0  0  0  0  0  0
  192.9240  174.8200  145.6090 C   0  0  0  0  0  0  0  0  0  0  0  0
  191.8450  174.0610  145.5740 C   0  0  0  0  0  3  0  0  0  0  0  0
  188.3920  175.3100  146.6000 C   0  0  0  0  0  2  0  0  0  0  0  0
  190.1460  177.1560  146.3270 C   0  0  0  0  0  2  0  0  0  0  0  0
  188.6570  176.8140  146.4060 C   0  0  2  0  0  3  0  0  0  0  0  0
  189.6650  174.4640  146.6490 C   0  0  0  0  0  2  0  0  0  0  0  0
  188.0190  177.6100  147.5310 C   0  0  0  0  0  2  0  0  0  0  0  0
  187.0000  178.6030  146.9980 C   0  0  0  0  0  2  0  0  0  0  0  0
  185.6720  178.0100  146.9840 N   0  0  0  0  0  2  0  0  0  0  0  0
  184.8320  178.8250  146.1230 C   0  0  0  0  0  2  0  0  0  0  0  0
  184.6440  178.1500  144.7700 C   0  0  2  0  0  3  0  0  0  0  0  0
  185.1380  179.0180  143.6270 C   0  0  1  0  0  0  0  0  0  0  0  0
  183.6580  178.9420  143.9130 C   0  0  0  0  0  2  0  0  0  0  0  0
  185.6800  180.2690  143.9340 O   0  0  0  0  0  1  0  0  0  0  0  0
  185.5590  178.3420  142.3270 C   0  0  0  0  0  2  0  0  0  0  0  0
  187.0770  178.3070  142.1300 C   0  0  1  0  0  3  0  0  0  0  0  0
  187.7340  177.3050  143.0660 C   0  0  0  0  0  1  0  0  0  0  0  0
  186.2110  177.5560  140.2340 C   0  0  0  0  0  1  0  0  0  0  0  0
  187.4010  178.0160  140.8010 O   0  0  0  0  0  0  0  0  0  0  0  0
  197.5950  173.9860  145.1600 C   0  0  0  0  0  2  0  0  0  0  0  0
  196.3360  173.2140  144.7850 C   0  0  0  0  0  0  0  0  0  0  0  0
  196.8080  173.2550  146.2300 C   0  0  0  0  0  2  0  0  0  0  0  0
  197.2870  170.6420  145.3400 S   0  0  0  0  0  0  0  0  0  0  0  0
  195.1400  171.0430  144.1840 C   0  0  0  0  0  2  0  0  0  0  0  0
  195.6070  169.9720  145.1490 C   0  0  2  0  0  3  0  0  0  0  0  0
  196.4610  171.7960  144.1900 C   0  0  1  0  0  3  0  0  0  0  0  0
  194.9370  168.8000  147.2360 C   0  0  0  0  0  1  0  0  0  0  0  0
  194.8420  170.0970  146.4560 C   0  0  0  0  0  2  0  0  0  0  0  0
  195.0360  175.8180  143.0150 O   0  0  0  0  0  0  0  0  0  0  0  0
  194.8220  174.5950  143.2340 C   0  0  0  0  0  0  0  0  0  0  0  0
  194.2870  173.7180  142.1430 C   0  0  0  0  0  2  0  0  0  0  0  0
  192.1550  175.0010  141.9120 C   0  0  0  0  0  3  0  0  0  0  0  0
  192.7950  173.7680  142.0700 C   0  0  0  0  0  0  0  0  0  0  0  0
  189.9910  173.9100  142.0030 C   0  0  0  0  0  0  0  0  0  0  0  0
  190.6330  172.6720  142.1650 C   0  0  0  0  0  3  0  0  0  0  0  0
  190.7590  175.0700  141.8760 C   0  0  0  0  0  3  0  0  0  0  0  0
  192.0360  172.5940  142.2000 C   0  0  0  0  0  0  0  0  0  0  0  0
  188.5960  174.0130  141.9670 O   0  0  0  0  0  0  0  0  0  0  0  0
  187.7490  172.8820  141.8210 C   0  0  0  0  0  1  0  0  0  0  0  0
  192.6920  171.3710  142.3670 O   0  0  0  0  0  0  0  0  0  0  0  0
  193.9820  170.1940  140.7750 C   0  0  1  0  0  3  0  0  0  0  0  0
  192.9280  170.8650  140.1320 O   0  0  0  0  0  0  0  0  0  0  0  0
  192.6510  170.3280  141.4030 C   0  0  2  0  0  3  0  0  0  0  0  0
  194.2800  168.7040  138.9830 O   0  0  0  0  0  0  0  0  0  0  0  0
  194.1270  168.8350  140.1860 C   0  0  0  0  0  3  0  0  0  0  0  0
  1 26  1  0  0  0  0
  1  2  2  0  0  0  0
  3  4  1  0  0  0  0
  3  5  1  0  0  0  0
  3  9  1  1  0  0  0
  4  6  1  0  0  0  0
  5  7  1  1  0  0  0
  5 11  1  0  0  0  0
  6  2  1  0  0  0  0
  7  6  2  0  0  0  0
  8 11  1  0  0  0  0
  9 10  1  0  0  0  0
 10  8  1  0  0  0  0
 10 12  1  1  0  0  0
 13 12  1  0  0  0  0
 14 13  1  0  0  0  0
 15 14  1  0  0  0  0
 16 15  1  1  0  0  0
 17 18  1  0  0  0  0
 17 19  1  1  0  0  0
 17 16  1  0  0  0  0
 18 16  1  0  0  0  0
 20 17  1  0  0  0  0
 21 20  1  0  0  0  0
 21 22  1  1  0  0  0
 23 24  1  0  0  0  0
 24 21  1  0  0  0  0
 25 27  1  0  0  0  0
 26 25  1  0  0  0  0
 26 27  1  0  0  0  0
 29 30  1  0  0  0  0
 30 28  1  0  0  0  0
 30 33  1  1  0  0  0
 31 29  1  1  0  0  0
 31 26  1  0  0  0  0
 31 28  1  0  0  0  0
 33 32  1  0  0  0  0
 34 35  2  0  0  0  0
 35  1  1  0  0  0  0
 36 35  1  0  0  0  0
 37 38  1  0  0  0  0
 38 36  1  0  0  0  0
 38 42  2  0  0  0  0
 39 40  2  0  0  0  0
 40 42  1  0  0  0  0
 41 37  2  0  0  0  0
 41 39  1  0  0  0  0
 42 45  1  0  0  0  0
 43 39  1  0  0  0  0
 44 43  1  0  0  0  0
 46 50  1  6  0  0  0
 46 48  1  0  0  0  0
 47 46  1  0  0  0  0
 47 48  1  0  0  0  0
 48 45  1  1  0  0  0
 49 50  2  0  0  0  0
M  END
>  <MODEL>
2

>  <REMARK>
 VINA RESULT:      -6.0      2.185      3.480
  Name = 
  19 active torsions:
  status: ('A' for Active; 'I' for Inactive)
    1  A    between atoms: C_1  and  C_22
    2  A    between atoms: C_1  and  C_30
    3  A    between atoms: C_5  and  C_9
    4  A    between atoms: C_9  and  N_20
    5  A    between atoms: O_12  and  C_35
    6  A    between atoms: O_12  and  C_45
    7  A    between atoms: C_14  and  C_48
    8  A    between atoms: C_15  and  C_40
    9  A    between atoms: C_16  and  C_31
   10  A    between atoms: C_17  and  C_31
   11  A    between atoms: C_17  and  O_46
   12  A    between atoms: C_18  and  C_29
   13  A    between atoms: C_18  and  C_36
   14  A    between atoms: N_20  and  C_29
   15  A    between atoms: C_21  and  C_49
   16  A    between atoms: C_22  and  C_39
   17  A    between atoms: C_26  and  C_43
   18  A    between atoms: C_30  and  C_48
   19  A    between atoms: C_34  and  O_38
                            x       y       z     vdW  Elec       q    Type
                         _______ _______ _______ _____ _____    ______ ____

>  <TORSDO>
F 19

$$$$
=
 OpenBabel11062419213D

 50 56  0  0  1  0  0  0  0  0999 V2000
  193.4070  175.5300  143.4020 C   0  0  0  0  0  0  0  0  0  0  0  0
  192.2410  175.7950  144.0150 C   0  0  0  0  0  3  0  0  0  0  0  0
  189.1730  177.7120  142.2810 C   0  0  1  0  0  3  0  0  0  0  0  0
  190.5930  178.0660  143.3630 S   0  0  0  0  0  0  0  0  0  0  0  0
  189.1090  176.1970  141.9850 C   0  0  1  0  0  3  0  0  0  0  0  0
  191.0130  176.3290  143.4020 C   0  0  0  0  0  0  0  0  0  0  0  0
  190.2560  175.5440  142.6600 C   0  0  0  0  0  3  0  0  0  0  0  0
  186.6050  176.3100  141.8750 C   0  0  0  0  0  2  0  0  0  0  0  0
  187.8940  178.2620  142.9200 C   0  0  0  0  0  2  0  0  0  0  0  0
  186.6610  177.8280  142.1250 C   0  0  2  0  0  3  0  0  0  0  0  0
  187.8010  175.5500  142.4480 C   0  0  0  0  0  2  0  0  0  0  0  0
  185.4100  178.2890  142.8530 C   0  0  0  0  0  2  0  0  0  0  0  0
  185.7370  179.3200  143.9200 C   0  0  0  0  0  2  0  0  0  0  0  0
  184.5880  179.5410  144.7830 N   0  0  0  0  0  2  0  0  0  0  0  0
  184.8540  178.8890  146.0540 C   0  0  0  0  0  2  0  0  0  0  0  0
  186.3260  178.5070  146.1580 C   0  0  2  0  0  3  0  0  0  0  0  0
  186.5170  177.0070  146.2890 C   0  0  1  0  0  0  0  0  0  0  0  0
  186.6170  177.8760  147.5180 C   0  0  0  0  0  2  0  0  0  0  0  0
  185.3800  176.1940  146.2980 O   0  0  0  0  0  1  0  0  0  0  0  0
  187.8430  176.4000  145.8440 C   0  0  0  0  0  2  0  0  0  0  0  0
  188.7710  176.0530  147.0100 C   0  0  1  0  0  3  0  0  0  0  0  0
  189.1710  174.5860  146.9810 C   0  0  0  0  0  1  0  0  0  0  0  0
  190.9060  176.0940  147.5960 C   0  0  0  0  0  1  0  0  0  0  0  0
  189.9070  176.8680  147.0040 O   0  0  0  0  0  0  0  0  0  0  0  0
  195.7000  175.6730  144.5740 C   0  0  0  0  0  2  0  0  0  0  0  0
  194.4830  174.8370  144.1960 C   0  0  0  0  0  0  0  0  0  0  0  0
  194.6160  175.4050  145.6000 C   0  0  0  0  0  2  0  0  0  0  0  0
  193.8460  172.5630  145.6960 S   0  0  0  0  0  0  0  0  0  0  0  0
  193.6040  172.6440  143.2380 C   0  0  0  0  0  2  0  0  0  0  0  0
  192.8220  171.9400  144.3280 C   0  0  2  0  0  3  0  0  0  0  0  0
  194.5860  173.2980  144.1960 C   0  0  1  0  0  3  0  0  0  0  0  0
  190.4690  171.7200  143.5550 C   0  0  0  0  0  1  0  0  0  0  0  0
  191.4230  172.5300  144.4120 C   0  0  0  0  0  2  0  0  0  0  0  0
  194.0430  177.0650  141.7010 O   0  0  0  0  0  0  0  0  0  0  0  0
  193.6810  175.8930  141.9940 C   0  0  0  0  0  0  0  0  0  0  0  0
  193.5110  174.8670  140.9160 C   0  0  0  0  0  2  0  0  0  0  0  0
  195.9650  174.8970  140.4450 C   0  0  0  0  0  3  0  0  0  0  0  0
  194.6560  174.8720  139.9550 C   0  0  0  0  0  0  0  0  0  0  0  0
  196.8310  174.9590  138.1810 C   0  0  0  0  0  0  0  0  0  0  0  0
  195.5170  174.9370  137.6880 C   0  0  0  0  0  3  0  0  0  0  0  0
  197.0470  174.9380  139.5610 C   0  0  0  0  0  3  0  0  0  0  0  0
  194.4230  174.8940  138.5710 C   0  0  0  0  0  0  0  0  0  0  0  0
  197.9350  175.0030  137.3230 O   0  0  0  0  0  0  0  0  0  0  0  0
  197.9400  174.3730  136.0500 C   0  0  0  0  0  1  0  0  0  0  0  0
  193.1080  174.8790  138.0980 O   0  0  0  0  0  0  0  0  0  0  0  0
  191.0380  173.9020  137.5110 C   0  0  1  0  0  3  0  0  0  0  0  0
  191.6900  173.1000  138.4630 O   0  0  0  0  0  0  0  0  0  0  0  0
  192.5070  173.7350  137.5080 C   0  0  2  0  0  3  0  0  0  0  0  0
  189.2490  172.7270  136.5430 O   0  0  0  0  0  0  0  0  0  0  0  0
  190.4290  173.0280  136.4720 C   0  0  0  0  0  3  0  0  0  0  0  0
  1  2  2  0  0  0  0
  1 26  1  0  0  0  0
  3  9  1  1  0  0  0
  3  4  1  0  0  0  0
  4  6  1  0  0  0  0
  5  3  1  0  0  0  0
  5 11  1  1  0  0  0
  5  7  1  0  0  0  0
  6  2  1  0  0  0  0
  7  6  2  0  0  0  0
  8 10  1  0  0  0  0
  8 11  1  0  0  0  0
 10 12  1  1  0  0  0
 10  9  1  0  0  0  0
 12 13  1  0  0  0  0
 13 14  1  0  0  0  0
 14 15  1  0  0  0  0
 16 15  1  1  0  0  0
 16 17  1  0  0  0  0
 16 18  1  0  0  0  0
 17 19  1  6  0  0  0
 17 18  1  0  0  0  0
 20 17  1  0  0  0  0
 20 21  1  0  0  0  0
 21 22  1  6  0  0  0
 24 21  1  0  0  0  0
 24 23  1  0  0  0  0
 25 27  1  0  0  0  0
 26 25  1  0  0  0  0
 26 27  1  0  0  0  0
 29 30  1  0  0  0  0
 30 33  1  1  0  0  0
 30 28  1  0  0  0  0
 31 29  1  6  0  0  0
 31 26  1  0  0  0  0
 31 28  1  0  0  0  0
 32 33  1  0  0  0  0
 34 35  2  0  0  0  0
 35  1  1  0  0  0  0
 36 35  1  0  0  0  0
 38 37  1  0  0  0  0
 38 36  1  0  0  0  0
 39 41  1  0  0  0  0
 40 39  2  0  0  0  0
 40 42  1  0  0  0  0
 41 37  2  0  0  0  0
 42 38  2  0  0  0  0
 43 39  1  0  0  0  0
 44 43  1  0  0  0  0
 45 42  1  0  0  0  0
 46 50  1  6  0  0  0
 46 47  1  0  0  0  0
 48 46  1  0  0  0  0
 48 45  1  1  0  0  0
 48 47  1  0  0  0  0
 50 49  2  0  0  0  0
M  END
>  <MODEL>
3

>  <REMARK>
 VINA RESULT:      -6.0      2.113      3.562
  Name = 
  19 active torsions:
  status: ('A' for Active; 'I' for Inactive)
    1  A    between atoms: C_1  and  C_22
    2  A    between atoms: C_1  and  C_30
    3  A    between atoms: C_5  and  C_9
    4  A    between atoms: C_9  and  N_20
    5  A    between atoms: O_12  and  C_35
    6  A    between atoms: O_12  and  C_45
    7  A    between atoms: C_14  and  C_48
    8  A    between atoms: C_15  and  C_40
    9  A    between atoms: C_16  and  C_31
   10  A    between atoms: C_17  and  C_31
   11  A    between atoms: C_17  and  O_46
   12  A    between atoms: C_18  and  C_29
   13  A    between atoms: C_18  and  C_36
   14  A    between atoms: N_20  and  C_29
   15  A    between atoms: C_21  and  C_49
   16  A    between atoms: C_22  and  C_39
   17  A    between atoms: C_26  and  C_43
   18  A    between atoms: C_30  and  C_48
   19  A    between atoms: C_34  and  O_38
                            x       y       z     vdW  Elec       q    Type
                         _______ _______ _______ _____ _____    ______ ____

>  <TORSDO>
F 19

$$$$
=
 OpenBabel11062419213D

 50 56  0  0  1  0  0  0  0  0999 V2000
  187.8130  177.5490  145.4990 C   0  0  0  0  0  0  0  0  0  0  0  0
  188.4060  177.9390  144.3580 C   0  0  0  0  0  3  0  0  0  0  0  0
  191.9560  177.1460  142.6660 C   0  0  1  0  0  3  0  0  0  0  0  0
  190.1850  176.8290  142.3830 S   0  0  0  0  0  0  0  0  0  0  0  0
  192.1420  177.9150  143.9920 C   0  0  1  0  0  3  0  0  0  0  0  0
  189.7810  177.6440  143.9220 C   0  0  0  0  0  0  0  0  0  0  0  0
  190.8010  178.1680  144.5740 C   0  0  0  0  0  3  0  0  0  0  0  0
  194.3410  176.7690  144.3640 C   0  0  0  0  0  2  0  0  0  0  0  0
  192.7260  175.8240  142.6150 C   0  0  0  0  0  2  0  0  0  0  0  0
  194.1860  176.0310  143.0220 C   0  0  2  0  0  3  0  0  0  0  0  0
  193.0110  177.1650  145.0040 C   0  0  0  0  0  2  0  0  0  0  0  0
  194.8860  174.6840  143.0770 C   0  0  0  0  0  2  0  0  0  0  0  0
  195.1620  174.1460  141.6830 C   0  0  0  0  0  2  0  0  0  0  0  0
  195.9640  175.0920  140.9220 N   0  0  0  0  0  2  0  0  0  0  0  0
  195.7050  174.8590  139.5110 C   0  0  0  0  0  2  0  0  0  0  0  0
  194.2100  174.9250  139.2260 C   0  0  2  0  0  3  0  0  0  0  0  0
  193.7740  173.8690  138.2260 C   0  0  1  0  0  0  0  0  0  0  0  0
  193.9640  175.2930  137.7630 C   0  0  0  0  0  2  0  0  0  0  0  0
  194.7440  173.0050  137.7130 O   0  0  0  0  0  1  0  0  0  0  0  0
  192.3220  173.4060  138.2430 C   0  0  0  0  0  2  0  0  0  0  0  0
  191.5110  173.9150  137.0480 C   0  0  1  0  0  3  0  0  0  0  0  0
  191.5710  172.9400  135.8830 C   0  0  0  0  0  1  0  0  0  0  0  0
  189.4460  173.9330  136.2490 C   0  0  0  0  0  1  0  0  0  0  0  0
  190.1830  174.1560  137.4120 O   0  0  0  0  0  0  0  0  0  0  0  0
  185.9050  178.4080  147.0080 C   0  0  0  0  0  2  0  0  0  0  0  0
  186.3430  177.8330  145.6660 C   0  0  0  0  0  0  0  0  0  0  0  0
  186.0590  179.3210  145.8060 C   0  0  0  0  0  2  0  0  0  0  0  0
  184.4010  178.3410  143.7170 S   0  0  0  0  0  0  0  0  0  0  0  0
  185.9410  176.4140  143.5870 C   0  0  0  0  0  2  0  0  0  0  0  0
  185.3080  177.3000  142.5340 C   0  0  2  0  0  3  0  0  0  0  0  0
  185.3050  177.1430  144.7590 C   0  0  1  0  0  3  0  0  0  0  0  0
  186.3030  177.9060  140.3380 C   0  0  0  0  0  1  0  0  0  0  0  0
  186.3860  178.1150  141.8380 C   0  0  0  0  0  2  0  0  0  0  0  0
  189.1320  177.5360  147.4770 O   0  0  0  0  0  0  0  0  0  0  0  0
  188.5350  176.8640  146.5930 C   0  0  0  0  0  0  0  0  0  0  0  0
  188.5690  175.3660  146.6360 C   0  0  0  0  0  2  0  0  0  0  0  0
  190.9510  175.0850  147.3380 C   0  0  0  0  0  3  0  0  0  0  0  0
  189.9450  174.8320  146.4000 C   0  0  0  0  0  0  0  0  0  0  0  0
  192.5610  173.9110  145.9550 C   0  0  0  0  0  0  0  0  0  0  0  0
  191.5520  173.6610  145.0110 C   0  0  0  0  0  3  0  0  0  0  0  0
  192.2520  174.6240  147.1170 C   0  0  0  0  0  3  0  0  0  0  0  0
  190.2410  174.1200  145.2280 C   0  0  0  0  0  0  0  0  0  0  0  0
  193.8730  173.4670  145.7610 O   0  0  0  0  0  0  0  0  0  0  0  0
  194.1910  172.1030  145.5220 C   0  0  0  0  0  1  0  0  0  0  0  0
  189.2260  173.8850  144.2950 O   0  0  0  0  0  0  0  0  0  0  0  0
  188.2560  173.5240  142.1710 C   0  0  1  0  0  3  0  0  0  0  0  0
  188.5700  172.2910  142.7660 O   0  0  0  0  0  0  0  0  0  0  0  0
  189.4670  173.3500  143.0010 C   0  0  2  0  0  3  0  0  0  0  0  0
  188.2070  174.3320  139.9650 O   0  0  0  0  0  0  0  0  0  0  0  0
  188.6220  173.4770  140.7290 C   0  0  0  0  0  3  0  0  0  0  0  0
  1 26  1  0  0  0  0
  1 35  1  0  0  0  0
  2  1  2  0  0  0  0
  3  9  1  1  0  0  0
  3  5  1  0  0  0  0
  4  3  1  0  0  0  0
  4  6  1  0  0  0  0
  5  7  1  1  0  0  0
  5 11  1  0  0  0  0
  6  2  1  0  0  0  0
  6  7  2  0  0  0  0
  8 11  1  0  0  0  0
  9 10  1  0  0  0  0
 10 12  1  1  0  0  0
 10  8  1  0  0  0  0
 13 12  1  0  0  0  0
 14 13  1  0  0  0  0
 15 14  1  0  0  0  0
 16 15  1  6  0  0  0
 17 19  1  6  0  0  0
 17 20  1  0  0  0  0
 17 16  1  0  0  0  0
 18 17  1  0  0  0  0
 18 16  1  0  0  0  0
 21 22  1  6  0  0  0
 21 24  1  0  0  0  0
 21 20  1  0  0  0  0
 23 24  1  0  0  0  0
 26 27  1  0  0  0  0
 26 25  1  0  0  0  0
 27 25  1  0  0  0  0
 28 31  1  0  0  0  0
 30 33  1  1  0  0  0
 30 29  1  0  0  0  0
 30 28  1  0  0  0  0
 31 29  1  6  0  0  0
 31 26  1  0  0  0  0
 32 33  1  0  0  0  0
 35 36  1  0  0  0  0
 35 34  2  0  0  0  0
 38 36  1  0  0  0  0
 38 37  2  0  0  0  0
 39 41  2  0  0  0  0
 40 42  2  0  0  0  0
 40 39  1  0  0  0  0
 41 37  1  0  0  0  0
 42 38  1  0  0  0  0
 43 39  1  0  0  0  0
 44 43  1  0  0  0  0
 45 42  1  0  0  0  0
 46 50  1  6  0  0  0
 46 47  1  0  0  0  0
 46 48  1  0  0  0  0
 47 48  1  0  0  0  0
 48 45  1  1  0  0  0
 49 50  2  0  0  0  0
M  END
>  <MODEL>
4

>  <REMARK>
 VINA RESULT:      -5.8      3.086      8.225
  Name = 
  19 active torsions:
  status: ('A' for Active; 'I' for Inactive)
    1  A    between atoms: C_1  and  C_22
    2  A    between atoms: C_1  and  C_30
    3  A    between atoms: C_5  and  C_9
    4  A    between atoms: C_9  and  N_20
    5  A    between atoms: O_12  and  C_35
    6  A    between atoms: O_12  and  C_45
    7  A    between atoms: C_14  and  C_48
    8  A    between atoms: C_15  and  C_40
    9  A    between atoms: C_16  and  C_31
   10  A    between atoms: C_17  and  C_31
   11  A    between atoms: C_17  and  O_46
   12  A    between atoms: C_18  and  C_29
   13  A    between atoms: C_18  and  C_36
   14  A    between atoms: N_20  and  C_29
   15  A    between atoms: C_21  and  C_49
   16  A    between atoms: C_22  and  C_39
   17  A    between atoms: C_26  and  C_43
   18  A    between atoms: C_30  and  C_48
   19  A    between atoms: C_34  and  O_38
                            x       y       z     vdW  Elec       q    Type
                         _______ _______ _______ _____ _____    ______ ____

>  <TORSDO>
F 19

$$$$
=
 OpenBabel11062419213D

 50 56  0  0  1  0  0  0  0  0999 V2000
  193.9230  170.7030  142.4270 C   0  0  0  0  0  0  0  0  0  0  0  0
  194.5910  171.8490  142.6460 C   0  0  0  0  0  3  0  0  0  0  0  0
  193.9840  174.4920  145.6030 C   0  0  1  0  0  3  0  0  0  0  0  0
  194.3320  172.7180  145.3800 S   0  0  0  0  0  0  0  0  0  0  0  0
  193.8280  175.1690  144.2230 C   0  0  1  0  0  3  0  0  0  0  0  0
  194.2450  172.9110  143.6050 C   0  0  0  0  0  0  0  0  0  0  0  0
  194.0500  174.1430  143.1750 C   0  0  0  0  0  3  0  0  0  0  0  0
  192.1540  176.7700  145.1840 C   0  0  0  0  0  2  0  0  0  0  0  0
  192.7620  174.6630  146.5080 C   0  0  0  0  0  2  0  0  0  0  0  0
  192.3360  176.1310  146.5730 C   0  0  2  0  0  3  0  0  0  0  0  0
  192.4570  175.8190  144.0260 C   0  0  0  0  0  2  0  0  0  0  0  0
  191.0530  176.2460  147.3780 C   0  0  0  0  0  2  0  0  0  0  0  0
  189.8420  176.3940  146.4720 C   0  0  0  0  0  2  0  0  0  0  0  0
  189.0240  177.5180  146.8980 N   0  0  0  0  0  2  0  0  0  0  0  0
  187.6440  177.0670  146.9520 C   0  0  0  0  0  2  0  0  0  0  0  0
  186.9450  177.3290  145.6230 C   0  0  2  0  0  3  0  0  0  0  0  0
  185.9690  178.4880  145.7120 C   0  0  1  0  0  0  0  0  0  0  0  0
  185.4450  177.0740  145.7530 C   0  0  0  0  0  2  0  0  0  0  0  0
  185.8330  179.1450  146.9370 O   0  0  0  0  0  1  0  0  0  0  0  0
  185.6220  179.2470  144.4360 C   0  0  0  0  0  2  0  0  0  0  0  0
  185.4640  178.3360  143.2150 C   0  0  1  0  0  3  0  0  0  0  0  0
  184.0210  178.2970  142.7380 C   0  0  0  0  0  1  0  0  0  0  0  0
  186.0790  177.8260  141.1500 C   0  0  0  0  0  1  0  0  0  0  0  0
  186.3090  178.7410  142.1780 O   0  0  0  0  0  0  0  0  0  0  0  0
  193.9920  169.6110  140.0910 C   0  0  0  0  0  2  0  0  0  0  0  0
  194.5470  169.6850  141.5080 C   0  0  0  0  0  0  0  0  0  0  0  0
  195.2970  170.3350  140.3560 C   0  0  0  0  0  2  0  0  0  0  0  0
  197.1340  168.7150  141.9510 S   0  0  0  0  0  0  0  0  0  0  0  0
  195.3160  168.4540  143.6040 C   0  0  0  0  0  2  0  0  0  0  0  0
  196.8120  168.6550  143.7400 C   0  0  2  0  0  3  0  0  0  0  0  0
  195.3270  168.4860  142.0850 C   0  0  1  0  0  3  0  0  0  0  0  0
  197.3460  169.8510  145.8530 C   0  0  0  0  0  1  0  0  0  0  0  0
  197.0880  170.0120  144.3670 C   0  0  0  0  0  2  0  0  0  0  0  0
  192.5440  169.9770  144.2220 O   0  0  0  0  0  0  0  0  0  0  0  0
  192.6100  170.4030  143.0370 C   0  0  0  0  0  0  0  0  0  0  0  0
  191.3580  170.5900  142.2350 C   0  0  0  0  0  2  0  0  0  0  0  0
  190.1400  172.2230  143.6820 C   0  0  0  0  0  3  0  0  0  0  0  0
  190.7500  171.9370  142.4560 C   0  0  0  0  0  0  0  0  0  0  0  0
  189.5300  174.4300  142.8840 C   0  0  0  0  0  0  0  0  0  0  0  0
  190.1400  174.1420  141.6520 C   0  0  0  0  0  3  0  0  0  0  0  0
  189.5350  173.4650  143.8940 C   0  0  0  0  0  3  0  0  0  0  0  0
  190.7510  172.8960  141.4310 C   0  0  0  0  0  0  0  0  0  0  0  0
  188.9130  175.6620  143.1260 O   0  0  0  0  0  0  0  0  0  0  0  0
  189.3620  176.8720  142.5320 C   0  0  0  0  0  1  0  0  0  0  0  0
  191.3570  172.5900  140.2090 O   0  0  0  0  0  0  0  0  0  0  0  0
  190.5960  172.7480  137.9770 C   0  0  1  0  0  3  0  0  0  0  0  0
  191.9970  172.8470  138.0110 O   0  0  0  0  0  0  0  0  0  0  0  0
  191.2980  173.4450  139.0760 C   0  0  2  0  0  3  0  0  0  0  0  0
  189.6190  173.3740  135.9350 O   0  0  0  0  0  0  0  0  0  0  0  0
  190.0600  173.7440  137.0100 C   0  0  0  0  0  3  0  0  0  0  0  0
  1  2  2  0  0  0  0
  1 35  1  0  0  0  0
  2  6  1  0  0  0  0
  3  9  1  1  0  0  0
  4  3  1  0  0  0  0
  5  7  1  6  0  0  0
  5  3  1  0  0  0  0
  6  4  1  0  0  0  0
  7  6  2  0  0  0  0
  8 10  1  0  0  0  0
  9 10  1  0  0  0  0
 10 12  1  6  0  0  0
 11  5  1  0  0  0  0
 11  8  1  0  0  0  0
 13 14  1  0  0  0  0
 13 12  1  0  0  0  0
 14 15  1  0  0  0  0
 16 17  1  0  0  0  0
 16 18  1  0  0  0  0
 16 15  1  1  0  0  0
 17 18  1  0  0  0  0
 17 19  1  1  0  0  0
 20 17  1  0  0  0  0
 21 22  1  6  0  0  0
 21 20  1  0  0  0  0
 23 24  1  0  0  0  0
 24 21  1  0  0  0  0
 25 27  1  0  0  0  0
 25 26  1  0  0  0  0
 26  1  1  0  0  0  0
 27 26  1  0  0  0  0
 28 31  1  0  0  0  0
 28 30  1  0  0  0  0
 29 30  1  0  0  0  0
 30 33  1  1  0  0  0
 31 26  1  1  0  0  0
 31 29  1  0  0  0  0
 33 32  1  0  0  0  0
 35 34  2  0  0  0  0
 36 38  1  0  0  0  0
 36 35  1  0  0  0  0
 37 41  1  0  0  0  0
 38 37  2  0  0  0  0
 39 43  1  0  0  0  0
 39 41  2  0  0  0  0
 40 39  1  0  0  0  0
 42 40  2  0  0  0  0
 42 38  1  0  0  0  0
 44 43  1  0  0  0  0
 45 42  1  0  0  0  0
 46 50  1  6  0  0  0
 46 47  1  0  0  0  0
 46 48  1  0  0  0  0
 47 48  1  0  0  0  0
 48 45  1  1  0  0  0
 49 50  2  0  0  0  0
M  END
>  <MODEL>
5

>  <REMARK>
 VINA RESULT:      -5.8      2.450      4.908
  Name = 
  19 active torsions:
  status: ('A' for Active; 'I' for Inactive)
    1  A    between atoms: C_1  and  C_22
    2  A    between atoms: C_1  and  C_30
    3  A    between atoms: C_5  and  C_9
    4  A    between atoms: C_9  and  N_20
    5  A    between atoms: O_12  and  C_35
    6  A    between atoms: O_12  and  C_45
    7  A    between atoms: C_14  and  C_48
    8  A    between atoms: C_15  and  C_40
    9  A    between atoms: C_16  and  C_31
   10  A    between atoms: C_17  and  C_31
   11  A    between atoms: C_17  and  O_46
   12  A    between atoms: C_18  and  C_29
   13  A    between atoms: C_18  and  C_36
   14  A    between atoms: N_20  and  C_29
   15  A    between atoms: C_21  and  C_49
   16  A    between atoms: C_22  and  C_39
   17  A    between atoms: C_26  and  C_43
   18  A    between atoms: C_30  and  C_48
   19  A    between atoms: C_34  and  O_38
                            x       y       z     vdW  Elec       q    Type
                         _______ _______ _______ _____ _____    ______ ____

>  <TORSDO>
F 19

$$$$
=
 OpenBabel11062419213D

 50 56  0  0  1  0  0  0  0  0999 V2000
  187.8000  177.2930  142.7380 C   0  0  0  0  0  0  0  0  0  0  0  0
  188.7420  177.9610  143.4250 C   0  0  0  0  0  3  0  0  0  0  0  0
  192.4050  176.7840  144.5620 C   0  0  1  0  0  3  0  0  0  0  0  0
  191.5160  177.2790  143.0520 S   0  0  0  0  0  0  0  0  0  0  0  0
  191.4290  176.7680  145.7590 C   0  0  1  0  0  3  0  0  0  0  0  0
  189.9930  177.4180  143.9790 C   0  0  0  0  0  0  0  0  0  0  0  0
  190.0950  177.1990  145.2760 C   0  0  0  0  0  3  0  0  0  0  0  0
  192.7080  174.8750  146.7940 C   0  0  0  0  0  2  0  0  0  0  0  0
  193.1030  175.4420  144.3280 C   0  0  0  0  0  2  0  0  0  0  0  0
  193.7110  174.9130  145.6270 C   0  0  2  0  0  3  0  0  0  0  0  0
  191.3180  175.3950  146.4250 C   0  0  0  0  0  2  0  0  0  0  0  0
  194.2880  173.5280  145.3830 C   0  0  0  0  0  2  0  0  0  0  0  0
  194.5630  173.2960  143.9070 C   0  0  0  0  0  2  0  0  0  0  0  0
  195.6860  172.3870  143.7360 N   0  0  0  0  0  2  0  0  0  0  0  0
  195.9550  172.2770  142.3130 C   0  0  0  0  0  2  0  0  0  0  0  0
  196.9590  173.3370  141.8760 C   0  0  2  0  0  3  0  0  0  0  0  0
  196.5600  173.9940  140.5670 C   0  0  1  0  0  0  0  0  0  0  0  0
  197.6280  172.9280  140.5650 C   0  0  0  0  0  2  0  0  0  0  0  0
  195.3800  173.5720  139.9480 O   0  0  0  0  0  1  0  0  0  0  0  0
  197.0760  175.3970  140.2690 C   0  0  0  0  0  2  0  0  0  0  0  0
  196.6090  176.4410  141.2870 C   0  0  1  0  0  3  0  0  0  0  0  0
  195.1150  176.3280  141.5490 C   0  0  0  0  0  1  0  0  0  0  0  0
  196.4120  176.6810  143.4800 C   0  0  0  0  0  1  0  0  0  0  0  0
  197.3230  176.3260  142.4840 O   0  0  0  0  0  0  0  0  0  0  0  0
  186.7190  178.2890  140.6180 C   0  0  0  0  0  2  0  0  0  0  0  0
  186.6730  178.0860  142.1270 C   0  0  0  0  0  0  0  0  0  0  0  0
  185.8040  177.2360  141.2130 C   0  0  0  0  0  2  0  0  0  0  0  0
  184.1750  178.3300  143.3630 S   0  0  0  0  0  0  0  0  0  0  0  0
  186.2710  179.0590  144.4490 C   0  0  0  0  0  2  0  0  0  0  0  0
  184.9840  178.4660  144.9860 C   0  0  2  0  0  3  0  0  0  0  0  0
  185.8210  179.0320  142.9980 C   0  0  1  0  0  3  0  0  0  0  0  0
  185.4950  177.1730  147.0470 C   0  0  0  0  0  1  0  0  0  0  0  0
  185.2590  177.0820  145.5520 C   0  0  0  0  0  2  0  0  0  0  0  0
  187.0180  175.0990  143.2140 O   0  0  0  0  0  0  0  0  0  0  0  0
  187.8160  175.8250  142.5610 C   0  0  0  0  0  0  0  0  0  0  0  0
  188.7970  175.2020  141.6160 C   0  0  0  0  0  2  0  0  0  0  0  0
  189.4690  173.9050  143.6440 C   0  0  0  0  0  3  0  0  0  0  0  0
  189.5710  174.0980  142.2630 C   0  0  0  0  0  0  0  0  0  0  0  0
  191.0670  172.0840  143.5250 C   0  0  0  0  0  0  0  0  0  0  0  0
  191.1720  172.2800  142.1380 C   0  0  0  0  0  3  0  0  0  0  0  0
  190.2130  172.9000  144.2700 C   0  0  0  0  0  3  0  0  0  0  0  0
  190.4260  173.2870  141.5000 C   0  0  0  0  0  0  0  0  0  0  0  0
  191.8000  171.0910  144.1820 O   0  0  0  0  0  0  0  0  0  0  0  0
  192.6420  170.1780  143.4910 C   0  0  0  0  0  1  0  0  0  0  0  0
  190.5240  173.5000  140.1220 O   0  0  0  0  0  0  0  0  0  0  0  0
  189.4970  173.3260  138.0010 C   0  0  1  0  0  3  0  0  0  0  0  0
  188.6560  172.7780  138.9840 O   0  0  0  0  0  0  0  0  0  0  0  0
  190.0390  172.5790  139.1560 C   0  0  2  0  0  3  0  0  0  0  0  0
  189.4340  172.9440  135.6840 O   0  0  0  0  0  0  0  0  0  0  0  0
  189.4770  172.4500  136.7990 C   0  0  0  0  0  3  0  0  0  0  0  0
  1  2  2  0  0  0  0
  2  6  1  0  0  0  0
  3  9  1  6  0  0  0
  3  5  1  0  0  0  0
  4  6  1  0  0  0  0
  4  3  1  0  0  0  0
  5  7  1  6  0  0  0
  5 11  1  0  0  0  0
  6  7  2  0  0  0  0
  9 10  1  0  0  0  0
 10 12  1  6  0  0  0
 10  8  1  0  0  0  0
 11  8  1  0  0  0  0
 13 12  1  0  0  0  0
 14 13  1  0  0  0  0
 15 14  1  0  0  0  0
 16 15  1  6  0  0  0
 17 19  1  6  0  0  0
 17 16  1  0  0  0  0
 18 17  1  0  0  0  0
 18 16  1  0  0  0  0
 20 17  1  0  0  0  0
 20 21  1  0  0  0  0
 21 22  1  1  0  0  0
 21 24  1  0  0  0  0
 24 23  1  0  0  0  0
 25 27  1  0  0  0  0
 25 26  1  0  0  0  0
 26  1  1  0  0  0  0
 27 26  1  0  0  0  0
 28 30  1  0  0  0  0
 29 30  1  0  0  0  0
 30 33  1  6  0  0  0
 31 26  1  6  0  0  0
 31 28  1  0  0  0  0
 31 29  1  0  0  0  0
 33 32  1  0  0  0  0
 35  1  1  0  0  0  0
 35 34  2  0  0  0  0
 36 38  1  0  0  0  0
 36 35  1  0  0  0  0
 37 41  1  0  0  0  0
 38 37  2  0  0  0  0
 39 43  1  0  0  0  0
 39 41  2  0  0  0  0
 40 39  1  0  0  0  0
 42 40  2  0  0  0  0
 42 38  1  0  0  0  0
 44 43  1  0  0  0  0
 45 42  1  0  0  0  0
 46 50  1  6  0  0  0
 46 47  1  0  0  0  0
 46 48  1  0  0  0  0
 47 48  1  0  0  0  0
 48 45  1  1  0  0  0
 49 50  2  0  0  0  0
M  END
>  <MODEL>
6

>  <REMARK>
 VINA RESULT:      -5.7      2.879      8.403
  Name = 
  19 active torsions:
  status: ('A' for Active; 'I' for Inactive)
    1  A    between atoms: C_1  and  C_22
    2  A    between atoms: C_1  and  C_30
    3  A    between atoms: C_5  and  C_9
    4  A    between atoms: C_9  and  N_20
    5  A    between atoms: O_12  and  C_35
    6  A    between atoms: O_12  and  C_45
    7  A    between atoms: C_14  and  C_48
    8  A    between atoms: C_15  and  C_40
    9  A    between atoms: C_16  and  C_31
   10  A    between atoms: C_17  and  C_31
   11  A    between atoms: C_17  and  O_46
   12  A    between atoms: C_18  and  C_29
   13  A    between atoms: C_18  and  C_36
   14  A    between atoms: N_20  and  C_29
   15  A    between atoms: C_21  and  C_49
   16  A    between atoms: C_22  and  C_39
   17  A    between atoms: C_26  and  C_43
   18  A    between atoms: C_30  and  C_48
   19  A    between atoms: C_34  and  O_38
                            x       y       z     vdW  Elec       q    Type
                         _______ _______ _______ _____ _____    ______ ____

>  <TORSDO>
F 19

$$$$
=
 OpenBabel11062419213D

 50 56  0  0  1  0  0  0  0  0999 V2000
  194.2920  173.2800  144.5050 C   0  0  0  0  0  0  0  0  0  0  0  0
  193.8780  174.2140  145.3780 C   0  0  0  0  0  3  0  0  0  0  0  0
  190.4540  176.2860  145.1080 C   0  0  1  0  0  3  0  0  0  0  0  0
  192.2420  176.5280  144.8620 S   0  0  0  0  0  0  0  0  0  0  0  0
  190.1880  174.8560  145.6280 C   0  0  1  0  0  3  0  0  0  0  0  0
  192.5570  174.8620  145.4300 C   0  0  0  0  0  0  0  0  0  0  0  0
  191.4870  174.1470  145.7180 C   0  0  0  0  0  3  0  0  0  0  0  0
  188.2240  175.6870  146.9490 C   0  0  0  0  0  2  0  0  0  0  0  0
  189.9130  177.3810  146.0330 C   0  0  0  0  0  2  0  0  0  0  0  0
  188.4540  177.1070  146.4010 C   0  0  2  0  0  3  0  0  0  0  0  0
  189.4910  174.8330  146.9900 C   0  0  0  0  0  2  0  0  0  0  0  0
  187.9910  178.1430  147.4120 C   0  0  0  0  0  2  0  0  0  0  0  0
  186.4950  178.0430  147.6600 C   0  0  0  0  0  2  0  0  0  0  0  0
  185.8240  179.2540  147.2160 N   0  0  0  0  0  2  0  0  0  0  0  0
  184.9810  178.9050  146.0850 C   0  0  0  0  0  2  0  0  0  0  0  0
  185.8340  178.5800  144.8650 C   0  0  2  0  0  3  0  0  0  0  0  0
  185.0020  178.4690  143.6000 C   0  0  1  0  0  0  0  0  0  0  0  0
  185.4560  177.2120  144.3000 C   0  0  0  0  0  2  0  0  0  0  0  0
  183.6220  178.6690  143.6990 O   0  0  0  0  0  1  0  0  0  0  0  0
  185.6800  178.7170  142.2580 C   0  0  0  0  0  2  0  0  0  0  0  0
  185.0540  177.9220  141.1090 C   0  0  1  0  0  3  0  0  0  0  0  0
  183.8750  178.6660  140.5010 C   0  0  0  0  0  1  0  0  0  0  0  0
  187.2140  177.5320  140.8160 C   0  0  0  0  0  1  0  0  0  0  0  0
  186.0050  177.6310  140.1260 O   0  0  0  0  0  0  0  0  0  0  0  0
  195.6700  171.4440  145.6820 C   0  0  0  0  0  2  0  0  0  0  0  0
  195.6350  172.6390  144.7370 C   0  0  0  0  0  0  0  0  0  0  0  0
  195.6990  171.2250  144.1820 C   0  0  0  0  0  2  0  0  0  0  0  0
  197.2300  173.6150  142.6550 S   0  0  0  0  0  0  0  0  0  0  0  0
  196.7970  174.9090  144.7150 C   0  0  0  0  0  2  0  0  0  0  0  0
  197.0040  175.3120  143.2690 C   0  0  2  0  0  3  0  0  0  0  0  0
  196.9340  173.4190  144.4470 C   0  0  1  0  0  3  0  0  0  0  0  0
  196.0270  176.7920  141.5280 C   0  0  0  0  0  1  0  0  0  0  0  0
  195.7170  175.9020  142.7150 C   0  0  0  0  0  2  0  0  0  0  0  0
  192.7800  171.8240  143.3870 O   0  0  0  0  0  0  0  0  0  0  0  0
  193.4950  172.8610  143.3310 C   0  0  0  0  0  0  0  0  0  0  0  0
  193.5550  173.6650  142.0680 C   0  0  0  0  0  2  0  0  0  0  0  0
  191.1110  174.1880  142.1060 C   0  0  0  0  0  3  0  0  0  0  0  0
  192.2250  173.7380  141.3900 C   0  0  0  0  0  0  0  0  0  0  0  0
  189.6950  173.8170  140.1730 C   0  0  0  0  0  0  0  0  0  0  0  0
  190.8130  173.3620  139.4540 C   0  0  0  0  0  3  0  0  0  0  0  0
  189.8530  174.2290  141.4980 C   0  0  0  0  0  3  0  0  0  0  0  0
  192.0810  173.3190  140.0580 C   0  0  0  0  0  0  0  0  0  0  0  0
  188.4230  173.8660  139.5940 O   0  0  0  0  0  0  0  0  0  0  0  0
  188.1920  173.5590  138.2260 C   0  0  0  0  0  1  0  0  0  0  0  0
  193.2030  172.8620  139.3590 O   0  0  0  0  0  0  0  0  0  0  0  0
  195.3300  173.3150  138.4370 C   0  0  1  0  0  3  0  0  0  0  0  0
  194.8210  174.4730  139.0490 O   0  0  0  0  0  0  0  0  0  0  0  0
  193.8900  173.6450  138.3930 C   0  0  2  0  0  3  0  0  0  0  0  0
  197.1790  173.8520  137.0900 O   0  0  0  0  0  0  0  0  0  0  0  0
  195.9720  173.6890  137.1470 C   0  0  0  0  0  3  0  0  0  0  0  0
  1 26  1  0  0  0  0
  1  2  2  0  0  0  0
  2  6  1  0  0  0  0
  3  5  1  0  0  0  0
  3  9  1  1  0  0  0
  4  3  1  0  0  0  0
  4  6  1  0  0  0  0
  5  7  1  1  0  0  0
  5 11  1  0  0  0  0
  6  7  2  0  0  0  0
  8 11  1  0  0  0  0
  9 10  1  0  0  0  0
 10  8  1  0  0  0  0
 10 12  1  1  0  0  0
 12 13  1  0  0  0  0
 14 13  1  0  0  0  0
 15 14  1  0  0  0  0
 16 15  1  1  0  0  0
 17 19  1  1  0  0  0
 17 18  1  0  0  0  0
 17 16  1  0  0  0  0
 18 16  1  0  0  0  0
 20 17  1  0  0  0  0
 21 22  1  6  0  0  0
 21 20  1  0  0  0  0
 24 23  1  0  0  0  0
 24 21  1  0  0  0  0
 26 25  1  0  0  0  0
 27 26  1  0  0  0  0
 27 25  1  0  0  0  0
 28 30  1  0  0  0  0
 28 31  1  0  0  0  0
 30 33  1  6  0  0  0
 30 29  1  0  0  0  0
 31 29  1  1  0  0  0
 31 26  1  0  0  0  0
 32 33  1  0  0  0  0
 35 34  2  0  0  0  0
 35  1  1  0  0  0  0
 36 35  1  0  0  0  0
 38 36  1  0  0  0  0
 38 37  2  0  0  0  0
 39 41  2  0  0  0  0
 40 42  2  0  0  0  0
 40 39  1  0  0  0  0
 41 37  1  0  0  0  0
 42 38  1  0  0  0  0
 43 39  1  0  0  0  0
 44 43  1  0  0  0  0
 45 42  1  0  0  0  0
 46 50  1  6  0  0  0
 46 47  1  0  0  0  0
 48 46  1  0  0  0  0
 48 47  1  0  0  0  0
 48 45  1  1  0  0  0
 49 50  2  0  0  0  0
M  END
>  <MODEL>
7

>  <REMARK>
 VINA RESULT:      -5.7      1.944      4.154
  Name = 
  19 active torsions:
  status: ('A' for Active; 'I' for Inactive)
    1  A    between atoms: C_1  and  C_22
    2  A    between atoms: C_1  and  C_30
    3  A    between atoms: C_5  and  C_9
    4  A    between atoms: C_9  and  N_20
    5  A    between atoms: O_12  and  C_35
    6  A    between atoms: O_12  and  C_45
    7  A    between atoms: C_14  and  C_48
    8  A    between atoms: C_15  and  C_40
    9  A    between atoms: C_16  and  C_31
   10  A    between atoms: C_17  and  C_31
   11  A    between atoms: C_17  and  O_46
   12  A    between atoms: C_18  and  C_29
   13  A    between atoms: C_18  and  C_36
   14  A    between atoms: N_20  and  C_29
   15  A    between atoms: C_21  and  C_49
   16  A    between atoms: C_22  and  C_39
   17  A    between atoms: C_26  and  C_43
   18  A    between atoms: C_30  and  C_48
   19  A    between atoms: C_34  and  O_38
                            x       y       z     vdW  Elec       q    Type
                         _______ _______ _______ _____ _____    ______ ____

>  <TORSDO>
F 19

$$$$
=
 OpenBabel11062419213D

 50 56  0  0  1  0  0  0  0  0999 V2000
  195.5980  174.9580  143.0350 C   0  0  0  0  0  0  0  0  0  0  0  0
  194.9010  175.6150  143.9770 C   0  0  0  0  0  3  0  0  0  0  0  0
  190.9390  175.4670  144.5860 C   0  0  1  0  0  3  0  0  0  0  0  0
  192.3550  174.3370  144.4050 S   0  0  0  0  0  0  0  0  0  0  0  0
  191.4090  176.9260  144.3960 C   0  0  1  0  0  3  0  0  0  0  0  0
  193.4370  175.7250  144.0890 C   0  0  0  0  0  0  0  0  0  0  0  0
  192.8730  176.9150  144.1640 C   0  0  0  0  0  3  0  0  0  0  0  0
  189.1900  177.5230  143.3900 C   0  0  0  0  0  2  0  0  0  0  0  0
  189.8290  175.0530  143.6160 C   0  0  0  0  0  2  0  0  0  0  0  0
  188.6970  176.0820  143.6160 C   0  0  2  0  0  3  0  0  0  0  0  0
  190.7070  177.6360  143.2370 C   0  0  0  0  0  2  0  0  0  0  0  0
  187.6750  175.7030  142.5580 C   0  0  0  0  0  2  0  0  0  0  0  0
  187.2570  176.9100  141.7350 C   0  0  0  0  0  2  0  0  0  0  0  0
  185.8480  177.2030  141.9420 N   0  0  0  0  0  2  0  0  0  0  0  0
  185.7390  178.5880  142.3650 C   0  0  0  0  0  2  0  0  0  0  0  0
  185.9140  178.7000  143.8750 C   0  0  2  0  0  3  0  0  0  0  0  0
  184.5940  178.9470  144.5830 C   0  0  1  0  0  0  0  0  0  0  0  0
  185.5380  180.1010  144.3510 C   0  0  0  0  0  2  0  0  0  0  0  0
  183.4350  179.0380  143.8080 O   0  0  0  0  0  1  0  0  0  0  0  0
  184.4630  178.5310  146.0440 C   0  0  0  0  0  2  0  0  0  0  0  0
  185.8120  178.3480  146.7430 C   0  0  1  0  0  3  0  0  0  0  0  0
  186.0660  179.4560  147.7530 C   0  0  0  0  0  1  0  0  0  0  0  0
  186.9860  176.4710  146.7740 C   0  0  0  0  0  1  0  0  0  0  0  0
  185.8880  177.0980  147.3640 O   0  0  0  0  0  0  0  0  0  0  0  0
  197.9410  175.0600  141.9620 C   0  0  0  0  0  2  0  0  0  0  0  0
  197.0910  174.8460  143.2080 C   0  0  0  0  0  0  0  0  0  0  0  0
  197.7950  176.1740  142.9800 C   0  0  0  0  0  2  0  0  0  0  0  0
  196.4900  173.9510  145.7900 S   0  0  0  0  0  0  0  0  0  0  0  0
  197.7810  172.5920  144.1800 C   0  0  0  0  0  2  0  0  0  0  0  0
  196.7940  172.2350  145.2720 C   0  0  2  0  0  3  0  0  0  0  0  0
  197.6840  174.0910  144.4140 C   0  0  1  0  0  3  0  0  0  0  0  0
  194.9340  170.6160  145.5850 C   0  0  0  0  0  1  0  0  0  0  0  0
  195.5390  171.6450  144.6510 C   0  0  0  0  0  2  0  0  0  0  0  0
  195.0290  173.1030  141.6620 O   0  0  0  0  0  0  0  0  0  0  0  0
  194.9710  174.3490  141.8420 C   0  0  0  0  0  0  0  0  0  0  0  0
  194.2810  175.2220  140.8390 C   0  0  0  0  0  2  0  0  0  0  0  0
  196.1190  175.3540  139.1500 C   0  0  0  0  0  3  0  0  0  0  0  0
  194.8010  175.0000  139.4550 C   0  0  0  0  0  0  0  0  0  0  0  0
  195.7900  174.6660  136.8480 C   0  0  0  0  0  0  0  0  0  0  0  0
  194.4650  174.3130  137.1530 C   0  0  0  0  0  3  0  0  0  0  0  0
  196.6110  175.1850  137.8520 C   0  0  0  0  0  3  0  0  0  0  0  0
  193.9640  174.4790  138.4560 C   0  0  0  0  0  0  0  0  0  0  0  0
  196.3110  174.5130  135.5580 O   0  0  0  0  0  0  0  0  0  0  0  0
  196.7050  173.2520  135.0370 C   0  0  0  0  0  1  0  0  0  0  0  0
  192.6460  174.1390  138.7750 O   0  0  0  0  0  0  0  0  0  0  0  0
  191.1910  172.5980  139.8190 C   0  0  1  0  0  3  0  0  0  0  0  0
  192.5130  172.1260  139.8890 O   0  0  0  0  0  0  0  0  0  0  0  0
  192.1480  172.8100  138.7130 C   0  0  2  0  0  3  0  0  0  0  0  0
  190.3670  170.4170  140.1150 O   0  0  0  0  0  0  0  0  0  0  0  0
  190.2860  171.4630  139.4910 C   0  0  0  0  0  3  0  0  0  0  0  0
  1 26  1  0  0  0  0
  1  2  2  0  0  0  0
  2  6  1  0  0  0  0
  3  9  1  6  0  0  0
  4  3  1  0  0  0  0
  5 11  1  6  0  0  0
  5  3  1  0  0  0  0
  6  7  2  0  0  0  0
  6  4  1  0  0  0  0
  7  5  1  0  0  0  0
  8 10  1  0  0  0  0
  9 10  1  0  0  0  0
 10 12  1  6  0  0  0
 11  8  1  0  0  0  0
 13 14  1  0  0  0  0
 13 12  1  0  0  0  0
 14 15  1  0  0  0  0
 16 15  1  6  0  0  0
 16 18  1  0  0  0  0
 16 17  1  0  0  0  0
 17 19  1  6  0  0  0
 17 20  1  0  0  0  0
 18 17  1  0  0  0  0
 20 21  1  0  0  0  0
 21 24  1  0  0  0  0
 21 22  1  1  0  0  0
 23 24  1  0  0  0  0
 25 27  1  0  0  0  0
 25 26  1  0  0  0  0
 27 26  1  0  0  0  0
 29 31  1  0  0  0  0
 29 30  1  0  0  0  0
 30 33  1  6  0  0  0
 30 28  1  0  0  0  0
 31 26  1  6  0  0  0
 31 28  1  0  0  0  0
 33 32  1  0  0  0  0
 34 35  2  0  0  0  0
 35  1  1  0  0  0  0
 36 35  1  0  0  0  0
 37 38  1  0  0  0  0
 38 36  1  0  0  0  0
 39 40  2  0  0  0  0
 39 41  1  0  0  0  0
 40 42  1  0  0  0  0
 41 37  2  0  0  0  0
 42 45  1  0  0  0  0
 42 38  2  0  0  0  0
 43 39  1  0  0  0  0
 44 43  1  0  0  0  0
 46 50  1  6  0  0  0
 46 47  1  0  0  0  0
 48 45  1  1  0  0  0
 48 46  1  0  0  0  0
 48 47  1  0  0  0  0
 50 49  2  0  0  0  0
M  END
>  <MODEL>
8

>  <REMARK>
 VINA RESULT:      -5.6      2.114      3.304
  Name = 
  19 active torsions:
  status: ('A' for Active; 'I' for Inactive)
    1  A    between atoms: C_1  and  C_22
    2  A    between atoms: C_1  and  C_30
    3  A    between atoms: C_5  and  C_9
    4  A    between atoms: C_9  and  N_20
    5  A    between atoms: O_12  and  C_35
    6  A    between atoms: O_12  and  C_45
    7  A    between atoms: C_14  and  C_48
    8  A    between atoms: C_15  and  C_40
    9  A    between atoms: C_16  and  C_31
   10  A    between atoms: C_17  and  C_31
   11  A    between atoms: C_17  and  O_46
   12  A    between atoms: C_18  and  C_29
   13  A    between atoms: C_18  and  C_36
   14  A    between atoms: N_20  and  C_29
   15  A    between atoms: C_21  and  C_49
   16  A    between atoms: C_22  and  C_39
   17  A    between atoms: C_26  and  C_43
   18  A    between atoms: C_30  and  C_48
   19  A    between atoms: C_34  and  O_38
                            x       y       z     vdW  Elec       q    Type
                         _______ _______ _______ _____ _____    ______ ____

>  <TORSDO>
F 19

$$$$
=
 OpenBabel11062419213D

 50 56  0  0  1  0  0  0  0  0999 V2000
  193.2800  175.1110  143.9470 C   0  0  0  0  0  0  0  0  0  0  0  0
  192.2060  175.7360  144.4570 C   0  0  0  0  0  3  0  0  0  0  0  0
  189.2940  177.4350  142.2830 C   0  0  1  0  0  3  0  0  0  0  0  0
  190.7640  177.9140  143.2430 S   0  0  0  0  0  0  0  0  0  0  0  0
  189.0820  175.9080  142.3820 C   0  0  1  0  0  3  0  0  0  0  0  0
  191.0210  176.2120  143.7250 C   0  0  0  0  0  0  0  0  0  0  0  0
  190.1780  175.3400  143.2040 C   0  0  0  0  0  3  0  0  0  0  0  0
  186.5990  176.2290  142.2390 C   0  0  0  0  0  2  0  0  0  0  0  0
  188.0870  178.2490  142.7560 C   0  0  0  0  0  2  0  0  0  0  0  0
  186.8020  177.7480  142.0940 C   0  0  2  0  0  3  0  0  0  0  0  0
  187.7310  175.5280  142.9900 C   0  0  0  0  0  2  0  0  0  0  0  0
  185.6140  178.4960  142.6770 C   0  0  0  0  0  2  0  0  0  0  0  0
  185.9970  179.2420  143.9430 C   0  0  0  0  0  2  0  0  0  0  0  0
  184.8280  179.4530  144.7830 N   0  0  0  0  0  2  0  0  0  0  0  0
  185.1470  178.9730  146.1170 C   0  0  0  0  0  2  0  0  0  0  0  0
  186.6550  178.8230  146.2820 C   0  0  2  0  0  3  0  0  0  0  0  0
  187.0630  177.3750  146.4890 C   0  0  1  0  0  0  0  0  0  0  0  0
  186.9860  178.2990  147.6790 C   0  0  0  0  0  2  0  0  0  0  0  0
  186.0610  176.4010  146.5010 O   0  0  0  0  0  1  0  0  0  0  0  0
  188.4800  176.9580  146.1120 C   0  0  0  0  0  2  0  0  0  0  0  0
  189.1860  176.1560  147.2090 C   0  0  1  0  0  3  0  0  0  0  0  0
  189.3050  174.6880  146.8310 C   0  0  0  0  0  1  0  0  0  0  0  0
  191.1810  175.6270  148.0120 C   0  0  0  0  0  1  0  0  0  0  0  0
  190.4470  176.6910  147.4860 O   0  0  0  0  0  0  0  0  0  0  0  0
  193.8040  173.6080  145.9770 C   0  0  0  0  0  2  0  0  0  0  0  0
  194.3070  174.5700  144.9070 C   0  0  0  0  0  0  0  0  0  0  0  0
  194.5090  173.0710  144.7460 C   0  0  0  0  0  2  0  0  0  0  0  0
  197.0730  174.1620  145.0120 S   0  0  0  0  0  0  0  0  0  0  0  0
  196.0610  176.1230  143.9000 C   0  0  0  0  0  2  0  0  0  0  0  0
  197.3000  175.3010  143.6120 C   0  0  2  0  0  3  0  0  0  0  0  0
  195.6490  175.3020  145.1110 C   0  0  1  0  0  3  0  0  0  0  0  0
  197.7750  175.3350  141.1720 C   0  0  0  0  0  1  0  0  0  0  0  0
  197.1240  174.5570  142.2980 C   0  0  0  0  0  2  0  0  0  0  0  0
  193.4970  175.9410  141.7290 O   0  0  0  0  0  0  0  0  0  0  0  0
  193.5020  174.9390  142.4950 C   0  0  0  0  0  0  0  0  0  0  0  0
  193.7150  173.5660  141.9340 C   0  0  0  0  0  2  0  0  0  0  0  0
  191.7410  174.0260  140.4730 C   0  0  0  0  0  3  0  0  0  0  0  0
  192.5330  173.0940  141.1490 C   0  0  0  0  0  0  0  0  0  0  0  0
  190.2620  172.2550  139.7270 C   0  0  0  0  0  0  0  0  0  0  0  0
  191.0560  171.3190  140.4100 C   0  0  0  0  0  3  0  0  0  0  0  0
  190.6110  173.6070  139.7630 C   0  0  0  0  0  3  0  0  0  0  0  0
  192.1930  171.7320  141.1240 C   0  0  0  0  0  0  0  0  0  0  0  0
  189.1240  171.8670  139.0120 O   0  0  0  0  0  0  0  0  0  0  0  0
  188.1860  172.8040  138.5010 C   0  0  0  0  0  1  0  0  0  0  0  0
  192.9910  170.8150  141.8140 O   0  0  0  0  0  0  0  0  0  0  0  0
  193.6490  169.3090  143.5120 C   0  0  1  0  0  3  0  0  0  0  0  0
  192.3090  169.0730  143.1590 O   0  0  0  0  0  0  0  0  0  0  0  0
  192.7360  170.4150  143.1530 C   0  0  2  0  0  3  0  0  0  0  0  0
  194.8820  169.3490  145.5110 O   0  0  0  0  0  0  0  0  0  0  0  0
  193.7850  169.2280  144.9910 C   0  0  0  0  0  3  0  0  0  0  0  0
  1  2  2  0  0  0  0
  1 26  1  0  0  0  0
  3  5  1  0  0  0  0
  3  9  1  1  0  0  0
  3  4  1  0  0  0  0
  4  6  1  0  0  0  0
  5 11  1  1  0  0  0
  5  7  1  0  0  0  0
  6  2  1  0  0  0  0
  7  6  2  0  0  0  0
  8 11  1  0  0  0  0
 10  8  1  0  0  0  0
 10 12  1  1  0  0  0
 10  9  1  0  0  0  0
 12 13  1  0  0  0  0
 13 14  1  0  0  0  0
 14 15  1  0  0  0  0
 16 15  1  1  0  0  0
 16 17  1  0  0  0  0
 16 18  1  0  0  0  0
 17 19  1  6  0  0  0
 17 18  1  0  0  0  0
 20 17  1  0  0  0  0
 20 21  1  0  0  0  0
 21 22  1  6  0  0  0
 21 24  1  0  0  0  0
 24 23  1  0  0  0  0
 26 31  1  0  0  0  0
 26 25  1  0  0  0  0
 27 26  1  0  0  0  0
 27 25  1  0  0  0  0
 28 31  1  0  0  0  0
 30 33  1  6  0  0  0
 30 29  1  0  0  0  0
 30 28  1  0  0  0  0
 31 29  1  6  0  0  0
 32 33  1  0  0  0  0
 34 35  2  0  0  0  0
 35  1  1  0  0  0  0
 36 35  1  0  0  0  0
 37 38  1  0  0  0  0
 38 36  1  0  0  0  0
 39 41  1  0  0  0  0
 39 40  2  0  0  0  0
 40 42  1  0  0  0  0
 41 37  2  0  0  0  0
 42 38  2  0  0  0  0
 42 45  1  0  0  0  0
 43 39  1  0  0  0  0
 44 43  1  0  0  0  0
 46 50  1  1  0  0  0
 47 46  1  0  0  0  0
 48 45  1  6  0  0  0
 48 47  1  0  0  0  0
 48 46  1  0  0  0  0
 50 49  2  0  0  0  0
M  END
>  <MODEL>
9

>  <REMARK>
 VINA RESULT:      -5.6      2.207      4.969
  Name = 
  19 active torsions:
  status: ('A' for Active; 'I' for Inactive)
    1  A    between atoms: C_1  and  C_22
    2  A    between atoms: C_1  and  C_30
    3  A    between atoms: C_5  and  C_9
    4  A    between atoms: C_9  and  N_20
    5  A    between atoms: O_12  and  C_35
    6  A    between atoms: O_12  and  C_45
    7  A    between atoms: C_14  and  C_48
    8  A    between atoms: C_15  and  C_40
    9  A    between atoms: C_16  and  C_31
   10  A    between atoms: C_17  and  C_31
   11  A    between atoms: C_17  and  O_46
   12  A    between atoms: C_18  and  C_29
   13  A    between atoms: C_18  and  C_36
   14  A    between atoms: N_20  and  C_29
   15  A    between atoms: C_21  and  C_49
   16  A    between atoms: C_22  and  C_39
   17  A    between atoms: C_26  and  C_43
   18  A    between atoms: C_30  and  C_48
   19  A    between atoms: C_34  and  O_38
                            x       y       z     vdW  Elec       q    Type
                         _______ _______ _______ _____ _____    ______ ____

>  <TORSDO>
F 19

$$$$
