=
 OpenBabel11062418503D

 37 39  0  0  1  0  0  0  0  0999 V2000
  185.1550  178.7460  144.8990 C   0  0  0  0  0  0  0  0  0  0  0  0
  186.0210  178.0080  145.6690 C   0  0  0  0  0  0  0  0  0  0  0  0
  187.3340  177.5830  145.4800 C   0  0  0  0  0  3  0  0  0  0  0  0
  185.3260  177.7440  146.8120 C   0  0  0  0  0  0  0  0  0  0  0  0
  184.1310  178.2710  146.7240 O   0  0  0  0  0  0  0  0  0  0  0  0
  187.2060  176.5750  147.7130 C   0  0  0  0  0  3  0  0  0  0  0  0
  183.9930  178.8930  145.5810 N   0  0  0  0  0  0  0  0  0  0  0  0
  187.9330  176.8510  146.5300 C   0  0  0  0  0  0  0  0  0  0  0  0
  185.8780  177.0220  147.8640 C   0  0  0  0  0  3  0  0  0  0  0  0
  185.4350  179.3470  143.5560 C   0  0  0  0  0  2  0  0  0  0  0  0
  185.2050  178.3950  142.3730 C   0  0  2  0  0  3  0  0  0  0  0  0
  184.1250  177.7710  139.7060 O   0  0  0  0  0  0  0  0  0  0  0  0
  183.3180  178.0300  140.6450 C   0  0  0  0  0  0  0  0  0  0  0  0
  183.8010  178.3550  141.9550 N   0  0  0  0  0  2  0  0  0  0  0  0
  181.0140  178.4160  141.4110 C   0  0  0  0  0  1  0  0  0  0  0  0
  181.9400  178.0090  140.4190 O   0  0  0  0  0  0  0  0  0  0  0  0
  185.7940  176.9990  142.5530 C   0  0  0  0  0  2  0  0  0  0  0  0
  186.9460  176.7640  141.5870 C   0  0  1  0  0  3  0  0  0  0  0  0
  187.5170  178.0470  141.2020 N   0  0  0  0  0  2  0  0  0  0  0  0
  189.2200  176.8980  142.2390 C   0  0  0  0  0  2  0  0  0  0  0  0
  188.0370  175.9660  142.2600 C   0  0  0  0  0  2  0  0  0  0  0  0
  188.6990  178.2250  141.9480 N   0  0  0  0  0  2  0  0  0  0  0  0
  189.3360  176.3500  146.4080 C   0  0  0  0  0  2  0  0  0  0  0  0
  189.4480  174.8750  146.7750 C   0  0  0  0  0  2  0  0  0  0  0  0
  189.7180  174.1130  145.6370 O   0  0  0  0  0  0  0  0  0  0  0  0
  190.6870  174.8400  144.9380 C   0  0  0  0  0  2  0  0  0  0  0  0
  191.9140  173.9640  144.6370 C   0  0  1  0  0  3  0  0  0  0  0  0
  193.9430  172.8470  145.6070 C   0  0  0  0  0  1  0  0  0  0  0  0
  192.9290  173.9680  145.7880 C   0  0  1  0  0  3  0  0  0  0  0  0
  194.6120  175.6260  145.3420 O   0  0  0  0  0  0  0  0  0  0  0  0
  193.0380  176.1980  146.9070 O   0  0  0  0  0  1  0  0  0  0  0  0
  193.5890  175.3010  146.0020 C   0  0  0  0  0  0  0  0  0  0  0  0
  191.5200  172.6520  144.3410 O   0  0  0  0  0  0  0  0  0  0  0  0
  191.6750  172.5280  142.9550 C   0  0  2  0  0  3  0  0  0  0  0  0
  192.4440  173.5870  142.4690 O   0  0  0  0  0  1  0  0  0  0  0  0
  190.3150  172.5430  142.2770 C   0  0  0  0  0  2  0  0  0  0  0  0
  189.6970  171.3010  142.4230 O   0  0  0  0  0  1  0  0  0  0  0  0
  1  7  2  0  0  0  0
  1  2  1  0  0  0  0
  2  4  1  0  0  0  0
  3  2  2  0  0  0  0
  3  8  1  0  0  0  0
  4  9  2  0  0  0  0
  5  4  1  0  0  0  0
  6  9  1  0  0  0  0
  7  5  1  0  0  0  0
  8  6  2  0  0  0  0
 10  1  1  0  0  0  0
 11 17  1  1  0  0  0
 11 10  1  0  0  0  0
 12 13  2  0  0  0  0
 13 14  1  0  0  0  0
 14 11  1  0  0  0  0
 16 13  1  0  0  0  0
 16 15  1  0  0  0  0
 18 21  1  0  0  0  0
 18 17  1  1  0  0  0
 19 18  1  0  0  0  0
 19 22  1  0  0  0  0
 20 21  1  0  0  0  0
 22 20  1  0  0  0  0
 23  8  1  0  0  0  0
 23 24  1  0  0  0  0
 25 24  1  0  0  0  0
 26 25  1  0  0  0  0
 27 26  1  1  0  0  0
 27 29  1  0  0  0  0
 29 28  1  6  0  0  0
 29 32  1  0  0  0  0
 30 32  2  0  0  0  0
 32 31  1  0  0  0  0
 33 27  1  0  0  0  0
 34 35  1  6  0  0  0
 34 33  1  0  0  0  0
 36 37  1  0  0  0  0
 36 34  1  0  0  0  0
M  END
>  <MODEL>
1

>  <REMARK>
 VINA RESULT:      -6.3      0.000      0.000
  Name = 
  16 active torsions:
  status: ('A' for Active; 'I' for Inactive)
    1  A    between atoms: C_1  and  C_24
    2  A    between atoms: C_2  and  C_22
    3  A    between atoms: C_2  and  O_33
    4  A    between atoms: C_4  and  C_21
    5  A    between atoms: C_4  and  C_34
    6  A    between atoms: C_6  and  C_11
    7  A    between atoms: C_8  and  C_18
    8  A    between atoms: C_11  and  C_27
    9  A    between atoms: C_15  and  O_23
   10  A    between atoms: C_18  and  O_29
   11  A    between atoms: C_21  and  O_33
   12  A    between atoms: C_22  and  O_29
   13  A    between atoms: C_22  and  C_30
   14  A    between atoms: C_24  and  C_27
   15  A    between atoms: C_27  and  N_32
   16  A    between atoms: C_30  and  C_35
                            x       y       z     vdW  Elec       q    Type
                         _______ _______ _______ _____ _____    ______ ____

>  <TORSDO>
F 16

$$$$
=
 OpenBabel11062418503D

 37 39  0  0  1  0  0  0  0  0999 V2000
  189.7160  177.0340  145.4860 C   0  0  0  0  0  0  0  0  0  0  0  0
  191.0040  176.5650  145.5920 C   0  0  0  0  0  0  0  0  0  0  0  0
  192.1680  176.8160  144.8690 C   0  0  0  0  0  3  0  0  0  0  0  0
  190.9790  175.7320  146.6710 C   0  0  0  0  0  0  0  0  0  0  0  0
  189.7670  175.6940  147.1620 O   0  0  0  0  0  0  0  0  0  0  0  0
  193.3150  175.2940  146.4140 C   0  0  0  0  0  3  0  0  0  0  0  0
  188.9740  176.4770  146.4740 N   0  0  0  0  0  0  0  0  0  0  0  0
  193.3460  176.1620  145.2960 C   0  0  0  0  0  0  0  0  0  0  0  0
  192.1160  175.0650  147.1170 C   0  0  0  0  0  3  0  0  0  0  0  0
  189.2020  178.0320  144.4960 C   0  0  0  0  0  2  0  0  0  0  0  0
  187.8070  177.7140  143.9380 C   0  0  2  0  0  3  0  0  0  0  0  0
  186.7480  175.4560  142.3730 O   0  0  0  0  0  0  0  0  0  0  0  0
  187.2720  176.4310  141.7590 C   0  0  0  0  0  0  0  0  0  0  0  0
  187.8140  177.5430  142.4820 N   0  0  0  0  0  2  0  0  0  0  0  0
  186.5260  177.2980  139.5830 C   0  0  0  0  0  1  0  0  0  0  0  0
  187.3360  176.4360  140.3640 O   0  0  0  0  0  0  0  0  0  0  0  0
  186.7040  178.6610  144.4020 C   0  0  0  0  0  2  0  0  0  0  0  0
  185.4080  177.9050  144.6580 C   0  0  1  0  0  3  0  0  0  0  0  0
  185.6960  176.7170  145.4490 N   0  0  0  0  0  2  0  0  0  0  0  0
  184.2610  177.9800  146.7300 C   0  0  0  0  0  2  0  0  0  0  0  0
  184.4530  178.7600  145.4550 C   0  0  0  0  0  2  0  0  0  0  0  0
  185.3330  176.9970  146.7820 N   0  0  0  0  0  2  0  0  0  0  0  0
  194.6380  176.3680  144.5740 C   0  0  0  0  0  2  0  0  0  0  0  0
  194.5190  176.0440  143.0900 C   0  0  0  0  0  2  0  0  0  0  0  0
  194.3320  174.6720  142.9080 O   0  0  0  0  0  0  0  0  0  0  0  0
  193.4290  174.5690  141.8450 C   0  0  0  0  0  2  0  0  0  0  0  0
  192.3910  173.4680  142.1170 C   0  0  1  0  0  3  0  0  0  0  0  0
  190.0780  174.2280  142.7330 C   0  0  0  0  0  1  0  0  0  0  0  0
  191.4470  173.8300  143.2700 C   0  0  1  0  0  3  0  0  0  0  0  0
  190.2470  172.4840  144.8600 O   0  0  0  0  0  1  0  0  0  0  0  0
  192.4930  172.0590  144.6860 O   0  0  0  0  0  0  0  0  0  0  0  0
  191.3540  172.7660  144.3270 C   0  0  0  0  0  0  0  0  0  0  0  0
  191.6570  173.1890  140.9560 O   0  0  0  0  0  0  0  0  0  0  0  0
  192.0460  171.8980  140.5790 C   0  0  2  0  0  3  0  0  0  0  0  0
  193.0270  171.9710  139.5880 O   0  0  0  0  0  1  0  0  0  0  0  0
  190.8490  171.1300  140.0440 C   0  0  0  0  0  2  0  0  0  0  0  0
  189.6960  171.9080  140.1550 O   0  0  0  0  0  1  0  0  0  0  0  0
  1  2  1  0  0  0  0
  1  7  2  0  0  0  0
  2  4  1  0  0  0  0
  3  8  1  0  0  0  0
  3  2  2  0  0  0  0
  4  9  2  0  0  0  0
  4  5  1  0  0  0  0
  6  9  1  0  0  0  0
  7  5  1  0  0  0  0
  8  6  2  0  0  0  0
 10  1  1  0  0  0  0
 11 17  1  6  0  0  0
 11 10  1  0  0  0  0
 13 12  2  0  0  0  0
 13 14  1  0  0  0  0
 14 11  1  0  0  0  0
 15 16  1  0  0  0  0
 16 13  1  0  0  0  0
 18 17  1  1  0  0  0
 18 19  1  0  0  0  0
 18 21  1  0  0  0  0
 19 22  1  0  0  0  0
 20 22  1  0  0  0  0
 21 20  1  0  0  0  0
 23  8  1  0  0  0  0
 24 23  1  0  0  0  0
 25 24  1  0  0  0  0
 26 25  1  0  0  0  0
 27 26  1  6  0  0  0
 27 29  1  0  0  0  0
 29 28  1  6  0  0  0
 29 32  1  0  0  0  0
 32 31  2  0  0  0  0
 32 30  1  0  0  0  0
 33 27  1  0  0  0  0
 34 35  1  6  0  0  0
 34 33  1  0  0  0  0
 36 37  1  0  0  0  0
 36 34  1  0  0  0  0
M  END
>  <MODEL>
2

>  <REMARK>
 VINA RESULT:      -6.3      2.573      4.844
  Name = 
  16 active torsions:
  status: ('A' for Active; 'I' for Inactive)
    1  A    between atoms: C_1  and  C_24
    2  A    between atoms: C_2  and  C_22
    3  A    between atoms: C_2  and  O_33
    4  A    between atoms: C_4  and  C_21
    5  A    between atoms: C_4  and  C_34
    6  A    between atoms: C_6  and  C_11
    7  A    between atoms: C_8  and  C_18
    8  A    between atoms: C_11  and  C_27
    9  A    between atoms: C_15  and  O_23
   10  A    between atoms: C_18  and  O_29
   11  A    between atoms: C_21  and  O_33
   12  A    between atoms: C_22  and  O_29
   13  A    between atoms: C_22  and  C_30
   14  A    between atoms: C_24  and  C_27
   15  A    between atoms: C_27  and  N_32
   16  A    between atoms: C_30  and  C_35
                            x       y       z     vdW  Elec       q    Type
                         _______ _______ _______ _____ _____    ______ ____

>  <TORSDO>
F 16

$$$$
=
 OpenBabel11062418503D

 37 39  0  0  1  0  0  0  0  0999 V2000
  194.6610  173.8490  144.8810 C   0  0  0  0  0  0  0  0  0  0  0  0
  193.8550  174.6420  145.6620 C   0  0  0  0  0  0  0  0  0  0  0  0
  192.5770  174.4720  146.1880 C   0  0  0  0  0  3  0  0  0  0  0  0
  194.6020  175.7580  145.9050 C   0  0  0  0  0  0  0  0  0  0  0  0
  195.7580  175.6440  145.3020 O   0  0  0  0  0  0  0  0  0  0  0  0
  192.8430  176.6720  147.2400 C   0  0  0  0  0  3  0  0  0  0  0  0
  195.8340  174.4970  144.6770 N   0  0  0  0  0  0  0  0  0  0  0  0
  192.0660  175.5140  146.9950 C   0  0  0  0  0  0  0  0  0  0  0  0
  194.1320  176.8070  146.6880 C   0  0  0  0  0  3  0  0  0  0  0  0
  194.3480  172.4750  144.3730 C   0  0  0  0  0  2  0  0  0  0  0  0
  193.8710  172.4300  142.9140 C   0  0  2  0  0  3  0  0  0  0  0  0
  195.2490  173.1670  140.4180 O   0  0  0  0  0  0  0  0  0  0  0  0
  194.6000  174.0560  141.0410 C   0  0  0  0  0  0  0  0  0  0  0  0
  193.9270  173.7450  142.2680 N   0  0  0  0  0  2  0  0  0  0  0  0
  195.1900  176.4380  141.1870 C   0  0  0  0  0  1  0  0  0  0  0  0
  194.5320  175.3590  140.5450 O   0  0  0  0  0  0  0  0  0  0  0  0
  192.5260  171.7410  142.7040 C   0  0  0  0  0  2  0  0  0  0  0  0
  191.3740  172.6930  142.9940 C   0  0  1  0  0  3  0  0  0  0  0  0
  190.5040  172.7600  141.8280 N   0  0  0  0  0  2  0  0  0  0  0  0
  189.1920  171.9450  143.5330 C   0  0  0  0  0  2  0  0  0  0  0  0
  190.5480  172.1760  144.1470 C   0  0  0  0  0  2  0  0  0  0  0  0
  189.3810  171.9500  142.0910 N   0  0  0  0  0  2  0  0  0  0  0  0
  190.7010  175.4170  147.5940 C   0  0  0  0  0  2  0  0  0  0  0  0
  189.7340  174.6640  146.6890 C   0  0  0  0  0  2  0  0  0  0  0  0
  188.4940  175.3060  146.6650 O   0  0  0  0  0  0  0  0  0  0  0  0
  188.7930  176.6700  146.7440 C   0  0  0  0  0  2  0  0  0  0  0  0
  187.9680  177.4680  145.7210 C   0  0  1  0  0  3  0  0  0  0  0  0
  190.2350  177.7980  144.6910 C   0  0  0  0  0  1  0  0  0  0  0  0
  188.7390  177.7160  144.4180 C   0  0  1  0  0  3  0  0  0  0  0  0
  187.6710  177.0580  142.3670 O   0  0  0  0  0  0  0  0  0  0  0  0
  188.9750  175.4620  143.3700 O   0  0  0  0  0  1  0  0  0  0  0  0
  188.4140  176.7310  143.3310 C   0  0  0  0  0  0  0  0  0  0  0  0
  186.7560  176.8180  145.4530 O   0  0  0  0  0  0  0  0  0  0  0  0
  185.7870  177.5460  146.1550 C   0  0  2  0  0  3  0  0  0  0  0  0
  184.7690  176.6910  146.5800 O   0  0  0  0  0  1  0  0  0  0  0  0
  185.1970  178.6220  145.2590 C   0  0  0  0  0  2  0  0  0  0  0  0
  183.8810  178.8870  145.6380 O   0  0  0  0  0  1  0  0  0  0  0  0
  1  2  1  0  0  0  0
  2  4  2  0  0  0  0
  2  3  1  0  0  0  0
  3  8  2  0  0  0  0
  4  9  1  0  0  0  0
  5  4  1  0  0  0  0
  7  1  2  0  0  0  0
  7  5  1  0  0  0  0
  8  6  1  0  0  0  0
  8 23  1  0  0  0  0
  9  6  2  0  0  0  0
 10  1  1  0  0  0  0
 11 17  1  1  0  0  0
 11 10  1  0  0  0  0
 12 13  2  0  0  0  0
 13 14  1  0  0  0  0
 14 11  1  0  0  0  0
 16 13  1  0  0  0  0
 16 15  1  0  0  0  0
 18 17  1  6  0  0  0
 18 21  1  0  0  0  0
 19 22  1  0  0  0  0
 19 18  1  0  0  0  0
 20 21  1  0  0  0  0
 22 20  1  0  0  0  0
 24 23  1  0  0  0  0
 25 24  1  0  0  0  0
 25 26  1  0  0  0  0
 27 26  1  1  0  0  0
 29 28  1  1  0  0  0
 29 27  1  0  0  0  0
 30 32  2  0  0  0  0
 32 31  1  0  0  0  0
 32 29  1  0  0  0  0
 33 27  1  0  0  0  0
 33 34  1  0  0  0  0
 34 35  1  6  0  0  0
 36 37  1  0  0  0  0
 36 34  1  0  0  0  0
M  END
>  <MODEL>
3

>  <REMARK>
 VINA RESULT:      -6.3      3.503      8.408
  Name = 
  16 active torsions:
  status: ('A' for Active; 'I' for Inactive)
    1  A    between atoms: C_1  and  C_24
    2  A    between atoms: C_2  and  C_22
    3  A    between atoms: C_2  and  O_33
    4  A    between atoms: C_4  and  C_21
    5  A    between atoms: C_4  and  C_34
    6  A    between atoms: C_6  and  C_11
    7  A    between atoms: C_8  and  C_18
    8  A    between atoms: C_11  and  C_27
    9  A    between atoms: C_15  and  O_23
   10  A    between atoms: C_18  and  O_29
   11  A    between atoms: C_21  and  O_33
   12  A    between atoms: C_22  and  O_29
   13  A    between atoms: C_22  and  C_30
   14  A    between atoms: C_24  and  C_27
   15  A    between atoms: C_27  and  N_32
   16  A    between atoms: C_30  and  C_35
                            x       y       z     vdW  Elec       q    Type
                         _______ _______ _______ _____ _____    ______ ____

>  <TORSDO>
F 16

$$$$
=
 OpenBabel11062418503D

 37 39  0  0  1  0  0  0  0  0999 V2000
  192.8220  175.4980  142.8670 C   0  0  0  0  0  0  0  0  0  0  0  0
  192.8540  175.6810  144.2280 C   0  0  0  0  0  0  0  0  0  0  0  0
  191.9040  175.5100  145.2320 C   0  0  0  0  0  3  0  0  0  0  0  0
  194.1320  176.0770  144.4930 C   0  0  0  0  0  0  0  0  0  0  0  0
  194.8070  176.1410  143.3730 O   0  0  0  0  0  0  0  0  0  0  0  0
  193.6400  176.1850  146.8290 C   0  0  0  0  0  3  0  0  0  0  0  0
  194.0480  175.7900  142.3660 N   0  0  0  0  0  0  0  0  0  0  0  0
  192.3130  175.7690  146.5600 C   0  0  0  0  0  0  0  0  0  0  0  0
  194.5710  176.3480  145.7840 C   0  0  0  0  0  3  0  0  0  0  0  0
  191.6650  175.0080  142.0530 C   0  0  0  0  0  2  0  0  0  0  0  0
  191.5200  173.4800  142.0060 C   0  0  2  0  0  3  0  0  0  0  0  0
  191.0030  171.8830  144.4250 O   0  0  0  0  0  0  0  0  0  0  0  0
  192.1970  172.0200  144.0280 C   0  0  0  0  0  0  0  0  0  0  0  0
  192.4950  172.8020  142.8650 N   0  0  0  0  0  2  0  0  0  0  0  0
  194.1290  172.1590  145.5420 C   0  0  0  0  0  1  0  0  0  0  0  0
  193.2460  171.4130  144.7220 O   0  0  0  0  0  0  0  0  0  0  0  0
  191.4760  172.8870  140.6010 C   0  0  0  0  0  2  0  0  0  0  0  0
  190.2770  171.9630  140.4370 C   0  0  1  0  0  3  0  0  0  0  0  0
  189.2170  172.3910  141.3390 N   0  0  0  0  0  2  0  0  0  0  0  0
  188.3390  172.5760  139.2200 C   0  0  0  0  0  2  0  0  0  0  0  0
  189.7390  172.0520  139.0290 C   0  0  0  0  0  2  0  0  0  0  0  0
  188.2730  173.1050  140.5730 N   0  0  0  0  0  2  0  0  0  0  0  0
  191.3560  175.6180  147.6980 C   0  0  0  0  0  2  0  0  0  0  0  0
  189.9330  175.3690  147.2150 C   0  0  0  0  0  2  0  0  0  0  0  0
  189.2660  176.5820  147.0290 O   0  0  0  0  0  0  0  0  0  0  0  0
  188.0910  176.2460  146.3500 C   0  0  0  0  0  2  0  0  0  0  0  0
  187.9140  177.1210  145.0990 C   0  0  1  0  0  3  0  0  0  0  0  0
  188.0220  175.7580  142.9920 C   0  0  0  0  0  1  0  0  0  0  0  0
  188.8040  176.6610  143.9370 C   0  0  1  0  0  3  0  0  0  0  0  0
  190.4900  178.3580  143.7050 O   0  0  0  0  0  1  0  0  0  0  0  0
  189.0050  178.1840  141.9680 O   0  0  0  0  0  0  0  0  0  0  0  0
  189.4780  177.7910  143.2120 C   0  0  0  0  0  0  0  0  0  0  0  0
  186.5700  177.1450  144.7020 O   0  0  0  0  0  0  0  0  0  0  0  0
  185.9750  178.1420  145.4860 C   0  0  2  0  0  3  0  0  0  0  0  0
  184.7580  177.6820  145.9910 O   0  0  0  0  0  1  0  0  0  0  0  0
  185.7330  179.3860  144.6490 C   0  0  0  0  0  2  0  0  0  0  0  0
  184.3970  179.4420  144.2540 O   0  0  0  0  0  1  0  0  0  0  0  0
  1  2  1  0  0  0  0
  2  4  2  0  0  0  0
  2  3  1  0  0  0  0
  3  8  2  0  0  0  0
  4  9  1  0  0  0  0
  5  4  1  0  0  0  0
  7  1  2  0  0  0  0
  7  5  1  0  0  0  0
  8  6  1  0  0  0  0
  8 23  1  0  0  0  0
  9  6  2  0  0  0  0
 10  1  1  0  0  0  0
 11 17  1  6  0  0  0
 11 10  1  0  0  0  0
 11 14  1  0  0  0  0
 13 12  2  0  0  0  0
 13 16  1  0  0  0  0
 14 13  1  0  0  0  0
 16 15  1  0  0  0  0
 18 17  1  6  0  0  0
 18 19  1  0  0  0  0
 20 22  1  0  0  0  0
 21 20  1  0  0  0  0
 21 18  1  0  0  0  0
 22 19  1  0  0  0  0
 24 23  1  0  0  0  0
 25 24  1  0  0  0  0
 26 25  1  0  0  0  0
 27 26  1  1  0  0  0
 29 28  1  6  0  0  0
 29 27  1  0  0  0  0
 31 32  2  0  0  0  0
 32 30  1  0  0  0  0
 32 29  1  0  0  0  0
 33 27  1  0  0  0  0
 33 34  1  0  0  0  0
 34 35  1  6  0  0  0
 36 34  1  0  0  0  0
 37 36  1  0  0  0  0
M  END
>  <MODEL>
4

>  <REMARK>
 VINA RESULT:      -6.2      3.201      7.933
  Name = 
  16 active torsions:
  status: ('A' for Active; 'I' for Inactive)
    1  A    between atoms: C_1  and  C_24
    2  A    between atoms: C_2  and  C_22
    3  A    between atoms: C_2  and  O_33
    4  A    between atoms: C_4  and  C_21
    5  A    between atoms: C_4  and  C_34
    6  A    between atoms: C_6  and  C_11
    7  A    between atoms: C_8  and  C_18
    8  A    between atoms: C_11  and  C_27
    9  A    between atoms: C_15  and  O_23
   10  A    between atoms: C_18  and  O_29
   11  A    between atoms: C_21  and  O_33
   12  A    between atoms: C_22  and  O_29
   13  A    between atoms: C_22  and  C_30
   14  A    between atoms: C_24  and  C_27
   15  A    between atoms: C_27  and  N_32
   16  A    between atoms: C_30  and  C_35
                            x       y       z     vdW  Elec       q    Type
                         _______ _______ _______ _____ _____    ______ ____

>  <TORSDO>
F 16

$$$$
=
 OpenBabel11062418503D

 37 39  0  0  1  0  0  0  0  0999 V2000
  193.6520  175.8600  143.4410 C   0  0  0  0  0  0  0  0  0  0  0  0
  192.9720  176.0380  144.6210 C   0  0  0  0  0  0  0  0  0  0  0  0
  191.6400  175.8580  144.9860 C   0  0  0  0  0  3  0  0  0  0  0  0
  193.9250  176.4390  145.5110 C   0  0  0  0  0  0  0  0  0  0  0  0
  195.0820  176.5100  144.9040 O   0  0  0  0  0  0  0  0  0  0  0  0
  192.2910  176.5350  147.2530 C   0  0  0  0  0  3  0  0  0  0  0  0
  194.9580  176.1600  143.6490 N   0  0  0  0  0  0  0  0  0  0  0  0
  191.2990  176.1130  146.3340 C   0  0  0  0  0  0  0  0  0  0  0  0
  193.6280  176.7060  146.8430 C   0  0  0  0  0  3  0  0  0  0  0  0
  193.0880  175.3690  142.1440 C   0  0  0  0  0  2  0  0  0  0  0  0
  192.5190  173.9440  142.1960 C   0  0  2  0  0  3  0  0  0  0  0  0
  192.4950  172.4900  144.7570 O   0  0  0  0  0  0  0  0  0  0  0  0
  193.4380  172.2730  143.9410 C   0  0  0  0  0  0  0  0  0  0  0  0
  193.4980  172.9710  142.6910 N   0  0  0  0  0  2  0  0  0  0  0  0
  194.7030  170.9540  145.5850 C   0  0  0  0  0  1  0  0  0  0  0  0
  194.4420  171.3530  144.2510 O   0  0  0  0  0  0  0  0  0  0  0  0
  191.8440  173.4790  140.9090 C   0  0  0  0  0  2  0  0  0  0  0  0
  190.3570  173.2400  141.1290 C   0  0  1  0  0  3  0  0  0  0  0  0
  190.0640  171.8290  140.9180 N   0  0  0  0  0  2  0  0  0  0  0  0
  189.4890  172.2610  143.1040 C   0  0  0  0  0  2  0  0  0  0  0  0
  189.9790  173.5740  142.5520 C   0  0  0  0  0  2  0  0  0  0  0  0
  189.9450  171.2270  142.1870 N   0  0  0  0  0  2  0  0  0  0  0  0
  189.8920  175.9530  146.8100 C   0  0  0  0  0  2  0  0  0  0  0  0
  189.1650  177.2890  146.8980 C   0  0  0  0  0  2  0  0  0  0  0  0
  188.7850  177.7190  145.6250 O   0  0  0  0  0  0  0  0  0  0  0  0
  187.6390  176.9760  145.3220 C   0  0  0  0  0  2  0  0  0  0  0  0
  186.6910  177.7810  144.4200 C   0  0  1  0  0  3  0  0  0  0  0  0
  185.2920  179.8520  144.1650 C   0  0  0  0  0  1  0  0  0  0  0  0
  186.0980  179.0000  145.1380 C   0  0  1  0  0  3  0  0  0  0  0  0
  184.2220  178.0210  146.2790 O   0  0  0  0  0  0  0  0  0  0  0  0
  185.8150  178.9830  147.6190 O   0  0  0  0  0  1  0  0  0  0  0  0
  185.3120  178.6490  146.3690 C   0  0  0  0  0  0  0  0  0  0  0  0
  187.3490  178.1800  143.2480 O   0  0  0  0  0  0  0  0  0  0  0  0
  187.5150  177.0050  142.5040 C   0  0  2  0  0  3  0  0  0  0  0  0
  188.8320  176.9150  142.0510 O   0  0  0  0  0  1  0  0  0  0  0  0
  186.5730  177.0080  141.3110 C   0  0  0  0  0  2  0  0  0  0  0  0
  186.1470  178.3100  141.0450 O   0  0  0  0  0  1  0  0  0  0  0  0
  1  7  2  0  0  0  0
  1  2  1  0  0  0  0
  2  3  2  0  0  0  0
  2  4  1  0  0  0  0
  3  8  1  0  0  0  0
  4  9  2  0  0  0  0
  5  4  1  0  0  0  0
  7  5  1  0  0  0  0
  8 23  1  0  0  0  0
  8  6  2  0  0  0  0
  9  6  1  0  0  0  0
 10 11  1  0  0  0  0
 10  1  1  0  0  0  0
 11 17  1  6  0  0  0
 11 14  1  0  0  0  0
 13 16  1  0  0  0  0
 13 12  2  0  0  0  0
 14 13  1  0  0  0  0
 16 15  1  0  0  0  0
 18 17  1  1  0  0  0
 18 21  1  0  0  0  0
 19 18  1  0  0  0  0
 19 22  1  0  0  0  0
 21 20  1  0  0  0  0
 22 20  1  0  0  0  0
 23 24  1  0  0  0  0
 25 24  1  0  0  0  0
 26 25  1  0  0  0  0
 27 29  1  0  0  0  0
 27 26  1  1  0  0  0
 29 28  1  6  0  0  0
 29 32  1  0  0  0  0
 30 32  2  0  0  0  0
 32 31  1  0  0  0  0
 33 27  1  0  0  0  0
 34 35  1  6  0  0  0
 34 33  1  0  0  0  0
 36 34  1  0  0  0  0
 37 36  1  0  0  0  0
M  END
>  <MODEL>
5

>  <REMARK>
 VINA RESULT:      -6.2      3.433      8.308
  Name = 
  16 active torsions:
  status: ('A' for Active; 'I' for Inactive)
    1  A    between atoms: C_1  and  C_24
    2  A    between atoms: C_2  and  C_22
    3  A    between atoms: C_2  and  O_33
    4  A    between atoms: C_4  and  C_21
    5  A    between atoms: C_4  and  C_34
    6  A    between atoms: C_6  and  C_11
    7  A    between atoms: C_8  and  C_18
    8  A    between atoms: C_11  and  C_27
    9  A    between atoms: C_15  and  O_23
   10  A    between atoms: C_18  and  O_29
   11  A    between atoms: C_21  and  O_33
   12  A    between atoms: C_22  and  O_29
   13  A    between atoms: C_22  and  C_30
   14  A    between atoms: C_24  and  C_27
   15  A    between atoms: C_27  and  N_32
   16  A    between atoms: C_30  and  C_35
                            x       y       z     vdW  Elec       q    Type
                         _______ _______ _______ _____ _____    ______ ____

>  <TORSDO>
F 16

$$$$
=
 OpenBabel11062418503D

 37 39  0  0  1  0  0  0  0  0999 V2000
  194.3090  174.5430  144.4000 C   0  0  0  0  0  0  0  0  0  0  0  0
  193.2280  174.8490  145.1900 C   0  0  0  0  0  0  0  0  0  0  0  0
  191.9420  174.3220  145.2870 C   0  0  0  0  0  3  0  0  0  0  0  0
  193.6660  175.8590  145.9960 C   0  0  0  0  0  0  0  0  0  0  0  0
  194.9080  176.1440  145.6980 O   0  0  0  0  0  0  0  0  0  0  0  0
  191.5450  175.9330  147.0950 C   0  0  0  0  0  3  0  0  0  0  0  0
  195.3350  175.3610  144.7390 N   0  0  0  0  0  0  0  0  0  0  0  0
  191.0870  174.8810  146.2640 C   0  0  0  0  0  0  0  0  0  0  0  0
  192.8530  176.4390  146.9640 C   0  0  0  0  0  3  0  0  0  0  0  0
  194.3910  173.4590  143.3690 C   0  0  0  0  0  2  0  0  0  0  0  0
  193.9980  173.8990  141.9510 C   0  0  2  0  0  3  0  0  0  0  0  0
  191.5160  175.4840  141.9980 O   0  0  0  0  0  0  0  0  0  0  0  0
  191.4640  174.2800  141.6120 C   0  0  0  0  0  0  0  0  0  0  0  0
  192.6440  173.4680  141.5890 N   0  0  0  0  0  2  0  0  0  0  0  0
  189.9620  172.3460  141.3960 C   0  0  0  0  0  1  0  0  0  0  0  0
  190.2500  173.7210  141.2070 O   0  0  0  0  0  0  0  0  0  0  0  0
  195.0200  173.5590  140.8710 C   0  0  0  0  0  2  0  0  0  0  0  0
  195.3850  174.7910  140.0570 C   0  0  1  0  0  3  0  0  0  0  0  0
  195.4930  175.9380  140.9490 N   0  0  0  0  0  2  0  0  0  0  0  0
  197.5750  175.6940  140.0000 C   0  0  0  0  0  2  0  0  0  0  0  0
  196.7300  174.6020  139.3970 C   0  0  0  0  0  2  0  0  0  0  0  0
  196.8640  176.1690  141.1780 N   0  0  0  0  0  2  0  0  0  0  0  0
  189.6890  174.3810  146.4320 C   0  0  0  0  0  2  0  0  0  0  0  0
  188.8460  175.3220  147.2820 C   0  0  0  0  0  2  0  0  0  0  0  0
  187.8020  175.8560  146.5240 O   0  0  0  0  0  0  0  0  0  0  0  0
  188.1400  177.2000  146.3420 C   0  0  0  0  0  2  0  0  0  0  0  0
  187.4750  177.7630  145.0750 C   0  0  1  0  0  3  0  0  0  0  0  0
  189.8550  177.7370  144.2730 C   0  0  0  0  0  1  0  0  0  0  0  0
  188.3940  177.6770  143.8490 C   0  0  1  0  0  3  0  0  0  0  0  0
  187.5950  176.6570  141.8250 O   0  0  0  0  0  0  0  0  0  0  0  0
  188.4530  175.2230  143.3940 O   0  0  0  0  0  1  0  0  0  0  0  0
  188.1080  176.4970  142.9650 C   0  0  0  0  0  0  0  0  0  0  0  0
  186.2640  177.1040  144.8220 O   0  0  0  0  0  0  0  0  0  0  0  0
  185.2900  178.1090  144.8430 C   0  0  2  0  0  3  0  0  0  0  0  0
  184.4070  177.8900  145.9020 O   0  0  0  0  0  1  0  0  0  0  0  0
  184.5150  178.1090  143.5360 C   0  0  0  0  0  2  0  0  0  0  0  0
  185.1960  178.8620  142.5790 O   0  0  0  0  0  1  0  0  0  0  0  0
  1  7  2  0  0  0  0
  1  2  1  0  0  0  0
  2  3  2  0  0  0  0
  2  4  1  0  0  0  0
  3  8  1  0  0  0  0
  4  9  2  0  0  0  0
  5  4  1  0  0  0  0
  7  5  1  0  0  0  0
  8 23  1  0  0  0  0
  8  6  2  0  0  0  0
  9  6  1  0  0  0  0
 10  1  1  0  0  0  0
 11 17  1  6  0  0  0
 11 10  1  0  0  0  0
 13 12  2  0  0  0  0
 14 13  1  0  0  0  0
 14 11  1  0  0  0  0
 16 15  1  0  0  0  0
 16 13  1  0  0  0  0
 18 17  1  1  0  0  0
 18 19  1  0  0  0  0
 19 22  1  0  0  0  0
 20 22  1  0  0  0  0
 21 20  1  0  0  0  0
 21 18  1  0  0  0  0
 23 24  1  0  0  0  0
 25 24  1  0  0  0  0
 26 25  1  0  0  0  0
 27 26  1  1  0  0  0
 29 28  1  1  0  0  0
 29 27  1  0  0  0  0
 30 32  2  0  0  0  0
 32 31  1  0  0  0  0
 32 29  1  0  0  0  0
 33 34  1  0  0  0  0
 33 27  1  0  0  0  0
 34 35  1  1  0  0  0
 36 34  1  0  0  0  0
 37 36  1  0  0  0  0
M  END
>  <MODEL>
6

>  <REMARK>
 VINA RESULT:      -6.1      3.585      8.057
  Name = 
  16 active torsions:
  status: ('A' for Active; 'I' for Inactive)
    1  A    between atoms: C_1  and  C_24
    2  A    between atoms: C_2  and  C_22
    3  A    between atoms: C_2  and  O_33
    4  A    between atoms: C_4  and  C_21
    5  A    between atoms: C_4  and  C_34
    6  A    between atoms: C_6  and  C_11
    7  A    between atoms: C_8  and  C_18
    8  A    between atoms: C_11  and  C_27
    9  A    between atoms: C_15  and  O_23
   10  A    between atoms: C_18  and  O_29
   11  A    between atoms: C_21  and  O_33
   12  A    between atoms: C_22  and  O_29
   13  A    between atoms: C_22  and  C_30
   14  A    between atoms: C_24  and  C_27
   15  A    between atoms: C_27  and  N_32
   16  A    between atoms: C_30  and  C_35
                            x       y       z     vdW  Elec       q    Type
                         _______ _______ _______ _____ _____    ______ ____

>  <TORSDO>
F 16

$$$$
=
 OpenBabel11062418503D

 37 39  0  0  1  0  0  0  0  0999 V2000
  185.2180  178.8270  144.8580 C   0  0  0  0  0  0  0  0  0  0  0  0
  186.0630  178.1060  145.6660 C   0  0  0  0  0  0  0  0  0  0  0  0
  187.3600  177.6280  145.4990 C   0  0  0  0  0  3  0  0  0  0  0  0
  185.3640  177.9300  146.8250 C   0  0  0  0  0  0  0  0  0  0  0  0
  184.1870  178.4900  146.7100 O   0  0  0  0  0  0  0  0  0  0  0  0
  187.2090  176.7530  147.7860 C   0  0  0  0  0  3  0  0  0  0  0  0
  184.0640  179.0500  145.5330 N   0  0  0  0  0  0  0  0  0  0  0  0
  187.9400  176.9370  146.5870 C   0  0  0  0  0  0  0  0  0  0  0  0
  185.8970  177.2510  147.9150 C   0  0  0  0  0  3  0  0  0  0  0  0
  185.5120  179.3400  143.4820 C   0  0  0  0  0  2  0  0  0  0  0  0
  185.1990  178.3480  142.3520 C   0  0  2  0  0  3  0  0  0  0  0  0
  183.9210  177.7970  139.7570 O   0  0  0  0  0  0  0  0  0  0  0  0
  183.1870  177.9960  140.7690 C   0  0  0  0  0  0  0  0  0  0  0  0
  183.7670  178.2830  142.0470 N   0  0  0  0  0  2  0  0  0  0  0  0
  180.9810  179.0660  140.9390 C   0  0  0  0  0  1  0  0  0  0  0  0
  181.7970  177.9430  140.6540 O   0  0  0  0  0  0  0  0  0  0  0  0
  185.8150  176.9630  142.5320 C   0  0  0  0  0  2  0  0  0  0  0  0
  186.9940  176.7640  141.5910 C   0  0  1  0  0  3  0  0  0  0  0  0
  187.5740  178.0610  141.2710 N   0  0  0  0  0  2  0  0  0  0  0  0
  189.2480  176.8740  142.3120 C   0  0  0  0  0  2  0  0  0  0  0  0
  188.0660  175.9410  142.2630 C   0  0  0  0  0  2  0  0  0  0  0  0
  188.7340  178.2110  142.0570 N   0  0  0  0  0  2  0  0  0  0  0  0
  189.3250  176.3840  146.4910 C   0  0  0  0  0  2  0  0  0  0  0  0
  189.3260  174.9230  146.0600 C   0  0  0  0  0  2  0  0  0  0  0  0
  190.1440  174.7490  144.9420 O   0  0  0  0  0  0  0  0  0  0  0  0
  190.5570  173.4140  145.0020 C   0  0  0  0  0  2  0  0  0  0  0  0
  191.9790  173.2580  144.4410 C   0  0  1  0  0  3  0  0  0  0  0  0
  192.3580  170.8340  143.9060 C   0  0  0  0  0  1  0  0  0  0  0  0
  192.0520  172.2070  143.3250 C   0  0  1  0  0  3  0  0  0  0  0  0
  190.0290  171.2280  142.4730 O   0  0  0  0  0  1  0  0  0  0  0  0
  190.5970  173.2680  141.5950 O   0  0  0  0  0  0  0  0  0  0  0  0
  190.8420  172.1900  142.4350 C   0  0  0  0  0  0  0  0  0  0  0  0
  192.4630  174.4910  143.9810 O   0  0  0  0  0  0  0  0  0  0  0  0
  193.7670  174.5810  144.4820 C   0  0  2  0  0  3  0  0  0  0  0  0
  193.8230  174.0170  145.7580 O   0  0  0  0  0  1  0  0  0  0  0  0
  194.1950  176.0360  144.5580 C   0  0  0  0  0  2  0  0  0  0  0  0
  193.0790  176.8670  144.4610 O   0  0  0  0  0  1  0  0  0  0  0  0
  1  7  2  0  0  0  0
  1  2  1  0  0  0  0
  2  4  1  0  0  0  0
  3  2  2  0  0  0  0
  3  8  1  0  0  0  0
  4  9  2  0  0  0  0
  5  4  1  0  0  0  0
  6  9  1  0  0  0  0
  7  5  1  0  0  0  0
  8  6  2  0  0  0  0
 10  1  1  0  0  0  0
 11 17  1  1  0  0  0
 11 10  1  0  0  0  0
 12 13  2  0  0  0  0
 13 14  1  0  0  0  0
 14 11  1  0  0  0  0
 16 13  1  0  0  0  0
 16 15  1  0  0  0  0
 18 21  1  0  0  0  0
 18 17  1  1  0  0  0
 19 18  1  0  0  0  0
 19 22  1  0  0  0  0
 21 20  1  0  0  0  0
 22 20  1  0  0  0  0
 23  8  1  0  0  0  0
 24 23  1  0  0  0  0
 25 26  1  0  0  0  0
 25 24  1  0  0  0  0
 27 26  1  6  0  0  0
 29 28  1  1  0  0  0
 29 27  1  0  0  0  0
 31 32  2  0  0  0  0
 32 30  1  0  0  0  0
 32 29  1  0  0  0  0
 33 27  1  0  0  0  0
 33 34  1  0  0  0  0
 34 36  1  0  0  0  0
 34 35  1  1  0  0  0
 37 36  1  0  0  0  0
M  END
>  <MODEL>
7

>  <REMARK>
 VINA RESULT:      -6.1      0.952      2.616
  Name = 
  16 active torsions:
  status: ('A' for Active; 'I' for Inactive)
    1  A    between atoms: C_1  and  C_24
    2  A    between atoms: C_2  and  C_22
    3  A    between atoms: C_2  and  O_33
    4  A    between atoms: C_4  and  C_21
    5  A    between atoms: C_4  and  C_34
    6  A    between atoms: C_6  and  C_11
    7  A    between atoms: C_8  and  C_18
    8  A    between atoms: C_11  and  C_27
    9  A    between atoms: C_15  and  O_23
   10  A    between atoms: C_18  and  O_29
   11  A    between atoms: C_21  and  O_33
   12  A    between atoms: C_22  and  O_29
   13  A    between atoms: C_22  and  C_30
   14  A    between atoms: C_24  and  C_27
   15  A    between atoms: C_27  and  N_32
   16  A    between atoms: C_30  and  C_35
                            x       y       z     vdW  Elec       q    Type
                         _______ _______ _______ _____ _____    ______ ____

>  <TORSDO>
F 16

$$$$
=
 OpenBabel11062418503D

 37 39  0  0  1  0  0  0  0  0999 V2000
  185.2290  178.4550  144.4160 C   0  0  0  0  0  0  0  0  0  0  0  0
  186.3550  177.9960  145.0550 C   0  0  0  0  0  0  0  0  0  0  0  0
  187.6930  177.9090  144.6770 C   0  0  0  0  0  3  0  0  0  0  0  0
  185.9190  177.6170  146.2910 C   0  0  0  0  0  0  0  0  0  0  0  0
  184.6290  177.8200  146.3760 O   0  0  0  0  0  0  0  0  0  0  0  0
  188.1440  177.0040  146.9120 C   0  0  0  0  0  3  0  0  0  0  0  0
  184.1760  178.3340  145.2610 N   0  0  0  0  0  0  0  0  0  0  0  0
  188.6020  177.4010  145.6330 C   0  0  0  0  0  0  0  0  0  0  0  0
  186.7810  177.1070  147.2550 C   0  0  0  0  0  3  0  0  0  0  0  0
  185.1530  179.0450  143.0420 C   0  0  0  0  0  2  0  0  0  0  0  0
  184.7820  178.0440  141.9380 C   0  0  2  0  0  3  0  0  0  0  0  0
  186.4650  175.7270  142.6260 O   0  0  0  0  0  0  0  0  0  0  0  0
  186.7420  176.3960  141.5880 C   0  0  0  0  0  0  0  0  0  0  0  0
  185.9590  177.5400  141.2250 N   0  0  0  0  0  2  0  0  0  0  0  0
  187.6350  175.4890  139.4850 C   0  0  0  0  0  1  0  0  0  0  0  0
  187.8210  176.0310  140.7800 O   0  0  0  0  0  0  0  0  0  0  0  0
  183.6900  178.5200  140.9860 C   0  0  0  0  0  2  0  0  0  0  0  0
  182.3340  177.9540  141.3830 C   0  0  1  0  0  3  0  0  0  0  0  0
  181.6960  178.8630  142.3260 N   0  0  0  0  0  2  0  0  0  0  0  0
  180.2910  178.7720  140.5060 C   0  0  0  0  0  2  0  0  0  0  0  0
  181.4360  177.8510  140.1750 C   0  0  0  0  0  2  0  0  0  0  0  0
  180.7340  179.6060  141.6130 N   0  0  0  0  0  2  0  0  0  0  0  0
  190.0540  177.2660  145.3080 C   0  0  0  0  0  2  0  0  0  0  0  0
  190.4420  178.0800  144.0810 C   0  0  0  0  0  2  0  0  0  0  0  0
  191.8250  178.0380  143.8890 O   0  0  0  0  0  0  0  0  0  0  0  0
  192.1770  176.7020  144.1050 C   0  0  0  0  0  2  0  0  0  0  0  0
  193.6340  176.5930  144.5820 C   0  0  1  0  0  3  0  0  0  0  0  0
  193.5870  177.0650  147.0480 C   0  0  0  0  0  1  0  0  0  0  0  0
  193.7440  175.9850  145.9860 C   0  0  1  0  0  3  0  0  0  0  0  0
  191.8320  174.9340  146.9950 O   0  0  0  0  0  1  0  0  0  0  0  0
  193.0190  173.6410  145.5210 O   0  0  0  0  0  0  0  0  0  0  0  0
  192.8150  174.8270  146.2140 C   0  0  0  0  0  0  0  0  0  0  0  0
  194.3950  175.8490  143.6690 O   0  0  0  0  0  0  0  0  0  0  0  0
  195.7070  175.9050  144.1550 C   0  0  2  0  0  3  0  0  0  0  0  0
  196.4060  176.9280  143.5120 O   0  0  0  0  0  1  0  0  0  0  0  0
  196.4110  174.5820  143.9040 C   0  0  0  0  0  2  0  0  0  0  0  0
  197.4970  174.4500  144.7690 O   0  0  0  0  0  1  0  0  0  0  0  0
  1  2  1  0  0  0  0
  1  7  2  0  0  0  0
  2  4  1  0  0  0  0
  3  2  2  0  0  0  0
  3  8  1  0  0  0  0
  4  5  1  0  0  0  0
  4  9  2  0  0  0  0
  6  9  1  0  0  0  0
  7  5  1  0  0  0  0
  8  6  2  0  0  0  0
 10  1  1  0  0  0  0
 11 17  1  6  0  0  0
 11 10  1  0  0  0  0
 13 12  2  0  0  0  0
 14 13  1  0  0  0  0
 14 11  1  0  0  0  0
 15 16  1  0  0  0  0
 16 13  1  0  0  0  0
 18 17  1  6  0  0  0
 18 19  1  0  0  0  0
 20 22  1  0  0  0  0
 21 20  1  0  0  0  0
 21 18  1  0  0  0  0
 22 19  1  0  0  0  0
 23  8  1  0  0  0  0
 24 23  1  0  0  0  0
 25 24  1  0  0  0  0
 25 26  1  0  0  0  0
 27 26  1  6  0  0  0
 27 29  1  0  0  0  0
 29 32  1  0  0  0  0
 29 28  1  1  0  0  0
 31 32  2  0  0  0  0
 32 30  1  0  0  0  0
 33 34  1  0  0  0  0
 33 27  1  0  0  0  0
 34 35  1  6  0  0  0
 36 34  1  0  0  0  0
 36 37  1  0  0  0  0
M  END
>  <MODEL>
8

>  <REMARK>
 VINA RESULT:      -6.1      2.345      4.396
  Name = 
  16 active torsions:
  status: ('A' for Active; 'I' for Inactive)
    1  A    between atoms: C_1  and  C_24
    2  A    between atoms: C_2  and  C_22
    3  A    between atoms: C_2  and  O_33
    4  A    between atoms: C_4  and  C_21
    5  A    between atoms: C_4  and  C_34
    6  A    between atoms: C_6  and  C_11
    7  A    between atoms: C_8  and  C_18
    8  A    between atoms: C_11  and  C_27
    9  A    between atoms: C_15  and  O_23
   10  A    between atoms: C_18  and  O_29
   11  A    between atoms: C_21  and  O_33
   12  A    between atoms: C_22  and  O_29
   13  A    between atoms: C_22  and  C_30
   14  A    between atoms: C_24  and  C_27
   15  A    between atoms: C_27  and  N_32
   16  A    between atoms: C_30  and  C_35
                            x       y       z     vdW  Elec       q    Type
                         _______ _______ _______ _____ _____    ______ ____

>  <TORSDO>
F 16

$$$$
=
 OpenBabel11062418503D

 37 39  0  0  1  0  0  0  0  0999 V2000
  189.7490  177.3190  145.3060 C   0  0  0  0  0  0  0  0  0  0  0  0
  191.0390  176.8740  145.4680 C   0  0  0  0  0  0  0  0  0  0  0  0
  192.1510  176.8600  144.6290 C   0  0  0  0  0  3  0  0  0  0  0  0
  191.0860  176.4130  146.7510 C   0  0  0  0  0  0  0  0  0  0  0  0
  189.9100  176.5590  147.3070 O   0  0  0  0  0  0  0  0  0  0  0  0
  193.3960  175.8590  146.4910 C   0  0  0  0  0  3  0  0  0  0  0  0
  189.0750  177.1120  146.4640 N   0  0  0  0  0  0  0  0  0  0  0  0
  193.3540  176.3410  145.1600 C   0  0  0  0  0  0  0  0  0  0  0  0
  192.2480  175.8880  147.3070 C   0  0  0  0  0  3  0  0  0  0  0  0
  189.1710  177.9770  144.0910 C   0  0  0  0  0  2  0  0  0  0  0  0
  187.7850  177.4570  143.6850 C   0  0  2  0  0  3  0  0  0  0  0  0
  188.9290  174.9290  142.6990 O   0  0  0  0  0  0  0  0  0  0  0  0
  188.3240  175.6840  141.8830 C   0  0  0  0  0  0  0  0  0  0  0  0
  187.7650  176.9300  142.3170 N   0  0  0  0  0  2  0  0  0  0  0  0
  188.5170  174.0110  140.0920 C   0  0  0  0  0  1  0  0  0  0  0  0
  188.1940  175.3150  140.5430 O   0  0  0  0  0  0  0  0  0  0  0  0
  186.6380  178.4290  143.9450 C   0  0  0  0  0  2  0  0  0  0  0  0
  185.4100  177.6970  144.4660 C   0  0  1  0  0  3  0  0  0  0  0  0
  185.8140  176.7770  145.5210 N   0  0  0  0  0  2  0  0  0  0  0  0
  184.3520  178.2520  146.5120 C   0  0  0  0  0  2  0  0  0  0  0  0
  184.4330  178.6770  145.0690 C   0  0  0  0  0  2  0  0  0  0  0  0
  185.4900  177.3790  146.7540 N   0  0  0  0  0  2  0  0  0  0  0  0
  194.5930  176.2810  144.3280 C   0  0  0  0  0  2  0  0  0  0  0  0
  194.3030  175.8220  142.9050 C   0  0  0  0  0  2  0  0  0  0  0  0
  194.4870  174.4430  142.7940 O   0  0  0  0  0  0  0  0  0  0  0  0
  193.2040  173.9220  142.6020 C   0  0  0  0  0  2  0  0  0  0  0  0
  192.9680  172.7050  143.5110 C   0  0  1  0  0  3  0  0  0  0  0  0
  194.0900  172.5430  145.7510 C   0  0  0  0  0  1  0  0  0  0  0  0
  194.2380  172.2810  144.2590 C   0  0  1  0  0  3  0  0  0  0  0  0
  195.8820  170.5770  143.8470 O   0  0  0  0  0  0  0  0  0  0  0  0
  193.7020  169.8720  143.8820 O   0  0  0  0  0  1  0  0  0  0  0  0
  194.6630  170.8700  143.9700 C   0  0  0  0  0  0  0  0  0  0  0  0
  191.9320  172.9640  144.4200 O   0  0  0  0  0  0  0  0  0  0  0  0
  190.9860  171.9570  144.1930 C   0  0  2  0  0  3  0  0  0  0  0  0
  190.7230  171.8550  142.8260 O   0  0  0  0  0  1  0  0  0  0  0  0
  189.6970  172.2790  144.9300 C   0  0  0  0  0  2  0  0  0  0  0  0
  189.7960  173.5320  145.5370 O   0  0  0  0  0  1  0  0  0  0  0  0
  1  2  1  0  0  0  0
  1  7  2  0  0  0  0
  2  4  1  0  0  0  0
  3  8  1  0  0  0  0
  3  2  2  0  0  0  0
  4  9  2  0  0  0  0
  4  5  1  0  0  0  0
  6  9  1  0  0  0  0
  7  5  1  0  0  0  0
  8  6  2  0  0  0  0
 10  1  1  0  0  0  0
 11 17  1  6  0  0  0
 11 10  1  0  0  0  0
 13 14  1  0  0  0  0
 13 12  2  0  0  0  0
 14 11  1  0  0  0  0
 15 16  1  0  0  0  0
 16 13  1  0  0  0  0
 18 17  1  1  0  0  0
 18 21  1  0  0  0  0
 18 19  1  0  0  0  0
 19 22  1  0  0  0  0
 20 22  1  0  0  0  0
 21 20  1  0  0  0  0
 23  8  1  0  0  0  0
 24 23  1  0  0  0  0
 25 24  1  0  0  0  0
 26 25  1  0  0  0  0
 27 26  1  1  0  0  0
 27 29  1  0  0  0  0
 27 33  1  0  0  0  0
 29 28  1  1  0  0  0
 30 32  2  0  0  0  0
 31 32  1  0  0  0  0
 32 29  1  0  0  0  0
 34 35  1  6  0  0  0
 34 33  1  0  0  0  0
 34 36  1  0  0  0  0
 36 37  1  0  0  0  0
M  END
>  <MODEL>
9

>  <REMARK>
 VINA RESULT:      -6.0      2.741      5.028
  Name = 
  16 active torsions:
  status: ('A' for Active; 'I' for Inactive)
    1  A    between atoms: C_1  and  C_24
    2  A    between atoms: C_2  and  C_22
    3  A    between atoms: C_2  and  O_33
    4  A    between atoms: C_4  and  C_21
    5  A    between atoms: C_4  and  C_34
    6  A    between atoms: C_6  and  C_11
    7  A    between atoms: C_8  and  C_18
    8  A    between atoms: C_11  and  C_27
    9  A    between atoms: C_15  and  O_23
   10  A    between atoms: C_18  and  O_29
   11  A    between atoms: C_21  and  O_33
   12  A    between atoms: C_22  and  O_29
   13  A    between atoms: C_22  and  C_30
   14  A    between atoms: C_24  and  C_27
   15  A    between atoms: C_27  and  N_32
   16  A    between atoms: C_30  and  C_35
                            x       y       z     vdW  Elec       q    Type
                         _______ _______ _______ _____ _____    ______ ____

>  <TORSDO>
F 16

$$$$
