=
 OpenBabel11062421233D

 51 54  0  0  1  0  0  0  0  0999 V2000
  190.2180  174.1080  144.2500 C   0  0  2  0  0  3  0  0  0  0  0  0
  189.9760  176.2660  146.2180 C   0  0  0  0  0  2  0  0  0  0  0  0
  190.8370  175.0020  146.4030 C   0  0  1  0  0  3  0  0  0  0  0  0
  189.1970  175.2490  144.0510 C   0  0  0  0  0  2  0  0  0  0  0  0
  189.6240  176.5320  144.7570 C   0  0  1  0  0  3  0  0  0  0  0  0
  191.3500  174.4270  145.1440 N   0  0  0  0  0  0  0  0  0  0  0  0
  189.6980  173.3220  140.6780 C   0  0  0  0  0  0  0  0  0  0  0  0
  190.6140  169.9560  139.9490 C   0  0  0  0  0  3  0  0  0  0  0  0
  189.8800  173.9670  141.7950 N   0  0  0  0  0  0  0  0  0  0  0  0
  191.7450  171.3900  143.8990 C   0  0  0  0  0  1  0  0  0  0  0  0
  190.5820  171.8910  143.0630 C   0  0  1  0  0  3  0  0  0  0  0  0
  190.1720  171.1370  139.5610 O   0  0  0  0  0  0  0  0  0  0  0  0
  190.6480  173.4330  142.9410 C   0  0  2  0  0  3  0  0  0  0  0  0
  188.9670  173.9500  139.6200 N   0  0  0  0  0  2  0  0  0  0  0  0
  190.1550  171.9300  140.5990 C   0  0  0  0  0  0  0  0  0  0  0  0
  190.6090  171.2720  141.6980 C   0  0  0  0  0  0  0  0  0  0  0  0
  190.8930  169.9760  141.3150 C   0  0  0  0  0  3  0  0  0  0  0  0
  188.6810  173.3070  138.3440 C   0  0  0  0  0  2  0  0  0  0  0  0
  188.5590  174.7600  136.4410 O   0  0  0  0  0  1  0  0  0  0  0  0
  189.4330  173.9920  137.2110 C   0  0  2  0  0  3  0  0  0  0  0  0
  189.6440  172.5630  135.2280 C   0  0  0  0  0  2  0  0  0  0  0  0
  190.1830  173.0020  136.3640 C   0  0  0  0  0  0  0  0  0  0  0  0
  191.5280  172.4920  136.7630 C   0  0  0  0  0  1  0  0  0  0  0  0
  191.8760  175.2480  147.3050 O   0  0  0  0  0  0  0  0  0  0  0  0
  191.4810  176.3900  148.0010 C   0  0  0  0  0  1  0  0  0  0  0  0
  192.3110  175.3290  144.4980 C   0  0  0  0  0  2  0  0  0  0  0  0
  193.7160  174.7700  144.6250 C   0  0  0  0  0  2  0  0  0  0  0  0
  195.6720  176.0640  144.2000 O   0  0  0  0  0  0  0  0  0  0  0  0
  194.6380  175.5200  143.7280 C   0  0  0  0  0  0  0  0  0  0  0  0
  194.3330  175.6270  142.3380 N   0  0  0  0  0  2  0  0  0  0  0  0
  195.1180  176.4410  141.4260 C   0  0  0  0  0  2  0  0  0  0  0  0
  195.9890  175.4170  139.4600 O   0  0  0  0  0  1  0  0  0  0  0  0
  196.2380  175.6130  140.8170 C   0  0  0  0  0  2  0  0  0  0  0  0
  188.5390  177.5880  144.6550 C   0  0  0  0  0  2  0  0  0  0  0  0
  185.9800  176.7960  145.8180 C   0  0  0  0  0  1  0  0  0  0  0  0
  185.8680  179.6090  145.0970 C   0  0  0  0  0  1  0  0  0  0  0  0
  186.2460  179.0070  142.8200 O   0  0  0  0  0  0  0  0  0  0  0  0
  186.0610  177.2020  144.3440 C   0  0  1  0  0  3  0  0  0  0  0  0
  185.5620  178.6040  143.9880 C   0  0  1  0  0  0  0  0  0  0  0  0
  187.4230  177.1140  143.7220 C   0  0  1  0  0  3  0  0  0  0  0  0
  187.0340  177.4010  141.4030 F   0  0  0  0  0  0  0  0  0  0  0  0
  187.2940  178.0920  142.5730 C   0  0  1  0  0  3  0  0  0  0  0  0
  184.0700  178.5980  143.7220 C   0  0  0  0  0  0  0  0  0  0  0  0
  183.2970  179.2500  144.4780 O   0  0  0  0  0  0  0  0  0  0  0  0
  183.5060  177.9040  142.6430 O   0  0  0  0  0  0  0  0  0  0  0  0
  182.9240  178.5360  141.5100 C   0  0  1  0  0  3  0  0  0  0  0  0
  183.6350  178.1040  140.2730 C   0  0  0  0  0  0  0  0  0  0  0  0
  184.7560  178.6040  139.9910 O   0  0  0  0  0  1  0  0  0  0  0  0
  183.0570  177.1710  139.4180 O   0  0  0  0  0  0  0  0  0  0  0  0
  180.6190  179.2100  142.1800 C   0  0  0  0  0  1  0  0  0  0  0  0
  181.4480  178.1840  141.4290 C   0  0  0  0  0  2  0  0  0  0  0  0
  1  4  1  6  0  0  0
  1  6  1  0  0  0  0
  2  3  1  0  0  0  0
  3 24  1  1  0  0  0
  4  5  1  0  0  0  0
  5 34  1  1  0  0  0
  5  2  1  0  0  0  0
  6  3  1  0  0  0  0
  7  9  2  0  0  0  0
  8 17  2  0  0  0  0
 11 10  1  1  0  0  0
 12  8  1  0  0  0  0
 12 15  1  0  0  0  0
 13  9  1  6  0  0  0
 13 11  1  0  0  0  0
 13  1  1  0  0  0  0
 14  7  1  0  0  0  0
 15  7  1  0  0  0  0
 15 16  2  0  0  0  0
 16 11  1  0  0  0  0
 17 16  1  0  0  0  0
 18 14  1  0  0  0  0
 20 19  1  6  0  0  0
 20 18  1  0  0  0  0
 21 22  2  0  0  0  0
 22 23  1  0  0  0  0
 22 20  1  0  0  0  0
 24 25  1  0  0  0  0
 26 27  1  0  0  0  0
 26  6  1  0  0  0  0
 29 28  2  0  0  0  0
 29 27  1  0  0  0  0
 30 29  1  0  0  0  0
 31 30  1  0  0  0  0
 32 33  1  0  0  0  0
 33 31  1  0  0  0  0
 37 39  1  0  0  0  0
 38 35  1  1  0  0  0
 39 38  1  0  0  0  0
 39 36  1  1  0  0  0
 40 38  1  0  0  0  0
 40 34  1  1  0  0  0
 42 41  1  6  0  0  0
 42 37  1  0  0  0  0
 42 40  1  0  0  0  0
 43 39  1  0  0  0  0
 43 44  2  0  0  0  0
 45 43  1  0  0  0  0
 46 51  1  6  0  0  0
 46 45  1  0  0  0  0
 47 46  1  0  0  0  0
 48 47  1  0  0  0  0
 49 47  2  0  0  0  0
 51 50  1  0  0  0  0
M  END
>  <MODEL>
1

>  <REMARK>
 VINA RESULT:      -7.0      0.000      0.000
  Name = 
  17 active torsions:
  status: ('A' for Active; 'I' for Inactive)
    1  A    between atoms: C_4  and  C_30
    2  A    between atoms: C_6  and  C_42
    3  A    between atoms: C_10  and  C_20
    4  A    between atoms: C_10  and  O_46
    5  A    between atoms: C_11  and  N_44
    6  A    between atoms: C_11  and  C_48
    7  A    between atoms: C_13  and  O_15
    8  A    between atoms: C_19  and  C_43
    9  A    between atoms: C_19  and  N_45
   10  A    between atoms: C_22  and  C_37
   11  A    between atoms: N_23  and  C_24
   12  A    between atoms: C_24  and  C_41
   13  A    between atoms: C_25  and  C_37
   14  A    between atoms: C_30  and  O_46
   15  A    between atoms: C_30  and  C_50
   16  A    between atoms: C_31  and  C_41
   17  A    between atoms: C_34  and  C_43
                            x       y       z     vdW  Elec       q    Type
                         _______ _______ _______ _____ _____    ______ ____

>  <TORSDO>
F 17

$$$$
=
 OpenBabel11062421233D

 51 54  0  0  1  0  0  0  0  0999 V2000
  193.5040  172.5310  144.2000 C   0  0  2  0  0  3  0  0  0  0  0  0
  194.1770  174.8620  145.8430 C   0  0  0  0  0  2  0  0  0  0  0  0
  195.1670  173.7480  145.4540 C   0  0  1  0  0  3  0  0  0  0  0  0
  192.4060  173.5020  144.6820 C   0  0  0  0  0  2  0  0  0  0  0  0
  192.9490  174.9030  144.9380 C   0  0  1  0  0  3  0  0  0  0  0  0
  194.8690  173.0950  144.1630 N   0  0  0  0  0  0  0  0  0  0  0  0
  191.3610  172.0050  141.2360 C   0  0  0  0  0  0  0  0  0  0  0  0
  190.7900  168.5350  140.6550 C   0  0  0  0  0  3  0  0  0  0  0  0
  192.1740  172.5380  142.1040 N   0  0  0  0  0  0  0  0  0  0  0  0
  193.8150  169.4590  143.6440 C   0  0  0  0  0  1  0  0  0  0  0  0
  192.6360  170.3350  143.2620 C   0  0  1  0  0  3  0  0  0  0  0  0
  190.6260  169.8000  140.3160 O   0  0  0  0  0  0  0  0  0  0  0  0
  193.1290  171.7630  142.9250 C   0  0  2  0  0  3  0  0  0  0  0  0
  190.5030  172.8550  140.4690 N   0  0  0  0  0  2  0  0  0  0  0  0
  191.2820  170.5410  141.1690 C   0  0  0  0  0  0  0  0  0  0  0  0
  191.9110  169.7570  142.0850 C   0  0  0  0  0  0  0  0  0  0  0  0
  191.5900  168.4450  141.7930 C   0  0  0  0  0  3  0  0  0  0  0  0
  189.5380  172.3600  139.4960 C   0  0  0  0  0  2  0  0  0  0  0  0
  188.7730  173.5000  137.5310 O   0  0  0  0  0  1  0  0  0  0  0  0
  189.8740  172.8580  138.0970 C   0  0  2  0  0  3  0  0  0  0  0  0
  191.6130  171.2890  137.3660 C   0  0  0  0  0  2  0  0  0  0  0  0
  190.3710  171.7450  137.2160 C   0  0  0  0  0  0  0  0  0  0  0  0
  189.5040  171.1290  136.1690 C   0  0  0  0  0  1  0  0  0  0  0  0
  196.4790  174.2300  145.4840 O   0  0  0  0  0  0  0  0  0  0  0  0
  197.1340  173.4230  146.4130 C   0  0  0  0  0  1  0  0  0  0  0  0
  195.0390  174.0270  143.0420 C   0  0  0  0  0  2  0  0  0  0  0  0
  196.1850  173.5720  142.1570 C   0  0  0  0  0  2  0  0  0  0  0  0
  196.7990  173.7850  139.8640 O   0  0  0  0  0  0  0  0  0  0  0  0
  195.9230  173.9780  140.7480 C   0  0  0  0  0  0  0  0  0  0  0  0
  194.6800  174.5950  140.4150 N   0  0  0  0  0  2  0  0  0  0  0  0
  194.4010  175.1260  139.0910 C   0  0  0  0  0  2  0  0  0  0  0  0
  192.7790  175.0450  137.3500 O   0  0  0  0  0  1  0  0  0  0  0  0
  193.2870  174.3280  138.4320 C   0  0  0  0  0  2  0  0  0  0  0  0
  191.8770  175.7940  145.5380 C   0  0  0  0  0  2  0  0  0  0  0  0
  189.4300  174.6990  146.6960 C   0  0  0  0  0  1  0  0  0  0  0  0
  189.4770  177.5750  147.1140 C   0  0  0  0  0  1  0  0  0  0  0  0
  189.5010  177.8860  144.7500 O   0  0  0  0  0  0  0  0  0  0  0  0
  189.3550  175.6400  145.4900 C   0  0  1  0  0  3  0  0  0  0  0  0
  188.9420  177.0860  145.7690 C   0  0  1  0  0  0  0  0  0  0  0  0
  190.6120  175.7540  144.6780 C   0  0  1  0  0  3  0  0  0  0  0  0
  189.9530  176.9260  142.7280 F   0  0  0  0  0  0  0  0  0  0  0  0
  190.4230  177.1040  144.0170 C   0  0  1  0  0  3  0  0  0  0  0  0
  187.4330  177.2330  145.7550 C   0  0  0  0  0  0  0  0  0  0  0  0
  186.7540  176.8170  146.7340 O   0  0  0  0  0  0  0  0  0  0  0  0
  186.7520  177.8390  144.6900 O   0  0  0  0  0  0  0  0  0  0  0  0
  185.6360  177.2580  144.0280 C   0  0  1  0  0  3  0  0  0  0  0  0
  184.4810  178.1990  144.0700 C   0  0  0  0  0  0  0  0  0  0  0  0
  183.8960  178.5160  143.0000 O   0  0  0  0  0  0  0  0  0  0  0  0
  184.0620  178.7460  145.2770 O   0  0  0  0  0  1  0  0  0  0  0  0
  186.8900  175.6960  142.5430 C   0  0  0  0  0  1  0  0  0  0  0  0
  186.0070  176.9300  142.5900 C   0  0  0  0  0  2  0  0  0  0  0  0
  1  4  1  6  0  0  0
  3 24  1  6  0  0  0
  3  2  1  0  0  0  0
  4  5  1  0  0  0  0
  5 34  1  1  0  0  0
  5  2  1  0  0  0  0
  6  1  1  0  0  0  0
  6  3  1  0  0  0  0
  7  9  2  0  0  0  0
  8 17  2  0  0  0  0
 11 10  1  6  0  0  0
 12  8  1  0  0  0  0
 12 15  1  0  0  0  0
 13  9  1  1  0  0  0
 13 11  1  0  0  0  0
 13  1  1  0  0  0  0
 14  7  1  0  0  0  0
 15  7  1  0  0  0  0
 15 16  2  0  0  0  0
 16 11  1  0  0  0  0
 17 16  1  0  0  0  0
 18 14  1  0  0  0  0
 20 19  1  6  0  0  0
 20 18  1  0  0  0  0
 22 21  2  0  0  0  0
 22 20  1  0  0  0  0
 23 22  1  0  0  0  0
 24 25  1  0  0  0  0
 26  6  1  0  0  0  0
 27 26  1  0  0  0  0
 28 29  2  0  0  0  0
 29 27  1  0  0  0  0
 30 29  1  0  0  0  0
 31 30  1  0  0  0  0
 32 33  1  0  0  0  0
 33 31  1  0  0  0  0
 37 39  1  0  0  0  0
 38 39  1  0  0  0  0
 38 35  1  1  0  0  0
 39 36  1  1  0  0  0
 40 38  1  0  0  0  0
 40 34  1  1  0  0  0
 42 41  1  6  0  0  0
 42 40  1  0  0  0  0
 42 37  1  0  0  0  0
 43 39  1  0  0  0  0
 43 44  2  0  0  0  0
 45 43  1  0  0  0  0
 46 51  1  6  0  0  0
 46 47  1  0  0  0  0
 46 45  1  0  0  0  0
 47 49  1  0  0  0  0
 48 47  2  0  0  0  0
 50 51  1  0  0  0  0
M  END
>  <MODEL>
2

>  <REMARK>
 VINA RESULT:      -6.6      2.163      3.706
  Name = 
  17 active torsions:
  status: ('A' for Active; 'I' for Inactive)
    1  A    between atoms: C_4  and  C_30
    2  A    between atoms: C_6  and  C_42
    3  A    between atoms: C_10  and  C_20
    4  A    between atoms: C_10  and  O_46
    5  A    between atoms: C_11  and  N_44
    6  A    between atoms: C_11  and  C_48
    7  A    between atoms: C_13  and  O_15
    8  A    between atoms: C_19  and  C_43
    9  A    between atoms: C_19  and  N_45
   10  A    between atoms: C_22  and  C_37
   11  A    between atoms: N_23  and  C_24
   12  A    between atoms: C_24  and  C_41
   13  A    between atoms: C_25  and  C_37
   14  A    between atoms: C_30  and  O_46
   15  A    between atoms: C_30  and  C_50
   16  A    between atoms: C_31  and  C_41
   17  A    between atoms: C_34  and  C_43
                            x       y       z     vdW  Elec       q    Type
                         _______ _______ _______ _____ _____    ______ ____

>  <TORSDO>
F 17

$$$$
=
 OpenBabel11062421233D

 51 54  0  0  1  0  0  0  0  0999 V2000
  191.2460  174.4840  145.8250 C   0  0  2  0  0  3  0  0  0  0  0  0
  190.1290  176.5360  147.5940 C   0  0  0  0  0  2  0  0  0  0  0  0
  191.6000  176.0770  147.6020 C   0  0  1  0  0  3  0  0  0  0  0  0
  189.7270  174.7520  145.8640 C   0  0  0  0  0  2  0  0  0  0  0  0
  189.4060  176.1780  146.2990 C   0  0  1  0  0  3  0  0  0  0  0  0
  192.0940  175.5990  146.2950 N   0  0  0  0  0  0  0  0  0  0  0  0
  190.5980  173.0530  142.4810 C   0  0  0  0  0  0  0  0  0  0  0  0
  192.7630  170.3010  141.8120 C   0  0  0  0  0  3  0  0  0  0  0  0
  190.6460  173.8670  143.4970 N   0  0  0  0  0  0  0  0  0  0  0  0
  193.7300  172.6220  145.3640 C   0  0  0  0  0  1  0  0  0  0  0  0
  192.3550  172.4720  144.7390 C   0  0  1  0  0  3  0  0  0  0  0  0
  191.8010  171.1250  141.4400 O   0  0  0  0  0  0  0  0  0  0  0  0
  191.7280  173.8680  144.5050 C   0  0  2  0  0  3  0  0  0  0  0  0
  189.5200  173.1640  141.5470 N   0  0  0  0  0  2  0  0  0  0  0  0
  191.5960  171.9790  142.4070 C   0  0  0  0  0  0  0  0  0  0  0  0
  192.4460  171.7320  143.4380 C   0  0  0  0  0  0  0  0  0  0  0  0
  193.2030  170.6300  143.0930 C   0  0  0  0  0  3  0  0  0  0  0  0
  189.3570  172.2860  140.3960 C   0  0  0  0  0  2  0  0  0  0  0  0
  188.7230  174.1000  138.9630 O   0  0  0  0  0  1  0  0  0  0  0  0
  189.6180  173.0390  139.0970 C   0  0  2  0  0  3  0  0  0  0  0  0
  189.5710  170.8050  138.0850 C   0  0  0  0  0  2  0  0  0  0  0  0
  189.5660  172.1240  137.9050 C   0  0  0  0  0  0  0  0  0  0  0  0
  189.5080  172.6570  136.5120 C   0  0  0  0  0  1  0  0  0  0  0  0
  192.4220  177.0840  148.1140 O   0  0  0  0  0  0  0  0  0  0  0  0
  191.6640  177.6890  149.1160 C   0  0  0  0  0  1  0  0  0  0  0  0
  192.1450  176.6890  145.3140 C   0  0  0  0  0  2  0  0  0  0  0  0
  193.5860  176.9920  144.9470 C   0  0  0  0  0  2  0  0  0  0  0  0
  193.0040  176.6110  142.6680 O   0  0  0  0  0  0  0  0  0  0  0  0
  193.8710  176.4910  143.5740 C   0  0  0  0  0  0  0  0  0  0  0  0
  195.1240  175.8660  143.3010 N   0  0  0  0  0  2  0  0  0  0  0  0
  195.4270  175.2460  142.0210 C   0  0  0  0  0  2  0  0  0  0  0  0
  197.2050  175.7890  140.5340 O   0  0  0  0  0  1  0  0  0  0  0  0
  196.0130  176.2750  141.0680 C   0  0  0  0  0  2  0  0  0  0  0  0
  187.9090  176.3680  146.4570 C   0  0  0  0  0  2  0  0  0  0  0  0
  184.9920  176.4460  146.3520 C   0  0  0  0  0  1  0  0  0  0  0  0
  186.0250  179.1540  146.1410 C   0  0  0  0  0  1  0  0  0  0  0  0
  187.1560  178.5320  144.1350 O   0  0  0  0  0  0  0  0  0  0  0  0
  185.8150  176.8470  145.1250 C   0  0  1  0  0  3  0  0  0  0  0  0
  185.9510  178.3460  144.8470 C   0  0  1  0  0  0  0  0  0  0  0  0
  187.2220  176.3260  145.0910 C   0  0  1  0  0  3  0  0  0  0  0  0
  187.9750  176.7990  142.8950 F   0  0  0  0  0  0  0  0  0  0  0  0
  187.8930  177.3260  144.1720 C   0  0  1  0  0  3  0  0  0  0  0  0
  184.7900  178.8510  144.0130 C   0  0  0  0  0  0  0  0  0  0  0  0
  184.3750  180.0320  144.1690 O   0  0  0  0  0  0  0  0  0  0  0  0
  184.1620  178.0530  143.0460 O   0  0  0  0  0  0  0  0  0  0  0  0
  183.7550  178.5260  141.7690 C   0  0  1  0  0  3  0  0  0  0  0  0
  184.7560  178.1220  140.7410 C   0  0  0  0  0  0  0  0  0  0  0  0
  184.3700  177.5710  139.6770 O   0  0  0  0  0  0  0  0  0  0  0  0
  186.1140  178.3270  140.9620 O   0  0  0  0  0  1  0  0  0  0  0  0
  181.3120  179.0130  141.6790 C   0  0  0  0  0  1  0  0  0  0  0  0
  182.3840  177.9670  141.4280 C   0  0  0  0  0  2  0  0  0  0  0  0
  1  4  1  6  0  0  0
  1  6  1  0  0  0  0
  2  3  1  0  0  0  0
  3 24  1  6  0  0  0
  4  5  1  0  0  0  0
  5 34  1  1  0  0  0
  5  2  1  0  0  0  0
  6  3  1  0  0  0  0
  7  9  2  0  0  0  0
  8 17  2  0  0  0  0
 11 10  1  6  0  0  0
 12  8  1  0  0  0  0
 12 15  1  0  0  0  0
 13  9  1  6  0  0  0
 13 11  1  0  0  0  0
 13  1  1  0  0  0  0
 14  7  1  0  0  0  0
 15  7  1  0  0  0  0
 15 16  2  0  0  0  0
 16 11  1  0  0  0  0
 17 16  1  0  0  0  0
 18 14  1  0  0  0  0
 20 19  1  6  0  0  0
 20 18  1  0  0  0  0
 22 21  2  0  0  0  0
 22 20  1  0  0  0  0
 23 22  1  0  0  0  0
 24 25  1  0  0  0  0
 26  6  1  0  0  0  0
 27 26  1  0  0  0  0
 28 29  2  0  0  0  0
 29 27  1  0  0  0  0
 30 29  1  0  0  0  0
 31 30  1  0  0  0  0
 32 33  1  0  0  0  0
 33 31  1  0  0  0  0
 37 42  1  0  0  0  0
 37 39  1  0  0  0  0
 38 35  1  1  0  0  0
 39 38  1  0  0  0  0
 39 36  1  1  0  0  0
 40 38  1  0  0  0  0
 40 34  1  1  0  0  0
 42 41  1  6  0  0  0
 42 40  1  0  0  0  0
 43 44  2  0  0  0  0
 43 39  1  0  0  0  0
 45 43  1  0  0  0  0
 46 51  1  6  0  0  0
 46 45  1  0  0  0  0
 47 49  1  0  0  0  0
 47 46  1  0  0  0  0
 48 47  2  0  0  0  0
 51 50  1  0  0  0  0
M  END
>  <MODEL>
3

>  <REMARK>
 VINA RESULT:      -6.6      1.513      1.961
  Name = 
  17 active torsions:
  status: ('A' for Active; 'I' for Inactive)
    1  A    between atoms: C_4  and  C_30
    2  A    between atoms: C_6  and  C_42
    3  A    between atoms: C_10  and  C_20
    4  A    between atoms: C_10  and  O_46
    5  A    between atoms: C_11  and  N_44
    6  A    between atoms: C_11  and  C_48
    7  A    between atoms: C_13  and  O_15
    8  A    between atoms: C_19  and  C_43
    9  A    between atoms: C_19  and  N_45
   10  A    between atoms: C_22  and  C_37
   11  A    between atoms: N_23  and  C_24
   12  A    between atoms: C_24  and  C_41
   13  A    between atoms: C_25  and  C_37
   14  A    between atoms: C_30  and  O_46
   15  A    between atoms: C_30  and  C_50
   16  A    between atoms: C_31  and  C_41
   17  A    between atoms: C_34  and  C_43
                            x       y       z     vdW  Elec       q    Type
                         _______ _______ _______ _____ _____    ______ ____

>  <TORSDO>
F 17

$$$$
=
 OpenBabel11062421233D

 51 54  0  0  1  0  0  0  0  0999 V2000
  192.3220  175.1740  145.0970 C   0  0  2  0  0  3  0  0  0  0  0  0
  194.9530  174.2080  144.2420 C   0  0  0  0  0  2  0  0  0  0  0  0
  194.1440  173.6250  145.4170 C   0  0  1  0  0  3  0  0  0  0  0  0
  193.1320  175.9310  144.0230 C   0  0  0  0  0  2  0  0  0  0  0  0
  194.0920  175.0140  143.2740 C   0  0  1  0  0  3  0  0  0  0  0  0
  192.6800  173.7500  145.2670 N   0  0  0  0  0  0  0  0  0  0  0  0
  189.3730  176.7850  143.5620 C   0  0  0  0  0  0  0  0  0  0  0  0
  186.9860  177.7320  146.0330 C   0  0  0  0  0  3  0  0  0  0  0  0
  190.4530  176.0790  143.7360 N   0  0  0  0  0  0  0  0  0  0  0  0
  190.2400  175.2110  147.4440 C   0  0  0  0  0  1  0  0  0  0  0  0
  190.2910  176.1610  146.2610 C   0  0  1  0  0  3  0  0  0  0  0  0
  187.3630  177.6480  144.7710 O   0  0  0  0  0  0  0  0  0  0  0  0
  190.8090  175.4140  145.0080 C   0  0  2  0  0  3  0  0  0  0  0  0
  189.1110  177.3560  142.2760 N   0  0  0  0  0  2  0  0  0  0  0  0
  188.5290  177.0600  144.7300 C   0  0  0  0  0  0  0  0  0  0  0  0
  188.9320  176.7310  145.9860 C   0  0  0  0  0  0  0  0  0  0  0  0
  187.9610  177.1780  146.8610 C   0  0  0  0  0  3  0  0  0  0  0  0
  187.9500  178.1860  141.9820 C   0  0  0  0  0  2  0  0  0  0  0  0
  187.0710  176.8620  140.1870 O   0  0  0  0  0  1  0  0  0  0  0  0
  186.7940  177.3380  141.4690 C   0  0  2  0  0  3  0  0  0  0  0  0
  184.7780  178.2260  140.3890 C   0  0  0  0  0  2  0  0  0  0  0  0
  185.4940  178.0930  141.5030 C   0  0  0  0  0  0  0  0  0  0  0  0
  184.9780  178.7040  142.7630 C   0  0  0  0  0  1  0  0  0  0  0  0
  194.5150  172.2990  145.6540 O   0  0  0  0  0  0  0  0  0  0  0  0
  195.9090  172.3080  145.6240 C   0  0  0  0  0  1  0  0  0  0  0  0
  192.1870  172.9330  144.1530 C   0  0  0  0  0  2  0  0  0  0  0  0
  190.8860  172.2540  144.5420 C   0  0  0  0  0  2  0  0  0  0  0  0
  188.8320  171.7240  143.4550 O   0  0  0  0  0  0  0  0  0  0  0  0
  190.0420  172.0540  143.3310 C   0  0  0  0  0  0  0  0  0  0  0  0
  190.6180  172.2280  142.0370 N   0  0  0  0  0  2  0  0  0  0  0  0
  189.8920  171.9340  140.8130 C   0  0  0  0  0  2  0  0  0  0  0  0
  189.8040  174.3100  140.9480 O   0  0  0  0  0  1  0  0  0  0  0  0
  189.4230  173.2250  140.1600 C   0  0  0  0  0  2  0  0  0  0  0  0
  194.9660  175.8110  142.3230 C   0  0  0  0  0  2  0  0  0  0  0  0
  197.0480  175.8520  140.2770 C   0  0  0  0  0  1  0  0  0  0  0  0
  196.7460  173.1390  141.2740 C   0  0  0  0  0  1  0  0  0  0  0  0
  194.4880  173.1420  140.5090 O   0  0  0  0  0  0  0  0  0  0  0  0
  195.7410  175.0950  140.0270 C   0  0  1  0  0  3  0  0  0  0  0  0
  195.7880  173.5730  140.1660 C   0  0  1  0  0  0  0  0  0  0  0  0
  194.5760  175.5180  140.8730 C   0  0  1  0  0  3  0  0  0  0  0  0
  192.7100  174.4360  139.8950 F   0  0  0  0  0  0  0  0  0  0  0  0
  193.7100  174.2760  140.8370 C   0  0  1  0  0  3  0  0  0  0  0  0
  196.2090  172.9210  138.8640 C   0  0  0  0  0  0  0  0  0  0  0  0
  197.3630  172.4210  138.7580 O   0  0  0  0  0  0  0  0  0  0  0  0
  195.3470  172.8310  137.7620 O   0  0  0  0  0  0  0  0  0  0  0  0
  195.2390  173.8290  136.7560 C   0  0  1  0  0  3  0  0  0  0  0  0
  195.7830  173.3070  135.4700 C   0  0  0  0  0  0  0  0  0  0  0  0
  195.3910  172.1930  135.0330 O   0  0  0  0  0  1  0  0  0  0  0  0
  196.7370  174.0310  134.7630 O   0  0  0  0  0  0  0  0  0  0  0  0
  193.6000  175.6950  136.9790 C   0  0  0  0  0  1  0  0  0  0  0  0
  193.7840  174.2380  136.5940 C   0  0  0  0  0  2  0  0  0  0  0  0
  1  4  1  6  0  0  0
  1  6  1  0  0  0  0
  2  3  1  0  0  0  0
  3 24  1  6  0  0  0
  5 34  1  6  0  0  0
  5  4  1  0  0  0  0
  5  2  1  0  0  0  0
  6  3  1  0  0  0  0
  7  9  2  0  0  0  0
  7 15  1  0  0  0  0
  8 17  2  0  0  0  0
 11 10  1  1  0  0  0
 12  8  1  0  0  0  0
 13  9  1  6  0  0  0
 13  1  1  0  0  0  0
 13 11  1  0  0  0  0
 14  7  1  0  0  0  0
 15 12  1  0  0  0  0
 15 16  2  0  0  0  0
 16 11  1  0  0  0  0
 16 17  1  0  0  0  0
 18 14  1  0  0  0  0
 20 19  1  6  0  0  0
 20 22  1  0  0  0  0
 20 18  1  0  0  0  0
 21 22  2  0  0  0  0
 22 23  1  0  0  0  0
 25 24  1  0  0  0  0
 26 27  1  0  0  0  0
 26  6  1  0  0  0  0
 29 28  2  0  0  0  0
 29 27  1  0  0  0  0
 30 29  1  0  0  0  0
 31 30  1  0  0  0  0
 33 31  1  0  0  0  0
 33 32  1  0  0  0  0
 37 42  1  0  0  0  0
 38 39  1  0  0  0  0
 38 35  1  1  0  0  0
 38 40  1  0  0  0  0
 39 37  1  0  0  0  0
 39 36  1  1  0  0  0
 40 34  1  1  0  0  0
 42 41  1  6  0  0  0
 42 40  1  0  0  0  0
 43 39  1  0  0  0  0
 44 43  2  0  0  0  0
 45 43  1  0  0  0  0
 46 51  1  6  0  0  0
 46 45  1  0  0  0  0
 47 46  1  0  0  0  0
 48 47  1  0  0  0  0
 49 47  2  0  0  0  0
 51 50  1  0  0  0  0
M  END
>  <MODEL>
4

>  <REMARK>
 VINA RESULT:      -6.2      2.700      8.934
  Name = 
  17 active torsions:
  status: ('A' for Active; 'I' for Inactive)
    1  A    between atoms: C_4  and  C_30
    2  A    between atoms: C_6  and  C_42
    3  A    between atoms: C_10  and  C_20
    4  A    between atoms: C_10  and  O_46
    5  A    between atoms: C_11  and  N_44
    6  A    between atoms: C_11  and  C_48
    7  A    between atoms: C_13  and  O_15
    8  A    between atoms: C_19  and  C_43
    9  A    between atoms: C_19  and  N_45
   10  A    between atoms: C_22  and  C_37
   11  A    between atoms: N_23  and  C_24
   12  A    between atoms: C_24  and  C_41
   13  A    between atoms: C_25  and  C_37
   14  A    between atoms: C_30  and  O_46
   15  A    between atoms: C_30  and  C_50
   16  A    between atoms: C_31  and  C_41
   17  A    between atoms: C_34  and  C_43
                            x       y       z     vdW  Elec       q    Type
                         _______ _______ _______ _____ _____    ______ ____

>  <TORSDO>
F 17

$$$$
=
 OpenBabel11062421233D

 51 54  0  0  1  0  0  0  0  0999 V2000
  193.6670  171.5250  143.7030 C   0  0  2  0  0  3  0  0  0  0  0  0
  194.5960  173.5420  145.6150 C   0  0  0  0  0  2  0  0  0  0  0  0
  195.4290  172.3380  145.1370 C   0  0  1  0  0  3  0  0  0  0  0  0
  192.7020  172.5950  144.2550 C   0  0  0  0  0  2  0  0  0  0  0  0
  193.4330  173.8640  144.6820 C   0  0  1  0  0  3  0  0  0  0  0  0
  195.1010  171.8760  143.7740 N   0  0  0  0  0  0  0  0  0  0  0  0
  191.7720  171.7500  140.5400 C   0  0  0  0  0  0  0  0  0  0  0  0
  190.4240  168.5830  139.6140 C   0  0  0  0  0  3  0  0  0  0  0  0
  192.5990  172.0030  141.5140 N   0  0  0  0  0  0  0  0  0  0  0  0
  193.2650  168.5160  142.9090 C   0  0  0  0  0  1  0  0  0  0  0  0
  192.3830  169.6860  142.5100 C   0  0  1  0  0  3  0  0  0  0  0  0
  190.6120  169.8680  139.3750 O   0  0  0  0  0  0  0  0  0  0  0  0
  193.2450  170.9600  142.3400 C   0  0  2  0  0  3  0  0  0  0  0  0
  191.2320  172.8370  139.7820 N   0  0  0  0  0  2  0  0  0  0  0  0
  191.3410  170.3620  140.3390 C   0  0  0  0  0  0  0  0  0  0  0  0
  191.6610  169.3870  141.2310 C   0  0  0  0  0  0  0  0  0  0  0  0
  191.0580  168.2210  140.8020 C   0  0  0  0  0  3  0  0  0  0  0  0
  190.2780  172.6670  138.6940 C   0  0  0  0  0  2  0  0  0  0  0  0
  187.9970  172.6630  139.4310 O   0  0  0  0  0  1  0  0  0  0  0  0
  189.0160  173.4820  138.9460 C   0  0  2  0  0  3  0  0  0  0  0  0
  187.5230  175.0330  137.7700 C   0  0  0  0  0  2  0  0  0  0  0  0
  188.5810  174.2270  137.7150 C   0  0  0  0  0  0  0  0  0  0  0  0
  189.3090  174.0880  136.4190 C   0  0  0  0  0  1  0  0  0  0  0  0
  196.7940  172.6090  145.2620 O   0  0  0  0  0  0  0  0  0  0  0  0
  196.8720  173.6140  146.2250 C   0  0  0  0  0  1  0  0  0  0  0  0
  195.4600  172.8830  142.7690 C   0  0  0  0  0  2  0  0  0  0  0  0
  196.4490  172.2990  141.7760 C   0  0  0  0  0  2  0  0  0  0  0  0
  197.6990  173.8030  140.4150 O   0  0  0  0  0  0  0  0  0  0  0  0
  196.6000  173.2200  140.6160 C   0  0  0  0  0  0  0  0  0  0  0  0
  195.4900  173.4440  139.7480 N   0  0  0  0  0  2  0  0  0  0  0  0
  195.5250  174.4180  138.6690 C   0  0  0  0  0  2  0  0  0  0  0  0
  193.7950  175.1310  137.1980 O   0  0  0  0  0  1  0  0  0  0  0  0
  194.1750  175.1030  138.5390 C   0  0  0  0  0  2  0  0  0  0  0  0
  192.4760  174.8400  145.3420 C   0  0  0  0  0  2  0  0  0  0  0  0
  189.6750  174.2360  145.9010 C   0  0  0  0  0  1  0  0  0  0  0  0
  190.3120  176.8650  146.9630 C   0  0  0  0  0  1  0  0  0  0  0  0
  190.8330  177.5960  144.7530 O   0  0  0  0  0  0  0  0  0  0  0  0
  190.0380  175.3710  144.9400 C   0  0  1  0  0  3  0  0  0  0  0  0
  189.9290  176.7960  145.4850 C   0  0  1  0  0  0  0  0  0  0  0  0
  191.4130  175.2980  144.3420 C   0  0  1  0  0  3  0  0  0  0  0  0
  191.4060  176.9460  142.6410 F   0  0  0  0  0  0  0  0  0  0  0  0
  191.6650  176.7480  143.9850 C   0  0  1  0  0  3  0  0  0  0  0  0
  188.5240  177.3370  145.3130 C   0  0  0  0  0  0  0  0  0  0  0  0
  187.8410  177.6430  146.3300 O   0  0  0  0  0  0  0  0  0  0  0  0
  187.9490  177.5350  144.0490 O   0  0  0  0  0  0  0  0  0  0  0  0
  186.7450  176.9130  143.6190 C   0  0  1  0  0  3  0  0  0  0  0  0
  185.8400  177.9330  143.0170 C   0  0  0  0  0  0  0  0  0  0  0  0
  186.1190  179.1570  143.1280 O   0  0  0  0  0  1  0  0  0  0  0  0
  184.6800  177.5430  142.3580 O   0  0  0  0  0  0  0  0  0  0  0  0
  188.1790  176.2700  141.6830 C   0  0  0  0  0  1  0  0  0  0  0  0
  187.0650  175.8210  142.6110 C   0  0  0  0  0  2  0  0  0  0  0  0
  1  6  1  0  0  0  0
  1  4  1  6  0  0  0
  3 24  1  6  0  0  0
  3  2  1  0  0  0  0
  4  5  1  0  0  0  0
  5 34  1  1  0  0  0
  5  2  1  0  0  0  0
  6  3  1  0  0  0  0
  7  9  2  0  0  0  0
  8 17  2  0  0  0  0
 11 10  1  6  0  0  0
 12  8  1  0  0  0  0
 12 15  1  0  0  0  0
 13  9  1  1  0  0  0
 13 11  1  0  0  0  0
 13  1  1  0  0  0  0
 14  7  1  0  0  0  0
 15  7  1  0  0  0  0
 15 16  2  0  0  0  0
 16 11  1  0  0  0  0
 17 16  1  0  0  0  0
 18 20  1  0  0  0  0
 18 14  1  0  0  0  0
 20 19  1  6  0  0  0
 22 21  2  0  0  0  0
 22 20  1  0  0  0  0
 23 22  1  0  0  0  0
 24 25  1  0  0  0  0
 26  6  1  0  0  0  0
 27 26  1  0  0  0  0
 28 29  2  0  0  0  0
 29 27  1  0  0  0  0
 30 29  1  0  0  0  0
 31 30  1  0  0  0  0
 32 33  1  0  0  0  0
 33 31  1  0  0  0  0
 37 39  1  0  0  0  0
 38 39  1  0  0  0  0
 38 35  1  1  0  0  0
 39 36  1  1  0  0  0
 40 38  1  0  0  0  0
 40 34  1  1  0  0  0
 42 41  1  6  0  0  0
 42 40  1  0  0  0  0
 42 37  1  0  0  0  0
 43 39  1  0  0  0  0
 43 44  2  0  0  0  0
 45 43  1  0  0  0  0
 46 51  1  6  0  0  0
 46 45  1  0  0  0  0
 47 48  1  0  0  0  0
 47 46  1  0  0  0  0
 49 47  2  0  0  0  0
 50 51  1  0  0  0  0
M  END
>  <MODEL>
5

>  <REMARK>
 VINA RESULT:      -6.1      2.488      4.228
  Name = 
  17 active torsions:
  status: ('A' for Active; 'I' for Inactive)
    1  A    between atoms: C_4  and  C_30
    2  A    between atoms: C_6  and  C_42
    3  A    between atoms: C_10  and  C_20
    4  A    between atoms: C_10  and  O_46
    5  A    between atoms: C_11  and  N_44
    6  A    between atoms: C_11  and  C_48
    7  A    between atoms: C_13  and  O_15
    8  A    between atoms: C_19  and  C_43
    9  A    between atoms: C_19  and  N_45
   10  A    between atoms: C_22  and  C_37
   11  A    between atoms: N_23  and  C_24
   12  A    between atoms: C_24  and  C_41
   13  A    between atoms: C_25  and  C_37
   14  A    between atoms: C_30  and  O_46
   15  A    between atoms: C_30  and  C_50
   16  A    between atoms: C_31  and  C_41
   17  A    between atoms: C_34  and  C_43
                            x       y       z     vdW  Elec       q    Type
                         _______ _______ _______ _____ _____    ______ ____

>  <TORSDO>
F 17

$$$$
=
 OpenBabel11062421233D

 51 54  0  0  1  0  0  0  0  0999 V2000
  193.7310  175.6290  144.0380 C   0  0  2  0  0  3  0  0  0  0  0  0
  196.1330  174.7330  142.6190 C   0  0  0  0  0  2  0  0  0  0  0  0
  195.8370  174.4540  144.1050 C   0  0  1  0  0  3  0  0  0  0  0  0
  194.0230  176.1040  142.5990 C   0  0  0  0  0  2  0  0  0  0  0  0
  194.8830  175.1090  141.8280 C   0  0  1  0  0  3  0  0  0  0  0  0
  194.4000  174.3720  144.4330 N   0  0  0  0  0  0  0  0  0  0  0  0
  190.2650  176.7620  143.4440 C   0  0  0  0  0  0  0  0  0  0  0  0
  188.6170  177.5390  146.5070 C   0  0  0  0  0  3  0  0  0  0  0  0
  191.4350  176.2100  143.2940 N   0  0  0  0  0  0  0  0  0  0  0  0
  192.4600  175.5370  146.9050 C   0  0  0  0  0  1  0  0  0  0  0  0
  192.0240  176.4160  145.7470 C   0  0  1  0  0  3  0  0  0  0  0  0
  188.6080  177.4300  145.1910 O   0  0  0  0  0  0  0  0  0  0  0  0
  192.2430  175.6700  144.4090 C   0  0  2  0  0  3  0  0  0  0  0  0
  189.5550  177.2190  142.2890 N   0  0  0  0  0  2  0  0  0  0  0  0
  189.7790  176.9940  144.8090 C   0  0  0  0  0  0  0  0  0  0  0  0
  190.5800  176.7920  145.8880 C   0  0  0  0  0  0  0  0  0  0  0  0
  189.8620  177.1620  147.0090 C   0  0  0  0  0  3  0  0  0  0  0  0
  188.2560  177.8760  142.3480 C   0  0  0  0  0  2  0  0  0  0  0  0
  187.5240  176.1210  140.8880 O   0  0  0  0  0  1  0  0  0  0  0  0
  187.1410  176.9080  141.9750 C   0  0  2  0  0  3  0  0  0  0  0  0
  185.5500  177.9990  140.4590 C   0  0  0  0  0  2  0  0  0  0  0  0
  185.8490  177.6280  141.7020 C   0  0  0  0  0  0  0  0  0  0  0  0
  184.8830  177.9410  142.7950 C   0  0  0  0  0  1  0  0  0  0  0  0
  196.5170  173.3110  144.5320 O   0  0  0  0  0  0  0  0  0  0  0  0
  196.8370  173.5620  145.8650 C   0  0  0  0  0  1  0  0  0  0  0  0
  193.7740  173.2060  143.7980 C   0  0  0  0  0  2  0  0  0  0  0  0
  192.8890  172.4830  144.7970 C   0  0  0  0  0  2  0  0  0  0  0  0
  190.5110  172.3470  144.7390 O   0  0  0  0  0  0  0  0  0  0  0  0
  191.6000  172.1130  144.1510 C   0  0  0  0  0  0  0  0  0  0  0  0
  191.6120  171.4820  142.8710 N   0  0  0  0  0  2  0  0  0  0  0  0
  190.4040  170.9850  142.2330 C   0  0  0  0  0  2  0  0  0  0  0  0
  188.7010  172.5570  141.6850 O   0  0  0  0  0  1  0  0  0  0  0  0
  189.8910  171.9980  141.2220 C   0  0  0  0  0  2  0  0  0  0  0  0
  195.2630  175.6660  140.4680 C   0  0  0  0  0  2  0  0  0  0  0  0
  196.2790  175.1070  137.7890 C   0  0  0  0  0  1  0  0  0  0  0  0
  196.3470  172.6640  139.3620 C   0  0  0  0  0  1  0  0  0  0  0  0
  193.9780  172.7930  139.6070 O   0  0  0  0  0  0  0  0  0  0  0  0
  194.9670  174.4740  138.2600 C   0  0  1  0  0  3  0  0  0  0  0  0
  195.0230  173.0040  138.6810 C   0  0  1  0  0  0  0  0  0  0  0  0
  194.2850  175.1700  139.4010 C   0  0  1  0  0  3  0  0  0  0  0  0
  192.1480  174.1550  139.5220 F   0  0  0  0  0  0  0  0  0  0  0  0
  193.4480  174.0490  139.9820 C   0  0  1  0  0  3  0  0  0  0  0  0
  194.8300  172.0900  137.4870 C   0  0  0  0  0  0  0  0  0  0  0  0
  195.7220  171.2450  137.1960 O   0  0  0  0  0  0  0  0  0  0  0  0
  193.6760  172.1310  136.6930 O   0  0  0  0  0  0  0  0  0  0  0  0
  192.7410  171.0640  136.5960 C   0  0  1  0  0  3  0  0  0  0  0  0
  191.7610  171.1520  137.7160 C   0  0  0  0  0  0  0  0  0  0  0  0
  190.8050  171.9690  137.6460 O   0  0  0  0  0  0  0  0  0  0  0  0
  191.9110  170.3550  138.8460 O   0  0  0  0  0  1  0  0  0  0  0  0
  191.6830  169.7310  134.7740 C   0  0  0  0  0  1  0  0  0  0  0  0
  192.0280  171.1290  135.2550 C   0  0  0  0  0  2  0  0  0  0  0  0
  1  4  1  6  0  0  0
  1 13  1  0  0  0  0
  1  6  1  0  0  0  0
  2  3  1  0  0  0  0
  3  6  1  0  0  0  0
  3 24  1  6  0  0  0
  5 34  1  6  0  0  0
  5  4  1  0  0  0  0
  5  2  1  0  0  0  0
  7 15  1  0  0  0  0
  8 17  2  0  0  0  0
  9  7  2  0  0  0  0
 11 16  1  0  0  0  0
 11 10  1  1  0  0  0
 12  8  1  0  0  0  0
 13  9  1  6  0  0  0
 13 11  1  0  0  0  0
 14 18  1  0  0  0  0
 14  7  1  0  0  0  0
 15 12  1  0  0  0  0
 15 16  2  0  0  0  0
 16 17  1  0  0  0  0
 20 19  1  6  0  0  0
 20 18  1  0  0  0  0
 21 22  2  0  0  0  0
 22 20  1  0  0  0  0
 22 23  1  0  0  0  0
 24 25  1  0  0  0  0
 26  6  1  0  0  0  0
 26 27  1  0  0  0  0
 29 28  2  0  0  0  0
 29 27  1  0  0  0  0
 30 29  1  0  0  0  0
 31 30  1  0  0  0  0
 33 32  1  0  0  0  0
 33 31  1  0  0  0  0
 37 42  1  0  0  0  0
 38 35  1  1  0  0  0
 38 39  1  0  0  0  0
 38 40  1  0  0  0  0
 39 36  1  1  0  0  0
 39 37  1  0  0  0  0
 40 42  1  0  0  0  0
 40 34  1  1  0  0  0
 42 41  1  6  0  0  0
 43 39  1  0  0  0  0
 44 43  2  0  0  0  0
 45 43  1  0  0  0  0
 46 51  1  6  0  0  0
 46 45  1  0  0  0  0
 46 47  1  0  0  0  0
 47 49  1  0  0  0  0
 48 47  2  0  0  0  0
 50 51  1  0  0  0  0
M  END
>  <MODEL>
6

>  <REMARK>
 VINA RESULT:      -6.0      2.797      8.785
  Name = 
  17 active torsions:
  status: ('A' for Active; 'I' for Inactive)
    1  A    between atoms: C_4  and  C_30
    2  A    between atoms: C_6  and  C_42
    3  A    between atoms: C_10  and  C_20
    4  A    between atoms: C_10  and  O_46
    5  A    between atoms: C_11  and  N_44
    6  A    between atoms: C_11  and  C_48
    7  A    between atoms: C_13  and  O_15
    8  A    between atoms: C_19  and  C_43
    9  A    between atoms: C_19  and  N_45
   10  A    between atoms: C_22  and  C_37
   11  A    between atoms: N_23  and  C_24
   12  A    between atoms: C_24  and  C_41
   13  A    between atoms: C_25  and  C_37
   14  A    between atoms: C_30  and  O_46
   15  A    between atoms: C_30  and  C_50
   16  A    between atoms: C_31  and  C_41
   17  A    between atoms: C_34  and  C_43
                            x       y       z     vdW  Elec       q    Type
                         _______ _______ _______ _____ _____    ______ ____

>  <TORSDO>
F 17

$$$$
=
 OpenBabel11062421233D

 51 54  0  0  1  0  0  0  0  0999 V2000
  193.9740  175.7260  144.8680 C   0  0  2  0  0  3  0  0  0  0  0  0
  196.6210  175.0000  143.8410 C   0  0  0  0  0  2  0  0  0  0  0  0
  196.0420  174.5260  145.1880 C   0  0  1  0  0  3  0  0  0  0  0  0
  194.5360  176.3880  143.5930 C   0  0  0  0  0  2  0  0  0  0  0  0
  195.5460  175.4960  142.8780 C   0  0  1  0  0  3  0  0  0  0  0  0
  194.5700  174.4180  145.2120 N   0  0  0  0  0  0  0  0  0  0  0  0
  190.6700  176.8420  143.6490 C   0  0  0  0  0  0  0  0  0  0  0  0
  188.4400  177.4750  146.3560 C   0  0  0  0  0  3  0  0  0  0  0  0
  191.8570  176.3100  143.7100 N   0  0  0  0  0  0  0  0  0  0  0  0
  192.1690  175.5020  147.4250 C   0  0  0  0  0  1  0  0  0  0  0  0
  191.9500  176.4230  146.2380 C   0  0  1  0  0  3  0  0  0  0  0  0
  188.6910  177.4200  145.0610 O   0  0  0  0  0  0  0  0  0  0  0  0
  192.4410  175.7340  144.9410 C   0  0  2  0  0  3  0  0  0  0  0  0
  190.1910  177.3380  142.3950 N   0  0  0  0  0  2  0  0  0  0  0  0
  189.9220  177.0130  144.8990 C   0  0  0  0  0  0  0  0  0  0  0  0
  190.5000  176.7770  146.1060 C   0  0  0  0  0  0  0  0  0  0  0  0
  189.5700  177.0920  147.0780 C   0  0  0  0  0  3  0  0  0  0  0  0
  188.8930  177.9770  142.2220 C   0  0  0  0  0  2  0  0  0  0  0  0
  186.9680  177.9170  140.7960 O   0  0  0  0  0  1  0  0  0  0  0  0
  187.9850  177.1320  141.3390 C   0  0  2  0  0  3  0  0  0  0  0  0
  186.3640  176.1090  142.8690 C   0  0  0  0  0  2  0  0  0  0  0  0
  187.4280  175.9510  142.0850 C   0  0  0  0  0  0  0  0  0  0  0  0
  188.0400  174.5950  141.9710 C   0  0  0  0  0  1  0  0  0  0  0  0
  196.6420  173.3260  145.5800 O   0  0  0  0  0  0  0  0  0  0  0  0
  197.8130  173.2500  144.8270 C   0  0  0  0  0  1  0  0  0  0  0  0
  194.0980  173.3570  144.3140 C   0  0  0  0  0  2  0  0  0  0  0  0
  193.3910  172.2770  145.1120 C   0  0  0  0  0  2  0  0  0  0  0  0
  192.6390  170.3140  143.9890 O   0  0  0  0  0  0  0  0  0  0  0  0
  192.4480  171.5360  144.2290 C   0  0  0  0  0  0  0  0  0  0  0  0
  191.3400  172.2240  143.6510 N   0  0  0  0  0  2  0  0  0  0  0  0
  190.4490  171.6010  142.6860 C   0  0  0  0  0  2  0  0  0  0  0  0
  191.6890  171.0990  140.7160 O   0  0  0  0  0  1  0  0  0  0  0  0
  190.8190  172.0330  141.2760 C   0  0  0  0  0  2  0  0  0  0  0  0
  196.1770  176.2280  141.7080 C   0  0  0  0  0  2  0  0  0  0  0  0
  197.9410  176.0020  139.3930 C   0  0  0  0  0  1  0  0  0  0  0  0
  197.8870  173.4600  140.8010 C   0  0  0  0  0  1  0  0  0  0  0  0
  195.5430  173.3150  140.3840 O   0  0  0  0  0  0  0  0  0  0  0  0
  196.6400  175.1960  139.4490 C   0  0  1  0  0  3  0  0  0  0  0  0
  196.7640  173.7110  139.7960 C   0  0  1  0  0  0  0  0  0  0  0  0
  195.5940  175.7200  140.3880 C   0  0  1  0  0  3  0  0  0  0  0  0
  193.6480  174.4760  139.8600 F   0  0  0  0  0  0  0  0  0  0  0  0
  194.7790  174.4720  140.6580 C   0  0  1  0  0  3  0  0  0  0  0  0
  197.0180  172.8820  138.5530 C   0  0  0  0  0  0  0  0  0  0  0  0
  197.4710  171.7090  138.6650 O   0  0  0  0  0  0  0  0  0  0  0  0
  196.7470  173.3650  137.2650 O   0  0  0  0  0  0  0  0  0  0  0  0
  195.5200  173.1510  136.5790 C   0  0  1  0  0  3  0  0  0  0  0  0
  194.8780  171.9010  137.0760 C   0  0  0  0  0  0  0  0  0  0  0  0
  193.9700  171.9690  137.9460 O   0  0  0  0  0  1  0  0  0  0  0  0
  195.2930  170.6610  136.6030 O   0  0  0  0  0  0  0  0  0  0  0  0
  195.1900  175.5840  136.1410 C   0  0  0  0  0  1  0  0  0  0  0  0
  194.6020  174.3440  136.7910 C   0  0  0  0  0  2  0  0  0  0  0  0
  1  4  1  6  0  0  0
  1 13  1  0  0  0  0
  1  6  1  0  0  0  0
  2  3  1  0  0  0  0
  3  6  1  0  0  0  0
  3 24  1  6  0  0  0
  5 34  1  6  0  0  0
  5  4  1  0  0  0  0
  5  2  1  0  0  0  0
  7  9  2  0  0  0  0
  7 15  1  0  0  0  0
  8 17  2  0  0  0  0
 11 10  1  1  0  0  0
 12  8  1  0  0  0  0
 13  9  1  6  0  0  0
 13 11  1  0  0  0  0
 14  7  1  0  0  0  0
 15 12  1  0  0  0  0
 15 16  2  0  0  0  0
 16 11  1  0  0  0  0
 16 17  1  0  0  0  0
 18 14  1  0  0  0  0
 20 19  1  1  0  0  0
 20 22  1  0  0  0  0
 20 18  1  0  0  0  0
 22 21  2  0  0  0  0
 23 22  1  0  0  0  0
 25 24  1  0  0  0  0
 26 27  1  0  0  0  0
 26  6  1  0  0  0  0
 28 29  2  0  0  0  0
 29 27  1  0  0  0  0
 30 29  1  0  0  0  0
 31 30  1  0  0  0  0
 32 33  1  0  0  0  0
 33 31  1  0  0  0  0
 37 42  1  0  0  0  0
 38 35  1  1  0  0  0
 38 39  1  0  0  0  0
 38 40  1  0  0  0  0
 39 37  1  0  0  0  0
 39 36  1  1  0  0  0
 40 42  1  0  0  0  0
 40 34  1  1  0  0  0
 42 41  1  6  0  0  0
 43 44  2  0  0  0  0
 43 39  1  0  0  0  0
 45 43  1  0  0  0  0
 46 51  1  1  0  0  0
 46 47  1  0  0  0  0
 46 45  1  0  0  0  0
 47 48  1  0  0  0  0
 49 47  2  0  0  0  0
 50 51  1  0  0  0  0
M  END
>  <MODEL>
7

>  <REMARK>
 VINA RESULT:      -6.0      3.277      9.159
  Name = 
  17 active torsions:
  status: ('A' for Active; 'I' for Inactive)
    1  A    between atoms: C_4  and  C_30
    2  A    between atoms: C_6  and  C_42
    3  A    between atoms: C_10  and  C_20
    4  A    between atoms: C_10  and  O_46
    5  A    between atoms: C_11  and  N_44
    6  A    between atoms: C_11  and  C_48
    7  A    between atoms: C_13  and  O_15
    8  A    between atoms: C_19  and  C_43
    9  A    between atoms: C_19  and  N_45
   10  A    between atoms: C_22  and  C_37
   11  A    between atoms: N_23  and  C_24
   12  A    between atoms: C_24  and  C_41
   13  A    between atoms: C_25  and  C_37
   14  A    between atoms: C_30  and  O_46
   15  A    between atoms: C_30  and  C_50
   16  A    between atoms: C_31  and  C_41
   17  A    between atoms: C_34  and  C_43
                            x       y       z     vdW  Elec       q    Type
                         _______ _______ _______ _____ _____    ______ ____

>  <TORSDO>
F 17

$$$$
=
 OpenBabel11062421233D

 51 54  0  0  1  0  0  0  0  0999 V2000
  194.3930  173.4220  144.2760 C   0  0  2  0  0  3  0  0  0  0  0  0
  193.4080  175.5440  146.0400 C   0  0  0  0  0  2  0  0  0  0  0  0
  194.8140  175.5090  145.4100 C   0  0  1  0  0  3  0  0  0  0  0  0
  193.0360  173.2840  144.9970 C   0  0  0  0  0  2  0  0  0  0  0  0
  192.4140  174.6390  145.3180 C   0  0  1  0  0  3  0  0  0  0  0  0
  194.8800  174.8070  144.1130 N   0  0  0  0  0  0  0  0  0  0  0  0
  192.8530  171.6410  141.4290 C   0  0  0  0  0  0  0  0  0  0  0  0
  194.5740  168.6000  140.7230 C   0  0  0  0  0  3  0  0  0  0  0  0
  193.2050  172.5720  142.2680 N   0  0  0  0  0  0  0  0  0  0  0  0
  196.5410  171.2500  143.5600 C   0  0  0  0  0  1  0  0  0  0  0  0
  195.0490  171.1720  143.2930 C   0  0  1  0  0  3  0  0  0  0  0  0
  193.6170  169.4700  140.4550 O   0  0  0  0  0  0  0  0  0  0  0  0
  194.4940  172.5860  142.9930 C   0  0  2  0  0  3  0  0  0  0  0  0
  191.5940  171.7460  140.7560 N   0  0  0  0  0  2  0  0  0  0  0  0
  193.7170  170.4620  141.2990 C   0  0  0  0  0  0  0  0  0  0  0  0
  194.7680  170.2610  142.1370 C   0  0  0  0  0  0  0  0  0  0  0  0
  195.3330  169.0450  141.8050 C   0  0  0  0  0  3  0  0  0  0  0  0
  191.0920  170.7470  139.8230 C   0  0  0  0  0  2  0  0  0  0  0  0
  189.0620  171.8310  139.1510 O   0  0  0  0  0  1  0  0  0  0  0  0
  190.3090  171.4040  138.6930 C   0  0  2  0  0  3  0  0  0  0  0  0
  189.7600  169.2380  137.6820 C   0  0  0  0  0  2  0  0  0  0  0  0
  190.1740  170.4910  137.5070 C   0  0  0  0  0  0  0  0  0  0  0  0
  190.4940  170.9520  136.1240 C   0  0  0  0  0  1  0  0  0  0  0  0
  195.3370  176.8010  145.3120 O   0  0  0  0  0  0  0  0  0  0  0  0
  194.5660  177.5650  146.1880 C   0  0  0  0  0  1  0  0  0  0  0  0
  194.1270  175.5260  143.0790 C   0  0  0  0  0  2  0  0  0  0  0  0
  195.0580  176.4310  142.2920 C   0  0  0  0  0  2  0  0  0  0  0  0
  196.7260  175.6260  140.7930 O   0  0  0  0  0  0  0  0  0  0  0  0
  195.4980  175.7400  141.0480 C   0  0  0  0  0  0  0  0  0  0  0  0
  194.5190  175.2220  140.1490 N   0  0  0  0  0  2  0  0  0  0  0  0
  194.8670  174.6440  138.8620 C   0  0  0  0  0  2  0  0  0  0  0  0
  194.8720  172.5240  137.7780 O   0  0  0  0  0  1  0  0  0  0  0  0
  195.0940  173.1470  139.0050 C   0  0  0  0  0  2  0  0  0  0  0  0
  191.1520  174.4710  146.1430 C   0  0  0  0  0  2  0  0  0  0  0  0
  188.5600  175.3000  147.2010 C   0  0  0  0  0  1  0  0  0  0  0  0
  189.8260  177.5680  145.8960 C   0  0  0  0  0  1  0  0  0  0  0  0
  189.8110  176.3550  143.8430 O   0  0  0  0  0  0  0  0  0  0  0  0
  188.7970  175.2670  145.6880 C   0  0  1  0  0  3  0  0  0  0  0  0
  189.0430  176.6100  145.0000 C   0  0  1  0  0  0  0  0  0  0  0  0
  189.9280  174.3930  145.2290 C   0  0  1  0  0  3  0  0  0  0  0  0
  189.6790  174.2900  142.8760 F   0  0  0  0  0  0  0  0  0  0  0  0
  190.2700  175.0190  143.8930 C   0  0  1  0  0  3  0  0  0  0  0  0
  187.7340  177.2640  144.6020 C   0  0  0  0  0  0  0  0  0  0  0  0
  187.6530  177.8880  143.5080 O   0  0  0  0  0  0  0  0  0  0  0  0
  186.5860  177.1850  145.4030 O   0  0  0  0  0  0  0  0  0  0  0  0
  185.9780  178.3060  146.0300 C   0  0  1  0  0  3  0  0  0  0  0  0
  184.6040  178.5030  145.4850 C   0  0  0  0  0  0  0  0  0  0  0  0
  183.6360  178.6570  146.2760 O   0  0  0  0  0  1  0  0  0  0  0  0
  184.3830  178.4940  144.1130 O   0  0  0  0  0  0  0  0  0  0  0  0
  187.0120  178.9040  148.2190 C   0  0  0  0  0  1  0  0  0  0  0  0
  185.9300  178.0890  147.5340 C   0  0  0  0  0  2  0  0  0  0  0  0
  1  4  1  6  0  0  0
  3 24  1  6  0  0  0
  3  2  1  0  0  0  0
  4  5  1  0  0  0  0
  5  2  1  0  0  0  0
  5 34  1  1  0  0  0
  6  1  1  0  0  0  0
  6  3  1  0  0  0  0
  7  9  2  0  0  0  0
  8 17  2  0  0  0  0
 11 10  1  6  0  0  0
 12  8  1  0  0  0  0
 12 15  1  0  0  0  0
 13  9  1  1  0  0  0
 13 11  1  0  0  0  0
 13  1  1  0  0  0  0
 14  7  1  0  0  0  0
 15  7  1  0  0  0  0
 15 16  2  0  0  0  0
 16 11  1  0  0  0  0
 17 16  1  0  0  0  0
 18 14  1  0  0  0  0
 20 19  1  1  0  0  0
 20 18  1  0  0  0  0
 22 21  2  0  0  0  0
 22 20  1  0  0  0  0
 23 22  1  0  0  0  0
 24 25  1  0  0  0  0
 26  6  1  0  0  0  0
 27 26  1  0  0  0  0
 28 29  2  0  0  0  0
 29 27  1  0  0  0  0
 30 29  1  0  0  0  0
 31 33  1  0  0  0  0
 31 30  1  0  0  0  0
 32 33  1  0  0  0  0
 37 42  1  0  0  0  0
 37 39  1  0  0  0  0
 38 35  1  1  0  0  0
 39 38  1  0  0  0  0
 39 36  1  1  0  0  0
 40 38  1  0  0  0  0
 40 34  1  1  0  0  0
 42 41  1  6  0  0  0
 42 40  1  0  0  0  0
 43 39  1  0  0  0  0
 43 45  1  0  0  0  0
 44 43  2  0  0  0  0
 45 46  1  0  0  0  0
 46 51  1  1  0  0  0
 47 46  1  0  0  0  0
 47 48  1  0  0  0  0
 49 47  2  0  0  0  0
 51 50  1  0  0  0  0
M  END
>  <MODEL>
8

>  <REMARK>
 VINA RESULT:      -5.9      2.635      4.259
  Name = 
  17 active torsions:
  status: ('A' for Active; 'I' for Inactive)
    1  A    between atoms: C_4  and  C_30
    2  A    between atoms: C_6  and  C_42
    3  A    between atoms: C_10  and  C_20
    4  A    between atoms: C_10  and  O_46
    5  A    between atoms: C_11  and  N_44
    6  A    between atoms: C_11  and  C_48
    7  A    between atoms: C_13  and  O_15
    8  A    between atoms: C_19  and  C_43
    9  A    between atoms: C_19  and  N_45
   10  A    between atoms: C_22  and  C_37
   11  A    between atoms: N_23  and  C_24
   12  A    between atoms: C_24  and  C_41
   13  A    between atoms: C_25  and  C_37
   14  A    between atoms: C_30  and  O_46
   15  A    between atoms: C_30  and  C_50
   16  A    between atoms: C_31  and  C_41
   17  A    between atoms: C_34  and  C_43
                            x       y       z     vdW  Elec       q    Type
                         _______ _______ _______ _____ _____    ______ ____

>  <TORSDO>
F 17

$$$$
=
 OpenBabel11062421233D

 51 54  0  0  1  0  0  0  0  0999 V2000
  193.4530  170.8060  143.2530 C   0  0  2  0  0  3  0  0  0  0  0  0
  194.6080  172.0640  145.6340 C   0  0  0  0  0  2  0  0  0  0  0  0
  195.2610  170.9120  144.8460 C   0  0  1  0  0  3  0  0  0  0  0  0
  192.6450  171.8320  144.0750 C   0  0  0  0  0  2  0  0  0  0  0  0
  193.5480  172.8060  144.8260 C   0  0  1  0  0  3  0  0  0  0  0  0
  194.9200  170.8890  143.4100 N   0  0  0  0  0  0  0  0  0  0  0  0
  191.4670  171.9920  140.3720 C   0  0  0  0  0  0  0  0  0  0  0  0
  190.1470  169.2600  138.5010 C   0  0  0  0  0  3  0  0  0  0  0  0
  192.3160  171.9370  141.3580 N   0  0  0  0  0  0  0  0  0  0  0  0
  193.0790  168.2050  141.5390 C   0  0  0  0  0  1  0  0  0  0  0  0
  192.1670  169.4180  141.5570 C   0  0  1  0  0  3  0  0  0  0  0  0
  190.3060  170.5580  138.6850 O   0  0  0  0  0  0  0  0  0  0  0  0
  193.0020  170.7010  141.7890 C   0  0  2  0  0  3  0  0  0  0  0  0
  190.8880  173.2510  140.0170 N   0  0  0  0  0  2  0  0  0  0  0  0
  191.0540  170.7320  139.7430 C   0  0  0  0  0  0  0  0  0  0  0  0
  191.4150  169.5300  140.2650 C   0  0  0  0  0  0  0  0  0  0  0  0
  190.8190  168.5500  139.4950 C   0  0  0  0  0  3  0  0  0  0  0  0
  189.9070  173.4170  138.9520 C   0  0  0  0  0  2  0  0  0  0  0  0
  187.8230  174.5990  138.8880 O   0  0  0  0  0  1  0  0  0  0  0  0
  188.5030  173.5620  139.5250 C   0  0  2  0  0  3  0  0  0  0  0  0
  188.2090  172.7490  141.8210 C   0  0  0  0  0  2  0  0  0  0  0  0
  188.5300  173.7600  141.0160 C   0  0  0  0  0  0  0  0  0  0  0  0
  188.9100  175.0680  141.6250 C   0  0  0  0  0  1  0  0  0  0  0  0
  196.6460  170.9160  145.0350 O   0  0  0  0  0  0  0  0  0  0  0  0
  196.8570  170.0980  146.1440 C   0  0  0  0  0  1  0  0  0  0  0  0
  195.4720  172.0560  142.7120 C   0  0  0  0  0  2  0  0  0  0  0  0
  196.4570  171.6080  141.6470 C   0  0  0  0  0  2  0  0  0  0  0  0
  197.6090  173.2090  140.3100 O   0  0  0  0  0  0  0  0  0  0  0  0
  196.5210  172.6250  140.5620 C   0  0  0  0  0  0  0  0  0  0  0  0
  195.3420  172.9390  139.8230 N   0  0  0  0  0  2  0  0  0  0  0  0
  195.2990  174.0040  138.8340 C   0  0  0  0  0  2  0  0  0  0  0  0
  193.8580  174.9930  140.4510 O   0  0  0  0  0  1  0  0  0  0  0  0
  194.8050  175.2920  139.4720 C   0  0  0  0  0  2  0  0  0  0  0  0
  192.7300  173.7120  145.7270 C   0  0  0  0  0  2  0  0  0  0  0  0
  189.8330  173.6910  145.3650 C   0  0  0  0  0  1  0  0  0  0  0  0
  190.4900  175.2970  147.6970 C   0  0  0  0  0  1  0  0  0  0  0  0
  191.7370  176.7670  146.2940 O   0  0  0  0  0  0  0  0  0  0  0  0
  190.6190  174.9940  145.1890 C   0  0  1  0  0  3  0  0  0  0  0  0
  190.5540  175.9980  146.3410 C   0  0  1  0  0  0  0  0  0  0  0  0
  192.0850  174.8320  144.9090 C   0  0  1  0  0  3  0  0  0  0  0  0
  192.8120  177.0010  144.2930 F   0  0  0  0  0  0  0  0  0  0  0  0
  192.6310  176.1640  145.3800 C   0  0  1  0  0  3  0  0  0  0  0  0
  189.3530  176.9120  146.1980 C   0  0  0  0  0  0  0  0  0  0  0  0
  189.2270  177.9060  146.9650 O   0  0  0  0  0  0  0  0  0  0  0  0
  188.3700  176.7050  145.2200 O   0  0  0  0  0  0  0  0  0  0  0  0
  187.2510  177.5600  145.0270 C   0  0  1  0  0  3  0  0  0  0  0  0
  187.2560  178.0870  143.6320 C   0  0  0  0  0  0  0  0  0  0  0  0
  186.1810  178.4910  143.1140 O   0  0  0  0  0  1  0  0  0  0  0  0
  188.4340  178.1110  142.8930 O   0  0  0  0  0  0  0  0  0  0  0  0
  185.1980  177.4510  146.4370 C   0  0  0  0  0  1  0  0  0  0  0  0
  185.9670  176.7950  145.3040 C   0  0  0  0  0  2  0  0  0  0  0  0
  1  6  1  0  0  0  0
  1  4  1  6  0  0  0
  3 24  1  6  0  0  0
  3  2  1  0  0  0  0
  4  5  1  0  0  0  0
  5  2  1  0  0  0  0
  5 34  1  1  0  0  0
  6  3  1  0  0  0  0
  7  9  2  0  0  0  0
  8 12  1  0  0  0  0
  8 17  2  0  0  0  0
 11 10  1  6  0  0  0
 11 13  1  0  0  0  0
 12 15  1  0  0  0  0
 13  9  1  1  0  0  0
 13  1  1  0  0  0  0
 14  7  1  0  0  0  0
 15 16  2  0  0  0  0
 15  7  1  0  0  0  0
 16 11  1  0  0  0  0
 17 16  1  0  0  0  0
 18 20  1  0  0  0  0
 18 14  1  0  0  0  0
 20 19  1  6  0  0  0
 20 22  1  0  0  0  0
 22 23  1  0  0  0  0
 22 21  2  0  0  0  0
 24 25  1  0  0  0  0
 26  6  1  0  0  0  0
 27 26  1  0  0  0  0
 28 29  2  0  0  0  0
 29 27  1  0  0  0  0
 30 29  1  0  0  0  0
 31 33  1  0  0  0  0
 31 30  1  0  0  0  0
 33 32  1  0  0  0  0
 37 39  1  0  0  0  0
 38 35  1  1  0  0  0
 38 39  1  0  0  0  0
 39 36  1  1  0  0  0
 40 38  1  0  0  0  0
 40 42  1  0  0  0  0
 40 34  1  1  0  0  0
 42 41  1  6  0  0  0
 42 37  1  0  0  0  0
 43 39  1  0  0  0  0
 43 44  2  0  0  0  0
 45 43  1  0  0  0  0
 46 45  1  0  0  0  0
 46 51  1  6  0  0  0
 47 46  1  0  0  0  0
 48 47  1  0  0  0  0
 49 47  2  0  0  0  0
 51 50  1  0  0  0  0
M  END
>  <MODEL>
9

>  <REMARK>
 VINA RESULT:      -5.9      2.859      4.984
  Name = 
  17 active torsions:
  status: ('A' for Active; 'I' for Inactive)
    1  A    between atoms: C_4  and  C_30
    2  A    between atoms: C_6  and  C_42
    3  A    between atoms: C_10  and  C_20
    4  A    between atoms: C_10  and  O_46
    5  A    between atoms: C_11  and  N_44
    6  A    between atoms: C_11  and  C_48
    7  A    between atoms: C_13  and  O_15
    8  A    between atoms: C_19  and  C_43
    9  A    between atoms: C_19  and  N_45
   10  A    between atoms: C_22  and  C_37
   11  A    between atoms: N_23  and  C_24
   12  A    between atoms: C_24  and  C_41
   13  A    between atoms: C_25  and  C_37
   14  A    between atoms: C_30  and  O_46
   15  A    between atoms: C_30  and  C_50
   16  A    between atoms: C_31  and  C_41
   17  A    between atoms: C_34  and  C_43
                            x       y       z     vdW  Elec       q    Type
                         _______ _______ _______ _____ _____    ______ ____

>  <TORSDO>
F 17

$$$$
