=
 OpenBabel11062423003D

 61 68  0  0  1  0  0  0  0  0999 V2000
  191.1040  174.3420  143.9700 N   0  0  0  0  0  0  0  0  0  0  0  0
  191.4540  173.9140  142.6140 C   0  0  0  0  0  2  0  0  0  0  0  0
  190.1980  173.5660  141.8260 C   0  0  2  0  0  3  0  0  0  0  0  0
  189.6330  172.3810  142.3050 O   0  0  0  0  0  1  0  0  0  0  0  0
  188.2540  174.6230  139.7850 N   0  0  0  0  0  0  0  0  0  0  0  0
  191.1010  171.6240  138.7870 C   0  0  0  0  0  3  0  0  0  0  0  0
  189.7130  171.1830  136.5130 Cl  0  0  0  0  0  0  0  0  0  0  0  0
  191.1920  172.1680  140.0040 C   0  0  0  0  0  3  0  0  0  0  0  0
  189.2900  173.6970  139.4410 C   0  0  0  0  0  0  0  0  0  0  0  0
  190.3370  172.3400  137.7120 C   0  0  1  0  0  3  0  0  0  0  0  0
  189.2380  173.1310  138.2690 N   0  0  0  0  0  0  0  0  0  0  0  0
  190.5100  173.4780  140.3270 C   0  0  1  0  0  3  0  0  0  0  0  0
  188.3230  175.4630  140.9040 N   0  0  0  0  0  0  0  0  0  0  0  0
  185.8340  177.5720  142.8010 C   0  0  0  0  0  0  0  0  0  0  0  0
  185.2810  178.2890  141.7310 C   0  0  0  0  0  3  0  0  0  0  0  0
  187.2980  176.4120  141.2200 C   0  0  0  0  0  0  0  0  0  0  0  0
  185.7200  178.0720  140.4250 C   0  0  0  0  0  3  0  0  0  0  0  0
  186.7210  177.1350  140.1720 C   0  0  0  0  0  3  0  0  0  0  0  0
  187.3870  175.9080  143.5630 F   0  0  0  0  0  0  0  0  0  0  0  0
  186.8520  176.6270  142.5420 C   0  0  0  0  0  0  0  0  0  0  0  0
  185.3240  177.8280  144.1650 C   0  0  0  0  0  0  0  0  0  0  0  0
  185.1500  176.7710  145.0520 O   0  0  0  0  0  1  0  0  0  0  0  0
  185.0560  178.9980  144.5500 O   0  0  0  0  0  0  0  0  0  0  0  0
  191.5630  173.3970  144.9970 C   0  0  0  0  0  2  0  0  0  0  0  0
  192.5680  172.3700  144.4830 C   0  0  0  0  0  2  0  0  0  0  0  0
  193.8500  172.4820  145.2760 C   0  0  0  0  0  2  0  0  0  0  0  0
  195.0260  172.5610  144.3250 C   0  0  0  0  0  2  0  0  0  0  0  0
  194.7100  173.4120  140.5790 C   0  0  1  0  0  3  0  0  0  0  0  0
  197.1110  176.0600  142.8220 C   0  0  0  0  0  0  0  0  0  0  0  0
  195.0310  174.9550  143.5630 C   0  0  0  0  0  2  0  0  0  0  0  0
  195.6250  173.4650  139.3470 C   0  0  0  0  0  2  0  0  0  0  0  0
  196.9370  173.2470  141.7680 C   0  0  0  0  0  0  0  0  0  0  0  0
  197.7730  172.4160  142.3890 C   0  0  0  0  0  2  0  0  0  0  0  0
  194.7260  173.5100  143.1680 C   0  0  1  0  0  3  0  0  0  0  0  0
  196.8780  174.3410  139.5180 C   0  0  1  0  0  3  0  0  0  0  0  0
  196.5110  175.1780  143.8650 C   0  0  0  0  0  2  0  0  0  0  0  0
  194.7810  171.9800  141.0980 C   0  0  0  0  0  2  0  0  0  0  0  0
  197.4660  174.3810  140.9380 C   0  0  1  0  0  3  0  0  0  0  0  0
  197.2050  175.6850  141.4750 O   0  0  0  0  0  0  0  0  0  0  0  0
  195.4490  173.0890  141.8800 C   0  0  1  0  0  0  0  0  0  0  0  0
  197.4450  177.2300  143.1500 O   0  0  0  0  0  0  0  0  0  0  0  0
  197.9190  173.9050  138.5400 C   0  0  0  0  0  3  0  0  0  0  0  0
  197.7730  173.9260  137.2120 C   0  0  0  0  0  3  0  0  0  0  0  0
  195.9190  173.5110  135.7710 N   0  0  0  0  0  0  0  0  0  0  0  0
  196.1820  175.7210  136.4960 O   0  0  0  0  0  0  0  0  0  0  0  0
  194.7120  173.8440  135.0070 C   0  0  2  0  0  3  0  0  0  0  0  0
  194.9560  176.1520  135.9090 C   0  0  0  0  0  2  0  0  0  0  0  0
  196.5800  174.3780  136.4770 C   0  0  0  0  0  0  0  0  0  0  0  0
  194.6640  175.3330  134.6580 C   0  0  0  0  0  2  0  0  0  0  0  0
  192.4900  172.7600  134.8270 C   0  0  0  0  0  2  0  0  0  0  0  0
  193.4690  173.4210  135.7790 C   0  0  0  0  0  3  0  0  0  0  0  0
  192.2700  174.1940  135.2640 C   0  0  0  0  0  2  0  0  0  0  0  0
  191.5080  175.7290  144.2620 C   0  0  0  0  0  2  0  0  0  0  0  0
  191.7330  176.0280  145.7250 C   0  0  0  0  0  0  0  0  0  0  0  0
  192.8540  175.9600  146.1990 O   0  0  0  0  0  0  0  0  0  0  0  0
  190.6160  176.5460  146.5820 C   0  0  1  0  0  3  0  0  0  0  0  0
  188.4490  175.5420  147.0840 C   0  0  0  0  0  2  0  0  0  0  0  0
  187.9370  177.8460  147.3530 O   0  0  0  0  0  1  0  0  0  0  0  0
  189.5470  177.2030  145.7300 C   0  0  0  0  0  2  0  0  0  0  0  0
  189.9370  175.4390  147.3710 C   0  0  0  0  0  2  0  0  0  0  0  0
  188.2290  176.8730  146.3950 C   0  0  1  0  0  3  0  0  0  0  0  0
  1 53  1  0  0  0  0
  1 24  1  0  0  0  0
  2  1  1  0  0  0  0
  3  4  1  1  0  0  0
  3  2  1  0  0  0  0
  5 13  2  0  0  0  0
  6  8  2  0  0  0  0
  8 12  1  0  0  0  0
  9  5  1  0  0  0  0
  9 12  1  0  0  0  0
 10  7  1  6  0  0  0
 10 11  1  0  0  0  0
 10  6  1  0  0  0  0
 11  9  2  0  0  0  0
 12  3  1  1  0  0  0
 13 16  1  0  0  0  0
 14 21  1  0  0  0  0
 15 14  2  0  0  0  0
 16 20  2  0  0  0  0
 17 15  1  0  0  0  0
 18 17  2  0  0  0  0
 18 16  1  0  0  0  0
 20 14  1  0  0  0  0
 20 19  1  0  0  0  0
 21 23  2  0  0  0  0
 21 22  1  0  0  0  0
 25 24  1  0  0  0  0
 25 26  1  0  0  0  0
 27 26  1  0  0  0  0
 28 31  1  6  0  0  0
 28 37  1  0  0  0  0
 28 40  1  0  0  0  0
 29 41  2  0  0  0  0
 29 36  1  0  0  0  0
 30 36  1  0  0  0  0
 31 35  1  0  0  0  0
 32 40  1  0  0  0  0
 32 33  2  0  0  0  0
 34 30  1  0  0  0  0
 34 27  1  1  0  0  0
 35 42  1  6  0  0  0
 35 38  1  0  0  0  0
 38 39  1  1  0  0  0
 38 32  1  0  0  0  0
 39 29  1  0  0  0  0
 40 37  1  1  0  0  0
 40 34  1  0  0  0  0
 43 42  2  0  0  0  0
 44 48  2  0  0  0  0
 46 44  1  0  0  0  0
 46 51  1  1  0  0  0
 47 45  1  0  0  0  0
 48 45  1  0  0  0  0
 48 43  1  0  0  0  0
 49 46  1  0  0  0  0
 49 47  1  0  0  0  0
 50 52  1  0  0  0  0
 50 51  1  0  0  0  0
 52 51  1  0  0  0  0
 53 54  1  0  0  0  0
 54 55  2  0  0  0  0
 56 54  1  6  0  0  0
 56 60  1  0  0  0  0
 57 60  1  0  0  0  0
 59 61  1  0  0  0  0
 59 56  1  0  0  0  0
 61 57  1  0  0  0  0
 61 58  1  1  0  0  0
M  END
>  <MODEL>
1

>  <REMARK>
 VINA RESULT:      -7.0      0.000      0.000
  Name = 
  17 active torsions:
  status: ('A' for Active; 'I' for Inactive)
    1  A    between atoms: C_1  and  C_43
    2  A    between atoms: C_1  and  N_49
    3  A    between atoms: C_2  and  C_19
    4  A    between atoms: C_5  and  C_9
    5  A    between atoms: C_5  and  C_44
    6  A    between atoms: N_8  and  N_35
    7  A    between atoms: C_12  and  C_45
    8  A    between atoms: C_16  and  C_30
    9  A    between atoms: C_16  and  N_49
   10  A    between atoms: C_23  and  C_52
   11  A    between atoms: C_24  and  N_35
   12  A    between atoms: C_25  and  C_29
   13  A    between atoms: C_30  and  C_40
   14  A    between atoms: C_33  and  C_43
   15  A    between atoms: C_33  and  C_52
   16  A    between atoms: C_44  and  N_49
   17  A    between atoms: C_48  and  C_51
                            x       y       z     vdW  Elec       q    Type
                         _______ _______ _______ _____ _____    ______ ____

>  <TORSDO>
F 17

$$$$
=
 OpenBabel11062423003D

 61 68  0  0  1  0  0  0  0  0999 V2000
  194.7110  170.5950  140.0240 N   0  0  0  0  0  0  0  0  0  0  0  0
  195.1620  171.3700  141.1830 C   0  0  0  0  0  2  0  0  0  0  0  0
  196.1600  172.4360  140.7540 C   0  0  2  0  0  3  0  0  0  0  0  0
  197.4520  172.0850  141.1530 O   0  0  0  0  0  1  0  0  0  0  0  0
  196.8210  174.9580  139.2480 N   0  0  0  0  0  2  0  0  0  0  0  0
  196.1390  175.0000  143.4460 C   0  0  0  0  0  3  0  0  0  0  0  0
  197.1900  177.4860  143.5070 Cl  0  0  0  0  0  0  0  0  0  0  0  0
  195.9190  173.8470  142.8060 C   0  0  0  0  0  3  0  0  0  0  0  0
  196.4790  174.9700  140.6380 C   0  0  0  0  0  0  0  0  0  0  0  0
  196.1850  176.2810  142.6680 C   0  0  1  0  0  3  0  0  0  0  0  0
  196.6850  176.0660  141.3080 N   0  0  0  0  0  0  0  0  0  0  0  0
  195.7510  173.8090  141.3040 C   0  0  1  0  0  3  0  0  0  0  0  0
  196.4340  173.9320  138.3760 N   0  0  0  0  0  2  0  0  0  0  0  0
  193.7450  175.0890  135.9950 C   0  0  0  0  0  0  0  0  0  0  0  0
  194.2770  174.5980  134.7950 C   0  0  0  0  0  3  0  0  0  0  0  0
  195.6790  174.1770  137.1840 C   0  0  0  0  0  0  0  0  0  0  0  0
  195.4860  173.9030  134.7830 C   0  0  0  0  0  3  0  0  0  0  0  0
  196.1810  173.6910  135.9730 C   0  0  0  0  0  3  0  0  0  0  0  0
  193.9450  175.3280  138.3760 F   0  0  0  0  0  0  0  0  0  0  0  0
  194.4540  174.8770  137.1990 C   0  0  0  0  0  0  0  0  0  0  0  0
  192.4530  175.8070  135.9570 C   0  0  0  0  0  0  0  0  0  0  0  0
  191.2860  175.1600  136.3510 O   0  0  0  0  0  1  0  0  0  0  0  0
  192.3870  177.0100  135.5870 O   0  0  0  0  0  0  0  0  0  0  0  0
  193.9760  169.3820  140.4060 C   0  0  0  0  0  2  0  0  0  0  0  0
  193.0920  169.5600  141.6370 C   0  0  0  0  0  2  0  0  0  0  0  0
  191.6410  169.5740  141.2140 C   0  0  0  0  0  2  0  0  0  0  0  0
  190.8450  170.4360  142.1720 C   0  0  0  0  0  2  0  0  0  0  0  0
  192.5000  173.6280  143.5570 C   0  0  1  0  0  3  0  0  0  0  0  0
  188.5690  174.1330  142.1090 C   0  0  0  0  0  0  0  0  0  0  0  0
  190.3230  172.6760  141.1610 C   0  0  0  0  0  2  0  0  0  0  0  0
  192.2970  174.5910  144.7360 C   0  0  0  0  0  2  0  0  0  0  0  0
  190.2050  172.8450  144.2800 C   0  0  0  0  0  0  0  0  0  0  0  0
  189.5430  171.8800  144.9170 C   0  0  0  0  0  2  0  0  0  0  0  0
  191.2730  171.8970  142.0710 C   0  0  1  0  0  3  0  0  0  0  0  0
  190.8840  175.1890  144.8390 C   0  0  1  0  0  3  0  0  0  0  0  0
  188.9010  172.7330  141.7130 C   0  0  0  0  0  2  0  0  0  0  0  0
  192.7230  172.2500  144.1690 C   0  0  0  0  0  2  0  0  0  0  0  0
  189.7440  174.2720  144.3660 C   0  0  1  0  0  3  0  0  0  0  0  0
  189.2410  174.8100  143.1350 O   0  0  0  0  0  0  0  0  0  0  0  0
  191.4240  172.5460  143.4550 C   0  0  1  0  0  0  0  0  0  0  0  0
  187.7260  174.7640  141.4180 O   0  0  0  0  0  0  0  0  0  0  0  0
  190.6380  175.6340  146.2430 C   0  0  0  0  0  3  0  0  0  0  0  0
  189.6060  176.3890  146.6330 C   0  0  0  0  0  3  0  0  0  0  0  0
  187.3000  176.6880  146.1050 N   0  0  0  0  0  0  0  0  0  0  0  0
  188.8290  177.5910  144.5800 O   0  0  0  0  0  0  0  0  0  0  0  0
  186.1530  177.1660  145.3270 C   0  0  2  0  0  3  0  0  0  0  0  0
  187.8150  178.2220  143.8020 C   0  0  0  0  0  2  0  0  0  0  0  0
  188.5350  176.9090  145.7670 C   0  0  0  0  0  0  0  0  0  0  0  0
  186.5310  177.4050  143.8630 C   0  0  0  0  0  2  0  0  0  0  0  0
  184.3010  178.0800  146.6970 C   0  0  0  0  0  2  0  0  0  0  0  0
  185.5790  178.4280  145.9580 C   0  0  0  0  0  3  0  0  0  0  0  0
  184.2320  178.7340  145.3330 C   0  0  0  0  0  2  0  0  0  0  0  0
  193.9810  171.4070  139.0330 C   0  0  0  0  0  2  0  0  0  0  0  0
  194.0630  170.8970  137.6140 C   0  0  0  0  0  0  0  0  0  0  0  0
  195.1440  170.6230  137.1230 O   0  0  0  0  0  0  0  0  0  0  0  0
  192.8170  170.5890  136.8370 C   0  0  1  0  0  3  0  0  0  0  0  0
  191.6410  171.9450  135.1840 C   0  0  0  0  0  2  0  0  0  0  0  0
  189.8560  170.6130  136.0090 O   0  0  0  0  0  1  0  0  0  0  0  0
  191.6090  171.2360  137.4850 C   0  0  0  0  0  2  0  0  0  0  0  0
  192.8870  171.1070  135.4110 C   0  0  0  0  0  2  0  0  0  0  0  0
  190.7100  171.6640  136.3450 C   0  0  1  0  0  3  0  0  0  0  0  0
  1 24  1  0  0  0  0
  1  2  1  0  0  0  0
  3  4  1  1  0  0  0
  3  2  1  0  0  0  0
  5  9  1  0  0  0  0
  8  6  2  0  0  0  0
  9 12  1  0  0  0  0
  9 11  2  0  0  0  0
 10  6  1  0  0  0  0
 10  7  1  1  0  0  0
 11 10  1  0  0  0  0
 12  3  1  6  0  0  0
 12  8  1  0  0  0  0
 13  5  1  0  0  0  0
 14 20  1  0  0  0  0
 15 14  2  0  0  0  0
 16 20  2  0  0  0  0
 16 13  1  0  0  0  0
 17 15  1  0  0  0  0
 17 18  2  0  0  0  0
 18 16  1  0  0  0  0
 20 19  1  0  0  0  0
 21 14  1  0  0  0  0
 21 22  1  0  0  0  0
 23 21  2  0  0  0  0
 24 25  1  0  0  0  0
 26 25  1  0  0  0  0
 26 27  1  0  0  0  0
 28 37  1  1  0  0  0
 28 31  1  0  0  0  0
 29 39  1  0  0  0  0
 30 36  1  0  0  0  0
 30 34  1  0  0  0  0
 31 35  1  0  0  0  0
 32 38  1  0  0  0  0
 32 33  2  0  0  0  0
 34 27  1  1  0  0  0
 34 40  1  0  0  0  0
 35 42  1  1  0  0  0
 36 29  1  0  0  0  0
 38 39  1  6  0  0  0
 38 35  1  0  0  0  0
 40 28  1  0  0  0  0
 40 37  1  1  0  0  0
 40 32  1  0  0  0  0
 41 29  2  0  0  0  0
 42 43  2  0  0  0  0
 45 48  1  0  0  0  0
 46 51  1  1  0  0  0
 46 44  1  0  0  0  0
 47 49  1  0  0  0  0
 47 45  1  0  0  0  0
 48 44  2  0  0  0  0
 48 43  1  0  0  0  0
 49 46  1  0  0  0  0
 51 50  1  0  0  0  0
 52 51  1  0  0  0  0
 52 50  1  0  0  0  0
 53  1  1  0  0  0  0
 54 53  1  0  0  0  0
 55 54  2  0  0  0  0
 56 59  1  0  0  0  0
 56 54  1  1  0  0  0
 57 60  1  0  0  0  0
 57 61  1  0  0  0  0
 60 56  1  0  0  0  0
 61 58  1  6  0  0  0
 61 59  1  0  0  0  0
M  END
>  <MODEL>
2

>  <REMARK>
 VINA RESULT:      -6.6      3.193      9.709
  Name = 
  17 active torsions:
  status: ('A' for Active; 'I' for Inactive)
    1  A    between atoms: C_1  and  C_43
    2  A    between atoms: C_1  and  N_49
    3  A    between atoms: C_2  and  C_19
    4  A    between atoms: C_5  and  C_9
    5  A    between atoms: C_5  and  C_44
    6  A    between atoms: N_8  and  N_35
    7  A    between atoms: C_12  and  C_45
    8  A    between atoms: C_16  and  C_30
    9  A    between atoms: C_16  and  N_49
   10  A    between atoms: C_23  and  C_52
   11  A    between atoms: C_24  and  N_35
   12  A    between atoms: C_25  and  C_29
   13  A    between atoms: C_30  and  C_40
   14  A    between atoms: C_33  and  C_43
   15  A    between atoms: C_33  and  C_52
   16  A    between atoms: C_44  and  N_49
   17  A    between atoms: C_48  and  C_51
                            x       y       z     vdW  Elec       q    Type
                         _______ _______ _______ _____ _____    ______ ____

>  <TORSDO>
F 17

$$$$
=
 OpenBabel11062423003D

 61 68  0  0  1  0  0  0  0  0999 V2000
  193.3540  169.5680  140.9390 N   0  0  0  0  0  0  0  0  0  0  0  0
  194.2010  169.6230  142.1330 C   0  0  0  0  0  2  0  0  0  0  0  0
  195.3170  170.6420  141.9460 C   0  0  2  0  0  3  0  0  0  0  0  0
  196.5640  170.0130  141.9750 O   0  0  0  0  0  1  0  0  0  0  0  0
  196.9680  173.1490  141.7130 N   0  0  0  0  0  2  0  0  0  0  0  0
  195.4870  171.8140  145.4710 C   0  0  0  0  0  3  0  0  0  0  0  0
  197.1750  173.5560  146.6580 Cl  0  0  0  0  0  0  0  0  0  0  0  0
  195.0800  171.1480  144.3860 C   0  0  0  0  0  3  0  0  0  0  0  0
  196.3690  172.7450  142.9490 C   0  0  0  0  0  0  0  0  0  0  0  0
  196.0580  173.1940  145.3210 C   0  0  1  0  0  3  0  0  0  0  0  0
  196.7410  173.3560  144.0360 N   0  0  0  0  0  0  0  0  0  0  0  0
  195.2180  171.7490  143.0040 C   0  0  1  0  0  3  0  0  0  0  0  0
  196.4880  172.7380  140.4620 N   0  0  0  0  0  2  0  0  0  0  0  0
  195.3560  174.7100  137.4510 C   0  0  0  0  0  0  0  0  0  0  0  0
  194.2190  175.3230  137.9950 C   0  0  0  0  0  3  0  0  0  0  0  0
  195.7430  173.6050  139.5990 C   0  0  0  0  0  0  0  0  0  0  0  0
  193.8480  175.0900  139.3190 C   0  0  0  0  0  3  0  0  0  0  0  0
  194.6090  174.2370  140.1170 C   0  0  0  0  0  3  0  0  0  0  0  0
  197.2400  173.2540  137.7580 F   0  0  0  0  0  0  0  0  0  0  0  0
  196.1230  173.8430  138.2610 C   0  0  0  0  0  0  0  0  0  0  0  0
  195.7150  175.0020  136.0470 C   0  0  0  0  0  0  0  0  0  0  0  0
  196.1440  173.9760  135.2110 O   0  0  0  0  0  0  0  0  0  0  0  0
  195.6250  176.1700  135.5810 O   0  0  0  0  0  1  0  0  0  0  0  0
  191.9520  169.8950  141.2250 C   0  0  0  0  0  2  0  0  0  0  0  0
  191.7760  170.9850  142.2790 C   0  0  0  0  0  2  0  0  0  0  0  0
  191.7630  172.3370  141.6040 C   0  0  0  0  0  2  0  0  0  0  0  0
  190.3340  172.8260  141.4840 C   0  0  0  0  0  2  0  0  0  0  0  0
  191.4000  176.2290  142.9460 C   0  0  1  0  0  3  0  0  0  0  0  0
  187.2370  175.5440  142.8530 C   0  0  0  0  0  0  0  0  0  0  0  0
  188.8920  174.8570  141.1530 C   0  0  0  0  0  2  0  0  0  0  0  0
  191.3540  176.9450  144.3040 C   0  0  0  0  0  2  0  0  0  0  0  0
  189.8110  174.6590  144.1340 C   0  0  0  0  0  0  0  0  0  0  0  0
  189.7060  173.4700  144.7260 C   0  0  0  0  0  2  0  0  0  0  0  0
  190.2740  174.3490  141.5640 C   0  0  1  0  0  3  0  0  0  0  0  0
  189.9550  177.0250  144.9380 C   0  0  1  0  0  3  0  0  0  0  0  0
  187.7900  174.3820  142.0980 C   0  0  0  0  0  2  0  0  0  0  0  0
  192.1960  174.9490  143.1680 C   0  0  0  0  0  2  0  0  0  0  0  0
  189.0270  175.8350  144.6430 C   0  0  1  0  0  3  0  0  0  0  0  0
  188.0020  176.2970  143.7520 O   0  0  0  0  0  0  0  0  0  0  0  0
  190.7030  174.8670  142.9450 C   0  0  1  0  0  0  0  0  0  0  0  0
  186.0670  175.9260  142.5850 O   0  0  0  0  0  0  0  0  0  0  0  0
  190.0930  177.2190  146.4120 C   0  0  0  0  0  3  0  0  0  0  0  0
  189.0740  177.4340  147.2500 C   0  0  0  0  0  3  0  0  0  0  0  0
  187.1790  178.6490  146.4620 N   0  0  0  0  0  0  0  0  0  0  0  0
  186.8020  176.4090  147.0240 O   0  0  0  0  0  0  0  0  0  0  0  0
  185.7830  178.8450  146.0590 C   0  0  2  0  0  3  0  0  0  0  0  0
  185.4590  176.4240  146.5450 C   0  0  0  0  0  2  0  0  0  0  0  0
  187.6500  177.5140  146.8840 C   0  0  0  0  0  0  0  0  0  0  0  0
  184.8620  177.8140  146.7180 C   0  0  0  0  0  2  0  0  0  0  0  0
  185.2150  180.1540  144.0330 C   0  0  0  0  0  2  0  0  0  0  0  0
  185.6630  178.7970  144.5420 C   0  0  0  0  0  3  0  0  0  0  0  0
  184.2160  179.0210  144.1450 C   0  0  0  0  0  2  0  0  0  0  0  0
  193.8940  170.3460  139.8090 C   0  0  0  0  0  2  0  0  0  0  0  0
  193.5900  169.7750  138.4450 C   0  0  0  0  0  0  0  0  0  0  0  0
  194.0140  168.6760  138.1330 O   0  0  0  0  0  0  0  0  0  0  0  0
  192.6540  170.4820  137.5090 C   0  0  1  0  0  3  0  0  0  0  0  0
  191.4010  172.5500  137.8350 C   0  0  0  0  0  2  0  0  0  0  0  0
  190.0190  171.4450  136.2500 O   0  0  0  0  0  1  0  0  0  0  0  0
  191.2120  170.1500  137.8420 C   0  0  0  0  0  2  0  0  0  0  0  0
  192.7920  171.9930  137.5920 C   0  0  0  0  0  2  0  0  0  0  0  0
  190.4270  171.4170  137.5840 C   0  0  1  0  0  3  0  0  0  0  0  0
  1 24  1  0  0  0  0
  1  2  1  0  0  0  0
  3  4  1  1  0  0  0
  3  2  1  0  0  0  0
  5  9  1  0  0  0  0
  8  6  2  0  0  0  0
  9 12  1  0  0  0  0
  9 11  2  0  0  0  0
 10  6  1  0  0  0  0
 10  7  1  1  0  0  0
 11 10  1  0  0  0  0
 12  3  1  6  0  0  0
 12  8  1  0  0  0  0
 13  5  1  0  0  0  0
 14 15  2  0  0  0  0
 14 20  1  0  0  0  0
 15 17  1  0  0  0  0
 16 18  1  0  0  0  0
 16 13  1  0  0  0  0
 17 18  2  0  0  0  0
 19 20  1  0  0  0  0
 20 16  2  0  0  0  0
 21 14  1  0  0  0  0
 22 21  2  0  0  0  0
 23 21  1  0  0  0  0
 24 25  1  0  0  0  0
 26 25  1  0  0  0  0
 27 26  1  0  0  0  0
 28 37  1  1  0  0  0
 28 31  1  0  0  0  0
 29 39  1  0  0  0  0
 30 34  1  0  0  0  0
 30 36  1  0  0  0  0
 31 35  1  0  0  0  0
 32 38  1  0  0  0  0
 32 33  2  0  0  0  0
 34 27  1  1  0  0  0
 34 40  1  0  0  0  0
 35 42  1  1  0  0  0
 36 29  1  0  0  0  0
 38 39  1  6  0  0  0
 38 35  1  0  0  0  0
 40 28  1  0  0  0  0
 40 37  1  1  0  0  0
 40 32  1  0  0  0  0
 41 29  2  0  0  0  0
 42 43  2  0  0  0  0
 44 48  2  0  0  0  0
 46 51  1  6  0  0  0
 46 44  1  0  0  0  0
 46 49  1  0  0  0  0
 47 49  1  0  0  0  0
 47 45  1  0  0  0  0
 48 45  1  0  0  0  0
 48 43  1  0  0  0  0
 50 52  1  0  0  0  0
 50 51  1  0  0  0  0
 52 51  1  0  0  0  0
 53  1  1  0  0  0  0
 54 53  1  0  0  0  0
 55 54  2  0  0  0  0
 56 60  1  0  0  0  0
 56 59  1  0  0  0  0
 56 54  1  1  0  0  0
 60 57  1  0  0  0  0
 61 58  1  6  0  0  0
 61 57  1  0  0  0  0
 61 59  1  0  0  0  0
M  END
>  <MODEL>
3

>  <REMARK>
 VINA RESULT:      -6.5      3.683     10.153
  Name = 
  17 active torsions:
  status: ('A' for Active; 'I' for Inactive)
    1  A    between atoms: C_1  and  C_43
    2  A    between atoms: C_1  and  N_49
    3  A    between atoms: C_2  and  C_19
    4  A    between atoms: C_5  and  C_9
    5  A    between atoms: C_5  and  C_44
    6  A    between atoms: N_8  and  N_35
    7  A    between atoms: C_12  and  C_45
    8  A    between atoms: C_16  and  C_30
    9  A    between atoms: C_16  and  N_49
   10  A    between atoms: C_23  and  C_52
   11  A    between atoms: C_24  and  N_35
   12  A    between atoms: C_25  and  C_29
   13  A    between atoms: C_30  and  C_40
   14  A    between atoms: C_33  and  C_43
   15  A    between atoms: C_33  and  C_52
   16  A    between atoms: C_44  and  N_49
   17  A    between atoms: C_48  and  C_51
                            x       y       z     vdW  Elec       q    Type
                         _______ _______ _______ _____ _____    ______ ____

>  <TORSDO>
F 17

$$$$
=
 OpenBabel11062423003D

 61 68  0  0  1  0  0  0  0  0999 V2000
  195.1500  174.7810  141.0420 N   0  0  0  0  0  0  0  0  0  0  0  0
  196.3010  173.9270  141.3440 C   0  0  0  0  0  2  0  0  0  0  0  0
  197.1840  173.7710  140.1140 C   0  0  2  0  0  3  0  0  0  0  0  0
  197.6150  175.0200  139.6600 O   0  0  0  0  0  1  0  0  0  0  0  0
  197.8530  170.8900  139.5510 N   0  0  0  0  0  2  0  0  0  0  0  0
  196.0610  173.3670  136.5930 C   0  0  0  0  0  3  0  0  0  0  0  0
  196.6820  171.4830  134.7610 Cl  0  0  0  0  0  0  0  0  0  0  0  0
  196.1940  173.8830  137.8190 C   0  0  0  0  0  3  0  0  0  0  0  0
  197.1500  171.7060  138.6080 C   0  0  0  0  0  0  0  0  0  0  0  0
  196.1290  171.8800  136.4050 C   0  0  1  0  0  3  0  0  0  0  0  0
  197.0050  171.2520  137.3970 N   0  0  0  0  0  0  0  0  0  0  0  0
  196.4460  172.9940  139.0160 C   0  0  1  0  0  3  0  0  0  0  0  0
  197.8710  171.1560  140.9260 N   0  0  0  0  0  2  0  0  0  0  0  0
  195.8940  170.3650  144.0410 C   0  0  0  0  0  0  0  0  0  0  0  0
  195.0970  169.3240  143.5470 C   0  0  0  0  0  3  0  0  0  0  0  0
  196.9420  170.5610  141.8390 C   0  0  0  0  0  0  0  0  0  0  0  0
  195.2180  168.9010  142.2230 C   0  0  0  0  0  3  0  0  0  0  0  0
  196.1390  169.5150  141.3760 C   0  0  0  0  0  3  0  0  0  0  0  0
  197.6210  171.9850  143.6450 F   0  0  0  0  0  0  0  0  0  0  0  0
  196.8240  170.9880  143.1790 C   0  0  0  0  0  0  0  0  0  0  0  0
  195.7380  170.7660  145.4560 C   0  0  0  0  0  0  0  0  0  0  0  0
  196.8390  171.2180  146.1770 O   0  0  0  0  0  1  0  0  0  0  0  0
  194.6140  170.7230  146.0240 O   0  0  0  0  0  0  0  0  0  0  0  0
  193.8710  174.0670  141.1540 C   0  0  0  0  0  2  0  0  0  0  0  0
  193.9950  172.6750  141.7660 C   0  0  0  0  0  2  0  0  0  0  0  0
  192.6160  172.1380  142.0730 C   0  0  0  0  0  2  0  0  0  0  0  0
  192.1240  172.7280  143.3790 C   0  0  0  0  0  2  0  0  0  0  0  0
  188.8000  173.7910  141.7440 C   0  0  1  0  0  3  0  0  0  0  0  0
  189.4490  175.3030  145.6300 C   0  0  0  0  0  0  0  0  0  0  0  0
  190.0700  173.0670  144.7860 C   0  0  0  0  0  2  0  0  0  0  0  0
  188.1470  175.0860  141.2400 C   0  0  0  0  0  2  0  0  0  0  0  0
  190.4110  175.4430  142.7830 C   0  0  0  0  0  0  0  0  0  0  0  0
  191.6260  175.9810  142.6780 C   0  0  0  0  0  2  0  0  0  0  0  0
  190.6070  172.8850  143.3650 C   0  0  1  0  0  3  0  0  0  0  0  0
  188.0850  176.2190  142.2790 C   0  0  1  0  0  3  0  0  0  0  0  0
  190.5800  174.3480  145.4430 C   0  0  0  0  0  2  0  0  0  0  0  0
  190.0950  173.6340  140.9560 C   0  0  0  0  0  2  0  0  0  0  0  0
  189.2540  176.2630  143.2770 C   0  0  1  0  0  3  0  0  0  0  0  0
  188.7440  175.8620  144.5560 O   0  0  0  0  0  0  0  0  0  0  0  0
  190.1560  174.0080  142.4200 C   0  0  1  0  0  0  0  0  0  0  0  0
  189.0470  175.5290  146.8020 O   0  0  0  0  0  0  0  0  0  0  0  0
  187.9610  177.5280  141.5730 C   0  0  0  0  0  3  0  0  0  0  0  0
  187.1820  178.5390  141.9740 C   0  0  0  0  0  3  0  0  0  0  0  0
  186.3630  177.5320  143.9740 N   0  0  0  0  0  0  0  0  0  0  0  0
  185.4400  179.6090  143.4170 O   0  0  0  0  0  0  0  0  0  0  0  0
  185.5600  177.4370  145.1980 C   0  0  2  0  0  3  0  0  0  0  0  0
  184.7030  179.7060  144.6330 C   0  0  0  0  0  2  0  0  0  0  0  0
  186.3210  178.5500  143.1680 C   0  0  0  0  0  0  0  0  0  0  0  0
  184.3090  178.3160  145.1140 C   0  0  0  0  0  2  0  0  0  0  0  0
  186.0810  176.8540  147.5500 C   0  0  0  0  0  2  0  0  0  0  0  0
  186.4070  177.8020  146.4100 C   0  0  0  0  0  3  0  0  0  0  0  0
  185.4990  178.2520  147.5390 C   0  0  0  0  0  2  0  0  0  0  0  0
  195.1550  176.0470  141.7960 C   0  0  0  0  0  2  0  0  0  0  0  0
  196.2190  176.1440  142.8640 C   0  0  0  0  0  0  0  0  0  0  0  0
  197.3530  176.4770  142.5690 O   0  0  0  0  0  0  0  0  0  0  0  0
  195.8690  175.9710  144.3130 C   0  0  1  0  0  3  0  0  0  0  0  0
  194.4130  174.3250  145.3730 C   0  0  0  0  0  2  0  0  0  0  0  0
  194.2560  176.1140  146.9260 O   0  0  0  0  0  1  0  0  0  0  0  0
  194.5290  176.6090  144.6200 C   0  0  0  0  0  2  0  0  0  0  0  0
  195.7650  174.5070  144.7060 C   0  0  0  0  0  2  0  0  0  0  0  0
  193.8710  175.7120  145.6470 C   0  0  1  0  0  3  0  0  0  0  0  0
  1 24  1  0  0  0  0
  1  2  1  0  0  0  0
  1 53  1  0  0  0  0
  3  4  1  6  0  0  0
  3  2  1  0  0  0  0
  5 13  1  0  0  0  0
  6  8  2  0  0  0  0
  8 12  1  0  0  0  0
  9 12  1  0  0  0  0
  9  5  1  0  0  0  0
 10  7  1  6  0  0  0
 10  6  1  0  0  0  0
 10 11  1  0  0  0  0
 11  9  2  0  0  0  0
 12  3  1  1  0  0  0
 13 16  1  0  0  0  0
 14 21  1  0  0  0  0
 15 14  1  0  0  0  0
 16 20  1  0  0  0  0
 17 15  2  0  0  0  0
 18 16  2  0  0  0  0
 18 17  1  0  0  0  0
 20 19  1  0  0  0  0
 20 14  2  0  0  0  0
 21 23  2  0  0  0  0
 21 22  1  0  0  0  0
 24 25  1  0  0  0  0
 25 26  1  0  0  0  0
 26 27  1  0  0  0  0
 28 37  1  6  0  0  0
 28 40  1  0  0  0  0
 29 41  2  0  0  0  0
 30 36  1  0  0  0  0
 31 28  1  0  0  0  0
 31 35  1  0  0  0  0
 33 32  2  0  0  0  0
 34 27  1  1  0  0  0
 34 30  1  0  0  0  0
 35 42  1  6  0  0  0
 35 38  1  0  0  0  0
 36 29  1  0  0  0  0
 38 32  1  6  0  0  0
 38 39  1  0  0  0  0
 39 29  1  0  0  0  0
 40 37  1  6  0  0  0
 40 32  1  0  0  0  0
 40 34  1  0  0  0  0
 42 43  2  0  0  0  0
 43 48  1  0  0  0  0
 44 46  1  0  0  0  0
 45 47  1  0  0  0  0
 46 51  1  1  0  0  0
 47 49  1  0  0  0  0
 48 45  1  0  0  0  0
 48 44  2  0  0  0  0
 49 46  1  0  0  0  0
 51 52  1  0  0  0  0
 51 50  1  0  0  0  0
 52 50  1  0  0  0  0
 53 54  1  0  0  0  0
 55 54  2  0  0  0  0
 56 54  1  6  0  0  0
 56 59  1  0  0  0  0
 56 60  1  0  0  0  0
 57 61  1  0  0  0  0
 59 61  1  0  0  0  0
 60 57  1  0  0  0  0
 61 58  1  1  0  0  0
M  END
>  <MODEL>
4

>  <REMARK>
 VINA RESULT:      -6.5      2.984      9.380
  Name = 
  17 active torsions:
  status: ('A' for Active; 'I' for Inactive)
    1  A    between atoms: C_1  and  C_43
    2  A    between atoms: C_1  and  N_49
    3  A    between atoms: C_2  and  C_19
    4  A    between atoms: C_5  and  C_9
    5  A    between atoms: C_5  and  C_44
    6  A    between atoms: N_8  and  N_35
    7  A    between atoms: C_12  and  C_45
    8  A    between atoms: C_16  and  C_30
    9  A    between atoms: C_16  and  N_49
   10  A    between atoms: C_23  and  C_52
   11  A    between atoms: C_24  and  N_35
   12  A    between atoms: C_25  and  C_29
   13  A    between atoms: C_30  and  C_40
   14  A    between atoms: C_33  and  C_43
   15  A    between atoms: C_33  and  C_52
   16  A    between atoms: C_44  and  N_49
   17  A    between atoms: C_48  and  C_51
                            x       y       z     vdW  Elec       q    Type
                         _______ _______ _______ _____ _____    ______ ____

>  <TORSDO>
F 17

$$$$
=
 OpenBabel11062423003D

 61 68  0  0  1  0  0  0  0  0999 V2000
  193.3890  171.1360  138.5750 N   0  0  0  0  0  0  0  0  0  0  0  0
  193.4810  172.5780  138.8160 C   0  0  0  0  0  2  0  0  0  0  0  0
  194.9300  172.9900  139.0330 C   0  0  2  0  0  3  0  0  0  0  0  0
  195.6880  171.8990  139.4660 O   0  0  0  0  0  1  0  0  0  0  0  0
  197.1420  175.0220  138.8190 N   0  0  0  0  0  2  0  0  0  0  0  0
  195.1020  174.3460  142.4900 C   0  0  0  0  0  3  0  0  0  0  0  0
  197.0580  175.7320  143.7330 Cl  0  0  0  0  0  0  0  0  0  0  0  0
  194.6330  173.7150  141.4090 C   0  0  0  0  0  3  0  0  0  0  0  0
  196.3700  174.8600  140.0140 C   0  0  0  0  0  0  0  0  0  0  0  0
  195.9930  175.5410  142.3200 C   0  0  1  0  0  3  0  0  0  0  0  0
  196.7920  175.4460  141.0970 N   0  0  0  0  0  0  0  0  0  0  0  0
  195.0150  174.1640  140.0160 C   0  0  1  0  0  3  0  0  0  0  0  0
  196.6760  174.6420  137.5530 N   0  0  0  0  0  2  0  0  0  0  0  0
  194.6610  176.9900  135.3930 C   0  0  0  0  0  0  0  0  0  0  0  0
  195.6800  177.4580  134.5530 C   0  0  0  0  0  3  0  0  0  0  0  0
  196.3040  175.5950  136.5510 C   0  0  0  0  0  0  0  0  0  0  0  0
  196.9900  177.0040  134.7010 C   0  0  0  0  0  3  0  0  0  0  0  0
  197.2990  176.0740  135.6930 C   0  0  0  0  0  3  0  0  0  0  0  0
  193.9980  175.5690  137.2110 F   0  0  0  0  0  0  0  0  0  0  0  0
  194.9760  176.0510  136.4000 C   0  0  0  0  0  0  0  0  0  0  0  0
  193.2850  177.4920  135.1850 C   0  0  0  0  0  0  0  0  0  0  0  0
  192.1980  176.6540  135.4090 O   0  0  0  0  0  1  0  0  0  0  0  0
  193.0740  178.6800  134.8220 O   0  0  0  0  0  0  0  0  0  0  0  0
  192.3120  170.5010  139.3450 C   0  0  0  0  0  2  0  0  0  0  0  0
  192.2710  170.9240  140.8110 C   0  0  0  0  0  2  0  0  0  0  0  0
  190.8600  170.7830  141.3340 C   0  0  0  0  0  2  0  0  0  0  0  0
  190.8270  171.1580  142.8010 C   0  0  0  0  0  2  0  0  0  0  0  0
  187.8160  173.4230  141.9910 C   0  0  1  0  0  3  0  0  0  0  0  0
  189.8910  174.4020  145.5320 C   0  0  0  0  0  0  0  0  0  0  0  0
  189.4410  172.1380  144.6540 C   0  0  0  0  0  2  0  0  0  0  0  0
  187.5700  174.8900  141.6090 C   0  0  0  0  0  2  0  0  0  0  0  0
  190.1130  174.3330  142.5320 C   0  0  0  0  0  0  0  0  0  0  0  0
  191.3750  174.4050  142.1100 C   0  0  0  0  0  2  0  0  0  0  0  0
  189.5130  171.8490  143.1540 C   0  0  1  0  0  3  0  0  0  0  0  0
  188.1740  175.9150  142.5830 C   0  0  1  0  0  3  0  0  0  0  0  0
  190.5200  173.1160  145.1130 C   0  0  0  0  0  2  0  0  0  0  0  0
  188.7340  172.8530  140.9160 C   0  0  0  0  0  2  0  0  0  0  0  0
  189.4860  175.4860  143.2620 C   0  0  1  0  0  3  0  0  0  0  0  0
  189.1940  175.2300  144.6420 O   0  0  0  0  0  0  0  0  0  0  0  0
  189.2800  173.1060  142.3030 C   0  0  1  0  0  0  0  0  0  0  0  0
  189.8950  174.6970  146.7560 O   0  0  0  0  0  0  0  0  0  0  0  0
  188.3600  177.2160  141.8760 C   0  0  0  0  0  3  0  0  0  0  0  0
  187.6940  178.3400  142.1600 C   0  0  0  0  0  3  0  0  0  0  0  0
  186.6200  177.6250  144.1660 N   0  0  0  0  0  0  0  0  0  0  0  0
  185.7440  179.5490  143.1620 O   0  0  0  0  0  0  0  0  0  0  0  0
  185.6550  177.6890  145.2680 C   0  0  2  0  0  3  0  0  0  0  0  0
  184.8410  179.8040  144.2350 C   0  0  0  0  0  2  0  0  0  0  0  0
  186.6720  178.5010  143.2080 C   0  0  0  0  0  0  0  0  0  0  0  0
  184.4110  178.4900  144.8750 C   0  0  0  0  0  2  0  0  0  0  0  0
  186.3900  177.2060  147.5850 C   0  0  0  0  0  2  0  0  0  0  0  0
  186.3140  178.2740  146.5100 C   0  0  0  0  0  3  0  0  0  0  0  0
  185.3180  178.2740  147.6540 C   0  0  0  0  0  2  0  0  0  0  0  0
  193.3360  170.7910  137.1430 C   0  0  0  0  0  2  0  0  0  0  0  0
  192.9920  171.9410  136.2270 C   0  0  0  0  0  0  0  0  0  0  0  0
  193.8190  172.3620  135.4370 O   0  0  0  0  0  0  0  0  0  0  0  0
  191.5970  172.4900  136.1750 C   0  0  1  0  0  3  0  0  0  0  0  0
  189.5770  171.5080  135.2220 C   0  0  0  0  0  2  0  0  0  0  0  0
  189.0620  173.8200  135.0530 O   0  0  0  0  0  1  0  0  0  0  0  0
  191.3190  173.1210  134.8240 C   0  0  0  0  0  2  0  0  0  0  0  0
  190.5480  171.4100  136.3840 C   0  0  0  0  0  2  0  0  0  0  0  0
  189.8690  172.8170  134.5170 C   0  0  1  0  0  3  0  0  0  0  0  0
  1  2  1  0  0  0  0
  1 24  1  0  0  0  0
  2  3  1  0  0  0  0
  3  4  1  1  0  0  0
  5  9  1  0  0  0  0
  8  6  2  0  0  0  0
  9 12  1  0  0  0  0
  9 11  2  0  0  0  0
 10  6  1  0  0  0  0
 10  7  1  1  0  0  0
 11 10  1  0  0  0  0
 12  3  1  6  0  0  0
 12  8  1  0  0  0  0
 13  5  1  0  0  0  0
 14 20  1  0  0  0  0
 15 17  1  0  0  0  0
 15 14  2  0  0  0  0
 16 13  1  0  0  0  0
 17 18  2  0  0  0  0
 18 16  1  0  0  0  0
 20 16  2  0  0  0  0
 20 19  1  0  0  0  0
 21 14  1  0  0  0  0
 21 22  1  0  0  0  0
 23 21  2  0  0  0  0
 24 25  1  0  0  0  0
 25 26  1  0  0  0  0
 26 27  1  0  0  0  0
 28 37  1  6  0  0  0
 28 40  1  0  0  0  0
 29 41  2  0  0  0  0
 30 36  1  0  0  0  0
 31 28  1  0  0  0  0
 31 35  1  0  0  0  0
 33 32  2  0  0  0  0
 34 27  1  1  0  0  0
 34 30  1  0  0  0  0
 35 42  1  6  0  0  0
 35 38  1  0  0  0  0
 36 29  1  0  0  0  0
 38 32  1  6  0  0  0
 38 39  1  0  0  0  0
 39 29  1  0  0  0  0
 40 37  1  6  0  0  0
 40 32  1  0  0  0  0
 40 34  1  0  0  0  0
 42 43  2  0  0  0  0
 43 48  1  0  0  0  0
 44 46  1  0  0  0  0
 45 48  1  0  0  0  0
 45 47  1  0  0  0  0
 46 51  1  1  0  0  0
 47 49  1  0  0  0  0
 48 44  2  0  0  0  0
 49 46  1  0  0  0  0
 50 52  1  0  0  0  0
 51 50  1  0  0  0  0
 51 52  1  0  0  0  0
 53  1  1  0  0  0  0
 54 53  1  0  0  0  0
 55 54  2  0  0  0  0
 56 54  1  6  0  0  0
 56 60  1  0  0  0  0
 57 60  1  0  0  0  0
 59 56  1  0  0  0  0
 61 59  1  0  0  0  0
 61 58  1  1  0  0  0
 61 57  1  0  0  0  0
M  END
>  <MODEL>
5

>  <REMARK>
 VINA RESULT:      -6.4      3.194      9.996
  Name = 
  17 active torsions:
  status: ('A' for Active; 'I' for Inactive)
    1  A    between atoms: C_1  and  C_43
    2  A    between atoms: C_1  and  N_49
    3  A    between atoms: C_2  and  C_19
    4  A    between atoms: C_5  and  C_9
    5  A    between atoms: C_5  and  C_44
    6  A    between atoms: N_8  and  N_35
    7  A    between atoms: C_12  and  C_45
    8  A    between atoms: C_16  and  C_30
    9  A    between atoms: C_16  and  N_49
   10  A    between atoms: C_23  and  C_52
   11  A    between atoms: C_24  and  N_35
   12  A    between atoms: C_25  and  C_29
   13  A    between atoms: C_30  and  C_40
   14  A    between atoms: C_33  and  C_43
   15  A    between atoms: C_33  and  C_52
   16  A    between atoms: C_44  and  N_49
   17  A    between atoms: C_48  and  C_51
                            x       y       z     vdW  Elec       q    Type
                         _______ _______ _______ _____ _____    ______ ____

>  <TORSDO>
F 17

$$$$
=
 OpenBabel11062423003D

 61 68  0  0  1  0  0  0  0  0999 V2000
  194.7690  171.3340  138.3130 N   0  0  0  0  0  0  0  0  0  0  0  0
  193.4650  170.8060  138.7230 C   0  0  0  0  0  2  0  0  0  0  0  0
  192.5100  171.9450  139.0500 C   0  0  2  0  0  3  0  0  0  0  0  0
  193.2190  173.0660  139.4900 O   0  0  0  0  0  1  0  0  0  0  0  0
  189.8070  173.2640  139.1850 N   0  0  0  0  0  0  0  0  0  0  0  0
  191.4670  171.2640  142.5530 C   0  0  0  0  0  3  0  0  0  0  0  0
  189.5730  172.4400  144.0770 Cl  0  0  0  0  0  0  0  0  0  0  0  0
  192.1350  171.1690  141.4000 C   0  0  0  0  0  3  0  0  0  0  0  0
  190.3320  172.4920  140.2710 C   0  0  0  0  0  0  0  0  0  0  0  0
  190.0210  171.6650  142.5390 C   0  0  1  0  0  3  0  0  0  0  0  0
  189.7220  172.5600  141.4190 N   0  0  0  0  0  0  0  0  0  0  0  0
  191.4680  171.4950  140.0820 C   0  0  1  0  0  3  0  0  0  0  0  0
  190.2260  173.0980  137.8590 N   0  0  0  0  0  0  0  0  0  0  0  0
  188.6450  175.7230  135.6570 C   0  0  0  0  0  0  0  0  0  0  0  0
  189.7540  176.0540  134.8660 C   0  0  0  0  0  3  0  0  0  0  0  0
  190.0310  174.1020  136.8570 C   0  0  0  0  0  0  0  0  0  0  0  0
  190.9810  175.4200  135.0580 C   0  0  0  0  0  3  0  0  0  0  0  0
  191.1170  174.4470  136.0470 C   0  0  0  0  0  3  0  0  0  0  0  0
  187.7190  174.3900  137.4260 F   0  0  0  0  0  0  0  0  0  0  0  0
  188.7860  174.7390  136.6620 C   0  0  0  0  0  0  0  0  0  0  0  0
  187.3620  176.4130  135.4030 C   0  0  0  0  0  0  0  0  0  0  0  0
  187.3370  177.5760  134.6410 O   0  0  0  0  0  0  0  0  0  0  0  0
  186.2770  175.9560  135.8530 O   0  0  0  0  0  1  0  0  0  0  0  0
  195.8530  170.9280  139.2180 C   0  0  0  0  0  2  0  0  0  0  0  0
  196.5360  172.0960  139.9230 C   0  0  0  0  0  2  0  0  0  0  0  0
  197.6350  171.5690  140.8160 C   0  0  0  0  0  2  0  0  0  0  0  0
  197.4050  172.0460  142.2350 C   0  0  0  0  0  2  0  0  0  0  0  0
  194.2780  174.1910  142.9190 C   0  0  1  0  0  3  0  0  0  0  0  0
  194.9540  171.0760  145.6850 C   0  0  0  0  0  0  0  0  0  0  0  0
  195.3530  171.0090  143.2490 C   0  0  0  0  0  2  0  0  0  0  0  0
  193.7890  175.1740  143.9920 C   0  0  0  0  0  2  0  0  0  0  0  0
  196.0240  173.7040  144.6840 C   0  0  0  0  0  0  0  0  0  0  0  0
  197.2930  173.9070  145.0350 C   0  0  0  0  0  2  0  0  0  0  0  0
  195.9160  172.2250  142.5120 C   0  0  1  0  0  3  0  0  0  0  0  0
  193.8170  174.6210  145.4270 C   0  0  1  0  0  3  0  0  0  0  0  0
  195.9780  170.8230  144.6300 C   0  0  0  0  0  2  0  0  0  0  0  0
  195.5740  174.7730  142.3690 C   0  0  0  0  0  2  0  0  0  0  0  0
  194.9480  173.6240  145.7290 C   0  0  1  0  0  3  0  0  0  0  0  0
  194.3520  172.3270  145.8720 O   0  0  0  0  0  0  0  0  0  0  0  0
  195.6250  173.5420  143.2460 C   0  0  1  0  0  0  0  0  0  0  0  0
  194.5380  170.0970  146.3600 O   0  0  0  0  0  0  0  0  0  0  0  0
  193.8620  175.7600  146.3930 C   0  0  0  0  0  3  0  0  0  0  0  0
  192.7900  176.4230  146.8380 C   0  0  0  0  0  3  0  0  0  0  0  0
  190.8810  176.7950  145.4590 N   0  0  0  0  0  0  0  0  0  0  0  0
  190.6000  175.2710  147.2130 O   0  0  0  0  0  0  0  0  0  0  0  0
  189.5030  176.6040  144.9950 C   0  0  2  0  0  3  0  0  0  0  0  0
  189.2910  174.8940  146.7930 C   0  0  0  0  0  2  0  0  0  0  0  0
  191.3890  176.1570  146.4700 C   0  0  0  0  0  0  0  0  0  0  0  0
  188.6040  176.0720  146.1140 C   0  0  0  0  0  2  0  0  0  0  0  0
  189.1930  176.4900  142.5380 C   0  0  0  0  0  2  0  0  0  0  0  0
  189.4800  175.6770  143.7870 C   0  0  0  0  0  3  0  0  0  0  0  0
  188.0890  175.6760  143.1810 C   0  0  0  0  0  2  0  0  0  0  0  0
  195.0850  171.0620  136.8990 C   0  0  0  0  0  2  0  0  0  0  0  0
  194.6880  172.1590  135.9400 C   0  0  0  0  0  0  0  0  0  0  0  0
  193.5920  172.1400  135.4080 O   0  0  0  0  0  0  0  0  0  0  0  0
  195.5710  173.3550  135.7340 C   0  0  1  0  0  3  0  0  0  0  0  0
  197.8370  173.7680  136.5380 C   0  0  0  0  0  2  0  0  0  0  0  0
  197.0350  175.9930  136.3250 O   0  0  0  0  0  1  0  0  0  0  0  0
  195.5180  174.2730  136.9400 C   0  0  0  0  0  2  0  0  0  0  0  0
  197.0260  172.9650  135.5360 C   0  0  0  0  0  2  0  0  0  0  0  0
  196.9150  174.8340  137.0920 C   0  0  1  0  0  3  0  0  0  0  0  0
  1  2  1  0  0  0  0
  1 24  1  0  0  0  0
  2  3  1  0  0  0  0
  3  4  1  1  0  0  0
  5  9  1  0  0  0  0
  8  6  2  0  0  0  0
  9 11  2  0  0  0  0
 10  6  1  0  0  0  0
 10  7  1  1  0  0  0
 11 10  1  0  0  0  0
 12  3  1  6  0  0  0
 12  9  1  0  0  0  0
 12  8  1  0  0  0  0
 13  5  2  0  0  0  0
 14 20  1  0  0  0  0
 15 17  1  0  0  0  0
 15 14  2  0  0  0  0
 16 13  1  0  0  0  0
 17 18  2  0  0  0  0
 18 16  1  0  0  0  0
 20 16  2  0  0  0  0
 20 19  1  0  0  0  0
 21 14  1  0  0  0  0
 21 23  1  0  0  0  0
 22 21  2  0  0  0  0
 24 25  1  0  0  0  0
 25 26  1  0  0  0  0
 26 27  1  0  0  0  0
 28 37  1  6  0  0  0
 28 40  1  0  0  0  0
 28 31  1  0  0  0  0
 29 39  1  0  0  0  0
 29 41  2  0  0  0  0
 30 36  1  0  0  0  0
 31 35  1  0  0  0  0
 32 33  2  0  0  0  0
 34 27  1  1  0  0  0
 34 40  1  0  0  0  0
 34 30  1  0  0  0  0
 35 38  1  0  0  0  0
 35 42  1  1  0  0  0
 36 29  1  0  0  0  0
 38 32  1  6  0  0  0
 38 39  1  0  0  0  0
 40 37  1  6  0  0  0
 40 32  1  0  0  0  0
 42 43  2  0  0  0  0
 44 48  2  0  0  0  0
 46 51  1  6  0  0  0
 46 44  1  0  0  0  0
 46 49  1  0  0  0  0
 47 45  1  0  0  0  0
 48 43  1  0  0  0  0
 48 45  1  0  0  0  0
 49 47  1  0  0  0  0
 50 52  1  0  0  0  0
 50 51  1  0  0  0  0
 52 51  1  0  0  0  0
 53  1  1  0  0  0  0
 54 53  1  0  0  0  0
 55 54  2  0  0  0  0
 56 54  1  1  0  0  0
 56 59  1  0  0  0  0
 57 61  1  0  0  0  0
 59 61  1  0  0  0  0
 60 56  1  0  0  0  0
 60 57  1  0  0  0  0
 61 58  1  6  0  0  0
M  END
>  <MODEL>
6

>  <REMARK>
 VINA RESULT:      -6.3      3.035      8.169
  Name = 
  17 active torsions:
  status: ('A' for Active; 'I' for Inactive)
    1  A    between atoms: C_1  and  C_43
    2  A    between atoms: C_1  and  N_49
    3  A    between atoms: C_2  and  C_19
    4  A    between atoms: C_5  and  C_9
    5  A    between atoms: C_5  and  C_44
    6  A    between atoms: N_8  and  N_35
    7  A    between atoms: C_12  and  C_45
    8  A    between atoms: C_16  and  C_30
    9  A    between atoms: C_16  and  N_49
   10  A    between atoms: C_23  and  C_52
   11  A    between atoms: C_24  and  N_35
   12  A    between atoms: C_25  and  C_29
   13  A    between atoms: C_30  and  C_40
   14  A    between atoms: C_33  and  C_43
   15  A    between atoms: C_33  and  C_52
   16  A    between atoms: C_44  and  N_49
   17  A    between atoms: C_48  and  C_51
                            x       y       z     vdW  Elec       q    Type
                         _______ _______ _______ _____ _____    ______ ____

>  <TORSDO>
F 17

$$$$
=
 OpenBabel11062423003D

 61 68  0  0  1  0  0  0  0  0999 V2000
  190.7760  173.7800  137.8440 N   0  0  0  0  0  0  0  0  0  0  0  0
  190.4960  172.8620  138.9500 C   0  0  0  0  0  2  0  0  0  0  0  0
  189.0440  172.9880  139.3910 C   0  0  2  0  0  3  0  0  0  0  0  0
  188.1960  173.0090  138.2810 O   0  0  0  0  0  1  0  0  0  0  0  0
  188.3120  172.7230  142.2990 N   0  0  0  0  0  2  0  0  0  0  0  0
  187.4390  176.2640  140.1110 C   0  0  0  0  0  3  0  0  0  0  0  0
  185.8170  177.0130  142.1350 Cl  0  0  0  0  0  0  0  0  0  0  0  0
  188.1660  175.3300  139.4900 C   0  0  0  0  0  3  0  0  0  0  0  0
  188.1280  173.9450  141.5770 C   0  0  0  0  0  0  0  0  0  0  0  0
  187.3320  176.2450  141.6070 C   0  0  1  0  0  3  0  0  0  0  0  0
  187.4170  174.8820  142.1350 N   0  0  0  0  0  0  0  0  0  0  0  0
  188.8550  174.2320  140.2700 C   0  0  1  0  0  3  0  0  0  0  0  0
  189.2370  171.7420  141.9160 N   0  0  0  0  0  2  0  0  0  0  0  0
  192.4840  170.2100  143.0780 C   0  0  0  0  0  0  0  0  0  0  0  0
  192.6750  170.9480  144.2550 C   0  0  0  0  0  3  0  0  0  0  0  0
  190.4110  171.4490  142.6820 C   0  0  0  0  0  0  0  0  0  0  0  0
  191.7520  171.9170  144.6460 C   0  0  0  0  0  3  0  0  0  0  0  0
  190.6240  172.1630  143.8650 C   0  0  0  0  0  3  0  0  0  0  0  0
  191.1280  169.7470  141.1520 F   0  0  0  0  0  0  0  0  0  0  0  0
  191.3420  170.4650  142.2850 C   0  0  0  0  0  0  0  0  0  0  0  0
  193.4840  169.1840  142.7150 C   0  0  0  0  0  0  0  0  0  0  0  0
  193.9410  168.2870  143.6750 O   0  0  0  0  0  1  0  0  0  0  0  0
  193.9240  169.0930  141.5370 O   0  0  0  0  0  0  0  0  0  0  0  0
  192.1800  174.2090  137.8070 C   0  0  0  0  0  2  0  0  0  0  0  0
  192.8920  174.1030  139.1520 C   0  0  0  0  0  2  0  0  0  0  0  0
  194.2090  174.8410  139.0820 C   0  0  0  0  0  2  0  0  0  0  0  0
  194.9440  174.6860  140.3970 C   0  0  0  0  0  2  0  0  0  0  0  0
  192.3050  175.0040  143.1870 C   0  0  1  0  0  3  0  0  0  0  0  0
  195.7620  172.8220  144.2320 C   0  0  0  0  0  0  0  0  0  0  0  0
  194.6120  172.8210  142.0470 C   0  0  0  0  0  2  0  0  0  0  0  0
  192.1850  175.6700  144.5650 C   0  0  0  0  0  2  0  0  0  0  0  0
  194.7470  175.5670  143.5350 C   0  0  0  0  0  0  0  0  0  0  0  0
  195.7250  176.4010  143.1840 C   0  0  0  0  0  2  0  0  0  0  0  0
  194.0240  174.1080  141.4680 C   0  0  1  0  0  3  0  0  0  0  0  0
  193.2980  175.2920  145.5570 C   0  0  1  0  0  3  0  0  0  0  0  0
  195.9360  173.0560  142.7690 C   0  0  0  0  0  2  0  0  0  0  0  0
  192.6010  176.1250  142.1980 C   0  0  0  0  0  2  0  0  0  0  0  0
  194.6760  175.0190  144.9310 C   0  0  1  0  0  3  0  0  0  0  0  0
  194.9220  173.6090  145.0310 O   0  0  0  0  0  0  0  0  0  0  0  0
  193.6910  175.1410  142.5550 C   0  0  1  0  0  0  0  0  0  0  0  0
  196.3080  171.8080  144.7440 O   0  0  0  0  0  0  0  0  0  0  0  0
  193.4080  176.3530  146.6020 C   0  0  0  0  0  3  0  0  0  0  0  0
  192.3870  176.8110  147.3340 C   0  0  0  0  0  3  0  0  0  0  0  0
  190.0680  177.2280  146.9650 N   0  0  0  0  0  0  0  0  0  0  0  0
  190.6400  175.0270  147.5160 O   0  0  0  0  0  0  0  0  0  0  0  0
  188.6460  176.8910  146.8450 C   0  0  2  0  0  3  0  0  0  0  0  0
  189.3180  174.5380  147.3060 C   0  0  0  0  0  2  0  0  0  0  0  0
  190.9880  176.3570  147.2510 C   0  0  0  0  0  0  0  0  0  0  0  0
  188.3040  175.6250  147.6350 C   0  0  0  0  0  2  0  0  0  0  0  0
  187.5890  178.0160  144.9070 C   0  0  0  0  0  2  0  0  0  0  0  0
  188.2630  176.7420  145.3790 C   0  0  0  0  0  3  0  0  0  0  0  0
  186.7540  176.7990  145.2450 C   0  0  0  0  0  2  0  0  0  0  0  0
  190.3070  173.2760  136.5400 C   0  0  0  0  0  2  0  0  0  0  0  0
  191.3260  172.4700  135.7690 C   0  0  0  0  0  0  0  0  0  0  0  0
  192.1690  173.0350  135.0940 O   0  0  0  0  0  0  0  0  0  0  0  0
  191.4070  170.9810  135.9310 C   0  0  1  0  0  3  0  0  0  0  0  0
  190.2520  169.5250  137.5130 C   0  0  0  0  0  2  0  0  0  0  0  0
  192.2070  168.2450  137.0850 O   0  0  0  0  0  1  0  0  0  0  0  0
  192.3510  170.6150  137.0600 C   0  0  0  0  0  2  0  0  0  0  0  0
  190.0580  170.3660  136.2630 C   0  0  0  0  0  2  0  0  0  0  0  0
  191.7470  169.3970  137.7240 C   0  0  1  0  0  3  0  0  0  0  0  0
  1  2  1  0  0  0  0
  2  3  1  0  0  0  0
  3  4  1  6  0  0  0
  6 10  1  0  0  0  0
  8  6  2  0  0  0  0
  8 12  1  0  0  0  0
  9 11  2  0  0  0  0
  9  5  1  0  0  0  0
 10 11  1  0  0  0  0
 10  7  1  6  0  0  0
 12  3  1  6  0  0  0
 12  9  1  0  0  0  0
 13  5  1  0  0  0  0
 13 16  1  0  0  0  0
 14 15  1  0  0  0  0
 15 17  2  0  0  0  0
 16 18  2  0  0  0  0
 18 17  1  0  0  0  0
 19 20  1  0  0  0  0
 20 16  1  0  0  0  0
 20 14  2  0  0  0  0
 21 14  1  0  0  0  0
 21 22  1  0  0  0  0
 23 21  2  0  0  0  0
 24  1  1  0  0  0  0
 24 25  1  0  0  0  0
 26 25  1  0  0  0  0
 26 27  1  0  0  0  0
 28 37  1  6  0  0  0
 28 31  1  0  0  0  0
 29 41  2  0  0  0  0
 29 39  1  0  0  0  0
 30 36  1  0  0  0  0
 31 35  1  0  0  0  0
 33 32  2  0  0  0  0
 34 27  1  6  0  0  0
 34 30  1  0  0  0  0
 34 40  1  0  0  0  0
 35 42  1  1  0  0  0
 36 29  1  0  0  0  0
 38 32  1  6  0  0  0
 38 39  1  0  0  0  0
 38 35  1  0  0  0  0
 40 37  1  6  0  0  0
 40 28  1  0  0  0  0
 40 32  1  0  0  0  0
 42 43  2  0  0  0  0
 44 48  2  0  0  0  0
 46 51  1  6  0  0  0
 46 44  1  0  0  0  0
 46 49  1  0  0  0  0
 47 45  1  0  0  0  0
 47 49  1  0  0  0  0
 48 43  1  0  0  0  0
 48 45  1  0  0  0  0
 50 52  1  0  0  0  0
 50 51  1  0  0  0  0
 52 51  1  0  0  0  0
 53  1  1  0  0  0  0
 54 53  1  0  0  0  0
 55 54  2  0  0  0  0
 56 54  1  1  0  0  0
 56 60  1  0  0  0  0
 56 59  1  0  0  0  0
 57 61  1  0  0  0  0
 59 61  1  0  0  0  0
 60 57  1  0  0  0  0
 61 58  1  6  0  0  0
M  END
>  <MODEL>
7

>  <REMARK>
 VINA RESULT:      -6.2      3.107      8.729
  Name = 
  17 active torsions:
  status: ('A' for Active; 'I' for Inactive)
    1  A    between atoms: C_1  and  C_43
    2  A    between atoms: C_1  and  N_49
    3  A    between atoms: C_2  and  C_19
    4  A    between atoms: C_5  and  C_9
    5  A    between atoms: C_5  and  C_44
    6  A    between atoms: N_8  and  N_35
    7  A    between atoms: C_12  and  C_45
    8  A    between atoms: C_16  and  C_30
    9  A    between atoms: C_16  and  N_49
   10  A    between atoms: C_23  and  C_52
   11  A    between atoms: C_24  and  N_35
   12  A    between atoms: C_25  and  C_29
   13  A    between atoms: C_30  and  C_40
   14  A    between atoms: C_33  and  C_43
   15  A    between atoms: C_33  and  C_52
   16  A    between atoms: C_44  and  N_49
   17  A    between atoms: C_48  and  C_51
                            x       y       z     vdW  Elec       q    Type
                         _______ _______ _______ _____ _____    ______ ____

>  <TORSDO>
F 17

$$$$
=
 OpenBabel11062423003D

 61 68  0  0  1  0  0  0  0  0999 V2000
  189.6180  173.4230  143.3610 N   0  0  0  0  0  0  0  0  0  0  0  0
  189.6460  174.1860  142.1100 C   0  0  0  0  0  2  0  0  0  0  0  0
  188.3030  174.8600  141.8690 C   0  0  2  0  0  3  0  0  0  0  0  0
  187.2600  173.9440  142.0320 O   0  0  0  0  0  1  0  0  0  0  0  0
  186.5890  177.2800  141.3480 N   0  0  0  0  0  0  0  0  0  0  0  0
  187.7840  174.6910  138.1920 C   0  0  0  0  0  3  0  0  0  0  0  0
  185.9380  175.8880  136.6260 Cl  0  0  0  0  0  0  0  0  0  0  0  0
  188.3080  174.4590  139.3990 C   0  0  0  0  0  3  0  0  0  0  0  0
  187.0930  176.4610  140.2870 C   0  0  0  0  0  0  0  0  0  0  0  0
  187.1790  176.0310  137.8930 C   0  0  1  0  0  3  0  0  0  0  0  0
  186.6050  176.6420  139.0930 N   0  0  0  0  0  0  0  0  0  0  0  0
  188.2700  175.5140  140.4820 C   0  0  1  0  0  3  0  0  0  0  0  0
  187.1900  177.3460  142.6120 N   0  0  0  0  0  0  0  0  0  0  0  0
  186.2010  178.3440  146.1140 C   0  0  0  0  0  0  0  0  0  0  0  0
  185.3510  179.4170  145.8130 C   0  0  0  0  0  3  0  0  0  0  0  0
  186.5860  178.0240  143.7190 C   0  0  0  0  0  0  0  0  0  0  0  0
  185.1140  179.7890  144.4900 C   0  0  0  0  0  3  0  0  0  0  0  0
  185.7270  179.0930  143.4480 C   0  0  0  0  0  3  0  0  0  0  0  0
  187.6370  176.5880  145.3270 F   0  0  0  0  0  0  0  0  0  0  0  0
  186.8250  177.6430  145.0570 C   0  0  0  0  0  0  0  0  0  0  0  0
  186.4080  177.9800  147.5320 C   0  0  0  0  0  0  0  0  0  0  0  0
  187.0620  178.8600  148.3880 O   0  0  0  0  0  1  0  0  0  0  0  0
  185.9840  176.8850  147.9910 O   0  0  0  0  0  0  0  0  0  0  0  0
  189.4800  171.9780  143.1380 C   0  0  0  0  0  2  0  0  0  0  0  0
  190.7680  171.2990  142.6820 C   0  0  0  0  0  2  0  0  0  0  0  0
  190.4670  170.3850  141.5170 C   0  0  0  0  0  2  0  0  0  0  0  0
  190.4570  171.1900  140.2340 C   0  0  0  0  0  2  0  0  0  0  0  0
  193.8270  170.7440  138.4190 C   0  0  1  0  0  3  0  0  0  0  0  0
  190.5170  171.4550  135.9000 C   0  0  0  0  0  0  0  0  0  0  0  0
  190.5440  170.1070  137.9680 C   0  0  0  0  0  2  0  0  0  0  0  0
  194.7820  171.5990  137.5740 C   0  0  0  0  0  2  0  0  0  0  0  0
  192.2840  172.7030  137.9910 C   0  0  0  0  0  0  0  0  0  0  0  0
  191.7440  173.7930  138.5340 C   0  0  0  0  0  2  0  0  0  0  0  0
  191.3590  170.5490  139.1840 C   0  0  1  0  0  3  0  0  0  0  0  0
  194.1300  172.2730  136.3550 C   0  0  1  0  0  3  0  0  0  0  0  0
  189.8920  171.2820  137.2430 C   0  0  0  0  0  2  0  0  0  0  0  0
  193.6990  171.4520  139.7620 C   0  0  0  0  0  2  0  0  0  0  0  0
  192.6580  172.6820  136.5360 C   0  0  1  0  0  3  0  0  0  0  0  0
  191.8640  171.8000  135.7300 O   0  0  0  0  0  0  0  0  0  0  0  0
  192.5320  171.4640  138.8020 C   0  0  1  0  0  0  0  0  0  0  0  0
  189.8310  171.1740  134.8820 O   0  0  0  0  0  0  0  0  0  0  0  0
  194.9470  173.4550  135.9500 C   0  0  0  0  0  3  0  0  0  0  0  0
  195.6850  174.1930  136.7860 C   0  0  0  0  0  3  0  0  0  0  0  0
  195.2200  174.7880  139.0480 N   0  0  0  0  0  0  0  0  0  0  0  0
  196.6410  172.9540  138.7390 O   0  0  0  0  0  0  0  0  0  0  0  0
  195.2840  174.6670  140.5080 C   0  0  2  0  0  3  0  0  0  0  0  0
  196.6840  172.6430  140.1300 C   0  0  0  0  0  2  0  0  0  0  0  0
  195.8300  173.9790  138.2350 C   0  0  0  0  0  0  0  0  0  0  0  0
  196.5420  173.9170  140.9520 C   0  0  0  0  0  2  0  0  0  0  0  0
  193.1700  175.0090  141.7570 C   0  0  0  0  0  2  0  0  0  0  0  0
  194.0260  173.9860  141.0330 C   0  0  0  0  0  3  0  0  0  0  0  0
  194.0220  174.0390  142.5490 C   0  0  0  0  0  2  0  0  0  0  0  0
  190.7380  173.7490  144.2620 C   0  0  0  0  0  2  0  0  0  0  0  0
  190.3470  174.5070  145.5090 C   0  0  0  0  0  0  0  0  0  0  0  0
  189.3690  174.1670  146.1500 O   0  0  0  0  0  0  0  0  0  0  0  0
  191.2270  175.5940  146.0520 C   0  0  1  0  0  3  0  0  0  0  0  0
  193.0620  176.7910  144.9770 C   0  0  0  0  0  2  0  0  0  0  0  0
  193.6980  176.9710  147.2580 O   0  0  0  0  0  1  0  0  0  0  0  0
  192.5490  175.0250  146.5310 C   0  0  0  0  0  2  0  0  0  0  0  0
  191.5510  176.6470  145.0060 C   0  0  0  0  0  2  0  0  0  0  0  0
  193.5920  176.0690  146.1990 C   0  0  1  0  0  3  0  0  0  0  0  0
  1 53  1  0  0  0  0
  2  1  1  0  0  0  0
  3  4  1  6  0  0  0
  3  2  1  0  0  0  0
  5 13  2  0  0  0  0
  6  8  2  0  0  0  0
  8 12  1  0  0  0  0
  9 12  1  0  0  0  0
  9  5  1  0  0  0  0
 10  7  1  6  0  0  0
 10  6  1  0  0  0  0
 10 11  1  0  0  0  0
 11  9  2  0  0  0  0
 12  3  1  1  0  0  0
 13 16  1  0  0  0  0
 14 21  1  0  0  0  0
 15 14  1  0  0  0  0
 16 20  1  0  0  0  0
 17 15  2  0  0  0  0
 18 16  2  0  0  0  0
 18 17  1  0  0  0  0
 20 19  1  0  0  0  0
 20 14  2  0  0  0  0
 21 23  2  0  0  0  0
 21 22  1  0  0  0  0
 24  1  1  0  0  0  0
 25 24  1  0  0  0  0
 26 25  1  0  0  0  0
 27 26  1  0  0  0  0
 28 31  1  6  0  0  0
 28 40  1  0  0  0  0
 28 37  1  0  0  0  0
 29 36  1  0  0  0  0
 30 34  1  0  0  0  0
 32 33  2  0  0  0  0
 32 40  1  0  0  0  0
 34 27  1  1  0  0  0
 35 42  1  1  0  0  0
 35 38  1  0  0  0  0
 35 31  1  0  0  0  0
 36 30  1  0  0  0  0
 38 39  1  6  0  0  0
 38 32  1  0  0  0  0
 39 29  1  0  0  0  0
 40 34  1  0  0  0  0
 40 37  1  1  0  0  0
 41 29  2  0  0  0  0
 42 43  2  0  0  0  0
 43 48  1  0  0  0  0
 44 46  1  0  0  0  0
 45 47  1  0  0  0  0
 46 49  1  0  0  0  0
 46 51  1  6  0  0  0
 47 49  1  0  0  0  0
 48 45  1  0  0  0  0
 48 44  2  0  0  0  0
 50 52  1  0  0  0  0
 51 50  1  0  0  0  0
 51 52  1  0  0  0  0
 53 54  1  0  0  0  0
 54 55  2  0  0  0  0
 56 54  1  6  0  0  0
 56 59  1  0  0  0  0
 57 60  1  0  0  0  0
 57 61  1  0  0  0  0
 60 56  1  0  0  0  0
 61 59  1  0  0  0  0
 61 58  1  1  0  0  0
M  END
>  <MODEL>
8

>  <REMARK>
 VINA RESULT:      -6.1      2.416      5.126
  Name = 
  17 active torsions:
  status: ('A' for Active; 'I' for Inactive)
    1  A    between atoms: C_1  and  C_43
    2  A    between atoms: C_1  and  N_49
    3  A    between atoms: C_2  and  C_19
    4  A    between atoms: C_5  and  C_9
    5  A    between atoms: C_5  and  C_44
    6  A    between atoms: N_8  and  N_35
    7  A    between atoms: C_12  and  C_45
    8  A    between atoms: C_16  and  C_30
    9  A    between atoms: C_16  and  N_49
   10  A    between atoms: C_23  and  C_52
   11  A    between atoms: C_24  and  N_35
   12  A    between atoms: C_25  and  C_29
   13  A    between atoms: C_30  and  C_40
   14  A    between atoms: C_33  and  C_43
   15  A    between atoms: C_33  and  C_52
   16  A    between atoms: C_44  and  N_49
   17  A    between atoms: C_48  and  C_51
                            x       y       z     vdW  Elec       q    Type
                         _______ _______ _______ _____ _____    ______ ____

>  <TORSDO>
F 17

$$$$
=
 OpenBabel11062423003D

 61 68  0  0  1  0  0  0  0  0999 V2000
  189.4470  173.8340  143.7110 N   0  0  0  0  0  0  0  0  0  0  0  0
  189.5150  174.4600  142.3890 C   0  0  0  0  0  2  0  0  0  0  0  0
  188.1720  175.0740  142.0210 C   0  0  2  0  0  3  0  0  0  0  0  0
  187.1500  174.1320  142.1610 O   0  0  0  0  0  1  0  0  0  0  0  0
  186.6580  177.5850  141.3360 N   0  0  0  0  0  2  0  0  0  0  0  0
  187.7130  174.7490  138.3460 C   0  0  0  0  0  3  0  0  0  0  0  0
  185.9940  175.9960  136.6780 Cl  0  0  0  0  0  0  0  0  0  0  0  0
  188.1940  174.5430  139.5750 C   0  0  0  0  0  3  0  0  0  0  0  0
  187.1180  176.6750  140.3300 C   0  0  0  0  0  0  0  0  0  0  0  0
  187.2180  176.1130  137.9640 C   0  0  1  0  0  3  0  0  0  0  0  0
  186.6690  176.8280  139.1190 N   0  0  0  0  0  0  0  0  0  0  0  0
  188.2150  175.6540  140.6020 C   0  0  1  0  0  3  0  0  0  0  0  0
  187.2380  177.6720  142.6090 N   0  0  0  0  0  2  0  0  0  0  0  0
  186.1080  178.4100  146.1320 C   0  0  0  0  0  0  0  0  0  0  0  0
  185.1460  179.3930  145.8620 C   0  0  0  0  0  3  0  0  0  0  0  0
  186.5510  178.2330  143.7320 C   0  0  0  0  0  0  0  0  0  0  0  0
  184.8820  179.7900  144.5510 C   0  0  0  0  0  3  0  0  0  0  0  0
  185.5800  179.2100  143.4920 C   0  0  0  0  0  3  0  0  0  0  0  0
  187.7380  176.8580  145.2980 F   0  0  0  0  0  0  0  0  0  0  0  0
  186.8160  177.8270  145.0580 C   0  0  0  0  0  0  0  0  0  0  0  0
  186.3390  178.0130  147.5380 C   0  0  0  0  0  0  0  0  0  0  0  0
  186.9870  178.8830  148.4090 O   0  0  0  0  0  1  0  0  0  0  0  0
  185.9430  176.8980  147.9730 O   0  0  0  0  0  0  0  0  0  0  0  0
  189.9930  172.4700  143.7200 C   0  0  0  0  0  2  0  0  0  0  0  0
  190.4580  171.9840  142.3500 C   0  0  0  0  0  2  0  0  0  0  0  0
  191.4240  170.8350  142.5280 C   0  0  0  0  0  2  0  0  0  0  0  0
  192.6570  171.0790  141.6830 C   0  0  0  0  0  2  0  0  0  0  0  0
  191.9270  173.7810  139.0340 C   0  0  1  0  0  3  0  0  0  0  0  0
  195.9170  173.6440  140.4000 C   0  0  0  0  0  0  0  0  0  0  0  0
  193.8770  173.2750  141.7420 C   0  0  0  0  0  2  0  0  0  0  0  0
  192.3280  174.0840  137.5830 C   0  0  0  0  0  2  0  0  0  0  0  0
  193.8400  172.1370  138.8300 C   0  0  0  0  0  0  0  0  0  0  0  0
  194.1480  170.8500  138.6760 C   0  0  0  0  0  2  0  0  0  0  0  0
  192.6840  172.5130  141.1630 C   0  0  1  0  0  3  0  0  0  0  0  0
  193.8450  174.1470  137.3380 C   0  0  1  0  0  3  0  0  0  0  0  0
  195.2150  172.6850  141.3020 C   0  0  0  0  0  2  0  0  0  0  0  0
  191.2710  172.4050  139.0140 C   0  0  0  0  0  2  0  0  0  0  0  0
  194.6940  173.2050  138.2090 C   0  0  1  0  0  3  0  0  0  0  0  0
  195.4100  174.0170  139.1490 O   0  0  0  0  0  0  0  0  0  0  0  0
  192.6430  172.5660  139.6280 C   0  0  1  0  0  0  0  0  0  0  0  0
  196.9510  174.2210  140.8310 O   0  0  0  0  0  0  0  0  0  0  0  0
  194.1200  173.8990  135.8910 C   0  0  0  0  0  3  0  0  0  0  0  0
  193.3410  173.1760  135.0810 C   0  0  0  0  0  3  0  0  0  0  0  0
  192.0930  171.2150  135.6170 N   0  0  0  0  0  0  0  0  0  0  0  0
  190.8920  173.2230  135.5960 O   0  0  0  0  0  0  0  0  0  0  0  0
  190.9080  170.4410  135.9990 C   0  0  2  0  0  3  0  0  0  0  0  0
  189.7010  172.6170  136.0920 C   0  0  0  0  0  2  0  0  0  0  0  0
  192.0850  172.5040  135.4550 C   0  0  0  0  0  0  0  0  0  0  0  0
  189.6170  171.1720  135.6200 C   0  0  0  0  0  2  0  0  0  0  0  0
  191.0040  168.6260  137.6840 C   0  0  0  0  0  2  0  0  0  0  0  0
  190.9430  170.1300  137.4900 C   0  0  0  0  0  3  0  0  0  0  0  0
  189.6920  169.3610  137.8720 C   0  0  0  0  0  2  0  0  0  0  0  0
  190.0150  174.6740  144.7800 C   0  0  0  0  0  2  0  0  0  0  0  0
  190.9490  175.7610  144.3020 C   0  0  0  0  0  0  0  0  0  0  0  0
  190.5120  176.8610  144.0130 O   0  0  0  0  0  0  0  0  0  0  0  0
  192.4350  175.5510  144.3070 C   0  0  1  0  0  3  0  0  0  0  0  0
  193.9100  174.9330  146.1490 C   0  0  0  0  0  2  0  0  0  0  0  0
  195.4250  176.1160  144.7520 O   0  0  0  0  0  1  0  0  0  0  0  0
  193.1480  176.7880  144.8170 C   0  0  0  0  0  2  0  0  0  0  0  0
  192.8490  174.3980  145.2050 C   0  0  0  0  0  2  0  0  0  0  0  0
  194.3350  176.2830  145.6080 C   0  0  1  0  0  3  0  0  0  0  0  0
  1 24  1  0  0  0  0
  1 53  1  0  0  0  0
  2  1  1  0  0  0  0
  3  4  1  6  0  0  0
  3  2  1  0  0  0  0
  5 13  1  0  0  0  0
  6  8  2  0  0  0  0
  8 12  1  0  0  0  0
  9 12  1  0  0  0  0
  9  5  1  0  0  0  0
 10  7  1  6  0  0  0
 10  6  1  0  0  0  0
 10 11  1  0  0  0  0
 11  9  2  0  0  0  0
 12  3  1  1  0  0  0
 13 16  1  0  0  0  0
 14 21  1  0  0  0  0
 15 14  1  0  0  0  0
 16 20  1  0  0  0  0
 17 15  2  0  0  0  0
 18 16  2  0  0  0  0
 18 17  1  0  0  0  0
 20 19  1  0  0  0  0
 20 14  2  0  0  0  0
 21 23  2  0  0  0  0
 21 22  1  0  0  0  0
 25 26  1  0  0  0  0
 25 24  1  0  0  0  0
 27 26  1  0  0  0  0
 28 31  1  6  0  0  0
 28 40  1  0  0  0  0
 29 41  2  0  0  0  0
 29 36  1  0  0  0  0
 32 40  1  0  0  0  0
 33 32  2  0  0  0  0
 34 27  1  6  0  0  0
 34 30  1  0  0  0  0
 35 42  1  6  0  0  0
 35 31  1  0  0  0  0
 35 38  1  0  0  0  0
 36 30  1  0  0  0  0
 37 28  1  0  0  0  0
 38 32  1  1  0  0  0
 38 39  1  0  0  0  0
 39 29  1  0  0  0  0
 40 37  1  6  0  0  0
 40 34  1  0  0  0  0
 43 48  1  0  0  0  0
 43 42  2  0  0  0  0
 44 46  1  0  0  0  0
 45 47  1  0  0  0  0
 46 51  1  1  0  0  0
 48 45  1  0  0  0  0
 48 44  2  0  0  0  0
 49 46  1  0  0  0  0
 49 47  1  0  0  0  0
 50 52  1  0  0  0  0
 51 50  1  0  0  0  0
 51 52  1  0  0  0  0
 54 53  1  0  0  0  0
 55 54  2  0  0  0  0
 56 54  1  1  0  0  0
 56 59  1  0  0  0  0
 56 60  1  0  0  0  0
 59 61  1  0  0  0  0
 60 57  1  0  0  0  0
 61 58  1  6  0  0  0
 61 57  1  0  0  0  0
M  END
>  <MODEL>
9

>  <REMARK>
 VINA RESULT:      -6.0      2.381      4.222
  Name = 
  17 active torsions:
  status: ('A' for Active; 'I' for Inactive)
    1  A    between atoms: C_1  and  C_43
    2  A    between atoms: C_1  and  N_49
    3  A    between atoms: C_2  and  C_19
    4  A    between atoms: C_5  and  C_9
    5  A    between atoms: C_5  and  C_44
    6  A    between atoms: N_8  and  N_35
    7  A    between atoms: C_12  and  C_45
    8  A    between atoms: C_16  and  C_30
    9  A    between atoms: C_16  and  N_49
   10  A    between atoms: C_23  and  C_52
   11  A    between atoms: C_24  and  N_35
   12  A    between atoms: C_25  and  C_29
   13  A    between atoms: C_30  and  C_40
   14  A    between atoms: C_33  and  C_43
   15  A    between atoms: C_33  and  C_52
   16  A    between atoms: C_44  and  N_49
   17  A    between atoms: C_48  and  C_51
                            x       y       z     vdW  Elec       q    Type
                         _______ _______ _______ _____ _____    ______ ____

>  <TORSDO>
F 17

$$$$
