=
 OpenBabel11072409453D

 59 65  0  0  1  0  0  0  0  0999 V2000
  193.5260  175.8140  144.6720 C   0  0  1  0  0  3  0  0  0  0  0  0
  193.2870  176.1020  147.0460 N   0  0  0  0  0  2  0  0  0  0  0  0
  192.6230  175.5620  145.8600 C   0  0  1  0  0  3  0  0  0  0  0  0
  194.8270  176.1760  145.3260 C   0  0  1  0  0  3  0  0  0  0  0  0
  195.5110  177.1910  144.5410 N   0  0  0  0  0  1  0  0  0  0  0  0
  194.4970  176.7010  146.6440 N   0  0  0  0  0  2  0  0  0  0  0  0
  189.5840  177.6320  144.4770 C   0  0  0  0  0  2  0  0  0  0  0  0
  190.9130  176.8880  144.4390 C   0  0  0  0  0  2  0  0  0  0  0  0
  187.8320  176.1130  145.5120 C   0  0  0  0  0  2  0  0  0  0  0  0
  188.4520  176.6430  144.2050 C   0  0  1  0  0  3  0  0  0  0  0  0
  191.1630  176.0600  145.7090 C   0  0  1  0  0  3  0  0  0  0  0  0
  188.8540  175.6080  146.5380 C   0  0  0  0  0  2  0  0  0  0  0  0
  190.0940  174.9790  145.9140 C   0  0  0  0  0  2  0  0  0  0  0  0
  184.7170  177.9810  144.1410 O   0  0  0  0  0  0  0  0  0  0  0  0
  186.8000  178.8610  144.8650 O   0  0  0  0  0  0  0  0  0  0  0  0
  187.4020  177.1610  143.2000 C   0  0  1  0  0  0  0  0  0  0  0  0
  186.1480  176.2750  143.2860 C   0  0  0  0  0  2  0  0  0  0  0  0
  185.7200  178.9780  143.9770 C   0  0  2  0  0  0  0  0  0  0  0  0
  185.2950  180.2820  143.8560 F   0  0  0  0  0  0  0  0  0  0  0  0
  187.0930  178.6540  143.4870 C   0  0  1  0  0  3  0  0  0  0  0  0
  185.2680  176.7240  144.4350 C   0  0  0  0  0  2  0  0  0  0  0  0
  187.9460  177.0560  141.7730 C   0  0  0  0  0  2  0  0  0  0  0  0
  187.8330  175.7470  141.2950 O   0  0  0  0  0  0  0  0  0  0  0  0
  189.0670  175.1330  141.5660 C   0  0  1  0  0  3  0  0  0  0  0  0
  188.8200  173.6540  141.8400 C   0  0  0  0  0  2  0  0  0  0  0  0
  189.3930  174.0740  140.5120 C   0  0  1  0  0  0  0  0  0  0  0  0
  187.8750  172.5940  139.3860 O   0  0  0  0  0  1  0  0  0  0  0  0
  189.1510  174.0200  138.1350 O   0  0  0  0  0  1  0  0  0  0  0  0
  188.4470  173.8690  139.3340 C   0  0  0  0  0  3  0  0  0  0  0  0
  190.7910  173.6490  140.3220 N   0  0  0  0  0  2  0  0  0  0  0  0
  191.0500  172.2690  140.7170 C   0  0  0  0  0  2  0  0  0  0  0  0
  191.8710  171.5640  139.6550 C   0  0  0  0  0  1  0  0  0  0  0  0
  193.6160  174.5930  143.7880 C   0  0  0  0  0  0  0  0  0  0  0  0
  192.7000  174.3630  143.0220 O   0  0  0  0  0  0  0  0  0  0  0  0
  197.5130  173.5830  143.7420 S   0  0  0  0  0  0  0  0  0  0  0  0
  194.8240  173.6950  143.7950 C   0  0  2  0  0  3  0  0  0  0  0  0
  196.5690  172.8490  145.1140 C   0  0  1  0  0  3  0  0  0  0  0  0
  195.2310  173.4180  145.1670 N   0  0  0  0  0  2  0  0  0  0  0  0
  196.0000  174.2810  143.0180 C   0  0  2  0  0  3  0  0  0  0  0  0
  195.9040  173.9770  141.5060 C   0  0  1  0  0  3  0  0  0  0  0  0
  194.9340  173.0020  141.2680 O   0  0  0  0  0  1  0  0  0  0  0  0
  194.2790  175.1410  140.1800 O   0  0  0  0  0  1  0  0  0  0  0  0
  195.5920  175.2230  140.6560 C   0  0  0  0  0  0  0  0  0  0  0  0
  195.7250  176.3740  141.4400 O   0  0  0  0  0  1  0  0  0  0  0  0
  196.5090  175.2840  139.5230 N   0  0  0  0  0  2  0  0  0  0  0  0
  195.7870  175.0590  138.3400 N   0  0  0  0  0  2  0  0  0  0  0  0
  196.4470  174.7710  137.1070 C   0  0  0  0  0  0  0  0  0  0  0  0
  196.4530  173.2410  136.5050 S   0  0  0  0  0  0  0  0  0  0  0  0
  196.6710  176.7390  135.4790 C   0  0  2  0  0  3  0  0  0  0  0  0
  197.5480  175.5910  135.0190 C   0  0  0  0  0  2  0  0  0  0  0  0
  197.3470  175.8120  136.5050 C   0  0  2  0  0  3  0  0  0  0  0  0
  194.9340  176.3680  135.0500 S   0  0  0  0  0  1  0  0  0  0  0  0
  196.9520  170.5520  143.6700 S   0  0  0  0  0  0  0  0  0  0  0  0
  196.5210  171.3470  145.0340 C   0  0  0  0  0  0  0  0  0  0  0  0
  196.1300  170.5860  146.1740 N   0  0  0  0  0  2  0  0  0  0  0  0
  196.3880  169.1620  146.2870 C   0  0  0  0  0  2  0  0  0  0  0  0
  194.1160  168.6050  145.5200 C   0  0  0  0  0  1  0  0  0  0  0  0
  195.1080  168.4350  146.6470 C   0  0  2  0  0  3  0  0  0  0  0  0
  194.5760  168.9560  147.8340 O   0  0  0  0  0  1  0  0  0  0  0  0
  1 33  1  6  0  0  0
  1  4  1  0  0  0  0
  1  3  1  0  0  0  0
  3  2  1  1  0  0  0
  4  5  1  6  0  0  0
  4  6  1  0  0  0  0
  6  2  1  0  0  0  0
  8  7  1  0  0  0  0
  9 12  1  0  0  0  0
 10  7  1  1  0  0  0
 10  9  1  0  0  0  0
 11  8  1  6  0  0  0
 11  3  1  0  0  0  0
 11 13  1  0  0  0  0
 13 12  1  0  0  0  0
 14 21  1  0  0  0  0
 16 22  1  6  0  0  0
 16 17  1  0  0  0  0
 16 20  1  0  0  0  0
 16 10  1  0  0  0  0
 17 21  1  0  0  0  0
 18 19  1  6  0  0  0
 18 14  1  0  0  0  0
 18 15  1  0  0  0  0
 20 18  1  0  0  0  0
 20 15  1  1  0  0  0
 23 22  1  0  0  0  0
 24 23  1  6  0  0  0
 24 25  1  0  0  0  0
 26 29  1  6  0  0  0
 26 24  1  0  0  0  0
 26 25  1  0  0  0  0
 28 29  1  0  0  0  0
 29 27  1  0  0  0  0
 30 26  1  0  0  0  0
 30 31  1  0  0  0  0
 32 31  1  0  0  0  0
 34 33  2  0  0  0  0
 35 37  1  0  0  0  0
 36 33  1  1  0  0  0
 36 38  1  0  0  0  0
 37 54  1  6  0  0  0
 37 38  1  0  0  0  0
 39 40  1  6  0  0  0
 39 35  1  0  0  0  0
 39 36  1  0  0  0  0
 40 41  1  1  0  0  0
 42 43  1  0  0  0  0
 43 44  1  0  0  0  0
 43 40  1  0  0  0  0
 45 43  1  0  0  0  0
 46 45  1  0  0  0  0
 47 46  1  0  0  0  0
 48 47  2  0  0  0  0
 49 52  1  6  0  0  0
 49 51  1  0  0  0  0
 50 49  1  0  0  0  0
 50 51  1  0  0  0  0
 51 47  1  6  0  0  0
 53 54  2  0  0  0  0
 54 55  1  0  0  0  0
 55 56  1  0  0  0  0
 56 58  1  0  0  0  0
 58 57  1  6  0  0  0
 58 59  1  0  0  0  0
M  END
>  <MODEL>
1

>  <REMARK>
 VINA RESULT:      -6.9      0.000      0.000
  Name = 
  20 active torsions:
  status: ('A' for Active; 'I' for Inactive)
    1  A    between atoms: C_1  and  O_29
    2  A    between atoms: C_3  and  C_6
    3  A    between atoms: C_3  and  C_38
    4  A    between atoms: C_8  and  C_27
    5  A    between atoms: C_8  and  C_57
    6  A    between atoms: C_10  and  N_37
    7  A    between atoms: C_10  and  C_50
    8  A    between atoms: C_13  and  C_18
    9  A    between atoms: C_13  and  N_53
   10  A    between atoms: N_14  and  C_23
   11  A    between atoms: N_14  and  N_53
   12  A    between atoms: C_17  and  C_44
   13  A    between atoms: N_22  and  C_39
   14  A    between atoms: N_22  and  C_44
   15  A    between atoms: C_23  and  C_32
   16  A    between atoms: O_29  and  C_57
   17  A    between atoms: C_30  and  C_39
   18  A    between atoms: C_32  and  C_40
   19  A    between atoms: C_34  and  C_47
   20  A    between atoms: N_37  and  C_41
                            x       y       z     vdW  Elec       q    Type
                         _______ _______ _______ _____ _____    ______ ____

>  <TORSDO>
F 20

$$$$
=
 OpenBabel11072409453D

 59 65  0  0  1  0  0  0  0  0999 V2000
  195.6670  175.0560  142.8500 C   0  0  1  0  0  3  0  0  0  0  0  0
  196.1450  173.9340  144.9210 N   0  0  0  0  0  2  0  0  0  0  0  0
  195.2010  173.9790  143.8050 C   0  0  1  0  0  3  0  0  0  0  0  0
  197.0680  175.3190  143.3200 C   0  0  1  0  0  3  0  0  0  0  0  0
  197.3820  176.7320  143.1750 N   0  0  0  0  0  1  0  0  0  0  0  0
  197.1130  174.9390  144.7260 N   0  0  0  0  0  2  0  0  0  0  0  0
  191.8750  175.6420  145.0770 C   0  0  0  0  0  2  0  0  0  0  0  0
  193.1910  175.5290  144.3160 C   0  0  0  0  0  2  0  0  0  0  0  0
  190.4270  173.6400  144.4940 C   0  0  0  0  0  2  0  0  0  0  0  0
  190.7440  175.1170  144.1950 C   0  0  1  0  0  3  0  0  0  0  0  0
  193.7250  174.0900  144.2700 C   0  0  1  0  0  3  0  0  0  0  0  0
  191.6550  172.7220  144.5250 C   0  0  0  0  0  2  0  0  0  0  0  0
  192.7570  173.1350  143.5580 C   0  0  0  0  0  2  0  0  0  0  0  0
  188.9880  177.8530  141.9190 O   0  0  0  0  0  0  0  0  0  0  0  0
  189.2560  175.4960  141.8020 O   0  0  0  0  0  0  0  0  0  0  0  0
  189.4920  176.0190  144.1880 C   0  0  1  0  0  0  0  0  0  0  0  0
  189.9340  177.4880  144.0780 C   0  0  0  0  0  2  0  0  0  0  0  0
  188.3630  176.5730  141.9180 C   0  0  2  0  0  0  0  0  0  0  0  0
  187.2600  176.4130  141.1110 F   0  0  0  0  0  0  0  0  0  0  0  0
  188.5470  175.5960  143.0330 C   0  0  1  0  0  3  0  0  0  0  0  0
  190.1980  177.8470  142.6290 C   0  0  0  0  0  2  0  0  0  0  0  0
  188.7280  175.8630  145.5060 C   0  0  0  0  0  2  0  0  0  0  0  0
  188.4050  177.1140  146.0410 O   0  0  0  0  0  0  0  0  0  0  0  0
  187.3200  177.5870  145.2840 C   0  0  1  0  0  3  0  0  0  0  0  0
  186.0550  176.8830  145.7610 C   0  0  0  0  0  2  0  0  0  0  0  0
  186.3070  178.3090  146.1740 C   0  0  1  0  0  0  0  0  0  0  0  0
  185.9490  177.4950  148.4030 O   0  0  0  0  0  1  0  0  0  0  0  0
  186.1700  179.7460  148.0780 O   0  0  0  0  0  1  0  0  0  0  0  0
  186.6000  178.4830  147.6600 C   0  0  0  0  0  3  0  0  0  0  0  0
  185.3640  179.2650  145.5670 N   0  0  0  0  0  2  0  0  0  0  0  0
  184.0610  178.6900  145.2490 C   0  0  0  0  0  2  0  0  0  0  0  0
  183.6940  178.9920  143.8090 C   0  0  0  0  0  1  0  0  0  0  0  0
  195.5910  174.5830  141.4190 C   0  0  0  0  0  0  0  0  0  0  0  0
  195.6830  175.4070  140.5290 O   0  0  0  0  0  0  0  0  0  0  0  0
  196.1140  171.1880  139.3160 S   0  0  0  0  0  0  0  0  0  0  0  0
  195.4590  173.1240  141.0690 C   0  0  2  0  0  3  0  0  0  0  0  0
  196.5540  171.0500  141.0770 C   0  0  1  0  0  3  0  0  0  0  0  0
  196.5230  172.3600  141.7090 N   0  0  0  0  0  2  0  0  0  0  0  0
  195.4810  172.8730  139.5630 C   0  0  2  0  0  3  0  0  0  0  0  0
  194.0850  173.0520  138.9260 C   0  0  1  0  0  3  0  0  0  0  0  0
  193.1730  173.5160  139.8770 O   0  0  0  0  0  1  0  0  0  0  0  0
  193.3480  175.1510  138.0290 O   0  0  0  0  0  1  0  0  0  0  0  0
  194.0880  174.0050  137.7170 C   0  0  0  0  0  0  0  0  0  0  0  0
  195.4020  174.3750  137.4110 O   0  0  0  0  0  1  0  0  0  0  0  0
  193.4780  173.3410  136.5680 N   0  0  0  0  0  2  0  0  0  0  0  0
  192.5190  172.4250  137.0280 N   0  0  0  0  0  2  0  0  0  0  0  0
  191.1220  172.6440  136.8250 C   0  0  0  0  0  0  0  0  0  0  0  0
  190.4930  172.6360  135.3060 S   0  0  0  0  0  0  0  0  0  0  0  0
  189.6380  172.0260  138.8220 C   0  0  2  0  0  3  0  0  0  0  0  0
  188.8240  172.7890  137.7950 C   0  0  0  0  0  2  0  0  0  0  0  0
  190.2900  173.1340  137.9740 C   0  0  2  0  0  3  0  0  0  0  0  0
  189.8610  170.3070  138.2450 S   0  0  0  0  0  1  0  0  0  0  0  0
  194.2190  169.6260  141.2180 S   0  0  0  0  0  0  0  0  0  0  0  0
  195.6790  170.0690  141.8080 C   0  0  0  0  0  0  0  0  0  0  0  0
  196.1340  169.4770  143.0230 N   0  0  0  0  0  2  0  0  0  0  0  0
  195.2620  169.2740  144.1650 C   0  0  0  0  0  2  0  0  0  0  0  0
  196.8890  170.5040  145.5440 C   0  0  0  0  0  1  0  0  0  0  0  0
  195.4330  170.4120  145.1510 C   0  0  2  0  0  3  0  0  0  0  0  0
  194.6450  170.1860  146.2870 O   0  0  0  0  0  1  0  0  0  0  0  0
  1 33  1  6  0  0  0
  1  4  1  0  0  0  0
  1  3  1  0  0  0  0
  3 11  1  0  0  0  0
  3  2  1  1  0  0  0
  4  5  1  1  0  0  0
  4  6  1  0  0  0  0
  6  2  1  0  0  0  0
  8  7  1  0  0  0  0
  9 12  1  0  0  0  0
 10  9  1  1  0  0  0
 10  7  1  0  0  0  0
 11 13  1  6  0  0  0
 11  8  1  0  0  0  0
 13 12  1  0  0  0  0
 14 21  1  0  0  0  0
 15 18  1  0  0  0  0
 16 10  1  0  0  0  0
 16 22  1  1  0  0  0
 17 16  1  0  0  0  0
 18 19  1  6  0  0  0
 18 14  1  0  0  0  0
 18 20  1  0  0  0  0
 20 15  1  6  0  0  0
 20 16  1  0  0  0  0
 21 17  1  0  0  0  0
 22 23  1  0  0  0  0
 24 25  1  0  0  0  0
 24 23  1  1  0  0  0
 24 26  1  0  0  0  0
 25 26  1  0  0  0  0
 26 30  1  6  0  0  0
 26 29  1  0  0  0  0
 29 28  1  0  0  0  0
 29 27  1  0  0  0  0
 31 30  1  0  0  0  0
 32 31  1  0  0  0  0
 34 33  2  0  0  0  0
 35 39  1  0  0  0  0
 35 37  1  0  0  0  0
 36 33  1  6  0  0  0
 36 38  1  0  0  0  0
 37 38  1  0  0  0  0
 37 54  1  1  0  0  0
 39 40  1  1  0  0  0
 39 36  1  0  0  0  0
 40 41  1  1  0  0  0
 43 42  1  0  0  0  0
 43 40  1  0  0  0  0
 44 43  1  0  0  0  0
 45 46  1  0  0  0  0
 45 43  1  0  0  0  0
 47 46  1  0  0  0  0
 48 47  2  0  0  0  0
 49 52  1  6  0  0  0
 50 51  1  0  0  0  0
 50 49  1  0  0  0  0
 51 47  1  6  0  0  0
 51 49  1  0  0  0  0
 53 54  2  0  0  0  0
 54 55  1  0  0  0  0
 55 56  1  0  0  0  0
 56 58  1  0  0  0  0
 58 57  1  1  0  0  0
 58 59  1  0  0  0  0
M  END
>  <MODEL>
2

>  <REMARK>
 VINA RESULT:      -6.5      2.866      5.520
  Name = 
  20 active torsions:
  status: ('A' for Active; 'I' for Inactive)
    1  A    between atoms: C_1  and  O_29
    2  A    between atoms: C_3  and  C_6
    3  A    between atoms: C_3  and  C_38
    4  A    between atoms: C_8  and  C_27
    5  A    between atoms: C_8  and  C_57
    6  A    between atoms: C_10  and  N_37
    7  A    between atoms: C_10  and  C_50
    8  A    between atoms: C_13  and  C_18
    9  A    between atoms: C_13  and  N_53
   10  A    between atoms: N_14  and  C_23
   11  A    between atoms: N_14  and  N_53
   12  A    between atoms: C_17  and  C_44
   13  A    between atoms: N_22  and  C_39
   14  A    between atoms: N_22  and  C_44
   15  A    between atoms: C_23  and  C_32
   16  A    between atoms: O_29  and  C_57
   17  A    between atoms: C_30  and  C_39
   18  A    between atoms: C_32  and  C_40
   19  A    between atoms: C_34  and  C_47
   20  A    between atoms: N_37  and  C_41
                            x       y       z     vdW  Elec       q    Type
                         _______ _______ _______ _____ _____    ______ ____

>  <TORSDO>
F 20

$$$$
=
 OpenBabel11072409453D

 59 65  0  0  1  0  0  0  0  0999 V2000
  192.0490  175.6890  145.4910 C   0  0  1  0  0  3  0  0  0  0  0  0
  193.4200  176.9680  146.9960 N   0  0  0  0  0  2  0  0  0  0  0  0
  193.3620  176.4280  145.6370 C   0  0  1  0  0  3  0  0  0  0  0  0
  191.2770  176.1630  146.6880 C   0  0  1  0  0  3  0  0  0  0  0  0
  190.4520  175.0840  147.2050 N   0  0  0  0  0  1  0  0  0  0  0  0
  192.2610  176.5620  147.6860 N   0  0  0  0  0  2  0  0  0  0  0  0
  195.8900  173.4240  145.5030 C   0  0  0  0  0  2  0  0  0  0  0  0
  194.5380  174.1230  145.5780 C   0  0  0  0  0  2  0  0  0  0  0  0
  197.1690  174.3410  143.5100 C   0  0  0  0  0  2  0  0  0  0  0  0
  196.2610  173.2130  144.0360 C   0  0  1  0  0  3  0  0  0  0  0  0
  194.6300  175.6220  145.2550 C   0  0  1  0  0  3  0  0  0  0  0  0
  196.6640  175.7560  143.8170 C   0  0  0  0  0  2  0  0  0  0  0  0
  195.1450  175.8780  143.8320 C   0  0  0  0  0  2  0  0  0  0  0  0
  195.8390  169.4660  145.2700 O   0  0  0  0  0  0  0  0  0  0  0  0
  194.5110  170.9730  144.0050 O   0  0  0  0  0  0  0  0  0  0  0  0
  196.8040  171.8020  143.7290 C   0  0  1  0  0  0  0  0  0  0  0  0
  197.4340  171.2190  145.0060 C   0  0  0  0  0  2  0  0  0  0  0  0
  195.2240  169.7640  144.0220 C   0  0  2  0  0  0  0  0  0  0  0  0
  194.5270  168.7490  143.4060 F   0  0  0  0  0  0  0  0  0  0  0  0
  195.6640  170.9100  143.1710 C   0  0  1  0  0  3  0  0  0  0  0  0
  196.3610  170.6130  145.8880 C   0  0  0  0  0  2  0  0  0  0  0  0
  197.9040  171.8840  142.6670 C   0  0  0  0  0  2  0  0  0  0  0  0
  197.4060  171.5230  141.4110 O   0  0  0  0  0  0  0  0  0  0  0  0
  197.6460  172.6250  140.5730 C   0  0  1  0  0  3  0  0  0  0  0  0
  197.9410  172.1090  139.1690 C   0  0  0  0  0  2  0  0  0  0  0  0
  196.5920  172.7100  139.4680 C   0  0  1  0  0  0  0  0  0  0  0  0
  195.6970  170.7030  138.5010 O   0  0  0  0  0  1  0  0  0  0  0  0
  194.2530  172.3620  139.1220 O   0  0  0  0  0  1  0  0  0  0  0  0
  195.4450  171.7060  139.4430 C   0  0  0  0  0  3  0  0  0  0  0  0
  196.3640  173.9940  138.7830 N   0  0  0  0  0  2  0  0  0  0  0  0
  196.8410  174.0240  137.4050 C   0  0  0  0  0  2  0  0  0  0  0  0
  197.8090  175.1750  137.2100 C   0  0  0  0  0  1  0  0  0  0  0  0
  191.3840  176.0170  144.1770 C   0  0  0  0  0  0  0  0  0  0  0  0
  191.4530  177.1570  143.7600 O   0  0  0  0  0  0  0  0  0  0  0  0
  189.8470  174.2600  140.8950 S   0  0  0  0  0  0  0  0  0  0  0  0
  190.6880  174.9650  143.3540 C   0  0  2  0  0  3  0  0  0  0  0  0
  191.0060  173.2120  141.8290 C   0  0  1  0  0  3  0  0  0  0  0  0
  191.6560  173.9870  142.8750 N   0  0  0  0  0  2  0  0  0  0  0  0
  189.9220  175.5520  142.1710 C   0  0  2  0  0  3  0  0  0  0  0  0
  188.5100  176.0300  142.5750 C   0  0  1  0  0  3  0  0  0  0  0  0
  188.3880  176.0620  143.9650 O   0  0  0  0  0  1  0  0  0  0  0  0
  189.3270  178.1300  141.7520 O   0  0  0  0  0  1  0  0  0  0  0  0
  188.1510  177.4130  142.0010 C   0  0  0  0  0  0  0  0  0  0  0  0
  187.4450  177.2580  140.8030 O   0  0  0  0  0  1  0  0  0  0  0  0
  187.3390  178.1480  142.9650 N   0  0  0  0  0  2  0  0  0  0  0  0
  185.9820  177.9370  142.6720 N   0  0  0  0  0  2  0  0  0  0  0  0
  184.9490  178.5200  143.4670 C   0  0  0  0  0  0  0  0  0  0  0  0
  183.3910  178.5110  142.9410 S   0  0  0  0  0  0  0  0  0  0  0  0
  185.6560  178.5720  145.9310 C   0  0  2  0  0  3  0  0  0  0  0  0
  184.3120  179.2570  145.7680 C   0  0  0  0  0  2  0  0  0  0  0  0
  185.3300  179.3630  144.6500 C   0  0  2  0  0  3  0  0  0  0  0  0
  185.4120  176.7630  145.8690 S   0  0  0  0  0  1  0  0  0  0  0  0
  188.8140  172.0380  142.9790 S   0  0  0  0  0  0  0  0  0  0  0  0
  190.3400  171.9850  142.3900 C   0  0  0  0  0  0  0  0  0  0  0  0
  191.0260  170.7360  142.3820 N   0  0  0  0  0  2  0  0  0  0  0  0
  192.1230  170.4550  141.4740 C   0  0  0  0  0  2  0  0  0  0  0  0
  193.2890  168.6970  140.2050 C   0  0  0  0  0  1  0  0  0  0  0  0
  192.0520  169.0130  141.0130 C   0  0  2  0  0  3  0  0  0  0  0  0
  190.9060  168.8140  140.2310 O   0  0  0  0  0  1  0  0  0  0  0  0
  1 33  1  6  0  0  0
  1  3  1  0  0  0  0
  1  4  1  0  0  0  0
  2  6  1  0  0  0  0
  3  2  1  1  0  0  0
  4  5  1  1  0  0  0
  4  6  1  0  0  0  0
  7  8  1  0  0  0  0
  9 12  1  0  0  0  0
 10  9  1  1  0  0  0
 10  7  1  0  0  0  0
 11 13  1  6  0  0  0
 11  8  1  0  0  0  0
 11  3  1  0  0  0  0
 12 13  1  0  0  0  0
 14 21  1  0  0  0  0
 15 18  1  0  0  0  0
 16 22  1  6  0  0  0
 16 10  1  0  0  0  0
 16 17  1  0  0  0  0
 17 21  1  0  0  0  0
 18 19  1  6  0  0  0
 18 14  1  0  0  0  0
 20 16  1  0  0  0  0
 20 15  1  1  0  0  0
 20 18  1  0  0  0  0
 23 22  1  0  0  0  0
 24 23  1  1  0  0  0
 25 26  1  0  0  0  0
 25 24  1  0  0  0  0
 26 30  1  6  0  0  0
 26 24  1  0  0  0  0
 27 29  1  0  0  0  0
 28 29  1  0  0  0  0
 29 26  1  0  0  0  0
 31 30  1  0  0  0  0
 32 31  1  0  0  0  0
 34 33  2  0  0  0  0
 35 37  1  0  0  0  0
 35 39  1  0  0  0  0
 36 33  1  6  0  0  0
 37 54  1  1  0  0  0
 37 38  1  0  0  0  0
 38 36  1  0  0  0  0
 39 40  1  1  0  0  0
 39 36  1  0  0  0  0
 40 41  1  1  0  0  0
 42 43  1  0  0  0  0
 43 40  1  0  0  0  0
 43 45  1  0  0  0  0
 44 43  1  0  0  0  0
 46 45  1  0  0  0  0
 46 47  1  0  0  0  0
 48 47  2  0  0  0  0
 49 52  1  6  0  0  0
 50 49  1  0  0  0  0
 51 47  1  6  0  0  0
 51 50  1  0  0  0  0
 51 49  1  0  0  0  0
 54 53  2  0  0  0  0
 55 54  1  0  0  0  0
 56 55  1  0  0  0  0
 58 57  1  6  0  0  0
 58 56  1  0  0  0  0
 59 58  1  0  0  0  0
M  END
>  <MODEL>
3

>  <REMARK>
 VINA RESULT:      -6.4      4.230      9.119
  Name = 
  20 active torsions:
  status: ('A' for Active; 'I' for Inactive)
    1  A    between atoms: C_1  and  O_29
    2  A    between atoms: C_3  and  C_6
    3  A    between atoms: C_3  and  C_38
    4  A    between atoms: C_8  and  C_27
    5  A    between atoms: C_8  and  C_57
    6  A    between atoms: C_10  and  N_37
    7  A    between atoms: C_10  and  C_50
    8  A    between atoms: C_13  and  C_18
    9  A    between atoms: C_13  and  N_53
   10  A    between atoms: N_14  and  C_23
   11  A    between atoms: N_14  and  N_53
   12  A    between atoms: C_17  and  C_44
   13  A    between atoms: N_22  and  C_39
   14  A    between atoms: N_22  and  C_44
   15  A    between atoms: C_23  and  C_32
   16  A    between atoms: O_29  and  C_57
   17  A    between atoms: C_30  and  C_39
   18  A    between atoms: C_32  and  C_40
   19  A    between atoms: C_34  and  C_47
   20  A    between atoms: N_37  and  C_41
                            x       y       z     vdW  Elec       q    Type
                         _______ _______ _______ _____ _____    ______ ____

>  <TORSDO>
F 20

$$$$
=
 OpenBabel11072409453D

 59 65  0  0  1  0  0  0  0  0999 V2000
  195.8520  175.0240  141.7160 C   0  0  1  0  0  3  0  0  0  0  0  0
  197.3610  175.7400  143.4450 N   0  0  0  0  0  2  0  0  0  0  0  0
  196.0520  175.1290  143.2120 C   0  0  1  0  0  3  0  0  0  0  0  0
  197.2360  175.2660  141.1880 C   0  0  1  0  0  3  0  0  0  0  0  0
  197.1680  176.0060  139.9380 N   0  0  0  0  0  1  0  0  0  0  0  0
  197.9350  176.0510  142.1970 N   0  0  0  0  0  2  0  0  0  0  0  0
  192.5270  176.7190  143.9050 C   0  0  0  0  0  2  0  0  0  0  0  0
  193.5420  175.7560  143.3020 C   0  0  0  0  0  2  0  0  0  0  0  0
  192.8140  176.7280  146.4270 C   0  0  0  0  0  2  0  0  0  0  0  0
  192.0300  176.1520  145.2330 C   0  0  1  0  0  3  0  0  0  0  0  0
  194.9120  175.8340  143.9910 C   0  0  1  0  0  3  0  0  0  0  0  0
  194.3390  176.6730  146.2700 C   0  0  0  0  0  2  0  0  0  0  0  0
  194.8340  175.4680  145.4800 C   0  0  0  0  0  2  0  0  0  0  0  0
  188.9330  173.8010  146.0240 O   0  0  0  0  0  0  0  0  0  0  0  0
  190.7380  174.6780  147.2930 O   0  0  0  0  0  0  0  0  0  0  0  0
  190.5000  176.2370  145.4120 C   0  0  1  0  0  0  0  0  0  0  0  0
  189.8240  175.3000  144.3970 C   0  0  0  0  0  2  0  0  0  0  0  0
  189.3490  174.6360  147.1000 C   0  0  2  0  0  0  0  0  0  0  0  0
  188.6690  174.5130  148.2900 F   0  0  0  0  0  0  0  0  0  0  0  0
  190.1230  175.8940  146.8780 C   0  0  1  0  0  3  0  0  0  0  0  0
  189.8060  173.8800  144.9280 C   0  0  0  0  0  2  0  0  0  0  0  0
  190.0170  177.6610  145.1210 C   0  0  0  0  0  2  0  0  0  0  0  0
  189.0620  177.6600  144.1000 O   0  0  0  0  0  0  0  0  0  0  0  0
  187.8190  177.8090  144.7370 C   0  0  1  0  0  3  0  0  0  0  0  0
  186.9330  178.6910  143.8670 C   0  0  0  0  0  2  0  0  0  0  0  0
  186.6970  177.2040  143.8930 C   0  0  1  0  0  0  0  0  0  0  0  0
  186.2850  177.0330  141.5340 O   0  0  0  0  0  1  0  0  0  0  0  0
  186.7680  175.1300  142.7050 O   0  0  0  0  0  1  0  0  0  0  0  0
  187.0360  176.4970  142.5850 C   0  0  0  0  0  3  0  0  0  0  0  0
  185.4280  176.8280  144.5390 N   0  0  0  0  0  2  0  0  0  0  0  0
  185.4620  176.8950  145.9960 C   0  0  0  0  0  2  0  0  0  0  0  0
  184.4590  177.9160  146.4970 C   0  0  0  0  0  1  0  0  0  0  0  0
  195.2900  173.6770  141.3350 C   0  0  0  0  0  0  0  0  0  0  0  0
  194.8060  173.5410  140.2280 O   0  0  0  0  0  0  0  0  0  0  0  0
  194.9800  169.8420  142.5240 S   0  0  0  0  0  0  0  0  0  0  0  0
  195.3610  172.4950  142.2650 C   0  0  2  0  0  3  0  0  0  0  0  0
  196.6050  170.5950  142.8500 C   0  0  1  0  0  3  0  0  0  0  0  0
  196.6910  171.9020  142.2170 N   0  0  0  0  0  2  0  0  0  0  0  0
  194.3130  171.4300  141.9480 C   0  0  2  0  0  3  0  0  0  0  0  0
  192.9510  171.7440  142.6090 C   0  0  1  0  0  3  0  0  0  0  0  0
  192.7710  173.1240  142.7170 O   0  0  0  0  0  1  0  0  0  0  0  0
  191.5400  169.8270  142.3080 O   0  0  0  0  0  1  0  0  0  0  0  0
  191.7560  171.1330  141.8530 C   0  0  0  0  0  0  0  0  0  0  0  0
  190.6090  171.8970  142.0890 O   0  0  0  0  0  1  0  0  0  0  0  0
  192.0460  171.0990  140.4230 N   0  0  0  0  0  2  0  0  0  0  0  0
  190.8400  170.9760  139.7170 N   0  0  0  0  0  2  0  0  0  0  0  0
  190.7490  171.3130  138.3320 C   0  0  0  0  0  0  0  0  0  0  0  0
  190.4460  170.1470  137.2130 S   0  0  0  0  0  0  0  0  0  0  0  0
  190.0910  173.7580  137.9320 C   0  0  2  0  0  3  0  0  0  0  0  0
  190.4790  173.1100  136.6170 C   0  0  0  0  0  2  0  0  0  0  0  0
  191.1870  172.6780  137.8860 C   0  0  2  0  0  3  0  0  0  0  0  0
  188.4100  173.2090  138.3910 S   0  0  0  0  0  1  0  0  0  0  0  0
  197.3860  172.0800  145.0150 S   0  0  0  0  0  0  0  0  0  0  0  0
  196.9100  170.6770  144.3210 C   0  0  0  0  0  0  0  0  0  0  0  0
  196.7520  169.5250  145.1460 N   0  0  0  0  0  2  0  0  0  0  0  0
  196.9670  169.5590  146.5810 C   0  0  0  0  0  2  0  0  0  0  0  0
  194.7230  168.7900  147.2400 C   0  0  0  0  0  1  0  0  0  0  0  0
  196.1920  168.4370  147.2420 C   0  0  2  0  0  3  0  0  0  0  0  0
  196.6380  168.2570  148.5590 O   0  0  0  0  0  1  0  0  0  0  0  0
  1 33  1  1  0  0  0
  1  3  1  0  0  0  0
  3  2  1  6  0  0  0
  3 11  1  0  0  0  0
  4  5  1  6  0  0  0
  4  1  1  0  0  0  0
  4  6  1  0  0  0  0
  6  2  1  0  0  0  0
  8  7  1  0  0  0  0
 10  7  1  6  0  0  0
 10 16  1  0  0  0  0
 10  9  1  0  0  0  0
 11  8  1  6  0  0  0
 11 13  1  0  0  0  0
 12  9  1  0  0  0  0
 13 12  1  0  0  0  0
 14 18  1  0  0  0  0
 16 22  1  6  0  0  0
 16 20  1  0  0  0  0
 17 21  1  0  0  0  0
 17 16  1  0  0  0  0
 18 15  1  0  0  0  0
 18 19  1  1  0  0  0
 20 18  1  0  0  0  0
 20 15  1  1  0  0  0
 21 14  1  0  0  0  0
 23 22  1  0  0  0  0
 24 23  1  6  0  0  0
 25 26  1  0  0  0  0
 25 24  1  0  0  0  0
 26 29  1  6  0  0  0
 26 30  1  0  0  0  0
 26 24  1  0  0  0  0
 27 29  1  0  0  0  0
 29 28  1  0  0  0  0
 30 31  1  0  0  0  0
 31 32  1  0  0  0  0
 34 33  2  0  0  0  0
 35 37  1  0  0  0  0
 36 33  1  6  0  0  0
 37 54  1  1  0  0  0
 38 36  1  0  0  0  0
 38 37  1  0  0  0  0
 39 36  1  0  0  0  0
 39 35  1  0  0  0  0
 39 40  1  1  0  0  0
 40 41  1  6  0  0  0
 43 44  1  0  0  0  0
 43 42  1  0  0  0  0
 43 40  1  0  0  0  0
 45 43  1  0  0  0  0
 46 45  1  0  0  0  0
 47 46  1  0  0  0  0
 48 47  2  0  0  0  0
 49 52  1  1  0  0  0
 50 51  1  0  0  0  0
 50 49  1  0  0  0  0
 51 49  1  0  0  0  0
 51 47  1  1  0  0  0
 54 53  2  0  0  0  0
 54 55  1  0  0  0  0
 55 56  1  0  0  0  0
 56 58  1  0  0  0  0
 58 57  1  1  0  0  0
 58 59  1  0  0  0  0
M  END
>  <MODEL>
4

>  <REMARK>
 VINA RESULT:      -6.3      3.020      5.301
  Name = 
  20 active torsions:
  status: ('A' for Active; 'I' for Inactive)
    1  A    between atoms: C_1  and  O_29
    2  A    between atoms: C_3  and  C_6
    3  A    between atoms: C_3  and  C_38
    4  A    between atoms: C_8  and  C_27
    5  A    between atoms: C_8  and  C_57
    6  A    between atoms: C_10  and  N_37
    7  A    between atoms: C_10  and  C_50
    8  A    between atoms: C_13  and  C_18
    9  A    between atoms: C_13  and  N_53
   10  A    between atoms: N_14  and  C_23
   11  A    between atoms: N_14  and  N_53
   12  A    between atoms: C_17  and  C_44
   13  A    between atoms: N_22  and  C_39
   14  A    between atoms: N_22  and  C_44
   15  A    between atoms: C_23  and  C_32
   16  A    between atoms: O_29  and  C_57
   17  A    between atoms: C_30  and  C_39
   18  A    between atoms: C_32  and  C_40
   19  A    between atoms: C_34  and  C_47
   20  A    between atoms: N_37  and  C_41
                            x       y       z     vdW  Elec       q    Type
                         _______ _______ _______ _____ _____    ______ ____

>  <TORSDO>
F 20

$$$$
=
 OpenBabel11072409453D

 59 65  0  0  1  0  0  0  0  0999 V2000
  195.8470  174.5470  143.1860 C   0  0  1  0  0  3  0  0  0  0  0  0
  196.6380  176.8080  143.3860 N   0  0  0  0  0  2  0  0  0  0  0  0
  195.9340  175.7470  144.1050 C   0  0  1  0  0  3  0  0  0  0  0  0
  196.8340  174.8930  142.1100 C   0  0  1  0  0  3  0  0  0  0  0  0
  196.3580  174.4070  140.8250 N   0  0  0  0  0  1  0  0  0  0  0  0
  196.9340  176.3470  142.0880 N   0  0  0  0  0  2  0  0  0  0  0  0
  192.2640  177.1420  144.2410 C   0  0  0  0  0  2  0  0  0  0  0  0
  193.4570  176.3720  143.6880 C   0  0  0  0  0  2  0  0  0  0  0  0
  191.8750  176.4210  146.6440 C   0  0  0  0  0  2  0  0  0  0  0  0
  191.4690  176.2280  145.1710 C   0  0  1  0  0  3  0  0  0  0  0  0
  194.5900  176.2220  144.7140 C   0  0  1  0  0  3  0  0  0  0  0  0
  193.3880  176.3840  146.8940 C   0  0  0  0  0  2  0  0  0  0  0  0
  194.1430  175.4460  145.9610 C   0  0  0  0  0  2  0  0  0  0  0  0
  188.0870  175.7270  147.1850 O   0  0  0  0  0  0  0  0  0  0  0  0
  189.7740  177.3970  147.1320 O   0  0  0  0  0  0  0  0  0  0  0  0
  189.9440  176.2890  144.9480 C   0  0  1  0  0  0  0  0  0  0  0  0
  189.3290  174.9270  145.3120 C   0  0  0  0  0  2  0  0  0  0  0  0
  188.4270  177.0800  146.9000 C   0  0  2  0  0  0  0  0  0  0  0  0
  187.5810  178.0540  147.3800 F   0  0  0  0  0  0  0  0  0  0  0  0
  189.3380  177.4530  145.7770 C   0  0  1  0  0  3  0  0  0  0  0  0
  189.1060  174.8380  146.8090 C   0  0  0  0  0  2  0  0  0  0  0  0
  189.6400  176.5530  143.4710 C   0  0  0  0  0  2  0  0  0  0  0  0
  189.1400  177.8460  143.2920 O   0  0  0  0  0  0  0  0  0  0  0  0
  188.3880  177.8050  142.1050 C   0  0  1  0  0  3  0  0  0  0  0  0
  187.3560  176.6900  142.2250 C   0  0  0  0  0  2  0  0  0  0  0  0
  186.9170  178.1230  142.3790 C   0  0  1  0  0  0  0  0  0  0  0  0
  185.7430  177.4430  144.3600 O   0  0  0  0  0  1  0  0  0  0  0  0
  185.6930  179.6470  143.7550 O   0  0  0  0  0  1  0  0  0  0  0  0
  186.4770  178.4890  143.7930 C   0  0  0  0  0  3  0  0  0  0  0  0
  186.0600  178.5900  141.2760 N   0  0  0  0  0  2  0  0  0  0  0  0
  185.0090  177.6490  140.9030 C   0  0  0  0  0  2  0  0  0  0  0  0
  183.7520  178.3980  140.5060 C   0  0  0  0  0  1  0  0  0  0  0  0
  196.1800  173.2730  143.9220 C   0  0  0  0  0  0  0  0  0  0  0  0
  197.0880  173.2900  144.7310 O   0  0  0  0  0  0  0  0  0  0  0  0
  195.1760  169.3950  144.3330 S   0  0  0  0  0  0  0  0  0  0  0  0
  195.3900  172.0070  143.7180 C   0  0  2  0  0  3  0  0  0  0  0  0
  193.8210  170.5580  144.6860 C   0  0  1  0  0  3  0  0  0  0  0  0
  194.3200  171.9240  144.7050 N   0  0  0  0  0  2  0  0  0  0  0  0
  196.2560  170.7520  143.7920 C   0  0  2  0  0  3  0  0  0  0  0  0
  196.9300  170.4330  142.4390 C   0  0  1  0  0  3  0  0  0  0  0  0
  197.6150  169.2180  142.5120 O   0  0  0  0  0  1  0  0  0  0  0  0
  195.3500  169.1160  141.2030 O   0  0  0  0  0  1  0  0  0  0  0  0
  195.9360  170.3860  141.2630 C   0  0  0  0  0  0  0  0  0  0  0  0
  194.9360  171.3450  141.4530 O   0  0  0  0  0  1  0  0  0  0  0  0
  196.6430  170.6450  140.0130 N   0  0  0  0  0  2  0  0  0  0  0  0
  196.1450  169.7860  139.0220 N   0  0  0  0  0  2  0  0  0  0  0  0
  195.5260  170.2930  137.8380 C   0  0  0  0  0  0  0  0  0  0  0  0
  195.5260  169.4030  136.4560 S   0  0  0  0  0  0  0  0  0  0  0  0
  193.6720  172.0110  138.2640 C   0  0  2  0  0  3  0  0  0  0  0  0
  194.0080  171.9750  136.7860 C   0  0  0  0  0  2  0  0  0  0  0  0
  195.1120  171.7360  137.7960 C   0  0  2  0  0  3  0  0  0  0  0  0
  192.6450  170.5560  138.6750 S   0  0  0  0  0  1  0  0  0  0  0  0
  192.4350  169.0150  142.8950 S   0  0  0  0  0  0  0  0  0  0  0  0
  192.6750  170.4070  143.7210 C   0  0  0  0  0  0  0  0  0  0  0  0
  191.7520  171.4770  143.5410 N   0  0  0  0  0  2  0  0  0  0  0  0
  190.5780  171.3600  142.6950 C   0  0  0  0  0  2  0  0  0  0  0  0
  191.5230  173.5820  142.2150 C   0  0  0  0  0  1  0  0  0  0  0  0
  190.3850  172.6380  141.9040 C   0  0  2  0  0  3  0  0  0  0  0  0
  189.1640  173.2340  142.2440 O   0  0  0  0  0  1  0  0  0  0  0  0
  1 33  1  1  0  0  0
  1  3  1  0  0  0  0
  3  2  1  6  0  0  0
  3 11  1  0  0  0  0
  4  5  1  6  0  0  0
  4  1  1  0  0  0  0
  6  4  1  0  0  0  0
  6  2  1  0  0  0  0
  8  7  1  0  0  0  0
  9 12  1  0  0  0  0
 10  7  1  6  0  0  0
 10  9  1  0  0  0  0
 11  8  1  6  0  0  0
 11 13  1  0  0  0  0
 13 12  1  0  0  0  0
 16 22  1  6  0  0  0
 16 10  1  0  0  0  0
 16 17  1  0  0  0  0
 16 20  1  0  0  0  0
 17 21  1  0  0  0  0
 18 15  1  0  0  0  0
 18 14  1  0  0  0  0
 18 19  1  1  0  0  0
 20 18  1  0  0  0  0
 20 15  1  1  0  0  0
 21 14  1  0  0  0  0
 23 22  1  0  0  0  0
 24 25  1  0  0  0  0
 24 26  1  0  0  0  0
 24 23  1  1  0  0  0
 25 26  1  0  0  0  0
 26 30  1  6  0  0  0
 26 29  1  0  0  0  0
 28 29  1  0  0  0  0
 29 27  1  0  0  0  0
 31 30  1  0  0  0  0
 32 31  1  0  0  0  0
 33 34  2  0  0  0  0
 35 37  1  0  0  0  0
 36 39  1  0  0  0  0
 36 33  1  1  0  0  0
 36 38  1  0  0  0  0
 37 54  1  6  0  0  0
 37 38  1  0  0  0  0
 39 40  1  6  0  0  0
 39 35  1  0  0  0  0
 40 41  1  1  0  0  0
 42 43  1  0  0  0  0
 43 44  1  0  0  0  0
 43 40  1  0  0  0  0
 45 43  1  0  0  0  0
 46 45  1  0  0  0  0
 47 46  1  0  0  0  0
 48 47  2  0  0  0  0
 49 52  1  6  0  0  0
 50 51  1  0  0  0  0
 50 49  1  0  0  0  0
 51 47  1  6  0  0  0
 51 49  1  0  0  0  0
 53 54  2  0  0  0  0
 55 54  1  0  0  0  0
 56 55  1  0  0  0  0
 58 57  1  1  0  0  0
 58 59  1  0  0  0  0
 58 56  1  0  0  0  0
M  END
>  <MODEL>
5

>  <REMARK>
 VINA RESULT:      -6.3      2.964      5.143
  Name = 
  20 active torsions:
  status: ('A' for Active; 'I' for Inactive)
    1  A    between atoms: C_1  and  O_29
    2  A    between atoms: C_3  and  C_6
    3  A    between atoms: C_3  and  C_38
    4  A    between atoms: C_8  and  C_27
    5  A    between atoms: C_8  and  C_57
    6  A    between atoms: C_10  and  N_37
    7  A    between atoms: C_10  and  C_50
    8  A    between atoms: C_13  and  C_18
    9  A    between atoms: C_13  and  N_53
   10  A    between atoms: N_14  and  C_23
   11  A    between atoms: N_14  and  N_53
   12  A    between atoms: C_17  and  C_44
   13  A    between atoms: N_22  and  C_39
   14  A    between atoms: N_22  and  C_44
   15  A    between atoms: C_23  and  C_32
   16  A    between atoms: O_29  and  C_57
   17  A    between atoms: C_30  and  C_39
   18  A    between atoms: C_32  and  C_40
   19  A    between atoms: C_34  and  C_47
   20  A    between atoms: N_37  and  C_41
                            x       y       z     vdW  Elec       q    Type
                         _______ _______ _______ _____ _____    ______ ____

>  <TORSDO>
F 20

$$$$
=
 OpenBabel11072409453D

 59 65  0  0  1  0  0  0  0  0999 V2000
  192.4740  171.3110  141.5230 C   0  0  1  0  0  3  0  0  0  0  0  0
  190.2680  170.4150  141.1890 N   0  0  0  0  0  2  0  0  0  0  0  0
  191.0570  171.6450  141.1100 C   0  0  1  0  0  3  0  0  0  0  0  0
  192.4800  169.8110  141.4710 C   0  0  1  0  0  3  0  0  0  0  0  0
  193.3200  169.2810  142.5330 N   0  0  0  0  0  1  0  0  0  0  0  0
  191.1010  169.3830  141.6650 N   0  0  0  0  0  2  0  0  0  0  0  0
  190.1950  174.0640  144.0840 C   0  0  0  0  0  2  0  0  0  0  0  0
  191.0460  173.1350  143.2280 C   0  0  0  0  0  2  0  0  0  0  0  0
  189.1910  175.8540  142.5890 C   0  0  0  0  0  2  0  0  0  0  0  0
  190.3320  175.4910  143.5580 C   0  0  1  0  0  3  0  0  0  0  0  0
  190.4010  172.8290  141.8680 C   0  0  1  0  0  3  0  0  0  0  0  0
  188.9420  174.8160  141.4870 C   0  0  0  0  0  2  0  0  0  0  0  0
  190.2020  174.0950  141.0240 C   0  0  0  0  0  2  0  0  0  0  0  0
  192.5440  176.0760  146.8000 O   0  0  0  0  0  0  0  0  0  0  0  0
  192.9550  176.1150  144.4620 O   0  0  0  0  0  0  0  0  0  0  0  0
  190.5470  176.5440  144.6650 C   0  0  1  0  0  0  0  0  0  0  0  0
  190.2930  175.8900  146.0340 C   0  0  0  0  0  2  0  0  0  0  0  0
  192.9250  176.8420  145.6620 C   0  0  2  0  0  0  0  0  0  0  0  0
  194.0240  177.6590  145.7930 F   0  0  0  0  0  0  0  0  0  0  0  0
  191.9740  177.1430  144.5500 C   0  0  1  0  0  3  0  0  0  0  0  0
  191.5320  175.1510  146.4980 C   0  0  0  0  0  2  0  0  0  0  0  0
  189.5400  177.6870  144.5040 C   0  0  0  0  0  2  0  0  0  0  0  0
  188.5550  177.6210  145.4940 O   0  0  0  0  0  0  0  0  0  0  0  0
  187.3260  177.6970  144.8170 C   0  0  1  0  0  3  0  0  0  0  0  0
  186.4280  176.5720  145.3170 C   0  0  0  0  0  2  0  0  0  0  0  0
  186.1830  177.9800  145.7920 C   0  0  1  0  0  0  0  0  0  0  0  0
  185.9750  177.1510  148.0350 O   0  0  0  0  0  1  0  0  0  0  0  0
  185.9280  179.4100  147.6900 O   0  0  0  0  0  1  0  0  0  0  0  0
  186.4900  178.2010  147.2690 C   0  0  0  0  0  3  0  0  0  0  0  0
  184.9240  178.5530  145.2840 N   0  0  0  0  0  2  0  0  0  0  0  0
  185.0810  179.3430  144.0670 C   0  0  0  0  0  2  0  0  0  0  0  0
  184.4270  178.6370  142.8960 C   0  0  0  0  0  1  0  0  0  0  0  0
  193.4760  171.9490  140.5920 C   0  0  0  0  0  0  0  0  0  0  0  0
  193.0640  172.6500  139.6870 O   0  0  0  0  0  0  0  0  0  0  0  0
  197.4100  172.5640  139.9880 S   0  0  0  0  0  0  0  0  0  0  0  0
  194.9600  171.7830  140.7870 C   0  0  2  0  0  3  0  0  0  0  0  0
  196.8840  172.7440  141.7220 C   0  0  1  0  0  3  0  0  0  0  0  0
  195.4330  172.7000  141.8160 N   0  0  0  0  0  2  0  0  0  0  0  0
  195.7530  172.0020  139.5000 C   0  0  2  0  0  3  0  0  0  0  0  0
  195.8220  170.7210  138.6380 C   0  0  1  0  0  3  0  0  0  0  0  0
  195.3160  169.6300  139.3480 O   0  0  0  0  0  1  0  0  0  0  0  0
  194.9310  172.2040  136.9760 O   0  0  0  0  0  1  0  0  0  0  0  0
  195.0690  170.8500  137.3010 C   0  0  0  0  0  0  0  0  0  0  0  0
  195.7900  170.2060  136.2900 O   0  0  0  0  0  1  0  0  0  0  0  0
  193.7440  170.2510  137.4250 N   0  0  0  0  0  2  0  0  0  0  0  0
  192.9820  170.5930  136.2960 N   0  0  0  0  0  2  0  0  0  0  0  0
  191.5600  170.4630  136.2890 C   0  0  0  0  0  0  0  0  0  0  0  0
  190.8190  169.3940  137.2950 S   0  0  0  0  0  0  0  0  0  0  0  0
  190.3670  172.5730  135.4540 C   0  0  2  0  0  3  0  0  0  0  0  0
  189.3630  171.4470  135.6190 C   0  0  0  0  0  2  0  0  0  0  0  0
  190.7770  171.1130  135.1850 C   0  0  2  0  0  3  0  0  0  0  0  0
  190.7710  173.2540  137.1000 S   0  0  0  0  0  1  0  0  0  0  0  0
  197.7890  170.1880  142.1100 S   0  0  0  0  0  0  0  0  0  0  0  0
  197.5220  171.7190  142.6200 C   0  0  0  0  0  0  0  0  0  0  0  0
  197.9410  172.0860  143.9320 N   0  0  0  0  0  2  0  0  0  0  0  0
  197.8780  173.4520  144.4170 C   0  0  0  0  0  2  0  0  0  0  0  0
  196.0790  174.9510  145.1780 C   0  0  0  0  0  1  0  0  0  0  0  0
  196.7240  173.6010  145.3880 C   0  0  2  0  0  3  0  0  0  0  0  0
  197.1870  173.4920  146.7060 O   0  0  0  0  0  1  0  0  0  0  0  0
  1 33  1  6  0  0  0
  2  6  1  0  0  0  0
  3  2  1  1  0  0  0
  3  1  1  0  0  0  0
  3 11  1  0  0  0  0
  4  1  1  0  0  0  0
  4  6  1  0  0  0  0
  4  5  1  1  0  0  0
  8  7  1  0  0  0  0
 10  9  1  1  0  0  0
 10  7  1  0  0  0  0
 10 16  1  0  0  0  0
 11 13  1  6  0  0  0
 11  8  1  0  0  0  0
 12  9  1  0  0  0  0
 13 12  1  0  0  0  0
 15 18  1  0  0  0  0
 16 22  1  6  0  0  0
 16 17  1  0  0  0  0
 17 21  1  0  0  0  0
 18 19  1  1  0  0  0
 18 14  1  0  0  0  0
 20 15  1  6  0  0  0
 20 16  1  0  0  0  0
 20 18  1  0  0  0  0
 21 14  1  0  0  0  0
 22 23  1  0  0  0  0
 24 25  1  0  0  0  0
 24 23  1  1  0  0  0
 24 26  1  0  0  0  0
 25 26  1  0  0  0  0
 26 30  1  6  0  0  0
 26 29  1  0  0  0  0
 29 28  1  0  0  0  0
 29 27  1  0  0  0  0
 31 30  1  0  0  0  0
 32 31  1  0  0  0  0
 34 33  2  0  0  0  0
 35 37  1  0  0  0  0
 36 33  1  6  0  0  0
 36 38  1  0  0  0  0
 37 38  1  0  0  0  0
 37 54  1  1  0  0  0
 39 40  1  1  0  0  0
 39 35  1  0  0  0  0
 39 36  1  0  0  0  0
 40 41  1  1  0  0  0
 42 43  1  0  0  0  0
 43 45  1  0  0  0  0
 43 40  1  0  0  0  0
 44 43  1  0  0  0  0
 46 45  1  0  0  0  0
 47 46  1  0  0  0  0
 47 48  2  0  0  0  0
 49 50  1  0  0  0  0
 49 52  1  1  0  0  0
 51 49  1  0  0  0  0
 51 50  1  0  0  0  0
 51 47  1  1  0  0  0
 53 54  2  0  0  0  0
 54 55  1  0  0  0  0
 55 56  1  0  0  0  0
 56 58  1  0  0  0  0
 58 57  1  1  0  0  0
 58 59  1  0  0  0  0
M  END
>  <MODEL>
6

>  <REMARK>
 VINA RESULT:      -6.2      3.562      6.385
  Name = 
  20 active torsions:
  status: ('A' for Active; 'I' for Inactive)
    1  A    between atoms: C_1  and  O_29
    2  A    between atoms: C_3  and  C_6
    3  A    between atoms: C_3  and  C_38
    4  A    between atoms: C_8  and  C_27
    5  A    between atoms: C_8  and  C_57
    6  A    between atoms: C_10  and  N_37
    7  A    between atoms: C_10  and  C_50
    8  A    between atoms: C_13  and  C_18
    9  A    between atoms: C_13  and  N_53
   10  A    between atoms: N_14  and  C_23
   11  A    between atoms: N_14  and  N_53
   12  A    between atoms: C_17  and  C_44
   13  A    between atoms: N_22  and  C_39
   14  A    between atoms: N_22  and  C_44
   15  A    between atoms: C_23  and  C_32
   16  A    between atoms: O_29  and  C_57
   17  A    between atoms: C_30  and  C_39
   18  A    between atoms: C_32  and  C_40
   19  A    between atoms: C_34  and  C_47
   20  A    between atoms: N_37  and  C_41
                            x       y       z     vdW  Elec       q    Type
                         _______ _______ _______ _____ _____    ______ ____

>  <TORSDO>
F 20

$$$$
=
 OpenBabel11072409453D

 59 65  0  0  1  0  0  0  0  0999 V2000
  193.5140  174.9360  137.4780 C   0  0  1  0  0  3  0  0  0  0  0  0
  195.7560  174.2110  137.9550 N   0  0  0  0  0  2  0  0  0  0  0  0
  194.3990  174.2540  138.4990 C   0  0  1  0  0  3  0  0  0  0  0  0
  194.3730  174.9230  136.2470 C   0  0  1  0  0  3  0  0  0  0  0  0
  194.1570  176.1370  135.4780 N   0  0  0  0  0  1  0  0  0  0  0  0
  195.7550  174.8610  136.7050 N   0  0  0  0  0  2  0  0  0  0  0  0
  193.3860  174.6070  142.2790 C   0  0  0  0  0  2  0  0  0  0  0  0
  193.7280  173.8980  140.9740 C   0  0  0  0  0  2  0  0  0  0  0  0
  195.2420  176.2520  142.8200 C   0  0  0  0  0  2  0  0  0  0  0  0
  194.6710  174.8430  143.0690 C   0  0  1  0  0  3  0  0  0  0  0  0
  194.3440  174.8440  139.9320 C   0  0  1  0  0  3  0  0  0  0  0  0
  195.3530  176.6380  141.3400 C   0  0  0  0  0  2  0  0  0  0  0  0
  195.6600  175.4640  140.4190 C   0  0  0  0  0  2  0  0  0  0  0  0
  196.1320  172.2560  145.6990 O   0  0  0  0  0  0  0  0  0  0  0  0
  196.9870  174.1630  144.5730 O   0  0  0  0  0  0  0  0  0  0  0  0
  194.5540  174.4910  144.5660 C   0  0  1  0  0  0  0  0  0  0  0  0
  194.1060  173.0260  144.7020 C   0  0  0  0  0  2  0  0  0  0  0  0
  196.6460  173.5790  145.8030 C   0  0  2  0  0  0  0  0  0  0  0  0
  197.6080  173.8060  146.7610 F   0  0  0  0  0  0  0  0  0  0  0  0
  195.9060  174.7650  145.2780 C   0  0  1  0  0  3  0  0  0  0  0  0
  195.3000  172.1000  144.5790 C   0  0  0  0  0  2  0  0  0  0  0  0
  193.4850  175.3650  145.2290 C   0  0  0  0  0  2  0  0  0  0  0  0
  192.9540  174.7290  146.3540 O   0  0  0  0  0  0  0  0  0  0  0  0
  191.9860  175.6080  146.8700 C   0  0  1  0  0  3  0  0  0  0  0  0
  191.3630  176.3740  145.7100 C   0  0  0  0  0  2  0  0  0  0  0  0
  190.5930  175.2500  146.3530 C   0  0  1  0  0  0  0  0  0  0  0  0
  190.2140  174.4220  144.1310 O   0  0  0  0  0  1  0  0  0  0  0  0
  189.3140  173.2830  145.8960 O   0  0  0  0  0  1  0  0  0  0  0  0
  190.4130  174.0280  145.4580 C   0  0  0  0  0  3  0  0  0  0  0  0
  189.4060  175.7090  147.0950 N   0  0  0  0  0  2  0  0  0  0  0  0
  189.0500  177.1010  146.8410 C   0  0  0  0  0  2  0  0  0  0  0  0
  187.5470  177.2390  146.6950 C   0  0  0  0  0  1  0  0  0  0  0  0
  192.2090  174.1970  137.3090 C   0  0  0  0  0  0  0  0  0  0  0  0
  191.2830  174.7720  136.7700 O   0  0  0  0  0  0  0  0  0  0  0  0
  190.4320  170.6090  137.7300 S   0  0  0  0  0  0  0  0  0  0  0  0
  192.0460  172.7640  137.7380 C   0  0  2  0  0  3  0  0  0  0  0  0
  192.1050  170.5330  137.0160 C   0  0  1  0  0  3  0  0  0  0  0  0
  192.5870  171.8730  136.7200 N   0  0  0  0  0  2  0  0  0  0  0  0
  190.5920  172.3940  138.0230 C   0  0  2  0  0  3  0  0  0  0  0  0
  190.1690  172.7710  139.4610 C   0  0  1  0  0  3  0  0  0  0  0  0
  191.0720  173.6850  140.0080 O   0  0  0  0  0  1  0  0  0  0  0  0
  188.5360  174.2150  138.4590 O   0  0  0  0  0  1  0  0  0  0  0  0
  188.7450  173.3520  139.5410 C   0  0  0  0  0  0  0  0  0  0  0  0
  187.8090  172.3140  139.4890 O   0  0  0  0  0  1  0  0  0  0  0  0
  188.5910  174.0990  140.7850 N   0  0  0  0  0  2  0  0  0  0  0  0
  188.0690  175.3690  140.4920 N   0  0  0  0  0  2  0  0  0  0  0  0
  187.4740  176.1830  141.5030 C   0  0  0  0  0  0  0  0  0  0  0  0
  186.7150  175.4900  142.7860 S   0  0  0  0  0  0  0  0  0  0  0  0
  188.4720  178.5270  141.7890 C   0  0  2  0  0  3  0  0  0  0  0  0
  187.1620  178.4320  142.5460 C   0  0  0  0  0  2  0  0  0  0  0  0
  187.3210  177.6550  141.2540 C   0  0  2  0  0  3  0  0  0  0  0  0
  189.7740  177.6760  142.7470 S   0  0  0  0  0  1  0  0  0  0  0  0
  192.5550  168.6180  138.9220 S   0  0  0  0  0  0  0  0  0  0  0  0
  193.0680  169.7870  137.8990 C   0  0  0  0  0  0  0  0  0  0  0  0
  194.4640  170.0690  137.8270 N   0  0  0  0  0  2  0  0  0  0  0  0
  195.2500  169.8130  136.6350 C   0  0  0  0  0  2  0  0  0  0  0  0
  197.5420  170.3850  137.3300 C   0  0  0  0  0  1  0  0  0  0  0  0
  196.6000  169.2440  137.0220 C   0  0  2  0  0  3  0  0  0  0  0  0
  197.1140  168.4710  135.9730 O   0  0  0  0  0  1  0  0  0  0  0  0
  1 33  1  6  0  0  0
  1  3  1  0  0  0  0
  3  2  1  6  0  0  0
  3 11  1  0  0  0  0
  4  5  1  1  0  0  0
  4  6  1  0  0  0  0
  4  1  1  0  0  0  0
  6  2  1  0  0  0  0
  8  7  1  0  0  0  0
  9 10  1  0  0  0  0
 10  7  1  1  0  0  0
 10 16  1  0  0  0  0
 11 13  1  1  0  0  0
 11  8  1  0  0  0  0
 12  9  1  0  0  0  0
 13 12  1  0  0  0  0
 14 18  1  0  0  0  0
 15 18  1  0  0  0  0
 16 17  1  0  0  0  0
 16 22  1  1  0  0  0
 16 20  1  0  0  0  0
 18 19  1  1  0  0  0
 20 15  1  6  0  0  0
 20 18  1  0  0  0  0
 21 17  1  0  0  0  0
 21 14  1  0  0  0  0
 22 23  1  0  0  0  0
 24 23  1  6  0  0  0
 25 26  1  0  0  0  0
 25 24  1  0  0  0  0
 26 29  1  6  0  0  0
 26 24  1  0  0  0  0
 26 30  1  0  0  0  0
 27 29  1  0  0  0  0
 29 28  1  0  0  0  0
 31 30  1  0  0  0  0
 32 31  1  0  0  0  0
 34 33  2  0  0  0  0
 35 39  1  0  0  0  0
 36 33  1  6  0  0  0
 36 39  1  0  0  0  0
 37 35  1  0  0  0  0
 37 54  1  1  0  0  0
 38 37  1  0  0  0  0
 38 36  1  0  0  0  0
 39 40  1  1  0  0  0
 40 43  1  0  0  0  0
 40 41  1  6  0  0  0
 42 43  1  0  0  0  0
 43 45  1  0  0  0  0
 44 43  1  0  0  0  0
 46 45  1  0  0  0  0
 46 47  1  0  0  0  0
 47 48  2  0  0  0  0
 49 50  1  0  0  0  0
 49 52  1  1  0  0  0
 51 47  1  1  0  0  0
 51 49  1  0  0  0  0
 51 50  1  0  0  0  0
 54 53  2  0  0  0  0
 55 54  1  0  0  0  0
 56 58  1  0  0  0  0
 56 55  1  0  0  0  0
 58 57  1  6  0  0  0
 59 58  1  0  0  0  0
M  END
>  <MODEL>
7

>  <REMARK>
 VINA RESULT:      -6.1      4.020      8.754
  Name = 
  20 active torsions:
  status: ('A' for Active; 'I' for Inactive)
    1  A    between atoms: C_1  and  O_29
    2  A    between atoms: C_3  and  C_6
    3  A    between atoms: C_3  and  C_38
    4  A    between atoms: C_8  and  C_27
    5  A    between atoms: C_8  and  C_57
    6  A    between atoms: C_10  and  N_37
    7  A    between atoms: C_10  and  C_50
    8  A    between atoms: C_13  and  C_18
    9  A    between atoms: C_13  and  N_53
   10  A    between atoms: N_14  and  C_23
   11  A    between atoms: N_14  and  N_53
   12  A    between atoms: C_17  and  C_44
   13  A    between atoms: N_22  and  C_39
   14  A    between atoms: N_22  and  C_44
   15  A    between atoms: C_23  and  C_32
   16  A    between atoms: O_29  and  C_57
   17  A    between atoms: C_30  and  C_39
   18  A    between atoms: C_32  and  C_40
   19  A    between atoms: C_34  and  C_47
   20  A    between atoms: N_37  and  C_41
                            x       y       z     vdW  Elec       q    Type
                         _______ _______ _______ _____ _____    ______ ____

>  <TORSDO>
F 20

$$$$
=
 OpenBabel11072409453D

 59 65  0  0  1  0  0  0  0  0999 V2000
  194.1930  174.6090  144.8700 C   0  0  1  0  0  3  0  0  0  0  0  0
  193.1780  176.1670  146.3940 N   0  0  0  0  0  2  0  0  0  0  0  0
  192.8810  175.2060  145.3320 C   0  0  1  0  0  3  0  0  0  0  0  0
  195.1360  175.0200  145.9630 C   0  0  1  0  0  3  0  0  0  0  0  0
  196.4470  175.3080  145.4030 N   0  0  0  0  0  1  0  0  0  0  0  0
  194.5760  176.2220  146.5660 N   0  0  0  0  0  2  0  0  0  0  0  0
  190.4720  175.3050  142.2290 C   0  0  0  0  0  2  0  0  0  0  0  0
  191.0840  174.7730  143.5190 C   0  0  0  0  0  2  0  0  0  0  0  0
  189.7990  177.7270  142.5880 C   0  0  0  0  0  2  0  0  0  0  0  0
  189.3310  176.2590  142.5750 C   0  0  1  0  0  3  0  0  0  0  0  0
  191.9880  175.8030  144.2130 C   0  0  1  0  0  3  0  0  0  0  0  0
  191.0750  177.9780  143.4010 C   0  0  0  0  0  2  0  0  0  0  0  0
  191.2200  177.0690  144.6160 C   0  0  0  0  0  2  0  0  0  0  0  0
  185.4320  176.9770  142.7290 O   0  0  0  0  0  0  0  0  0  0  0  0
  187.3670  178.3040  142.3660 O   0  0  0  0  0  0  0  0  0  0  0  0
  188.0570  176.0350  141.7350 C   0  0  1  0  0  0  0  0  0  0  0  0
  187.0450  175.2280  142.5660 C   0  0  0  0  0  2  0  0  0  0  0  0
  186.1660  177.8090  141.8360 C   0  0  2  0  0  0  0  0  0  0  0  0
  185.4630  178.7830  141.1630 F   0  0  0  0  0  0  0  0  0  0  0  0
  187.4860  177.4010  141.2710 C   0  0  1  0  0  3  0  0  0  0  0  0
  186.2730  176.1500  143.4890 C   0  0  0  0  0  2  0  0  0  0  0  0
  188.3900  175.2130  140.4870 C   0  0  0  0  0  2  0  0  0  0  0  0
  188.2860  173.8440  140.7530 O   0  0  0  0  0  0  0  0  0  0  0  0
  188.1910  173.2160  139.5000 C   0  0  1  0  0  3  0  0  0  0  0  0
  189.3870  173.6380  138.6560 C   0  0  0  0  0  2  0  0  0  0  0  0
  189.3670  172.2650  139.2750 C   0  0  1  0  0  0  0  0  0  0  0  0
  191.5480  172.8150  140.1150 O   0  0  0  0  0  1  0  0  0  0  0  0
  190.7290  170.7120  140.4780 O   0  0  0  0  0  1  0  0  0  0  0  0
  190.3970  172.0670  140.3820 C   0  0  0  0  0  3  0  0  0  0  0  0
  189.2420  171.1820  138.2840 N   0  0  0  0  0  2  0  0  0  0  0  0
  189.8710  171.4780  137.0010 C   0  0  0  0  0  2  0  0  0  0  0  0
  190.7730  170.3340  136.5830 C   0  0  0  0  0  1  0  0  0  0  0  0
  194.0810  173.1130  144.7040 C   0  0  0  0  0  0  0  0  0  0  0  0
  193.0400  172.5700  145.0220 O   0  0  0  0  0  0  0  0  0  0  0  0
  197.7340  172.3110  143.2120 S   0  0  0  0  0  0  0  0  0  0  0  0
  195.1960  172.2940  144.1110 C   0  0  2  0  0  3  0  0  0  0  0  0
  197.2250  171.2110  144.5700 C   0  0  1  0  0  3  0  0  0  0  0  0
  195.9920  171.6910  145.1730 N   0  0  0  0  0  2  0  0  0  0  0  0
  196.1020  173.1080  143.1900 C   0  0  2  0  0  3  0  0  0  0  0  0
  195.5370  173.1990  141.7540 C   0  0  1  0  0  3  0  0  0  0  0  0
  194.1930  172.8200  141.7370 O   0  0  0  0  0  1  0  0  0  0  0  0
  194.5630  174.8670  140.3310 O   0  0  0  0  0  1  0  0  0  0  0  0
  195.6770  174.6020  141.1360 C   0  0  0  0  0  0  0  0  0  0  0  0
  195.7480  175.5610  142.1520 O   0  0  0  0  0  1  0  0  0  0  0  0
  196.8830  174.6570  140.3150 N   0  0  0  0  0  2  0  0  0  0  0  0
  196.5290  174.4590  138.9720 N   0  0  0  0  0  2  0  0  0  0  0  0
  197.2580  173.5620  138.1330 C   0  0  0  0  0  0  0  0  0  0  0  0
  197.8630  172.1610  138.7430 S   0  0  0  0  0  0  0  0  0  0  0  0
  196.6720  173.7680  135.6460 C   0  0  2  0  0  3  0  0  0  0  0  0
  197.8820  172.8700  135.8150 C   0  0  0  0  0  2  0  0  0  0  0  0
  197.6880  174.0290  136.7720 C   0  0  2  0  0  3  0  0  0  0  0  0
  195.1690  172.8300  136.0920 S   0  0  0  0  0  1  0  0  0  0  0  0
  197.2000  169.3650  142.5450 S   0  0  0  0  0  0  0  0  0  0  0  0
  197.0950  169.7790  144.1250 C   0  0  0  0  0  0  0  0  0  0  0  0
  196.9140  168.7470  145.0910 N   0  0  0  0  0  2  0  0  0  0  0  0
  197.5960  168.7500  146.3720 C   0  0  0  0  0  2  0  0  0  0  0  0
  195.3130  168.7810  147.2940 C   0  0  0  0  0  1  0  0  0  0  0  0
  196.6880  168.1720  147.4390 C   0  0  2  0  0  3  0  0  0  0  0  0
  197.2030  168.4530  148.7120 O   0  0  0  0  0  1  0  0  0  0  0  0
  1 33  1  1  0  0  0
  1  3  1  0  0  0  0
  1  4  1  0  0  0  0
  2  6  1  0  0  0  0
  3  2  1  1  0  0  0
  4  5  1  6  0  0  0
  4  6  1  0  0  0  0
  7  8  1  0  0  0  0
  9 12  1  0  0  0  0
 10  7  1  6  0  0  0
 10  9  1  0  0  0  0
 11  8  1  1  0  0  0
 11 13  1  0  0  0  0
 11  3  1  0  0  0  0
 12 13  1  0  0  0  0
 14 21  1  0  0  0  0
 16 22  1  6  0  0  0
 16 17  1  0  0  0  0
 16 10  1  0  0  0  0
 17 21  1  0  0  0  0
 18 19  1  6  0  0  0
 18 15  1  0  0  0  0
 18 14  1  0  0  0  0
 20 16  1  0  0  0  0
 20 18  1  0  0  0  0
 20 15  1  1  0  0  0
 22 23  1  0  0  0  0
 24 23  1  1  0  0  0
 25 26  1  0  0  0  0
 25 24  1  0  0  0  0
 26 30  1  6  0  0  0
 26 24  1  0  0  0  0
 26 29  1  0  0  0  0
 27 29  1  0  0  0  0
 29 28  1  0  0  0  0
 31 30  1  0  0  0  0
 32 31  1  0  0  0  0
 33 34  2  0  0  0  0
 35 37  1  0  0  0  0
 36 33  1  1  0  0  0
 36 38  1  0  0  0  0
 37 54  1  6  0  0  0
 37 38  1  0  0  0  0
 39 40  1  6  0  0  0
 39 35  1  0  0  0  0
 39 36  1  0  0  0  0
 40 41  1  1  0  0  0
 42 43  1  0  0  0  0
 43 40  1  0  0  0  0
 43 44  1  0  0  0  0
 45 43  1  0  0  0  0
 46 45  1  0  0  0  0
 47 48  2  0  0  0  0
 47 46  1  0  0  0  0
 49 50  1  0  0  0  0
 49 52  1  1  0  0  0
 49 51  1  0  0  0  0
 50 51  1  0  0  0  0
 51 47  1  1  0  0  0
 53 54  2  0  0  0  0
 54 55  1  0  0  0  0
 55 56  1  0  0  0  0
 56 58  1  0  0  0  0
 58 57  1  1  0  0  0
 58 59  1  0  0  0  0
M  END
>  <MODEL>
8

>  <REMARK>
 VINA RESULT:      -6.1      1.843      2.385
  Name = 
  20 active torsions:
  status: ('A' for Active; 'I' for Inactive)
    1  A    between atoms: C_1  and  O_29
    2  A    between atoms: C_3  and  C_6
    3  A    between atoms: C_3  and  C_38
    4  A    between atoms: C_8  and  C_27
    5  A    between atoms: C_8  and  C_57
    6  A    between atoms: C_10  and  N_37
    7  A    between atoms: C_10  and  C_50
    8  A    between atoms: C_13  and  C_18
    9  A    between atoms: C_13  and  N_53
   10  A    between atoms: N_14  and  C_23
   11  A    between atoms: N_14  and  N_53
   12  A    between atoms: C_17  and  C_44
   13  A    between atoms: N_22  and  C_39
   14  A    between atoms: N_22  and  C_44
   15  A    between atoms: C_23  and  C_32
   16  A    between atoms: O_29  and  C_57
   17  A    between atoms: C_30  and  C_39
   18  A    between atoms: C_32  and  C_40
   19  A    between atoms: C_34  and  C_47
   20  A    between atoms: N_37  and  C_41
                            x       y       z     vdW  Elec       q    Type
                         _______ _______ _______ _____ _____    ______ ____

>  <TORSDO>
F 20

$$$$
=
 OpenBabel11072409453D

 59 65  0  0  1  0  0  0  0  0999 V2000
  193.1510  175.7590  145.1850 C   0  0  1  0  0  3  0  0  0  0  0  0
  193.0990  176.5170  147.4660 N   0  0  0  0  0  2  0  0  0  0  0  0
  192.3460  175.7600  146.4660 C   0  0  1  0  0  3  0  0  0  0  0  0
  194.4990  176.2270  145.6520 C   0  0  1  0  0  3  0  0  0  0  0  0
  195.1170  177.0570  144.6300 N   0  0  0  0  0  1  0  0  0  0  0  0
  194.2720  177.0090  146.8600 N   0  0  0  0  0  2  0  0  0  0  0  0
  189.2470  177.7290  145.0670 C   0  0  0  0  0  2  0  0  0  0  0  0
  190.5820  176.9960  145.0290 C   0  0  0  0  0  2  0  0  0  0  0  0
  187.5410  176.2510  146.2300 C   0  0  0  0  0  2  0  0  0  0  0  0
  188.1180  176.7180  144.8800 C   0  0  1  0  0  3  0  0  0  0  0  0
  190.8770  176.2370  146.3320 C   0  0  1  0  0  3  0  0  0  0  0  0
  188.5970  175.8090  147.2500 C   0  0  0  0  0  2  0  0  0  0  0  0
  189.8250  175.1580  146.6240 C   0  0  0  0  0  2  0  0  0  0  0  0
  184.4990  178.3450  144.8640 O   0  0  0  0  0  0  0  0  0  0  0  0
  186.6920  179.1400  145.3100 O   0  0  0  0  0  0  0  0  0  0  0  0
  187.0340  177.1740  143.8810 C   0  0  1  0  0  0  0  0  0  0  0  0
  185.7280  176.4190  144.1800 C   0  0  0  0  0  2  0  0  0  0  0  0
  185.5580  179.2200  144.4870 C   0  0  2  0  0  0  0  0  0  0  0  0
  185.2230  180.5240  144.2010 F   0  0  0  0  0  0  0  0  0  0  0  0
  186.8600  178.7140  143.9610 C   0  0  1  0  0  3  0  0  0  0  0  0
  184.9760  177.1010  145.3060 C   0  0  0  0  0  2  0  0  0  0  0  0
  187.4560  176.8190  142.4520 C   0  0  0  0  0  2  0  0  0  0  0  0
  187.5080  175.4330  142.2810 O   0  0  0  0  0  0  0  0  0  0  0  0
  188.4720  175.2060  141.2830 C   0  0  1  0  0  3  0  0  0  0  0  0
  189.8150  174.9550  141.9580 C   0  0  0  0  0  2  0  0  0  0  0  0
  189.0450  173.7920  141.3900 C   0  0  1  0  0  0  0  0  0  0  0  0
  189.4020  171.7940  142.6720 O   0  0  0  0  0  1  0  0  0  0  0  0
  187.2760  172.3100  142.0110 O   0  0  0  0  0  1  0  0  0  0  0  0
  188.4970  172.8350  142.4430 C   0  0  0  0  0  3  0  0  0  0  0  0
  189.6930  173.1840  140.2150 N   0  0  0  0  0  2  0  0  0  0  0  0
  188.7720  172.4840  139.3260 C   0  0  0  0  0  2  0  0  0  0  0  0
  188.2500  173.4300  138.2620 C   0  0  0  0  0  1  0  0  0  0  0  0
  193.1750  174.3860  144.5580 C   0  0  0  0  0  0  0  0  0  0  0  0
  192.1160  173.8430  144.3110 O   0  0  0  0  0  0  0  0  0  0  0  0
  196.9970  174.0460  143.3360 S   0  0  0  0  0  0  0  0  0  0  0  0
  194.4650  173.7050  144.1870 C   0  0  2  0  0  3  0  0  0  0  0  0
  196.6400  173.2050  144.9110 C   0  0  1  0  0  3  0  0  0  0  0  0
  195.3010  173.5420  145.3700 N   0  0  0  0  0  2  0  0  0  0  0  0
  195.2420  174.4570  143.1090 C   0  0  2  0  0  3  0  0  0  0  0  0
  194.7560  174.0960  141.6870 C   0  0  1  0  0  3  0  0  0  0  0  0
  193.4020  173.7580  141.7090 O   0  0  0  0  0  1  0  0  0  0  0  0
  195.1670  176.4350  141.3450 O   0  0  0  0  0  1  0  0  0  0  0  0
  194.9820  175.2260  140.6650 C   0  0  0  0  0  0  0  0  0  0  0  0
  196.1210  174.9500  139.9020 O   0  0  0  0  0  1  0  0  0  0  0  0
  193.8160  175.3400  139.7950 N   0  0  0  0  0  2  0  0  0  0  0  0
  194.1480  174.8500  138.5230 N   0  0  0  0  0  2  0  0  0  0  0  0
  193.2270  174.9200  137.4330 C   0  0  0  0  0  0  0  0  0  0  0  0
  193.4310  176.0370  136.2440 S   0  0  0  0  0  0  0  0  0  0  0  0
  192.0020  172.7200  136.9500 C   0  0  2  0  0  3  0  0  0  0  0  0
  191.3760  173.8430  136.1460 C   0  0  0  0  0  2  0  0  0  0  0  0
  191.9410  174.1500  137.5190 C   0  0  2  0  0  3  0  0  0  0  0  0
  193.5650  172.2170  136.1500 S   0  0  0  0  0  1  0  0  0  0  0  0
  196.7260  170.7570  146.1390 S   0  0  0  0  0  0  0  0  0  0  0  0
  196.8270  171.7140  144.8160 C   0  0  0  0  0  0  0  0  0  0  0  0
  197.0610  171.1060  143.5480 N   0  0  0  0  0  2  0  0  0  0  0  0
  195.9840  170.7450  142.6450 C   0  0  0  0  0  2  0  0  0  0  0  0
  194.9240  168.5330  142.8570 C   0  0  0  0  0  1  0  0  0  0  0  0
  194.9340  169.9470  143.3910 C   0  0  2  0  0  3  0  0  0  0  0  0
  193.6730  170.5320  143.2180 O   0  0  0  0  0  1  0  0  0  0  0  0
  1 33  1  1  0  0  0
  1  4  1  0  0  0  0
  1  3  1  0  0  0  0
  3  2  1  1  0  0  0
  4  5  1  6  0  0  0
  4  6  1  0  0  0  0
  6  2  1  0  0  0  0
  8  7  1  0  0  0  0
  9 12  1  0  0  0  0
 10  7  1  1  0  0  0
 10  9  1  0  0  0  0
 11  8  1  6  0  0  0
 11  3  1  0  0  0  0
 11 13  1  0  0  0  0
 13 12  1  0  0  0  0
 14 21  1  0  0  0  0
 16 22  1  6  0  0  0
 16 20  1  0  0  0  0
 16 17  1  0  0  0  0
 16 10  1  0  0  0  0
 17 21  1  0  0  0  0
 18 19  1  6  0  0  0
 18 14  1  0  0  0  0
 18 15  1  0  0  0  0
 20 18  1  0  0  0  0
 20 15  1  1  0  0  0
 23 22  1  0  0  0  0
 24 26  1  0  0  0  0
 24 25  1  0  0  0  0
 24 23  1  1  0  0  0
 26 30  1  6  0  0  0
 26 25  1  0  0  0  0
 26 29  1  0  0  0  0
 28 29  1  0  0  0  0
 29 27  1  0  0  0  0
 31 30  1  0  0  0  0
 32 31  1  0  0  0  0
 34 33  2  0  0  0  0
 35 37  1  0  0  0  0
 36 33  1  1  0  0  0
 36 38  1  0  0  0  0
 37 54  1  6  0  0  0
 37 38  1  0  0  0  0
 39 40  1  6  0  0  0
 39 35  1  0  0  0  0
 39 36  1  0  0  0  0
 40 41  1  1  0  0  0
 43 42  1  0  0  0  0
 43 40  1  0  0  0  0
 44 43  1  0  0  0  0
 45 43  1  0  0  0  0
 46 45  1  0  0  0  0
 47 46  1  0  0  0  0
 48 47  2  0  0  0  0
 49 52  1  6  0  0  0
 49 51  1  0  0  0  0
 50 49  1  0  0  0  0
 50 51  1  0  0  0  0
 51 47  1  6  0  0  0
 54 53  2  0  0  0  0
 55 54  1  0  0  0  0
 56 58  1  0  0  0  0
 56 55  1  0  0  0  0
 58 57  1  6  0  0  0
 59 58  1  0  0  0  0
M  END
>  <MODEL>
9

>  <REMARK>
 VINA RESULT:      -6.0      2.007      2.458
  Name = 
  20 active torsions:
  status: ('A' for Active; 'I' for Inactive)
    1  A    between atoms: C_1  and  O_29
    2  A    between atoms: C_3  and  C_6
    3  A    between atoms: C_3  and  C_38
    4  A    between atoms: C_8  and  C_27
    5  A    between atoms: C_8  and  C_57
    6  A    between atoms: C_10  and  N_37
    7  A    between atoms: C_10  and  C_50
    8  A    between atoms: C_13  and  C_18
    9  A    between atoms: C_13  and  N_53
   10  A    between atoms: N_14  and  C_23
   11  A    between atoms: N_14  and  N_53
   12  A    between atoms: C_17  and  C_44
   13  A    between atoms: N_22  and  C_39
   14  A    between atoms: N_22  and  C_44
   15  A    between atoms: C_23  and  C_32
   16  A    between atoms: O_29  and  C_57
   17  A    between atoms: C_30  and  C_39
   18  A    between atoms: C_32  and  C_40
   19  A    between atoms: C_34  and  C_47
   20  A    between atoms: N_37  and  C_41
                            x       y       z     vdW  Elec       q    Type
                         _______ _______ _______ _____ _____    ______ ____

>  <TORSDO>
F 20

$$$$
