=
 OpenBabel11062420473D

 45 52  0  0  1  0  0  0  0  0999 V2000
  193.9150  175.1940  141.1840 C   0  0  0  0  0  2  0  0  0  0  0  0
  193.8870  172.0720  140.1360 C   0  0  1  0  0  3  0  0  0  0  0  0
  195.5410  175.2500  145.8930 O   0  0  0  0  0  0  0  0  0  0  0  0
  197.1340  172.0490  145.4170 C   0  0  0  0  0  2  0  0  0  0  0  0
  192.7560  174.2970  140.7460 C   0  0  0  0  0  2  0  0  0  0  0  0
  193.7750  175.2140  144.1960 C   0  0  0  0  0  0  0  0  0  0  0  0
  192.8640  171.0660  140.3380 N   0  0  0  0  0  2  0  0  0  0  0  0
  191.7770  171.2840  139.6920 C   0  0  1  0  0  3  0  0  0  0  0  0
  192.4370  175.3350  144.1370 C   0  0  0  0  0  3  0  0  0  0  0  0
  195.5430  173.4090  141.3250 O   0  0  0  0  0  0  0  0  0  0  0  0
  195.9500  173.9760  145.4990 C   0  0  0  0  0  0  0  0  0  0  0  0
  194.6530  171.9660  144.7310 C   0  0  0  0  0  2  0  0  0  0  0  0
  194.9390  174.4560  142.0580 C   0  0  2  0  0  3  0  0  0  0  0  0
  196.8970  173.3280  146.0810 N   0  0  0  0  0  0  0  0  0  0  0  0
  194.3690  174.0460  143.4430 C   0  0  1  0  0  3  0  0  0  0  0  0
  194.7620  176.0590  145.0120 C   0  0  1  0  0  3  0  0  0  0  0  0
  193.1840  173.3460  139.6280 C   0  0  2  0  0  3  0  0  0  0  0  0
  196.5680  171.4750  142.9120 C   0  0  0  0  0  2  0  0  0  0  0  0
  194.7140  172.2740  141.4100 C   0  0  2  0  0  3  0  0  0  0  0  0
  190.6480  170.4350  139.8470 N   0  0  0  0  0  1  0  0  0  0  0  0
  191.6950  172.7880  138.7410 S   0  0  0  0  0  0  0  0  0  0  0  0
  195.4910  171.0490  141.9100 C   0  0  1  0  0  3  0  0  0  0  0  0
  195.3500  173.2760  144.3510 C   0  0  1  0  0  0  0  0  0  0  0  0
  196.0950  171.9490  144.2910 C   0  0  2  0  0  0  0  0  0  0  0  0
  190.2830  176.4920  144.0630 C   0  0  2  0  0  3  0  0  0  0  0  0
  191.5910  176.3540  144.8150 C   0  0  2  0  0  3  0  0  0  0  0  0
  191.3760  177.5250  143.8810 C   0  0  0  0  0  2  0  0  0  0  0  0
  189.2270  177.0130  145.0220 C   0  0  0  0  0  2  0  0  0  0  0  0
  187.8130  176.2240  143.3210 C   0  0  0  0  0  2  0  0  0  0  0  0
  186.9200  177.2260  145.3010 C   0  0  0  0  0  2  0  0  0  0  0  0
  185.7970  178.1860  144.9180 C   0  0  2  0  0  3  0  0  0  0  0  0
  185.1100  177.7200  143.6270 C   0  0  2  0  0  3  0  0  0  0  0  0
  187.9920  177.2890  144.3120 N   0  0  0  0  0  0  0  0  0  0  0  0
  186.0160  177.6650  142.5540 O   0  0  0  0  0  0  0  0  0  0  0  0
  186.3050  179.4670  144.7810 F   0  0  0  0  0  0  0  0  0  0  0  0
  186.4890  176.3470  142.5500 C   0  0  0  0  0  2  0  0  0  0  0  0
  183.8810  178.5570  143.2770 C   0  0  0  0  0  2  0  0  0  0  0  0
  183.2940  178.1950  141.9210 C   0  0  0  0  0  1  0  0  0  0  0  0
  193.9310  177.1720  147.1360 C   0  0  0  0  0  1  0  0  0  0  0  0
  195.3350  178.3510  145.5710 O   0  0  0  0  0  1  0  0  0  0  0  0
  194.3560  177.3640  145.6940 C   0  0  1  0  0  3  0  0  0  0  0  0
  196.1630  170.3130  140.7550 C   0  0  0  0  0  2  0  0  0  0  0  0
  197.4020  168.1680  141.0270 O   0  0  0  0  0  0  0  0  0  0  0  0
  195.1200  168.2210  141.2300 O   0  0  0  0  0  1  0  0  0  0  0  0
  196.1920  168.8450  141.0100 C   0  0  0  0  0  0  0  0  0  0  0  0
  2  7  1  1  0  0  0
  2 19  1  0  0  0  0
  4 14  1  0  0  0  0
  5  1  1  0  0  0  0
  6 16  1  0  0  0  0
  8 20  1  1  0  0  0
  8  7  1  0  0  0  0
  9  6  2  0  0  0  0
 10 13  1  0  0  0  0
 11  3  1  0  0  0  0
 11 14  2  0  0  0  0
 13  1  1  6  0  0  0
 13 15  1  0  0  0  0
 15  6  1  1  0  0  0
 15 23  1  0  0  0  0
 16 41  1  1  0  0  0
 16  3  1  0  0  0  0
 17  2  1  0  0  0  0
 17  5  1  1  0  0  0
 19 10  1  6  0  0  0
 19 22  1  0  0  0  0
 21 17  1  0  0  0  0
 21  8  1  0  0  0  0
 22 42  1  6  0  0  0
 22 18  1  0  0  0  0
 23 12  1  1  0  0  0
 23 11  1  0  0  0  0
 24 18  1  6  0  0  0
 24 23  1  0  0  0  0
 24 12  1  0  0  0  0
 24  4  1  0  0  0  0
 25 26  1  0  0  0  0
 25 28  1  1  0  0  0
 26  9  1  6  0  0  0
 27 25  1  0  0  0  0
 27 26  1  0  0  0  0
 29 33  1  0  0  0  0
 31 35  1  6  0  0  0
 31 30  1  0  0  0  0
 32 37  1  6  0  0  0
 32 31  1  0  0  0  0
 33 28  1  0  0  0  0
 33 30  1  0  0  0  0
 34 32  1  0  0  0  0
 36 34  1  0  0  0  0
 36 29  1  0  0  0  0
 38 37  1  0  0  0  0
 40 41  1  0  0  0  0
 41 39  1  1  0  0  0
 42 45  1  0  0  0  0
 45 43  2  0  0  0  0
 45 44  1  0  0  0  0
M  END
>  <MODEL>
1

>  <REMARK>
 VINA RESULT:      -7.1      0.000      0.000
  Name = 
  7 active torsions:
  status: ('A' for Active; 'I' for Inactive)
    1  A    between atoms: C_4  and  C_35
    2  A    between atoms: C_4  and  C_40
    3  A    between atoms: C_5  and  C_43
    4  A    between atoms: C_15  and  C_16
    5  A    between atoms: C_19  and  C_25
    6  A    between atoms: N_21  and  C_43
    7  A    between atoms: C_31  and  C_44
                            x       y       z     vdW  Elec       q    Type
                         _______ _______ _______ _____ _____    ______ ____

>  <TORSDO>
F 7

$$$$
=
 OpenBabel11062420473D

 45 52  0  0  1  0  0  0  0  0999 V2000
  191.5970  172.0230  143.4730 C   0  0  0  0  0  2  0  0  0  0  0  0
  189.1100  174.1740  143.6320 C   0  0  1  0  0  3  0  0  0  0  0  0
  195.7330  174.2880  145.0820 O   0  0  0  0  0  0  0  0  0  0  0  0
  193.7500  176.7170  146.8630 C   0  0  0  0  0  2  0  0  0  0  0  0
  190.7280  172.6290  142.3700 C   0  0  0  0  0  2  0  0  0  0  0  0
  194.1960  173.5430  143.3250 C   0  0  0  0  0  0  0  0  0  0  0  0
  188.7400  175.1930  142.6700 N   0  0  0  0  0  2  0  0  0  0  0  0
  188.2600  174.7320  141.5740 C   0  0  1  0  0  3  0  0  0  0  0  0
  194.1640  173.4760  141.9830 C   0  0  0  0  0  3  0  0  0  0  0  0
  190.8650  173.5470  145.2040 O   0  0  0  0  0  0  0  0  0  0  0  0
  194.7600  175.1630  145.5660 C   0  0  0  0  0  0  0  0  0  0  0  0
  193.0370  176.5650  144.3920 C   0  0  0  0  0  2  0  0  0  0  0  0
  192.0080  173.0500  144.5360 C   0  0  2  0  0  3  0  0  0  0  0  0
  194.9630  175.9670  146.5490 N   0  0  0  0  0  0  0  0  0  0  0  0
  192.9750  174.1360  143.9890 C   0  0  1  0  0  3  0  0  0  0  0  0
  195.3600  173.1830  144.2590 C   0  0  1  0  0  3  0  0  0  0  0  0
  189.2970  172.8560  142.8560 C   0  0  2  0  0  3  0  0  0  0  0  0
  191.2830  175.9660  146.3380 C   0  0  0  0  0  2  0  0  0  0  0  0
  190.3360  174.6080  144.4430 C   0  0  2  0  0  3  0  0  0  0  0  0
  187.9270  175.5970  140.4970 N   0  0  0  0  0  1  0  0  0  0  0  0
  188.2020  172.9590  141.4050 S   0  0  0  0  0  0  0  0  0  0  0  0
  190.1690  175.8760  145.2900 C   0  0  1  0  0  3  0  0  0  0  0  0
  193.3970  175.2100  145.0120 C   0  0  1  0  0  0  0  0  0  0  0  0
  192.6960  176.2830  145.8340 C   0  0  2  0  0  0  0  0  0  0  0  0
  194.9700  173.4930  139.6730 C   0  0  2  0  0  3  0  0  0  0  0  0
  195.2380  172.9870  141.0760 C   0  0  2  0  0  3  0  0  0  0  0  0
  194.6340  172.0630  140.0410 C   0  0  0  0  0  2  0  0  0  0  0  0
  196.2870  173.5420  138.9180 C   0  0  0  0  0  2  0  0  0  0  0  0
  197.5400  174.5600  137.2130 C   0  0  0  0  0  2  0  0  0  0  0  0
  195.2160  174.0770  136.9140 C   0  0  0  0  0  2  0  0  0  0  0  0
  194.5330  175.2740  136.2570 C   0  0  2  0  0  3  0  0  0  0  0  0
  195.5260  176.0370  135.3690 C   0  0  2  0  0  3  0  0  0  0  0  0
  196.2270  174.5370  137.8630 N   0  0  0  0  0  0  0  0  0  0  0  0
  196.6170  176.5180  136.1140 O   0  0  0  0  0  0  0  0  0  0  0  0
  193.9960  176.0980  137.2320 F   0  0  0  0  0  0  0  0  0  0  0  0
  197.5910  175.5180  136.0110 C   0  0  0  0  0  2  0  0  0  0  0  0
  194.8610  177.1550  134.5670 C   0  0  0  0  0  2  0  0  0  0  0  0
  195.7070  178.4190  134.5130 C   0  0  0  0  0  1  0  0  0  0  0  0
  197.8830  173.2020  143.9830 C   0  0  0  0  0  1  0  0  0  0  0  0
  196.6740  171.1430  144.3110 O   0  0  0  0  0  1  0  0  0  0  0  0
  196.5960  172.4280  143.7740 C   0  0  1  0  0  3  0  0  0  0  0  0
  188.8230  175.8880  146.0070 C   0  0  0  0  0  2  0  0  0  0  0  0
  187.9870  177.8560  144.7270 O   0  0  0  0  0  0  0  0  0  0  0  0
  187.8680  177.8280  147.0160 O   0  0  0  0  0  1  0  0  0  0  0  0
  188.2080  177.2450  145.9520 C   0  0  0  0  0  0  0  0  0  0  0  0
  2  7  1  6  0  0  0
  2 19  1  0  0  0  0
  3 11  1  0  0  0  0
  5  1  1  0  0  0  0
  6 16  1  0  0  0  0
  8 20  1  6  0  0  0
  8  7  1  0  0  0  0
  9  6  2  0  0  0  0
 11 14  2  0  0  0  0
 13  1  1  6  0  0  0
 13 10  1  0  0  0  0
 14  4  1  0  0  0  0
 15  6  1  1  0  0  0
 15 13  1  0  0  0  0
 15 23  1  0  0  0  0
 16 41  1  6  0  0  0
 16  3  1  0  0  0  0
 17  5  1  6  0  0  0
 17  2  1  0  0  0  0
 19 10  1  1  0  0  0
 19 22  1  0  0  0  0
 21  8  1  0  0  0  0
 21 17  1  0  0  0  0
 22 42  1  1  0  0  0
 22 18  1  0  0  0  0
 23 12  1  6  0  0  0
 23 11  1  0  0  0  0
 23 24  1  0  0  0  0
 24 12  1  6  0  0  0
 24 18  1  0  0  0  0
 24  4  1  0  0  0  0
 25 28  1  6  0  0  0
 25 27  1  0  0  0  0
 25 26  1  0  0  0  0
 26  9  1  1  0  0  0
 27 26  1  0  0  0  0
 29 33  1  0  0  0  0
 30 33  1  0  0  0  0
 31 30  1  0  0  0  0
 31 35  1  1  0  0  0
 32 37  1  1  0  0  0
 32 34  1  0  0  0  0
 32 31  1  0  0  0  0
 33 28  1  0  0  0  0
 36 34  1  0  0  0  0
 36 29  1  0  0  0  0
 38 37  1  0  0  0  0
 41 39  1  1  0  0  0
 41 40  1  0  0  0  0
 43 45  2  0  0  0  0
 45 42  1  0  0  0  0
 45 44  1  0  0  0  0
M  END
>  <MODEL>
2

>  <REMARK>
 VINA RESULT:      -7.0      3.775      8.412
  Name = 
  7 active torsions:
  status: ('A' for Active; 'I' for Inactive)
    1  A    between atoms: C_4  and  C_35
    2  A    between atoms: C_4  and  C_40
    3  A    between atoms: C_5  and  C_43
    4  A    between atoms: C_15  and  C_16
    5  A    between atoms: C_19  and  C_25
    6  A    between atoms: N_21  and  C_43
    7  A    between atoms: C_31  and  C_44
                            x       y       z     vdW  Elec       q    Type
                         _______ _______ _______ _____ _____    ______ ____

>  <TORSDO>
F 7

$$$$
=
 OpenBabel11062420473D

 45 52  0  0  1  0  0  0  0  0999 V2000
  190.8740  172.2580  142.3400 C   0  0  0  0  0  2  0  0  0  0  0  0
  188.2210  173.8630  141.2310 C   0  0  1  0  0  3  0  0  0  0  0  0
  193.5430  175.3950  145.1440 O   0  0  0  0  0  0  0  0  0  0  0  0
  190.6290  177.4530  145.6740 C   0  0  0  0  0  2  0  0  0  0  0  0
  190.4480  172.6200  140.9160 C   0  0  0  0  0  2  0  0  0  0  0  0
  193.0120  174.2680  143.0350 C   0  0  0  0  0  0  0  0  0  0  0  0
  188.1160  174.7370  140.0800 N   0  0  0  0  0  2  0  0  0  0  0  0
  188.2130  174.1340  138.9510 C   0  0  1  0  0  3  0  0  0  0  0  0
  193.5460  174.1300  141.8090 C   0  0  0  0  0  3  0  0  0  0  0  0
  189.2530  173.6850  143.4330 O   0  0  0  0  0  0  0  0  0  0  0  0
  192.3270  176.0760  145.0900 C   0  0  0  0  0  0  0  0  0  0  0  0
  191.0320  177.0380  143.1640 C   0  0  0  0  0  2  0  0  0  0  0  0
  190.6350  173.3990  143.3390 C   0  0  2  0  0  3  0  0  0  0  0  0
  191.9710  176.9520  145.9620 N   0  0  0  0  0  0  0  0  0  0  0  0
  191.5450  174.6310  143.0820 C   0  0  1  0  0  3  0  0  0  0  0  0
  193.7310  174.1980  144.3890 C   0  0  1  0  0  3  0  0  0  0  0  0
  188.9270  172.5740  140.7660 C   0  0  2  0  0  3  0  0  0  0  0  0
  188.7600  176.1900  144.3210 C   0  0  0  0  0  2  0  0  0  0  0  0
  188.9150  174.5770  142.3960 C   0  0  2  0  0  3  0  0  0  0  0  0
  188.2130  174.8590  137.7290 N   0  0  0  0  0  1  0  0  0  0  0  0
  188.5260  172.3810  139.0010 S   0  0  0  0  0  0  0  0  0  0  0  0
  188.2070  175.8240  142.9400 C   0  0  1  0  0  3  0  0  0  0  0  0
  191.3250  175.8170  144.0430 C   0  0  1  0  0  0  0  0  0  0  0  0
  190.1800  176.7640  144.3780 C   0  0  2  0  0  0  0  0  0  0  0  0
  195.0660  173.5410  139.9850 C   0  0  2  0  0  3  0  0  0  0  0  0
  194.9630  173.8270  141.4690 C   0  0  2  0  0  3  0  0  0  0  0  0
  195.0620  172.3990  140.9790 C   0  0  0  0  0  2  0  0  0  0  0  0
  196.4850  173.8370  139.5330 C   0  0  0  0  0  2  0  0  0  0  0  0
  197.8300  174.5870  137.7600 C   0  0  0  0  0  2  0  0  0  0  0  0
  195.5510  173.9580  137.3980 C   0  0  0  0  0  2  0  0  0  0  0  0
  194.8830  174.9880  136.4900 C   0  0  2  0  0  3  0  0  0  0  0  0
  195.9150  175.6220  135.5470 C   0  0  2  0  0  3  0  0  0  0  0  0
  196.4740  174.6230  138.3140 N   0  0  0  0  0  0  0  0  0  0  0  0
  196.9330  176.2750  136.2650 O   0  0  0  0  0  0  0  0  0  0  0  0
  194.2500  175.9490  137.2610 F   0  0  0  0  0  0  0  0  0  0  0  0
  197.9410  175.3150  136.4110 C   0  0  0  0  0  2  0  0  0  0  0  0
  195.2780  176.5480  134.5130 C   0  0  0  0  0  2  0  0  0  0  0  0
  195.4950  178.0200  134.8350 C   0  0  0  0  0  1  0  0  0  0  0  0
  195.9360  174.3910  145.6300 C   0  0  0  0  0  1  0  0  0  0  0  0
  195.2200  172.3010  144.6650 O   0  0  0  0  0  1  0  0  0  0  0  0
  195.1640  173.6890  144.5310 C   0  0  1  0  0  3  0  0  0  0  0  0
  186.7030  175.5960  143.0610 C   0  0  0  0  0  2  0  0  0  0  0  0
  185.1520  177.4990  143.4920 O   0  0  0  0  0  1  0  0  0  0  0  0
  186.0500  177.1860  141.4070 O   0  0  0  0  0  0  0  0  0  0  0  0
  185.9490  176.7970  142.6000 C   0  0  0  0  0  0  0  0  0  0  0  0
  2  7  1  6  0  0  0
  2 19  1  0  0  0  0
  4 14  1  0  0  0  0
  5  1  1  0  0  0  0
  6 16  1  0  0  0  0
  8 20  1  6  0  0  0
  8 21  1  0  0  0  0
  8  7  1  0  0  0  0
  9  6  2  0  0  0  0
 11  3  1  0  0  0  0
 11 14  2  0  0  0  0
 13  1  1  6  0  0  0
 13 10  1  0  0  0  0
 15  6  1  1  0  0  0
 15 13  1  0  0  0  0
 15 23  1  0  0  0  0
 16 41  1  6  0  0  0
 16  3  1  0  0  0  0
 17  5  1  6  0  0  0
 17  2  1  0  0  0  0
 18 24  1  0  0  0  0
 19 22  1  0  0  0  0
 19 10  1  1  0  0  0
 21 17  1  0  0  0  0
 22 42  1  1  0  0  0
 22 18  1  0  0  0  0
 23 12  1  6  0  0  0
 23 24  1  0  0  0  0
 23 11  1  0  0  0  0
 24 12  1  6  0  0  0
 24  4  1  0  0  0  0
 25 28  1  1  0  0  0
 25 27  1  0  0  0  0
 25 26  1  0  0  0  0
 26  9  1  6  0  0  0
 27 26  1  0  0  0  0
 29 33  1  0  0  0  0
 30 33  1  0  0  0  0
 31 35  1  1  0  0  0
 31 30  1  0  0  0  0
 32 37  1  6  0  0  0
 32 34  1  0  0  0  0
 32 31  1  0  0  0  0
 33 28  1  0  0  0  0
 34 36  1  0  0  0  0
 36 29  1  0  0  0  0
 37 38  1  0  0  0  0
 41 40  1  0  0  0  0
 41 39  1  1  0  0  0
 44 45  2  0  0  0  0
 45 42  1  0  0  0  0
 45 43  1  0  0  0  0
M  END
>  <MODEL>
3

>  <REMARK>
 VINA RESULT:      -7.0      3.754      8.603
  Name = 
  7 active torsions:
  status: ('A' for Active; 'I' for Inactive)
    1  A    between atoms: C_4  and  C_35
    2  A    between atoms: C_4  and  C_40
    3  A    between atoms: C_5  and  C_43
    4  A    between atoms: C_15  and  C_16
    5  A    between atoms: C_19  and  C_25
    6  A    between atoms: N_21  and  C_43
    7  A    between atoms: C_31  and  C_44
                            x       y       z     vdW  Elec       q    Type
                         _______ _______ _______ _____ _____    ______ ____

>  <TORSDO>
F 7

$$$$
=
 OpenBabel11062420473D

 45 52  0  0  1  0  0  0  0  0999 V2000
  190.1220  173.7190  143.0660 C   0  0  0  0  0  2  0  0  0  0  0  0
  187.4740  175.6600  142.8220 C   0  0  1  0  0  3  0  0  0  0  0  0
  193.1630  175.6460  146.5120 O   0  0  0  0  0  0  0  0  0  0  0  0
  190.4090  177.4540  147.9790 C   0  0  0  0  0  2  0  0  0  0  0  0
  189.6020  174.5570  141.8970 C   0  0  0  0  0  2  0  0  0  0  0  0
  192.4080  175.3240  144.2030 C   0  0  0  0  0  0  0  0  0  0  0  0
  187.3210  176.8780  142.0530 N   0  0  0  0  0  2  0  0  0  0  0  0
  187.2960  176.6990  140.7820 C   0  0  1  0  0  3  0  0  0  0  0  0
  192.8340  175.6060  142.9590 C   0  0  0  0  0  3  0  0  0  0  0  0
  188.6690  174.7140  144.7250 O   0  0  0  0  0  0  0  0  0  0  0  0
  191.9820  176.3280  146.8060 C   0  0  0  0  0  0  0  0  0  0  0  0
  190.5870  177.9190  145.4520 C   0  0  0  0  0  2  0  0  0  0  0  0
  190.0220  174.4510  144.4120 C   0  0  2  0  0  3  0  0  0  0  0  0
  191.7420  176.8580  147.9530 N   0  0  0  0  0  0  0  0  0  0  0  0
  190.9700  175.6770  144.5080 C   0  0  1  0  0  3  0  0  0  0  0  0
  193.2290  174.7790  145.3790 C   0  0  1  0  0  3  0  0  0  0  0  0
  188.0740  174.5960  141.8830 C   0  0  2  0  0  3  0  0  0  0  0  0
  188.3750  176.7710  146.4560 C   0  0  0  0  0  2  0  0  0  0  0  0
  188.2940  175.9150  144.0910 C   0  0  2  0  0  3  0  0  0  0  0  0
  187.2350  177.8000  139.8870 N   0  0  0  0  0  1  0  0  0  0  0  0
  187.5230  175.0290  140.2020 S   0  0  0  0  0  0  0  0  0  0  0  0
  187.6950  176.9130  145.0910 C   0  0  1  0  0  3  0  0  0  0  0  0
  190.8880  176.4650  145.8310 C   0  0  1  0  0  0  0  0  0  0  0  0
  189.8230  177.2610  146.5730 C   0  0  2  0  0  0  0  0  0  0  0  0
  194.1030  175.1640  140.9150 C   0  0  2  0  0  3  0  0  0  0  0  0
  194.2020  175.4100  142.4070 C   0  0  2  0  0  3  0  0  0  0  0  0
  194.3220  174.0030  141.8620 C   0  0  0  0  0  2  0  0  0  0  0  0
  195.4170  175.5680  140.2700 C   0  0  0  0  0  2  0  0  0  0  0  0
  196.4540  174.3160  138.5760 C   0  0  0  0  0  2  0  0  0  0  0  0
  194.0900  174.6800  138.5680 C   0  0  0  0  0  2  0  0  0  0  0  0
  193.6400  175.0370  137.1540 C   0  0  2  0  0  3  0  0  0  0  0  0
  194.5610  174.3820  136.1160 C   0  0  2  0  0  3  0  0  0  0  0  0
  195.3900  175.2860  138.8480 N   0  0  0  0  0  0  0  0  0  0  0  0
  195.8920  174.8100  136.2670 O   0  0  0  0  0  0  0  0  0  0  0  0
  193.6160  176.4140  137.0050 F   0  0  0  0  0  0  0  0  0  0  0  0
  196.4820  173.8600  137.1080 C   0  0  0  0  0  2  0  0  0  0  0  0
  194.0700  174.5780  134.6830 C   0  0  0  0  0  2  0  0  0  0  0  0
  192.5740  174.3410  134.5400 C   0  0  0  0  0  1  0  0  0  0  0  0
  195.6620  174.9100  146.0910 C   0  0  0  0  0  1  0  0  0  0  0  0
  194.6840  172.8360  145.3490 O   0  0  0  0  0  1  0  0  0  0  0  0
  194.6410  174.2230  145.2060 C   0  0  1  0  0  3  0  0  0  0  0  0
  186.1970  176.6870  145.2660 C   0  0  0  0  0  2  0  0  0  0  0  0
  184.7670  177.8980  146.9090 O   0  0  0  0  0  1  0  0  0  0  0  0
  185.6730  179.0100  145.1220 O   0  0  0  0  0  0  0  0  0  0  0  0
  185.5290  177.9290  145.7510 C   0  0  0  0  0  0  0  0  0  0  0  0
  2  7  1  6  0  0  0
  2 19  1  0  0  0  0
  3 11  1  0  0  0  0
  5  1  1  0  0  0  0
  6 16  1  0  0  0  0
  8 20  1  6  0  0  0
  8  7  1  0  0  0  0
  9  6  2  0  0  0  0
 11 14  2  0  0  0  0
 13  1  1  6  0  0  0
 13 15  1  0  0  0  0
 13 10  1  0  0  0  0
 14  4  1  0  0  0  0
 15  6  1  1  0  0  0
 15 23  1  0  0  0  0
 16 41  1  6  0  0  0
 16  3  1  0  0  0  0
 17  5  1  6  0  0  0
 17  2  1  0  0  0  0
 18 24  1  0  0  0  0
 19 10  1  1  0  0  0
 19 22  1  0  0  0  0
 21  8  1  0  0  0  0
 21 17  1  0  0  0  0
 22 42  1  1  0  0  0
 22 18  1  0  0  0  0
 23 12  1  6  0  0  0
 23 24  1  0  0  0  0
 23 11  1  0  0  0  0
 24 12  1  6  0  0  0
 24  4  1  0  0  0  0
 25 28  1  6  0  0  0
 25 27  1  0  0  0  0
 25 26  1  0  0  0  0
 26  9  1  1  0  0  0
 27 26  1  0  0  0  0
 29 33  1  0  0  0  0
 30 33  1  0  0  0  0
 31 35  1  1  0  0  0
 31 30  1  0  0  0  0
 32 37  1  6  0  0  0
 32 34  1  0  0  0  0
 32 31  1  0  0  0  0
 33 28  1  0  0  0  0
 34 36  1  0  0  0  0
 36 29  1  0  0  0  0
 38 37  1  0  0  0  0
 41 40  1  0  0  0  0
 41 39  1  1  0  0  0
 42 45  1  0  0  0  0
 44 45  2  0  0  0  0
 45 43  1  0  0  0  0
M  END
>  <MODEL>
4

>  <REMARK>
 VINA RESULT:      -6.8      3.654      8.735
  Name = 
  7 active torsions:
  status: ('A' for Active; 'I' for Inactive)
    1  A    between atoms: C_4  and  C_35
    2  A    between atoms: C_4  and  C_40
    3  A    between atoms: C_5  and  C_43
    4  A    between atoms: C_15  and  C_16
    5  A    between atoms: C_19  and  C_25
    6  A    between atoms: N_21  and  C_43
    7  A    between atoms: C_31  and  C_44
                            x       y       z     vdW  Elec       q    Type
                         _______ _______ _______ _____ _____    ______ ____

>  <TORSDO>
F 7

$$$$
=
 OpenBabel11062420473D

 45 52  0  0  1  0  0  0  0  0999 V2000
  192.1240  172.5820  142.7410 C   0  0  0  0  0  2  0  0  0  0  0  0
  189.2750  174.1300  143.3150 C   0  0  1  0  0  3  0  0  0  0  0  0
  195.7940  175.2330  144.8200 O   0  0  0  0  0  0  0  0  0  0  0  0
  193.4370  176.8160  147.0430 C   0  0  0  0  0  2  0  0  0  0  0  0
  191.1210  173.2180  141.7770 C   0  0  0  0  0  2  0  0  0  0  0  0
  194.3760  174.5770  142.9330 C   0  0  0  0  0  0  0  0  0  0  0  0
  188.6870  175.2310  142.5800 N   0  0  0  0  0  2  0  0  0  0  0  0
  188.2710  174.9180  141.4070 C   0  0  1  0  0  3  0  0  0  0  0  0
  194.3160  174.7790  141.6050 C   0  0  0  0  0  3  0  0  0  0  0  0
  191.1670  173.5500  144.7410 O   0  0  0  0  0  0  0  0  0  0  0  0
  194.6870  175.7840  145.4640 C   0  0  0  0  0  0  0  0  0  0  0  0
  192.6910  177.0330  144.5880 C   0  0  0  0  0  2  0  0  0  0  0  0
  192.3630  173.4310  143.9960 C   0  0  2  0  0  3  0  0  0  0  0  0
  194.7620  176.3960  146.5940 N   0  0  0  0  0  0  0  0  0  0  0  0
  193.0840  174.7720  143.6930 C   0  0  1  0  0  3  0  0  0  0  0  0
  195.6160  174.2680  143.7840 C   0  0  1  0  0  3  0  0  0  0  0  0
  189.6880  173.0590  142.2860 C   0  0  2  0  0  3  0  0  0  0  0  0
  191.1460  175.7220  146.3520 C   0  0  0  0  0  2  0  0  0  0  0  0
  190.4190  174.6200  144.2090 C   0  0  2  0  0  3  0  0  0  0  0  0
  187.7440  175.9020  140.5280 N   0  0  0  0  0  1  0  0  0  0  0  0
  188.5500  173.2400  140.8770 S   0  0  0  0  0  0  0  0  0  0  0  0
  190.0380  175.6310  145.2980 C   0  0  1  0  0  3  0  0  0  0  0  0
  193.3240  175.6770  144.9190 C   0  0  1  0  0  0  0  0  0  0  0  0
  192.4550  176.4030  145.9370 C   0  0  2  0  0  0  0  0  0  0  0  0
  194.8700  174.7490  139.2230 C   0  0  2  0  0  3  0  0  0  0  0  0
  195.4350  174.7040  140.6280 C   0  0  2  0  0  3  0  0  0  0  0  0
  195.3080  173.4290  139.8220 C   0  0  0  0  0  2  0  0  0  0  0  0
  195.9430  175.2800  138.2870 C   0  0  0  0  0  2  0  0  0  0  0  0
  195.8160  174.9720  135.9630 C   0  0  0  0  0  2  0  0  0  0  0  0
  197.6380  174.0750  137.2270 C   0  0  0  0  0  2  0  0  0  0  0  0
  197.9200  172.6480  136.7620 C   0  0  2  0  0  3  0  0  0  0  0  0
  197.5400  172.4810  135.2850 C   0  0  2  0  0  3  0  0  0  0  0  0
  196.1990  174.3280  137.2220 N   0  0  0  0  0  0  0  0  0  0  0  0
  196.1750  172.7430  135.0720 O   0  0  0  0  0  0  0  0  0  0  0  0
  197.2300  171.7530  137.5630 F   0  0  0  0  0  0  0  0  0  0  0  0
  196.1180  174.1000  134.7330 C   0  0  0  0  0  2  0  0  0  0  0  0
  197.9410  171.1180  134.7240 C   0  0  0  0  0  2  0  0  0  0  0  0
  196.7670  170.1540  134.6350 C   0  0  0  0  0  1  0  0  0  0  0  0
  197.9410  175.0360  143.1190 C   0  0  0  0  0  1  0  0  0  0  0  0
  197.5140  172.7550  143.7710 O   0  0  0  0  0  1  0  0  0  0  0  0
  196.9590  173.8830  143.1660 C   0  0  1  0  0  3  0  0  0  0  0  0
  188.7380  175.2340  145.9890 C   0  0  0  0  0  2  0  0  0  0  0  0
  187.8670  177.4270  145.1860 O   0  0  0  0  0  0  0  0  0  0  0  0
  187.0270  176.4770  147.0940 O   0  0  0  0  0  1  0  0  0  0  0  0
  187.8350  176.4120  146.1300 C   0  0  0  0  0  0  0  0  0  0  0  0
  2  7  1  6  0  0  0
  2 19  1  0  0  0  0
  3 11  1  0  0  0  0
  5  1  1  0  0  0  0
  6 16  1  0  0  0  0
  8 20  1  6  0  0  0
  8  7  1  0  0  0  0
  9  6  2  0  0  0  0
 11 14  2  0  0  0  0
 13  1  1  6  0  0  0
 13 10  1  0  0  0  0
 14  4  1  0  0  0  0
 15  6  1  1  0  0  0
 15 13  1  0  0  0  0
 15 23  1  0  0  0  0
 16 41  1  6  0  0  0
 16  3  1  0  0  0  0
 17  5  1  6  0  0  0
 17  2  1  0  0  0  0
 19 10  1  1  0  0  0
 19 22  1  0  0  0  0
 21  8  1  0  0  0  0
 21 17  1  0  0  0  0
 22 42  1  1  0  0  0
 22 18  1  0  0  0  0
 23 12  1  6  0  0  0
 23 11  1  0  0  0  0
 23 24  1  0  0  0  0
 24 12  1  6  0  0  0
 24 18  1  0  0  0  0
 24  4  1  0  0  0  0
 25 28  1  6  0  0  0
 25 27  1  0  0  0  0
 25 26  1  0  0  0  0
 26  9  1  1  0  0  0
 27 26  1  0  0  0  0
 29 33  1  0  0  0  0
 31 30  1  0  0  0  0
 31 35  1  1  0  0  0
 32 37  1  1  0  0  0
 32 31  1  0  0  0  0
 33 30  1  0  0  0  0
 33 28  1  0  0  0  0
 34 32  1  0  0  0  0
 36 34  1  0  0  0  0
 36 29  1  0  0  0  0
 38 37  1  0  0  0  0
 41 39  1  1  0  0  0
 41 40  1  0  0  0  0
 42 45  1  0  0  0  0
 43 45  2  0  0  0  0
 45 44  1  0  0  0  0
M  END
>  <MODEL>
5

>  <REMARK>
 VINA RESULT:      -6.8      4.079      8.973
  Name = 
  7 active torsions:
  status: ('A' for Active; 'I' for Inactive)
    1  A    between atoms: C_4  and  C_35
    2  A    between atoms: C_4  and  C_40
    3  A    between atoms: C_5  and  C_43
    4  A    between atoms: C_15  and  C_16
    5  A    between atoms: C_19  and  C_25
    6  A    between atoms: N_21  and  C_43
    7  A    between atoms: C_31  and  C_44
                            x       y       z     vdW  Elec       q    Type
                         _______ _______ _______ _____ _____    ______ ____

>  <TORSDO>
F 7

$$$$
=
 OpenBabel11062420473D

 45 52  0  0  1  0  0  0  0  0999 V2000
  194.2570  174.1200  140.2410 C   0  0  0  0  0  2  0  0  0  0  0  0
  192.5760  172.3960  137.9950 C   0  0  1  0  0  3  0  0  0  0  0  0
  193.3030  172.1870  144.7330 O   0  0  0  0  0  0  0  0  0  0  0  0
  192.3140  169.0680  143.2180 C   0  0  0  0  0  2  0  0  0  0  0  0
  193.1320  174.5420  139.2940 C   0  0  0  0  0  2  0  0  0  0  0  0
  192.9200  173.7930  142.9240 C   0  0  0  0  0  0  0  0  0  0  0  0
  191.1920  172.5500  137.5960 N   0  0  0  0  0  2  0  0  0  0  0  0
  190.9490  173.6250  136.9390 C   0  0  1  0  0  3  0  0  0  0  0  0
  192.2130  174.9180  142.7130 C   0  0  0  0  0  3  0  0  0  0  0  0
  193.9840  171.7440  139.8760 O   0  0  0  0  0  0  0  0  0  0  0  0
  192.8580  171.1510  143.9120 C   0  0  0  0  0  0  0  0  0  0  0  0
  191.0380  171.0510  142.1830 C   0  0  0  0  0  2  0  0  0  0  0  0
  194.0140  172.7440  140.8750 C   0  0  2  0  0  3  0  0  0  0  0  0
  192.7530  169.9320  144.3100 N   0  0  0  0  0  0  0  0  0  0  0  0
  192.8090  172.7310  141.8540 C   0  0  1  0  0  3  0  0  0  0  0  0
  193.7460  173.4180  144.1610 C   0  0  1  0  0  3  0  0  0  0  0  0
  193.2210  173.7950  137.9630 C   0  0  2  0  0  3  0  0  0  0  0  0
  192.6360  169.5310  140.6480 C   0  0  0  0  0  2  0  0  0  0  0  0
  192.6790  171.6850  139.3480 C   0  0  2  0  0  3  0  0  0  0  0  0
  189.6270  173.9640  136.5480 N   0  0  0  0  0  1  0  0  0  0  0  0
  192.3130  174.7470  136.7040 S   0  0  0  0  0  0  0  0  0  0  0  0
  192.1160  170.2590  139.4050 C   0  0  1  0  0  3  0  0  0  0  0  0
  192.5050  171.3630  142.4980 C   0  0  1  0  0  0  0  0  0  0  0  0
  192.0880  169.9830  142.0060 C   0  0  2  0  0  0  0  0  0  0  0  0
  190.6930  176.6510  143.5310 C   0  0  2  0  0  3  0  0  0  0  0  0
  192.1010  176.0970  143.6140 C   0  0  2  0  0  3  0  0  0  0  0  0
  191.8220  177.3320  142.7850 C   0  0  0  0  0  2  0  0  0  0  0  0
  190.3920  177.3980  144.8180 C   0  0  0  0  0  2  0  0  0  0  0  0
  188.3660  177.5450  143.6390 C   0  0  0  0  0  2  0  0  0  0  0  0
  188.4860  176.4230  145.7480 C   0  0  0  0  0  2  0  0  0  0  0  0
  187.2860  176.8260  146.6020 C   0  0  2  0  0  3  0  0  0  0  0  0
  186.0850  177.1690  145.7110 C   0  0  2  0  0  3  0  0  0  0  0  0
  188.9600  177.5710  144.9790 N   0  0  0  0  0  0  0  0  0  0  0  0
  186.3760  178.2380  144.8440 O   0  0  0  0  0  0  0  0  0  0  0  0
  187.6290  177.8930  147.4150 F   0  0  0  0  0  0  0  0  0  0  0  0
  186.8310  177.6320  143.6670 C   0  0  0  0  0  2  0  0  0  0  0  0
  184.8110  177.4320  146.5120 C   0  0  0  0  0  2  0  0  0  0  0  0
  184.0620  178.6660  146.0310 C   0  0  0  0  0  1  0  0  0  0  0  0
  193.0660  174.4690  146.3690 C   0  0  0  0  0  1  0  0  0  0  0  0
  195.3850  174.2500  145.7470 O   0  0  0  0  0  1  0  0  0  0  0  0
  194.0910  174.4280  145.2540 C   0  0  1  0  0  3  0  0  0  0  0  0
  192.5140  169.4590  138.1680 C   0  0  0  0  0  2  0  0  0  0  0  0
  190.0470  169.1300  138.0200 O   0  0  0  0  0  1  0  0  0  0  0  0
  191.4300  168.2630  136.4110 O   0  0  0  0  0  0  0  0  0  0  0  0
  191.3080  168.9100  137.4850 C   0  0  0  0  0  0  0  0  0  0  0  0
  2  7  1  1  0  0  0
  2 19  1  0  0  0  0
  4 14  1  0  0  0  0
  5  1  1  0  0  0  0
  6 16  1  0  0  0  0
  8 20  1  1  0  0  0
  8  7  1  0  0  0  0
  9  6  2  0  0  0  0
 10 13  1  0  0  0  0
 11 14  2  0  0  0  0
 11  3  1  0  0  0  0
 13  1  1  6  0  0  0
 13 15  1  0  0  0  0
 15 23  1  0  0  0  0
 15  6  1  1  0  0  0
 16  3  1  0  0  0  0
 16 41  1  1  0  0  0
 17  2  1  0  0  0  0
 17  5  1  1  0  0  0
 19 22  1  0  0  0  0
 19 10  1  6  0  0  0
 21  8  1  0  0  0  0
 21 17  1  0  0  0  0
 22 42  1  6  0  0  0
 22 18  1  0  0  0  0
 23 12  1  1  0  0  0
 23 11  1  0  0  0  0
 24 18  1  6  0  0  0
 24 12  1  0  0  0  0
 24 23  1  0  0  0  0
 24  4  1  0  0  0  0
 25 26  1  0  0  0  0
 25 28  1  1  0  0  0
 26  9  1  6  0  0  0
 27 25  1  0  0  0  0
 27 26  1  0  0  0  0
 28 33  1  0  0  0  0
 29 36  1  0  0  0  0
 29 33  1  0  0  0  0
 30 31  1  0  0  0  0
 31 35  1  6  0  0  0
 32 37  1  1  0  0  0
 32 31  1  0  0  0  0
 33 30  1  0  0  0  0
 34 32  1  0  0  0  0
 36 34  1  0  0  0  0
 38 37  1  0  0  0  0
 41 40  1  0  0  0  0
 41 39  1  1  0  0  0
 44 45  2  0  0  0  0
 45 43  1  0  0  0  0
 45 42  1  0  0  0  0
M  END
>  <MODEL>
6

>  <REMARK>
 VINA RESULT:      -6.7      2.600      3.625
  Name = 
  7 active torsions:
  status: ('A' for Active; 'I' for Inactive)
    1  A    between atoms: C_4  and  C_35
    2  A    between atoms: C_4  and  C_40
    3  A    between atoms: C_5  and  C_43
    4  A    between atoms: C_15  and  C_16
    5  A    between atoms: C_19  and  C_25
    6  A    between atoms: N_21  and  C_43
    7  A    between atoms: C_31  and  C_44
                            x       y       z     vdW  Elec       q    Type
                         _______ _______ _______ _____ _____    ______ ____

>  <TORSDO>
F 7

$$$$
=
 OpenBabel11062420473D

 45 52  0  0  1  0  0  0  0  0999 V2000
  195.0250  175.7090  141.5350 C   0  0  0  0  0  2  0  0  0  0  0  0
  194.8000  173.3310  139.2690 C   0  0  1  0  0  3  0  0  0  0  0  0
  193.7080  173.8000  145.9450 O   0  0  0  0  0  0  0  0  0  0  0  0
  194.4290  170.4720  144.7570 C   0  0  0  0  0  2  0  0  0  0  0  0
  194.1240  175.5830  140.3050 C   0  0  0  0  0  2  0  0  0  0  0  0
  193.2440  175.0090  143.8650 C   0  0  0  0  0  0  0  0  0  0  0  0
  193.6240  172.8830  138.5500 N   0  0  0  0  0  2  0  0  0  0  0  0
  193.1760  173.7290  137.6950 C   0  0  1  0  0  3  0  0  0  0  0  0
  192.2470  175.7340  143.3270 C   0  0  0  0  0  3  0  0  0  0  0  0
  195.7870  173.4130  141.4970 O   0  0  0  0  0  0  0  0  0  0  0  0
  193.9300  172.6300  145.2180 C   0  0  0  0  0  0  0  0  0  0  0  0
  192.8240  171.7020  143.1620 C   0  0  0  0  0  2  0  0  0  0  0  0
  195.1640  174.3900  142.3070 C   0  0  2  0  0  3  0  0  0  0  0  0
  194.1940  171.4980  145.7700 N   0  0  0  0  0  0  0  0  0  0  0  0
  193.8390  173.9380  142.9800 C   0  0  1  0  0  3  0  0  0  0  0  0
  193.7840  175.0710  145.3000 C   0  0  1  0  0  3  0  0  0  0  0  0
  194.8450  174.8670  139.1630 C   0  0  2  0  0  3  0  0  0  0  0  0
  195.2290  170.8870  142.2850 C   0  0  0  0  0  2  0  0  0  0  0  0
  194.7970  172.7970  140.7050 C   0  0  2  0  0  3  0  0  0  0  0  0
  191.9830  173.4750  136.9670 N   0  0  0  0  0  1  0  0  0  0  0  0
  194.0190  175.2960  137.5980 S   0  0  0  0  0  0  0  0  0  0  0  0
  194.8270  171.2710  140.8580 C   0  0  1  0  0  3  0  0  0  0  0  0
  193.9180  172.6020  143.7460 C   0  0  1  0  0  0  0  0  0  0  0  0
  194.2070  171.1480  143.3970 C   0  0  2  0  0  0  0  0  0  0  0  0
  190.2870  177.1770  143.0920 C   0  0  2  0  0  3  0  0  0  0  0  0
  191.4560  176.8100  143.9820 C   0  0  2  0  0  3  0  0  0  0  0  0
  191.5160  178.0600  143.1320 C   0  0  0  0  0  2  0  0  0  0  0  0
  189.1890  177.7710  143.9560 C   0  0  0  0  0  2  0  0  0  0  0  0
  188.1510  177.1820  141.9340 C   0  0  0  0  0  2  0  0  0  0  0  0
  186.9080  177.2720  143.9760 C   0  0  0  0  0  2  0  0  0  0  0  0
  185.5740  177.9710  143.7230 C   0  0  2  0  0  3  0  0  0  0  0  0
  185.1180  177.7470  142.2760 C   0  0  2  0  0  3  0  0  0  0  0  0
  187.9630  177.9100  143.1920 N   0  0  0  0  0  0  0  0  0  0  0  0
  186.0520  178.2570  141.3570 O   0  0  0  0  0  0  0  0  0  0  0  0
  185.6930  179.3200  144.0100 F   0  0  0  0  0  0  0  0  0  0  0  0
  186.8880  177.1750  141.0570 C   0  0  0  0  0  2  0  0  0  0  0  0
  183.7160  178.2940  142.0080 C   0  0  0  0  0  2  0  0  0  0  0  0
  183.3570  178.2830  140.5290 C   0  0  0  0  0  1  0  0  0  0  0  0
  192.3690  175.7730  147.2860 C   0  0  0  0  0  1  0  0  0  0  0  0
  194.5320  176.7560  146.8800 O   0  0  0  0  0  1  0  0  0  0  0  0
  193.4110  176.1910  146.2690 C   0  0  1  0  0  3  0  0  0  0  0  0
  195.8160  170.6390  139.8850 C   0  0  0  0  0  2  0  0  0  0  0  0
  193.8330  169.3780  139.0550 O   0  0  0  0  0  1  0  0  0  0  0  0
  195.9450  168.5410  138.7560 O   0  0  0  0  0  0  0  0  0  0  0  0
  195.2090  169.4570  139.2080 C   0  0  0  0  0  0  0  0  0  0  0  0
  2  7  1  1  0  0  0
  2 19  1  0  0  0  0
  4 14  1  0  0  0  0
  5  1  1  0  0  0  0
  6 16  1  0  0  0  0
  8 20  1  1  0  0  0
  8  7  1  0  0  0  0
  9  6  2  0  0  0  0
 10 13  1  0  0  0  0
 11 14  2  0  0  0  0
 11  3  1  0  0  0  0
 12 24  1  0  0  0  0
 13  1  1  6  0  0  0
 13 15  1  0  0  0  0
 15 23  1  0  0  0  0
 15  6  1  1  0  0  0
 16  3  1  0  0  0  0
 16 41  1  1  0  0  0
 17  2  1  0  0  0  0
 17  5  1  1  0  0  0
 19 22  1  0  0  0  0
 19 10  1  1  0  0  0
 21  8  1  0  0  0  0
 21 17  1  0  0  0  0
 22 42  1  6  0  0  0
 22 18  1  0  0  0  0
 23 12  1  6  0  0  0
 23 11  1  0  0  0  0
 24 18  1  6  0  0  0
 24 23  1  0  0  0  0
 24  4  1  0  0  0  0
 25 27  1  0  0  0  0
 25 28  1  1  0  0  0
 25 26  1  0  0  0  0
 26  9  1  6  0  0  0
 27 26  1  0  0  0  0
 29 33  1  0  0  0  0
 31 30  1  0  0  0  0
 31 35  1  6  0  0  0
 32 37  1  1  0  0  0
 32 31  1  0  0  0  0
 33 28  1  0  0  0  0
 33 30  1  0  0  0  0
 34 32  1  0  0  0  0
 36 34  1  0  0  0  0
 36 29  1  0  0  0  0
 38 37  1  0  0  0  0
 41 40  1  0  0  0  0
 41 39  1  1  0  0  0
 43 45  1  0  0  0  0
 44 45  2  0  0  0  0
 45 42  1  0  0  0  0
M  END
>  <MODEL>
7

>  <REMARK>
 VINA RESULT:      -6.7      1.846      2.038
  Name = 
  7 active torsions:
  status: ('A' for Active; 'I' for Inactive)
    1  A    between atoms: C_4  and  C_35
    2  A    between atoms: C_4  and  C_40
    3  A    between atoms: C_5  and  C_43
    4  A    between atoms: C_15  and  C_16
    5  A    between atoms: C_19  and  C_25
    6  A    between atoms: N_21  and  C_43
    7  A    between atoms: C_31  and  C_44
                            x       y       z     vdW  Elec       q    Type
                         _______ _______ _______ _____ _____    ______ ____

>  <TORSDO>
F 7

$$$$
=
 OpenBabel11062420473D

 45 52  0  0  1  0  0  0  0  0999 V2000
  193.6030  174.9420  140.8740 C   0  0  0  0  0  2  0  0  0  0  0  0
  193.0760  172.0760  139.3410 C   0  0  1  0  0  3  0  0  0  0  0  0
  193.8480  174.0740  145.7750 O   0  0  0  0  0  0  0  0  0  0  0  0
  194.6510  170.6130  145.1560 C   0  0  0  0  0  2  0  0  0  0  0  0
  192.4200  174.4620  140.0330 C   0  0  0  0  0  2  0  0  0  0  0  0
  192.6600  174.7110  143.7290 C   0  0  0  0  0  0  0  0  0  0  0  0
  191.8180  171.3910  139.1260 N   0  0  0  0  0  2  0  0  0  0  0  0
  191.0380  171.9720  138.2890 C   0  0  1  0  0  3  0  0  0  0  0  0
  191.4640  175.2150  143.3790 C   0  0  0  0  0  3  0  0  0  0  0  0
  194.6280  172.7610  141.0930 O   0  0  0  0  0  0  0  0  0  0  0  0
  194.0130  172.7810  145.2800 C   0  0  0  0  0  0  0  0  0  0  0  0
  192.5110  171.3110  143.9030 C   0  0  0  0  0  2  0  0  0  0  0  0
  194.1310  173.8610  141.8280 C   0  0  2  0  0  3  0  0  0  0  0  0
  194.5720  171.8360  145.9510 N   0  0  0  0  0  0  0  0  0  0  0  0
  193.1220  173.4990  142.9520 C   0  0  1  0  0  3  0  0  0  0  0  0
  193.5680  175.1540  144.8840 C   0  0  1  0  0  3  0  0  0  0  0  0
  192.8820  173.5410  138.9040 C   0  0  2  0  0  3  0  0  0  0  0  0
  194.6610  170.4700  142.5290 C   0  0  0  0  0  2  0  0  0  0  0  0
  193.5480  171.9080  140.7890 C   0  0  2  0  0  3  0  0  0  0  0  0
  189.7340  171.4720  138.0300 N   0  0  0  0  0  1  0  0  0  0  0  0
  191.5990  173.5220  137.6120 S   0  0  0  0  0  0  0  0  0  0  0  0
  193.8260  170.4700  141.2450 C   0  0  1  0  0  3  0  0  0  0  0  0
  193.5930  172.3970  143.9220 C   0  0  1  0  0  0  0  0  0  0  0  0
  193.9660  170.9240  143.8180 C   0  0  2  0  0  0  0  0  0  0  0  0
  189.5570  176.7290  143.1420 C   0  0  2  0  0  3  0  0  0  0  0  0
  190.7500  176.3630  144.0010 C   0  0  2  0  0  3  0  0  0  0  0  0
  190.8230  177.5570  143.0730 C   0  0  0  0  0  2  0  0  0  0  0  0
  188.5260  177.4220  144.0160 C   0  0  0  0  0  2  0  0  0  0  0  0
  186.3660  178.3330  144.1580 C   0  0  0  0  0  2  0  0  0  0  0  0
  187.5530  178.2940  142.0810 C   0  0  0  0  0  2  0  0  0  0  0  0
  186.6070  177.8520  140.9680 C   0  0  2  0  0  3  0  0  0  0  0  0
  185.1650  178.2610  141.2960 C   0  0  2  0  0  3  0  0  0  0  0  0
  187.2670  177.5510  143.3060 N   0  0  0  0  0  0  0  0  0  0  0  0
  184.7240  177.6750  142.4960 O   0  0  0  0  0  0  0  0  0  0  0  0
  186.7110  176.4830  140.7840 F   0  0  0  0  0  0  0  0  0  0  0  0
  185.0140  178.6210  143.4860 C   0  0  0  0  0  2  0  0  0  0  0  0
  184.1960  177.9800  140.1490 C   0  0  0  0  0  2  0  0  0  0  0  0
  182.7440  177.9560  140.6020 C   0  0  0  0  0  1  0  0  0  0  0  0
  192.6590  176.2230  146.9990 C   0  0  0  0  0  1  0  0  0  0  0  0
  194.4990  177.2040  145.7900 O   0  0  0  0  0  1  0  0  0  0  0  0
  193.3330  176.4480  145.6610 C   0  0  1  0  0  3  0  0  0  0  0  0
  194.5790  169.6870  140.1730 C   0  0  0  0  0  2  0  0  0  0  0  0
  193.9530  168.2240  138.2550 O   0  0  0  0  0  0  0  0  0  0  0  0
  192.7180  168.1950  140.1850 O   0  0  0  0  0  1  0  0  0  0  0  0
  193.6920  168.6680  139.5430 C   0  0  0  0  0  0  0  0  0  0  0  0
  2  7  1  1  0  0  0
  2 19  1  0  0  0  0
  4 14  1  0  0  0  0
  5  1  1  0  0  0  0
  6 16  1  0  0  0  0
  8 20  1  1  0  0  0
  8  7  1  0  0  0  0
  9  6  2  0  0  0  0
 10 13  1  0  0  0  0
 11  3  1  0  0  0  0
 11 14  2  0  0  0  0
 13  1  1  6  0  0  0
 13 15  1  0  0  0  0
 15  6  1  1  0  0  0
 15 23  1  0  0  0  0
 16 41  1  1  0  0  0
 16  3  1  0  0  0  0
 17  2  1  0  0  0  0
 17  5  1  1  0  0  0
 19 10  1  6  0  0  0
 19 22  1  0  0  0  0
 21  8  1  0  0  0  0
 21 17  1  0  0  0  0
 22 42  1  6  0  0  0
 22 18  1  0  0  0  0
 23 12  1  1  0  0  0
 23 11  1  0  0  0  0
 24 18  1  6  0  0  0
 24 12  1  0  0  0  0
 24 23  1  0  0  0  0
 24  4  1  0  0  0  0
 25 26  1  0  0  0  0
 25 28  1  1  0  0  0
 26  9  1  6  0  0  0
 27 25  1  0  0  0  0
 27 26  1  0  0  0  0
 30 33  1  0  0  0  0
 31 35  1  1  0  0  0
 31 32  1  0  0  0  0
 31 30  1  0  0  0  0
 32 37  1  6  0  0  0
 32 34  1  0  0  0  0
 33 28  1  0  0  0  0
 33 29  1  0  0  0  0
 34 36  1  0  0  0  0
 36 29  1  0  0  0  0
 37 38  1  0  0  0  0
 41 40  1  0  0  0  0
 41 39  1  1  0  0  0
 43 45  2  0  0  0  0
 45 42  1  0  0  0  0
 45 44  1  0  0  0  0
M  END
>  <MODEL>
8

>  <REMARK>
 VINA RESULT:      -6.5      1.826      2.195
  Name = 
  7 active torsions:
  status: ('A' for Active; 'I' for Inactive)
    1  A    between atoms: C_4  and  C_35
    2  A    between atoms: C_4  and  C_40
    3  A    between atoms: C_5  and  C_43
    4  A    between atoms: C_15  and  C_16
    5  A    between atoms: C_19  and  C_25
    6  A    between atoms: N_21  and  C_43
    7  A    between atoms: C_31  and  C_44
                            x       y       z     vdW  Elec       q    Type
                         _______ _______ _______ _____ _____    ______ ____

>  <TORSDO>
F 7

$$$$
=
 OpenBabel11062420473D

 45 52  0  0  1  0  0  0  0  0999 V2000
  192.0880  177.3160  143.9770 C   0  0  0  0  0  2  0  0  0  0  0  0
  189.0200  176.4350  144.7830 C   0  0  1  0  0  3  0  0  0  0  0  0
  193.7510  174.1790  140.4820 O   0  0  0  0  0  0  0  0  0  0  0  0
  190.3630  173.3150  139.5980 C   0  0  0  0  0  2  0  0  0  0  0  0
  191.5090  176.8100  145.2990 C   0  0  0  0  0  2  0  0  0  0  0  0
  193.5110  174.9330  142.8000 C   0  0  0  0  0  0  0  0  0  0  0  0
  188.5950  175.4130  145.7180 N   0  0  0  0  0  2  0  0  0  0  0  0
  188.8280  175.6950  146.9480 C   0  0  1  0  0  3  0  0  0  0  0  0
  194.0080  174.6260  144.0120 C   0  0  0  0  0  3  0  0  0  0  0  0
  190.1500  176.7480  142.6450 O   0  0  0  0  0  0  0  0  0  0  0  0
  192.3810  173.9240  140.4200 C   0  0  0  0  0  0  0  0  0  0  0  0
  190.7670  173.0300  142.1250 C   0  0  0  0  0  2  0  0  0  0  0  0
  191.5450  176.5540  142.7610 C   0  0  2  0  0  3  0  0  0  0  0  0
  191.8050  173.4150  139.3880 N   0  0  0  0  0  0  0  0  0  0  0  0
  192.0090  175.0730  142.7160 C   0  0  1  0  0  3  0  0  0  0  0  0
  194.2740  175.0610  141.4750 C   0  0  1  0  0  3  0  0  0  0  0  0
  190.0750  177.3010  145.4980 C   0  0  2  0  0  3  0  0  0  0  0  0
  188.9300  174.7820  141.2450 C   0  0  0  0  0  2  0  0  0  0  0  0
  189.5030  175.8080  143.4710 C   0  0  2  0  0  3  0  0  0  0  0  0
  188.5460  174.7620  147.9810 N   0  0  0  0  0  1  0  0  0  0  0  0
  189.6780  177.2270  147.2730 S   0  0  0  0  0  0  0  0  0  0  0  0
  188.4620  174.9980  142.6880 C   0  0  1  0  0  3  0  0  0  0  0  0
  191.4670  174.2540  141.5270 C   0  0  1  0  0  0  0  0  0  0  0  0
  190.0980  173.8150  141.0250 C   0  0  2  0  0  0  0  0  0  0  0  0
  195.4950  173.3670  145.4910 C   0  0  2  0  0  3  0  0  0  0  0  0
  195.4320  174.3840  144.3700 C   0  0  2  0  0  3  0  0  0  0  0  0
  195.6730  174.8410  145.7920 C   0  0  0  0  0  2  0  0  0  0  0  0
  196.8470  172.6770  145.4430 C   0  0  0  0  0  2  0  0  0  0  0  0
  197.7210  170.5140  145.1740 C   0  0  0  0  0  2  0  0  0  0  0  0
  195.4140  170.9740  144.7380 C   0  0  0  0  0  2  0  0  0  0  0  0
  194.9980  170.2820  143.4420 C   0  0  2  0  0  3  0  0  0  0  0  0
  195.8310  169.0120  143.2220 C   0  0  2  0  0  3  0  0  0  0  0  0
  196.7770  171.4870  144.6160 N   0  0  0  0  0  0  0  0  0  0  0  0
  197.2030  169.3060  143.1330 O   0  0  0  0  0  0  0  0  0  0  0  0
  195.1320  171.1610  142.3800 F   0  0  0  0  0  0  0  0  0  0  0  0
  197.6860  169.1640  144.4390 C   0  0  0  0  0  2  0  0  0  0  0  0
  195.3560  168.1960  142.0210 C   0  0  0  0  0  2  0  0  0  0  0  0
  193.8400  168.1780  141.8900 C   0  0  0  0  0  1  0  0  0  0  0  0
  196.3740  174.1880  140.3500 C   0  0  0  0  0  1  0  0  0  0  0  0
  196.2820  176.4110  141.2770 O   0  0  0  0  0  1  0  0  0  0  0  0
  195.7990  175.1080  141.4070 C   0  0  1  0  0  3  0  0  0  0  0  0
  187.1130  175.7110  142.6620 C   0  0  0  0  0  2  0  0  0  0  0  0
  187.3270  178.1560  142.2280 O   0  0  0  0  0  1  0  0  0  0  0  0
  187.0390  176.6920  140.4880 O   0  0  0  0  0  0  0  0  0  0  0  0
  187.1490  176.8740  141.7300 C   0  0  0  0  0  0  0  0  0  0  0  0
  1  5  1  0  0  0  0
  2 17  1  0  0  0  0
  2  7  1  1  0  0  0
  3 16  1  0  0  0  0
  6  9  2  0  0  0  0
  7  8  1  0  0  0  0
  8 21  1  0  0  0  0
  8 20  1  6  0  0  0
 10 13  1  0  0  0  0
 11  3  1  0  0  0  0
 11 23  1  0  0  0  0
 13  1  1  1  0  0  0
 14  4  1  0  0  0  0
 14 11  2  0  0  0  0
 15 13  1  0  0  0  0
 15  6  1  6  0  0  0
 16 41  1  1  0  0  0
 16  6  1  0  0  0  0
 17  5  1  1  0  0  0
 17 21  1  0  0  0  0
 18 22  1  0  0  0  0
 19 10  1  6  0  0  0
 19  2  1  0  0  0  0
 22 42  1  6  0  0  0
 22 19  1  0  0  0  0
 23 12  1  1  0  0  0
 23 15  1  0  0  0  0
 24  4  1  6  0  0  0
 24 18  1  0  0  0  0
 24 23  1  0  0  0  0
 24 12  1  0  0  0  0
 25 28  1  6  0  0  0
 25 27  1  0  0  0  0
 26  9  1  1  0  0  0
 26 25  1  0  0  0  0
 26 27  1  0  0  0  0
 31 35  1  6  0  0  0
 31 30  1  0  0  0  0
 32 37  1  6  0  0  0
 32 31  1  0  0  0  0
 33 30  1  0  0  0  0
 33 29  1  0  0  0  0
 33 28  1  0  0  0  0
 34 32  1  0  0  0  0
 34 36  1  0  0  0  0
 36 29  1  0  0  0  0
 38 37  1  0  0  0  0
 40 41  1  0  0  0  0
 41 39  1  6  0  0  0
 44 45  2  0  0  0  0
 45 43  1  0  0  0  0
 45 42  1  0  0  0  0
M  END
>  <MODEL>
9

>  <REMARK>
 VINA RESULT:      -6.5      3.262      8.996
  Name = 
  7 active torsions:
  status: ('A' for Active; 'I' for Inactive)
    1  A    between atoms: C_4  and  C_35
    2  A    between atoms: C_4  and  C_40
    3  A    between atoms: C_5  and  C_43
    4  A    between atoms: C_15  and  C_16
    5  A    between atoms: C_19  and  C_25
    6  A    between atoms: N_21  and  C_43
    7  A    between atoms: C_31  and  C_44
                            x       y       z     vdW  Elec       q    Type
                         _______ _______ _______ _____ _____    ______ ____

>  <TORSDO>
F 7

$$$$
