=
 OpenBabel11062419443D

 30 37  0  0  1  0  0  0  0  0999 V2000
  186.4280  177.3740  146.4210 C   0  0  1  0  0  3  0  0  0  0  0  0
  184.6500  178.2040  142.9740 C   0  0  0  0  0  2  0  0  0  0  0  0
  189.7170  175.1280  146.4080 C   0  0  1  0  0  3  0  0  0  0  0  0
  186.2290  178.1550  147.6990 C   0  0  0  0  0  2  0  0  0  0  0  0
  187.9510  176.7390  144.5280 C   0  0  0  0  0  0  0  0  0  0  0  0
  189.0370  175.9420  144.0360 C   0  0  0  0  0  0  0  0  0  0  0  0
  185.7680  177.9690  144.0060 C   0  0  2  0  0  0  0  0  0  0  0  0
  189.1460  175.6910  142.6340 C   0  0  0  0  0  0  0  0  0  0  0  0
  185.5030  178.0800  145.4550 C   0  0  2  0  0  0  0  0  0  0  0  0
  191.6070  175.1650  142.4040 C   0  0  0  0  0  3  0  0  0  0  0  0
  187.0680  176.7920  142.3300 N   0  0  0  0  0  0  0  0  0  0  0  0
  188.0230  176.0370  140.4630 N   0  0  0  0  0  0  0  0  0  0  0  0
  188.0940  176.1210  141.8130 C   0  0  0  0  0  0  0  0  0  0  0  0
  187.8840  177.2860  145.9390 C   0  0  0  0  0  2  0  0  0  0  0  0
  186.1470  179.1130  144.7240 O   0  0  0  0  0  0  0  0  0  0  0  0
  190.0980  175.3420  144.9330 C   0  0  1  0  0  3  0  0  0  0  0  0
  191.4250  176.0110  144.7440 C   0  0  0  0  0  0  0  0  0  0  0  0
  192.0990  176.6510  145.9240 C   0  0  0  0  0  2  0  0  0  0  0  0
  185.1600  178.1640  141.5100 C   0  0  0  0  0  2  0  0  0  0  0  0
  186.9520  177.1410  143.6180 C   0  0  0  0  0  0  0  0  0  0  0  0
  186.2780  177.1680  141.3270 C   0  0  0  0  0  0  0  0  0  0  0  0
  184.7780  178.6560  147.6470 C   0  0  0  0  0  2  0  0  0  0  0  0
  186.8730  176.7020  140.1670 C   0  0  0  0  0  0  0  0  0  0  0  0
  192.1100  175.8530  143.6130 C   0  0  0  0  0  3  0  0  0  0  0  0
  189.2770  173.6950  146.6230 C   0  0  0  0  0  1  0  0  0  0  0  0
  186.3980  176.9560  138.7800 C   0  0  0  0  0  1  0  0  0  0  0  0
  190.3340  175.0820  141.9920 C   0  0  0  0  0  3  0  0  0  0  0  0
  184.3390  178.6940  146.1790 C   0  0  0  0  0  2  0  0  0  0  0  0
  190.8440  175.4370  147.2890 N   0  0  0  0  0  2  0  0  0  0  0  0
  191.2250  176.7180  147.0270 O   0  0  0  0  0  0  0  0  0  0  0  0
  1 14  1  6  0  0  0
  1  4  1  0  0  0  0
  3 25  1  6  0  0  0
  3 29  1  0  0  0  0
  5 14  1  0  0  0  0
  6  5  1  0  0  0  0
  7  2  1  6  0  0  0
  7 15  1  0  0  0  0
  7  9  1  0  0  0  0
  8  6  2  0  0  0  0
  9 28  1  1  0  0  0
  9  1  1  0  0  0  0
 10 24  1  0  0  0  0
 11 20  1  0  0  0  0
 12 13  2  0  0  0  0
 13 11  1  0  0  0  0
 13  8  1  0  0  0  0
 15  9  1  0  0  0  0
 16  6  1  1  0  0  0
 16  3  1  0  0  0  0
 17 16  1  0  0  0  0
 17 18  1  0  0  0  0
 18 30  1  0  0  0  0
 19  2  1  0  0  0  0
 20  7  1  0  0  0  0
 20  5  2  0  0  0  0
 21 19  1  0  0  0  0
 21 11  1  0  0  0  0
 22  4  1  0  0  0  0
 23 12  1  0  0  0  0
 23 21  2  0  0  0  0
 24 17  2  0  0  0  0
 26 23  1  0  0  0  0
 27 10  2  0  0  0  0
 27  8  1  0  0  0  0
 28 22  1  0  0  0  0
 30 29  1  0  0  0  0
M  END
>  <MODEL>
1

>  <REMARK>
 VINA RESULT:      -9.2      0.000      0.000
  Name = 
  0 active torsions:
  status: ('A' for Active; 'I' for Inactive)
                            x       y       z     vdW  Elec       q    Type
                         _______ _______ _______ _____ _____    ______ ____

>  <TORSDO>
F 0

$$$$
=
 OpenBabel11062419443D

 30 37  0  0  1  0  0  0  0  0999 V2000
  190.2220  173.6230  143.5450 C   0  0  1  0  0  3  0  0  0  0  0  0
  189.2570  173.1090  139.7330 C   0  0  0  0  0  2  0  0  0  0  0  0
  189.1020  176.9720  145.3880 C   0  0  1  0  0  3  0  0  0  0  0  0
  190.6130  172.5110  144.4890 C   0  0  0  0  0  2  0  0  0  0  0  0
  188.5300  175.3550  142.8770 C   0  0  0  0  0  0  0  0  0  0  0  0
  187.9390  176.6440  143.0890 C   0  0  0  0  0  0  0  0  0  0  0  0
  189.1350  173.5040  141.2160 C   0  0  2  0  0  0  0  0  0  0  0  0
  187.2740  177.2980  142.0060 C   0  0  0  0  0  0  0  0  0  0  0  0
  190.0020  172.8890  142.2410 C   0  0  2  0  0  0  0  0  0  0  0  0
  185.7320  178.8750  143.2380 C   0  0  0  0  0  3  0  0  0  0  0  0
  187.9860  175.5430  140.5800 N   0  0  0  0  0  0  0  0  0  0  0  0
  186.7600  177.1250  139.5980 N   0  0  0  0  0  0  0  0  0  0  0  0
  187.3590  176.7060  140.7390 C   0  0  0  0  0  0  0  0  0  0  0  0
  189.0180  174.4610  144.0000 C   0  0  0  0  0  2  0  0  0  0  0  0
  188.6540  172.4850  142.0520 O   0  0  0  0  0  0  0  0  0  0  0  0
  187.9750  177.3650  144.4180 C   0  0  1  0  0  3  0  0  0  0  0  0
  186.6200  177.4160  145.0570 C   0  0  0  0  0  0  0  0  0  0  0  0
  186.4320  176.8290  146.4260 C   0  0  0  0  0  2  0  0  0  0  0  0
  188.1760  173.7730  138.8400 C   0  0  0  0  0  2  0  0  0  0  0  0
  188.5460  174.8330  141.5680 C   0  0  0  0  0  0  0  0  0  0  0  0
  187.8230  175.1600  139.3150 C   0  0  0  0  0  0  0  0  0  0  0  0
  191.3290  171.4700  143.6150 C   0  0  0  0  0  2  0  0  0  0  0  0
  187.0590  176.1410  138.7060 C   0  0  0  0  0  0  0  0  0  0  0  0
  185.6510  178.1640  144.5330 C   0  0  0  0  0  3  0  0  0  0  0  0
  190.2510  177.9520  145.2660 C   0  0  0  0  0  1  0  0  0  0  0  0
  186.5450  176.1060  137.3100 C   0  0  0  0  0  1  0  0  0  0  0  0
  186.4410  178.5130  142.1590 C   0  0  0  0  0  3  0  0  0  0  0  0
  190.8600  171.6580  142.1690 C   0  0  0  0  0  2  0  0  0  0  0  0
  188.6190  176.9470  146.7690 N   0  0  0  0  0  2  0  0  0  0  0  0
  187.5650  176.0860  146.8140 O   0  0  0  0  0  0  0  0  0  0  0  0
  1 14  1  1  0  0  0
  1  4  1  0  0  0  0
  3 25  1  1  0  0  0
  3 29  1  0  0  0  0
  5  6  1  0  0  0  0
  5 14  1  0  0  0  0
  7  2  1  6  0  0  0
  7 20  1  0  0  0  0
  7 15  1  0  0  0  0
  7  9  1  0  0  0  0
  8 27  1  0  0  0  0
  8  6  2  0  0  0  0
  9 28  1  6  0  0  0
  9  1  1  0  0  0  0
 10 24  1  0  0  0  0
 11 13  1  0  0  0  0
 11 20  1  0  0  0  0
 12 13  2  0  0  0  0
 13  8  1  0  0  0  0
 15  9  1  0  0  0  0
 16  6  1  6  0  0  0
 16 17  1  0  0  0  0
 16  3  1  0  0  0  0
 17 18  1  0  0  0  0
 18 30  1  0  0  0  0
 19 21  1  0  0  0  0
 19  2  1  0  0  0  0
 20  5  2  0  0  0  0
 21 11  1  0  0  0  0
 22  4  1  0  0  0  0
 23 21  2  0  0  0  0
 23 12  1  0  0  0  0
 24 17  2  0  0  0  0
 26 23  1  0  0  0  0
 27 10  2  0  0  0  0
 28 22  1  0  0  0  0
 29 30  1  0  0  0  0
M  END
>  <MODEL>
2

>  <REMARK>
 VINA RESULT:      -8.6      2.420      5.377
  Name = 
  0 active torsions:
  status: ('A' for Active; 'I' for Inactive)
                            x       y       z     vdW  Elec       q    Type
                         _______ _______ _______ _____ _____    ______ ____

>  <TORSDO>
F 0

$$$$
=
 OpenBabel11062419443D

 30 37  0  0  1  0  0  0  0  0999 V2000
  187.4390  176.9340  141.0490 C   0  0  1  0  0  3  0  0  0  0  0  0
  185.0870  179.1770  143.3220 C   0  0  0  0  0  2  0  0  0  0  0  0
  190.4710  174.9810  142.7400 C   0  0  1  0  0  3  0  0  0  0  0  0
  187.0660  176.4120  139.6810 C   0  0  0  0  0  2  0  0  0  0  0  0
  187.9000  176.4340  143.4670 C   0  0  0  0  0  0  0  0  0  0  0  0
  188.8010  175.9570  144.4750 C   0  0  0  0  0  0  0  0  0  0  0  0
  185.9600  177.9930  142.8690 C   0  0  2  0  0  0  0  0  0  0  0  0
  188.6300  176.3830  145.8280 C   0  0  0  0  0  0  0  0  0  0  0  0
  186.2210  177.7440  141.4370 C   0  0  2  0  0  0  0  0  0  0  0  0
  189.7910  174.5280  147.0920 C   0  0  0  0  0  3  0  0  0  0  0  0
  186.9060  177.8370  145.0970 N   0  0  0  0  0  0  0  0  0  0  0  0
  187.3070  177.8690  147.2890 N   0  0  0  0  0  0  0  0  0  0  0  0
  187.6680  177.3700  146.0820 C   0  0  0  0  0  0  0  0  0  0  0  0
  187.8190  175.8510  142.0700 C   0  0  0  0  0  2  0  0  0  0  0  0
  185.2660  176.9930  142.1700 O   0  0  0  0  0  0  0  0  0  0  0  0
  189.9430  175.0080  144.1850 C   0  0  1  0  0  3  0  0  0  0  0  0
  189.6910  173.6470  144.7600 C   0  0  0  0  0  0  0  0  0  0  0  0
  189.6850  172.4540  143.8470 C   0  0  0  0  0  2  0  0  0  0  0  0
  184.8310  179.1890  144.8520 C   0  0  0  0  0  2  0  0  0  0  0  0
  186.9510  177.4130  143.8270 C   0  0  0  0  0  0  0  0  0  0  0  0
  186.0160  178.6720  145.6270 C   0  0  0  0  0  0  0  0  0  0  0  0
  186.1520  177.4860  139.0720 C   0  0  0  0  0  2  0  0  0  0  0  0
  186.2630  178.6900  146.9900 C   0  0  0  0  0  0  0  0  0  0  0  0
  189.6970  173.4560  146.0780 C   0  0  0  0  0  3  0  0  0  0  0  0
  191.6910  175.8690  142.6230 C   0  0  0  0  0  1  0  0  0  0  0  0
  185.4620  179.4160  148.0130 C   0  0  0  0  0  1  0  0  0  0  0  0
  189.3480  175.7890  146.9800 C   0  0  0  0  0  3  0  0  0  0  0  0
  185.5320  178.2910  140.2190 C   0  0  0  0  0  2  0  0  0  0  0  0
  190.8100  173.6180  142.3320 N   0  0  0  0  0  2  0  0  0  0  0  0
  189.6930  172.8550  142.4970 O   0  0  0  0  0  0  0  0  0  0  0  0
  1  4  1  6  0  0  0
  1  9  1  0  0  0  0
  1 14  1  0  0  0  0
  2 19  1  0  0  0  0
  3 25  1  1  0  0  0
  3 16  1  0  0  0  0
  5 20  2  0  0  0  0
  5  6  1  0  0  0  0
  6  8  2  0  0  0  0
  7  2  1  1  0  0  0
  7 20  1  0  0  0  0
  8 13  1  0  0  0  0
  8 27  1  0  0  0  0
  9 28  1  6  0  0  0
  9 15  1  0  0  0  0
  9  7  1  0  0  0  0
 11 21  1  0  0  0  0
 11 13  1  0  0  0  0
 13 12  2  0  0  0  0
 14  5  1  0  0  0  0
 15  7  1  0  0  0  0
 16  6  1  6  0  0  0
 16 17  1  0  0  0  0
 17 24  2  0  0  0  0
 18 17  1  0  0  0  0
 19 21  1  0  0  0  0
 20 11  1  0  0  0  0
 21 23  2  0  0  0  0
 22  4  1  0  0  0  0
 22 28  1  0  0  0  0
 23 12  1  0  0  0  0
 23 26  1  0  0  0  0
 24 10  1  0  0  0  0
 27 10  2  0  0  0  0
 29 30  1  0  0  0  0
 29  3  1  0  0  0  0
 30 18  1  0  0  0  0
M  END
>  <MODEL>
3

>  <REMARK>
 VINA RESULT:      -8.4      2.055      4.970
  Name = 
  0 active torsions:
  status: ('A' for Active; 'I' for Inactive)
                            x       y       z     vdW  Elec       q    Type
                         _______ _______ _______ _____ _____    ______ ____

>  <TORSDO>
F 0

$$$$
=
 OpenBabel11062419443D

 30 37  0  0  1  0  0  0  0  0999 V2000
  186.8570  177.6490  145.3430 C   0  0  1  0  0  3  0  0  0  0  0  0
  186.0560  177.1700  141.4880 C   0  0  0  0  0  2  0  0  0  0  0  0
  189.6490  175.3680  147.0360 C   0  0  1  0  0  3  0  0  0  0  0  0
  186.5090  178.8810  146.1450 C   0  0  0  0  0  2  0  0  0  0  0  0
  188.6380  176.2200  144.2970 C   0  0  0  0  0  0  0  0  0  0  0  0
  189.6600  175.2240  144.4410 C   0  0  0  0  0  0  0  0  0  0  0  0
  186.8600  177.2860  142.7950 C   0  0  2  0  0  0  0  0  0  0  0  0
  190.0360  174.4350  143.3110 C   0  0  0  0  0  0  0  0  0  0  0  0
  186.3010  177.9770  143.9750 C   0  0  2  0  0  0  0  0  0  0  0  0
  192.3640  173.7000  143.9620 C   0  0  0  0  0  3  0  0  0  0  0  0
  188.2890  175.4620  142.0800 N   0  0  0  0  0  0  0  0  0  0  0  0
  189.4990  173.9710  140.9470 N   0  0  0  0  0  0  0  0  0  0  0  0
  189.2800  174.5750  142.1400 C   0  0  0  0  0  0  0  0  0  0  0  0
  188.3480  177.2830  145.3380 C   0  0  0  0  0  2  0  0  0  0  0  0
  187.2530  178.5940  143.1220 O   0  0  0  0  0  0  0  0  0  0  0  0
  190.3790  174.9570  145.7450 C   0  0  1  0  0  3  0  0  0  0  0  0
  191.8070  175.4090  145.6910 C   0  0  0  0  0  0  0  0  0  0  0  0
  192.2970  176.4160  146.6930 C   0  0  0  0  0  2  0  0  0  0  0  0
  186.8670  176.5230  140.3350 C   0  0  0  0  0  2  0  0  0  0  0  0
  187.9470  176.2970  143.0700 C   0  0  0  0  0  0  0  0  0  0  0  0
  187.8160  175.4640  140.8360 C   0  0  0  0  0  0  0  0  0  0  0  0
  185.2090  179.4160  145.5240 C   0  0  0  0  0  2  0  0  0  0  0  0
  188.5700  174.5410  140.1310 C   0  0  0  0  0  0  0  0  0  0  0  0
  192.6920  174.7730  144.9250 C   0  0  0  0  0  3  0  0  0  0  0  0
  188.9410  174.1680  147.6290 C   0  0  0  0  0  1  0  0  0  0  0  0
  188.4660  174.2580  138.6730 C   0  0  0  0  0  1  0  0  0  0  0  0
  191.2200  173.5450  143.2810 C   0  0  0  0  0  3  0  0  0  0  0  0
  185.1220  178.9020  144.0840 C   0  0  0  0  0  2  0  0  0  0  0  0
  190.5850  175.9230  148.0130 N   0  0  0  0  0  2  0  0  0  0  0  0
  191.2210  176.9690  147.4160 O   0  0  0  0  0  0  0  0  0  0  0  0
  1 14  1  6  0  0  0
  1  4  1  0  0  0  0
  3 25  1  1  0  0  0
  3 29  1  0  0  0  0
  5  6  1  0  0  0  0
  5 14  1  0  0  0  0
  7  2  1  6  0  0  0
  7 20  1  0  0  0  0
  7 15  1  0  0  0  0
  7  9  1  0  0  0  0
  8  6  2  0  0  0  0
  9 28  1  6  0  0  0
  9  1  1  0  0  0  0
 10 24  1  0  0  0  0
 11 13  1  0  0  0  0
 11 20  1  0  0  0  0
 12 13  2  0  0  0  0
 13  8  1  0  0  0  0
 15  9  1  0  0  0  0
 16  6  1  6  0  0  0
 16  3  1  0  0  0  0
 17 16  1  0  0  0  0
 17 18  1  0  0  0  0
 18 30  1  0  0  0  0
 19 21  1  0  0  0  0
 19  2  1  0  0  0  0
 20  5  2  0  0  0  0
 21 11  1  0  0  0  0
 22  4  1  0  0  0  0
 23 21  2  0  0  0  0
 23 12  1  0  0  0  0
 24 17  2  0  0  0  0
 26 23  1  0  0  0  0
 27  8  1  0  0  0  0
 27 10  2  0  0  0  0
 28 22  1  0  0  0  0
 30 29  1  0  0  0  0
M  END
>  <MODEL>
4

>  <REMARK>
 VINA RESULT:      -8.2      1.451      1.842
  Name = 
  0 active torsions:
  status: ('A' for Active; 'I' for Inactive)
                            x       y       z     vdW  Elec       q    Type
                         _______ _______ _______ _____ _____    ______ ____

>  <TORSDO>
F 0

$$$$
=
 OpenBabel11062419443D

 30 37  0  0  1  0  0  0  0  0999 V2000
  192.7810  174.1100  142.6500 C   0  0  1  0  0  3  0  0  0  0  0  0
  194.2480  175.8230  145.9120 C   0  0  0  0  0  2  0  0  0  0  0  0
  188.8310  173.8260  142.2240 C   0  0  1  0  0  3  0  0  0  0  0  0
  193.5480  173.9200  141.3620 C   0  0  0  0  0  2  0  0  0  0  0  0
  190.9290  175.2840  143.8750 C   0  0  0  0  0  0  0  0  0  0  0  0
  189.5300  175.4100  144.1620 C   0  0  0  0  0  0  0  0  0  0  0  0
  193.3360  175.5630  144.7000 C   0  0  2  0  0  0  0  0  0  0  0  0
  189.1160  176.0190  145.3860 C   0  0  0  0  0  0  0  0  0  0  0  0
  193.8060  174.7620  143.5520 C   0  0  2  0  0  0  0  0  0  0  0  0
  186.7760  176.7750  144.8090 C   0  0  0  0  0  3  0  0  0  0  0  0
  191.3940  176.1300  146.0380 N   0  0  0  0  0  0  0  0  0  0  0  0
  189.9440  176.9660  147.5100 N   0  0  0  0  0  0  0  0  0  0  0  0
  190.1100  176.3370  146.3220 C   0  0  0  0  0  0  0  0  0  0  0  0
  191.4750  174.9060  142.5120 C   0  0  0  0  0  2  0  0  0  0  0  0
  193.7570  176.1800  143.5120 O   0  0  0  0  0  0  0  0  0  0  0  0
  188.4440  174.9290  143.2250 C   0  0  1  0  0  3  0  0  0  0  0  0
  187.7040  176.0740  142.6030 C   0  0  0  0  0  0  0  0  0  0  0  0
  187.6620  176.1940  141.1060 C   0  0  0  0  0  2  0  0  0  0  0  0
  193.6140  176.7880  146.9490 C   0  0  0  0  0  2  0  0  0  0  0  0
  191.8530  175.6510  144.8740 C   0  0  0  0  0  0  0  0  0  0  0  0
  192.1190  176.6150  147.0430 C   0  0  0  0  0  0  0  0  0  0  0  0
  195.0100  173.7150  141.7860 C   0  0  0  0  0  2  0  0  0  0  0  0
  191.2190  177.1380  147.9560 C   0  0  0  0  0  0  0  0  0  0  0  0
  186.9050  176.8450  143.3380 C   0  0  0  0  0  3  0  0  0  0  0  0
  188.4220  172.4730  142.7680 C   0  0  0  0  0  1  0  0  0  0  0  0
  191.5670  177.8690  149.2050 C   0  0  0  0  0  1  0  0  0  0  0  0
  187.7190  176.4050  145.6880 C   0  0  0  0  0  3  0  0  0  0  0  0
  195.1980  174.3450  143.1700 C   0  0  0  0  0  2  0  0  0  0  0  0
  188.1950  174.0500  140.9260 N   0  0  0  0  0  2  0  0  0  0  0  0
  188.5620  175.2920  140.5040 O   0  0  0  0  0  0  0  0  0  0  0  0
  1  4  1  6  0  0  0
  1  9  1  0  0  0  0
  2 19  1  0  0  0  0
  3 25  1  1  0  0  0
  3 16  1  0  0  0  0
  4 22  1  0  0  0  0
  5  6  1  0  0  0  0
  5 20  2  0  0  0  0
  6  8  2  0  0  0  0
  7 20  1  0  0  0  0
  7  2  1  1  0  0  0
  8 27  1  0  0  0  0
  8 13  1  0  0  0  0
  9 28  1  1  0  0  0
  9  7  1  0  0  0  0
 10 27  2  0  0  0  0
 11 13  1  0  0  0  0
 11 21  1  0  0  0  0
 12 23  1  0  0  0  0
 13 12  2  0  0  0  0
 14  1  1  0  0  0  0
 14  5  1  0  0  0  0
 15  9  1  0  0  0  0
 15  7  1  0  0  0  0
 16 17  1  6  0  0  0
 16  6  1  0  0  0  0
 17 24  2  0  0  0  0
 18 17  1  0  0  0  0
 19 21  1  0  0  0  0
 20 11  1  0  0  0  0
 21 23  2  0  0  0  0
 22 28  1  0  0  0  0
 23 26  1  0  0  0  0
 24 10  1  0  0  0  0
 29  3  1  0  0  0  0
 30 29  1  0  0  0  0
 30 18  1  0  0  0  0
M  END
>  <MODEL>
5

>  <REMARK>
 VINA RESULT:      -7.9      2.366      7.463
  Name = 
  0 active torsions:
  status: ('A' for Active; 'I' for Inactive)
                            x       y       z     vdW  Elec       q    Type
                         _______ _______ _______ _____ _____    ______ ____

>  <TORSDO>
F 0

$$$$
=
 OpenBabel11062419443D

 30 37  0  0  1  0  0  0  0  0999 V2000
  189.1170  176.3230  144.3360 C   0  0  1  0  0  3  0  0  0  0  0  0
  188.2460  173.4000  141.8010 C   0  0  0  0  0  2  0  0  0  0  0  0
  192.1470  175.8400  146.8750 C   0  0  1  0  0  3  0  0  0  0  0  0
  188.6870  177.7610  144.1680 C   0  0  0  0  0  2  0  0  0  0  0  0
  190.9840  174.6430  144.3330 C   0  0  0  0  0  0  0  0  0  0  0  0
  192.0930  174.0340  145.0080 C   0  0  0  0  0  0  0  0  0  0  0  0
  189.0760  174.3810  142.6470 C   0  0  2  0  0  0  0  0  0  0  0  0
  192.5040  172.7160  144.6380 C   0  0  0  0  0  0  0  0  0  0  0  0
  188.4930  175.6480  143.1340 C   0  0  2  0  0  0  0  0  0  0  0  0
  194.9050  172.6970  145.4210 C   0  0  0  0  0  3  0  0  0  0  0  0
  190.6370  172.6030  143.1800 N   0  0  0  0  0  0  0  0  0  0  0  0
  191.9380  170.7930  143.1970 N   0  0  0  0  0  0  0  0  0  0  0  0
  191.7030  172.0200  143.7230 C   0  0  0  0  0  0  0  0  0  0  0  0
  190.6340  176.1130  144.4510 C   0  0  0  0  0  2  0  0  0  0  0  0
  189.3630  175.5990  142.0120 O   0  0  0  0  0  0  0  0  0  0  0  0
  192.8720  174.7200  146.1090 C   0  0  1  0  0  3  0  0  0  0  0  0
  194.2530  175.0920  145.6600 C   0  0  0  0  0  0  0  0  0  0  0  0
  194.6820  176.5300  145.7230 C   0  0  0  0  0  2  0  0  0  0  0  0
  189.0750  172.1940  141.2850 C   0  0  0  0  0  2  0  0  0  0  0  0
  190.2530  173.8650  143.4120 C   0  0  0  0  0  0  0  0  0  0  0  0
  190.1290  171.7680  142.2760 C   0  0  0  0  0  0  0  0  0  0  0  0
  187.3270  177.6970  143.4550 C   0  0  0  0  0  2  0  0  0  0  0  0
  190.9390  170.6450  142.2850 C   0  0  0  0  0  0  0  0  0  0  0  0
  195.1660  174.1520  145.4240 C   0  0  0  0  0  3  0  0  0  0  0  0
  191.5660  175.2910  148.1610 C   0  0  0  0  0  1  0  0  0  0  0  0
  190.8160  169.4730  141.3760 C   0  0  0  0  0  1  0  0  0  0  0  0
  193.7590  172.0800  145.0990 C   0  0  0  0  0  3  0  0  0  0  0  0
  187.2420  176.3620  142.7080 C   0  0  0  0  0  2  0  0  0  0  0  0
  193.0600  176.9430  147.1770 N   0  0  0  0  0  2  0  0  0  0  0  0
  193.5840  177.3710  145.9940 O   0  0  0  0  0  0  0  0  0  0  0  0
  1  4  1  6  0  0  0
  1 14  1  0  0  0  0
  3 29  1  0  0  0  0
  3 25  1  1  0  0  0
  5 14  1  0  0  0  0
  5  6  1  0  0  0  0
  7  2  1  6  0  0  0
  7  9  1  0  0  0  0
  7 20  1  0  0  0  0
  8  6  2  0  0  0  0
  8 27  1  0  0  0  0
  9 28  1  6  0  0  0
  9  1  1  0  0  0  0
 10 24  1  0  0  0  0
 11 20  1  0  0  0  0
 11 13  1  0  0  0  0
 12 13  2  0  0  0  0
 13  8  1  0  0  0  0
 15  7  1  0  0  0  0
 15  9  1  0  0  0  0
 16  6  1  6  0  0  0
 16  3  1  0  0  0  0
 17 18  1  0  0  0  0
 17 16  1  0  0  0  0
 18 30  1  0  0  0  0
 19  2  1  0  0  0  0
 19 21  1  0  0  0  0
 20  5  2  0  0  0  0
 21 23  2  0  0  0  0
 21 11  1  0  0  0  0
 22  4  1  0  0  0  0
 23 12  1  0  0  0  0
 24 17  2  0  0  0  0
 26 23  1  0  0  0  0
 27 10  2  0  0  0  0
 28 22  1  0  0  0  0
 30 29  1  0  0  0  0
M  END
>  <MODEL>
6

>  <REMARK>
 VINA RESULT:      -7.9      3.217      5.032
  Name = 
  0 active torsions:
  status: ('A' for Active; 'I' for Inactive)
                            x       y       z     vdW  Elec       q    Type
                         _______ _______ _______ _____ _____    ______ ____

>  <TORSDO>
F 0

$$$$
=
 OpenBabel11062419443D

 30 37  0  0  1  0  0  0  0  0999 V2000
  190.2770  174.2210  140.8600 C   0  0  1  0  0  3  0  0  0  0  0  0
  186.7990  175.8610  141.8320 C   0  0  0  0  0  2  0  0  0  0  0  0
  193.4310  174.8420  143.2110 C   0  0  1  0  0  3  0  0  0  0  0  0
  190.4410  173.0520  139.9170 C   0  0  0  0  0  2  0  0  0  0  0  0
  190.4010  175.0970  143.2110 C   0  0  0  0  0  0  0  0  0  0  0  0
  191.1930  175.5810  144.3040 C   0  0  0  0  0  0  0  0  0  0  0  0
  188.1560  175.1500  141.9830 C   0  0  2  0  0  0  0  0  0  0  0  0
  190.5900  176.4200  145.2910 C   0  0  0  0  0  0  0  0  0  0  0  0
  188.7820  174.4560  140.8390 C   0  0  2  0  0  0  0  0  0  0  0  0
  192.1310  176.0680  147.2620 C   0  0  0  0  0  3  0  0  0  0  0  0
  188.6070  176.4330  143.9910 N   0  0  0  0  0  0  0  0  0  0  0  0
  188.5030  177.5950  145.8900 N   0  0  0  0  0  0  0  0  0  0  0  0
  189.2760  176.8500  145.0630 C   0  0  0  0  0  0  0  0  0  0  0  0
  190.8550  174.0020  142.2660 C   0  0  0  0  0  2  0  0  0  0  0  0
  188.0970  173.7520  141.8640 O   0  0  0  0  0  0  0  0  0  0  0  0
  192.6580  175.2470  144.4780 C   0  0  1  0  0  3  0  0  0  0  0  0
  192.8810  174.3280  145.6400 C   0  0  0  0  0  0  0  0  0  0  0  0
  193.5550  173.0050  145.4100 C   0  0  0  0  0  2  0  0  0  0  0  0
  186.2550  176.4160  143.1750 C   0  0  0  0  0  2  0  0  0  0  0  0
  189.0800  175.5740  143.0790 C   0  0  0  0  0  0  0  0  0  0  0  0
  187.3630  176.8990  144.0770 C   0  0  0  0  0  0  0  0  0  0  0  0
  189.3090  173.1980  138.8890 C   0  0  0  0  0  2  0  0  0  0  0  0
  187.2980  177.6190  145.2580 C   0  0  0  0  0  0  0  0  0  0  0  0
  192.6980  174.7550  146.8880 C   0  0  0  0  0  3  0  0  0  0  0  0
  194.1700  176.0410  142.6550 C   0  0  0  0  0  1  0  0  0  0  0  0
  186.0790  178.2560  145.8260 C   0  0  0  0  0  1  0  0  0  0  0  0
  191.2380  176.7910  146.5700 C   0  0  0  0  0  3  0  0  0  0  0  0
  188.1920  174.0330  139.5250 C   0  0  0  0  0  2  0  0  0  0  0  0
  194.3800  173.7660  143.4990 N   0  0  0  0  0  2  0  0  0  0  0  0
  193.6710  172.7330  144.0330 O   0  0  0  0  0  0  0  0  0  0  0  0
  1  4  1  6  0  0  0
  1 14  1  0  0  0  0
  2 19  1  0  0  0  0
  3 25  1  1  0  0  0
  3 29  1  0  0  0  0
  3 16  1  0  0  0  0
  5  6  1  0  0  0  0
  6  8  2  0  0  0  0
  7  2  1  6  0  0  0
  7 20  1  0  0  0  0
  8 27  1  0  0  0  0
  9 28  1  6  0  0  0
  9  1  1  0  0  0  0
  9 15  1  0  0  0  0
  9  7  1  0  0  0  0
 11 21  1  0  0  0  0
 11 13  1  0  0  0  0
 13  8  1  0  0  0  0
 13 12  2  0  0  0  0
 14  5  1  0  0  0  0
 15  7  1  0  0  0  0
 16  6  1  6  0  0  0
 16 17  1  0  0  0  0
 17 24  2  0  0  0  0
 18 17  1  0  0  0  0
 19 21  1  0  0  0  0
 20  5  2  0  0  0  0
 20 11  1  0  0  0  0
 21 23  2  0  0  0  0
 22 28  1  0  0  0  0
 22  4  1  0  0  0  0
 23 26  1  0  0  0  0
 23 12  1  0  0  0  0
 24 10  1  0  0  0  0
 27 10  2  0  0  0  0
 29 30  1  0  0  0  0
 30 18  1  0  0  0  0
M  END
>  <MODEL>
7

>  <REMARK>
 VINA RESULT:      -7.7      2.621      5.514
  Name = 
  0 active torsions:
  status: ('A' for Active; 'I' for Inactive)
                            x       y       z     vdW  Elec       q    Type
                         _______ _______ _______ _____ _____    ______ ____

>  <TORSDO>
F 0

$$$$
=
 OpenBabel11062419443D

 30 37  0  0  1  0  0  0  0  0999 V2000
  192.3760  174.1170  144.5050 C   0  0  1  0  0  3  0  0  0  0  0  0
  191.9740  171.9540  141.2050 C   0  0  0  0  0  2  0  0  0  0  0  0
  189.9750  177.2440  145.0720 C   0  0  1  0  0  3  0  0  0  0  0  0
  193.0660  173.6430  145.7630 C   0  0  0  0  0  2  0  0  0  0  0  0
  190.2320  174.7450  143.3580 C   0  0  0  0  0  0  0  0  0  0  0  0
  189.1990  175.7110  143.1230 C   0  0  0  0  0  0  0  0  0  0  0  0
  191.5980  172.7810  142.4480 C   0  0  2  0  0  0  0  0  0  0  0  0
  188.4330  175.6410  141.9190 C   0  0  0  0  0  0  0  0  0  0  0  0
  192.5430  172.9380  143.5720 C   0  0  2  0  0  0  0  0  0  0  0  0
  186.3300  176.8730  142.5870 C   0  0  0  0  0  3  0  0  0  0  0  0
  189.8440  173.8830  141.1860 N   0  0  0  0  0  0  0  0  0  0  0  0
  188.2120  174.4400  139.7740 N   0  0  0  0  0  0  0  0  0  0  0  0
  188.8280  174.7090  140.9500 C   0  0  0  0  0  0  0  0  0  0  0  0
  190.9180  174.5590  144.6970 C   0  0  0  0  0  2  0  0  0  0  0  0
  191.4530  172.0300  143.6250 O   0  0  0  0  0  0  0  0  0  0  0  0
  188.8650  176.8210  144.0950 C   0  0  1  0  0  3  0  0  0  0  0  0
  187.5360  176.5980  144.7530 C   0  0  0  0  0  0  0  0  0  0  0  0
  187.4640  176.5160  146.2510 C   0  0  0  0  0  2  0  0  0  0  0  0
  190.8020  171.8080  140.2000 C   0  0  0  0  0  2  0  0  0  0  0  0
  190.5420  173.8330  142.3280 C   0  0  0  0  0  0  0  0  0  0  0  0
  189.9340  173.0400  140.1590 C   0  0  0  0  0  0  0  0  0  0  0  0
  194.1780  172.6980  145.2840 C   0  0  0  0  0  2  0  0  0  0  0  0
  188.9180  173.3840  139.2840 C   0  0  0  0  0  0  0  0  0  0  0  0
  186.4080  176.6970  144.0530 C   0  0  0  0  0  3  0  0  0  0  0  0
  190.6970  178.4610  144.5330 C   0  0  0  0  0  1  0  0  0  0  0  0
  188.5660  172.6660  138.0290 C   0  0  0  0  0  1  0  0  0  0  0  0
  187.2060  176.4340  141.6720 C   0  0  0  0  0  3  0  0  0  0  0  0
  193.7910  172.1690  143.9000 C   0  0  0  0  0  2  0  0  0  0  0  0
  189.4240  177.5410  146.3940 N   0  0  0  0  0  2  0  0  0  0  0  0
  188.7530  176.4320  146.8120 O   0  0  0  0  0  0  0  0  0  0  0  0
  1 14  1  1  0  0  0
  1  4  1  0  0  0  0
  3 25  1  6  0  0  0
  3 29  1  0  0  0  0
  5 14  1  0  0  0  0
  6  5  1  0  0  0  0
  7  2  1  6  0  0  0
  7  9  1  0  0  0  0
  7 15  1  0  0  0  0
  8  6  2  0  0  0  0
  9 15  1  0  0  0  0
  9 28  1  6  0  0  0
  9  1  1  0  0  0  0
 10 24  1  0  0  0  0
 11 20  1  0  0  0  0
 12 13  2  0  0  0  0
 13 11  1  0  0  0  0
 13  8  1  0  0  0  0
 16  6  1  1  0  0  0
 16 17  1  0  0  0  0
 16  3  1  0  0  0  0
 17 18  1  0  0  0  0
 18 30  1  0  0  0  0
 19  2  1  0  0  0  0
 20  7  1  0  0  0  0
 20  5  2  0  0  0  0
 21 19  1  0  0  0  0
 21 11  1  0  0  0  0
 22  4  1  0  0  0  0
 23 12  1  0  0  0  0
 23 21  2  0  0  0  0
 24 17  2  0  0  0  0
 26 23  1  0  0  0  0
 27  8  1  0  0  0  0
 27 10  2  0  0  0  0
 28 22  1  0  0  0  0
 29 30  1  0  0  0  0
M  END
>  <MODEL>
8

>  <REMARK>
 VINA RESULT:      -7.6      2.655      6.047
  Name = 
  0 active torsions:
  status: ('A' for Active; 'I' for Inactive)
                            x       y       z     vdW  Elec       q    Type
                         _______ _______ _______ _____ _____    ______ ____

>  <TORSDO>
F 0

$$$$
=
 OpenBabel11062419443D

 30 37  0  0  1  0  0  0  0  0999 V2000
  192.8170  174.7880  144.8470 C   0  0  1  0  0  3  0  0  0  0  0  0
  189.7760  177.1170  145.8730 C   0  0  0  0  0  2  0  0  0  0  0  0
  192.3200  172.1370  141.9170 C   0  0  1  0  0  3  0  0  0  0  0  0
  194.2650  175.0770  145.1680 C   0  0  0  0  0  2  0  0  0  0  0  0
  191.0140  174.6120  143.1080 C   0  0  0  0  0  0  0  0  0  0  0  0
  190.3830  173.8620  142.0610 C   0  0  0  0  0  0  0  0  0  0  0  0
  190.7580  176.3250  144.9920 C   0  0  2  0  0  0  0  0  0  0  0  0
  189.0140  174.1200  141.7400 C   0  0  0  0  0  0  0  0  0  0  0  0
  192.0980  175.9530  145.4920 C   0  0  2  0  0  0  0  0  0  0  0  0
  188.8850  173.2710  139.3640 C   0  0  0  0  0  3  0  0  0  0  0  0
  188.9210  175.6160  143.5770 N   0  0  0  0  0  0  0  0  0  0  0  0
  187.0300  175.4250  142.4120 N   0  0  0  0  0  0  0  0  0  0  0  0
  188.3070  175.0010  142.5690 C   0  0  0  0  0  0  0  0  0  0  0  0
  192.5100  174.6150  143.3520 C   0  0  0  0  0  2  0  0  0  0  0  0
  191.9000  177.0430  144.6040 O   0  0  0  0  0  0  0  0  0  0  0  0
  191.0950  172.7950  141.2590 C   0  0  1  0  0  3  0  0  0  0  0  0
  191.3320  173.2330  139.8450 C   0  0  0  0  0  0  0  0  0  0  0  0
  192.7370  173.2670  139.3140 C   0  0  0  0  0  2  0  0  0  0  0  0
  188.4780  177.5170  145.1220 C   0  0  0  0  0  2  0  0  0  0  0  0
  190.2210  175.4910  143.8730 C   0  0  0  0  0  0  0  0  0  0  0  0
  188.0560  176.4670  144.1240 C   0  0  0  0  0  0  0  0  0  0  0  0
  194.2430  175.8200  146.5120 C   0  0  0  0  0  2  0  0  0  0  0  0
  186.8830  176.3510  143.3990 C   0  0  0  0  0  0  0  0  0  0  0  0
  190.3140  173.3710  138.9980 C   0  0  0  0  0  3  0  0  0  0  0  0
  191.9140  170.8300  142.5650 C   0  0  0  0  0  1  0  0  0  0  0  0
  185.6550  177.1720  143.5860 C   0  0  0  0  0  1  0  0  0  0  0  0
  188.3290  173.5770  140.5450 C   0  0  0  0  0  3  0  0  0  0  0  0
  192.8630  176.4650  146.6770 C   0  0  0  0  0  2  0  0  0  0  0  0
  193.3750  171.8940  140.9330 N   0  0  0  0  0  2  0  0  0  0  0  0
  193.6720  173.0910  140.3530 O   0  0  0  0  0  0  0  0  0  0  0  0
  1 14  1  6  0  0  0
  1  4  1  0  0  0  0
  1  9  1  0  0  0  0
  3 25  1  6  0  0  0
  4 22  1  0  0  0  0
  5 14  1  0  0  0  0
  5 20  2  0  0  0  0
  6  5  1  0  0  0  0
  7  9  1  0  0  0  0
  7  2  1  1  0  0  0
  8  6  2  0  0  0  0
  8 13  1  0  0  0  0
  9 28  1  1  0  0  0
 10 27  2  0  0  0  0
 11 20  1  0  0  0  0
 11 21  1  0  0  0  0
 12 13  2  0  0  0  0
 12 23  1  0  0  0  0
 13 11  1  0  0  0  0
 15  7  1  0  0  0  0
 15  9  1  0  0  0  0
 16 17  1  6  0  0  0
 16  3  1  0  0  0  0
 16  6  1  0  0  0  0
 18 17  1  0  0  0  0
 18 30  1  0  0  0  0
 19  2  1  0  0  0  0
 20  7  1  0  0  0  0
 21 19  1  0  0  0  0
 22 28  1  0  0  0  0
 23 26  1  0  0  0  0
 23 21  2  0  0  0  0
 24 10  1  0  0  0  0
 24 17  2  0  0  0  0
 27  8  1  0  0  0  0
 29  3  1  0  0  0  0
 30 29  1  0  0  0  0
M  END
>  <MODEL>
9

>  <REMARK>
 VINA RESULT:      -7.6      2.888      5.706
  Name = 
  0 active torsions:
  status: ('A' for Active; 'I' for Inactive)
                            x       y       z     vdW  Elec       q    Type
                         _______ _______ _______ _____ _____    ______ ____

>  <TORSDO>
F 0

$$$$
