=
 OpenBabel11072408503D

 26 29  0  0  1  0  0  0  0  0999 V2000
  188.9730  173.5240  142.1700 O   0  0  0  0  0  1  0  0  0  0  0  0
  184.4200  178.0550  143.4840 C   0  0  0  0  0  0  0  0  0  0  0  0
  184.5820  178.2330  144.8660 C   0  0  0  0  0  0  0  0  0  0  0  0
  188.6540  175.6670  144.6710 C   0  0  0  0  0  0  0  0  0  0  0  0
  189.5210  174.6990  142.6850 C   0  0  1  0  0  3  0  0  0  0  0  0
  188.4590  175.5050  143.3250 C   0  0  0  0  0  0  0  0  0  0  0  0
  187.7410  176.3850  145.4430 C   0  0  0  0  0  3  0  0  0  0  0  0
  183.6490  178.9620  145.5920 O   0  0  0  0  0  1  0  0  0  0  0  0
  186.4680  176.7630  143.4000 C   0  0  0  0  0  0  0  0  0  0  0  0
  190.4660  174.3550  143.8490 C   0  0  0  0  0  2  0  0  0  0  0  0
  187.3850  176.0450  142.6910 N   0  0  0  0  0  0  0  0  0  0  0  0
  183.3240  178.6060  142.8300 O   0  0  0  0  0  1  0  0  0  0  0  0
  185.3620  177.3210  142.7540 C   0  0  0  0  0  3  0  0  0  0  0  0
  185.6860  177.6780  145.5200 C   0  0  0  0  0  3  0  0  0  0  0  0
  189.8890  174.9890  145.1320 C   0  0  1  0  0  3  0  0  0  0  0  0
  186.6310  176.9450  144.7990 C   0  0  0  0  0  0  0  0  0  0  0  0
  190.7100  175.9690  147.3100 C   0  0  0  0  0  2  0  0  0  0  0  0
  191.5700  177.4200  149.0030 O   0  0  0  0  0  0  0  0  0  0  0  0
  191.7860  176.8080  147.9250 C   0  0  0  0  0  0  0  0  0  0  0  0
  193.0520  176.8580  147.3330 O   0  0  0  0  0  0  0  0  0  0  0  0
  192.3040  175.7510  145.3690 C   0  0  0  0  0  3  0  0  0  0  0  0
  193.3140  176.2280  146.1070 C   0  0  0  0  0  0  0  0  0  0  0  0
  190.8710  175.9680  145.7900 C   0  0  1  0  0  3  0  0  0  0  0  0
  195.5030  174.8570  145.9470 C   0  0  0  0  0  1  0  0  0  0  0  0
  195.2490  177.0190  145.0050 O   0  0  0  0  0  0  0  0  0  0  0  0
  194.7090  176.0860  145.6550 C   0  0  0  0  0  0  0  0  0  0  0  0
  2  3  1  0  0  0  0
  3 14  2  0  0  0  0
  3  8  1  0  0  0  0
  4 15  1  0  0  0  0
  4  7  1  0  0  0  0
  5  1  1  1  0  0  0
  5  6  1  0  0  0  0
  5 10  1  0  0  0  0
  6  4  2  0  0  0  0
  9 16  1  0  0  0  0
 11  6  1  0  0  0  0
 11  9  2  0  0  0  0
 12  2  1  0  0  0  0
 13  9  1  0  0  0  0
 13  2  2  0  0  0  0
 15 10  1  6  0  0  0
 15 23  1  0  0  0  0
 16  7  2  0  0  0  0
 16 14  1  0  0  0  0
 17 19  1  0  0  0  0
 19 18  2  0  0  0  0
 20 19  1  0  0  0  0
 21 22  2  0  0  0  0
 22 20  1  0  0  0  0
 23 21  1  1  0  0  0
 23 17  1  0  0  0  0
 25 26  2  0  0  0  0
 26 24  1  0  0  0  0
 26 22  1  0  0  0  0
M  END
>  <MODEL>
1

>  <REMARK>
 VINA RESULT:      -8.0      0.000      0.000
  Name = 
  2 active torsions:
  status: ('A' for Active; 'I' for Inactive)
    1  A    between atoms: C_21  and  C_26
    2  A    between atoms: C_24  and  C_25
                            x       y       z     vdW  Elec       q    Type
                         _______ _______ _______ _____ _____    ______ ____

>  <TORSDO>
F 2

$$$$
=
 OpenBabel11072408503D

 26 29  0  0  1  0  0  0  0  0999 V2000
  189.3310  174.5540  140.9200 O   0  0  0  0  0  1  0  0  0  0  0  0
  190.7410  175.5400  147.2460 C   0  0  0  0  0  0  0  0  0  0  0  0
  190.5420  176.9230  147.3730 C   0  0  0  0  0  0  0  0  0  0  0  0
  188.5000  176.9810  143.0100 C   0  0  0  0  0  0  0  0  0  0  0  0
  188.2480  175.0620  141.6360 C   0  0  1  0  0  3  0  0  0  0  0  0
  188.7200  175.6320  142.9170 C   0  0  0  0  0  0  0  0  0  0  0  0
  188.8990  177.6910  144.1420 C   0  0  0  0  0  3  0  0  0  0  0  0
  190.9500  177.5870  148.5230 O   0  0  0  0  0  1  0  0  0  0  0  0
  189.7160  175.5830  145.0520 C   0  0  0  0  0  0  0  0  0  0  0  0
  187.6670  176.2760  140.8920 C   0  0  0  0  0  2  0  0  0  0  0  0
  189.3160  174.9360  143.9200 N   0  0  0  0  0  0  0  0  0  0  0  0
  191.3490  174.8230  148.2700 O   0  0  0  0  0  1  0  0  0  0  0  0
  190.3290  174.8730  146.0870 C   0  0  0  0  0  3  0  0  0  0  0  0
  189.9300  177.6410  146.3410 C   0  0  0  0  0  3  0  0  0  0  0  0
  187.8400  177.5150  141.7960 C   0  0  1  0  0  3  0  0  0  0  0  0
  189.5150  176.9830  145.1820 C   0  0  0  0  0  0  0  0  0  0  0  0
  185.4020  177.7160  141.1680 C   0  0  0  0  0  2  0  0  0  0  0  0
  183.1860  178.5160  140.7660 O   0  0  0  0  0  0  0  0  0  0  0  0
  184.0840  178.2690  141.6120 C   0  0  0  0  0  0  0  0  0  0  0  0
  183.8310  178.4500  142.9760 O   0  0  0  0  0  0  0  0  0  0  0  0
  186.0980  178.0580  143.5670 C   0  0  0  0  0  3  0  0  0  0  0  0
  184.8240  178.2320  143.9430 C   0  0  0  0  0  0  0  0  0  0  0  0
  186.5010  178.1910  142.1190 C   0  0  1  0  0  3  0  0  0  0  0  0
  185.0450  177.1820  146.2970 C   0  0  0  0  0  1  0  0  0  0  0  0
  183.5970  178.9970  145.8110 O   0  0  0  0  0  0  0  0  0  0  0  0
  184.4450  178.1800  145.3650 C   0  0  0  0  0  0  0  0  0  0  0  0
  2  3  1  0  0  0  0
  2 12  1  0  0  0  0
  3  8  1  0  0  0  0
  4  7  1  0  0  0  0
  5  1  1  6  0  0  0
  5  6  1  0  0  0  0
  6  4  2  0  0  0  0
  6 11  1  0  0  0  0
  7 16  2  0  0  0  0
  9 16  1  0  0  0  0
  9 13  1  0  0  0  0
 10  5  1  0  0  0  0
 11  9  2  0  0  0  0
 13  2  2  0  0  0  0
 14  3  2  0  0  0  0
 15 10  1  6  0  0  0
 15 23  1  0  0  0  0
 15  4  1  0  0  0  0
 16 14  1  0  0  0  0
 17 19  1  0  0  0  0
 18 19  2  0  0  0  0
 19 20  1  0  0  0  0
 20 22  1  0  0  0  0
 21 22  2  0  0  0  0
 22 26  1  0  0  0  0
 23 17  1  6  0  0  0
 23 21  1  0  0  0  0
 26 25  2  0  0  0  0
 26 24  1  0  0  0  0
M  END
>  <MODEL>
2

>  <REMARK>
 VINA RESULT:      -7.9      2.210      7.258
  Name = 
  2 active torsions:
  status: ('A' for Active; 'I' for Inactive)
    1  A    between atoms: C_21  and  C_26
    2  A    between atoms: C_24  and  C_25
                            x       y       z     vdW  Elec       q    Type
                         _______ _______ _______ _____ _____    ______ ____

>  <TORSDO>
F 2

$$$$
=
 OpenBabel11072408503D

 26 29  0  0  1  0  0  0  0  0999 V2000
  187.7420  178.2980  147.7450 O   0  0  0  0  0  1  0  0  0  0  0  0
  184.0610  178.1940  142.3220 C   0  0  0  0  0  0  0  0  0  0  0  0
  185.0270  178.3430  141.3150 C   0  0  0  0  0  0  0  0  0  0  0  0
  188.4830  177.6190  144.5920 C   0  0  0  0  0  0  0  0  0  0  0  0
  188.0680  177.2390  146.8980 C   0  0  1  0  0  3  0  0  0  0  0  0
  187.5130  177.4890  145.5510 C   0  0  0  0  0  0  0  0  0  0  0  0
  188.1430  177.8780  143.2650 C   0  0  0  0  0  3  0  0  0  0  0  0
  184.6410  178.5940  140.0050 O   0  0  0  0  0  1  0  0  0  0  0  0
  185.8080  177.8350  143.9600 C   0  0  0  0  0  0  0  0  0  0  0  0
  189.5880  177.2190  146.6660 C   0  0  0  0  0  2  0  0  0  0  0  0
  186.1920  177.5920  145.2460 N   0  0  0  0  0  0  0  0  0  0  0  0
  182.7100  178.2970  142.0150 O   0  0  0  0  0  1  0  0  0  0  0  0
  184.4530  177.9420  143.6410 C   0  0  0  0  0  3  0  0  0  0  0  0
  186.3870  178.2390  141.6260 C   0  0  0  0  0  3  0  0  0  0  0  0
  189.8420  177.4700  145.1640 C   0  0  1  0  0  3  0  0  0  0  0  0
  186.7850  177.9860  142.9410 C   0  0  0  0  0  0  0  0  0  0  0  0
  192.0150  176.1830  145.1140 C   0  0  0  0  0  2  0  0  0  0  0  0
  193.9320  174.9260  144.4390 O   0  0  0  0  0  0  0  0  0  0  0  0
  192.6800  174.9610  144.5660 C   0  0  0  0  0  0  0  0  0  0  0  0
  191.9130  173.8330  144.2540 O   0  0  0  0  0  0  0  0  0  0  0  0
  189.8670  175.0140  144.5030 C   0  0  0  0  0  3  0  0  0  0  0  0
  190.5120  173.8520  144.3370 C   0  0  0  0  0  0  0  0  0  0  0  0
  190.6190  176.3220  144.5060 C   0  0  1  0  0  3  0  0  0  0  0  0
  189.3890  171.9860  142.9410 C   0  0  0  0  0  1  0  0  0  0  0  0
  189.4490  171.9830  145.3130 O   0  0  0  0  0  0  0  0  0  0  0  0
  189.7700  172.5840  144.2540 C   0  0  0  0  0  0  0  0  0  0  0  0
  2 13  1  0  0  0  0
  3 14  1  0  0  0  0
  3  2  2  0  0  0  0
  4 15  1  0  0  0  0
  4  6  1  0  0  0  0
  5  1  1  1  0  0  0
  6  5  1  0  0  0  0
  7  4  2  0  0  0  0
  8  3  1  0  0  0  0
  9 11  1  0  0  0  0
 10  5  1  0  0  0  0
 11  6  2  0  0  0  0
 12  2  1  0  0  0  0
 13  9  2  0  0  0  0
 14 16  2  0  0  0  0
 15 10  1  1  0  0  0
 16  7  1  0  0  0  0
 16  9  1  0  0  0  0
 18 19  2  0  0  0  0
 19 17  1  0  0  0  0
 20 22  1  0  0  0  0
 20 19  1  0  0  0  0
 22 21  2  0  0  0  0
 23 21  1  1  0  0  0
 23 17  1  0  0  0  0
 23 15  1  0  0  0  0
 24 26  1  0  0  0  0
 26 22  1  0  0  0  0
 26 25  2  0  0  0  0
M  END
>  <MODEL>
3

>  <REMARK>
 VINA RESULT:      -7.8      2.203      4.210
  Name = 
  2 active torsions:
  status: ('A' for Active; 'I' for Inactive)
    1  A    between atoms: C_21  and  C_26
    2  A    between atoms: C_24  and  C_25
                            x       y       z     vdW  Elec       q    Type
                         _______ _______ _______ _____ _____    ______ ____

>  <TORSDO>
F 2

$$$$
=
 OpenBabel11072408503D

 26 29  0  0  1  0  0  0  0  0999 V2000
  191.2390  175.3130  147.9840 O   0  0  0  0  0  1  0  0  0  0  0  0
  195.8150  176.3930  143.4160 C   0  0  0  0  0  0  0  0  0  0  0  0
  195.0860  176.2160  142.2310 C   0  0  0  0  0  0  0  0  0  0  0  0
  191.0110  176.1810  144.7990 C   0  0  0  0  0  0  0  0  0  0  0  0
  190.9280  176.3950  147.1620 C   0  0  1  0  0  3  0  0  0  0  0  0
  191.7560  176.3450  145.9370 C   0  0  0  0  0  0  0  0  0  0  0  0
  191.6270  176.0930  143.5510 C   0  0  0  0  0  3  0  0  0  0  0  0
  195.7430  176.1400  141.0090 O   0  0  0  0  0  1  0  0  0  0  0  0
  193.7590  176.3710  144.6970 C   0  0  0  0  0  0  0  0  0  0  0  0
  189.4920  176.2410  146.6340 C   0  0  0  0  0  2  0  0  0  0  0  0
  193.1110  176.4410  145.8940 N   0  0  0  0  0  0  0  0  0  0  0  0
  197.2010  176.4940  143.3770 O   0  0  0  0  0  1  0  0  0  0  0  0
  195.1520  176.4690  144.6460 C   0  0  0  0  0  3  0  0  0  0  0  0
  193.6920  176.1150  142.2730 C   0  0  0  0  0  3  0  0  0  0  0  0
  189.5620  176.1010  145.0990 C   0  0  1  0  0  3  0  0  0  0  0  0
  193.0220  176.1910  143.4960 C   0  0  0  0  0  0  0  0  0  0  0  0
  188.3100  176.7250  142.9960 C   0  0  0  0  0  2  0  0  0  0  0  0
  187.3630  177.8990  141.1430 O   0  0  0  0  0  0  0  0  0  0  0  0
  187.4040  177.7500  142.3920 C   0  0  0  0  0  0  0  0  0  0  0  0
  186.5560  178.4990  143.2150 O   0  0  0  0  0  0  0  0  0  0  0  0
  187.6210  177.7420  145.1980 C   0  0  0  0  0  3  0  0  0  0  0  0
  186.6090  178.3950  144.6130 C   0  0  0  0  0  0  0  0  0  0  0  0
  188.7640  177.1960  144.3780 C   0  0  1  0  0  3  0  0  0  0  0  0
  185.6180  179.0580  146.9090 C   0  0  0  0  0  1  0  0  0  0  0  0
  184.5210  179.4750  144.8470 O   0  0  0  0  0  0  0  0  0  0  0  0
  185.5350  178.9970  145.4200 C   0  0  0  0  0  0  0  0  0  0  0  0
  2 13  1  0  0  0  0
  3 14  1  0  0  0  0
  3  2  2  0  0  0  0
  4 15  1  0  0  0  0
  4  6  1  0  0  0  0
  5  1  1  1  0  0  0
  6  5  1  0  0  0  0
  7  4  2  0  0  0  0
  8  3  1  0  0  0  0
  9 11  1  0  0  0  0
 10  5  1  0  0  0  0
 11  6  2  0  0  0  0
 12  2  1  0  0  0  0
 13  9  2  0  0  0  0
 14 16  2  0  0  0  0
 15 10  1  1  0  0  0
 16  7  1  0  0  0  0
 16  9  1  0  0  0  0
 18 19  2  0  0  0  0
 19 17  1  0  0  0  0
 19 20  1  0  0  0  0
 20 22  1  0  0  0  0
 22 21  2  0  0  0  0
 22 26  1  0  0  0  0
 23 17  1  6  0  0  0
 23 15  1  0  0  0  0
 23 21  1  0  0  0  0
 25 26  2  0  0  0  0
 26 24  1  0  0  0  0
M  END
>  <MODEL>
4

>  <REMARK>
 VINA RESULT:      -7.8      2.538      8.090
  Name = 
  2 active torsions:
  status: ('A' for Active; 'I' for Inactive)
    1  A    between atoms: C_21  and  C_26
    2  A    between atoms: C_24  and  C_25
                            x       y       z     vdW  Elec       q    Type
                         _______ _______ _______ _____ _____    ______ ____

>  <TORSDO>
F 2

$$$$
=
 OpenBabel11072408503D

 26 29  0  0  1  0  0  0  0  0999 V2000
  191.1060  177.1210  147.9920 O   0  0  0  0  0  1  0  0  0  0  0  0
  184.9220  178.1370  146.0680 C   0  0  0  0  0  0  0  0  0  0  0  0
  185.1010  178.5900  144.7530 C   0  0  0  0  0  0  0  0  0  0  0  0
  189.7340  177.2930  144.9860 C   0  0  0  0  0  0  0  0  0  0  0  0
  190.7480  176.3280  146.9030 C   0  0  1  0  0  3  0  0  0  0  0  0
  189.5250  176.8700  146.2720 C   0  0  0  0  0  0  0  0  0  0  0  0
  188.6950  177.8520  144.2420 C   0  0  0  0  0  3  0  0  0  0  0  0
  184.0340  179.1340  144.0480 O   0  0  0  0  0  1  0  0  0  0  0  0
  187.2540  177.4920  146.1740 C   0  0  0  0  0  0  0  0  0  0  0  0
  191.8140  176.4620  145.8020 C   0  0  0  0  0  2  0  0  0  0  0  0
  188.3050  176.9620  146.8630 N   0  0  0  0  0  0  0  0  0  0  0  0
  183.6760  178.2280  146.6770 O   0  0  0  0  0  1  0  0  0  0  0  0
  185.9980  177.5900  146.7760 C   0  0  0  0  0  3  0  0  0  0  0  0
  186.3560  178.4970  144.1430 C   0  0  0  0  0  3  0  0  0  0  0  0
  191.1400  177.0920  144.5640 C   0  0  1  0  0  3  0  0  0  0  0  0
  187.4340  177.9520  144.8420 C   0  0  0  0  0  0  0  0  0  0  0  0
  192.7000  176.0350  142.8820 C   0  0  0  0  0  2  0  0  0  0  0  0
  193.6740  175.1280  140.8970 O   0  0  0  0  0  0  0  0  0  0  0  0
  192.7790  175.0300  141.7770 C   0  0  0  0  0  0  0  0  0  0  0  0
  191.8960  173.9450  141.7600 O   0  0  0  0  0  0  0  0  0  0  0  0
  190.5510  174.8640  143.4870 C   0  0  0  0  0  3  0  0  0  0  0  0
  190.8570  173.8290  142.6950 C   0  0  0  0  0  0  0  0  0  0  0  0
  191.2450  176.1940  143.3240 C   0  0  1  0  0  3  0  0  0  0  0  0
  189.6050  172.0620  144.1100 C   0  0  0  0  0  1  0  0  0  0  0  0
  189.9240  171.8670  141.7680 O   0  0  0  0  0  0  0  0  0  0  0  0
  190.1240  172.5570  142.8010 C   0  0  0  0  0  0  0  0  0  0  0  0
  2 12  1  0  0  0  0
  2 13  1  0  0  0  0
  3  2  2  0  0  0  0
  4  6  1  0  0  0  0
  5  1  1  1  0  0  0
  6 11  2  0  0  0  0
  6  5  1  0  0  0  0
  7 16  1  0  0  0  0
  7  4  2  0  0  0  0
  8  3  1  0  0  0  0
  9 13  2  0  0  0  0
  9 11  1  0  0  0  0
 10  5  1  0  0  0  0
 14  3  1  0  0  0  0
 14 16  2  0  0  0  0
 15  4  1  0  0  0  0
 15 10  1  1  0  0  0
 16  9  1  0  0  0  0
 18 19  2  0  0  0  0
 19 17  1  0  0  0  0
 20 19  1  0  0  0  0
 20 22  1  0  0  0  0
 22 26  1  0  0  0  0
 22 21  2  0  0  0  0
 23 17  1  1  0  0  0
 23 21  1  0  0  0  0
 23 15  1  0  0  0  0
 25 26  2  0  0  0  0
 26 24  1  0  0  0  0
M  END
>  <MODEL>
5

>  <REMARK>
 VINA RESULT:      -7.6      2.134      4.624
  Name = 
  2 active torsions:
  status: ('A' for Active; 'I' for Inactive)
    1  A    between atoms: C_21  and  C_26
    2  A    between atoms: C_24  and  C_25
                            x       y       z     vdW  Elec       q    Type
                         _______ _______ _______ _____ _____    ______ ____

>  <TORSDO>
F 2

$$$$
=
 OpenBabel11072408503D

 26 29  0  0  1  0  0  0  0  0999 V2000
  191.3730  177.3340  148.5900 O   0  0  0  0  0  1  0  0  0  0  0  0
  185.3640  177.8050  146.0110 C   0  0  0  0  0  0  0  0  0  0  0  0
  185.6500  178.0630  144.6610 C   0  0  0  0  0  0  0  0  0  0  0  0
  190.2750  176.9990  145.4870 C   0  0  0  0  0  0  0  0  0  0  0  0
  191.1360  176.3730  147.6080 C   0  0  1  0  0  3  0  0  0  0  0  0
  189.9610  176.7650  146.8000 C   0  0  0  0  0  0  0  0  0  0  0  0
  189.2930  177.3980  144.5800 C   0  0  0  0  0  3  0  0  0  0  0  0
  184.6380  178.4520  143.7930 O   0  0  0  0  0  1  0  0  0  0  0  0
  187.6930  177.2760  146.4130 C   0  0  0  0  0  0  0  0  0  0  0  0
  192.2930  176.3810  146.5950 C   0  0  0  0  0  2  0  0  0  0  0  0
  188.6900  176.8970  147.2630 N   0  0  0  0  0  0  0  0  0  0  0  0
  184.0660  177.9370  146.4890 O   0  0  0  0  0  1  0  0  0  0  0  0
  186.3850  177.4130  146.8830 C   0  0  0  0  0  3  0  0  0  0  0  0
  186.9570  177.9290  144.1830 C   0  0  0  0  0  3  0  0  0  0  0  0
  191.7180  176.7920  145.2230 C   0  0  1  0  0  3  0  0  0  0  0  0
  187.9810  177.5370  145.0480 C   0  0  0  0  0  0  0  0  0  0  0  0
  193.0280  176.1740  143.1530 C   0  0  0  0  0  2  0  0  0  0  0  0
  193.7170  175.2910  141.0430 O   0  0  0  0  0  0  0  0  0  0  0  0
  193.3500  175.0490  142.2220 C   0  0  0  0  0  0  0  0  0  0  0  0
  193.3030  173.7290  142.6840 O   0  0  0  0  0  0  0  0  0  0  0  0
  192.2500  174.3560  144.7180 C   0  0  0  0  0  3  0  0  0  0  0  0
  192.8520  173.4190  143.9750 C   0  0  0  0  0  0  0  0  0  0  0  0
  191.9580  175.7230  144.1480 C   0  0  1  0  0  3  0  0  0  0  0  0
  194.2240  171.7400  145.3880 C   0  0  0  0  0  1  0  0  0  0  0  0
  192.2520  171.1460  144.2110 O   0  0  0  0  0  0  0  0  0  0  0  0
  193.0650  172.0610  144.5050 C   0  0  0  0  0  0  0  0  0  0  0  0
  2 12  1  0  0  0  0
  2 13  1  0  0  0  0
  3  2  2  0  0  0  0
  4  6  1  0  0  0  0
  5  1  1  1  0  0  0
  6 11  2  0  0  0  0
  6  5  1  0  0  0  0
  7 16  1  0  0  0  0
  7  4  2  0  0  0  0
  8  3  1  0  0  0  0
  9 13  2  0  0  0  0
  9 11  1  0  0  0  0
 10  5  1  0  0  0  0
 14  3  1  0  0  0  0
 14 16  2  0  0  0  0
 15  4  1  0  0  0  0
 15 10  1  1  0  0  0
 16  9  1  0  0  0  0
 18 19  2  0  0  0  0
 19 20  1  0  0  0  0
 19 17  1  0  0  0  0
 20 22  1  0  0  0  0
 22 26  1  0  0  0  0
 22 21  2  0  0  0  0
 23 17  1  1  0  0  0
 23 21  1  0  0  0  0
 23 15  1  0  0  0  0
 25 26  2  0  0  0  0
 26 24  1  0  0  0  0
M  END
>  <MODEL>
6

>  <REMARK>
 VINA RESULT:      -7.5      2.470      4.310
  Name = 
  2 active torsions:
  status: ('A' for Active; 'I' for Inactive)
    1  A    between atoms: C_21  and  C_26
    2  A    between atoms: C_24  and  C_25
                            x       y       z     vdW  Elec       q    Type
                         _______ _______ _______ _____ _____    ______ ____

>  <TORSDO>
F 2

$$$$
=
 OpenBabel11072408503D

 26 29  0  0  1  0  0  0  0  0999 V2000
  186.9670  177.9100  139.9220 O   0  0  0  0  0  1  0  0  0  0  0  0
  189.7220  171.9700  139.6110 C   0  0  0  0  0  0  0  0  0  0  0  0
  190.7180  172.0630  140.5930 C   0  0  0  0  0  0  0  0  0  0  0  0
  188.7730  176.2020  142.1060 C   0  0  0  0  0  0  0  0  0  0  0  0
  186.8610  177.2090  141.1230 C   0  0  1  0  0  3  0  0  0  0  0  0
  187.8210  176.0830  141.1280 C   0  0  0  0  0  0  0  0  0  0  0  0
  189.7720  175.2400  142.2480 C   0  0  0  0  0  3  0  0  0  0  0  0
  191.6910  171.0770  140.7010 O   0  0  0  0  0  1  0  0  0  0  0  0
  188.7550  174.0540  140.3780 C   0  0  0  0  0  0  0  0  0  0  0  0
  187.3420  178.1000  142.2800 C   0  0  0  0  0  2  0  0  0  0  0  0
  187.8040  175.0260  140.2750 N   0  0  0  0  0  0  0  0  0  0  0  0
  189.6990  170.8900  138.7360 O   0  0  0  0  0  1  0  0  0  0  0  0
  188.7430  172.9640  139.5040 C   0  0  0  0  0  3  0  0  0  0  0  0
  190.7380  173.1510  141.4720 C   0  0  0  0  0  3  0  0  0  0  0  0
  188.5850  177.4340  142.9070 C   0  0  1  0  0  3  0  0  0  0  0  0
  189.7640  174.1470  141.3730 C   0  0  0  0  0  0  0  0  0  0  0  0
  189.6440  177.4770  145.2000 C   0  0  0  0  0  2  0  0  0  0  0  0
  190.2880  176.9880  147.4480 O   0  0  0  0  0  0  0  0  0  0  0  0
  189.3640  177.3180  146.6610 C   0  0  0  0  0  0  0  0  0  0  0  0
  188.0870  177.5990  147.1570 O   0  0  0  0  0  0  0  0  0  0  0  0
  187.1480  177.7530  144.9810 C   0  0  0  0  0  3  0  0  0  0  0  0
  187.0210  177.9210  146.3040 C   0  0  0  0  0  0  0  0  0  0  0  0
  188.3910  177.1270  144.3980 C   0  0  1  0  0  3  0  0  0  0  0  0
  184.4420  177.8960  146.5170 C   0  0  0  0  0  1  0  0  0  0  0  0
  185.8330  179.4150  147.6960 O   0  0  0  0  0  0  0  0  0  0  0  0
  185.7770  178.4590  146.8780 C   0  0  0  0  0  0  0  0  0  0  0  0
  2  3  1  0  0  0  0
  3  8  1  0  0  0  0
  3 14  2  0  0  0  0
  4  7  1  0  0  0  0
  4 15  1  0  0  0  0
  5  1  1  6  0  0  0
  5  6  1  0  0  0  0
  5 10  1  0  0  0  0
  6  4  2  0  0  0  0
  9 16  1  0  0  0  0
 11  9  2  0  0  0  0
 11  6  1  0  0  0  0
 12  2  1  0  0  0  0
 13  2  2  0  0  0  0
 13  9  1  0  0  0  0
 15 10  1  6  0  0  0
 15 23  1  0  0  0  0
 16 14  1  0  0  0  0
 16  7  2  0  0  0  0
 17 19  1  0  0  0  0
 19 20  1  0  0  0  0
 19 18  2  0  0  0  0
 21 22  2  0  0  0  0
 22 26  1  0  0  0  0
 22 20  1  0  0  0  0
 23 21  1  1  0  0  0
 23 17  1  0  0  0  0
 24 26  1  0  0  0  0
 26 25  2  0  0  0  0
M  END
>  <MODEL>
7

>  <REMARK>
 VINA RESULT:      -7.5      3.096      6.687
  Name = 
  2 active torsions:
  status: ('A' for Active; 'I' for Inactive)
    1  A    between atoms: C_21  and  C_26
    2  A    between atoms: C_24  and  C_25
                            x       y       z     vdW  Elec       q    Type
                         _______ _______ _______ _____ _____    ______ ____

>  <TORSDO>
F 2

$$$$
=
 OpenBabel11072408503D

 26 29  0  0  1  0  0  0  0  0999 V2000
  188.0920  173.8580  141.6740 O   0  0  0  0  0  1  0  0  0  0  0  0
  184.9370  178.0760  145.5770 C   0  0  0  0  0  0  0  0  0  0  0  0
  185.7430  178.0630  146.7260 C   0  0  0  0  0  0  0  0  0  0  0  0
  189.1030  175.6250  144.2820 C   0  0  0  0  0  0  0  0  0  0  0  0
  188.8760  174.9600  142.0160 C   0  0  1  0  0  3  0  0  0  0  0  0
  188.2860  175.6490  143.1830 C   0  0  0  0  0  0  0  0  0  0  0  0
  188.7010  176.2110  145.4820 C   0  0  0  0  0  3  0  0  0  0  0  0
  185.3020  178.6660  147.8970 O   0  0  0  0  0  1  0  0  0  0  0  0
  186.6330  176.8470  144.3610 C   0  0  0  0  0  0  0  0  0  0  0  0
  190.2410  174.4750  142.5330 C   0  0  0  0  0  2  0  0  0  0  0  0
  187.0680  176.2520  143.2140 N   0  0  0  0  0  0  0  0  0  0  0  0
  183.6910  178.6920  145.6030 O   0  0  0  0  0  1  0  0  0  0  0  0
  185.3830  177.4680  144.3990 C   0  0  0  0  0  3  0  0  0  0  0  0
  186.9960  177.4430  146.6970 C   0  0  0  0  0  3  0  0  0  0  0  0
  190.3730  174.9130  144.0070 C   0  0  1  0  0  3  0  0  0  0  0  0
  187.4480  176.8350  145.5240 C   0  0  0  0  0  0  0  0  0  0  0  0
  192.1850  175.5830  145.6330 C   0  0  0  0  0  2  0  0  0  0  0  0
  193.8210  176.7910  146.8880 O   0  0  0  0  0  0  0  0  0  0  0  0
  193.4640  176.3480  145.7660 C   0  0  0  0  0  0  0  0  0  0  0  0
  194.2910  176.5150  144.6500 O   0  0  0  0  0  0  0  0  0  0  0  0
  192.6400  175.6910  143.1560 C   0  0  0  0  0  3  0  0  0  0  0  0
  193.9030  176.0790  143.3750 C   0  0  0  0  0  0  0  0  0  0  0  0
  191.5970  175.8080  144.2400 C   0  0  1  0  0  3  0  0  0  0  0  0
  194.5520  175.5500  140.9270 C   0  0  0  0  0  1  0  0  0  0  0  0
  196.0770  176.4260  142.5190 O   0  0  0  0  0  0  0  0  0  0  0  0
  194.9010  176.0380  142.2930 C   0  0  0  0  0  0  0  0  0  0  0  0
  2 12  1  0  0  0  0
  2  3  1  0  0  0  0
  3  8  1  0  0  0  0
  4  7  1  0  0  0  0
  5  1  1  1  0  0  0
  5 10  1  0  0  0  0
  5  6  1  0  0  0  0
  6 11  1  0  0  0  0
  6  4  2  0  0  0  0
  7 16  2  0  0  0  0
  9 13  1  0  0  0  0
  9 16  1  0  0  0  0
 11  9  2  0  0  0  0
 13  2  2  0  0  0  0
 14  3  2  0  0  0  0
 15 10  1  6  0  0  0
 15 23  1  0  0  0  0
 15  4  1  0  0  0  0
 16 14  1  0  0  0  0
 17 19  1  0  0  0  0
 19 18  2  0  0  0  0
 20 19  1  0  0  0  0
 21 22  2  0  0  0  0
 22 20  1  0  0  0  0
 23 21  1  6  0  0  0
 23 17  1  0  0  0  0
 24 26  1  0  0  0  0
 26 25  2  0  0  0  0
 26 22  1  0  0  0  0
M  END
>  <MODEL>
8

>  <REMARK>
 VINA RESULT:      -7.5      1.716      2.264
  Name = 
  2 active torsions:
  status: ('A' for Active; 'I' for Inactive)
    1  A    between atoms: C_21  and  C_26
    2  A    between atoms: C_24  and  C_25
                            x       y       z     vdW  Elec       q    Type
                         _______ _______ _______ _____ _____    ______ ____

>  <TORSDO>
F 2

$$$$
=
 OpenBabel11072408503D

 26 29  0  0  1  0  0  0  0  0999 V2000
  189.2250  172.5100  142.6150 O   0  0  0  0  0  1  0  0  0  0  0  0
  185.3350  177.6850  143.6530 C   0  0  0  0  0  0  0  0  0  0  0  0
  185.9060  178.2470  144.8050 C   0  0  0  0  0  0  0  0  0  0  0  0
  189.6980  175.3200  144.2970 C   0  0  0  0  0  0  0  0  0  0  0  0
  189.9170  173.7190  142.5590 C   0  0  1  0  0  3  0  0  0  0  0  0
  189.1070  174.7880  143.1820 C   0  0  0  0  0  0  0  0  0  0  0  0
  189.0670  176.3270  145.0270 C   0  0  0  0  0  3  0  0  0  0  0  0
  185.2420  179.2530  145.4960 O   0  0  0  0  0  1  0  0  0  0  0  0
  187.2460  176.2160  143.4110 C   0  0  0  0  0  0  0  0  0  0  0  0
  191.1620  173.6370  143.4580 C   0  0  0  0  0  2  0  0  0  0  0  0
  187.8990  175.2260  142.7380 N   0  0  0  0  0  0  0  0  0  0  0  0
  184.1020  178.1300  143.1940 O   0  0  0  0  0  1  0  0  0  0  0  0
  186.0050  176.6710  142.9590 C   0  0  0  0  0  3  0  0  0  0  0  0
  187.1480  177.7960  145.2650 C   0  0  0  0  0  3  0  0  0  0  0  0
  191.0040  174.6810  144.5830 C   0  0  1  0  0  3  0  0  0  0  0  0
  187.8230  176.7860  144.5770 C   0  0  0  0  0  0  0  0  0  0  0  0
  192.7750  175.8080  145.9880 C   0  0  0  0  0  2  0  0  0  0  0  0
  194.3200  177.3700  146.9270 O   0  0  0  0  0  0  0  0  0  0  0  0
  193.9860  176.6840  145.9270 C   0  0  0  0  0  0  0  0  0  0  0  0
  194.7820  176.6890  144.7760 O   0  0  0  0  0  0  0  0  0  0  0  0
  193.1860  175.4520  143.5270 C   0  0  0  0  0  3  0  0  0  0  0  0
  194.4150  175.9760  143.6260 C   0  0  0  0  0  0  0  0  0  0  0  0
  192.1520  175.7010  144.5970 C   0  0  1  0  0  3  0  0  0  0  0  0
  195.5420  174.4990  141.8250 C   0  0  0  0  0  1  0  0  0  0  0  0
  196.1360  176.7630  142.2130 O   0  0  0  0  0  0  0  0  0  0  0  0
  195.3980  175.7990  142.5440 C   0  0  0  0  0  0  0  0  0  0  0  0
  2  3  1  0  0  0  0
  3 14  2  0  0  0  0
  3  8  1  0  0  0  0
  4 15  1  0  0  0  0
  4  7  1  0  0  0  0
  5  1  1  1  0  0  0
  5  6  1  0  0  0  0
  5 10  1  0  0  0  0
  6  4  2  0  0  0  0
  9 16  1  0  0  0  0
 11  6  1  0  0  0  0
 11  9  2  0  0  0  0
 12  2  1  0  0  0  0
 13  9  1  0  0  0  0
 13  2  2  0  0  0  0
 15 10  1  6  0  0  0
 15 23  1  0  0  0  0
 16  7  2  0  0  0  0
 16 14  1  0  0  0  0
 19 17  1  0  0  0  0
 19 18  2  0  0  0  0
 20 19  1  0  0  0  0
 21 22  2  0  0  0  0
 22 20  1  0  0  0  0
 23 21  1  6  0  0  0
 23 17  1  0  0  0  0
 24 26  1  0  0  0  0
 25 26  2  0  0  0  0
 26 22  1  0  0  0  0
M  END
>  <MODEL>
9

>  <REMARK>
 VINA RESULT:      -7.4      1.581      2.051
  Name = 
  2 active torsions:
  status: ('A' for Active; 'I' for Inactive)
    1  A    between atoms: C_21  and  C_26
    2  A    between atoms: C_24  and  C_25
                            x       y       z     vdW  Elec       q    Type
                         _______ _______ _______ _____ _____    ______ ____

>  <TORSDO>
F 2

$$$$
