=
 OpenBabel11062421283D

 31 34  0  0  1  0  0  0  0  0999 V2000
  190.8300  174.7720  145.0710 C   0  0  0  0  0  2  0  0  0  0  0  0
  192.0350  175.5290  145.6640 C   0  0  1  0  0  3  0  0  0  0  0  0
  189.0160  174.5700  143.3320 C   0  0  0  0  0  2  0  0  0  0  0  0
  190.4930  173.9700  141.1460 O   0  0  0  0  0  0  0  0  0  0  0  0
  191.3360  175.5690  142.7190 C   0  0  2  0  0  3  0  0  0  0  0  0
  191.6170  174.3100  141.9020 C   0  0  0  0  0  2  0  0  0  0  0  0
  189.9630  172.8150  141.7410 C   0  0  0  0  0  2  0  0  0  0  0  0
  192.6410  176.5650  144.7010 C   0  0  2  0  0  3  0  0  0  0  0  0
  189.3320  173.0900  143.1110 C   0  0  0  0  0  2  0  0  0  0  0  0
  192.6880  176.0620  143.2590 C   0  0  0  0  0  2  0  0  0  0  0  0
  190.2230  175.4180  143.8090 C   0  0  2  0  0  0  0  0  0  0  0  0
  186.1830  177.8840  145.0590 C   0  0  0  0  0  0  0  0  0  0  0  0
  185.7030  178.9540  142.9100 C   0  0  0  0  0  3  0  0  0  0  0  0
  188.5680  176.8260  145.2230 C   0  0  0  0  0  2  0  0  0  0  0  0
  187.8350  177.9250  143.2920 C   0  0  0  0  0  0  0  0  0  0  0  0
  189.1450  177.5080  142.9740 N   0  0  0  0  0  2  0  0  0  0  0  0
  187.4590  177.5660  144.5590 C   0  0  0  0  0  0  0  0  0  0  0  0
  189.6890  176.8310  144.1530 C   0  0  2  0  0  3  0  0  0  0  0  0
  185.3070  178.5890  144.2100 C   0  0  0  0  0  3  0  0  0  0  0  0
  186.9800  178.6190  142.4400 C   0  0  0  0  0  3  0  0  0  0  0  0
  185.7360  177.5120  146.4160 C   0  0  0  0  0  0  0  0  0  0  0  0
  186.1330  178.2710  147.5110 O   0  0  0  0  0  1  0  0  0  0  0  0
  184.9950  176.5120  146.6030 O   0  0  0  0  0  0  0  0  0  0  0  0
  191.1160  175.4870  147.9470 C   0  0  0  0  0  2  0  0  0  0  0  0
  191.6420  176.1910  146.9470 C   0  0  0  0  0  3  0  0  0  0  0  0
  194.0160  177.0640  145.1640 C   0  0  0  0  0  2  0  0  0  0  0  0
  195.1170  176.0560  144.9780 C   0  0  0  0  0  0  0  0  0  0  0  0
  195.9810  176.2120  143.9850 C   0  0  0  0  0  2  0  0  0  0  0  0
  197.3300  173.4180  145.8640 O   0  0  0  0  0  0  0  0  0  0  0  0
  196.3170  174.1290  145.8560 C   0  0  0  0  0  0  0  0  0  0  0  0
  195.2480  174.8790  145.8470 C   0  0  0  0  0  3  0  0  0  0  0  0
  1  2  1  0  0  0  0
  2 25  1  1  0  0  0
  4  7  1  0  0  0  0
  4  6  1  0  0  0  0
  5  6  1  1  0  0  0
  5 10  1  0  0  0  0
  5 11  1  0  0  0  0
  7  9  1  0  0  0  0
  8 26  1  1  0  0  0
  8  2  1  0  0  0  0
  9  3  1  0  0  0  0
 10  8  1  0  0  0  0
 11  3  1  6  0  0  0
 11 18  1  0  0  0  0
 11  1  1  0  0  0  0
 12 21  1  0  0  0  0
 13 19  1  0  0  0  0
 15 17  2  0  0  0  0
 16 15  1  0  0  0  0
 16 18  1  0  0  0  0
 17 12  1  0  0  0  0
 17 14  1  0  0  0  0
 18 14  1  1  0  0  0
 19 12  2  0  0  0  0
 20 13  2  0  0  0  0
 20 15  1  0  0  0  0
 21 23  2  0  0  0  0
 21 22  1  0  0  0  0
 25 24  2  0  0  0  0
 27 26  1  0  0  0  0
 27 31  1  0  0  0  0
 28 27  2  0  0  0  0
 30 29  2  0  0  0  0
 31 30  2  0  0  0  0
M  END
>  <MODEL>
1

>  <REMARK>
 VINA RESULT:      -7.8      0.000      0.000
  Name = 
  6 active torsions:
  status: ('A' for Active; 'I' for Inactive)
    1  A    between atoms: C_3  and  C_17
    2  A    between atoms: C_4  and  C_12
    3  A    between atoms: C_18  and  C_20
    4  A    between atoms: C_18  and  C_23
    5  A    between atoms: C_21  and  C_23
    6  A    between atoms: C_22  and  C_31
                            x       y       z     vdW  Elec       q    Type
                         _______ _______ _______ _____ _____    ______ ____

>  <TORSDO>
F 6

$$$$
=
 OpenBabel11062421283D

 31 34  0  0  1  0  0  0  0  0999 V2000
  189.8830  175.8420  142.5980 C   0  0  0  0  0  2  0  0  0  0  0  0
  189.4540  174.4560  142.0760 C   0  0  1  0  0  3  0  0  0  0  0  0
  190.2000  177.4550  144.5100 C   0  0  0  0  0  2  0  0  0  0  0  0
  192.2900  176.3040  145.7850 O   0  0  0  0  0  0  0  0  0  0  0  0
  190.5850  174.9060  144.8470 C   0  0  2  0  0  3  0  0  0  0  0  0
  192.0800  175.1900  144.9690 C   0  0  0  0  0  2  0  0  0  0  0  0
  192.7130  177.3330  144.9290 C   0  0  0  0  0  2  0  0  0  0  0  0
  189.3320  173.3950  143.1830 C   0  0  2  0  0  3  0  0  0  0  0  0
  191.5940  177.8390  144.0110 C   0  0  0  0  0  2  0  0  0  0  0  0
  190.4450  173.5090  144.2230 C   0  0  0  0  0  2  0  0  0  0  0  0
  189.7560  176.0200  144.1250 C   0  0  2  0  0  0  0  0  0  0  0  0
  185.7520  178.5480  145.3690 C   0  0  0  0  0  0  0  0  0  0  0  0
  185.7830  178.1580  147.7850 C   0  0  0  0  0  3  0  0  0  0  0  0
  187.3560  176.9960  144.0090 C   0  0  0  0  0  2  0  0  0  0  0  0
  187.1680  176.8420  146.3350 C   0  0  0  0  0  0  0  0  0  0  0  0
  188.1190  175.8540  146.0010 N   0  0  0  0  0  2  0  0  0  0  0  0
  186.7010  177.5170  145.2390 C   0  0  0  0  0  0  0  0  0  0  0  0
  188.2720  175.8670  144.5450 C   0  0  2  0  0  3  0  0  0  0  0  0
  185.2980  178.8580  146.6650 C   0  0  0  0  0  3  0  0  0  0  0  0
  186.7310  177.1380  147.6240 C   0  0  0  0  0  3  0  0  0  0  0  0
  185.2260  179.3050  144.2150 C   0  0  0  0  0  0  0  0  0  0  0  0
  184.2810  178.7240  143.3760 O   0  0  0  0  0  0  0  0  0  0  0  0
  185.6190  180.4770  143.9730 O   0  0  0  0  0  1  0  0  0  0  0  0
  187.8430  175.6850  140.6770 C   0  0  0  0  0  2  0  0  0  0  0  0
  188.1610  174.5690  141.3300 C   0  0  0  0  0  3  0  0  0  0  0  0
  189.2330  171.9700  142.6230 C   0  0  0  0  0  2  0  0  0  0  0  0
  190.5070  171.4810  141.9910 C   0  0  0  0  0  0  0  0  0  0  0  0
  191.4020  170.8460  142.7350 C   0  0  0  0  0  2  0  0  0  0  0  0
  189.0060  171.7590  138.7800 O   0  0  0  0  0  0  0  0  0  0  0  0
  189.8840  171.7380  139.6520 C   0  0  0  0  0  0  0  0  0  0  0  0
  190.8100  171.7150  140.5730 C   0  0  0  0  0  3  0  0  0  0  0  0
  2 25  1  1  0  0  0
  2  1  1  0  0  0  0
  2  8  1  0  0  0  0
  5 10  1  6  0  0  0
  5  6  1  0  0  0  0
  6  4  1  0  0  0  0
  7  4  1  0  0  0  0
  8 26  1  6  0  0  0
  8 10  1  0  0  0  0
  9  3  1  0  0  0  0
  9  7  1  0  0  0  0
 11  1  1  6  0  0  0
 11  3  1  0  0  0  0
 11 18  1  0  0  0  0
 11  5  1  0  0  0  0
 12 19  1  0  0  0  0
 14 17  1  0  0  0  0
 15 20  2  0  0  0  0
 16 15  1  0  0  0  0
 17 12  2  0  0  0  0
 17 15  1  0  0  0  0
 18 14  1  6  0  0  0
 18 16  1  0  0  0  0
 19 13  2  0  0  0  0
 20 13  1  0  0  0  0
 21 12  1  0  0  0  0
 22 21  2  0  0  0  0
 23 21  1  0  0  0  0
 24 25  2  0  0  0  0
 27 26  1  0  0  0  0
 27 28  2  0  0  0  0
 29 30  2  0  0  0  0
 30 31  2  0  0  0  0
 31 27  1  0  0  0  0
M  END
>  <MODEL>
2

>  <REMARK>
 VINA RESULT:      -7.4      2.489      5.284
  Name = 
  6 active torsions:
  status: ('A' for Active; 'I' for Inactive)
    1  A    between atoms: C_3  and  C_17
    2  A    between atoms: C_4  and  C_12
    3  A    between atoms: C_18  and  C_20
    4  A    between atoms: C_18  and  C_23
    5  A    between atoms: C_21  and  C_23
    6  A    between atoms: C_22  and  C_31
                            x       y       z     vdW  Elec       q    Type
                         _______ _______ _______ _____ _____    ______ ____

>  <TORSDO>
F 6

$$$$
=
 OpenBabel11062421283D

 31 34  0  0  1  0  0  0  0  0999 V2000
  190.1640  175.4930  142.8210 C   0  0  0  0  0  2  0  0  0  0  0  0
  189.7770  174.0600  142.4060 C   0  0  1  0  0  3  0  0  0  0  0  0
  190.3940  177.2670  144.5970 C   0  0  0  0  0  2  0  0  0  0  0  0
  192.4720  176.2750  146.0170 O   0  0  0  0  0  0  0  0  0  0  0  0
  190.8230  174.7650  145.1570 C   0  0  2  0  0  3  0  0  0  0  0  0
  192.3080  175.0920  145.2930 C   0  0  0  0  0  2  0  0  0  0  0  0
  192.8960  177.2390  145.0890 C   0  0  0  0  0  2  0  0  0  0  0  0
  189.6480  173.0910  143.5940 C   0  0  2  0  0  3  0  0  0  0  0  0
  191.7930  177.6400  144.1040 C   0  0  0  0  0  2  0  0  0  0  0  0
  190.7300  173.3170  144.6500 C   0  0  0  0  0  2  0  0  0  0  0  0
  189.9910  175.7950  144.3230 C   0  0  2  0  0  0  0  0  0  0  0  0
  185.8100  178.2810  144.8800 C   0  0  0  0  0  0  0  0  0  0  0  0
  185.7530  178.4000  147.3230 C   0  0  0  0  0  3  0  0  0  0  0  0
  187.5510  176.5800  143.9270 C   0  0  0  0  0  2  0  0  0  0  0  0
  187.2680  176.8980  146.2270 C   0  0  0  0  0  0  0  0  0  0  0  0
  188.2820  175.9220  146.1380 N   0  0  0  0  0  2  0  0  0  0  0  0
  186.8150  177.3040  144.9990 C   0  0  0  0  0  0  0  0  0  0  0  0
  188.5000  175.6430  144.7170 C   0  0  2  0  0  3  0  0  0  0  0  0
  185.2820  178.8240  146.0670 C   0  0  0  0  0  3  0  0  0  0  0  0
  186.7580  177.4270  147.4110 C   0  0  0  0  0  3  0  0  0  0  0  0
  185.2970  178.7500  143.5770 C   0  0  0  0  0  0  0  0  0  0  0  0
  183.9910  178.4610  143.1990 O   0  0  0  0  0  1  0  0  0  0  0  0
  186.0270  179.4130  142.7930 O   0  0  0  0  0  0  0  0  0  0  0  0
  188.5200  174.1780  140.2930 C   0  0  0  0  0  2  0  0  0  0  0  0
  188.5030  174.0790  141.6200 C   0  0  0  0  0  3  0  0  0  0  0  0
  189.5940  171.6230  143.1540 C   0  0  0  0  0  2  0  0  0  0  0  0
  190.7270  171.2230  142.2500 C   0  0  0  0  0  0  0  0  0  0  0  0
  190.4770  170.9380  140.9790 C   0  0  0  0  0  2  0  0  0  0  0  0
  192.8060  169.3370  144.4320 O   0  0  0  0  0  0  0  0  0  0  0  0
  192.4670  170.1960  143.6080 C   0  0  0  0  0  0  0  0  0  0  0  0
  192.1070  171.1030  142.7400 C   0  0  0  0  0  3  0  0  0  0  0  0
  2 25  1  1  0  0  0
  2  1  1  0  0  0  0
  2  8  1  0  0  0  0
  5 10  1  6  0  0  0
  5  6  1  0  0  0  0
  6  4  1  0  0  0  0
  7  4  1  0  0  0  0
  8 26  1  6  0  0  0
  8 10  1  0  0  0  0
  9  3  1  0  0  0  0
  9  7  1  0  0  0  0
 11  1  1  6  0  0  0
 11  3  1  0  0  0  0
 11 18  1  0  0  0  0
 11  5  1  0  0  0  0
 12 17  2  0  0  0  0
 12 19  1  0  0  0  0
 13 20  1  0  0  0  0
 14 17  1  0  0  0  0
 15 20  2  0  0  0  0
 16 15  1  0  0  0  0
 17 15  1  0  0  0  0
 18 14  1  6  0  0  0
 18 16  1  0  0  0  0
 19 13  2  0  0  0  0
 21 12  1  0  0  0  0
 22 21  1  0  0  0  0
 23 21  2  0  0  0  0
 24 25  2  0  0  0  0
 27 31  1  0  0  0  0
 27 26  1  0  0  0  0
 28 27  2  0  0  0  0
 30 29  2  0  0  0  0
 31 30  2  0  0  0  0
M  END
>  <MODEL>
3

>  <REMARK>
 VINA RESULT:      -7.2      2.562      4.804
  Name = 
  6 active torsions:
  status: ('A' for Active; 'I' for Inactive)
    1  A    between atoms: C_3  and  C_17
    2  A    between atoms: C_4  and  C_12
    3  A    between atoms: C_18  and  C_20
    4  A    between atoms: C_18  and  C_23
    5  A    between atoms: C_21  and  C_23
    6  A    between atoms: C_22  and  C_31
                            x       y       z     vdW  Elec       q    Type
                         _______ _______ _______ _____ _____    ______ ____

>  <TORSDO>
F 6

$$$$
=
 OpenBabel11062421283D

 31 34  0  0  1  0  0  0  0  0999 V2000
  188.6470  175.1350  143.5350 C   0  0  0  0  0  2  0  0  0  0  0  0
  187.8940  176.1090  142.6070 C   0  0  1  0  0  3  0  0  0  0  0  0
  190.4670  174.6900  145.2210 C   0  0  0  0  0  2  0  0  0  0  0  0
  189.4810  176.0050  147.3690 O   0  0  0  0  0  0  0  0  0  0  0  0
  189.2140  176.9670  145.1920 C   0  0  2  0  0  3  0  0  0  0  0  0
  188.5420  176.5670  146.5030 C   0  0  0  0  0  2  0  0  0  0  0  0
  189.1840  174.6340  147.4240 C   0  0  0  0  0  2  0  0  0  0  0  0
  188.1580  177.5890  142.9290 C   0  0  2  0  0  3  0  0  0  0  0  0
  189.5070  173.9040  146.1150 C   0  0  0  0  0  2  0  0  0  0  0  0
  188.2170  177.8570  144.4320 C   0  0  0  0  0  2  0  0  0  0  0  0
  189.7870  175.7770  144.3510 C   0  0  2  0  0  0  0  0  0  0  0  0
  193.9350  174.6410  142.0120 C   0  0  0  0  0  0  0  0  0  0  0  0
  195.5220  175.8540  143.4260 C   0  0  0  0  0  3  0  0  0  0  0  0
  191.4320  175.2840  142.4080 C   0  0  0  0  0  2  0  0  0  0  0  0
  193.1700  176.2890  143.6090 C   0  0  0  0  0  0  0  0  0  0  0  0
  192.0040  176.8990  144.1170 N   0  0  0  0  0  2  0  0  0  0  0  0
  192.9010  175.3650  142.6340 C   0  0  0  0  0  0  0  0  0  0  0  0
  190.8630  176.3400  143.3890 C   0  0  2  0  0  3  0  0  0  0  0  0
  195.2560  174.9030  142.4240 C   0  0  0  0  0  3  0  0  0  0  0  0
  194.4700  176.5570  144.0310 C   0  0  0  0  0  3  0  0  0  0  0  0
  193.6890  173.6340  140.9600 C   0  0  0  0  0  0  0  0  0  0  0  0
  193.4150  174.0400  139.6590 O   0  0  0  0  0  0  0  0  0  0  0  0
  193.7230  172.4020  141.2210 O   0  0  0  0  0  1  0  0  0  0  0  0
  188.3230  174.5750  140.7300 C   0  0  0  0  0  2  0  0  0  0  0  0
  188.2390  175.8260  141.1780 C   0  0  0  0  0  3  0  0  0  0  0  0
  187.1650  178.5290  142.2330 C   0  0  0  0  0  2  0  0  0  0  0  0
  185.8070  178.5550  142.8780 C   0  0  0  0  0  0  0  0  0  0  0  0
  184.8820  177.6900  142.4860 C   0  0  0  0  0  2  0  0  0  0  0  0
  183.9280  178.9810  145.8660 O   0  0  0  0  0  0  0  0  0  0  0  0
  184.6720  179.2530  144.9160 C   0  0  0  0  0  0  0  0  0  0  0  0
  185.4570  179.5390  143.9120 C   0  0  0  0  0  3  0  0  0  0  0  0
  2 25  1  6  0  0  0
  2  8  1  0  0  0  0
  2  1  1  0  0  0  0
  3  9  1  0  0  0  0
  4  7  1  0  0  0  0
  5 10  1  6  0  0  0
  5  6  1  0  0  0  0
  6  4  1  0  0  0  0
  8 26  1  1  0  0  0
  8 10  1  0  0  0  0
  9  7  1  0  0  0  0
 11  1  1  6  0  0  0
 11  5  1  0  0  0  0
 11  3  1  0  0  0  0
 12 19  2  0  0  0  0
 12 17  1  0  0  0  0
 13 20  2  0  0  0  0
 14 17  1  0  0  0  0
 15 20  1  0  0  0  0
 15 16  1  0  0  0  0
 17 15  2  0  0  0  0
 18 14  1  6  0  0  0
 18 16  1  0  0  0  0
 18 11  1  0  0  0  0
 19 13  1  0  0  0  0
 21 23  1  0  0  0  0
 21 12  1  0  0  0  0
 22 21  2  0  0  0  0
 24 25  2  0  0  0  0
 26 27  1  0  0  0  0
 27 31  1  0  0  0  0
 28 27  2  0  0  0  0
 30 29  2  0  0  0  0
 31 30  2  0  0  0  0
M  END
>  <MODEL>
4

>  <REMARK>
 VINA RESULT:      -7.0      2.108      7.906
  Name = 
  6 active torsions:
  status: ('A' for Active; 'I' for Inactive)
    1  A    between atoms: C_3  and  C_17
    2  A    between atoms: C_4  and  C_12
    3  A    between atoms: C_18  and  C_20
    4  A    between atoms: C_18  and  C_23
    5  A    between atoms: C_21  and  C_23
    6  A    between atoms: C_22  and  C_31
                            x       y       z     vdW  Elec       q    Type
                         _______ _______ _______ _____ _____    ______ ____

>  <TORSDO>
F 6

$$$$
=
 OpenBabel11062421283D

 31 34  0  0  1  0  0  0  0  0999 V2000
  190.6840  175.6270  143.4750 C   0  0  0  0  0  2  0  0  0  0  0  0
  190.0430  176.6630  144.4200 C   0  0  1  0  0  3  0  0  0  0  0  0
  192.1020  173.5740  143.1220 C   0  0  0  0  0  2  0  0  0  0  0  0
  190.4700  171.6680  144.1340 O   0  0  0  0  0  0  0  0  0  0  0  0
  190.5900  173.7970  145.2250 C   0  0  2  0  0  3  0  0  0  0  0  0
  189.6920  172.7090  144.6450 C   0  0  0  0  0  2  0  0  0  0  0  0
  190.3580  171.7530  142.7380 C   0  0  0  0  0  2  0  0  0  0  0  0
  190.0190  176.2170  145.8920 C   0  0  2  0  0  3  0  0  0  0  0  0
  191.0760  172.9770  142.1580 C   0  0  0  0  0  2  0  0  0  0  0  0
  189.6880  174.7330  146.0450 C   0  0  0  0  0  2  0  0  0  0  0  0
  191.5020  174.5300  144.1850 C   0  0  2  0  0  0  0  0  0  0  0  0
  196.3320  175.3060  143.9950 C   0  0  0  0  0  0  0  0  0  0  0  0
  197.0570  173.6350  145.6300 C   0  0  0  0  0  3  0  0  0  0  0  0
  193.7630  175.7880  144.0190 C   0  0  0  0  0  2  0  0  0  0  0  0
  194.7420  174.2450  145.4790 C   0  0  0  0  0  0  0  0  0  0  0  0
  193.3700  174.2060  145.8060 N   0  0  0  0  0  2  0  0  0  0  0  0
  195.0190  175.1310  144.4710 C   0  0  0  0  0  0  0  0  0  0  0  0
  192.6860  175.1740  144.9480 C   0  0  2  0  0  3  0  0  0  0  0  0
  197.3510  174.5410  144.5950 C   0  0  0  0  0  3  0  0  0  0  0  0
  195.7380  173.4790  146.0800 C   0  0  0  0  0  3  0  0  0  0  0  0
  196.6730  176.2450  142.9090 C   0  0  0  0  0  0  0  0  0  0  0  0
  196.2490  175.9900  141.6090 O   0  0  0  0  0  0  0  0  0  0  0  0
  197.3470  177.2850  143.1370 O   0  0  0  0  0  1  0  0  0  0  0  0
  191.3240  178.3380  143.1500 C   0  0  0  0  0  2  0  0  0  0  0  0
  190.7480  177.9770  144.2950 C   0  0  0  0  0  3  0  0  0  0  0  0
  189.0970  177.0870  146.7560 C   0  0  0  0  0  2  0  0  0  0  0  0
  187.6760  177.1300  146.2670 C   0  0  0  0  0  0  0  0  0  0  0  0
  186.7500  176.4170  146.8930 C   0  0  0  0  0  2  0  0  0  0  0  0
  185.1840  177.4060  143.7460 O   0  0  0  0  0  0  0  0  0  0  0  0
  186.2040  177.6540  144.4000 C   0  0  0  0  0  0  0  0  0  0  0  0
  187.2830  177.9160  145.0890 C   0  0  0  0  0  3  0  0  0  0  0  0
  1 11  1  0  0  0  0
  1  2  1  0  0  0  0
  2 25  1  1  0  0  0
  2  8  1  0  0  0  0
  4  6  1  0  0  0  0
  5  6  1  6  0  0  0
  5 10  1  0  0  0  0
  7  4  1  0  0  0  0
  8 10  1  0  0  0  0
  8 26  1  1  0  0  0
  9  7  1  0  0  0  0
  9  3  1  0  0  0  0
 11  3  1  6  0  0  0
 11 18  1  0  0  0  0
 11  5  1  0  0  0  0
 12 17  2  0  0  0  0
 12 19  1  0  0  0  0
 13 20  1  0  0  0  0
 14 17  1  0  0  0  0
 15 16  1  0  0  0  0
 15 20  2  0  0  0  0
 17 15  1  0  0  0  0
 18 14  1  6  0  0  0
 18 16  1  0  0  0  0
 19 13  2  0  0  0  0
 21 23  1  0  0  0  0
 21 12  1  0  0  0  0
 22 21  2  0  0  0  0
 24 25  2  0  0  0  0
 27 26  1  0  0  0  0
 27 28  2  0  0  0  0
 29 30  2  0  0  0  0
 30 31  2  0  0  0  0
 31 27  1  0  0  0  0
M  END
>  <MODEL>
5

>  <REMARK>
 VINA RESULT:      -6.7      2.224      7.778
  Name = 
  6 active torsions:
  status: ('A' for Active; 'I' for Inactive)
    1  A    between atoms: C_3  and  C_17
    2  A    between atoms: C_4  and  C_12
    3  A    between atoms: C_18  and  C_20
    4  A    between atoms: C_18  and  C_23
    5  A    between atoms: C_21  and  C_23
    6  A    between atoms: C_22  and  C_31
                            x       y       z     vdW  Elec       q    Type
                         _______ _______ _______ _____ _____    ______ ____

>  <TORSDO>
F 6

$$$$
=
 OpenBabel11062421283D

 31 34  0  0  1  0  0  0  0  0999 V2000
  188.7410  177.7540  144.2990 C   0  0  0  0  0  2  0  0  0  0  0  0
  188.3050  177.6590  145.7740 C   0  0  1  0  0  3  0  0  0  0  0  0
  188.8720  176.7500  141.9900 C   0  0  0  0  0  2  0  0  0  0  0  0
  186.2730  176.8770  141.2500 O   0  0  0  0  0  0  0  0  0  0  0  0
  186.8130  176.3090  143.5140 C   0  0  2  0  0  3  0  0  0  0  0  0
  185.9850  177.1890  142.5800 C   0  0  0  0  0  2  0  0  0  0  0  0
  187.0050  177.9650  140.7490 C   0  0  0  0  0  2  0  0  0  0  0  0
  187.2620  176.5600  146.0360 C   0  0  2  0  0  3  0  0  0  0  0  0
  188.4130  178.0600  141.3480 C   0  0  0  0  0  2  0  0  0  0  0  0
  186.2190  176.4700  144.9220 C   0  0  0  0  0  2  0  0  0  0  0  0
  188.3600  176.5330  143.4370 C   0  0  2  0  0  0  0  0  0  0  0  0
  192.0820  173.4500  142.6520 C   0  0  0  0  0  0  0  0  0  0  0  0
  190.8280  171.5520  141.7490 C   0  0  0  0  0  3  0  0  0  0  0  0
  190.5970  175.2720  143.7970 C   0  0  0  0  0  2  0  0  0  0  0  0
  189.6730  173.3400  142.8550 C   0  0  0  0  0  0  0  0  0  0  0  0
  188.5580  174.0470  143.3530 N   0  0  0  0  0  2  0  0  0  0  0  0
  190.8570  173.9910  143.0840 C   0  0  0  0  0  0  0  0  0  0  0  0
  189.0590  175.2660  143.9900 C   0  0  2  0  0  3  0  0  0  0  0  0
  192.0480  172.2140  141.9790 C   0  0  0  0  0  3  0  0  0  0  0  0
  189.6230  172.1180  142.1880 C   0  0  0  0  0  3  0  0  0  0  0  0
  193.3780  174.1210  142.8740 C   0  0  0  0  0  0  0  0  0  0  0  0
  194.0010  174.0360  144.1150 O   0  0  0  0  0  1  0  0  0  0  0  0
  193.9370  174.7740  141.9540 O   0  0  0  0  0  0  0  0  0  0  0  0
  189.7900  176.2430  147.1340 C   0  0  0  0  0  2  0  0  0  0  0  0
  189.5010  177.4490  146.6500 C   0  0  0  0  0  3  0  0  0  0  0  0
  186.5990  176.6920  147.4130 C   0  0  0  0  0  2  0  0  0  0  0  0
  185.9430  178.0260  147.6400 C   0  0  0  0  0  0  0  0  0  0  0  0
  186.6290  179.0000  148.2220 C   0  0  0  0  0  2  0  0  0  0  0  0
  183.8780  179.1410  144.9690 O   0  0  0  0  0  0  0  0  0  0  0  0
  184.2020  178.7210  146.0860 C   0  0  0  0  0  0  0  0  0  0  0  0
  184.5440  178.2780  147.2660 C   0  0  0  0  0  3  0  0  0  0  0  0
  1  2  1  0  0  0  0
  2  8  1  0  0  0  0
  2 25  1  1  0  0  0
  4  6  1  0  0  0  0
  5  6  1  6  0  0  0
  5 10  1  0  0  0  0
  7  4  1  0  0  0  0
  7  9  1  0  0  0  0
  8 26  1  1  0  0  0
  9  3  1  0  0  0  0
 10  8  1  0  0  0  0
 11  3  1  6  0  0  0
 11  5  1  0  0  0  0
 11 18  1  0  0  0  0
 11  1  1  0  0  0  0
 12 21  1  0  0  0  0
 12 17  1  0  0  0  0
 13 19  1  0  0  0  0
 13 20  2  0  0  0  0
 15 17  2  0  0  0  0
 15 16  1  0  0  0  0
 16 18  1  0  0  0  0
 17 14  1  0  0  0  0
 18 14  1  6  0  0  0
 19 12  2  0  0  0  0
 20 15  1  0  0  0  0
 21 22  1  0  0  0  0
 23 21  2  0  0  0  0
 25 24  2  0  0  0  0
 26 27  1  0  0  0  0
 27 28  2  0  0  0  0
 29 30  2  0  0  0  0
 30 31  2  0  0  0  0
 31 27  1  0  0  0  0
M  END
>  <MODEL>
6

>  <REMARK>
 VINA RESULT:      -6.7      2.433      7.399
  Name = 
  6 active torsions:
  status: ('A' for Active; 'I' for Inactive)
    1  A    between atoms: C_3  and  C_17
    2  A    between atoms: C_4  and  C_12
    3  A    between atoms: C_18  and  C_20
    4  A    between atoms: C_18  and  C_23
    5  A    between atoms: C_21  and  C_23
    6  A    between atoms: C_22  and  C_31
                            x       y       z     vdW  Elec       q    Type
                         _______ _______ _______ _____ _____    ______ ____

>  <TORSDO>
F 6

$$$$
=
 OpenBabel11062421283D

 31 34  0  0  1  0  0  0  0  0999 V2000
  188.9900  177.7550  142.8740 C   0  0  0  0  0  2  0  0  0  0  0  0
  189.5700  177.7980  144.3010 C   0  0  1  0  0  3  0  0  0  0  0  0
  187.5200  176.6590  141.1440 C   0  0  0  0  0  2  0  0  0  0  0  0
  185.0720  177.2340  142.1410 O   0  0  0  0  0  0  0  0  0  0  0  0
  186.8410  176.6620  143.6530 C   0  0  2  0  0  3  0  0  0  0  0  0
  185.7240  177.6430  143.3070 C   0  0  0  0  0  2  0  0  0  0  0  0
  185.4510  178.1500  141.1480 C   0  0  0  0  0  2  0  0  0  0  0  0
  188.8000  176.9190  145.3020 C   0  0  2  0  0  3  0  0  0  0  0  0
  186.9210  178.0060  140.7360 C   0  0  0  0  0  2  0  0  0  0  0  0
  187.2880  176.9820  145.0880 C   0  0  0  0  0  2  0  0  0  0  0  0
  188.0090  176.5940  142.6130 C   0  0  2  0  0  0  0  0  0  0  0  0
  191.2300  173.5620  140.5150 C   0  0  0  0  0  0  0  0  0  0  0  0
  189.6790  171.8510  139.7050 C   0  0  0  0  0  3  0  0  0  0  0  0
  190.1840  175.2350  142.2300 C   0  0  0  0  0  2  0  0  0  0  0  0
  188.9410  173.4880  141.2950 C   0  0  0  0  0  0  0  0  0  0  0  0
  188.0260  174.1430  142.1460 N   0  0  0  0  0  2  0  0  0  0  0  0
  190.1830  174.0670  141.3080 C   0  0  0  0  0  0  0  0  0  0  0  0
  188.7420  175.2410  142.7980 C   0  0  2  0  0  3  0  0  0  0  0  0
  190.9570  172.4390  139.7110 C   0  0  0  0  0  3  0  0  0  0  0  0
  188.6550  172.3780  140.5030 C   0  0  0  0  0  3  0  0  0  0  0  0
  192.5800  174.1580  140.4950 C   0  0  0  0  0  0  0  0  0  0  0  0
  193.1320  174.5930  139.2950 O   0  0  0  0  0  0  0  0  0  0  0  0
  193.2500  174.2830  141.5550 O   0  0  0  0  0  1  0  0  0  0  0  0
  191.8900  178.0580  143.5190 C   0  0  0  0  0  2  0  0  0  0  0  0
  191.0140  177.4040  144.2800 C   0  0  0  0  0  3  0  0  0  0  0  0
  189.1710  177.2230  146.7590 C   0  0  0  0  0  2  0  0  0  0  0  0
  190.0490  176.1760  147.3880 C   0  0  0  0  0  0  0  0  0  0  0  0
  189.6470  174.9130  147.4050 C   0  0  0  0  0  2  0  0  0  0  0  0
  191.5440  178.3310  149.7880 O   0  0  0  0  0  0  0  0  0  0  0  0
  191.4410  177.4470  148.9290 C   0  0  0  0  0  0  0  0  0  0  0  0
  191.3310  176.5150  148.0200 C   0  0  0  0  0  3  0  0  0  0  0  0
  1  2  1  0  0  0  0
  2 25  1  6  0  0  0
  2  8  1  0  0  0  0
  4  6  1  0  0  0  0
  5  6  1  6  0  0  0
  5 10  1  0  0  0  0
  7  4  1  0  0  0  0
  8 26  1  1  0  0  0
  9  3  1  0  0  0  0
  9  7  1  0  0  0  0
 10  8  1  0  0  0  0
 11  3  1  6  0  0  0
 11 18  1  0  0  0  0
 11  1  1  0  0  0  0
 11  5  1  0  0  0  0
 12 17  1  0  0  0  0
 13 19  1  0  0  0  0
 13 20  2  0  0  0  0
 15 17  2  0  0  0  0
 15 16  1  0  0  0  0
 16 18  1  0  0  0  0
 17 14  1  0  0  0  0
 18 14  1  6  0  0  0
 19 12  2  0  0  0  0
 20 15  1  0  0  0  0
 21 12  1  0  0  0  0
 21 23  1  0  0  0  0
 22 21  2  0  0  0  0
 24 25  2  0  0  0  0
 26 27  1  0  0  0  0
 27 28  2  0  0  0  0
 27 31  1  0  0  0  0
 30 29  2  0  0  0  0
 31 30  2  0  0  0  0
M  END
>  <MODEL>
7

>  <REMARK>
 VINA RESULT:      -6.7      2.925      6.393
  Name = 
  6 active torsions:
  status: ('A' for Active; 'I' for Inactive)
    1  A    between atoms: C_3  and  C_17
    2  A    between atoms: C_4  and  C_12
    3  A    between atoms: C_18  and  C_20
    4  A    between atoms: C_18  and  C_23
    5  A    between atoms: C_21  and  C_23
    6  A    between atoms: C_22  and  C_31
                            x       y       z     vdW  Elec       q    Type
                         _______ _______ _______ _____ _____    ______ ____

>  <TORSDO>
F 6

$$$$
=
 OpenBabel11062421283D

 31 34  0  0  1  0  0  0  0  0999 V2000
  186.4600  176.1850  144.0040 C   0  0  0  0  0  2  0  0  0  0  0  0
  186.7700  176.3820  142.5070 C   0  0  1  0  0  3  0  0  0  0  0  0
  186.6510  176.9580  146.3960 C   0  0  0  0  0  2  0  0  0  0  0  0
  185.0600  179.1460  146.3350 O   0  0  0  0  0  0  0  0  0  0  0  0
  186.4700  178.6790  144.4550 C   0  0  2  0  0  3  0  0  0  0  0  0
  185.0650  179.0210  144.9440 C   0  0  0  0  0  2  0  0  0  0  0  0
  184.3720  178.0220  146.8190 C   0  0  0  0  0  2  0  0  0  0  0  0
  187.2430  177.8040  142.1610 C   0  0  2  0  0  3  0  0  0  0  0  0
  185.1600  176.7200  146.6370 C   0  0  0  0  0  2  0  0  0  0  0  0
  186.4740  178.8770  142.9310 C   0  0  0  0  0  2  0  0  0  0  0  0
  187.0160  177.2890  144.9260 C   0  0  2  0  0  0  0  0  0  0  0  0
  191.0580  174.7180  145.9360 C   0  0  0  0  0  0  0  0  0  0  0  0
  191.8230  175.9580  147.9030 C   0  0  0  0  0  3  0  0  0  0  0  0
  189.1930  175.9290  144.5620 C   0  0  0  0  0  2  0  0  0  0  0  0
  190.1240  176.8810  146.4850 C   0  0  0  0  0  0  0  0  0  0  0  0
  189.1730  177.8320  146.0560 N   0  0  0  0  0  2  0  0  0  0  0  0
  190.1770  175.7830  145.6680 C   0  0  0  0  0  0  0  0  0  0  0  0
  188.5620  177.3190  144.8290 C   0  0  2  0  0  3  0  0  0  0  0  0
  191.8850  174.8250  147.0710 C   0  0  0  0  0  3  0  0  0  0  0  0
  190.9330  177.0010  147.6120 C   0  0  0  0  0  3  0  0  0  0  0  0
  191.1440  173.5150  145.0860 C   0  0  0  0  0  0  0  0  0  0  0  0
  192.3150  173.2380  144.3880 O   0  0  0  0  0  0  0  0  0  0  0  0
  190.1690  172.7250  144.9790 O   0  0  0  0  0  1  0  0  0  0  0  0
  187.5380  174.0750  142.1280 C   0  0  0  0  0  2  0  0  0  0  0  0
  187.7870  175.3800  142.0580 C   0  0  0  0  0  3  0  0  0  0  0  0
  187.2270  178.0800  140.6530 C   0  0  0  0  0  2  0  0  0  0  0  0
  185.8870  177.8470  140.0110 C   0  0  0  0  0  0  0  0  0  0  0  0
  185.7910  177.0120  138.9860 C   0  0  0  0  0  2  0  0  0  0  0  0
  182.3380  177.6290  140.0610 O   0  0  0  0  0  0  0  0  0  0  0  0
  183.4760  178.0750  140.2580 C   0  0  0  0  0  0  0  0  0  0  0  0
  184.6770  178.5450  140.4650 C   0  0  0  0  0  3  0  0  0  0  0  0
  2 25  1  1  0  0  0
  2  1  1  0  0  0  0
  3  9  1  0  0  0  0
  4  7  1  0  0  0  0
  5 10  1  6  0  0  0
  5 11  1  0  0  0  0
  5  6  1  0  0  0  0
  6  4  1  0  0  0  0
  8 26  1  6  0  0  0
  8  2  1  0  0  0  0
  8 10  1  0  0  0  0
  9  7  1  0  0  0  0
 11  1  1  6  0  0  0
 11  3  1  0  0  0  0
 12 19  1  0  0  0  0
 14 17  1  0  0  0  0
 15 20  2  0  0  0  0
 16 15  1  0  0  0  0
 17 12  2  0  0  0  0
 17 15  1  0  0  0  0
 18 14  1  1  0  0  0
 18 11  1  0  0  0  0
 18 16  1  0  0  0  0
 19 13  2  0  0  0  0
 20 13  1  0  0  0  0
 21 12  1  0  0  0  0
 22 21  2  0  0  0  0
 23 21  1  0  0  0  0
 25 24  2  0  0  0  0
 27 31  1  0  0  0  0
 27 26  1  0  0  0  0
 28 27  2  0  0  0  0
 29 30  2  0  0  0  0
 30 31  2  0  0  0  0
M  END
>  <MODEL>
8

>  <REMARK>
 VINA RESULT:      -6.6      2.676      7.959
  Name = 
  6 active torsions:
  status: ('A' for Active; 'I' for Inactive)
    1  A    between atoms: C_3  and  C_17
    2  A    between atoms: C_4  and  C_12
    3  A    between atoms: C_18  and  C_20
    4  A    between atoms: C_18  and  C_23
    5  A    between atoms: C_21  and  C_23
    6  A    between atoms: C_22  and  C_31
                            x       y       z     vdW  Elec       q    Type
                         _______ _______ _______ _____ _____    ______ ____

>  <TORSDO>
F 6

$$$$
=
 OpenBabel11062421283D

 31 34  0  0  1  0  0  0  0  0999 V2000
  192.0480  174.6280  145.9220 C   0  0  0  0  0  2  0  0  0  0  0  0
  190.8170  175.5390  146.0950 C   0  0  1  0  0  3  0  0  0  0  0  0
  193.8660  173.6640  144.4650 C   0  0  0  0  0  2  0  0  0  0  0  0
  195.4090  175.8530  144.0890 O   0  0  0  0  0  0  0  0  0  0  0  0
  193.0260  176.0970  144.1030 C   0  0  2  0  0  3  0  0  0  0  0  0
  194.3640  176.5950  144.6430 C   0  0  0  0  0  2  0  0  0  0  0  0
  195.9020  175.0490  145.1280 C   0  0  0  0  0  2  0  0  0  0  0  0
  190.6400  176.5540  144.9530 C   0  0  2  0  0  3  0  0  0  0  0  0
  194.9260  173.9370  145.5330 C   0  0  0  0  0  2  0  0  0  0  0  0
  191.9700  177.1450  144.4880 C   0  0  0  0  0  2  0  0  0  0  0  0
  192.6540  174.6300  144.5040 C   0  0  2  0  0  0  0  0  0  0  0  0
  191.7680  171.0370  141.2990 C   0  0  0  0  0  0  0  0  0  0  0  0
  192.1820  172.2620  139.2210 C   0  0  0  0  0  3  0  0  0  0  0  0
  191.5440  172.5560  143.4140 C   0  0  0  0  0  2  0  0  0  0  0  0
  191.9300  173.4510  141.2880 C   0  0  0  0  0  0  0  0  0  0  0  0
  191.8800  174.5800  142.1330 N   0  0  0  0  0  2  0  0  0  0  0  0
  191.7420  172.2760  141.9660 C   0  0  0  0  0  0  0  0  0  0  0  0
  191.6090  174.1020  143.4900 C   0  0  2  0  0  3  0  0  0  0  0  0
  191.9910  171.0500  139.9080 C   0  0  0  0  0  3  0  0  0  0  0  0
  192.1550  173.4800  139.9140 C   0  0  0  0  0  3  0  0  0  0  0  0
  191.5750  169.7480  141.9920 C   0  0  0  0  0  0  0  0  0  0  0  0
  192.5040  169.3180  142.9330 O   0  0  0  0  0  1  0  0  0  0  0  0
  190.5760  169.0220  141.7450 O   0  0  0  0  0  0  0  0  0  0  0  0
  188.9500  174.6150  147.4070 C   0  0  0  0  0  2  0  0  0  0  0  0
  189.5800  174.7080  146.2380 C   0  0  0  0  0  3  0  0  0  0  0  0
  189.6280  177.6540  145.2950 C   0  0  0  0  0  2  0  0  0  0  0  0
  188.3570  177.5750  144.4940 C   0  0  0  0  0  0  0  0  0  0  0  0
  188.4150  177.2460  143.2120 C   0  0  0  0  0  2  0  0  0  0  0  0
  186.3070  176.9620  147.3330 O   0  0  0  0  0  0  0  0  0  0  0  0
  186.6670  177.4130  146.2390 C   0  0  0  0  0  0  0  0  0  0  0  0
  187.0480  177.8870  145.0830 C   0  0  0  0  0  3  0  0  0  0  0  0
  1  2  1  0  0  0  0
  2 25  1  6  0  0  0
  3  9  1  0  0  0  0
  4  6  1  0  0  0  0
  4  7  1  0  0  0  0
  5 10  1  1  0  0  0
  5 11  1  0  0  0  0
  5  6  1  0  0  0  0
  7  9  1  0  0  0  0
  8 26  1  1  0  0  0
  8  2  1  0  0  0  0
 10  8  1  0  0  0  0
 11  3  1  6  0  0  0
 11  1  1  0  0  0  0
 12 17  1  0  0  0  0
 12 21  1  0  0  0  0
 13 19  1  0  0  0  0
 13 20  2  0  0  0  0
 15 17  2  0  0  0  0
 15 16  1  0  0  0  0
 16 18  1  0  0  0  0
 17 14  1  0  0  0  0
 18 14  1  6  0  0  0
 18 11  1  0  0  0  0
 19 12  2  0  0  0  0
 20 15  1  0  0  0  0
 21 22  1  0  0  0  0
 23 21  2  0  0  0  0
 25 24  2  0  0  0  0
 27 31  1  0  0  0  0
 27 26  1  0  0  0  0
 28 27  2  0  0  0  0
 30 29  2  0  0  0  0
 31 30  2  0  0  0  0
M  END
>  <MODEL>
9

>  <REMARK>
 VINA RESULT:      -6.6      2.363      7.055
  Name = 
  6 active torsions:
  status: ('A' for Active; 'I' for Inactive)
    1  A    between atoms: C_3  and  C_17
    2  A    between atoms: C_4  and  C_12
    3  A    between atoms: C_18  and  C_20
    4  A    between atoms: C_18  and  C_23
    5  A    between atoms: C_21  and  C_23
    6  A    between atoms: C_22  and  C_31
                            x       y       z     vdW  Elec       q    Type
                         _______ _______ _______ _____ _____    ______ ____

>  <TORSDO>
F 6

$$$$
