=
 OpenBabel11062421053D

 38 41  0  0  1  0  0  0  0  0999 V2000
  186.9180  175.9060  142.6550 C   0  0  0  0  0  2  0  0  0  0  0  0
  187.5050  174.9090  141.6700 C   0  0  1  0  0  3  0  0  0  0  0  0
  188.0050  175.5760  140.5380 O   0  0  0  0  0  0  0  0  0  0  0  0
  188.6100  174.0980  142.3560 C   0  0  0  0  0  2  0  0  0  0  0  0
  188.2150  174.5800  139.5630 C   0  0  0  0  0  2  0  0  0  0  0  0
  189.3150  173.5890  139.9800 C   0  0  0  0  0  2  0  0  0  0  0  0
  189.7990  173.8430  141.4170 C   0  0  2  0  0  3  0  0  0  0  0  0
  190.6890  172.7000  141.9280 C   0  0  2  0  0  3  0  0  0  0  0  0
  190.3440  171.3830  141.2450 C   0  0  0  0  0  2  0  0  0  0  0  0
  190.4270  170.3320  142.1580 O   0  0  0  0  0  1  0  0  0  0  0  0
  190.5160  172.5080  143.4270 C   0  0  0  0  0  2  0  0  0  0  0  0
  192.6940  172.1100  144.6000 C   0  0  0  0  0  1  0  0  0  0  0  0
  191.6700  173.1520  144.1820 C   0  0  2  0  0  3  0  0  0  0  0  0
  189.3980  174.5700  146.8900 C   0  0  0  0  0  3  0  0  0  0  0  0
  192.0880  174.6600  146.1290 C   0  0  0  0  0  3  0  0  0  0  0  0
  191.1770  173.9120  145.3740 C   0  0  0  0  0  0  0  0  0  0  0  0
  189.8280  173.8660  145.7600 C   0  0  0  0  0  3  0  0  0  0  0  0
  190.3120  175.3190  147.6360 C   0  0  0  0  0  3  0  0  0  0  0  0
  191.6560  175.3640  147.2570 C   0  0  0  0  0  3  0  0  0  0  0  0
  186.5430  178.2030  141.7820 C   0  0  0  0  0  1  0  0  0  0  0  0
  187.5410  177.2820  142.4690 C   0  0  1  0  0  3  0  0  0  0  0  0
  188.0520  177.8480  143.8020 C   0  0  1  0  0  3  0  0  0  0  0  0
  186.9990  177.8170  144.8730 C   0  0  0  0  0  0  0  0  0  0  0  0
  185.5030  178.0270  147.3130 C   0  0  1  0  0  3  0  0  0  0  0  0
  186.9490  176.7290  145.9020 C   0  0  0  0  0  2  0  0  0  0  0  0
  186.1630  178.8480  145.0090 C   0  0  0  0  0  3  0  0  0  0  0  0
  185.1470  178.8850  146.1260 C   0  0  2  0  0  3  0  0  0  0  0  0
  186.8010  177.3420  147.2200 N   0  0  0  0  0  2  0  0  0  0  0  0
  185.7270  179.4180  147.2940 O   0  0  0  0  0  0  0  0  0  0  0  0
  189.3610  177.2130  144.2700 C   0  0  0  0  0  2  0  0  0  0  0  0
  190.3500  177.1350  143.1170 C   0  0  0  0  0  2  0  0  0  0  0  0
  191.7000  177.1620  143.6120 N   0  0  0  0  0  0  0  0  0  0  0  0
  192.6320  176.5260  142.9980 C   0  0  0  0  0  3  0  0  0  0  0  0
  194.0380  176.5350  143.5180 C   0  0  1  0  0  3  0  0  0  0  0  0
  194.0630  177.0770  144.7900 F   0  0  0  0  0  0  0  0  0  0  0  0
  194.6230  175.1280  143.5500 C   0  0  0  0  0  2  0  0  0  0  0  0
  195.7690  173.7580  145.2950 C   0  0  0  0  0  1  0  0  0  0  0  0
  195.8170  175.0440  144.4900 C   0  0  0  0  0  2  0  0  0  0  0  0
  2  4  1  0  0  0  0
  2  1  1  1  0  0  0
  3  2  1  0  0  0  0
  5  6  1  0  0  0  0
  5  3  1  0  0  0  0
  6  7  1  0  0  0  0
  7  8  1  1  0  0  0
  7  4  1  0  0  0  0
  8  9  1  6  0  0  0
  8 11  1  0  0  0  0
  9 10  1  0  0  0  0
 11 13  1  0  0  0  0
 13 12  1  1  0  0  0
 13 16  1  0  0  0  0
 14 18  1  0  0  0  0
 15 19  1  0  0  0  0
 16 17  1  0  0  0  0
 16 15  2  0  0  0  0
 17 14  2  0  0  0  0
 19 18  2  0  0  0  0
 21 20  1  1  0  0  0
 21  1  1  0  0  0  0
 21 22  1  0  0  0  0
 22 30  1  1  0  0  0
 22 23  1  0  0  0  0
 23 26  2  0  0  0  0
 23 25  1  0  0  0  0
 24 28  1  6  0  0  0
 25 28  1  0  0  0  0
 27 26  1  6  0  0  0
 27 29  1  0  0  0  0
 27 24  1  0  0  0  0
 29 24  1  0  0  0  0
 31 32  1  0  0  0  0
 31 30  1  0  0  0  0
 33 34  1  0  0  0  0
 33 32  2  0  0  0  0
 34 36  1  0  0  0  0
 34 35  1  1  0  0  0
 36 38  1  0  0  0  0
 38 37  1  0  0  0  0
M  END
>  <MODEL>
1

>  <REMARK>
 VINA RESULT:      -6.5      0.000      0.000
  Name = 
  15 active torsions:
  status: ('A' for Active; 'I' for Inactive)
    1  A    between atoms: N_2  and  C_14
    2  A    between atoms: C_3  and  C_4
    3  A    between atoms: C_3  and  C_25
    4  A    between atoms: C_3  and  C_36
    5  A    between atoms: C_6  and  C_18
    6  A    between atoms: C_8  and  C_9
    7  A    between atoms: C_8  and  C_26
    8  A    between atoms: C_13  and  C_37
    9  A    between atoms: C_13  and  C_38
   10  A    between atoms: C_14  and  C_25
   11  A    between atoms: C_17  and  C_38
   12  A    between atoms: C_18  and  C_36
   13  A    between atoms: C_19  and  C_37
   14  A    between atoms: C_26  and  C_30
   15  A    between atoms: C_34  and  C_37
                            x       y       z     vdW  Elec       q    Type
                         _______ _______ _______ _____ _____    ______ ____

>  <TORSDO>
F 15

$$$$
=
 OpenBabel11062421053D

 38 41  0  0  1  0  0  0  0  0999 V2000
  191.8700  175.7900  143.2870 C   0  0  0  0  0  2  0  0  0  0  0  0
  190.7560  175.2210  142.4250 C   0  0  1  0  0  3  0  0  0  0  0  0
  190.3790  173.9480  142.8890 O   0  0  0  0  0  0  0  0  0  0  0  0
  189.5590  176.1790  142.4330 C   0  0  0  0  0  2  0  0  0  0  0  0
  189.6030  173.3750  141.8620 C   0  0  0  0  0  2  0  0  0  0  0  0
  188.2880  174.1410  141.6380 C   0  0  0  0  0  2  0  0  0  0  0  0
  188.2220  175.4250  142.4820 C   0  0  2  0  0  3  0  0  0  0  0  0
  187.0490  176.3230  142.0610 C   0  0  2  0  0  3  0  0  0  0  0  0
  187.2800  176.9240  140.6820 C   0  0  0  0  0  2  0  0  0  0  0  0
  186.0730  177.3690  140.1440 O   0  0  0  0  0  1  0  0  0  0  0  0
  186.8640  177.4680  143.0460 C   0  0  0  0  0  2  0  0  0  0  0  0
  184.4650  178.1840  143.1510 C   0  0  0  0  0  1  0  0  0  0  0  0
  185.5430  177.3220  143.7880 C   0  0  2  0  0  3  0  0  0  0  0  0
  185.9110  177.0040  147.5650 C   0  0  0  0  0  3  0  0  0  0  0  0
  185.8250  179.0040  145.6120 C   0  0  0  0  0  3  0  0  0  0  0  0
  185.6990  177.6620  145.2370 C   0  0  0  0  0  0  0  0  0  0  0  0
  185.7450  176.6600  146.2200 C   0  0  0  0  0  3  0  0  0  0  0  0
  186.0320  178.3470  147.9330 C   0  0  0  0  0  3  0  0  0  0  0  0
  185.9910  179.3470  146.9570 C   0  0  0  0  0  3  0  0  0  0  0  0
  194.1360  175.1520  142.4860 C   0  0  0  0  0  1  0  0  0  0  0  0
  193.0050  174.7870  143.4360 C   0  0  1  0  0  3  0  0  0  0  0  0
  193.4670  174.6800  144.8970 C   0  0  1  0  0  3  0  0  0  0  0  0
  194.1720  173.3830  145.1760 C   0  0  0  0  0  0  0  0  0  0  0  0
  195.6270  170.9160  145.0140 C   0  0  1  0  0  3  0  0  0  0  0  0
  193.5170  172.0580  144.9320 C   0  0  0  0  0  2  0  0  0  0  0  0
  195.4620  173.3920  145.5200 C   0  0  0  0  0  3  0  0  0  0  0  0
  196.2210  172.1040  145.7270 C   0  0  2  0  0  3  0  0  0  0  0  0
  194.4460  171.2100  144.1900 N   0  0  0  0  0  2  0  0  0  0  0  0
  196.7250  171.6330  144.4990 O   0  0  0  0  0  0  0  0  0  0  0  0
  194.2830  175.8850  145.3660 C   0  0  0  0  0  2  0  0  0  0  0  0
  193.7080  176.4370  146.6610 C   0  0  0  0  0  2  0  0  0  0  0  0
  192.2790  176.5650  146.5620 N   0  0  0  0  0  0  0  0  0  0  0  0
  191.5770  176.8590  147.5960 C   0  0  0  0  0  3  0  0  0  0  0  0
  190.0850  176.9760  147.5020 C   0  0  1  0  0  3  0  0  0  0  0  0
  189.6910  178.2520  147.8570 F   0  0  0  0  0  0  0  0  0  0  0  0
  189.5960  176.6620  146.0930 C   0  0  0  0  0  2  0  0  0  0  0  0
  189.7610  174.1700  146.0770 C   0  0  0  0  0  1  0  0  0  0  0  0
  188.8140  175.3570  146.0550 C   0  0  0  0  0  2  0  0  0  0  0  0
  1 21  1  0  0  0  0
  2  4  1  0  0  0  0
  2  3  1  0  0  0  0
  2  1  1  1  0  0  0
  4  7  1  0  0  0  0
  5  3  1  0  0  0  0
  6  5  1  0  0  0  0
  6  7  1  0  0  0  0
  7  8  1  6  0  0  0
  8  9  1  6  0  0  0
  8 11  1  0  0  0  0
 10  9  1  0  0  0  0
 11 13  1  0  0  0  0
 13 12  1  6  0  0  0
 13 16  1  0  0  0  0
 14 18  1  0  0  0  0
 15 19  1  0  0  0  0
 16 15  2  0  0  0  0
 16 17  1  0  0  0  0
 17 14  2  0  0  0  0
 19 18  2  0  0  0  0
 21 20  1  6  0  0  0
 21 22  1  0  0  0  0
 22 23  1  0  0  0  0
 22 30  1  6  0  0  0
 23 26  2  0  0  0  0
 24 28  1  6  0  0  0
 24 27  1  0  0  0  0
 25 23  1  0  0  0  0
 27 26  1  6  0  0  0
 28 25  1  0  0  0  0
 29 24  1  0  0  0  0
 29 27  1  0  0  0  0
 30 31  1  0  0  0  0
 32 31  1  0  0  0  0
 32 33  2  0  0  0  0
 34 33  1  0  0  0  0
 34 35  1  6  0  0  0
 36 34  1  0  0  0  0
 38 37  1  0  0  0  0
 38 36  1  0  0  0  0
M  END
>  <MODEL>
2

>  <REMARK>
 VINA RESULT:      -6.4      2.430      7.113
  Name = 
  15 active torsions:
  status: ('A' for Active; 'I' for Inactive)
    1  A    between atoms: N_2  and  C_14
    2  A    between atoms: C_3  and  C_4
    3  A    between atoms: C_3  and  C_25
    4  A    between atoms: C_3  and  C_36
    5  A    between atoms: C_6  and  C_18
    6  A    between atoms: C_8  and  C_9
    7  A    between atoms: C_8  and  C_26
    8  A    between atoms: C_13  and  C_37
    9  A    between atoms: C_13  and  C_38
   10  A    between atoms: C_14  and  C_25
   11  A    between atoms: C_17  and  C_38
   12  A    between atoms: C_18  and  C_36
   13  A    between atoms: C_19  and  C_37
   14  A    between atoms: C_26  and  C_30
   15  A    between atoms: C_34  and  C_37
                            x       y       z     vdW  Elec       q    Type
                         _______ _______ _______ _____ _____    ______ ____

>  <TORSDO>
F 15

$$$$
=
 OpenBabel11062421053D

 38 41  0  0  1  0  0  0  0  0999 V2000
  190.3150  174.3750  142.2240 C   0  0  0  0  0  2  0  0  0  0  0  0
  191.6450  173.6750  142.4460 C   0  0  1  0  0  3  0  0  0  0  0  0
  191.9220  172.7990  141.3820 O   0  0  0  0  0  0  0  0  0  0  0  0
  192.7570  174.7200  142.5940 C   0  0  0  0  0  2  0  0  0  0  0  0
  192.9740  171.9720  141.8240 C   0  0  0  0  0  2  0  0  0  0  0  0
  194.2720  172.7660  142.0560 C   0  0  0  0  0  2  0  0  0  0  0  0
  194.0530  174.2790  141.8960 C   0  0  2  0  0  3  0  0  0  0  0  0
  195.2640  175.0840  142.3910 C   0  0  2  0  0  3  0  0  0  0  0  0
  196.0690  175.6450  141.2260 C   0  0  0  0  0  2  0  0  0  0  0  0
  196.1600  177.0330  141.3310 O   0  0  0  0  0  1  0  0  0  0  0  0
  196.1920  174.2100  143.2220 C   0  0  0  0  0  2  0  0  0  0  0  0
  197.3470  173.9660  145.4320 C   0  0  0  0  0  1  0  0  0  0  0  0
  196.4000  174.8170  144.6020 C   0  0  2  0  0  3  0  0  0  0  0  0
  193.0500  174.0990  146.2650 C   0  0  0  0  0  3  0  0  0  0  0  0
  194.7240  176.2770  145.7390 C   0  0  0  0  0  3  0  0  0  0  0  0
  195.0960  174.9970  145.3130 C   0  0  0  0  0  0  0  0  0  0  0  0
  194.2550  173.9050  145.5810 C   0  0  0  0  0  3  0  0  0  0  0  0
  192.6830  175.3810  146.6840 C   0  0  0  0  0  3  0  0  0  0  0  0
  193.5190  176.4690  146.4220 C   0  0  0  0  0  3  0  0  0  0  0  0
  189.9670  173.1660  144.3690 C   0  0  0  0  0  1  0  0  0  0  0  0
  189.4310  174.2600  143.4570 C   0  0  1  0  0  3  0  0  0  0  0  0
  189.2900  175.6130  144.1710 C   0  0  1  0  0  3  0  0  0  0  0  0
  188.3570  176.5420  143.4480 C   0  0  0  0  0  0  0  0  0  0  0  0
  186.9090  178.0710  141.5000 C   0  0  1  0  0  3  0  0  0  0  0  0
  188.7950  177.8940  142.9750 C   0  0  0  0  0  2  0  0  0  0  0  0
  187.1440  176.1140  143.0900 C   0  0  0  0  0  3  0  0  0  0  0  0
  186.2130  176.9940  142.2910 C   0  0  2  0  0  3  0  0  0  0  0  0
  188.3770  178.0580  141.5850 N   0  0  0  0  0  2  0  0  0  0  0  0
  186.4810  176.8630  140.9140 O   0  0  0  0  0  0  0  0  0  0  0  0
  188.9330  175.4840  145.6520 C   0  0  0  0  0  2  0  0  0  0  0  0
  189.3470  176.7400  146.4030 C   0  0  0  0  0  2  0  0  0  0  0  0
  188.1900  177.4200  146.9210 N   0  0  0  0  0  0  0  0  0  0  0  0
  187.0190  176.9080  146.7890 C   0  0  0  0  0  3  0  0  0  0  0  0
  185.8080  177.6210  147.3100 C   0  0  1  0  0  3  0  0  0  0  0  0
  185.8300  177.6340  148.6920 F   0  0  0  0  0  0  0  0  0  0  0  0
  185.7420  179.0500  146.7850 C   0  0  0  0  0  2  0  0  0  0  0  0
  184.2220  178.9300  144.8070 C   0  0  0  0  0  1  0  0  0  0  0  0
  185.6610  179.0810  145.2660 C   0  0  0  0  0  2  0  0  0  0  0  0
  1 21  1  0  0  0  0
  2  1  1  6  0  0  0
  2  4  1  0  0  0  0
  3  5  1  0  0  0  0
  3  2  1  0  0  0  0
  5  6  1  0  0  0  0
  7  6  1  0  0  0  0
  7  8  1  1  0  0  0
  7  4  1  0  0  0  0
  8  9  1  6  0  0  0
  8 11  1  0  0  0  0
  9 10  1  0  0  0  0
 11 13  1  0  0  0  0
 13 16  1  0  0  0  0
 13 12  1  1  0  0  0
 14 18  1  0  0  0  0
 15 19  1  0  0  0  0
 16 17  1  0  0  0  0
 16 15  2  0  0  0  0
 17 14  2  0  0  0  0
 19 18  2  0  0  0  0
 21 22  1  0  0  0  0
 21 20  1  1  0  0  0
 22 30  1  1  0  0  0
 23 22  1  0  0  0  0
 24 29  1  6  0  0  0
 24 28  1  0  0  0  0
 24 27  1  0  0  0  0
 25 23  1  0  0  0  0
 26 23  2  0  0  0  0
 27 26  1  1  0  0  0
 28 25  1  0  0  0  0
 29 27  1  0  0  0  0
 30 31  1  0  0  0  0
 31 32  1  0  0  0  0
 33 32  2  0  0  0  0
 33 34  1  0  0  0  0
 34 35  1  1  0  0  0
 36 34  1  0  0  0  0
 37 38  1  0  0  0  0
 38 36  1  0  0  0  0
M  END
>  <MODEL>
3

>  <REMARK>
 VINA RESULT:      -6.4      2.626      5.944
  Name = 
  15 active torsions:
  status: ('A' for Active; 'I' for Inactive)
    1  A    between atoms: N_2  and  C_14
    2  A    between atoms: C_3  and  C_4
    3  A    between atoms: C_3  and  C_25
    4  A    between atoms: C_3  and  C_36
    5  A    between atoms: C_6  and  C_18
    6  A    between atoms: C_8  and  C_9
    7  A    between atoms: C_8  and  C_26
    8  A    between atoms: C_13  and  C_37
    9  A    between atoms: C_13  and  C_38
   10  A    between atoms: C_14  and  C_25
   11  A    between atoms: C_17  and  C_38
   12  A    between atoms: C_18  and  C_36
   13  A    between atoms: C_19  and  C_37
   14  A    between atoms: C_26  and  C_30
   15  A    between atoms: C_34  and  C_37
                            x       y       z     vdW  Elec       q    Type
                         _______ _______ _______ _____ _____    ______ ____

>  <TORSDO>
F 15

$$$$
=
 OpenBabel11062421053D

 38 41  0  0  1  0  0  0  0  0999 V2000
  189.3050  173.8570  143.2120 C   0  0  0  0  0  2  0  0  0  0  0  0
  189.0460  175.3540  143.2190 C   0  0  1  0  0  3  0  0  0  0  0  0
  189.9830  176.0180  142.4080 O   0  0  0  0  0  0  0  0  0  0  0  0
  187.6170  175.6310  142.7370 C   0  0  0  0  0  2  0  0  0  0  0  0
  189.8790  177.3850  142.7330 C   0  0  0  0  0  2  0  0  0  0  0  0
  188.5080  177.9660  142.3440 C   0  0  0  0  0  2  0  0  0  0  0  0
  187.5460  176.8770  141.8410 C   0  0  2  0  0  3  0  0  0  0  0  0
  186.1080  177.4020  141.7150 C   0  0  2  0  0  3  0  0  0  0  0  0
  185.8520  177.9860  140.3320 C   0  0  0  0  0  2  0  0  0  0  0  0
  186.3910  177.1530  139.3510 O   0  0  0  0  0  1  0  0  0  0  0  0
  185.8380  178.4930  142.7400 C   0  0  0  0  0  2  0  0  0  0  0  0
  183.5430  178.9190  143.6510 C   0  0  0  0  0  1  0  0  0  0  0  0
  184.7780  178.0380  143.7340 C   0  0  2  0  0  3  0  0  0  0  0  0
  185.7470  179.1080  147.2580 C   0  0  0  0  0  3  0  0  0  0  0  0
  185.8820  176.8400  145.6270 C   0  0  0  0  0  3  0  0  0  0  0  0
  185.3200  178.0210  145.1290 C   0  0  0  0  0  0  0  0  0  0  0  0
  185.2510  179.1570  145.9520 C   0  0  0  0  0  3  0  0  0  0  0  0
  186.3110  177.9270  147.7480 C   0  0  0  0  0  3  0  0  0  0  0  0
  186.3780  176.7930  146.9330 C   0  0  0  0  0  3  0  0  0  0  0  0
  189.6490  172.1170  144.9540 C   0  0  0  0  0  1  0  0  0  0  0  0
  190.1490  173.4480  144.4100 C   0  0  1  0  0  3  0  0  0  0  0  0
  191.6440  173.4230  144.0590 C   0  0  1  0  0  3  0  0  0  0  0  0
  192.4730  174.1810  145.0570 C   0  0  0  0  0  0  0  0  0  0  0  0
  194.4320  175.7980  146.3910 C   0  0  1  0  0  3  0  0  0  0  0  0
  193.7610  173.6350  145.5930 C   0  0  0  0  0  2  0  0  0  0  0  0
  192.1390  175.4330  145.3790 C   0  0  0  0  0  3  0  0  0  0  0  0
  192.9970  176.2510  146.3150 C   0  0  2  0  0  3  0  0  0  0  0  0
  194.7810  174.6770  145.5050 N   0  0  0  0  0  2  0  0  0  0  0  0
  194.0270  176.8900  145.5980 O   0  0  0  0  0  0  0  0  0  0  0  0
  192.1880  172.0160  143.8170 C   0  0  0  0  0  2  0  0  0  0  0  0
  192.7220  171.8960  142.3990 C   0  0  0  0  0  2  0  0  0  0  0  0
  191.6670  171.5240  141.4940 N   0  0  0  0  0  0  0  0  0  0  0  0
  191.3690  172.2740  140.4960 C   0  0  0  0  0  3  0  0  0  0  0  0
  190.2580  171.9000  139.5610 C   0  0  1  0  0  3  0  0  0  0  0  0
  190.1050  170.5260  139.5410 F   0  0  0  0  0  0  0  0  0  0  0  0
  188.9460  172.5560  139.9740 C   0  0  0  0  0  2  0  0  0  0  0  0
  188.1950  174.1910  138.2420 C   0  0  0  0  0  1  0  0  0  0  0  0
  188.9080  174.0230  139.5720 C   0  0  0  0  0  2  0  0  0  0  0  0
  1 21  1  0  0  0  0
  2  1  1  6  0  0  0
  3  5  1  0  0  0  0
  3  2  1  0  0  0  0
  4  2  1  0  0  0  0
  6  5  1  0  0  0  0
  7  8  1  1  0  0  0
  7  6  1  0  0  0  0
  7  4  1  0  0  0  0
  8  9  1  6  0  0  0
  8 11  1  0  0  0  0
 10  9  1  0  0  0  0
 11 13  1  0  0  0  0
 13 12  1  1  0  0  0
 13 16  1  0  0  0  0
 14 18  1  0  0  0  0
 15 19  1  0  0  0  0
 16 15  2  0  0  0  0
 16 17  1  0  0  0  0
 17 14  2  0  0  0  0
 19 18  2  0  0  0  0
 21 20  1  6  0  0  0
 22 30  1  1  0  0  0
 22 21  1  0  0  0  0
 22 23  1  0  0  0  0
 23 26  2  0  0  0  0
 23 25  1  0  0  0  0
 24 28  1  6  0  0  0
 27 26  1  6  0  0  0
 27 24  1  0  0  0  0
 28 25  1  0  0  0  0
 29 27  1  0  0  0  0
 29 24  1  0  0  0  0
 31 30  1  0  0  0  0
 32 31  1  0  0  0  0
 33 32  2  0  0  0  0
 34 35  1  1  0  0  0
 34 36  1  0  0  0  0
 34 33  1  0  0  0  0
 37 38  1  0  0  0  0
 38 36  1  0  0  0  0
M  END
>  <MODEL>
4

>  <REMARK>
 VINA RESULT:      -6.3      3.074      6.929
  Name = 
  15 active torsions:
  status: ('A' for Active; 'I' for Inactive)
    1  A    between atoms: N_2  and  C_14
    2  A    between atoms: C_3  and  C_4
    3  A    between atoms: C_3  and  C_25
    4  A    between atoms: C_3  and  C_36
    5  A    between atoms: C_6  and  C_18
    6  A    between atoms: C_8  and  C_9
    7  A    between atoms: C_8  and  C_26
    8  A    between atoms: C_13  and  C_37
    9  A    between atoms: C_13  and  C_38
   10  A    between atoms: C_14  and  C_25
   11  A    between atoms: C_17  and  C_38
   12  A    between atoms: C_18  and  C_36
   13  A    between atoms: C_19  and  C_37
   14  A    between atoms: C_26  and  C_30
   15  A    between atoms: C_34  and  C_37
                            x       y       z     vdW  Elec       q    Type
                         _______ _______ _______ _____ _____    ______ ____

>  <TORSDO>
F 15

$$$$
=
 OpenBabel11062421053D

 38 41  0  0  1  0  0  0  0  0999 V2000
  189.2130  172.3770  142.2150 C   0  0  0  0  0  2  0  0  0  0  0  0
  190.0730  171.1520  142.4740 C   0  0  1  0  0  3  0  0  0  0  0  0
  190.4900  170.5800  141.2600 O   0  0  0  0  0  0  0  0  0  0  0  0
  191.2810  171.5440  143.3330 C   0  0  0  0  0  2  0  0  0  0  0  0
  190.9830  169.3000  141.5820 C   0  0  0  0  0  2  0  0  0  0  0  0
  192.2440  169.3730  142.4610 C   0  0  0  0  0  2  0  0  0  0  0  0
  192.5590  170.8160  142.8910 C   0  0  2  0  0  3  0  0  0  0  0  0
  193.6430  170.8610  143.9780 C   0  0  2  0  0  3  0  0  0  0  0  0
  193.6360  169.5920  144.8190 C   0  0  0  0  0  2  0  0  0  0  0  0
  194.5910  169.6820  145.8320 O   0  0  0  0  0  1  0  0  0  0  0  0
  193.4240  172.0420  144.9120 C   0  0  0  0  0  2  0  0  0  0  0  0
  195.6090  173.0650  145.5870 C   0  0  0  0  0  1  0  0  0  0  0  0
  194.4360  173.1430  144.6240 C   0  0  2  0  0  3  0  0  0  0  0  0
  193.0820  176.4560  145.9250 C   0  0  0  0  0  3  0  0  0  0  0  0
  193.3380  175.0840  143.5010 C   0  0  0  0  0  3  0  0  0  0  0  0
  193.7950  174.4940  144.6850 C   0  0  0  0  0  0  0  0  0  0  0  0
  193.6680  175.1860  145.9000 C   0  0  0  0  0  3  0  0  0  0  0  0
  192.6240  177.0380  144.7400 C   0  0  0  0  0  3  0  0  0  0  0  0
  192.7520  176.3530  143.5280 C   0  0  0  0  0  3  0  0  0  0  0  0
  190.7950  174.0420  141.2610 C   0  0  0  0  0  1  0  0  0  0  0  0
  189.9920  173.6540  142.4950 C   0  0  1  0  0  3  0  0  0  0  0  0
  189.0640  174.7790  142.9770 C   0  0  1  0  0  3  0  0  0  0  0  0
  189.3560  175.1860  144.3940 C   0  0  0  0  0  0  0  0  0  0  0  0
  189.2390  175.7870  147.1970 C   0  0  1  0  0  3  0  0  0  0  0  0
  188.9580  176.5270  144.9300 C   0  0  0  0  0  2  0  0  0  0  0  0
  189.8580  174.2920  145.2490 C   0  0  0  0  0  3  0  0  0  0  0  0
  190.0860  174.6440  146.6990 C   0  0  2  0  0  3  0  0  0  0  0  0
  188.2910  176.3350  146.2160 N   0  0  0  0  0  2  0  0  0  0  0  0
  188.9060  174.4400  147.4410 O   0  0  0  0  0  0  0  0  0  0  0  0
  189.0260  175.9820  142.0360 C   0  0  0  0  0  2  0  0  0  0  0  0
  187.7120  176.0090  141.2700 C   0  0  0  0  0  2  0  0  0  0  0  0
  186.6730  176.5910  142.0780 N   0  0  0  0  0  0  0  0  0  0  0  0
  186.4940  177.8630  142.0930 C   0  0  0  0  0  3  0  0  0  0  0  0
  185.4250  178.4760  142.9460 C   0  0  1  0  0  3  0  0  0  0  0  0
  184.2960  177.6790  142.9280 F   0  0  0  0  0  0  0  0  0  0  0  0
  185.9020  178.6560  144.3830 C   0  0  0  0  0  2  0  0  0  0  0  0
  184.0550  178.6700  146.0640 C   0  0  0  0  0  1  0  0  0  0  0  0
  185.0840  177.8120  145.3490 C   0  0  0  0  0  2  0  0  0  0  0  0
  1 21  1  0  0  0  0
  2  1  1  6  0  0  0
  2  4  1  0  0  0  0
  3  5  1  0  0  0  0
  3  2  1  0  0  0  0
  5  6  1  0  0  0  0
  6  7  1  0  0  0  0
  7  4  1  0  0  0  0
  7  8  1  1  0  0  0
  8  9  1  1  0  0  0
  8 11  1  0  0  0  0
  9 10  1  0  0  0  0
 13 16  1  0  0  0  0
 13 11  1  0  0  0  0
 13 12  1  1  0  0  0
 15 19  2  0  0  0  0
 15 16  1  0  0  0  0
 16 17  2  0  0  0  0
 17 14  1  0  0  0  0
 18 14  2  0  0  0  0
 19 18  1  0  0  0  0
 21 20  1  6  0  0  0
 21 22  1  0  0  0  0
 22 30  1  6  0  0  0
 22 23  1  0  0  0  0
 23 25  1  0  0  0  0
 23 26  2  0  0  0  0
 24 28  1  6  0  0  0
 24 29  1  0  0  0  0
 25 28  1  0  0  0  0
 27 26  1  6  0  0  0
 27 24  1  0  0  0  0
 27 29  1  0  0  0  0
 31 30  1  0  0  0  0
 31 32  1  0  0  0  0
 32 33  2  0  0  0  0
 33 34  1  0  0  0  0
 34 35  1  1  0  0  0
 34 36  1  0  0  0  0
 36 38  1  0  0  0  0
 38 37  1  0  0  0  0
M  END
>  <MODEL>
5

>  <REMARK>
 VINA RESULT:      -6.3      2.678      5.670
  Name = 
  15 active torsions:
  status: ('A' for Active; 'I' for Inactive)
    1  A    between atoms: N_2  and  C_14
    2  A    between atoms: C_3  and  C_4
    3  A    between atoms: C_3  and  C_25
    4  A    between atoms: C_3  and  C_36
    5  A    between atoms: C_6  and  C_18
    6  A    between atoms: C_8  and  C_9
    7  A    between atoms: C_8  and  C_26
    8  A    between atoms: C_13  and  C_37
    9  A    between atoms: C_13  and  C_38
   10  A    between atoms: C_14  and  C_25
   11  A    between atoms: C_17  and  C_38
   12  A    between atoms: C_18  and  C_36
   13  A    between atoms: C_19  and  C_37
   14  A    between atoms: C_26  and  C_30
   15  A    between atoms: C_34  and  C_37
                            x       y       z     vdW  Elec       q    Type
                         _______ _______ _______ _____ _____    ______ ____

>  <TORSDO>
F 15

$$$$
=
 OpenBabel11062421053D

 38 41  0  0  1  0  0  0  0  0999 V2000
  192.6400  175.4830  142.5140 C   0  0  0  0  0  2  0  0  0  0  0  0
  191.5840  176.3670  143.1550 C   0  0  1  0  0  3  0  0  0  0  0  0
  191.8540  177.7210  142.8930 O   0  0  0  0  0  0  0  0  0  0  0  0
  190.1980  175.9770  142.6300 C   0  0  0  0  0  2  0  0  0  0  0  0
  191.0430  178.4580  143.7800 C   0  0  0  0  0  2  0  0  0  0  0  0
  189.5450  178.2670  143.4830 C   0  0  0  0  0  2  0  0  0  0  0  0
  189.3080  177.2060  142.3950 C   0  0  2  0  0  3  0  0  0  0  0  0
  187.8250  176.8210  142.2920 C   0  0  2  0  0  3  0  0  0  0  0  0
  187.4550  176.4190  140.8710 C   0  0  0  0  0  2  0  0  0  0  0  0
  187.0000  177.5310  140.1610 O   0  0  0  0  0  1  0  0  0  0  0  0
  186.9330  177.9850  142.6970 C   0  0  0  0  0  2  0  0  0  0  0  0
  184.4310  178.0870  142.7930 C   0  0  0  0  0  1  0  0  0  0  0  0
  185.6830  177.4780  143.4020 C   0  0  2  0  0  3  0  0  0  0  0  0
  185.9570  177.0110  147.1720 C   0  0  0  0  0  3  0  0  0  0  0  0
  185.6770  179.0830  145.3150 C   0  0  0  0  0  3  0  0  0  0  0  0
  185.7420  177.7570  144.8710 C   0  0  0  0  0  0  0  0  0  0  0  0
  185.8850  176.7190  145.8060 C   0  0  0  0  0  3  0  0  0  0  0  0
  185.8880  178.3360  147.6080 C   0  0  0  0  0  3  0  0  0  0  0  0
  185.7490  179.3720  146.6810 C   0  0  0  0  0  3  0  0  0  0  0  0
  193.4480  175.7640  144.8490 C   0  0  0  0  0  1  0  0  0  0  0  0
  193.6370  174.9890  143.5520 C   0  0  1  0  0  3  0  0  0  0  0  0
  193.5320  173.4690  143.7480 C   0  0  1  0  0  3  0  0  0  0  0  0
  194.8810  172.8200  143.8780 C   0  0  0  0  0  0  0  0  0  0  0  0
  197.5080  171.9990  144.6890 C   0  0  1  0  0  3  0  0  0  0  0  0
  196.1330  173.4960  143.4100 C   0  0  0  0  0  2  0  0  0  0  0  0
  195.0000  171.6720  144.5500 C   0  0  0  0  0  3  0  0  0  0  0  0
  196.3520  171.0360  144.7690 C   0  0  2  0  0  3  0  0  0  0  0  0
  197.1350  173.4050  144.4690 N   0  0  0  0  0  2  0  0  0  0  0  0
  196.9630  171.5760  145.9180 O   0  0  0  0  0  0  0  0  0  0  0  0
  192.5930  173.0650  144.8840 C   0  0  0  0  0  2  0  0  0  0  0  0
  191.2830  172.5370  144.3210 C   0  0  0  0  0  2  0  0  0  0  0  0
  190.1730  173.2870  144.8440 N   0  0  0  0  0  0  0  0  0  0  0  0
  190.3340  174.0810  145.8410 C   0  0  0  0  0  3  0  0  0  0  0  0
  189.1770  174.8510  146.4010 C   0  0  1  0  0  3  0  0  0  0  0  0
  188.8460  174.3580  147.6500 F   0  0  0  0  0  0  0  0  0  0  0  0
  189.5020  176.3360  146.5070 C   0  0  0  0  0  2  0  0  0  0  0  0
  190.6560  177.7880  148.1800 C   0  0  0  0  0  1  0  0  0  0  0  0
  190.7890  176.5690  147.2860 C   0  0  0  0  0  2  0  0  0  0  0  0
  1 21  1  0  0  0  0
  2  1  1  6  0  0  0
  3  2  1  0  0  0  0
  3  5  1  0  0  0  0
  4  2  1  0  0  0  0
  6  5  1  0  0  0  0
  7  8  1  1  0  0  0
  7  4  1  0  0  0  0
  7  6  1  0  0  0  0
  8  9  1  6  0  0  0
  8 11  1  0  0  0  0
 10  9  1  0  0  0  0
 11 13  1  0  0  0  0
 13 12  1  6  0  0  0
 13 16  1  0  0  0  0
 14 18  1  0  0  0  0
 15 19  1  0  0  0  0
 16 15  2  0  0  0  0
 16 17  1  0  0  0  0
 17 14  2  0  0  0  0
 19 18  2  0  0  0  0
 21 22  1  0  0  0  0
 21 20  1  1  0  0  0
 22 23  1  0  0  0  0
 22 30  1  1  0  0  0
 23 26  2  0  0  0  0
 24 28  1  6  0  0  0
 24 27  1  0  0  0  0
 24 29  1  0  0  0  0
 25 23  1  0  0  0  0
 25 28  1  0  0  0  0
 27 26  1  6  0  0  0
 27 29  1  0  0  0  0
 31 32  1  0  0  0  0
 31 30  1  0  0  0  0
 32 33  2  0  0  0  0
 33 34  1  0  0  0  0
 34 36  1  0  0  0  0
 34 35  1  1  0  0  0
 36 38  1  0  0  0  0
 38 37  1  0  0  0  0
M  END
>  <MODEL>
6

>  <REMARK>
 VINA RESULT:      -6.2      2.818      7.597
  Name = 
  15 active torsions:
  status: ('A' for Active; 'I' for Inactive)
    1  A    between atoms: N_2  and  C_14
    2  A    between atoms: C_3  and  C_4
    3  A    between atoms: C_3  and  C_25
    4  A    between atoms: C_3  and  C_36
    5  A    between atoms: C_6  and  C_18
    6  A    between atoms: C_8  and  C_9
    7  A    between atoms: C_8  and  C_26
    8  A    between atoms: C_13  and  C_37
    9  A    between atoms: C_13  and  C_38
   10  A    between atoms: C_14  and  C_25
   11  A    between atoms: C_17  and  C_38
   12  A    between atoms: C_18  and  C_36
   13  A    between atoms: C_19  and  C_37
   14  A    between atoms: C_26  and  C_30
   15  A    between atoms: C_34  and  C_37
                            x       y       z     vdW  Elec       q    Type
                         _______ _______ _______ _____ _____    ______ ____

>  <TORSDO>
F 15

$$$$
=
 OpenBabel11062421053D

 38 41  0  0  1  0  0  0  0  0999 V2000
  189.1560  175.0050  141.9590 C   0  0  0  0  0  2  0  0  0  0  0  0
  188.3780  176.3080  142.0200 C   0  0  1  0  0  3  0  0  0  0  0  0
  187.4870  176.3990  140.9360 O   0  0  0  0  0  0  0  0  0  0  0  0
  187.6230  176.3950  143.3520 C   0  0  0  0  0  2  0  0  0  0  0  0
  187.0680  177.7440  140.8900 C   0  0  0  0  0  2  0  0  0  0  0  0
  186.2490  178.1340  142.1330 C   0  0  0  0  0  2  0  0  0  0  0  0
  186.2250  177.0080  143.1800 C   0  0  2  0  0  3  0  0  0  0  0  0
  185.6490  177.4900  144.5190 C   0  0  2  0  0  3  0  0  0  0  0  0
  184.5770  178.5500  144.3110 C   0  0  0  0  0  2  0  0  0  0  0  0
  183.9110  178.8020  145.5110 O   0  0  0  0  0  1  0  0  0  0  0  0
  186.7400  178.0930  145.3930 C   0  0  0  0  0  2  0  0  0  0  0  0
  186.5370  178.3120  147.8800 C   0  0  0  0  0  1  0  0  0  0  0  0
  186.8170  177.3630  146.7270 C   0  0  2  0  0  3  0  0  0  0  0  0
  190.5700  176.7920  147.0220 C   0  0  0  0  0  3  0  0  0  0  0  0
  188.1930  175.3260  147.1620 C   0  0  0  0  0  3  0  0  0  0  0  0
  188.1470  176.7000  146.9020 C   0  0  0  0  0  0  0  0  0  0  0  0
  189.3420  177.4340  146.8350 C   0  0  0  0  0  3  0  0  0  0  0  0
  190.6100  175.4190  147.2770 C   0  0  0  0  0  3  0  0  0  0  0  0
  189.4220  174.6860  147.3480 C   0  0  0  0  0  3  0  0  0  0  0  0
  189.4340  173.6550  144.0280 C   0  0  0  0  0  1  0  0  0  0  0  0
  189.9920  174.8150  143.2160 C   0  0  1  0  0  3  0  0  0  0  0  0
  191.4800  174.6390  142.8750 C   0  0  1  0  0  3  0  0  0  0  0  0
  191.7120  173.5110  141.9110 C   0  0  0  0  0  0  0  0  0  0  0  0
  191.4580  171.3940  139.9910 C   0  0  1  0  0  3  0  0  0  0  0  0
  191.4710  172.0820  142.2920 C   0  0  0  0  0  2  0  0  0  0  0  0
  192.0090  173.7800  140.6370 C   0  0  0  0  0  3  0  0  0  0  0  0
  192.1670  172.6720  139.6240 C   0  0  2  0  0  3  0  0  0  0  0  0
  190.6820  171.4470  141.2390 N   0  0  0  0  0  2  0  0  0  0  0  0
  190.9140  172.3240  139.0830 O   0  0  0  0  0  0  0  0  0  0  0  0
  192.1540  175.9310  142.4150 C   0  0  0  0  0  2  0  0  0  0  0  0
  191.9200  177.0380  143.4310 C   0  0  0  0  0  2  0  0  0  0  0  0
  192.7070  176.8100  144.6130 N   0  0  0  0  0  0  0  0  0  0  0  0
  193.9610  176.5460  144.5200 C   0  0  0  0  0  3  0  0  0  0  0  0
  194.7830  176.2890  145.7470 C   0  0  1  0  0  3  0  0  0  0  0  0
  194.0220  176.5220  146.8780 F   0  0  0  0  0  0  0  0  0  0  0  0
  195.3080  174.8580  145.7690 C   0  0  0  0  0  2  0  0  0  0  0  0
  193.6680  173.0130  145.3950 C   0  0  0  0  0  1  0  0  0  0  0  0
  194.6130  173.9950  144.7260 C   0  0  0  0  0  2  0  0  0  0  0  0
  1 21  1  0  0  0  0
  2  1  1  1  0  0  0
  2  4  1  0  0  0  0
  3  2  1  0  0  0  0
  5  3  1  0  0  0  0
  5  6  1  0  0  0  0
  6  7  1  0  0  0  0
  7  4  1  0  0  0  0
  7  8  1  1  0  0  0
  8  9  1  6  0  0  0
  8 11  1  0  0  0  0
  9 10  1  0  0  0  0
 11 13  1  0  0  0  0
 13 16  1  0  0  0  0
 13 12  1  1  0  0  0
 14 18  1  0  0  0  0
 15 19  1  0  0  0  0
 16 15  2  0  0  0  0
 17 16  1  0  0  0  0
 17 14  2  0  0  0  0
 18 19  2  0  0  0  0
 21 20  1  6  0  0  0
 22 30  1  6  0  0  0
 22 21  1  0  0  0  0
 23 25  1  0  0  0  0
 23 22  1  0  0  0  0
 24 29  1  6  0  0  0
 24 28  1  0  0  0  0
 26 23  2  0  0  0  0
 27 24  1  0  0  0  0
 27 26  1  1  0  0  0
 28 25  1  0  0  0  0
 29 27  1  0  0  0  0
 30 31  1  0  0  0  0
 31 32  1  0  0  0  0
 33 32  2  0  0  0  0
 33 34  1  0  0  0  0
 34 36  1  0  0  0  0
 34 35  1  1  0  0  0
 38 37  1  0  0  0  0
 38 36  1  0  0  0  0
M  END
>  <MODEL>
7

>  <REMARK>
 VINA RESULT:      -6.2      1.948      6.078
  Name = 
  15 active torsions:
  status: ('A' for Active; 'I' for Inactive)
    1  A    between atoms: N_2  and  C_14
    2  A    between atoms: C_3  and  C_4
    3  A    between atoms: C_3  and  C_25
    4  A    between atoms: C_3  and  C_36
    5  A    between atoms: C_6  and  C_18
    6  A    between atoms: C_8  and  C_9
    7  A    between atoms: C_8  and  C_26
    8  A    between atoms: C_13  and  C_37
    9  A    between atoms: C_13  and  C_38
   10  A    between atoms: C_14  and  C_25
   11  A    between atoms: C_17  and  C_38
   12  A    between atoms: C_18  and  C_36
   13  A    between atoms: C_19  and  C_37
   14  A    between atoms: C_26  and  C_30
   15  A    between atoms: C_34  and  C_37
                            x       y       z     vdW  Elec       q    Type
                         _______ _______ _______ _____ _____    ______ ____

>  <TORSDO>
F 15

$$$$
=
 OpenBabel11062421053D

 38 41  0  0  1  0  0  0  0  0999 V2000
  193.3280  175.6610  146.7630 C   0  0  0  0  0  2  0  0  0  0  0  0
  191.8860  175.2570  146.5080 C   0  0  1  0  0  3  0  0  0  0  0  0
  191.0770  175.6110  147.6020 O   0  0  0  0  0  0  0  0  0  0  0  0
  191.3850  175.9260  145.2230 C   0  0  0  0  0  2  0  0  0  0  0  0
  189.8630  174.9170  147.4270 C   0  0  0  0  0  2  0  0  0  0  0  0
  189.1020  175.3950  146.1780 C   0  0  0  0  0  2  0  0  0  0  0  0
  189.9280  176.3970  145.3530 C   0  0  2  0  0  3  0  0  0  0  0  0
  189.2940  176.6620  143.9800 C   0  0  2  0  0  3  0  0  0  0  0  0
  190.3560  176.8890  142.9140 C   0  0  0  0  0  2  0  0  0  0  0  0
  190.5570  178.2550  142.7180 O   0  0  0  0  0  1  0  0  0  0  0  0
  188.4040  177.8960  144.0240 C   0  0  0  0  0  2  0  0  0  0  0  0
  186.6820  178.3690  142.2670 C   0  0  0  0  0  1  0  0  0  0  0  0
  187.0090  177.5630  143.5130 C   0  0  2  0  0  3  0  0  0  0  0  0
  185.0170  177.3030  146.7490 C   0  0  0  0  0  3  0  0  0  0  0  0
  185.0100  178.7860  144.3780 C   0  0  0  0  0  3  0  0  0  0  0  0
  185.9780  177.7940  144.5740 C   0  0  0  0  0  0  0  0  0  0  0  0
  185.9810  177.0530  145.7660 C   0  0  0  0  0  3  0  0  0  0  0  0
  184.0510  178.2910  146.5450 C   0  0  0  0  0  3  0  0  0  0  0  0
  184.0480  179.0330  145.3610 C   0  0  0  0  0  3  0  0  0  0  0  0
  194.6920  177.5440  145.8820 C   0  0  0  0  0  1  0  0  0  0  0  0
  193.9500  176.2670  145.5140 C   0  0  1  0  0  3  0  0  0  0  0  0
  194.8410  175.2510  144.7840 C   0  0  1  0  0  3  0  0  0  0  0  0
  195.3710  175.7910  143.4860 C   0  0  0  0  0  0  0  0  0  0  0  0
  196.5290  176.1450  140.8850 C   0  0  1  0  0  3  0  0  0  0  0  0
  196.8350  176.0220  143.2640 C   0  0  0  0  0  2  0  0  0  0  0  0
  194.5460  175.9440  142.4480 C   0  0  0  0  0  3  0  0  0  0  0  0
  195.0620  176.4050  141.1060 C   0  0  2  0  0  3  0  0  0  0  0  0
  197.2080  175.4350  141.9800 N   0  0  0  0  0  2  0  0  0  0  0  0
  195.5270  175.3060  140.3580 O   0  0  0  0  0  0  0  0  0  0  0  0
  195.9540  174.6790  145.6610 C   0  0  0  0  0  2  0  0  0  0  0  0
  196.0170  173.1670  145.5120 C   0  0  0  0  0  2  0  0  0  0  0  0
  194.7210  172.6430  145.1710 N   0  0  0  0  0  0  0  0  0  0  0  0
  194.6150  171.5830  144.4530 C   0  0  0  0  0  3  0  0  0  0  0  0
  193.2680  171.0420  144.0800 C   0  0  1  0  0  3  0  0  0  0  0  0
  192.9950  169.9090  144.8230 F   0  0  0  0  0  0  0  0  0  0  0  0
  192.1750  172.0790  144.3080 C   0  0  0  0  0  2  0  0  0  0  0  0
  189.9660  172.9460  143.5290 C   0  0  0  0  0  1  0  0  0  0  0  0
  191.1560  172.0700  143.1780 C   0  0  0  0  0  2  0  0  0  0  0  0
  2  1  1  1  0  0  0
  2  3  1  0  0  0  0
  4  7  1  0  0  0  0
  4  2  1  0  0  0  0
  5  3  1  0  0  0  0
  6  5  1  0  0  0  0
  7  8  1  6  0  0  0
  7  6  1  0  0  0  0
  8  9  1  6  0  0  0
  8 11  1  0  0  0  0
 10  9  1  0  0  0  0
 13 12  1  6  0  0  0
 13 11  1  0  0  0  0
 13 16  1  0  0  0  0
 15 16  2  0  0  0  0
 15 19  1  0  0  0  0
 16 17  1  0  0  0  0
 17 14  2  0  0  0  0
 18 14  1  0  0  0  0
 19 18  2  0  0  0  0
 21 20  1  1  0  0  0
 21  1  1  0  0  0  0
 22 21  1  0  0  0  0
 22 30  1  1  0  0  0
 23 22  1  0  0  0  0
 24 29  1  6  0  0  0
 24 27  1  0  0  0  0
 24 28  1  0  0  0  0
 25 23  1  0  0  0  0
 26 23  2  0  0  0  0
 27 26  1  1  0  0  0
 28 25  1  0  0  0  0
 29 27  1  0  0  0  0
 31 30  1  0  0  0  0
 32 31  1  0  0  0  0
 33 32  2  0  0  0  0
 34 36  1  0  0  0  0
 34 33  1  0  0  0  0
 34 35  1  1  0  0  0
 38 37  1  0  0  0  0
 38 36  1  0  0  0  0
M  END
>  <MODEL>
8

>  <REMARK>
 VINA RESULT:      -6.2      3.176      7.712
  Name = 
  15 active torsions:
  status: ('A' for Active; 'I' for Inactive)
    1  A    between atoms: N_2  and  C_14
    2  A    between atoms: C_3  and  C_4
    3  A    between atoms: C_3  and  C_25
    4  A    between atoms: C_3  and  C_36
    5  A    between atoms: C_6  and  C_18
    6  A    between atoms: C_8  and  C_9
    7  A    between atoms: C_8  and  C_26
    8  A    between atoms: C_13  and  C_37
    9  A    between atoms: C_13  and  C_38
   10  A    between atoms: C_14  and  C_25
   11  A    between atoms: C_17  and  C_38
   12  A    between atoms: C_18  and  C_36
   13  A    between atoms: C_19  and  C_37
   14  A    between atoms: C_26  and  C_30
   15  A    between atoms: C_34  and  C_37
                            x       y       z     vdW  Elec       q    Type
                         _______ _______ _______ _____ _____    ______ ____

>  <TORSDO>
F 15

$$$$
=
 OpenBabel11062421053D

 38 41  0  0  1  0  0  0  0  0999 V2000
  191.0800  176.6540  145.1510 C   0  0  0  0  0  2  0  0  0  0  0  0
  189.7000  176.2770  145.6620 C   0  0  1  0  0  3  0  0  0  0  0  0
  189.7860  175.7410  146.9590 O   0  0  0  0  0  0  0  0  0  0  0  0
  188.7890  177.5100  145.6430 C   0  0  0  0  0  2  0  0  0  0  0  0
  188.5430  175.1270  147.2090 C   0  0  0  0  0  2  0  0  0  0  0  0
  187.3950  176.1510  147.2590 C   0  0  0  0  0  2  0  0  0  0  0  0
  187.8690  177.5610  146.8720 C   0  0  2  0  0  3  0  0  0  0  0  0
  186.6880  178.5190  146.6560 C   0  0  2  0  0  3  0  0  0  0  0  0
  186.0710  178.9440  147.9810 C   0  0  0  0  0  2  0  0  0  0  0  0
  187.0620  179.4060  148.8470 O   0  0  0  0  0  1  0  0  0  0  0  0
  185.5990  177.8560  145.8240 C   0  0  0  0  0  2  0  0  0  0  0  0
  184.0550  178.5990  143.9960 C   0  0  0  0  0  1  0  0  0  0  0  0
  185.5010  178.5150  144.4550 C   0  0  2  0  0  3  0  0  0  0  0  0
  187.0800  175.7300  142.3930 C   0  0  0  0  0  3  0  0  0  0  0  0
  187.1250  178.5220  142.5580 C   0  0  0  0  0  3  0  0  0  0  0  0
  186.3320  177.7860  143.4460 C   0  0  0  0  0  0  0  0  0  0  0  0
  186.3090  176.3850  143.3580 C   0  0  0  0  0  3  0  0  0  0  0  0
  187.8740  176.4710  141.5120 C   0  0  0  0  0  3  0  0  0  0  0  0
  187.8960  177.8650  141.5940 C   0  0  0  0  0  3  0  0  0  0  0  0
  191.6380  177.7010  142.9660 C   0  0  0  0  0  1  0  0  0  0  0  0
  191.1850  176.4200  143.6510 C   0  0  1  0  0  3  0  0  0  0  0  0
  192.0950  175.2240  143.3360 C   0  0  1  0  0  3  0  0  0  0  0  0
  191.3170  173.9530  143.1480 C   0  0  0  0  0  0  0  0  0  0  0  0
  189.3300  171.8830  143.1290 C   0  0  1  0  0  3  0  0  0  0  0  0
  191.1740  172.9420  144.2440 C   0  0  0  0  0  2  0  0  0  0  0  0
  190.6150  173.7670  142.0270 C   0  0  0  0  0  3  0  0  0  0  0  0
  189.7560  172.5390  141.8410 C   0  0  2  0  0  3  0  0  0  0  0  0
  189.7650  172.5710  144.3540 N   0  0  0  0  0  2  0  0  0  0  0  0
  188.4820  172.7450  142.4060 O   0  0  0  0  0  0  0  0  0  0  0  0
  193.0570  175.4800  142.1760 C   0  0  0  0  0  2  0  0  0  0  0  0
  194.3070  174.6290  142.3310 C   0  0  0  0  0  2  0  0  0  0  0  0
  194.9740  174.9380  143.5680 N   0  0  0  0  0  0  0  0  0  0  0  0
  195.8050  174.1060  144.0860 C   0  0  0  0  0  3  0  0  0  0  0  0
  196.4890  174.4150  145.3840 C   0  0  1  0  0  3  0  0  0  0  0  0
  195.6840  175.2300  146.1560 F   0  0  0  0  0  0  0  0  0  0  0  0
  196.8140  173.1390  146.1530 C   0  0  0  0  0  2  0  0  0  0  0  0
  196.6960  170.6460  146.0820 C   0  0  0  0  0  1  0  0  0  0  0  0
  196.7490  171.9150  145.2510 C   0  0  0  0  0  2  0  0  0  0  0  0
  2  1  1  1  0  0  0
  2  3  1  0  0  0  0
  3  5  1  0  0  0  0
  4  2  1  0  0  0  0
  4  7  1  0  0  0  0
  5  6  1  0  0  0  0
  7  8  1  6  0  0  0
  7  6  1  0  0  0  0
  8 11  1  6  0  0  0
  8  9  1  0  0  0  0
  9 10  1  0  0  0  0
 13 12  1  6  0  0  0
 13 11  1  0  0  0  0
 14 17  1  0  0  0  0
 15 16  1  0  0  0  0
 16 13  1  0  0  0  0
 17 16  2  0  0  0  0
 18 19  1  0  0  0  0
 18 14  2  0  0  0  0
 19 15  2  0  0  0  0
 21 20  1  6  0  0  0
 21  1  1  0  0  0  0
 22 30  1  6  0  0  0
 22 21  1  0  0  0  0
 23 22  1  0  0  0  0
 23 25  1  0  0  0  0
 24 29  1  6  0  0  0
 24 28  1  0  0  0  0
 25 28  1  0  0  0  0
 26 23  2  0  0  0  0
 27 26  1  1  0  0  0
 27 29  1  0  0  0  0
 27 24  1  0  0  0  0
 30 31  1  0  0  0  0
 31 32  1  0  0  0  0
 32 33  2  0  0  0  0
 33 34  1  0  0  0  0
 34 36  1  0  0  0  0
 34 35  1  1  0  0  0
 38 37  1  0  0  0  0
 38 36  1  0  0  0  0
M  END
>  <MODEL>
9

>  <REMARK>
 VINA RESULT:      -6.2      2.094      6.678
  Name = 
  15 active torsions:
  status: ('A' for Active; 'I' for Inactive)
    1  A    between atoms: N_2  and  C_14
    2  A    between atoms: C_3  and  C_4
    3  A    between atoms: C_3  and  C_25
    4  A    between atoms: C_3  and  C_36
    5  A    between atoms: C_6  and  C_18
    6  A    between atoms: C_8  and  C_9
    7  A    between atoms: C_8  and  C_26
    8  A    between atoms: C_13  and  C_37
    9  A    between atoms: C_13  and  C_38
   10  A    between atoms: C_14  and  C_25
   11  A    between atoms: C_17  and  C_38
   12  A    between atoms: C_18  and  C_36
   13  A    between atoms: C_19  and  C_37
   14  A    between atoms: C_26  and  C_30
   15  A    between atoms: C_34  and  C_37
                            x       y       z     vdW  Elec       q    Type
                         _______ _______ _______ _____ _____    ______ ____

>  <TORSDO>
F 15

$$$$
