=
 OpenBabel11062423093D

 28 31  0  0  1  0  0  0  0  0999 V2000
  191.0200  174.1770  142.3370 C   0  0  2  0  0  3  0  0  0  0  0  0
  191.7790  173.0480  141.8140 C   0  0  0  0  0  2  0  0  0  0  0  0
  191.9240  173.4330  143.2250 N   0  0  0  0  0  0  0  0  0  0  0  0
  193.1430  174.2180  143.3200 C   0  0  0  0  0  2  0  0  0  0  0  0
  193.7130  173.4580  145.7000 C   0  0  0  0  0  2  0  0  0  0  0  0
  194.8270  174.3840  145.2280 C   0  0  0  0  0  2  0  0  0  0  0  0
  193.4040  174.6040  144.7660 C   0  0  0  0  0  0  0  0  0  0  0  0
  192.6040  176.0580  145.4570 S   0  0  0  0  0  0  0  0  0  0  0  0
  193.0970  176.2530  146.8640 O   0  0  0  0  0  0  0  0  0  0  0  0
  193.0110  177.2560  144.6430 O   0  0  0  0  0  0  0  0  0  0  0  0
  188.3020  176.4450  146.7210 C   0  0  0  0  0  2  0  0  0  0  0  0
  188.8060  177.2890  145.5540 C   0  0  0  0  0  2  0  0  0  0  0  0
  188.9390  175.0590  146.6810 C   0  0  0  0  0  2  0  0  0  0  0  0
  190.3310  177.3280  145.5730 C   0  0  0  0  0  2  0  0  0  0  0  0
  190.4580  175.1970  146.6490 C   0  0  0  0  0  2  0  0  0  0  0  0
  190.8680  175.9680  145.4740 N   0  0  0  0  0  0  0  0  0  0  0  0
  189.5920  173.7480  142.6150 C   0  0  0  0  0  2  0  0  0  0  0  0
  188.6780  174.9600  142.6500 C   0  0  0  0  0  2  0  0  0  0  0  0
  188.3300  175.3340  141.3490 O   0  0  0  0  0  0  0  0  0  0  0  0
  185.7170  177.2000  143.0810 C   0  0  1  0  0  3  0  0  0  0  0  0
  186.6110  178.6690  142.4780 S   0  0  0  0  0  0  0  0  0  0  0  0
  187.8120  177.6490  141.5690 C   0  0  0  0  0  2  0  0  0  0  0  0
  186.5720  175.9820  142.8150 C   0  0  0  0  0  2  0  0  0  0  0  0
  187.2770  176.2350  141.5060 C   0  0  2  0  0  3  0  0  0  0  0  0
  185.4620  177.3150  144.5100 N   0  0  0  0  0  2  0  0  0  0  0  0
  183.8180  178.9630  144.2900 O   0  0  0  0  0  0  0  0  0  0  0  0
  184.3190  178.3130  146.5200 C   0  0  0  0  0  1  0  0  0  0  0  0
  184.5060  178.2300  145.0490 C   0  0  0  0  0  0  0  0  0  0  0  0
  1 17  1  1  0  0  0
  1  3  1  0  0  0  0
  2  1  1  0  0  0  0
  2  3  1  0  0  0  0
  3  4  1  0  0  0  0
  4  7  1  0  0  0  0
  6  5  1  0  0  0  0
  7  6  1  0  0  0  0
  7  8  1  0  0  0  0
  7  5  1  0  0  0  0
  8 16  1  0  0  0  0
  8  9  2  0  0  0  0
 10  8  2  0  0  0  0
 12 14  1  0  0  0  0
 12 11  1  0  0  0  0
 13 11  1  0  0  0  0
 15 13  1  0  0  0  0
 16 14  1  0  0  0  0
 16 15  1  0  0  0  0
 17 18  1  0  0  0  0
 19 18  1  0  0  0  0
 20 25  1  1  0  0  0
 21 20  1  0  0  0  0
 22 21  1  0  0  0  0
 23 20  1  0  0  0  0
 24 19  1  1  0  0  0
 24 22  1  0  0  0  0
 24 23  1  0  0  0  0
 25 28  1  0  0  0  0
 26 28  2  0  0  0  0
 28 27  1  0  0  0  0
M  END
>  <MODEL>
1

>  <REMARK>
 VINA RESULT:      -6.1      0.000      0.000
  Name = 
  9 active torsions:
  status: ('A' for Active; 'I' for Inactive)
    1  A    between atoms: C_1  and  C_13
    2  A    between atoms: C_2  and  O_12
    3  A    between atoms: C_2  and  C_13
    4  A    between atoms: C_3  and  N_19
    5  A    between atoms: C_4  and  C_27
    6  A    between atoms: C_4  and  N_28
    7  A    between atoms: S_9  and  N_23
    8  A    between atoms: S_9  and  C_27
    9  A    between atoms: O_12  and  C_22
                            x       y       z     vdW  Elec       q    Type
                         _______ _______ _______ _____ _____    ______ ____

>  <TORSDO>
F 9

$$$$
=
 OpenBabel11062423093D

 28 31  0  0  1  0  0  0  0  0999 V2000
  188.9560  176.6820  145.8300 C   0  0  2  0  0  3  0  0  0  0  0  0
  189.0470  176.6890  147.2840 C   0  0  0  0  0  2  0  0  0  0  0  0
  187.7300  176.6140  146.6370 N   0  0  0  0  0  0  0  0  0  0  0  0
  187.1790  177.9590  146.6580 C   0  0  0  0  0  2  0  0  0  0  0  0
  184.8350  176.9250  146.5840 C   0  0  0  0  0  2  0  0  0  0  0  0
  184.6870  178.3870  146.9860 C   0  0  0  0  0  2  0  0  0  0  0  0
  185.7900  177.9630  146.0430 C   0  0  0  0  0  0  0  0  0  0  0  0
  185.5720  178.4990  144.3410 S   0  0  0  0  0  0  0  0  0  0  0  0
  184.1750  178.1550  143.9050 O   0  0  0  0  0  0  0  0  0  0  0  0
  185.7300  179.9940  144.2890 O   0  0  0  0  0  0  0  0  0  0  0  0
  187.3230  176.3410  140.8010 C   0  0  0  0  0  2  0  0  0  0  0  0
  187.5330  177.8470  140.9220 C   0  0  0  0  0  2  0  0  0  0  0  0
  187.3980  175.6860  142.1760 C   0  0  0  0  0  2  0  0  0  0  0  0
  186.5300  178.4230  141.9180 C   0  0  0  0  0  2  0  0  0  0  0  0
  186.4020  176.3590  143.1160 C   0  0  0  0  0  2  0  0  0  0  0  0
  186.7020  177.7870  143.2270 N   0  0  0  0  0  0  0  0  0  0  0  0
  189.2770  175.2960  145.3040 C   0  0  0  0  0  2  0  0  0  0  0  0
  190.7650  175.1720  145.0270 C   0  0  0  0  0  2  0  0  0  0  0  0
  191.3750  174.4110  146.0280 O   0  0  0  0  0  0  0  0  0  0  0  0
  194.5280  175.5210  144.5640 C   0  0  1  0  0  3  0  0  0  0  0  0
  194.3970  176.8910  145.7590 S   0  0  0  0  0  0  0  0  0  0  0  0
  192.8760  176.2050  146.4830 C   0  0  0  0  0  2  0  0  0  0  0  0
  193.2200  174.7630  144.5670 C   0  0  0  0  0  2  0  0  0  0  0  0
  192.7190  174.7830  145.9900 C   0  0  2  0  0  3  0  0  0  0  0  0
  194.7910  176.0370  143.2290 N   0  0  0  0  0  2  0  0  0  0  0  0
  197.1170  176.0350  143.4650 O   0  0  0  0  0  0  0  0  0  0  0  0
  196.3030  176.8400  141.3820 C   0  0  0  0  0  1  0  0  0  0  0  0
  196.1120  176.2850  142.7470 C   0  0  0  0  0  0  0  0  0  0  0  0
  1 17  1  1  0  0  0
  1  3  1  0  0  0  0
  1  2  1  0  0  0  0
  3  4  1  0  0  0  0
  3  2  1  0  0  0  0
  5  6  1  0  0  0  0
  7  5  1  0  0  0  0
  7  4  1  0  0  0  0
  7  6  1  0  0  0  0
  8  7  1  0  0  0  0
  9  8  2  0  0  0  0
 10  8  2  0  0  0  0
 11 12  1  0  0  0  0
 11 13  1  0  0  0  0
 12 14  1  0  0  0  0
 13 15  1  0  0  0  0
 14 16  1  0  0  0  0
 15 16  1  0  0  0  0
 16  8  1  0  0  0  0
 18 17  1  0  0  0  0
 18 19  1  0  0  0  0
 20 25  1  6  0  0  0
 20 23  1  0  0  0  0
 20 21  1  0  0  0  0
 21 22  1  0  0  0  0
 23 24  1  0  0  0  0
 24 19  1  6  0  0  0
 24 22  1  0  0  0  0
 27 28  1  0  0  0  0
 28 25  1  0  0  0  0
 28 26  2  0  0  0  0
M  END
>  <MODEL>
2

>  <REMARK>
 VINA RESULT:      -6.1      2.266      7.992
  Name = 
  9 active torsions:
  status: ('A' for Active; 'I' for Inactive)
    1  A    between atoms: C_1  and  C_13
    2  A    between atoms: C_2  and  O_12
    3  A    between atoms: C_2  and  C_13
    4  A    between atoms: C_3  and  N_19
    5  A    between atoms: C_4  and  C_27
    6  A    between atoms: C_4  and  N_28
    7  A    between atoms: S_9  and  N_23
    8  A    between atoms: S_9  and  C_27
    9  A    between atoms: O_12  and  C_22
                            x       y       z     vdW  Elec       q    Type
                         _______ _______ _______ _____ _____    ______ ____

>  <TORSDO>
F 9

$$$$
=
 OpenBabel11062423093D

 28 31  0  0  1  0  0  0  0  0999 V2000
  188.6130  176.5930  146.5090 C   0  0  2  0  0  3  0  0  0  0  0  0
  187.2000  176.6080  146.8650 C   0  0  0  0  0  2  0  0  0  0  0  0
  187.5940  176.5430  145.4520 N   0  0  0  0  0  0  0  0  0  0  0  0
  187.4840  177.8940  144.9260 C   0  0  0  0  0  2  0  0  0  0  0  0
  185.3260  177.6080  143.5730 C   0  0  0  0  0  2  0  0  0  0  0  0
  185.8560  179.0130  143.3140 C   0  0  0  0  0  2  0  0  0  0  0  0
  186.8130  177.8690  143.5630 C   0  0  0  0  0  0  0  0  0  0  0  0
  187.7480  177.3430  142.1210 S   0  0  0  0  0  0  0  0  0  0  0  0
  186.8540  177.4230  140.9150 O   0  0  0  0  0  0  0  0  0  0  0  0
  188.8950  178.2970  141.9240 O   0  0  0  0  0  0  0  0  0  0  0  0
  190.2910  173.6800  141.5110 C   0  0  0  0  0  2  0  0  0  0  0  0
  190.3640  174.4130  142.8470 C   0  0  0  0  0  2  0  0  0  0  0  0
  188.8580  173.6800  140.9870 C   0  0  0  0  0  2  0  0  0  0  0  0
  189.7800  175.8140  142.6930 C   0  0  0  0  0  2  0  0  0  0  0  0
  188.3420  175.1150  140.9160 C   0  0  0  0  0  2  0  0  0  0  0  0
  188.3880  175.7310  142.2440 N   0  0  0  0  0  0  0  0  0  0  0  0
  189.1770  175.2000  146.7150 C   0  0  0  0  0  2  0  0  0  0  0  0
  190.6810  175.2070  146.5040 C   0  0  0  0  0  2  0  0  0  0  0  0
  191.0790  176.4240  145.9440 O   0  0  0  0  0  0  0  0  0  0  0  0
  194.3990  174.9140  145.8200 C   0  0  1  0  0  3  0  0  0  0  0  0
  194.6320  175.9740  144.3550 S   0  0  0  0  0  0  0  0  0  0  0  0
  192.9930  176.7350  144.5590 C   0  0  0  0  0  2  0  0  0  0  0  0
  192.9410  174.9660  146.2140 C   0  0  0  0  0  2  0  0  0  0  0  0
  192.4730  176.3730  145.9330 C   0  0  2  0  0  3  0  0  0  0  0  0
  194.7730  173.5410  145.5150 N   0  0  0  0  0  2  0  0  0  0  0  0
  196.9480  173.7340  146.3530 O   0  0  0  0  0  0  0  0  0  0  0  0
  196.3940  171.6140  145.4320 C   0  0  0  0  0  1  0  0  0  0  0  0
  196.0730  173.0190  145.7960 C   0  0  0  0  0  0  0  0  0  0  0  0
  1 17  1  1  0  0  0
  1  2  1  0  0  0  0
  3  1  1  0  0  0  0
  3  2  1  0  0  0  0
  4  3  1  0  0  0  0
  6  7  1  0  0  0  0
  6  5  1  0  0  0  0
  7  5  1  0  0  0  0
  7  4  1  0  0  0  0
  8 16  1  0  0  0  0
  8  7  1  0  0  0  0
  9  8  2  0  0  0  0
 10  8  2  0  0  0  0
 11 12  1  0  0  0  0
 13 11  1  0  0  0  0
 14 12  1  0  0  0  0
 15 13  1  0  0  0  0
 15 16  1  0  0  0  0
 16 14  1  0  0  0  0
 18 17  1  0  0  0  0
 19 18  1  0  0  0  0
 20 25  1  6  0  0  0
 20 23  1  0  0  0  0
 21 22  1  0  0  0  0
 21 20  1  0  0  0  0
 22 24  1  0  0  0  0
 24 19  1  6  0  0  0
 24 23  1  0  0  0  0
 25 28  1  0  0  0  0
 27 28  1  0  0  0  0
 28 26  2  0  0  0  0
M  END
>  <MODEL>
3

>  <REMARK>
 VINA RESULT:      -6.0      2.187      7.890
  Name = 
  9 active torsions:
  status: ('A' for Active; 'I' for Inactive)
    1  A    between atoms: C_1  and  C_13
    2  A    between atoms: C_2  and  O_12
    3  A    between atoms: C_2  and  C_13
    4  A    between atoms: C_3  and  N_19
    5  A    between atoms: C_4  and  C_27
    6  A    between atoms: C_4  and  N_28
    7  A    between atoms: S_9  and  N_23
    8  A    between atoms: S_9  and  C_27
    9  A    between atoms: O_12  and  C_22
                            x       y       z     vdW  Elec       q    Type
                         _______ _______ _______ _____ _____    ______ ____

>  <TORSDO>
F 9

$$$$
=
 OpenBabel11062423093D

 28 31  0  0  1  0  0  0  0  0999 V2000
  187.6050  176.1260  142.3350 C   0  0  2  0  0  3  0  0  0  0  0  0
  187.0080  176.7940  141.1850 C   0  0  0  0  0  2  0  0  0  0  0  0
  187.0030  177.4570  142.4960 N   0  0  0  0  0  0  0  0  0  0  0  0
  185.6830  177.2420  143.0650 C   0  0  0  0  0  2  0  0  0  0  0  0
  185.5030  179.6040  144.0440 C   0  0  0  0  0  2  0  0  0  0  0  0
  184.1930  178.8800  144.3310 C   0  0  0  0  0  2  0  0  0  0  0  0
  185.4970  178.1140  144.2950 C   0  0  0  0  0  0  0  0  0  0  0  0
  186.0700  177.5300  145.8960 S   0  0  0  0  0  0  0  0  0  0  0  0
  186.1920  178.7090  146.8210 O   0  0  0  0  0  0  0  0  0  0  0  0
  185.0360  176.5930  146.4570 O   0  0  0  0  0  0  0  0  0  0  0  0
  190.2260  176.1190  146.8900 C   0  0  0  0  0  2  0  0  0  0  0  0
  189.0620  175.1440  147.0380 C   0  0  0  0  0  2  0  0  0  0  0  0
  190.0200  177.0040  145.6650 C   0  0  0  0  0  2  0  0  0  0  0  0
  187.7480  175.9180  147.0700 C   0  0  0  0  0  2  0  0  0  0  0  0
  188.6620  177.6950  145.7580 C   0  0  0  0  0  2  0  0  0  0  0  0
  187.5950  176.6970  145.8390 N   0  0  0  0  0  0  0  0  0  0  0  0
  189.1140  176.2720  142.2850 C   0  0  0  0  0  2  0  0  0  0  0  0
  189.7620  174.9230  142.0270 C   0  0  0  0  0  2  0  0  0  0  0  0
  190.5210  174.5370  143.1350 O   0  0  0  0  0  0  0  0  0  0  0  0
  194.0870  175.1660  143.5850 C   0  0  1  0  0  3  0  0  0  0  0  0
  194.1660  174.9930  141.7720 S   0  0  0  0  0  0  0  0  0  0  0  0
  192.3640  174.7810  141.6450 C   0  0  0  0  0  2  0  0  0  0  0  0
  192.7120  174.7360  144.0420 C   0  0  0  0  0  2  0  0  0  0  0  0
  191.7480  175.1790  142.9690 C   0  0  2  0  0  3  0  0  0  0  0  0
  195.0960  174.3290  144.2170 N   0  0  0  0  0  2  0  0  0  0  0  0
  195.1400  175.5400  146.2160 O   0  0  0  0  0  0  0  0  0  0  0  0
  196.6410  173.7000  146.1040 C   0  0  0  0  0  1  0  0  0  0  0  0
  195.5890  174.5810  145.5330 C   0  0  0  0  0  0  0  0  0  0  0  0
  1 17  1  6  0  0  0
  1  3  1  0  0  0  0
  2  1  1  0  0  0  0
  2  3  1  0  0  0  0
  3  4  1  0  0  0  0
  4  7  1  0  0  0  0
  5  7  1  0  0  0  0
  5  6  1  0  0  0  0
  7  6  1  0  0  0  0
  7  8  1  0  0  0  0
  8 10  2  0  0  0  0
  8  9  2  0  0  0  0
 11 12  1  0  0  0  0
 12 14  1  0  0  0  0
 13 15  1  0  0  0  0
 13 11  1  0  0  0  0
 15 16  1  0  0  0  0
 16  8  1  0  0  0  0
 16 14  1  0  0  0  0
 18 17  1  0  0  0  0
 18 19  1  0  0  0  0
 20 23  1  0  0  0  0
 20 25  1  1  0  0  0
 21 20  1  0  0  0  0
 22 21  1  0  0  0  0
 22 24  1  0  0  0  0
 24 19  1  1  0  0  0
 24 23  1  0  0  0  0
 25 28  1  0  0  0  0
 28 27  1  0  0  0  0
 28 26  2  0  0  0  0
M  END
>  <MODEL>
4

>  <REMARK>
 VINA RESULT:      -6.0      2.100      7.322
  Name = 
  9 active torsions:
  status: ('A' for Active; 'I' for Inactive)
    1  A    between atoms: C_1  and  C_13
    2  A    between atoms: C_2  and  O_12
    3  A    between atoms: C_2  and  C_13
    4  A    between atoms: C_3  and  N_19
    5  A    between atoms: C_4  and  C_27
    6  A    between atoms: C_4  and  N_28
    7  A    between atoms: S_9  and  N_23
    8  A    between atoms: S_9  and  C_27
    9  A    between atoms: O_12  and  C_22
                            x       y       z     vdW  Elec       q    Type
                         _______ _______ _______ _____ _____    ______ ____

>  <TORSDO>
F 9

$$$$
=
 OpenBabel11062423093D

 28 31  0  0  1  0  0  0  0  0999 V2000
  190.4190  175.9320  146.9810 C   0  0  2  0  0  3  0  0  0  0  0  0
  191.1970  176.0750  148.2050 C   0  0  0  0  0  2  0  0  0  0  0  0
  191.8360  176.3100  146.9040 N   0  0  0  0  0  0  0  0  0  0  0  0
  192.5660  175.0980  146.5730 C   0  0  0  0  0  2  0  0  0  0  0  0
  194.6050  176.2590  145.5430 C   0  0  0  0  0  2  0  0  0  0  0  0
  194.8280  174.7550  145.4460 C   0  0  0  0  0  2  0  0  0  0  0  0
  193.4320  175.3290  145.3460 C   0  0  0  0  0  0  0  0  0  0  0  0
  192.6970  175.2380  143.7080 S   0  0  0  0  0  0  0  0  0  0  0  0
  193.6120  175.9270  142.7340 O   0  0  0  0  0  0  0  0  0  0  0  0
  192.5890  173.7910  143.3150 O   0  0  0  0  0  0  0  0  0  0  0  0
  189.0120  177.2840  142.1300 C   0  0  0  0  0  2  0  0  0  0  0  0
  188.9300  175.8090  142.5070 C   0  0  0  0  0  2  0  0  0  0  0  0
  189.9070  178.0310  143.1140 C   0  0  0  0  0  2  0  0  0  0  0  0
  190.3380  175.2270  142.6000 C   0  0  0  0  0  2  0  0  0  0  0  0
  191.2710  177.3500  143.1800 C   0  0  0  0  0  2  0  0  0  0  0  0
  191.1170  175.9570  143.6030 N   0  0  0  0  0  0  0  0  0  0  0  0
  189.5670  177.1690  146.7700 C   0  0  0  0  0  2  0  0  0  0  0  0
  188.3060  176.8120  146.0020 C   0  0  0  0  0  2  0  0  0  0  0  0
  187.2170  176.7430  146.8760 O   0  0  0  0  0  0  0  0  0  0  0  0
  185.5950  179.2660  144.7990 C   0  0  1  0  0  3  0  0  0  0  0  0
  184.0640  178.6880  145.6020 S   0  0  0  0  0  0  0  0  0  0  0  0
  184.9770  177.5250  146.6610 C   0  0  0  0  0  2  0  0  0  0  0  0
  186.7080  178.3100  145.1590 C   0  0  0  0  0  2  0  0  0  0  0  0
  186.4480  177.8680  146.5780 C   0  0  2  0  0  3  0  0  0  0  0  0
  185.4260  179.2980  143.3540 N   0  0  0  0  0  2  0  0  0  0  0  0
  185.3790  176.9730  143.1050 O   0  0  0  0  0  0  0  0  0  0  0  0
  185.1950  178.2200  141.0890 C   0  0  0  0  0  1  0  0  0  0  0  0
  185.3390  178.1110  142.5640 C   0  0  0  0  0  0  0  0  0  0  0  0
  1 17  1  1  0  0  0
  1  2  1  0  0  0  0
  3  1  1  0  0  0  0
  3  2  1  0  0  0  0
  4  3  1  0  0  0  0
  6  5  1  0  0  0  0
  7  6  1  0  0  0  0
  7  5  1  0  0  0  0
  7  4  1  0  0  0  0
  8  7  1  0  0  0  0
  9  8  2  0  0  0  0
 10  8  2  0  0  0  0
 11 12  1  0  0  0  0
 11 13  1  0  0  0  0
 12 14  1  0  0  0  0
 13 15  1  0  0  0  0
 14 16  1  0  0  0  0
 15 16  1  0  0  0  0
 16  8  1  0  0  0  0
 18 17  1  0  0  0  0
 18 19  1  0  0  0  0
 20 25  1  6  0  0  0
 20 23  1  0  0  0  0
 20 21  1  0  0  0  0
 21 22  1  0  0  0  0
 23 24  1  0  0  0  0
 24 22  1  0  0  0  0
 24 19  1  6  0  0  0
 27 28  1  0  0  0  0
 28 26  2  0  0  0  0
 28 25  1  0  0  0  0
M  END
>  <MODEL>
5

>  <REMARK>
 VINA RESULT:      -5.9      2.202      4.094
  Name = 
  9 active torsions:
  status: ('A' for Active; 'I' for Inactive)
    1  A    between atoms: C_1  and  C_13
    2  A    between atoms: C_2  and  O_12
    3  A    between atoms: C_2  and  C_13
    4  A    between atoms: C_3  and  N_19
    5  A    between atoms: C_4  and  C_27
    6  A    between atoms: C_4  and  N_28
    7  A    between atoms: S_9  and  N_23
    8  A    between atoms: S_9  and  C_27
    9  A    between atoms: O_12  and  C_22
                            x       y       z     vdW  Elec       q    Type
                         _______ _______ _______ _____ _____    ______ ____

>  <TORSDO>
F 9

$$$$
=
 OpenBabel11062423093D

 28 31  0  0  1  0  0  0  0  0999 V2000
  189.4910  175.1890  141.9520 C   0  0  2  0  0  3  0  0  0  0  0  0
  190.0310  173.9050  141.5230 C   0  0  0  0  0  2  0  0  0  0  0  0
  190.3770  174.4350  142.8490 N   0  0  0  0  0  0  0  0  0  0  0  0
  191.6940  175.0380  142.7260 C   0  0  0  0  0  2  0  0  0  0  0  0
  192.6410  173.1140  144.1280 C   0  0  0  0  0  2  0  0  0  0  0  0
  193.8130  173.8330  143.4730 C   0  0  0  0  0  2  0  0  0  0  0  0
  192.5780  174.6030  143.8820 C   0  0  0  0  0  0  0  0  0  0  0  0
  192.8050  175.6970  145.2900 S   0  0  0  0  0  0  0  0  0  0  0  0
  193.8660  175.1160  146.1820 O   0  0  0  0  0  0  0  0  0  0  0  0
  193.2880  177.0280  144.7830 O   0  0  0  0  0  0  0  0  0  0  0  0
  188.4890  175.8780  146.5530 C   0  0  0  0  0  2  0  0  0  0  0  0
  189.4080  174.8580  147.2170 C   0  0  0  0  0  2  0  0  0  0  0  0
  189.2410  177.1820  146.3050 C   0  0  0  0  0  2  0  0  0  0  0  0
  190.6640  174.6750  146.3700 C   0  0  0  0  0  2  0  0  0  0  0  0
  190.5050  176.8950  145.4980 C   0  0  0  0  0  2  0  0  0  0  0  0
  191.3610  175.9550  146.2240 N   0  0  0  0  0  0  0  0  0  0  0  0
  188.0570  175.0110  142.4140 C   0  0  0  0  0  2  0  0  0  0  0  0
  187.4970  176.3340  142.9050 C   0  0  0  0  0  2  0  0  0  0  0  0
  186.3630  176.6790  142.1640 O   0  0  0  0  0  0  0  0  0  0  0  0
  185.0400  178.1400  145.2350 C   0  0  1  0  0  3  0  0  0  0  0  0
  183.9700  179.0950  144.1100 S   0  0  0  0  0  0  0  0  0  0  0  0
  184.6300  178.2410  142.6460 C   0  0  0  0  0  2  0  0  0  0  0  0
  186.0840  177.4290  144.4050 C   0  0  0  0  0  2  0  0  0  0  0  0
  185.4070  177.0320  143.1170 C   0  0  2  0  0  3  0  0  0  0  0  0
  185.6920  179.0260  146.1870 N   0  0  0  0  0  2  0  0  0  0  0  0
  185.7680  177.4500  147.9120 O   0  0  0  0  0  0  0  0  0  0  0  0
  186.6570  179.5890  148.4440 C   0  0  0  0  0  1  0  0  0  0  0  0
  186.0160  178.6210  147.5170 C   0  0  0  0  0  0  0  0  0  0  0  0
  1 17  1  1  0  0  0
  1  3  1  0  0  0  0
  2  1  1  0  0  0  0
  2  3  1  0  0  0  0
  4  3  1  0  0  0  0
  4  7  1  0  0  0  0
  6  7  1  0  0  0  0
  6  5  1  0  0  0  0
  7  5  1  0  0  0  0
  7  8  1  0  0  0  0
  8  9  2  0  0  0  0
  8 16  1  0  0  0  0
 10  8  2  0  0  0  0
 11 12  1  0  0  0  0
 13 11  1  0  0  0  0
 14 12  1  0  0  0  0
 15 16  1  0  0  0  0
 15 13  1  0  0  0  0
 16 14  1  0  0  0  0
 17 18  1  0  0  0  0
 19 18  1  0  0  0  0
 20 25  1  1  0  0  0
 21 20  1  0  0  0  0
 22 24  1  0  0  0  0
 22 21  1  0  0  0  0
 23 20  1  0  0  0  0
 24 19  1  6  0  0  0
 24 23  1  0  0  0  0
 25 28  1  0  0  0  0
 28 26  2  0  0  0  0
 28 27  1  0  0  0  0
M  END
>  <MODEL>
6

>  <REMARK>
 VINA RESULT:      -5.9      1.680      2.317
  Name = 
  9 active torsions:
  status: ('A' for Active; 'I' for Inactive)
    1  A    between atoms: C_1  and  C_13
    2  A    between atoms: C_2  and  O_12
    3  A    between atoms: C_2  and  C_13
    4  A    between atoms: C_3  and  N_19
    5  A    between atoms: C_4  and  C_27
    6  A    between atoms: C_4  and  N_28
    7  A    between atoms: S_9  and  N_23
    8  A    between atoms: S_9  and  C_27
    9  A    between atoms: O_12  and  C_22
                            x       y       z     vdW  Elec       q    Type
                         _______ _______ _______ _____ _____    ______ ____

>  <TORSDO>
F 9

$$$$
=
 OpenBabel11062423093D

 28 31  0  0  1  0  0  0  0  0999 V2000
  188.9270  173.9020  142.5280 C   0  0  2  0  0  3  0  0  0  0  0  0
  188.1480  173.8670  141.2980 C   0  0  0  0  0  2  0  0  0  0  0  0
  188.5220  175.1600  141.8850 N   0  0  0  0  0  0  0  0  0  0  0  0
  187.3600  175.6380  142.6150 C   0  0  0  0  0  2  0  0  0  0  0  0
  188.4050  177.9150  142.0800 C   0  0  0  0  0  2  0  0  0  0  0  0
  187.4630  177.5550  140.9380 C   0  0  0  0  0  2  0  0  0  0  0  0
  187.1510  177.1190  142.3510 C   0  0  0  0  0  0  0  0  0  0  0  0
  185.7630  177.9710  143.1130 S   0  0  0  0  0  0  0  0  0  0  0  0
  185.9780  179.4530  142.9770 O   0  0  0  0  0  0  0  0  0  0  0  0
  184.5110  177.6040  142.3630 O   0  0  0  0  0  0  0  0  0  0  0  0
  185.5890  178.2790  147.5990 C   0  0  0  0  0  2  0  0  0  0  0  0
  184.2840  178.1710  146.8170 C   0  0  0  0  0  2  0  0  0  0  0  0
  186.6600  177.4000  146.9600 C   0  0  0  0  0  2  0  0  0  0  0  0
  184.5380  178.5050  145.3500 C   0  0  0  0  0  2  0  0  0  0  0  0
  186.8080  177.7680  145.4860 C   0  0  0  0  0  2  0  0  0  0  0  0
  185.5320  177.5850  144.7920 N   0  0  0  0  0  0  0  0  0  0  0  0
  190.3880  173.6380  142.2170 C   0  0  0  0  0  2  0  0  0  0  0  0
  191.1580  173.3760  143.4990 C   0  0  0  0  0  2  0  0  0  0  0  0
  190.7880  174.3020  144.4770 O   0  0  0  0  0  0  0  0  0  0  0  0
  194.1730  175.4310  145.2410 C   0  0  1  0  0  3  0  0  0  0  0  0
  193.3710  176.3460  146.5980 S   0  0  0  0  0  0  0  0  0  0  0  0
  191.7390  175.6540  146.1930 C   0  0  0  0  0  2  0  0  0  0  0  0
  193.0920  174.8800  144.3390 C   0  0  0  0  0  2  0  0  0  0  0  0
  191.9410  174.4990  145.2370 C   0  0  2  0  0  3  0  0  0  0  0  0
  195.0410  176.3150  144.4780 N   0  0  0  0  0  2  0  0  0  0  0  0
  196.5930  174.6540  143.9330 O   0  0  0  0  0  0  0  0  0  0  0  0
  197.0990  176.8300  143.1210 C   0  0  0  0  0  1  0  0  0  0  0  0
  196.2470  175.8640  143.8610 C   0  0  0  0  0  0  0  0  0  0  0  0
  1 17  1  6  0  0  0
  2  3  1  0  0  0  0
  2  1  1  0  0  0  0
  3  1  1  0  0  0  0
  3  4  1  0  0  0  0
  5  7  1  0  0  0  0
  6  5  1  0  0  0  0
  6  7  1  0  0  0  0
  7  4  1  0  0  0  0
  7  8  1  0  0  0  0
  8 16  1  0  0  0  0
  9  8  2  0  0  0  0
 10  8  2  0  0  0  0
 12 11  1  0  0  0  0
 13 11  1  0  0  0  0
 14 12  1  0  0  0  0
 15 13  1  0  0  0  0
 16 14  1  0  0  0  0
 16 15  1  0  0  0  0
 17 18  1  0  0  0  0
 18 19  1  0  0  0  0
 20 25  1  6  0  0  0
 20 21  1  0  0  0  0
 22 21  1  0  0  0  0
 23 24  1  0  0  0  0
 23 20  1  0  0  0  0
 24 19  1  6  0  0  0
 24 22  1  0  0  0  0
 27 28  1  0  0  0  0
 28 26  2  0  0  0  0
 28 25  1  0  0  0  0
M  END
>  <MODEL>
7

>  <REMARK>
 VINA RESULT:      -5.8      2.186      7.331
  Name = 
  9 active torsions:
  status: ('A' for Active; 'I' for Inactive)
    1  A    between atoms: C_1  and  C_13
    2  A    between atoms: C_2  and  O_12
    3  A    between atoms: C_2  and  C_13
    4  A    between atoms: C_3  and  N_19
    5  A    between atoms: C_4  and  C_27
    6  A    between atoms: C_4  and  N_28
    7  A    between atoms: S_9  and  N_23
    8  A    between atoms: S_9  and  C_27
    9  A    between atoms: O_12  and  C_22
                            x       y       z     vdW  Elec       q    Type
                         _______ _______ _______ _____ _____    ______ ____

>  <TORSDO>
F 9

$$$$
=
 OpenBabel11062423093D

 28 31  0  0  1  0  0  0  0  0999 V2000
  188.9560  176.8820  145.6120 C   0  0  2  0  0  3  0  0  0  0  0  0
  189.0080  176.9420  147.0670 C   0  0  0  0  0  2  0  0  0  0  0  0
  187.7090  176.8420  146.3880 N   0  0  0  0  0  0  0  0  0  0  0  0
  187.1570  178.1860  146.3460 C   0  0  0  0  0  2  0  0  0  0  0  0
  184.8910  176.9960  146.4740 C   0  0  0  0  0  2  0  0  0  0  0  0
  184.7070  178.4080  147.0170 C   0  0  0  0  0  2  0  0  0  0  0  0
  185.7030  178.1390  145.9110 C   0  0  0  0  0  0  0  0  0  0  0  0
  185.2330  178.7890  144.3020 S   0  0  0  0  0  0  0  0  0  0  0  0
  183.7400  178.6890  144.1620 O   0  0  0  0  0  0  0  0  0  0  0  0
  185.6180  180.2430  144.2460 O   0  0  0  0  0  0  0  0  0  0  0  0
  188.0990  176.3690  141.8150 C   0  0  0  0  0  2  0  0  0  0  0  0
  186.7210  175.7900  142.1230 C   0  0  0  0  0  2  0  0  0  0  0  0
  187.9960  177.8720  141.5720 C   0  0  0  0  0  2  0  0  0  0  0  0
  186.1000  176.5480  143.2930 C   0  0  0  0  0  2  0  0  0  0  0  0
  187.3180  178.5360  142.7660 C   0  0  0  0  0  2  0  0  0  0  0  0
  185.9820  177.9700  142.9630 N   0  0  0  0  0  0  0  0  0  0  0  0
  189.2910  175.4780  145.1460 C   0  0  0  0  0  2  0  0  0  0  0  0
  190.7140  175.4270  144.6180 C   0  0  0  0  0  2  0  0  0  0  0  0
  190.9630  176.5360  143.8050 O   0  0  0  0  0  0  0  0  0  0  0  0
  194.4600  175.5480  144.1360 C   0  0  1  0  0  3  0  0  0  0  0  0
  194.2060  174.7550  142.5150 S   0  0  0  0  0  0  0  0  0  0  0  0
  192.4990  175.3750  142.4020 C   0  0  0  0  0  2  0  0  0  0  0  0
  193.1140  175.9900  144.6640 C   0  0  0  0  0  2  0  0  0  0  0  0
  192.3130  176.4350  143.4660 C   0  0  2  0  0  3  0  0  0  0  0  0
  195.0660  174.6090  145.0690 N   0  0  0  0  0  2  0  0  0  0  0  0
  197.2570  174.9930  144.3470 O   0  0  0  0  0  0  0  0  0  0  0  0
  197.0190  173.3740  146.0710 C   0  0  0  0  0  1  0  0  0  0  0  0
  196.4730  174.3690  145.1110 C   0  0  0  0  0  0  0  0  0  0  0  0
  1 17  1  1  0  0  0
  1  3  1  0  0  0  0
  1  2  1  0  0  0  0
  3  2  1  0  0  0  0
  4  3  1  0  0  0  0
  5  6  1  0  0  0  0
  7  4  1  0  0  0  0
  7  5  1  0  0  0  0
  7  6  1  0  0  0  0
  8  7  1  0  0  0  0
  9  8  2  0  0  0  0
 10  8  2  0  0  0  0
 11 12  1  0  0  0  0
 12 14  1  0  0  0  0
 13 11  1  0  0  0  0
 13 15  1  0  0  0  0
 15 16  1  0  0  0  0
 16 14  1  0  0  0  0
 16  8  1  0  0  0  0
 18 17  1  0  0  0  0
 19 18  1  0  0  0  0
 20 23  1  0  0  0  0
 20 25  1  1  0  0  0
 21 20  1  0  0  0  0
 22 21  1  0  0  0  0
 22 24  1  0  0  0  0
 24 19  1  1  0  0  0
 24 23  1  0  0  0  0
 25 28  1  0  0  0  0
 26 28  2  0  0  0  0
 28 27  1  0  0  0  0
M  END
>  <MODEL>
8

>  <REMARK>
 VINA RESULT:      -5.8      2.165      7.988
  Name = 
  9 active torsions:
  status: ('A' for Active; 'I' for Inactive)
    1  A    between atoms: C_1  and  C_13
    2  A    between atoms: C_2  and  O_12
    3  A    between atoms: C_2  and  C_13
    4  A    between atoms: C_3  and  N_19
    5  A    between atoms: C_4  and  C_27
    6  A    between atoms: C_4  and  N_28
    7  A    between atoms: S_9  and  N_23
    8  A    between atoms: S_9  and  C_27
    9  A    between atoms: O_12  and  C_22
                            x       y       z     vdW  Elec       q    Type
                         _______ _______ _______ _____ _____    ______ ____

>  <TORSDO>
F 9

$$$$
=
 OpenBabel11062423093D

 28 31  0  0  1  0  0  0  0  0999 V2000
  193.0060  175.8830  146.3040 C   0  0  2  0  0  3  0  0  0  0  0  0
  192.6770  174.8040  145.3810 C   0  0  0  0  0  2  0  0  0  0  0  0
  192.3690  176.1940  145.0170 N   0  0  0  0  0  0  0  0  0  0  0  0
  190.9570  176.3940  145.2970 C   0  0  0  0  0  2  0  0  0  0  0  0
  191.0230  178.5020  143.8410 C   0  0  0  0  0  2  0  0  0  0  0  0
  191.1310  177.2940  142.9180 C   0  0  0  0  0  2  0  0  0  0  0  0
  190.3170  177.2130  144.1890 C   0  0  0  0  0  0  0  0  0  0  0  0
  188.5380  177.1350  143.9400 S   0  0  0  0  0  0  0  0  0  0  0  0
  188.1900  177.9400  142.7190 O   0  0  0  0  0  0  0  0  0  0  0  0
  188.1550  175.7030  143.6880 O   0  0  0  0  0  0  0  0  0  0  0  0
  185.1650  177.8860  146.8230 C   0  0  0  0  0  2  0  0  0  0  0  0
  186.3600  177.0600  147.2880 C   0  0  0  0  0  2  0  0  0  0  0  0
  185.6290  179.0220  145.9180 C   0  0  0  0  0  2  0  0  0  0  0  0
  187.1500  176.5770  146.0740 C   0  0  0  0  0  2  0  0  0  0  0  0
  186.4520  178.4520  144.7660 C   0  0  0  0  0  2  0  0  0  0  0  0
  187.6100  177.7240  145.2870 N   0  0  0  0  0  0  0  0  0  0  0  0
  194.4860  176.2030  146.2110 C   0  0  0  0  0  2  0  0  0  0  0  0
  195.2900  174.9220  146.0680 C   0  0  0  0  0  2  0  0  0  0  0  0
  196.2170  175.0530  145.0300 O   0  0  0  0  0  0  0  0  0  0  0  0
  196.1800  171.4070  145.1620 C   0  0  1  0  0  3  0  0  0  0  0  0
  195.4280  171.5310  143.5070 S   0  0  0  0  0  0  0  0  0  0  0  0
  195.5760  173.3440  143.4990 C   0  0  0  0  0  2  0  0  0  0  0  0
  196.2220  172.7910  145.7680 C   0  0  0  0  0  2  0  0  0  0  0  0
  196.4950  173.7450  144.6320 C   0  0  2  0  0  3  0  0  0  0  0  0
  195.3920  170.5260  146.0110 N   0  0  0  0  0  2  0  0  0  0  0  0
  197.2160  169.2520  146.7290 O   0  0  0  0  0  0  0  0  0  0  0  0
  195.1020  168.5780  147.5820 C   0  0  0  0  0  1  0  0  0  0  0  0
  195.9730  169.4560  146.7580 C   0  0  0  0  0  0  0  0  0  0  0  0
  1 17  1  6  0  0  0
  2  1  1  0  0  0  0
  3  4  1  0  0  0  0
  3  2  1  0  0  0  0
  3  1  1  0  0  0  0
  5  7  1  0  0  0  0
  6  5  1  0  0  0  0
  6  7  1  0  0  0  0
  7  4  1  0  0  0  0
  8  7  1  0  0  0  0
  8 16  1  0  0  0  0
  9  8  2  0  0  0  0
 10  8  2  0  0  0  0
 11 12  1  0  0  0  0
 13 11  1  0  0  0  0
 14 12  1  0  0  0  0
 15 16  1  0  0  0  0
 15 13  1  0  0  0  0
 16 14  1  0  0  0  0
 18 17  1  0  0  0  0
 19 18  1  0  0  0  0
 20 23  1  0  0  0  0
 20 25  1  1  0  0  0
 21 20  1  0  0  0  0
 22 21  1  0  0  0  0
 22 24  1  0  0  0  0
 24 19  1  1  0  0  0
 24 23  1  0  0  0  0
 25 28  1  0  0  0  0
 26 28  2  0  0  0  0
 28 27  1  0  0  0  0
M  END
>  <MODEL>
9

>  <REMARK>
 VINA RESULT:      -5.8      3.200      8.313
  Name = 
  9 active torsions:
  status: ('A' for Active; 'I' for Inactive)
    1  A    between atoms: C_1  and  C_13
    2  A    between atoms: C_2  and  O_12
    3  A    between atoms: C_2  and  C_13
    4  A    between atoms: C_3  and  N_19
    5  A    between atoms: C_4  and  C_27
    6  A    between atoms: C_4  and  N_28
    7  A    between atoms: S_9  and  N_23
    8  A    between atoms: S_9  and  C_27
    9  A    between atoms: O_12  and  C_22
                            x       y       z     vdW  Elec       q    Type
                         _______ _______ _______ _____ _____    ______ ____

>  <TORSDO>
F 9

$$$$
