=
 OpenBabel11062418223D

 66 69  0  0  1  0  0  0  0  0999 V2000
  188.3370  176.6550  142.4240 N   0  0  0  0  0  0  0  0  0  0  0  0
  187.6350  177.5610  141.5190 C   0  0  0  0  0  2  0  0  0  0  0  0
  185.4410  178.3150  140.8980 O   0  0  0  0  0  1  0  0  0  0  0  0
  186.1810  177.7420  141.9340 C   0  0  2  0  0  3  0  0  0  0  0  0
  186.0800  178.5870  143.1950 C   0  0  0  0  0  2  0  0  0  0  0  0
  184.6180  178.7960  143.5700 C   0  0  1  0  0  3  0  0  0  0  0  0
  183.8830  177.6540  143.3130 F   0  0  0  0  0  0  0  0  0  0  0  0
  184.4550  179.2400  145.0210 C   0  0  0  0  0  2  0  0  0  0  0  0
  184.7500  176.8620  145.8030 F   0  0  0  0  0  0  0  0  0  0  0  0
  184.9880  178.2090  146.0060 C   0  0  2  0  0  0  0  0  0  0  0  0
  184.6910  178.5720  147.3280 O   0  0  0  0  0  0  0  0  0  0  0  0
  186.0490  178.6000  146.9530 C   0  0  0  0  0  2  0  0  0  0  0  0
  189.1830  177.4950  143.2570 C   0  0  0  0  0  2  0  0  0  0  0  0
  190.5700  177.5870  142.6590 C   0  0  0  0  0  2  0  0  0  0  0  0
  191.4830  178.2620  143.6590 C   0  0  0  0  0  2  0  0  0  0  0  0
  191.5970  177.4820  144.8090 O   0  0  0  0  0  0  0  0  0  0  0  0
  192.1630  176.2750  144.3810 C   0  0  1  0  0  3  0  0  0  0  0  0
  193.7060  175.6520  142.5640 C   0  0  0  0  0  3  0  0  0  0  0  0
  193.2700  176.5760  143.4160 C   0  0  0  0  0  3  0  0  0  0  0  0
  194.8490  175.9420  141.6480 C   0  0  0  0  0  2  0  0  0  0  0  0
  195.7420  173.6740  140.8700 C   0  0  1  0  0  3  0  0  0  0  0  0
  195.4340  173.5570  142.3700 C   0  0  2  0  0  3  0  0  0  0  0  0
  195.9290  174.8770  141.7930 C   0  0  2  0  0  0  0  0  0  0  0  0
  197.3650  175.3180  142.0970 C   0  0  0  0  0  2  0  0  0  0  0  0
  197.3740  176.5750  142.9510 C   0  0  0  0  0  1  0  0  0  0  0  0
  196.7860  172.6000  139.2390 C   0  0  0  0  0  1  0  0  0  0  0  0
  196.9660  173.0780  140.5400 O   0  0  0  0  0  0  0  0  0  0  0  0
  196.4610  172.8590  143.0660 O   0  0  0  0  0  0  0  0  0  0  0  0
  195.5160  170.4020  145.6550 C   0  0  0  0  0  1  0  0  0  0  0  0
  195.8110  171.6940  144.9810 C   0  0  0  0  0  0  0  0  0  0  0  0
  196.1660  171.6910  143.7350 N   0  0  0  0  0  0  0  0  0  0  0  0
  195.7050  172.9670  145.7550 C   0  0  0  0  0  1  0  0  0  0  0  0
  192.7120  175.4550  145.5670 C   0  0  1  0  0  3  0  0  0  0  0  0
  193.4030  176.3020  146.6380 C   0  0  0  0  0  1  0  0  0  0  0  0
  189.9360  174.8080  147.5880 C   0  0  0  0  0  2  0  0  0  0  0  0
  190.4610  174.5570  145.3060 C   0  0  1  0  0  3  0  0  0  0  0  0
  188.8450  176.3030  145.9560 C   0  0  0  0  0  1  0  0  0  0  0  0
  189.3160  174.8890  146.2240 C   0  0  2  0  0  3  0  0  0  0  0  0
  191.3680  174.9960  147.4120 N   0  0  0  0  0  2  0  0  0  0  0  0
  191.6900  174.5470  146.1140 N   0  0  0  0  0  0  0  0  0  0  0  0
  190.2190  173.1770  144.7100 C   0  0  0  0  0  2  0  0  0  0  0  0
  191.5370  172.5000  144.3820 C   0  0  0  0  0  1  0  0  0  0  0  0
  189.2270  175.8450  141.6030 C   0  0  0  0  0  2  0  0  0  0  0  0
  188.7260  174.4080  141.5310 C   0  0  1  0  0  3  0  0  0  0  0  0
  187.4240  174.2740  142.2970 C   0  0  0  0  0  1  0  0  0  0  0  0
  188.5720  173.9310  140.0890 C   0  0  0  0  0  2  0  0  0  0  0  0
  188.6840  172.4810  139.9940 N   0  0  0  0  0  2  0  0  0  0  0  0
  189.6870  172.1790  138.9770 C   0  0  2  0  0  3  0  0  0  0  0  0
  190.7640  171.0840  141.0270 C   0  0  0  0  0  2  0  0  0  0  0  0
  191.2270  169.6850  141.1890 C   0  0  0  0  0  0  0  0  0  0  0  0
  191.5940  169.1770  142.3630 C   0  0  0  0  0  2  0  0  0  0  0  0
  191.4180  168.9710  139.9020 C   0  0  0  0  0  2  0  0  0  0  0  0
  190.8080  169.9140  138.8740 C   0  0  0  0  0  2  0  0  0  0  0  0
  190.8130  171.2960  139.5170 C   0  0  1  0  0  3  0  0  0  0  0  0
  190.2380  173.4440  138.3040 C   0  0  2  0  0  3  0  0  0  0  0  0
  189.2660  172.3770  136.1550 C   0  0  0  0  0  1  0  0  0  0  0  0
  189.8350  173.5640  136.8550 C   0  0  0  0  0  0  0  0  0  0  0  0
  189.9660  174.6190  136.2520 O   0  0  0  0  0  0  0  0  0  0  0  0
  191.7500  173.6090  138.5690 C   0  0  1  0  0  3  0  0  0  0  0  0
  192.0680  173.7070  140.0520 C   0  0  0  0  0  1  0  0  0  0  0  0
  192.4640  172.4500  138.0380 N   0  0  0  0  0  2  0  0  0  0  0  0
  193.6390  172.5440  137.2340 C   0  0  0  0  0  0  0  0  0  0  0  0
  194.1980  173.6540  137.0360 O   0  0  0  0  0  0  0  0  0  0  0  0
  194.2270  171.3070  136.6500 C   0  0  0  0  0  2  0  0  0  0  0  0
  194.4640  170.3230  137.6910 N   0  0  0  0  0  2  0  0  0  0  0  0
  194.1790  169.0180  137.1200 C   0  0  0  0  0  1  0  0  0  0  0  0
  1 13  1  0  0  0  0
  2  4  1  0  0  0  0
  2  1  1  0  0  0  0
  4  3  1  6  0  0  0
  4  5  1  0  0  0  0
  5  6  1  0  0  0  0
  6  7  1  1  0  0  0
  6  8  1  0  0  0  0
  8 10  1  0  0  0  0
 10  9  1  6  0  0  0
 10 12  1  0  0  0  0
 10 11  1  0  0  0  0
 12 11  1  0  0  0  0
 14 13  1  0  0  0  0
 14 15  1  0  0  0  0
 15 16  1  0  0  0  0
 17 19  1  6  0  0  0
 17 16  1  0  0  0  0
 17 33  1  0  0  0  0
 18 19  2  0  0  0  0
 20 18  1  0  0  0  0
 21 27  1  1  0  0  0
 21 23  1  0  0  0  0
 21 22  1  0  0  0  0
 22 28  1  1  0  0  0
 23 20  1  6  0  0  0
 23 24  1  0  0  0  0
 23 22  1  0  0  0  0
 24 25  1  0  0  0  0
 26 27  1  0  0  0  0
 28 31  1  0  0  0  0
 30 29  1  0  0  0  0
 30 32  1  0  0  0  0
 31 30  2  0  0  0  0
 33 40  1  0  0  0  0
 33 34  1  1  0  0  0
 36 41  1  1  0  0  0
 36 40  1  0  0  0  0
 36 38  1  0  0  0  0
 38 37  1  6  0  0  0
 38 35  1  0  0  0  0
 39 35  1  0  0  0  0
 40 39  1  0  0  0  0
 42 41  1  0  0  0  0
 43  1  1  0  0  0  0
 44 43  1  0  0  0  0
 44 45  1  6  0  0  0
 46 44  1  0  0  0  0
 47 46  1  0  0  0  0
 48 47  1  1  0  0  0
 49 50  1  0  0  0  0
 50 51  2  0  0  0  0
 52 50  1  0  0  0  0
 53 54  1  0  0  0  0
 53 52  1  0  0  0  0
 54 48  1  6  0  0  0
 54 49  1  0  0  0  0
 55 57  1  6  0  0  0
 55 59  1  0  0  0  0
 55 48  1  0  0  0  0
 56 57  1  0  0  0  0
 58 57  2  0  0  0  0
 59 60  1  1  0  0  0
 61 59  1  0  0  0  0
 62 61  1  0  0  0  0
 63 62  2  0  0  0  0
 64 62  1  0  0  0  0
 64 65  1  0  0  0  0
 66 65  1  0  0  0  0
M  END
>  <MODEL>
1

>  <REMARK>
 VINA RESULT:      -5.2      0.000      0.000
  Name = 
  33 active torsions:
  status: ('A' for Active; 'I' for Inactive)
    1  A    between atoms: C_1  and  C_27
    2  A    between atoms: C_1  and  C_48
    3  A    between atoms: N_2  and  C_13
    4  A    between atoms: C_4  and  C_55
    5  A    between atoms: O_5  and  N_37
    6  A    between atoms: O_5  and  C_54
    7  A    between atoms: C_6  and  C_31
    8  A    between atoms: C_6  and  N_51
    9  A    between atoms: C_9  and  C_17
   10  A    between atoms: N_10  and  C_35
   11  A    between atoms: C_11  and  C_33
   12  A    between atoms: C_11  and  C_50
   13  A    between atoms: C_13  and  C_44
   14  A    between atoms: C_14  and  C_22
   15  A    between atoms: C_14  and  C_33
   16  A    between atoms: C_19  and  C_44
   17  A    between atoms: C_19  and  C_56
   18  A    between atoms: C_19  and  N_58
   19  A    between atoms: N_24  and  C_27
   20  A    between atoms: N_24  and  C_57
   21  A    between atoms: N_24  and  C_66
   22  A    between atoms: C_25  and  C_29
   23  A    between atoms: C_25  and  O_41
   24  A    between atoms: C_28  and  C_65
   25  A    between atoms: C_29  and  C_66
   26  A    between atoms: C_31  and  C_36
   27  A    between atoms: C_31  and  O_41
   28  A    between atoms: C_34  and  C_35
   29  A    between atoms: C_44  and  C_59
   30  A    between atoms: O_47  and  C_53
   31  A    between atoms: C_48  and  N_58
   32  A    between atoms: C_50  and  C_57
   33  A    between atoms: C_55  and  C_65
                            x       y       z     vdW  Elec       q    Type
                         _______ _______ _______ _____ _____    ______ ____

>  <TORSDO>
F 33

$$$$
=
 OpenBabel11062418223D

 66 69  0  0  1  0  0  0  0  0999 V2000
  188.2530  176.5230  142.3900 N   0  0  0  0  0  0  0  0  0  0  0  0
  187.5240  177.4100  141.4890 C   0  0  0  0  0  2  0  0  0  0  0  0
  185.3900  178.4780  141.2210 O   0  0  0  0  0  1  0  0  0  0  0  0
  186.0240  177.3510  141.7440 C   0  0  2  0  0  3  0  0  0  0  0  0
  185.7340  177.2140  143.2320 C   0  0  0  0  0  2  0  0  0  0  0  0
  185.1680  178.5200  143.7770 C   0  0  1  0  0  3  0  0  0  0  0  0
  183.7980  178.4290  143.9290 F   0  0  0  0  0  0  0  0  0  0  0  0
  185.8400  178.9360  145.0830 C   0  0  0  0  0  2  0  0  0  0  0  0
  184.8650  176.8410  146.0890 F   0  0  0  0  0  0  0  0  0  0  0  0
  185.8450  177.8170  146.1140 C   0  0  2  0  0  0  0  0  0  0  0  0
  186.0060  178.3250  147.4110 O   0  0  0  0  0  0  0  0  0  0  0  0
  187.0720  177.5610  146.8930 C   0  0  0  0  0  2  0  0  0  0  0  0
  188.9690  177.3880  143.3140 C   0  0  0  0  0  2  0  0  0  0  0  0
  190.2790  177.8290  142.7000 C   0  0  0  0  0  2  0  0  0  0  0  0
  191.3670  177.7120  143.7460 C   0  0  0  0  0  2  0  0  0  0  0  0
  191.1010  176.6400  144.5970 O   0  0  0  0  0  0  0  0  0  0  0  0
  191.8650  175.5770  144.1000 C   0  0  1  0  0  3  0  0  0  0  0  0
  193.6800  175.3380  142.4500 C   0  0  0  0  0  3  0  0  0  0  0  0
  192.9670  176.1300  143.2480 C   0  0  0  0  0  3  0  0  0  0  0  0
  194.8140  175.8890  141.6510 C   0  0  0  0  0  2  0  0  0  0  0  0
  196.3580  173.9160  141.1310 C   0  0  1  0  0  3  0  0  0  0  0  0
  195.9020  173.7710  142.5900 C   0  0  2  0  0  3  0  0  0  0  0  0
  196.1060  175.1550  141.9880 C   0  0  2  0  0  0  0  0  0  0  0  0
  197.3270  175.9720  142.4240 C   0  0  0  0  0  2  0  0  0  0  0  0
  196.9220  177.0760  143.3870 C   0  0  0  0  0  1  0  0  0  0  0  0
  197.9410  173.6740  139.6010 C   0  0  0  0  0  1  0  0  0  0  0  0
  197.7260  173.6570  140.9830 O   0  0  0  0  0  0  0  0  0  0  0  0
  196.9780  173.3940  143.4430 O   0  0  0  0  0  0  0  0  0  0  0  0
  196.8760  170.8090  146.0770 C   0  0  0  0  0  1  0  0  0  0  0  0
  196.9110  172.1370  145.4070 C   0  0  0  0  0  0  0  0  0  0  0  0
  196.9350  172.1920  144.1140 N   0  0  0  0  0  0  0  0  0  0  0  0
  196.9300  173.3780  146.2380 C   0  0  0  0  0  1  0  0  0  0  0  0
  192.4630  174.7270  145.2400 C   0  0  1  0  0  3  0  0  0  0  0  0
  192.2830  175.3430  146.6300 C   0  0  0  0  0  1  0  0  0  0  0  0
  190.5050  172.1970  143.8330 C   0  0  0  0  0  2  0  0  0  0  0  0
  192.8060  172.5510  144.1950 C   0  0  1  0  0  3  0  0  0  0  0  0
  191.9490  172.6530  141.8850 C   0  0  0  0  0  1  0  0  0  0  0  0
  191.8470  171.9350  143.2140 C   0  0  2  0  0  3  0  0  0  0  0  0
  190.6710  173.3300  144.7310 N   0  0  0  0  0  2  0  0  0  0  0  0
  192.0140  173.3260  145.1630 N   0  0  0  0  0  0  0  0  0  0  0  0
  193.5520  171.4340  144.9110 C   0  0  0  0  0  2  0  0  0  0  0  0
  193.3990  170.1250  144.1590 C   0  0  0  0  0  1  0  0  0  0  0  0
  189.2590  175.8400  141.5880 C   0  0  0  0  0  2  0  0  0  0  0  0
  188.8050  174.4250  141.2520 C   0  0  1  0  0  3  0  0  0  0  0  0
  187.6330  174.0350  142.1330 C   0  0  0  0  0  1  0  0  0  0  0  0
  188.4590  174.2750  139.7720 C   0  0  0  0  0  2  0  0  0  0  0  0
  188.3600  172.8720  139.3900 N   0  0  0  0  0  2  0  0  0  0  0  0
  188.9740  172.7260  138.0730 C   0  0  2  0  0  3  0  0  0  0  0  0
  190.3280  171.0050  139.4010 C   0  0  0  0  0  2  0  0  0  0  0  0
  190.5110  169.5610  139.1210 C   0  0  0  0  0  0  0  0  0  0  0  0
  191.0780  168.7240  139.9870 C   0  0  0  0  0  2  0  0  0  0  0  0
  190.1760  169.1800  137.7270 C   0  0  0  0  0  2  0  0  0  0  0  0
  189.5140  170.4290  137.1620 C   0  0  0  0  0  2  0  0  0  0  0  0
  189.9930  171.5860  138.0320 C   0  0  1  0  0  3  0  0  0  0  0  0
  189.5780  174.0410  137.5600 C   0  0  2  0  0  3  0  0  0  0  0  0
  187.4830  175.3750  136.8290 C   0  0  0  0  0  1  0  0  0  0  0  0
  188.7540  174.6830  136.4710 C   0  0  0  0  0  0  0  0  0  0  0  0
  189.1170  174.6460  135.3050 O   0  0  0  0  0  0  0  0  0  0  0  0
  191.0760  173.8770  137.2240 C   0  0  1  0  0  3  0  0  0  0  0  0
  191.9280  173.6780  138.4680 C   0  0  0  0  0  1  0  0  0  0  0  0
  191.2560  172.7060  136.3700 N   0  0  0  0  0  2  0  0  0  0  0  0
  192.3140  172.5710  135.4220 C   0  0  0  0  0  0  0  0  0  0  0  0
  193.2330  173.4280  135.3560 O   0  0  0  0  0  0  0  0  0  0  0  0
  192.3430  171.3860  134.5220 C   0  0  0  0  0  2  0  0  0  0  0  0
  193.6670  170.7920  134.5150 N   0  0  0  0  0  2  0  0  0  0  0  0
  193.6410  169.6760  135.4440 C   0  0  0  0  0  1  0  0  0  0  0  0
  1 13  1  0  0  0  0
  2  4  1  0  0  0  0
  2  1  1  0  0  0  0
  4  3  1  1  0  0  0
  4  5  1  0  0  0  0
  5  6  1  0  0  0  0
  6  7  1  1  0  0  0
  6  8  1  0  0  0  0
  8 10  1  0  0  0  0
 10  9  1  6  0  0  0
 10 12  1  0  0  0  0
 10 11  1  0  0  0  0
 12 11  1  0  0  0  0
 14 13  1  0  0  0  0
 14 15  1  0  0  0  0
 15 16  1  0  0  0  0
 17 19  1  1  0  0  0
 17 16  1  0  0  0  0
 17 33  1  0  0  0  0
 18 19  2  0  0  0  0
 20 18  1  0  0  0  0
 21 27  1  1  0  0  0
 21 23  1  0  0  0  0
 21 22  1  0  0  0  0
 22 28  1  1  0  0  0
 23 20  1  6  0  0  0
 23 24  1  0  0  0  0
 23 22  1  0  0  0  0
 24 25  1  0  0  0  0
 26 27  1  0  0  0  0
 28 31  1  0  0  0  0
 30 29  1  0  0  0  0
 30 32  1  0  0  0  0
 31 30  2  0  0  0  0
 33 34  1  1  0  0  0
 35 39  1  0  0  0  0
 36 41  1  1  0  0  0
 36 40  1  0  0  0  0
 38 37  1  6  0  0  0
 38 35  1  0  0  0  0
 38 36  1  0  0  0  0
 39 40  1  0  0  0  0
 40 33  1  0  0  0  0
 42 41  1  0  0  0  0
 43  1  1  0  0  0  0
 44 43  1  0  0  0  0
 44 45  1  1  0  0  0
 46 44  1  0  0  0  0
 47 46  1  0  0  0  0
 48 47  1  1  0  0  0
 50 49  1  0  0  0  0
 50 51  2  0  0  0  0
 52 50  1  0  0  0  0
 53 52  1  0  0  0  0
 53 54  1  0  0  0  0
 54 48  1  1  0  0  0
 54 49  1  0  0  0  0
 55 57  1  6  0  0  0
 55 48  1  0  0  0  0
 57 56  1  0  0  0  0
 58 57  2  0  0  0  0
 59 55  1  0  0  0  0
 59 60  1  1  0  0  0
 61 59  1  0  0  0  0
 62 61  1  0  0  0  0
 63 62  2  0  0  0  0
 64 62  1  0  0  0  0
 65 64  1  0  0  0  0
 65 66  1  0  0  0  0
M  END
>  <MODEL>
2

>  <REMARK>
 VINA RESULT:      -5.2      1.372      1.950
  Name = 
  33 active torsions:
  status: ('A' for Active; 'I' for Inactive)
    1  A    between atoms: C_1  and  C_27
    2  A    between atoms: C_1  and  C_48
    3  A    between atoms: N_2  and  C_13
    4  A    between atoms: C_4  and  C_55
    5  A    between atoms: O_5  and  N_37
    6  A    between atoms: O_5  and  C_54
    7  A    between atoms: C_6  and  C_31
    8  A    between atoms: C_6  and  N_51
    9  A    between atoms: C_9  and  C_17
   10  A    between atoms: N_10  and  C_35
   11  A    between atoms: C_11  and  C_33
   12  A    between atoms: C_11  and  C_50
   13  A    between atoms: C_13  and  C_44
   14  A    between atoms: C_14  and  C_22
   15  A    between atoms: C_14  and  C_33
   16  A    between atoms: C_19  and  C_44
   17  A    between atoms: C_19  and  C_56
   18  A    between atoms: C_19  and  N_58
   19  A    between atoms: N_24  and  C_27
   20  A    between atoms: N_24  and  C_57
   21  A    between atoms: N_24  and  C_66
   22  A    between atoms: C_25  and  C_29
   23  A    between atoms: C_25  and  O_41
   24  A    between atoms: C_28  and  C_65
   25  A    between atoms: C_29  and  C_66
   26  A    between atoms: C_31  and  C_36
   27  A    between atoms: C_31  and  O_41
   28  A    between atoms: C_34  and  C_35
   29  A    between atoms: C_44  and  C_59
   30  A    between atoms: O_47  and  C_53
   31  A    between atoms: C_48  and  N_58
   32  A    between atoms: C_50  and  C_57
   33  A    between atoms: C_55  and  C_65
                            x       y       z     vdW  Elec       q    Type
                         _______ _______ _______ _____ _____    ______ ____

>  <TORSDO>
F 33

$$$$
=
 OpenBabel11062418223D

 66 69  0  0  1  0  0  0  0  0999 V2000
  190.1790  175.0710  145.0790 N   0  0  0  0  0  0  0  0  0  0  0  0
  190.9980  175.2630  143.8870 C   0  0  0  0  0  2  0  0  0  0  0  0
  190.5040  177.4200  142.9550 O   0  0  0  0  0  1  0  0  0  0  0  0
  191.4240  176.7170  143.7340 C   0  0  2  0  0  3  0  0  0  0  0  0
  192.8180  176.8110  143.1320 C   0  0  0  0  0  2  0  0  0  0  0  0
  193.7090  175.7130  143.7010 C   0  0  1  0  0  3  0  0  0  0  0  0
  194.1430  174.8700  142.6960 F   0  0  0  0  0  0  0  0  0  0  0  0
  194.8870  176.2820  144.4890 C   0  0  0  0  0  2  0  0  0  0  0  0
  195.5430  175.0930  146.6120 F   0  0  0  0  0  0  0  0  0  0  0  0
  194.7540  176.0410  145.9860 C   0  0  2  0  0  0  0  0  0  0  0  0
  193.4100  175.8920  146.3570 O   0  0  0  0  0  0  0  0  0  0  0  0
  194.0710  177.0480  146.8190 C   0  0  0  0  0  2  0  0  0  0  0  0
  190.2340  173.6490  145.3800 C   0  0  0  0  0  2  0  0  0  0  0  0
  190.3820  172.8540  144.1010 C   0  0  0  0  0  2  0  0  0  0  0  0
  191.3970  171.7560  144.3300 C   0  0  0  0  0  2  0  0  0  0  0  0
  192.3590  171.7730  143.3210 O   0  0  0  0  0  0  0  0  0  0  0  0
  192.7380  170.4360  143.1490 C   0  0  1  0  0  3  0  0  0  0  0  0
  192.1430  170.8530  140.7950 C   0  0  0  0  0  3  0  0  0  0  0  0
  192.8390  170.1460  141.6830 C   0  0  0  0  0  3  0  0  0  0  0  0
  192.2050  170.5180  139.3420 C   0  0  0  0  0  2  0  0  0  0  0  0
  194.5290  171.2940  138.6020 C   0  0  1  0  0  3  0  0  0  0  0  0
  193.9330  172.4030  139.4810 C   0  0  2  0  0  3  0  0  0  0  0  0
  193.0250  171.5620  138.5920 C   0  0  2  0  0  0  0  0  0  0  0  0
  192.4310  172.2040  137.3340 C   0  0  0  0  0  2  0  0  0  0  0  0
  190.9790  172.5930  137.5610 C   0  0  0  0  0  1  0  0  0  0  0  0
  195.7700  170.7070  136.8640 C   0  0  0  0  0  1  0  0  0  0  0  0
  195.1560  171.8110  137.4610 O   0  0  0  0  0  0  0  0  0  0  0  0
  194.1700  173.6950  138.9320 O   0  0  0  0  0  0  0  0  0  0  0  0
  196.0790  176.3130  140.7030 C   0  0  0  0  0  1  0  0  0  0  0  0
  195.7430  175.1940  139.7810 C   0  0  0  0  0  0  0  0  0  0  0  0
  194.5320  174.7360  139.7580 N   0  0  0  0  0  0  0  0  0  0  0  0
  196.8100  174.6140  138.9120 C   0  0  0  0  0  1  0  0  0  0  0  0
  194.0870  170.1360  143.8360 C   0  0  1  0  0  3  0  0  0  0  0  0
  194.9850  169.1810  143.0450 C   0  0  0  0  0  1  0  0  0  0  0  0
  196.2550  171.9080  145.9270 C   0  0  0  0  0  2  0  0  0  0  0  0
  196.0950  171.4990  143.6120 C   0  0  1  0  0  3  0  0  0  0  0  0
  197.9160  170.4170  144.8760 C   0  0  0  0  0  1  0  0  0  0  0  0
  197.1060  171.6860  144.7110 C   0  0  2  0  0  3  0  0  0  0  0  0
  194.9520  171.3250  145.6410 N   0  0  0  0  0  2  0  0  0  0  0  0
  194.7720  171.3750  144.2430 N   0  0  0  0  0  0  0  0  0  0  0  0
  196.1280  172.7250  142.7110 C   0  0  0  0  0  2  0  0  0  0  0  0
  197.2600  173.6520  143.1140 C   0  0  0  0  0  1  0  0  0  0  0  0
  188.8040  175.3670  144.7000 C   0  0  0  0  0  2  0  0  0  0  0  0
  188.0560  176.0070  145.8620 C   0  0  1  0  0  3  0  0  0  0  0  0
  188.9820  176.9320  146.6290 C   0  0  0  0  0  1  0  0  0  0  0  0
  186.8020  176.7430  145.3950 C   0  0  0  0  0  2  0  0  0  0  0  0
  187.1330  177.8330  144.4870 N   0  0  0  0  0  2  0  0  0  0  0  0
  186.1870  177.7880  143.3760 C   0  0  2  0  0  3  0  0  0  0  0  0
  187.4610  176.3470  141.6840 C   0  0  0  0  0  2  0  0  0  0  0  0
  187.2490  176.2390  140.2210 C   0  0  0  0  0  0  0  0  0  0  0  0
  187.8440  175.3140  139.4720 C   0  0  0  0  0  2  0  0  0  0  0  0
  186.4670  177.3640  139.6490 C   0  0  0  0  0  2  0  0  0  0  0  0
  185.9540  178.1050  140.8770 C   0  0  0  0  0  2  0  0  0  0  0  0
  186.8890  177.7210  142.0190 C   0  0  1  0  0  3  0  0  0  0  0  0
  185.1680  178.9350  143.4270 C   0  0  2  0  0  3  0  0  0  0  0  0
  185.8880  179.8250  145.7490 C   0  0  0  0  0  1  0  0  0  0  0  0
  185.6110  180.0790  144.3060 C   0  0  0  0  0  0  0  0  0  0  0  0
  185.7500  181.2040  143.8500 O   0  0  0  0  0  0  0  0  0  0  0  0
  183.7460  178.4110  143.7190 C   0  0  1  0  0  3  0  0  0  0  0  0
  183.3790  178.5260  145.1900 C   0  0  0  0  0  1  0  0  0  0  0  0
  182.7750  179.1910  142.9570 N   0  0  0  0  0  2  0  0  0  0  0  0
  182.0680  178.6880  141.8240 C   0  0  0  0  0  0  0  0  0  0  0  0
  182.1640  177.4790  141.4890 O   0  0  0  0  0  0  0  0  0  0  0  0
  181.1820  179.6000  141.0500 C   0  0  0  0  0  2  0  0  0  0  0  0
  179.7950  179.3830  141.4140 N   0  0  0  0  0  2  0  0  0  0  0  0
  179.0200  179.4080  140.1850 C   0  0  0  0  0  1  0  0  0  0  0  0
  1 13  1  0  0  0  0
  2  1  1  0  0  0  0
  4  3  1  6  0  0  0
  4  2  1  0  0  0  0
  5  6  1  0  0  0  0
  5  4  1  0  0  0  0
  6  7  1  6  0  0  0
  6  8  1  0  0  0  0
  8 10  1  0  0  0  0
 10 11  1  0  0  0  0
 10  9  1  1  0  0  0
 10 12  1  0  0  0  0
 11 12  1  0  0  0  0
 14 15  1  0  0  0  0
 14 13  1  0  0  0  0
 16 15  1  0  0  0  0
 17 19  1  6  0  0  0
 17 16  1  0  0  0  0
 17 33  1  0  0  0  0
 18 19  2  0  0  0  0
 20 18  1  0  0  0  0
 21 27  1  6  0  0  0
 21 22  1  0  0  0  0
 22 28  1  6  0  0  0
 23 24  1  6  0  0  0
 23 21  1  0  0  0  0
 23 20  1  0  0  0  0
 23 22  1  0  0  0  0
 24 25  1  0  0  0  0
 26 27  1  0  0  0  0
 28 31  1  0  0  0  0
 30 29  1  0  0  0  0
 31 30  2  0  0  0  0
 32 30  1  0  0  0  0
 33 34  1  6  0  0  0
 33 40  1  0  0  0  0
 36 41  1  6  0  0  0
 36 40  1  0  0  0  0
 36 38  1  0  0  0  0
 38 37  1  1  0  0  0
 38 35  1  0  0  0  0
 39 35  1  0  0  0  0
 40 39  1  0  0  0  0
 41 42  1  0  0  0  0
 43  1  1  0  0  0  0
 43 44  1  0  0  0  0
 44 45  1  6  0  0  0
 46 44  1  0  0  0  0
 47 46  1  0  0  0  0
 48 55  1  0  0  0  0
 48 47  1  1  0  0  0
 49 54  1  0  0  0  0
 50 49  1  0  0  0  0
 51 50  2  0  0  0  0
 52 50  1  0  0  0  0
 52 53  1  0  0  0  0
 53 54  1  0  0  0  0
 54 48  1  1  0  0  0
 55 59  1  0  0  0  0
 55 57  1  1  0  0  0
 57 56  1  0  0  0  0
 58 57  2  0  0  0  0
 59 60  1  1  0  0  0
 61 59  1  0  0  0  0
 62 61  1  0  0  0  0
 63 62  2  0  0  0  0
 64 65  1  0  0  0  0
 64 62  1  0  0  0  0
 66 65  1  0  0  0  0
M  END
>  <MODEL>
3

>  <REMARK>
 VINA RESULT:      -4.2      3.084      8.564
  Name = 
  33 active torsions:
  status: ('A' for Active; 'I' for Inactive)
    1  A    between atoms: C_1  and  C_27
    2  A    between atoms: C_1  and  C_48
    3  A    between atoms: N_2  and  C_13
    4  A    between atoms: C_4  and  C_55
    5  A    between atoms: O_5  and  N_37
    6  A    between atoms: O_5  and  C_54
    7  A    between atoms: C_6  and  C_31
    8  A    between atoms: C_6  and  N_51
    9  A    between atoms: C_9  and  C_17
   10  A    between atoms: N_10  and  C_35
   11  A    between atoms: C_11  and  C_33
   12  A    between atoms: C_11  and  C_50
   13  A    between atoms: C_13  and  C_44
   14  A    between atoms: C_14  and  C_22
   15  A    between atoms: C_14  and  C_33
   16  A    between atoms: C_19  and  C_44
   17  A    between atoms: C_19  and  C_56
   18  A    between atoms: C_19  and  N_58
   19  A    between atoms: N_24  and  C_27
   20  A    between atoms: N_24  and  C_57
   21  A    between atoms: N_24  and  C_66
   22  A    between atoms: C_25  and  C_29
   23  A    between atoms: C_25  and  O_41
   24  A    between atoms: C_28  and  C_65
   25  A    between atoms: C_29  and  C_66
   26  A    between atoms: C_31  and  C_36
   27  A    between atoms: C_31  and  O_41
   28  A    between atoms: C_34  and  C_35
   29  A    between atoms: C_44  and  C_59
   30  A    between atoms: O_47  and  C_53
   31  A    between atoms: C_48  and  N_58
   32  A    between atoms: C_50  and  C_57
   33  A    between atoms: C_55  and  C_65
                            x       y       z     vdW  Elec       q    Type
                         _______ _______ _______ _____ _____    ______ ____

>  <TORSDO>
F 33

$$$$
=
 OpenBabel11062418223D

 66 69  0  0  1  0  0  0  0  0999 V2000
  190.4800  174.9000  144.9520 N   0  0  0  0  0  0  0  0  0  0  0  0
  191.2230  174.9940  143.7000 C   0  0  0  0  0  2  0  0  0  0  0  0
  192.3010  177.1220  143.4210 O   0  0  0  0  0  1  0  0  0  0  0  0
  192.4950  175.8150  143.8690 C   0  0  2  0  0  3  0  0  0  0  0  0
  193.6590  175.1640  143.1370 C   0  0  0  0  0  2  0  0  0  0  0  0
  194.9000  176.0430  143.2440 C   0  0  1  0  0  3  0  0  0  0  0  0
  195.8790  175.4130  143.9890 F   0  0  0  0  0  0  0  0  0  0  0  0
  195.4330  176.4510  141.8720 C   0  0  0  0  0  2  0  0  0  0  0  0
  196.6570  174.2510  141.9790 F   0  0  0  0  0  0  0  0  0  0  0  0
  196.3820  175.4160  141.2860 C   0  0  2  0  0  0  0  0  0  0  0  0
  197.5660  176.0150  140.8320 O   0  0  0  0  0  0  0  0  0  0  0  0
  196.7110  175.4740  139.8500 C   0  0  0  0  0  2  0  0  0  0  0  0
  190.1740  173.4900  145.1330 C   0  0  0  0  0  2  0  0  0  0  0  0
  190.2050  172.7780  143.7980 C   0  0  0  0  0  2  0  0  0  0  0  0
  190.8840  171.4380  143.9810 C   0  0  0  0  0  2  0  0  0  0  0  0
  191.7870  171.2110  142.9430 O   0  0  0  0  0  0  0  0  0  0  0  0
  191.6120  169.8680  142.5890 C   0  0  1  0  0  3  0  0  0  0  0  0
  190.8960  170.8740  140.4570 C   0  0  0  0  0  3  0  0  0  0  0  0
  191.2830  169.7930  141.1280 C   0  0  0  0  0  3  0  0  0  0  0  0
  190.5140  170.7770  139.0170 C   0  0  0  0  0  2  0  0  0  0  0  0
  191.8300  170.8670  136.8230 C   0  0  1  0  0  3  0  0  0  0  0  0
  192.8500  170.8560  137.9710 C   0  0  2  0  0  3  0  0  0  0  0  0
  191.5050  171.5480  138.1520 C   0  0  2  0  0  0  0  0  0  0  0  0
  191.4640  173.0790  138.1690 C   0  0  0  0  0  2  0  0  0  0  0  0
  190.2550  173.5950  137.4050 C   0  0  0  0  0  1  0  0  0  0  0  0
  191.7010  171.2320  134.6430 C   0  0  0  0  0  1  0  0  0  0  0  0
  192.1680  171.7970  135.8330 O   0  0  0  0  0  0  0  0  0  0  0  0
  193.9040  171.7870  137.7480 O   0  0  0  0  0  0  0  0  0  0  0  0
  196.7770  171.6000  140.0600 C   0  0  0  0  0  1  0  0  0  0  0  0
  195.4120  171.8570  139.5270 C   0  0  0  0  0  0  0  0  0  0  0  0
  195.1480  171.5600  138.2950 N   0  0  0  0  0  0  0  0  0  0  0  0
  194.3790  172.4650  140.4180 C   0  0  0  0  0  1  0  0  0  0  0  0
  192.8750  169.0340  142.8840 C   0  0  1  0  0  3  0  0  0  0  0  0
  193.9040  169.0470  141.7500 C   0  0  0  0  0  1  0  0  0  0  0  0
  194.7490  168.2320  145.7230 C   0  0  0  0  0  2  0  0  0  0  0  0
  194.8170  169.9090  144.0700 C   0  0  1  0  0  3  0  0  0  0  0  0
  196.5770  168.1800  144.0660 C   0  0  0  0  0  1  0  0  0  0  0  0
  195.7150  169.0690  144.9380 C   0  0  2  0  0  3  0  0  0  0  0  0
  193.5110  168.1890  144.9590 N   0  0  0  0  0  2  0  0  0  0  0  0
  193.4530  169.3740  144.1960 N   0  0  0  0  0  0  0  0  0  0  0  0
  194.8610  171.3440  144.5730 C   0  0  0  0  0  2  0  0  0  0  0  0
  196.2070  171.9750  144.2670 C   0  0  0  0  0  1  0  0  0  0  0  0
  189.2100  175.5820  144.7420 C   0  0  0  0  0  2  0  0  0  0  0  0
  188.8400  176.4110  145.9660 C   0  0  1  0  0  3  0  0  0  0  0  0
  189.9950  177.3180  146.3450 C   0  0  0  0  0  1  0  0  0  0  0  0
  187.5580  177.2090  145.7460 C   0  0  0  0  0  2  0  0  0  0  0  0
  187.6940  178.1340  144.6270 N   0  0  0  0  0  2  0  0  0  0  0  0
  186.7060  177.7580  143.6190 C   0  0  2  0  0  3  0  0  0  0  0  0
  187.7240  176.2020  141.8590 C   0  0  0  0  0  2  0  0  0  0  0  0
  187.4210  176.1260  140.4100 C   0  0  0  0  0  0  0  0  0  0  0  0
  187.8720  175.1470  139.6280 C   0  0  0  0  0  2  0  0  0  0  0  0
  186.7320  177.3300  139.8830 C   0  0  0  0  0  2  0  0  0  0  0  0
  186.3700  178.1140  141.1370 C   0  0  0  0  0  2  0  0  0  0  0  0
  187.3200  177.6260  142.2250 C   0  0  1  0  0  3  0  0  0  0  0  0
  185.4900  178.6970  143.6130 C   0  0  2  0  0  3  0  0  0  0  0  0
  185.6540  180.0320  145.8250 C   0  0  0  0  0  1  0  0  0  0  0  0
  185.7450  179.9960  144.3370 C   0  0  0  0  0  0  0  0  0  0  0  0
  186.0270  181.0130  143.7220 O   0  0  0  0  0  0  0  0  0  0  0  0
  184.2070  177.9570  144.0460 C   0  0  1  0  0  3  0  0  0  0  0  0
  184.0520  177.9070  145.5580 C   0  0  0  0  0  1  0  0  0  0  0  0
  183.0410  178.6480  143.5030 N   0  0  0  0  0  2  0  0  0  0  0  0
  182.5840  178.4960  142.1600 C   0  0  0  0  0  0  0  0  0  0  0  0
  183.1090  177.6480  141.3920 O   0  0  0  0  0  0  0  0  0  0  0  0
  181.4510  179.3310  141.6730 C   0  0  0  0  0  2  0  0  0  0  0  0
  180.1880  178.6630  141.9270 N   0  0  0  0  0  2  0  0  0  0  0  0
  179.6970  178.1750  140.6500 C   0  0  0  0  0  1  0  0  0  0  0  0
  1 13  1  0  0  0  0
  2  4  1  0  0  0  0
  2  1  1  0  0  0  0
  4  3  1  6  0  0  0
  5  6  1  0  0  0  0
  5  4  1  0  0  0  0
  6  7  1  6  0  0  0
  8  6  1  0  0  0  0
 10  8  1  0  0  0  0
 10  9  1  1  0  0  0
 11 10  1  0  0  0  0
 12 11  1  0  0  0  0
 12 10  1  0  0  0  0
 14 15  1  0  0  0  0
 14 13  1  0  0  0  0
 16 15  1  0  0  0  0
 17 19  1  6  0  0  0
 17 33  1  0  0  0  0
 17 16  1  0  0  0  0
 18 19  2  0  0  0  0
 20 18  1  0  0  0  0
 21 27  1  6  0  0  0
 21 22  1  0  0  0  0
 21 23  1  0  0  0  0
 22 28  1  6  0  0  0
 22 23  1  0  0  0  0
 23 24  1  1  0  0  0
 23 20  1  0  0  0  0
 25 24  1  0  0  0  0
 26 27  1  0  0  0  0
 28 31  1  0  0  0  0
 30 29  1  0  0  0  0
 30 32  1  0  0  0  0
 31 30  2  0  0  0  0
 33 34  1  6  0  0  0
 33 40  1  0  0  0  0
 36 40  1  0  0  0  0
 36 41  1  1  0  0  0
 36 38  1  0  0  0  0
 38 37  1  6  0  0  0
 38 35  1  0  0  0  0
 39 35  1  0  0  0  0
 40 39  1  0  0  0  0
 42 41  1  0  0  0  0
 43  1  1  0  0  0  0
 43 44  1  0  0  0  0
 44 45  1  6  0  0  0
 46 44  1  0  0  0  0
 47 46  1  0  0  0  0
 48 47  1  1  0  0  0
 49 54  1  0  0  0  0
 50 49  1  0  0  0  0
 51 50  2  0  0  0  0
 52 50  1  0  0  0  0
 52 53  1  0  0  0  0
 53 54  1  0  0  0  0
 54 48  1  1  0  0  0
 55 48  1  0  0  0  0
 55 59  1  0  0  0  0
 55 57  1  1  0  0  0
 57 56  1  0  0  0  0
 58 57  2  0  0  0  0
 59 60  1  1  0  0  0
 61 59  1  0  0  0  0
 62 61  1  0  0  0  0
 63 62  2  0  0  0  0
 64 65  1  0  0  0  0
 64 62  1  0  0  0  0
 66 65  1  0  0  0  0
M  END
>  <MODEL>
4

>  <REMARK>
 VINA RESULT:      -3.9      3.192      9.044
  Name = 
  33 active torsions:
  status: ('A' for Active; 'I' for Inactive)
    1  A    between atoms: C_1  and  C_27
    2  A    between atoms: C_1  and  C_48
    3  A    between atoms: N_2  and  C_13
    4  A    between atoms: C_4  and  C_55
    5  A    between atoms: O_5  and  N_37
    6  A    between atoms: O_5  and  C_54
    7  A    between atoms: C_6  and  C_31
    8  A    between atoms: C_6  and  N_51
    9  A    between atoms: C_9  and  C_17
   10  A    between atoms: N_10  and  C_35
   11  A    between atoms: C_11  and  C_33
   12  A    between atoms: C_11  and  C_50
   13  A    between atoms: C_13  and  C_44
   14  A    between atoms: C_14  and  C_22
   15  A    between atoms: C_14  and  C_33
   16  A    between atoms: C_19  and  C_44
   17  A    between atoms: C_19  and  C_56
   18  A    between atoms: C_19  and  N_58
   19  A    between atoms: N_24  and  C_27
   20  A    between atoms: N_24  and  C_57
   21  A    between atoms: N_24  and  C_66
   22  A    between atoms: C_25  and  C_29
   23  A    between atoms: C_25  and  O_41
   24  A    between atoms: C_28  and  C_65
   25  A    between atoms: C_29  and  C_66
   26  A    between atoms: C_31  and  C_36
   27  A    between atoms: C_31  and  O_41
   28  A    between atoms: C_34  and  C_35
   29  A    between atoms: C_44  and  C_59
   30  A    between atoms: O_47  and  C_53
   31  A    between atoms: C_48  and  N_58
   32  A    between atoms: C_50  and  C_57
   33  A    between atoms: C_55  and  C_65
                            x       y       z     vdW  Elec       q    Type
                         _______ _______ _______ _____ _____    ______ ____

>  <TORSDO>
F 33

$$$$
=
 OpenBabel11062418223D

 66 69  0  0  1  0  0  0  0  0999 V2000
  188.1450  176.1410  141.6330 N   0  0  0  0  0  0  0  0  0  0  0  0
  186.7680  176.4010  141.2260 C   0  0  0  0  0  2  0  0  0  0  0  0
  187.5030  178.5990  141.8530 O   0  0  0  0  0  1  0  0  0  0  0  0
  186.3980  177.8650  141.4220 C   0  0  2  0  0  3  0  0  0  0  0  0
  185.2450  178.0040  142.4050 C   0  0  0  0  0  2  0  0  0  0  0  0
  185.7830  178.1780  143.8210 C   0  0  1  0  0  3  0  0  0  0  0  0
  185.1540  179.2320  144.4540 F   0  0  0  0  0  0  0  0  0  0  0  0
  185.6650  176.8950  144.6410 C   0  0  0  0  0  2  0  0  0  0  0  0
  184.8860  177.5980  146.9320 F   0  0  0  0  0  0  0  0  0  0  0  0
  185.9070  177.1310  146.1250 C   0  0  2  0  0  0  0  0  0  0  0  0
  187.0820  177.8660  146.3350 O   0  0  0  0  0  0  0  0  0  0  0  0
  187.0890  176.5240  146.7660 C   0  0  0  0  0  2  0  0  0  0  0  0
  188.7720  175.4520  140.5160 C   0  0  0  0  0  2  0  0  0  0  0  0
  187.8920  174.3140  140.0500 C   0  0  0  0  0  2  0  0  0  0  0  0
  188.7640  173.1060  139.7850 C   0  0  0  0  0  2  0  0  0  0  0  0
  189.9420  173.4950  139.1470 O   0  0  0  0  0  0  0  0  0  0  0  0
  189.7460  173.1920  137.7940 C   0  0  1  0  0  3  0  0  0  0  0  0
  190.7150  174.0830  135.7120 C   0  0  0  0  0  3  0  0  0  0  0  0
  190.8700  173.7820  136.9990 C   0  0  0  0  0  3  0  0  0  0  0  0
  191.8590  174.6150  134.9130 C   0  0  0  0  0  2  0  0  0  0  0  0
  194.2720  173.9570  135.4550 C   0  0  1  0  0  3  0  0  0  0  0  0
  193.4210  173.6480  136.6950 C   0  0  2  0  0  3  0  0  0  0  0  0
  193.0720  174.8360  135.8080 C   0  0  2  0  0  0  0  0  0  0  0  0
  193.3610  176.2480  136.3260 C   0  0  0  0  0  2  0  0  0  0  0  0
  192.5660  177.2820  135.5450 C   0  0  0  0  0  1  0  0  0  0  0  0
  195.9590  175.1000  134.5880 C   0  0  0  0  0  1  0  0  0  0  0  0
  195.4830  174.5730  135.7920 O   0  0  0  0  0  0  0  0  0  0  0  0
  194.0740  174.0500  137.8950 O   0  0  0  0  0  0  0  0  0  0  0  0
  197.2940  173.1060  139.4350 C   0  0  0  0  0  1  0  0  0  0  0  0
  196.1420  173.9230  138.9670 C   0  0  0  0  0  0  0  0  0  0  0  0
  195.1590  173.3400  138.3580 N   0  0  0  0  0  0  0  0  0  0  0  0
  196.1480  175.3990  139.1970 C   0  0  0  0  0  1  0  0  0  0  0  0
  189.6820  171.6690  137.5580 C   0  0  1  0  0  3  0  0  0  0  0  0
  190.0350  171.2480  136.1290 C   0  0  0  0  0  1  0  0  0  0  0  0
  190.5880  168.7080  139.1800 C   0  0  0  0  0  2  0  0  0  0  0  0
  191.7270  170.4440  138.0670 C   0  0  1  0  0  3  0  0  0  0  0  0
  191.6030  168.2340  136.9810 C   0  0  0  0  0  1  0  0  0  0  0  0
  191.7770  168.9590  138.2990 C   0  0  2  0  0  3  0  0  0  0  0  0
  189.6670  169.8150  138.9670 N   0  0  0  0  0  2  0  0  0  0  0  0
  190.4390  170.9310  138.5840 N   0  0  0  0  0  0  0  0  0  0  0  0
  192.8720  171.0920  138.8330 C   0  0  0  0  0  2  0  0  0  0  0  0
  193.9230  170.0590  139.1950 C   0  0  0  0  0  1  0  0  0  0  0  0
  188.0870  175.1890  142.7340 C   0  0  0  0  0  2  0  0  0  0  0  0
  189.4910  174.8050  143.1830 C   0  0  1  0  0  3  0  0  0  0  0  0
  190.0810  175.9090  144.0400 C   0  0  0  0  0  1  0  0  0  0  0  0
  189.5090  173.4660  143.9150 C   0  0  0  0  0  2  0  0  0  0  0  0
  190.7760  173.2530  144.6020 N   0  0  0  0  0  2  0  0  0  0  0  0
  191.7000  172.6410  143.6490 C   0  0  2  0  0  3  0  0  0  0  0  0
  191.7470  170.3770  142.4530 C   0  0  0  0  0  2  0  0  0  0  0  0
  192.6360  169.2190  142.7080 C   0  0  0  0  0  0  0  0  0  0  0  0
  192.7000  168.1660  141.8970 C   0  0  0  0  0  2  0  0  0  0  0  0
  193.3010  169.2610  144.0340 C   0  0  0  0  0  2  0  0  0  0  0  0
  192.9890  170.6590  144.5480 C   0  0  0  0  0  2  0  0  0  0  0  0
  191.7510  171.1190  143.7860 C   0  0  1  0  0  3  0  0  0  0  0  0
  193.1030  173.2610  143.7150 C   0  0  2  0  0  3  0  0  0  0  0  0
  193.0590  174.5850  145.9390 C   0  0  0  0  0  1  0  0  0  0  0  0
  193.1330  174.5780  144.4500 C   0  0  0  0  0  0  0  0  0  0  0  0
  193.2200  175.6350  143.8420 O   0  0  0  0  0  0  0  0  0  0  0  0
  193.7720  173.2830  142.3250 C   0  0  1  0  0  3  0  0  0  0  0  0
  193.1200  174.2860  141.3860 C   0  0  0  0  0  1  0  0  0  0  0  0
  195.1770  173.6570  142.4680 N   0  0  0  0  0  2  0  0  0  0  0  0
  196.1940  172.7640  142.9190 C   0  0  0  0  0  0  0  0  0  0  0  0
  195.9430  171.5460  143.1100 O   0  0  0  0  0  0  0  0  0  0  0  0
  197.5750  173.2760  143.1360 C   0  0  0  0  0  2  0  0  0  0  0  0
  197.9410  173.1570  144.5350 N   0  0  0  0  0  2  0  0  0  0  0  0
  197.0480  174.0220  145.2880 C   0  0  0  0  0  1  0  0  0  0  0  0
  1 43  1  0  0  0  0
  2  4  1  0  0  0  0
  2  1  1  0  0  0  0
  4  3  1  1  0  0  0
  4  5  1  0  0  0  0
  5  6  1  0  0  0  0
  6  7  1  1  0  0  0
  6  8  1  0  0  0  0
  8 10  1  0  0  0  0
 10 11  1  0  0  0  0
 10 12  1  0  0  0  0
 10  9  1  1  0  0  0
 11 12  1  0  0  0  0
 13  1  1  0  0  0  0
 14 13  1  0  0  0  0
 15 14  1  0  0  0  0
 16 15  1  0  0  0  0
 17 19  1  6  0  0  0
 17 16  1  0  0  0  0
 18 19  2  0  0  0  0
 20 18  1  0  0  0  0
 21 27  1  1  0  0  0
 21 23  1  0  0  0  0
 21 22  1  0  0  0  0
 22 28  1  1  0  0  0
 23 20  1  6  0  0  0
 23 24  1  0  0  0  0
 23 22  1  0  0  0  0
 25 24  1  0  0  0  0
 26 27  1  0  0  0  0
 28 31  1  0  0  0  0
 30 32  1  0  0  0  0
 30 29  1  0  0  0  0
 31 30  2  0  0  0  0
 33 34  1  6  0  0  0
 33 17  1  0  0  0  0
 33 40  1  0  0  0  0
 36 38  1  0  0  0  0
 36 40  1  0  0  0  0
 36 41  1  1  0  0  0
 38 37  1  6  0  0  0
 38 35  1  0  0  0  0
 39 35  1  0  0  0  0
 40 39  1  0  0  0  0
 41 42  1  0  0  0  0
 43 44  1  0  0  0  0
 44 46  1  0  0  0  0
 44 45  1  1  0  0  0
 46 47  1  0  0  0  0
 48 55  1  0  0  0  0
 48 47  1  1  0  0  0
 49 50  1  0  0  0  0
 49 54  1  0  0  0  0
 50 52  1  0  0  0  0
 51 50  2  0  0  0  0
 52 53  1  0  0  0  0
 54 48  1  6  0  0  0
 54 53  1  0  0  0  0
 55 57  1  6  0  0  0
 57 56  1  0  0  0  0
 58 57  2  0  0  0  0
 59 60  1  6  0  0  0
 59 61  1  0  0  0  0
 59 55  1  0  0  0  0
 61 62  1  0  0  0  0
 62 63  2  0  0  0  0
 62 64  1  0  0  0  0
 64 65  1  0  0  0  0
 65 66  1  0  0  0  0
M  END
>  <MODEL>
5

>  <REMARK>
 VINA RESULT:      -3.8      2.037      6.348
  Name = 
  33 active torsions:
  status: ('A' for Active; 'I' for Inactive)
    1  A    between atoms: C_1  and  C_27
    2  A    between atoms: C_1  and  C_48
    3  A    between atoms: N_2  and  C_13
    4  A    between atoms: C_4  and  C_55
    5  A    between atoms: O_5  and  N_37
    6  A    between atoms: O_5  and  C_54
    7  A    between atoms: C_6  and  C_31
    8  A    between atoms: C_6  and  N_51
    9  A    between atoms: C_9  and  C_17
   10  A    between atoms: N_10  and  C_35
   11  A    between atoms: C_11  and  C_33
   12  A    between atoms: C_11  and  C_50
   13  A    between atoms: C_13  and  C_44
   14  A    between atoms: C_14  and  C_22
   15  A    between atoms: C_14  and  C_33
   16  A    between atoms: C_19  and  C_44
   17  A    between atoms: C_19  and  C_56
   18  A    between atoms: C_19  and  N_58
   19  A    between atoms: N_24  and  C_27
   20  A    between atoms: N_24  and  C_57
   21  A    between atoms: N_24  and  C_66
   22  A    between atoms: C_25  and  C_29
   23  A    between atoms: C_25  and  O_41
   24  A    between atoms: C_28  and  C_65
   25  A    between atoms: C_29  and  C_66
   26  A    between atoms: C_31  and  C_36
   27  A    between atoms: C_31  and  O_41
   28  A    between atoms: C_34  and  C_35
   29  A    between atoms: C_44  and  C_59
   30  A    between atoms: O_47  and  C_53
   31  A    between atoms: C_48  and  N_58
   32  A    between atoms: C_50  and  C_57
   33  A    between atoms: C_55  and  C_65
                            x       y       z     vdW  Elec       q    Type
                         _______ _______ _______ _____ _____    ______ ____

>  <TORSDO>
F 33

$$$$
=
 OpenBabel11062418223D

 66 69  0  0  1  0  0  0  0  0999 V2000
  189.7370  173.0710  143.4050 N   0  0  0  0  0  0  0  0  0  0  0  0
  190.4940  173.3850  144.6130 C   0  0  0  0  0  2  0  0  0  0  0  0
  192.8710  173.1450  144.3710 O   0  0  0  0  0  1  0  0  0  0  0  0
  191.8190  174.0570  144.2780 C   0  0  2  0  0  3  0  0  0  0  0  0
  192.0640  175.2530  145.1860 C   0  0  0  0  0  2  0  0  0  0  0  0
  192.9450  176.2760  144.4790 C   0  0  1  0  0  3  0  0  0  0  0  0
  192.2170  177.4070  144.1620 F   0  0  0  0  0  0  0  0  0  0  0  0
  194.1830  176.6310  145.2980 C   0  0  0  0  0  2  0  0  0  0  0  0
  196.2300  177.3150  143.9960 F   0  0  0  0  0  0  0  0  0  0  0  0
  195.4760  176.3040  144.5650 C   0  0  2  0  0  0  0  0  0  0  0  0
  195.2910  175.2510  143.6570 O   0  0  0  0  0  0  0  0  0  0  0  0
  196.1090  174.9880  144.7740 C   0  0  0  0  0  2  0  0  0  0  0  0
  190.2360  171.7850  142.9420 C   0  0  0  0  0  2  0  0  0  0  0  0
  189.6910  171.4860  141.5620 C   0  0  0  0  0  2  0  0  0  0  0  0
  190.7300  170.7000  140.7920 C   0  0  0  0  0  2  0  0  0  0  0  0
  191.4480  169.8770  141.6590 O   0  0  0  0  0  0  0  0  0  0  0  0
  192.3100  169.1390  140.8370 C   0  0  1  0  0  3  0  0  0  0  0  0
  192.1630  170.0130  138.5380 C   0  0  0  0  0  3  0  0  0  0  0  0
  191.7560  169.1270  139.4440 C   0  0  0  0  0  3  0  0  0  0  0  0
  191.5630  170.0310  137.1710 C   0  0  0  0  0  2  0  0  0  0  0  0
  193.9440  170.8570  136.7230 C   0  0  1  0  0  3  0  0  0  0  0  0
  193.0010  172.0580  136.5570 C   0  0  2  0  0  3  0  0  0  0  0  0
  192.5310  170.6600  136.1760 C   0  0  2  0  0  0  0  0  0  0  0  0
  192.3910  170.3120  134.6900 C   0  0  0  0  0  2  0  0  0  0  0  0
  191.7610  168.9400  134.5140 C   0  0  0  0  0  1  0  0  0  0  0  0
  196.0770  170.3950  136.3510 C   0  0  0  0  0  1  0  0  0  0  0  0
  194.9060  170.8030  135.7070 O   0  0  0  0  0  0  0  0  0  0  0  0
  193.3390  172.8380  135.4140 O   0  0  0  0  0  0  0  0  0  0  0  0
  193.8770  176.4860  135.5930 C   0  0  0  0  0  1  0  0  0  0  0  0
  193.2120  175.1680  135.4160 C   0  0  0  0  0  0  0  0  0  0  0  0
  193.9030  174.0840  135.5760 N   0  0  0  0  0  0  0  0  0  0  0  0
  191.7660  175.1190  135.0460 C   0  0  0  0  0  1  0  0  0  0  0  0
  193.7330  169.7340  140.8290 C   0  0  1  0  0  3  0  0  0  0  0  0
  193.7830  171.2230  141.1820 C   0  0  0  0  0  1  0  0  0  0  0  0
  196.8370  168.2060  141.3230 C   0  0  0  0  0  2  0  0  0  0  0  0
  195.5030  169.7450  142.5050 C   0  0  1  0  0  3  0  0  0  0  0  0
  197.5760  170.5570  141.4440 C   0  0  0  0  0  1  0  0  0  0  0  0
  196.9390  169.4140  142.2070 C   0  0  2  0  0  3  0  0  0  0  0  0
  195.5090  168.2310  140.7280 N   0  0  0  0  0  2  0  0  0  0  0  0
  194.6640  168.9170  141.6260 N   0  0  0  0  0  0  0  0  0  0  0  0
  195.2210  169.4070  143.9620 C   0  0  0  0  0  2  0  0  0  0  0  0
  193.8360  168.8040  144.1110 C   0  0  0  0  0  1  0  0  0  0  0  0
  190.1160  174.0550  142.4000 C   0  0  0  0  0  2  0  0  0  0  0  0
  188.8990  174.8510  141.9470 C   0  0  1  0  0  3  0  0  0  0  0  0
  188.7300  174.7270  140.4450 C   0  0  0  0  0  1  0  0  0  0  0  0
  187.6330  174.4240  142.6840 C   0  0  0  0  0  2  0  0  0  0  0  0
  186.7970  175.5710  143.0120 N   0  0  0  0  0  2  0  0  0  0  0  0
  187.6810  176.6750  143.3780 C   0  0  2  0  0  3  0  0  0  0  0  0
  189.2410  177.5680  145.2020 C   0  0  0  0  0  2  0  0  0  0  0  0
  189.1960  177.3100  146.6600 C   0  0  0  0  0  0  0  0  0  0  0  0
  189.9410  177.9820  147.5350 C   0  0  0  0  0  2  0  0  0  0  0  0
  188.3900  176.1200  147.0290 C   0  0  0  0  0  2  0  0  0  0  0  0
  187.6910  175.7440  145.7300 C   0  0  0  0  0  2  0  0  0  0  0  0
  188.5260  176.3560  144.6110 C   0  0  1  0  0  3  0  0  0  0  0  0
  186.9250  178.0020  143.5390 C   0  0  2  0  0  3  0  0  0  0  0  0
  185.8620  179.0560  145.6510 C   0  0  0  0  0  1  0  0  0  0  0  0
  185.8930  177.9620  144.6390 C   0  0  0  0  0  0  0  0  0  0  0  0
  185.0830  177.0490  144.7080 O   0  0  0  0  0  0  0  0  0  0  0  0
  186.4020  178.5190  142.1830 C   0  0  1  0  0  3  0  0  0  0  0  0
  187.2550  178.0450  141.0170 C   0  0  0  0  0  1  0  0  0  0  0  0
  185.0430  178.0280  141.9670 N   0  0  0  0  0  2  0  0  0  0  0  0
  184.2380  178.3900  140.8470 C   0  0  0  0  0  0  0  0  0  0  0  0
  184.7140  179.0760  139.9060 O   0  0  0  0  0  0  0  0  0  0  0  0
  182.8260  177.9220  140.7790 C   0  0  0  0  0  2  0  0  0  0  0  0
  182.0660  178.4530  141.8960 N   0  0  0  0  0  2  0  0  0  0  0  0
  180.6630  178.4070  141.5200 C   0  0  0  0  0  1  0  0  0  0  0  0
  1  2  1  0  0  0  0
  4  3  1  1  0  0  0
  4  2  1  0  0  0  0
  4  5  1  0  0  0  0
  6  7  1  1  0  0  0
  6  5  1  0  0  0  0
  6  8  1  0  0  0  0
 10  9  1  6  0  0  0
 10 12  1  0  0  0  0
 10  8  1  0  0  0  0
 11 10  1  0  0  0  0
 11 12  1  0  0  0  0
 13  1  1  0  0  0  0
 14 13  1  0  0  0  0
 15 14  1  0  0  0  0
 15 16  1  0  0  0  0
 17 19  1  6  0  0  0
 17 16  1  0  0  0  0
 18 19  2  0  0  0  0
 20 18  1  0  0  0  0
 21 27  1  6  0  0  0
 22 28  1  6  0  0  0
 22 21  1  0  0  0  0
 23 24  1  6  0  0  0
 23 22  1  0  0  0  0
 23 21  1  0  0  0  0
 23 20  1  0  0  0  0
 25 24  1  0  0  0  0
 27 26  1  0  0  0  0
 28 31  1  0  0  0  0
 30 31  2  0  0  0  0
 30 29  1  0  0  0  0
 32 30  1  0  0  0  0
 33 17  1  0  0  0  0
 33 34  1  1  0  0  0
 33 40  1  0  0  0  0
 35 38  1  0  0  0  0
 36 41  1  1  0  0  0
 38 37  1  6  0  0  0
 38 36  1  0  0  0  0
 39 35  1  0  0  0  0
 39 40  1  0  0  0  0
 40 36  1  0  0  0  0
 41 42  1  0  0  0  0
 43  1  1  0  0  0  0
 44 45  1  6  0  0  0
 44 43  1  0  0  0  0
 44 46  1  0  0  0  0
 46 47  1  0  0  0  0
 48 47  1  1  0  0  0
 48 55  1  0  0  0  0
 49 50  1  0  0  0  0
 50 52  1  0  0  0  0
 50 51  2  0  0  0  0
 53 52  1  0  0  0  0
 54 48  1  6  0  0  0
 54 49  1  0  0  0  0
 54 53  1  0  0  0  0
 55 57  1  1  0  0  0
 57 58  2  0  0  0  0
 57 56  1  0  0  0  0
 59 60  1  6  0  0  0
 59 55  1  0  0  0  0
 61 59  1  0  0  0  0
 62 61  1  0  0  0  0
 63 62  2  0  0  0  0
 64 62  1  0  0  0  0
 64 65  1  0  0  0  0
 66 65  1  0  0  0  0
M  END
>  <MODEL>
6

>  <REMARK>
 VINA RESULT:      -3.8      3.117      9.041
  Name = 
  33 active torsions:
  status: ('A' for Active; 'I' for Inactive)
    1  A    between atoms: C_1  and  C_27
    2  A    between atoms: C_1  and  C_48
    3  A    between atoms: N_2  and  C_13
    4  A    between atoms: C_4  and  C_55
    5  A    between atoms: O_5  and  N_37
    6  A    between atoms: O_5  and  C_54
    7  A    between atoms: C_6  and  C_31
    8  A    between atoms: C_6  and  N_51
    9  A    between atoms: C_9  and  C_17
   10  A    between atoms: N_10  and  C_35
   11  A    between atoms: C_11  and  C_33
   12  A    between atoms: C_11  and  C_50
   13  A    between atoms: C_13  and  C_44
   14  A    between atoms: C_14  and  C_22
   15  A    between atoms: C_14  and  C_33
   16  A    between atoms: C_19  and  C_44
   17  A    between atoms: C_19  and  C_56
   18  A    between atoms: C_19  and  N_58
   19  A    between atoms: N_24  and  C_27
   20  A    between atoms: N_24  and  C_57
   21  A    between atoms: N_24  and  C_66
   22  A    between atoms: C_25  and  C_29
   23  A    between atoms: C_25  and  O_41
   24  A    between atoms: C_28  and  C_65
   25  A    between atoms: C_29  and  C_66
   26  A    between atoms: C_31  and  C_36
   27  A    between atoms: C_31  and  O_41
   28  A    between atoms: C_34  and  C_35
   29  A    between atoms: C_44  and  C_59
   30  A    between atoms: O_47  and  C_53
   31  A    between atoms: C_48  and  N_58
   32  A    between atoms: C_50  and  C_57
   33  A    between atoms: C_55  and  C_65
                            x       y       z     vdW  Elec       q    Type
                         _______ _______ _______ _____ _____    ______ ____

>  <TORSDO>
F 33

$$$$
=
 OpenBabel11062418223D

 66 69  0  0  1  0  0  0  0  0999 V2000
  191.4590  173.0800  140.5780 N   0  0  0  0  0  0  0  0  0  0  0  0
  192.0760  171.7590  140.6420 C   0  0  0  0  0  2  0  0  0  0  0  0
  190.5240  170.0330  141.2550 O   0  0  0  0  0  1  0  0  0  0  0  0
  191.1170  170.6760  140.1680 C   0  0  2  0  0  3  0  0  0  0  0  0
  191.8330  169.6720  139.2770 C   0  0  0  0  0  2  0  0  0  0  0  0
  191.5450  169.9740  137.8110 C   0  0  1  0  0  3  0  0  0  0  0  0
  191.0130  168.8650  137.1820 F   0  0  0  0  0  0  0  0  0  0  0  0
  190.6350  171.1890  137.6450 C   0  0  0  0  0  2  0  0  0  0  0  0
  191.9180  173.0820  136.5850 F   0  0  0  0  0  0  0  0  0  0  0  0
  191.0190  172.0410  136.4430 C   0  0  2  0  0  0  0  0  0  0  0  0
  189.8820  172.4590  135.7360 O   0  0  0  0  0  0  0  0  0  0  0  0
  190.7310  171.5400  135.0850 C   0  0  0  0  0  2  0  0  0  0  0  0
  192.5150  173.9980  140.1770 C   0  0  0  0  0  2  0  0  0  0  0  0
  193.4140  174.3000  141.3550 C   0  0  0  0  0  2  0  0  0  0  0  0
  193.6180  175.7980  141.4350 C   0  0  0  0  0  2  0  0  0  0  0  0
  194.6800  176.0930  142.2890 O   0  0  0  0  0  0  0  0  0  0  0  0
  195.5780  175.0270  142.1430 C   0  0  1  0  0  3  0  0  0  0  0  0
  196.0610  175.0680  139.7270 C   0  0  0  0  0  3  0  0  0  0  0  0
  196.4700  175.3050  140.9710 C   0  0  0  0  0  3  0  0  0  0  0  0
  196.9790  175.2920  138.5710 C   0  0  0  0  0  2  0  0  0  0  0  0
  197.0090  175.4280  136.0160 C   0  0  1  0  0  3  0  0  0  0  0  0
  195.7260  176.1200  136.4980 C   0  0  2  0  0  3  0  0  0  0  0  0
  196.2840  174.9280  137.2640 C   0  0  2  0  0  0  0  0  0  0  0  0
  195.5540  173.5850  137.1660 C   0  0  0  0  0  2  0  0  0  0  0  0
  196.3860  172.4710  137.7810 C   0  0  0  0  0  1  0  0  0  0  0  0
  197.9350  173.8320  134.7910 C   0  0  0  0  0  1  0  0  0  0  0  0
  196.7730  174.5990  134.9120 O   0  0  0  0  0  0  0  0  0  0  0  0
  194.6030  175.7630  135.6980 O   0  0  0  0  0  0  0  0  0  0  0  0
  192.9140  178.8500  134.5810 C   0  0  0  0  0  1  0  0  0  0  0  0
  193.9820  177.8610  134.8890 C   0  0  0  0  0  0  0  0  0  0  0  0
  193.6540  176.7110  135.3850 N   0  0  0  0  0  0  0  0  0  0  0  0
  195.4090  178.2180  134.6320 C   0  0  0  0  0  1  0  0  0  0  0  0
  196.4300  174.8260  143.4130 C   0  0  1  0  0  3  0  0  0  0  0  0
  195.7440  175.2950  144.6990 C   0  0  0  0  0  1  0  0  0  0  0  0
  196.9970  171.8560  145.1650 C   0  0  0  0  0  2  0  0  0  0  0  0
  195.9260  172.4550  143.1540 C   0  0  1  0  0  3  0  0  0  0  0  0
  194.5350  171.7410  145.0610 C   0  0  0  0  0  1  0  0  0  0  0  0
  195.8230  171.4920  144.3050 C   0  0  2  0  0  3  0  0  0  0  0  0
  197.3510  173.2280  144.8350 N   0  0  0  0  0  2  0  0  0  0  0  0
  196.9520  173.4510  143.5000 N   0  0  0  0  0  0  0  0  0  0  0  0
  196.3510  171.6830  141.9130 C   0  0  0  0  0  2  0  0  0  0  0  0
  197.8360  171.8620  141.6550 C   0  0  0  0  0  1  0  0  0  0  0  0
  191.0870  173.4390  141.9400 C   0  0  0  0  0  2  0  0  0  0  0  0
  189.7470  174.1640  141.9540 C   0  0  1  0  0  3  0  0  0  0  0  0
  188.6340  173.1880  142.2840 C   0  0  0  0  0  1  0  0  0  0  0  0
  189.7510  175.3470  142.9190 C   0  0  0  0  0  2  0  0  0  0  0  0
  189.7620  176.6170  142.2030 N   0  0  0  0  0  2  0  0  0  0  0  0
  189.2450  177.6410  143.1070 C   0  0  2  0  0  3  0  0  0  0  0  0
  189.6960  176.7200  145.4540 C   0  0  0  0  0  2  0  0  0  0  0  0
  190.9980  176.3970  146.0830 C   0  0  0  0  0  0  0  0  0  0  0  0
  191.1000  175.7430  147.2370 C   0  0  0  0  0  2  0  0  0  0  0  0
  192.1570  177.0290  145.4050 C   0  0  0  0  0  2  0  0  0  0  0  0
  191.5600  177.5960  144.1250 C   0  0  0  0  0  2  0  0  0  0  0  0
  190.0670  177.7500  144.3920 C   0  0  1  0  0  3  0  0  0  0  0  0
  187.7500  177.4550  143.4080 C   0  0  2  0  0  3  0  0  0  0  0  0
  186.9290  177.6430  140.9600 C   0  0  0  0  0  1  0  0  0  0  0  0
  186.9810  176.8850  142.2420 C   0  0  0  0  0  0  0  0  0  0  0  0
  186.4050  175.8100  142.3350 O   0  0  0  0  0  0  0  0  0  0  0  0
  187.1390  178.7320  144.0220 C   0  0  1  0  0  3  0  0  0  0  0  0
  186.1150  179.3800  143.1050 C   0  0  0  0  0  1  0  0  0  0  0  0
  186.4630  178.3930  145.2730 N   0  0  0  0  0  2  0  0  0  0  0  0
  185.0800  178.0560  145.3600 C   0  0  0  0  0  0  0  0  0  0  0  0
  184.3840  177.9160  144.3210 O   0  0  0  0  0  0  0  0  0  0  0  0
  184.4640  177.8360  146.6970 C   0  0  0  0  0  2  0  0  0  0  0  0
  184.9670  178.8080  147.6490 N   0  0  0  0  0  2  0  0  0  0  0  0
  186.3220  178.4110  147.9930 C   0  0  0  0  0  1  0  0  0  0  0  0
  1  2  1  0  0  0  0
  1 43  1  0  0  0  0
  4  2  1  0  0  0  0
  4  3  1  1  0  0  0
  5  4  1  0  0  0  0
  6  7  1  1  0  0  0
  6  5  1  0  0  0  0
  8  6  1  0  0  0  0
 10  9  1  1  0  0  0
 10  8  1  0  0  0  0
 11 10  1  0  0  0  0
 12 11  1  0  0  0  0
 12 10  1  0  0  0  0
 13  1  1  0  0  0  0
 13 14  1  0  0  0  0
 14 15  1  0  0  0  0
 15 16  1  0  0  0  0
 17 19  1  6  0  0  0
 17 16  1  0  0  0  0
 17 33  1  0  0  0  0
 18 19  2  0  0  0  0
 20 18  1  0  0  0  0
 21 27  1  6  0  0  0
 21 22  1  0  0  0  0
 21 23  1  0  0  0  0
 22 28  1  6  0  0  0
 22 23  1  0  0  0  0
 23 24  1  6  0  0  0
 23 20  1  0  0  0  0
 24 25  1  0  0  0  0
 26 27  1  0  0  0  0
 29 30  1  0  0  0  0
 30 31  2  0  0  0  0
 31 28  1  0  0  0  0
 32 30  1  0  0  0  0
 33 40  1  0  0  0  0
 33 34  1  1  0  0  0
 36 41  1  6  0  0  0
 36 40  1  0  0  0  0
 36 38  1  0  0  0  0
 38 37  1  1  0  0  0
 38 35  1  0  0  0  0
 39 35  1  0  0  0  0
 40 39  1  0  0  0  0
 42 41  1  0  0  0  0
 43 44  1  0  0  0  0
 44 45  1  1  0  0  0
 44 46  1  0  0  0  0
 47 46  1  0  0  0  0
 48 47  1  1  0  0  0
 48 55  1  0  0  0  0
 49 50  1  0  0  0  0
 50 51  2  0  0  0  0
 52 50  1  0  0  0  0
 53 54  1  0  0  0  0
 53 52  1  0  0  0  0
 54 48  1  6  0  0  0
 54 49  1  0  0  0  0
 55 57  1  6  0  0  0
 55 59  1  0  0  0  0
 56 57  1  0  0  0  0
 57 58  2  0  0  0  0
 59 60  1  6  0  0  0
 59 61  1  0  0  0  0
 61 62  1  0  0  0  0
 62 64  1  0  0  0  0
 63 62  2  0  0  0  0
 64 65  1  0  0  0  0
 65 66  1  0  0  0  0
M  END
>  <MODEL>
7

>  <REMARK>
 VINA RESULT:      -3.6      3.453      8.847
  Name = 
  33 active torsions:
  status: ('A' for Active; 'I' for Inactive)
    1  A    between atoms: C_1  and  C_27
    2  A    between atoms: C_1  and  C_48
    3  A    between atoms: N_2  and  C_13
    4  A    between atoms: C_4  and  C_55
    5  A    between atoms: O_5  and  N_37
    6  A    between atoms: O_5  and  C_54
    7  A    between atoms: C_6  and  C_31
    8  A    between atoms: C_6  and  N_51
    9  A    between atoms: C_9  and  C_17
   10  A    between atoms: N_10  and  C_35
   11  A    between atoms: C_11  and  C_33
   12  A    between atoms: C_11  and  C_50
   13  A    between atoms: C_13  and  C_44
   14  A    between atoms: C_14  and  C_22
   15  A    between atoms: C_14  and  C_33
   16  A    between atoms: C_19  and  C_44
   17  A    between atoms: C_19  and  C_56
   18  A    between atoms: C_19  and  N_58
   19  A    between atoms: N_24  and  C_27
   20  A    between atoms: N_24  and  C_57
   21  A    between atoms: N_24  and  C_66
   22  A    between atoms: C_25  and  C_29
   23  A    between atoms: C_25  and  O_41
   24  A    between atoms: C_28  and  C_65
   25  A    between atoms: C_29  and  C_66
   26  A    between atoms: C_31  and  C_36
   27  A    between atoms: C_31  and  O_41
   28  A    between atoms: C_34  and  C_35
   29  A    between atoms: C_44  and  C_59
   30  A    between atoms: O_47  and  C_53
   31  A    between atoms: C_48  and  N_58
   32  A    between atoms: C_50  and  C_57
   33  A    between atoms: C_55  and  C_65
                            x       y       z     vdW  Elec       q    Type
                         _______ _______ _______ _____ _____    ______ ____

>  <TORSDO>
F 33

$$$$
=
 OpenBabel11062418223D

 66 69  0  0  1  0  0  0  0  0999 V2000
  190.8930  174.6390  146.3550 N   0  0  0  0  0  0  0  0  0  0  0  0
  192.0280  175.3590  145.7850 C   0  0  0  0  0  2  0  0  0  0  0  0
  192.6760  175.9440  148.0220 O   0  0  0  0  0  1  0  0  0  0  0  0
  193.1610  175.4960  146.7930 C   0  0  2  0  0  3  0  0  0  0  0  0
  194.2400  176.4310  146.2680 C   0  0  0  0  0  2  0  0  0  0  0  0
  193.8610  176.9440  144.8840 C   0  0  1  0  0  3  0  0  0  0  0  0
  193.5950  178.3000  144.9250 F   0  0  0  0  0  0  0  0  0  0  0  0
  194.9300  176.6250  143.8420 C   0  0  0  0  0  2  0  0  0  0  0  0
  196.7910  175.2920  144.8960 F   0  0  0  0  0  0  0  0  0  0  0  0
  195.6420  175.3110  144.1260 C   0  0  2  0  0  0  0  0  0  0  0  0
  195.8210  174.5680  142.9500 O   0  0  0  0  0  0  0  0  0  0  0  0
  194.9260  174.0410  143.9020 C   0  0  0  0  0  2  0  0  0  0  0  0
  191.1060  173.2360  146.0380 C   0  0  0  0  0  2  0  0  0  0  0  0
  191.3110  173.0670  144.5480 C   0  0  0  0  0  2  0  0  0  0  0  0
  191.3280  171.5890  144.2270 C   0  0  0  0  0  2  0  0  0  0  0  0
  192.3970  171.2930  143.3830 O   0  0  0  0  0  0  0  0  0  0  0  0
  192.4990  169.8960  143.3930 C   0  0  1  0  0  3  0  0  0  0  0  0
  192.6810  170.0070  140.9380 C   0  0  0  0  0  3  0  0  0  0  0  0
  192.2120  169.3800  142.0150 C   0  0  0  0  0  3  0  0  0  0  0  0
  192.3400  169.5190  139.5690 C   0  0  0  0  0  2  0  0  0  0  0  0
  192.5500  172.0330  139.1420 C   0  0  1  0  0  3  0  0  0  0  0  0
  191.3400  171.5310  138.3420 C   0  0  2  0  0  3  0  0  0  0  0  0
  192.5500  170.6270  138.5440 C   0  0  2  0  0  0  0  0  0  0  0  0
  193.4780  170.3660  137.3540 C   0  0  0  0  0  2  0  0  0  0  0  0
  193.8140  168.8870  137.2460 C   0  0  0  0  0  1  0  0  0  0  0  0
  194.4730  173.1310  139.1870 C   0  0  0  0  0  1  0  0  0  0  0  0
  193.3420  172.9140  138.3950 O   0  0  0  0  0  0  0  0  0  0  0  0
  191.3050  172.0910  137.0330 O   0  0  0  0  0  0  0  0  0  0  0  0
  188.9740  174.6930  135.8380 C   0  0  0  0  0  1  0  0  0  0  0  0
  190.2220  174.0170  136.2840 C   0  0  0  0  0  0  0  0  0  0  0  0
  190.1810  172.7630  136.6040 N   0  0  0  0  0  0  0  0  0  0  0  0
  191.4910  174.7990  136.3660 C   0  0  0  0  0  1  0  0  0  0  0  0
  193.9010  169.4340  143.8430 C   0  0  1  0  0  3  0  0  0  0  0  0
  194.4520  168.2550  143.0360 C   0  0  0  0  0  1  0  0  0  0  0  0
  196.6410  171.0510  145.2870 C   0  0  0  0  0  2  0  0  0  0  0  0
  196.0460  170.3400  143.1220 C   0  0  1  0  0  3  0  0  0  0  0  0
  197.8400  169.1300  144.3050 C   0  0  0  0  0  1  0  0  0  0  0  0
  197.2370  170.4920  144.0290 C   0  0  2  0  0  3  0  0  0  0  0  0
  195.2310  170.6910  145.2820 N   0  0  0  0  0  2  0  0  0  0  0  0
  194.8400  170.5650  143.9330 N   0  0  0  0  0  0  0  0  0  0  0  0
  196.1370  171.3890  142.0230 C   0  0  0  0  0  2  0  0  0  0  0  0
  196.3690  170.7310  140.6750 C   0  0  0  0  0  1  0  0  0  0  0  0
  189.7110  175.0620  145.6160 C   0  0  0  0  0  2  0  0  0  0  0  0
  188.8190  175.9360  146.4890 C   0  0  1  0  0  3  0  0  0  0  0  0
  189.6400  177.0450  147.1190 C   0  0  0  0  0  1  0  0  0  0  0  0
  187.6340  176.4980  145.7090 C   0  0  0  0  0  2  0  0  0  0  0  0
  187.7910  177.9260  145.4620 N   0  0  0  0  0  2  0  0  0  0  0  0
  187.3610  178.1890  144.0910 C   0  0  2  0  0  3  0  0  0  0  0  0
  185.0930  177.9480  145.2570 C   0  0  0  0  0  2  0  0  0  0  0  0
  183.8730  178.7700  145.0770 C   0  0  0  0  0  0  0  0  0  0  0  0
  182.8130  178.6730  145.8770 C   0  0  0  0  0  2  0  0  0  0  0  0
  183.8710  179.5650  143.8240 C   0  0  0  0  0  2  0  0  0  0  0  0
  185.2920  179.4110  143.2990 C   0  0  0  0  0  2  0  0  0  0  0  0
  185.8400  178.1410  143.9410 C   0  0  1  0  0  3  0  0  0  0  0  0
  188.0570  177.2740  143.0730 C   0  0  2  0  0  3  0  0  0  0  0  0
  190.6440  177.3710  143.0140 C   0  0  0  0  0  1  0  0  0  0  0  0
  189.3280  177.8690  142.5190 C   0  0  0  0  0  0  0  0  0  0  0  0
  189.2920  178.7470  141.6700 O   0  0  0  0  0  0  0  0  0  0  0  0
  187.0650  176.7640  142.0070 C   0  0  1  0  0  3  0  0  0  0  0  0
  186.7080  177.8360  140.9900 C   0  0  0  0  0  1  0  0  0  0  0  0
  187.6650  175.6460  141.2820 N   0  0  0  0  0  2  0  0  0  0  0  0
  187.7430  174.3180  141.7960 C   0  0  0  0  0  0  0  0  0  0  0  0
  187.1800  174.0120  142.8790 O   0  0  0  0  0  0  0  0  0  0  0  0
  188.4740  173.2760  141.0230 C   0  0  0  0  0  2  0  0  0  0  0  0
  189.8530  173.1970  141.4660 N   0  0  0  0  0  2  0  0  0  0  0  0
  190.5410  174.3640  140.9390 C   0  0  0  0  0  1  0  0  0  0  0  0
  2  1  1  0  0  0  0
  2  4  1  0  0  0  0
  4  3  1  1  0  0  0
  5  4  1  0  0  0  0
  6  7  1  1  0  0  0
  6  5  1  0  0  0  0
  8 10  1  0  0  0  0
  8  6  1  0  0  0  0
 10  9  1  1  0  0  0
 11 12  1  0  0  0  0
 11 10  1  0  0  0  0
 12 10  1  0  0  0  0
 13  1  1  0  0  0  0
 14 13  1  0  0  0  0
 15 14  1  0  0  0  0
 16 17  1  0  0  0  0
 16 15  1  0  0  0  0
 17 19  1  6  0  0  0
 17 33  1  0  0  0  0
 18 19  2  0  0  0  0
 20 18  1  0  0  0  0
 21 27  1  6  0  0  0
 22 28  1  6  0  0  0
 22 23  1  0  0  0  0
 22 21  1  0  0  0  0
 23 24  1  6  0  0  0
 23 21  1  0  0  0  0
 23 20  1  0  0  0  0
 25 24  1  0  0  0  0
 27 26  1  0  0  0  0
 29 30  1  0  0  0  0
 30 32  1  0  0  0  0
 30 31  2  0  0  0  0
 31 28  1  0  0  0  0
 33 34  1  6  0  0  0
 33 40  1  0  0  0  0
 36 41  1  6  0  0  0
 36 40  1  0  0  0  0
 36 38  1  0  0  0  0
 38 37  1  1  0  0  0
 38 35  1  0  0  0  0
 39 35  1  0  0  0  0
 40 39  1  0  0  0  0
 42 41  1  0  0  0  0
 43  1  1  0  0  0  0
 43 44  1  0  0  0  0
 44 45  1  6  0  0  0
 46 44  1  0  0  0  0
 47 46  1  0  0  0  0
 48 47  1  1  0  0  0
 50 49  1  0  0  0  0
 50 51  2  0  0  0  0
 52 50  1  0  0  0  0
 53 52  1  0  0  0  0
 53 54  1  0  0  0  0
 54 48  1  1  0  0  0
 54 49  1  0  0  0  0
 55 57  1  6  0  0  0
 55 48  1  0  0  0  0
 57 56  1  0  0  0  0
 58 57  2  0  0  0  0
 59 60  1  6  0  0  0
 59 55  1  0  0  0  0
 61 62  1  0  0  0  0
 61 59  1  0  0  0  0
 62 63  2  0  0  0  0
 64 65  1  0  0  0  0
 64 62  1  0  0  0  0
 66 65  1  0  0  0  0
M  END
>  <MODEL>
8

>  <REMARK>
 VINA RESULT:      -3.1      2.683      8.413
  Name = 
  33 active torsions:
  status: ('A' for Active; 'I' for Inactive)
    1  A    between atoms: C_1  and  C_27
    2  A    between atoms: C_1  and  C_48
    3  A    between atoms: N_2  and  C_13
    4  A    between atoms: C_4  and  C_55
    5  A    between atoms: O_5  and  N_37
    6  A    between atoms: O_5  and  C_54
    7  A    between atoms: C_6  and  C_31
    8  A    between atoms: C_6  and  N_51
    9  A    between atoms: C_9  and  C_17
   10  A    between atoms: N_10  and  C_35
   11  A    between atoms: C_11  and  C_33
   12  A    between atoms: C_11  and  C_50
   13  A    between atoms: C_13  and  C_44
   14  A    between atoms: C_14  and  C_22
   15  A    between atoms: C_14  and  C_33
   16  A    between atoms: C_19  and  C_44
   17  A    between atoms: C_19  and  C_56
   18  A    between atoms: C_19  and  N_58
   19  A    between atoms: N_24  and  C_27
   20  A    between atoms: N_24  and  C_57
   21  A    between atoms: N_24  and  C_66
   22  A    between atoms: C_25  and  C_29
   23  A    between atoms: C_25  and  O_41
   24  A    between atoms: C_28  and  C_65
   25  A    between atoms: C_29  and  C_66
   26  A    between atoms: C_31  and  C_36
   27  A    between atoms: C_31  and  O_41
   28  A    between atoms: C_34  and  C_35
   29  A    between atoms: C_44  and  C_59
   30  A    between atoms: O_47  and  C_53
   31  A    between atoms: C_48  and  N_58
   32  A    between atoms: C_50  and  C_57
   33  A    between atoms: C_55  and  C_65
                            x       y       z     vdW  Elec       q    Type
                         _______ _______ _______ _____ _____    ______ ____

>  <TORSDO>
F 33

$$$$
=
 OpenBabel11062418223D

 66 69  0  0  1  0  0  0  0  0999 V2000
  187.7430  175.3310  141.0960 N   0  0  0  0  0  0  0  0  0  0  0  0
  187.5490  176.7770  141.1050 C   0  0  0  0  0  2  0  0  0  0  0  0
  185.8320  178.4560  141.0770 O   0  0  0  0  0  1  0  0  0  0  0  0
  186.1120  177.1420  141.4530 C   0  0  2  0  0  3  0  0  0  0  0  0
  185.8480  176.9420  142.9380 C   0  0  0  0  0  2  0  0  0  0  0  0
  185.8000  178.2900  143.6470 C   0  0  1  0  0  3  0  0  0  0  0  0
  184.4930  178.6610  143.8990 F   0  0  0  0  0  0  0  0  0  0  0  0
  186.6290  178.2920  144.9300 C   0  0  0  0  0  2  0  0  0  0  0  0
  184.7310  176.9750  145.9380 F   0  0  0  0  0  0  0  0  0  0  0  0
  185.8460  177.7720  146.1270 C   0  0  2  0  0  0  0  0  0  0  0  0
  185.5720  178.8020  147.0380 O   0  0  0  0  0  0  0  0  0  0  0  0
  186.4700  177.8020  147.4630 C   0  0  0  0  0  2  0  0  0  0  0  0
  188.6990  175.0460  142.1540 C   0  0  0  0  0  2  0  0  0  0  0  0
  189.8270  176.0540  142.1170 C   0  0  0  0  0  2  0  0  0  0  0  0
  191.1270  175.3350  142.4050 C   0  0  0  0  0  2  0  0  0  0  0  0
  190.8920  173.9720  142.5840 O   0  0  0  0  0  0  0  0  0  0  0  0
  191.9090  173.5320  143.4410 C   0  0  1  0  0  3  0  0  0  0  0  0
  194.0170  172.5440  142.6330 C   0  0  0  0  0  3  0  0  0  0  0  0
  193.2180  173.6060  142.7160 C   0  0  0  0  0  3  0  0  0  0  0  0
  195.3450  172.6450  141.9590 C   0  0  0  0  0  2  0  0  0  0  0  0
  195.8060  170.6050  140.4840 C   0  0  1  0  0  3  0  0  0  0  0  0
  194.9970  170.1230  141.6960 C   0  0  2  0  0  3  0  0  0  0  0  0
  195.9890  171.2680  141.8490 C   0  0  2  0  0  0  0  0  0  0  0  0
  197.3040  171.0060  142.5900 C   0  0  0  0  0  2  0  0  0  0  0  0
  197.9400  172.3120  143.0390 C   0  0  0  0  0  1  0  0  0  0  0  0
  197.7870  170.5330  139.4980 C   0  0  0  0  0  1  0  0  0  0  0  0
  196.8630  169.7380  140.1830 O   0  0  0  0  0  0  0  0  0  0  0  0
  195.5070  168.9000  142.2170 O   0  0  0  0  0  0  0  0  0  0  0  0
  193.3820  168.2080  145.1560 C   0  0  0  0  0  1  0  0  0  0  0  0
  193.8660  168.7820  143.8720 C   0  0  0  0  0  0  0  0  0  0  0  0
  195.0070  168.3940  143.3970 N   0  0  0  0  0  0  0  0  0  0  0  0
  193.0360  169.8000  143.1630 C   0  0  0  0  0  1  0  0  0  0  0  0
  191.9750  174.3830  144.7260 C   0  0  1  0  0  3  0  0  0  0  0  0
  192.9880  175.5290  144.6590 C   0  0  0  0  0  1  0  0  0  0  0  0
  189.3410  174.4220  147.0230 C   0  0  0  0  0  2  0  0  0  0  0  0
  190.6910  176.0400  145.9710 C   0  0  1  0  0  3  0  0  0  0  0  0
  191.0130  175.6260  148.3810 C   0  0  0  0  0  1  0  0  0  0  0  0
  189.9910  175.7520  147.2710 C   0  0  2  0  0  3  0  0  0  0  0  0
  190.0810  173.7870  145.9430 N   0  0  0  0  0  2  0  0  0  0  0  0
  190.6340  174.8170  145.1550 N   0  0  0  0  0  0  0  0  0  0  0  0
  189.9560  177.1710  145.2650 C   0  0  0  0  0  2  0  0  0  0  0  0
  190.9420  178.1660  144.6820 C   0  0  0  0  0  1  0  0  0  0  0  0
  188.3990  175.0010  139.8370 C   0  0  0  0  0  2  0  0  0  0  0  0
  188.9850  173.5960  139.8930 C   0  0  1  0  0  3  0  0  0  0  0  0
  187.9630  172.5890  139.4020 C   0  0  0  0  0  1  0  0  0  0  0  0
  190.2880  173.4910  139.1050 C   0  0  0  0  0  2  0  0  0  0  0  0
  190.0510  173.0210  137.7460 N   0  0  0  0  0  2  0  0  0  0  0  0
  191.3470  172.9170  137.0800 C   0  0  2  0  0  3  0  0  0  0  0  0
  192.6860  175.0950  136.9490 C   0  0  0  0  0  2  0  0  0  0  0  0
  193.4870  175.6180  135.8160 C   0  0  0  0  0  0  0  0  0  0  0  0
  194.2980  176.6680  135.9290 C   0  0  0  0  0  2  0  0  0  0  0  0
  193.1600  174.9840  134.5150 C   0  0  0  0  0  2  0  0  0  0  0  0
  192.2590  173.8190  134.9000 C   0  0  0  0  0  2  0  0  0  0  0  0
  191.6850  174.1680  136.2690 C   0  0  1  0  0  3  0  0  0  0  0  0
  191.4670  171.6440  136.2300 C   0  0  2  0  0  3  0  0  0  0  0  0
  189.5220  171.5240  134.5240 C   0  0  0  0  0  1  0  0  0  0  0  0
  190.1280  171.0850  135.8140 C   0  0  0  0  0  0  0  0  0  0  0  0
  189.5400  170.2760  136.5160 O   0  0  0  0  0  0  0  0  0  0  0  0
  192.4190  170.6200  136.8830 C   0  0  1  0  0  3  0  0  0  0  0  0
  191.9780  169.1850  136.6410 C   0  0  0  0  0  1  0  0  0  0  0  0
  193.7580  170.7740  136.3200 N   0  0  0  0  0  2  0  0  0  0  0  0
  194.7720  171.5930  136.8990 C   0  0  0  0  0  0  0  0  0  0  0  0
  194.5950  172.1450  138.0160 O   0  0  0  0  0  0  0  0  0  0  0  0
  196.0670  171.7690  136.1850 C   0  0  0  0  0  2  0  0  0  0  0  0
  195.8320  172.1000  134.7920 N   0  0  0  0  0  2  0  0  0  0  0  0
  195.6500  173.5390  134.7180 C   0  0  0  0  0  1  0  0  0  0  0  0
  1  2  1  0  0  0  0
  1 13  1  0  0  0  0
  2  4  1  0  0  0  0
  4  3  1  1  0  0  0
  4  5  1  0  0  0  0
  5  6  1  0  0  0  0
  6  7  1  1  0  0  0
  6  8  1  0  0  0  0
  8 10  1  0  0  0  0
 10  9  1  6  0  0  0
 10 11  1  0  0  0  0
 10 12  1  0  0  0  0
 11 12  1  0  0  0  0
 14 13  1  0  0  0  0
 14 15  1  0  0  0  0
 15 16  1  0  0  0  0
 16 17  1  0  0  0  0
 17 19  1  6  0  0  0
 17 33  1  0  0  0  0
 18 19  2  0  0  0  0
 20 18  1  0  0  0  0
 21 27  1  1  0  0  0
 21 22  1  0  0  0  0
 21 23  1  0  0  0  0
 22 23  1  0  0  0  0
 22 28  1  1  0  0  0
 23 20  1  1  0  0  0
 23 24  1  0  0  0  0
 24 25  1  0  0  0  0
 26 27  1  0  0  0  0
 28 31  1  0  0  0  0
 30 29  1  0  0  0  0
 31 30  2  0  0  0  0
 32 30  1  0  0  0  0
 33 34  1  6  0  0  0
 33 40  1  0  0  0  0
 35 38  1  0  0  0  0
 36 41  1  6  0  0  0
 36 38  1  0  0  0  0
 38 37  1  1  0  0  0
 39 35  1  0  0  0  0
 40 39  1  0  0  0  0
 40 36  1  0  0  0  0
 42 41  1  0  0  0  0
 43 44  1  0  0  0  0
 43  1  1  0  0  0  0
 44 45  1  6  0  0  0
 46 44  1  0  0  0  0
 47 46  1  0  0  0  0
 48 47  1  6  0  0  0
 50 51  2  0  0  0  0
 50 49  1  0  0  0  0
 52 53  1  0  0  0  0
 52 50  1  0  0  0  0
 53 54  1  0  0  0  0
 54 49  1  0  0  0  0
 54 48  1  1  0  0  0
 55 57  1  1  0  0  0
 55 59  1  0  0  0  0
 55 48  1  0  0  0  0
 56 57  1  0  0  0  0
 57 58  2  0  0  0  0
 59 60  1  6  0  0  0
 61 59  1  0  0  0  0
 61 62  1  0  0  0  0
 62 63  2  0  0  0  0
 64 62  1  0  0  0  0
 65 64  1  0  0  0  0
 66 65  1  0  0  0  0
M  END
>  <MODEL>
9

>  <REMARK>
 VINA RESULT:      -3.0      2.230      3.598
  Name = 
  33 active torsions:
  status: ('A' for Active; 'I' for Inactive)
    1  A    between atoms: C_1  and  C_27
    2  A    between atoms: C_1  and  C_48
    3  A    between atoms: N_2  and  C_13
    4  A    between atoms: C_4  and  C_55
    5  A    between atoms: O_5  and  N_37
    6  A    between atoms: O_5  and  C_54
    7  A    between atoms: C_6  and  C_31
    8  A    between atoms: C_6  and  N_51
    9  A    between atoms: C_9  and  C_17
   10  A    between atoms: N_10  and  C_35
   11  A    between atoms: C_11  and  C_33
   12  A    between atoms: C_11  and  C_50
   13  A    between atoms: C_13  and  C_44
   14  A    between atoms: C_14  and  C_22
   15  A    between atoms: C_14  and  C_33
   16  A    between atoms: C_19  and  C_44
   17  A    between atoms: C_19  and  C_56
   18  A    between atoms: C_19  and  N_58
   19  A    between atoms: N_24  and  C_27
   20  A    between atoms: N_24  and  C_57
   21  A    between atoms: N_24  and  C_66
   22  A    between atoms: C_25  and  C_29
   23  A    between atoms: C_25  and  O_41
   24  A    between atoms: C_28  and  C_65
   25  A    between atoms: C_29  and  C_66
   26  A    between atoms: C_31  and  C_36
   27  A    between atoms: C_31  and  O_41
   28  A    between atoms: C_34  and  C_35
   29  A    between atoms: C_44  and  C_59
   30  A    between atoms: O_47  and  C_53
   31  A    between atoms: C_48  and  N_58
   32  A    between atoms: C_50  and  C_57
   33  A    between atoms: C_55  and  C_65
                            x       y       z     vdW  Elec       q    Type
                         _______ _______ _______ _____ _____    ______ ____

>  <TORSDO>
F 33

$$$$
