=
 OpenBabel11062420323D

 53 60  0  0  1  0  0  0  0  0999 V2000
  194.9680  173.1870  143.9450 C   0  0  0  0  0  2  0  0  0  0  0  0
  193.6300  175.6930  144.1910 C   0  0  0  0  0  0  0  0  0  0  0  0
  193.5210  174.7810  145.1490 C   0  0  0  0  0  0  0  0  0  0  0  0
  192.0110  174.8250  146.0900 S   0  0  0  0  0  0  0  0  0  0  0  0
  191.3280  176.0130  144.8750 C   0  0  2  0  0  3  0  0  0  0  0  0
  194.5620  173.7180  145.3190 C   0  0  0  0  0  2  0  0  0  0  0  0
  194.8530  175.7510  143.3020 C   0  0  2  0  0  0  0  0  0  0  0  0
  194.5530  176.4650  142.1350 O   0  0  0  0  0  1  0  0  0  0  0  0
  192.4720  176.6210  144.0730 C   0  0  0  0  0  2  0  0  0  0  0  0
  195.3700  174.3150  142.9650 C   0  0  2  0  0  3  0  0  0  0  0  0
  196.8810  177.0450  143.1690 O   0  0  0  0  0  1  0  0  0  0  0  0
  195.9490  176.5000  144.0560 C   0  0  0  0  0  2  0  0  0  0  0  0
  190.5600  177.1250  145.5740 C   0  0  0  0  0  2  0  0  0  0  0  0
  189.0550  176.8910  145.5520 C   0  0  0  0  0  2  0  0  0  0  0  0
  188.3450  177.9600  144.7380 C   0  0  0  0  0  2  0  0  0  0  0  0
  186.9220  177.5220  144.3850 C   0  0  2  0  0  3  0  0  0  0  0  0
  187.6900  175.1430  141.9200 C   0  0  2  0  0  3  0  0  0  0  0  0
  186.7850  177.1040  142.9190 C   0  0  1  0  0  3  0  0  0  0  0  0
  187.9140  177.4850  142.1690 O   0  0  0  0  0  0  0  0  0  0  0  0
  188.1670  176.4240  141.2840 C   0  0  0  0  0  2  0  0  0  0  0  0
  186.5920  175.6080  142.8240 C   0  0  0  0  0  2  0  0  0  0  0  0
  188.9330  173.1560  142.8770 C   0  0  0  0  0  0  0  0  0  0  0  0
  188.2000  172.3580  142.2310 O   0  0  0  0  0  0  0  0  0  0  0  0
  188.7620  174.5690  142.7200 N   0  0  0  0  0  2  0  0  0  0  0  0
  191.3470  172.3970  143.3250 C   0  0  0  0  0  1  0  0  0  0  0  0
  189.6470  172.3280  145.0530 C   0  0  0  0  0  2  0  0  0  0  0  0
  189.9540  172.6280  143.7980 C   0  0  0  0  0  0  0  0  0  0  0  0
  185.8670  178.5630  144.7830 C   0  0  2  0  0  0  0  0  0  0  0  0
  184.8270  178.7470  143.8800 C   0  0  0  0  0  0  0  0  0  0  0  0
  185.9980  179.7250  144.0240 N   0  0  0  0  0  2  0  0  0  0  0  0
  183.7470  178.3900  143.3430 O   0  0  0  0  0  0  0  0  0  0  0  0
  185.6200  178.8980  146.2640 C   0  0  1  0  0  3  0  0  0  0  0  0
  184.2700  178.6730  146.6100 O   0  0  0  0  0  0  0  0  0  0  0  0
  185.1960  177.7060  147.0360 C   0  0  0  0  0  2  0  0  0  0  0  0
  195.2190  173.8890  141.4970 C   0  0  0  0  0  2  0  0  0  0  0  0
  193.9200  171.9210  140.6690 C   0  0  1  0  0  3  0  0  0  0  0  0
  193.1520  174.2280  140.0810 C   0  0  0  0  0  2  0  0  0  0  0  0
  194.1460  169.6420  140.5440 N   0  0  0  0  0  2  0  0  0  0  0  0
  194.6190  170.7770  141.3330 C   0  0  1  0  0  3  0  0  0  0  0  0
  193.3190  170.0060  139.6510 N   0  0  0  0  0  0  0  0  0  0  0  0
  196.0560  170.9110  141.1720 N   0  0  0  0  0  1  0  0  0  0  0  0
  191.8870  173.5500  139.5590 C   0  0  0  0  0  2  0  0  0  0  0  0
  193.1370  171.4100  139.7320 C   0  0  0  0  0  0  0  0  0  0  0  0
  193.8330  173.3500  141.1390 C   0  0  2  0  0  3  0  0  0  0  0  0
  192.2380  172.2350  138.8430 C   0  0  1  0  0  3  0  0  0  0  0  0
  190.0550  172.4270  137.8920 C   0  0  1  0  0  3  0  0  0  0  0  0
  191.0190  171.4960  138.4880 N   0  0  1  0  0  0  0  0  0  0  0  0
  191.2120  170.9130  137.1590 C   0  0  1  0  0  3  0  0  0  0  0  0
  190.6990  169.4830  137.1410 C   0  0  0  0  0  1  0  0  0  0  0  0
  190.2000  171.8300  136.5120 C   0  0  0  0  0  2  0  0  0  0  0  0
  188.6580  172.1550  138.4310 C   0  0  0  0  0  2  0  0  0  0  0  0
  188.0270  174.2360  138.0610 C   0  0  0  0  0  1  0  0  0  0  0  0
  188.1690  173.2910  139.0760 O   0  0  0  0  0  0  0  0  0  0  0  0
  1  6  1  0  0  0  0
  2  3  2  0  0  0  0
  3  6  1  0  0  0  0
  3  4  1  0  0  0  0
  5 13  1  1  0  0  0
  5  4  1  0  0  0  0
  7  8  1  6  0  0  0
  7 12  1  0  0  0  0
  7  2  1  0  0  0  0
  9  2  1  0  0  0  0
  9  5  1  0  0  0  0
 10 35  1  6  0  0  0
 10  7  1  0  0  0  0
 10  1  1  0  0  0  0
 11 12  1  0  0  0  0
 14 13  1  0  0  0  0
 15 14  1  0  0  0  0
 16 15  1  6  0  0  0
 17 24  1  1  0  0  0
 17 21  1  0  0  0  0
 18 16  1  1  0  0  0
 19 18  1  0  0  0  0
 20 17  1  0  0  0  0
 20 19  1  0  0  0  0
 21 18  1  0  0  0  0
 22 27  1  0  0  0  0
 23 22  2  0  0  0  0
 24 22  1  0  0  0  0
 25 27  1  0  0  0  0
 27 26  2  0  0  0  0
 28 16  1  6  0  0  0
 28 32  1  0  0  0  0
 29 30  1  0  0  0  0
 29 28  1  0  0  0  0
 30 28  1  0  0  0  0
 31 29  2  0  0  0  0
 32 33  1  0  0  0  0
 32 34  1  1  0  0  0
 33 34  1  0  0  0  0
 36 43  1  1  0  0  0
 36 44  1  0  0  0  0
 36 39  1  0  0  0  0
 37 44  1  0  0  0  0
 38 39  1  0  0  0  0
 39 41  1  6  0  0  0
 40 43  2  0  0  0  0
 40 38  1  0  0  0  0
 42 37  1  0  0  0  0
 44 35  1  6  0  0  0
 45 42  1  1  0  0  0
 45 43  1  0  0  0  0
 46 51  1  1  0  0  0
 46 47  1  0  0  0  0
 47 45  1  6  0  0  0
 48 49  1  1  0  0  0
 48 47  1  0  0  0  0
 50 48  1  0  0  0  0
 50 46  1  0  0  0  0
 51 53  1  0  0  0  0
 52 53  1  0  0  0  0
M  END
>  <MODEL>
1

>  <REMARK>
 VINA RESULT:      -6.9      0.000      0.000
  Name = 
  15 active torsions:
  status: ('A' for Active; 'I' for Inactive)
    1  A    between atoms: C_1  and  C_3
    2  A    between atoms: C_1  and  C_37
    3  A    between atoms: C_2  and  C_25
    4  A    between atoms: C_2  and  C_37
    5  A    between atoms: C_4  and  C_23
    6  A    between atoms: C_4  and  C_25
    7  A    between atoms: C_16  and  C_26
    8  A    between atoms: O_18  and  C_43
    9  A    between atoms: C_24  and  C_49
   10  A    between atoms: C_24  and  C_50
   11  A    between atoms: C_27  and  C_43
   12  A    between atoms: C_31  and  N_53
   13  A    between atoms: C_32  and  C_33
   14  A    between atoms: C_34  and  C_37
   15  A    between atoms: N_35  and  C_52
                            x       y       z     vdW  Elec       q    Type
                         _______ _______ _______ _____ _____    ______ ____

>  <TORSDO>
F 15

$$$$
=
 OpenBabel11062420323D

 53 60  0  0  1  0  0  0  0  0999 V2000
  193.5130  176.5520  145.8340 C   0  0  0  0  0  2  0  0  0  0  0  0
  193.7420  174.5070  143.8590 C   0  0  0  0  0  0  0  0  0  0  0  0
  194.1930  175.7310  143.6100 C   0  0  0  0  0  0  0  0  0  0  0  0
  194.1810  176.2250  141.9000 S   0  0  0  0  0  0  0  0  0  0  0  0
  193.1930  174.7340  141.5110 C   0  0  2  0  0  3  0  0  0  0  0  0
  194.5620  176.6560  144.7280 C   0  0  0  0  0  2  0  0  0  0  0  0
  193.6770  173.9720  145.2730 C   0  0  2  0  0  0  0  0  0  0  0  0
  192.7890  172.8900  145.3250 O   0  0  0  0  0  1  0  0  0  0  0  0
  193.3160  173.7390  142.6580 C   0  0  0  0  0  2  0  0  0  0  0  0
  193.2580  175.0920  146.2790 C   0  0  2  0  0  3  0  0  0  0  0  0
  195.1070  172.0740  145.6690 O   0  0  0  0  0  1  0  0  0  0  0  0
  195.0680  173.4700  145.6510 C   0  0  0  0  0  2  0  0  0  0  0  0
  193.6780  174.0790  140.2260 C   0  0  0  0  0  2  0  0  0  0  0  0
  192.5910  174.0200  139.1600 C   0  0  0  0  0  2  0  0  0  0  0  0
  191.9810  172.6310  139.0750 C   0  0  0  0  0  2  0  0  0  0  0  0
  190.4940  172.7080  138.7230 C   0  0  2  0  0  3  0  0  0  0  0  0
  188.6040  173.2550  141.6320 C   0  0  2  0  0  3  0  0  0  0  0  0
  189.6040  172.0980  139.8080 C   0  0  1  0  0  3  0  0  0  0  0  0
  190.3430  171.7940  140.9680 O   0  0  0  0  0  0  0  0  0  0  0  0
  189.5170  172.1320  142.0520 C   0  0  0  0  0  2  0  0  0  0  0  0
  188.4820  173.0500  140.1530 C   0  0  0  0  0  2  0  0  0  0  0  0
  188.5190  175.7500  142.0490 C   0  0  0  0  0  0  0  0  0  0  0  0
  187.2590  175.7270  142.0690 O   0  0  0  0  0  0  0  0  0  0  0  0
  189.2540  174.5320  141.8880 N   0  0  0  0  0  2  0  0  0  0  0  0
  190.5840  177.0860  142.7980 C   0  0  0  0  0  1  0  0  0  0  0  0
  188.6670  178.1650  141.7760 C   0  0  0  0  0  2  0  0  0  0  0  0
  189.2290  177.0340  142.1810 C   0  0  0  0  0  0  0  0  0  0  0  0
  190.1830  172.1290  137.3370 C   0  0  2  0  0  0  0  0  0  0  0  0
  190.1370  170.7440  137.2550 C   0  0  0  0  0  0  0  0  0  0  0  0
  191.3240  171.5760  136.7570 N   0  0  0  0  0  2  0  0  0  0  0  0
  189.5670  169.6380  137.4440 O   0  0  0  0  0  0  0  0  0  0  0  0
  189.3870  172.9500  136.3080 C   0  0  1  0  0  3  0  0  0  0  0  0
  189.0090  174.1990  136.8460 O   0  0  0  0  0  0  0  0  0  0  0  0
  190.0860  174.2060  135.9440 C   0  0  0  0  0  2  0  0  0  0  0  0
  191.8750  174.9140  146.9230 C   0  0  0  0  0  2  0  0  0  0  0  0
  190.2990  176.8240  147.2630 C   0  0  0  0  0  0  0  0  0  0  0  0
  189.6030  174.9060  145.8160 C   0  0  0  0  0  2  0  0  0  0  0  0
  190.1080  178.6780  148.5990 N   0  0  0  0  0  0  0  0  0  0  0  0
  191.1280  177.7820  148.0580 C   0  0  1  0  0  3  0  0  0  0  0  0
  188.9480  178.3670  148.1870 N   0  0  0  0  0  0  0  0  0  0  0  0
  191.7850  177.0850  149.1490 N   0  0  0  0  0  1  0  0  0  0  0  0
  188.4190  175.7840  145.4170 C   0  0  0  0  0  2  0  0  0  0  0  0
  189.0450  177.2420  147.3300 C   0  0  0  0  0  0  0  0  0  0  0  0
  190.7750  175.7710  146.2950 C   0  0  2  0  0  3  0  0  0  0  0  0
  187.8900  176.5590  146.6370 C   0  0  1  0  0  3  0  0  0  0  0  0
  185.8530  176.8420  145.4220 C   0  0  1  0  0  3  0  0  0  0  0  0
  186.8650  177.5290  146.2320 N   0  0  1  0  0  0  0  0  0  0  0  0
  185.8770  177.6230  147.3080 C   0  0  1  0  0  3  0  0  0  0  0  0
  185.5120  179.0780  147.5500 C   0  0  0  0  0  1  0  0  0  0  0  0
  184.7950  176.9500  146.4950 C   0  0  0  0  0  2  0  0  0  0  0  0
  185.4670  177.6970  144.2250 C   0  0  0  0  0  2  0  0  0  0  0  0
  185.4390  179.8900  143.9860 C   0  0  0  0  0  1  0  0  0  0  0  0
  186.3050  178.8100  144.1460 O   0  0  0  0  0  0  0  0  0  0  0  0
  1 10  1  0  0  0  0
  2  7  1  0  0  0  0
  3  2  2  0  0  0  0
  3  6  1  0  0  0  0
  4  3  1  0  0  0  0
  5 13  1  6  0  0  0
  5  4  1  0  0  0  0
  5  9  1  0  0  0  0
  6  1  1  0  0  0  0
  7  8  1  1  0  0  0
  7 12  1  0  0  0  0
  7 10  1  0  0  0  0
  9  2  1  0  0  0  0
 10 35  1  6  0  0  0
 12 11  1  0  0  0  0
 14 13  1  0  0  0  0
 15 14  1  0  0  0  0
 16 15  1  1  0  0  0
 17 24  1  6  0  0  0
 17 20  1  0  0  0  0
 18 16  1  6  0  0  0
 18 21  1  0  0  0  0
 18 19  1  0  0  0  0
 19 20  1  0  0  0  0
 21 17  1  0  0  0  0
 22 23  2  0  0  0  0
 22 27  1  0  0  0  0
 24 22  1  0  0  0  0
 26 27  2  0  0  0  0
 27 25  1  0  0  0  0
 28 16  1  1  0  0  0
 29 28  1  0  0  0  0
 29 31  2  0  0  0  0
 30 29  1  0  0  0  0
 30 28  1  0  0  0  0
 32 34  1  6  0  0  0
 32 33  1  0  0  0  0
 32 28  1  0  0  0  0
 34 33  1  0  0  0  0
 36 43  2  0  0  0  0
 36 39  1  0  0  0  0
 37 44  1  0  0  0  0
 39 38  1  0  0  0  0
 39 41  1  1  0  0  0
 40 38  2  0  0  0  0
 42 37  1  0  0  0  0
 43 40  1  0  0  0  0
 44 35  1  1  0  0  0
 44 36  1  0  0  0  0
 45 42  1  6  0  0  0
 45 43  1  0  0  0  0
 46 51  1  6  0  0  0
 46 47  1  0  0  0  0
 46 50  1  0  0  0  0
 47 45  1  1  0  0  0
 47 48  1  0  0  0  0
 48 49  1  6  0  0  0
 50 48  1  0  0  0  0
 52 53  1  0  0  0  0
 53 51  1  0  0  0  0
M  END
>  <MODEL>
2

>  <REMARK>
 VINA RESULT:      -6.7      2.573      8.301
  Name = 
  15 active torsions:
  status: ('A' for Active; 'I' for Inactive)
    1  A    between atoms: C_1  and  C_3
    2  A    between atoms: C_1  and  C_37
    3  A    between atoms: C_2  and  C_25
    4  A    between atoms: C_2  and  C_37
    5  A    between atoms: C_4  and  C_23
    6  A    between atoms: C_4  and  C_25
    7  A    between atoms: C_16  and  C_26
    8  A    between atoms: O_18  and  C_43
    9  A    between atoms: C_24  and  C_49
   10  A    between atoms: C_24  and  C_50
   11  A    between atoms: C_27  and  C_43
   12  A    between atoms: C_31  and  N_53
   13  A    between atoms: C_32  and  C_33
   14  A    between atoms: C_34  and  C_37
   15  A    between atoms: N_35  and  C_52
                            x       y       z     vdW  Elec       q    Type
                         _______ _______ _______ _____ _____    ______ ____

>  <TORSDO>
F 15

$$$$
=
 OpenBabel11062420323D

 53 60  0  0  1  0  0  0  0  0999 V2000
  194.1480  173.1120  143.2980 C   0  0  0  0  0  2  0  0  0  0  0  0
  193.3770  175.1630  145.1240 C   0  0  0  0  0  0  0  0  0  0  0  0
  192.7020  174.0210  145.0770 C   0  0  0  0  0  0  0  0  0  0  0  0
  190.9840  174.1190  145.5350 S   0  0  0  0  0  0  0  0  0  0  0  0
  191.1160  175.9450  145.5070 C   0  0  2  0  0  3  0  0  0  0  0  0
  193.3380  172.7730  144.5490 C   0  0  0  0  0  2  0  0  0  0  0  0
  194.8380  175.2230  144.7370 C   0  0  2  0  0  0  0  0  0  0  0  0
  195.1930  176.5450  144.4440 O   0  0  0  0  0  1  0  0  0  0  0  0
  192.5860  176.3410  145.5720 C   0  0  0  0  0  2  0  0  0  0  0  0
  195.1380  174.2800  143.5270 C   0  0  2  0  0  3  0  0  0  0  0  0
  196.8550  174.1630  145.5170 O   0  0  0  0  0  1  0  0  0  0  0  0
  195.6620  174.7570  145.9350 C   0  0  0  0  0  2  0  0  0  0  0  0
  190.3790  176.5630  146.6870 C   0  0  0  0  0  2  0  0  0  0  0  0
  188.8760  176.3230  146.6200 C   0  0  0  0  0  2  0  0  0  0  0  0
  188.1500  177.5430  146.0790 C   0  0  0  0  0  2  0  0  0  0  0  0
  187.0520  177.1340  145.0940 C   0  0  2  0  0  3  0  0  0  0  0  0
  188.2050  176.1640  141.9220 C   0  0  2  0  0  3  0  0  0  0  0  0
  187.3660  177.5590  143.6580 C   0  0  1  0  0  3  0  0  0  0  0  0
  188.7350  177.8500  143.4960 O   0  0  0  0  0  0  0  0  0  0  0  0
  189.0910  177.3430  142.2360 C   0  0  0  0  0  2  0  0  0  0  0  0
  186.9590  176.4690  142.6940 C   0  0  0  0  0  2  0  0  0  0  0  0
  189.3430  173.9270  141.5960 C   0  0  0  0  0  0  0  0  0  0  0  0
  189.3880  174.1060  140.3480 O   0  0  0  0  0  0  0  0  0  0  0  0
  188.8100  174.9480  142.4460 N   0  0  0  0  0  2  0  0  0  0  0  0
  191.0610  172.0160  141.6380 C   0  0  0  0  0  1  0  0  0  0  0  0
  189.1680  172.0630  143.1530 C   0  0  0  0  0  2  0  0  0  0  0  0
  189.8290  172.6610  142.1700 C   0  0  0  0  0  0  0  0  0  0  0  0
  185.6580  177.5970  145.5350 C   0  0  2  0  0  0  0  0  0  0  0  0
  185.5510  178.0270  146.8520 C   0  0  0  0  0  0  0  0  0  0  0  0
  185.0580  176.6570  146.3730 N   0  0  0  0  0  2  0  0  0  0  0  0
  185.7240  178.8830  147.7580 O   0  0  0  0  0  0  0  0  0  0  0  0
  184.6510  178.1360  144.5050 C   0  0  1  0  0  3  0  0  0  0  0  0
  183.7060  178.9830  145.1220 O   0  0  0  0  0  0  0  0  0  0  0  0
  184.7230  179.6120  144.3830 C   0  0  0  0  0  2  0  0  0  0  0  0
  195.5110  174.9890  142.2170 C   0  0  0  0  0  2  0  0  0  0  0  0
  195.7660  174.6480  139.7540 C   0  0  1  0  0  3  0  0  0  0  0  0
  193.4700  174.8040  140.7370 C   0  0  0  0  0  2  0  0  0  0  0  0
  197.4260  174.7010  138.1730 N   0  0  0  0  0  2  0  0  0  0  0  0
  197.2450  174.4830  139.6070 C   0  0  1  0  0  3  0  0  0  0  0  0
  196.3170  174.8970  137.5870 N   0  0  0  0  0  0  0  0  0  0  0  0
  197.9370  175.5260  140.3440 N   0  0  0  0  0  1  0  0  0  0  0  0
  192.9760  174.3510  139.3650 C   0  0  0  0  0  2  0  0  0  0  0  0
  195.2700  174.8330  138.5410 C   0  0  0  0  0  0  0  0  0  0  0  0
  194.9180  174.3460  140.9630 C   0  0  2  0  0  3  0  0  0  0  0  0
  193.8000  175.0180  138.2500 C   0  0  1  0  0  3  0  0  0  0  0  0
  192.0170  174.1250  136.9350 C   0  0  1  0  0  3  0  0  0  0  0  0
  193.4440  174.4630  136.9380 N   0  0  1  0  0  0  0  0  0  0  0  0
  193.1380  175.5770  136.0400 C   0  0  1  0  0  3  0  0  0  0  0  0
  193.7770  175.3380  134.6810 C   0  0  0  0  0  1  0  0  0  0  0  0
  191.6660  175.2440  135.9820 C   0  0  0  0  0  2  0  0  0  0  0  0
  191.7940  172.7800  136.2610 C   0  0  0  0  0  2  0  0  0  0  0  0
  192.5390  171.0670  137.4350 C   0  0  0  0  0  1  0  0  0  0  0  0
  192.9150  171.9690  136.4400 O   0  0  0  0  0  0  0  0  0  0  0  0
  1 10  1  0  0  0  0
  1  6  1  0  0  0  0
  2  9  1  0  0  0  0
  3  2  2  0  0  0  0
  3  4  1  0  0  0  0
  5  4  1  0  0  0  0
  5  9  1  0  0  0  0
  5 13  1  1  0  0  0
  6  3  1  0  0  0  0
  7  8  1  6  0  0  0
  7  2  1  0  0  0  0
  7 12  1  0  0  0  0
 10 35  1  6  0  0  0
 10  7  1  0  0  0  0
 11 12  1  0  0  0  0
 14 13  1  0  0  0  0
 15 14  1  0  0  0  0
 16 15  1  1  0  0  0
 17 20  1  0  0  0  0
 17 24  1  1  0  0  0
 17 21  1  0  0  0  0
 18 16  1  1  0  0  0
 19 18  1  0  0  0  0
 20 19  1  0  0  0  0
 21 18  1  0  0  0  0
 22 27  1  0  0  0  0
 22 24  1  0  0  0  0
 23 22  2  0  0  0  0
 25 27  1  0  0  0  0
 27 26  2  0  0  0  0
 28 16  1  6  0  0  0
 28 30  1  0  0  0  0
 28 29  1  0  0  0  0
 29 31  2  0  0  0  0
 30 29  1  0  0  0  0
 32 34  1  6  0  0  0
 32 33  1  0  0  0  0
 32 28  1  0  0  0  0
 34 33  1  0  0  0  0
 36 43  1  6  0  0  0
 36 44  1  0  0  0  0
 37 44  1  0  0  0  0
 38 39  1  0  0  0  0
 39 36  1  0  0  0  0
 39 41  1  1  0  0  0
 40 38  1  0  0  0  0
 40 43  2  0  0  0  0
 42 37  1  0  0  0  0
 44 35  1  1  0  0  0
 45 43  1  0  0  0  0
 45 42  1  1  0  0  0
 46 51  1  6  0  0  0
 46 47  1  0  0  0  0
 47 45  1  1  0  0  0
 48 49  1  6  0  0  0
 48 47  1  0  0  0  0
 50 48  1  0  0  0  0
 50 46  1  0  0  0  0
 51 53  1  0  0  0  0
 53 52  1  0  0  0  0
M  END
>  <MODEL>
3

>  <REMARK>
 VINA RESULT:      -6.4      2.423      3.105
  Name = 
  15 active torsions:
  status: ('A' for Active; 'I' for Inactive)
    1  A    between atoms: C_1  and  C_3
    2  A    between atoms: C_1  and  C_37
    3  A    between atoms: C_2  and  C_25
    4  A    between atoms: C_2  and  C_37
    5  A    between atoms: C_4  and  C_23
    6  A    between atoms: C_4  and  C_25
    7  A    between atoms: C_16  and  C_26
    8  A    between atoms: O_18  and  C_43
    9  A    between atoms: C_24  and  C_49
   10  A    between atoms: C_24  and  C_50
   11  A    between atoms: C_27  and  C_43
   12  A    between atoms: C_31  and  N_53
   13  A    between atoms: C_32  and  C_33
   14  A    between atoms: C_34  and  C_37
   15  A    between atoms: N_35  and  C_52
                            x       y       z     vdW  Elec       q    Type
                         _______ _______ _______ _____ _____    ______ ____

>  <TORSDO>
F 15

$$$$
=
 OpenBabel11062420323D

 53 60  0  0  1  0  0  0  0  0999 V2000
  194.7560  176.3100  144.7330 C   0  0  0  0  0  2  0  0  0  0  0  0
  194.7590  173.9280  143.1650 C   0  0  0  0  0  0  0  0  0  0  0  0
  195.3670  175.0210  142.7220 C   0  0  0  0  0  0  0  0  0  0  0  0
  195.4520  175.1940  140.9520 S   0  0  0  0  0  0  0  0  0  0  0  0
  194.2880  173.7900  140.7930 C   0  0  2  0  0  3  0  0  0  0  0  0
  195.8310  176.0820  143.6710 C   0  0  0  0  0  2  0  0  0  0  0  0
  194.5980  173.6710  144.6470 C   0  0  2  0  0  0  0  0  0  0  0  0
  193.5780  172.7340  144.8540 O   0  0  0  0  0  1  0  0  0  0  0  0
  194.2610  173.0120  142.1030 C   0  0  0  0  0  2  0  0  0  0  0  0
  194.3070  174.9980  145.4200 C   0  0  2  0  0  3  0  0  0  0  0  0
  196.3910  173.8190  146.2490 O   0  0  0  0  0  1  0  0  0  0  0  0
  195.9060  173.0800  145.1680 C   0  0  0  0  0  2  0  0  0  0  0  0
  194.7110  172.8570  139.6670 C   0  0  0  0  0  2  0  0  0  0  0  0
  193.9730  171.5250  139.7110 C   0  0  0  0  0  2  0  0  0  0  0  0
  192.6510  171.6050  138.9670 C   0  0  0  0  0  2  0  0  0  0  0  0
  191.5000  171.9060  139.9290 C   0  0  2  0  0  3  0  0  0  0  0  0
  191.4680  169.0190  141.9280 C   0  0  2  0  0  3  0  0  0  0  0  0
  190.7420  170.6440  140.3470 C   0  0  1  0  0  3  0  0  0  0  0  0
  191.1880  169.5160  139.6310 O   0  0  0  0  0  0  0  0  0  0  0  0
  191.2110  168.4570  140.5530 C   0  0  0  0  0  2  0  0  0  0  0  0
  190.9120  170.4060  141.8300 C   0  0  0  0  0  2  0  0  0  0  0  0
  193.4580  169.3040  143.4660 C   0  0  0  0  0  0  0  0  0  0  0  0
  192.7020  169.3370  144.4750 O   0  0  0  0  0  0  0  0  0  0  0  0
  192.9020  169.0920  142.1630 N   0  0  0  0  0  2  0  0  0  0  0  0
  195.7860  169.6810  142.4430 C   0  0  0  0  0  1  0  0  0  0  0  0
  195.4620  169.4820  144.8380 C   0  0  0  0  0  2  0  0  0  0  0  0
  194.9090  169.4960  143.6320 C   0  0  0  0  0  0  0  0  0  0  0  0
  190.5530  172.9910  139.4000 C   0  0  2  0  0  0  0  0  0  0  0  0
  189.9760  172.7390  138.1610 C   0  0  0  0  0  0  0  0  0  0  0  0
  191.1450  173.7100  138.3620 N   0  0  0  0  0  2  0  0  0  0  0  0
  189.1370  172.1600  137.4240 O   0  0  0  0  0  0  0  0  0  0  0  0
  189.8210  173.9320  140.3720 C   0  0  1  0  0  3  0  0  0  0  0  0
  188.5500  174.2820  139.8680 O   0  0  0  0  0  0  0  0  0  0  0  0
  188.5740  173.3230  140.8950 C   0  0  0  0  0  2  0  0  0  0  0  0
  192.9010  175.1120  146.0260 C   0  0  0  0  0  2  0  0  0  0  0  0
  190.8470  176.5350  146.0990 C   0  0  0  0  0  0  0  0  0  0  0  0
  191.3370  175.1990  144.0420 C   0  0  0  0  0  2  0  0  0  0  0  0
  189.6400  177.7330  147.6380 N   0  0  0  0  0  0  0  0  0  0  0  0
  190.9970  177.2410  147.4090 C   0  0  1  0  0  3  0  0  0  0  0  0
  188.8680  177.4380  146.6730 N   0  0  0  0  0  0  0  0  0  0  0  0
  191.3480  176.2920  148.4500 N   0  0  0  0  0  1  0  0  0  0  0  0
  190.2040  175.9940  143.3950 C   0  0  0  0  0  2  0  0  0  0  0  0
  189.6030  176.7270  145.6920 C   0  0  0  0  0  0  0  0  0  0  0  0
  191.9370  175.9810  145.2180 C   0  0  2  0  0  3  0  0  0  0  0  0
  189.0500  176.1920  144.3920 C   0  0  1  0  0  3  0  0  0  0  0  0
  187.6640  176.6280  142.4960 C   0  0  1  0  0  3  0  0  0  0  0  0
  188.0330  177.0950  143.8360 N   0  0  1  0  0  0  0  0  0  0  0  0
  186.7220  176.6470  144.3070 C   0  0  1  0  0  3  0  0  0  0  0  0
  185.8890  177.8440  144.7360 C   0  0  0  0  0  1  0  0  0  0  0  0
  186.2880  176.1840  142.9350 C   0  0  0  0  0  2  0  0  0  0  0  0
  187.5490  177.8060  141.5400 C   0  0  0  0  0  2  0  0  0  0  0  0
  186.5370  177.4160  139.6190 C   0  0  0  0  0  1  0  0  0  0  0  0
  186.2920  177.8040  140.9350 O   0  0  0  0  0  0  0  0  0  0  0  0
  1 10  1  0  0  0  0
  2  7  1  0  0  0  0
  3  2  2  0  0  0  0
  3  6  1  0  0  0  0
  4  3  1  0  0  0  0
  5 13  1  6  0  0  0
  5  4  1  0  0  0  0
  5  9  1  0  0  0  0
  6  1  1  0  0  0  0
  7  8  1  1  0  0  0
  7 12  1  0  0  0  0
  7 10  1  0  0  0  0
  9  2  1  0  0  0  0
 10 35  1  6  0  0  0
 12 11  1  0  0  0  0
 13 14  1  0  0  0  0
 15 14  1  0  0  0  0
 16 15  1  6  0  0  0
 17 24  1  6  0  0  0
 18 16  1  6  0  0  0
 18 21  1  0  0  0  0
 19 18  1  0  0  0  0
 19 20  1  0  0  0  0
 20 17  1  0  0  0  0
 21 17  1  0  0  0  0
 22 27  1  0  0  0  0
 22 23  2  0  0  0  0
 24 22  1  0  0  0  0
 25 27  1  0  0  0  0
 27 26  2  0  0  0  0
 28 16  1  1  0  0  0
 28 32  1  0  0  0  0
 29 30  1  0  0  0  0
 29 28  1  0  0  0  0
 30 28  1  0  0  0  0
 31 29  2  0  0  0  0
 32 34  1  1  0  0  0
 33 32  1  0  0  0  0
 33 34  1  0  0  0  0
 36 39  1  0  0  0  0
 37 44  1  0  0  0  0
 39 38  1  0  0  0  0
 39 41  1  1  0  0  0
 40 38  2  0  0  0  0
 42 37  1  0  0  0  0
 43 36  2  0  0  0  0
 43 40  1  0  0  0  0
 44 35  1  1  0  0  0
 44 36  1  0  0  0  0
 45 42  1  6  0  0  0
 45 43  1  0  0  0  0
 46 51  1  6  0  0  0
 46 50  1  0  0  0  0
 46 47  1  0  0  0  0
 47 48  1  0  0  0  0
 47 45  1  1  0  0  0
 48 49  1  6  0  0  0
 50 48  1  0  0  0  0
 52 53  1  0  0  0  0
 53 51  1  0  0  0  0
M  END
>  <MODEL>
4

>  <REMARK>
 VINA RESULT:      -6.2      2.691      7.439
  Name = 
  15 active torsions:
  status: ('A' for Active; 'I' for Inactive)
    1  A    between atoms: C_1  and  C_3
    2  A    between atoms: C_1  and  C_37
    3  A    between atoms: C_2  and  C_25
    4  A    between atoms: C_2  and  C_37
    5  A    between atoms: C_4  and  C_23
    6  A    between atoms: C_4  and  C_25
    7  A    between atoms: C_16  and  C_26
    8  A    between atoms: O_18  and  C_43
    9  A    between atoms: C_24  and  C_49
   10  A    between atoms: C_24  and  C_50
   11  A    between atoms: C_27  and  C_43
   12  A    between atoms: C_31  and  N_53
   13  A    between atoms: C_32  and  C_33
   14  A    between atoms: C_34  and  C_37
   15  A    between atoms: N_35  and  C_52
                            x       y       z     vdW  Elec       q    Type
                         _______ _______ _______ _____ _____    ______ ____

>  <TORSDO>
F 15

$$$$
=
 OpenBabel11062420323D

 53 60  0  0  1  0  0  0  0  0999 V2000
  194.1440  172.6620  144.0570 C   0  0  0  0  0  2  0  0  0  0  0  0
  193.3430  175.3480  144.5780 C   0  0  0  0  0  0  0  0  0  0  0  0
  192.6030  174.3350  145.0090 C   0  0  0  0  0  0  0  0  0  0  0  0
  190.8610  174.6640  145.1700 S   0  0  0  0  0  0  0  0  0  0  0  0
  191.1120  176.2470  144.2860 C   0  0  2  0  0  3  0  0  0  0  0  0
  193.2030  172.9790  145.2190 C   0  0  0  0  0  2  0  0  0  0  0  0
  194.8340  175.1960  144.3750 C   0  0  2  0  0  0  0  0  0  0  0  0
  195.3000  176.2080  143.5260 O   0  0  0  0  0  1  0  0  0  0  0  0
  192.5930  176.6070  144.3160 C   0  0  0  0  0  2  0  0  0  0  0  0
  195.1820  173.7820  143.8070 C   0  0  2  0  0  3  0  0  0  0  0  0
  196.4360  174.3310  145.9530 O   0  0  0  0  0  1  0  0  0  0  0  0
  195.5140  175.3570  145.7330 C   0  0  0  0  0  2  0  0  0  0  0  0
  190.3120  177.3670  144.9350 C   0  0  0  0  0  2  0  0  0  0  0  0
  188.9390  176.9010  145.4020 C   0  0  0  0  0  2  0  0  0  0  0  0
  187.9120  178.0150  145.2810 C   0  0  0  0  0  2  0  0  0  0  0  0
  186.6370  177.5100  144.6010 C   0  0  2  0  0  3  0  0  0  0  0  0
  187.5400  176.2680  141.4430 C   0  0  2  0  0  3  0  0  0  0  0  0
  186.6510  177.7400  143.0880 C   0  0  1  0  0  3  0  0  0  0  0  0
  187.8850  178.2680  142.6600 O   0  0  0  0  0  0  0  0  0  0  0  0
  188.1730  177.6360  141.4390 C   0  0  0  0  0  2  0  0  0  0  0  0
  186.3730  176.4430  142.3650 C   0  0  0  0  0  2  0  0  0  0  0  0
  188.7950  174.0710  141.3710 C   0  0  0  0  0  0  0  0  0  0  0  0
  188.3530  173.8300  140.2150 O   0  0  0  0  0  0  0  0  0  0  0  0
  188.4670  175.3050  142.0190 N   0  0  0  0  0  2  0  0  0  0  0  0
  189.0590  172.1790  143.0910 C   0  0  0  0  0  1  0  0  0  0  0  0
  190.9330  172.9750  141.7730 C   0  0  0  0  0  2  0  0  0  0  0  0
  189.6400  173.0750  142.0530 C   0  0  0  0  0  0  0  0  0  0  0  0
  185.3620  178.0610  145.2510 C   0  0  2  0  0  0  0  0  0  0  0  0
  184.5220  178.7880  144.4160 C   0  0  0  0  0  0  0  0  0  0  0  0
  185.4530  179.4390  145.4460 N   0  0  0  0  0  2  0  0  0  0  0  0
  183.6570  178.8670  143.5060 O   0  0  0  0  0  0  0  0  0  0  0  0
  184.7510  177.3710  146.4830 C   0  0  1  0  0  3  0  0  0  0  0  0
  185.7380  177.1280  147.4620 O   0  0  0  0  0  0  0  0  0  0  0  0
  184.8730  178.2090  147.7010 C   0  0  0  0  0  2  0  0  0  0  0  0
  195.7190  173.7650  142.3680 C   0  0  0  0  0  2  0  0  0  0  0  0
  195.0890  172.3610  140.3980 C   0  0  1  0  0  3  0  0  0  0  0  0
  194.3400  174.7460  140.4900 C   0  0  0  0  0  2  0  0  0  0  0  0
  195.6150  170.3140  139.5070 N   0  0  0  0  0  2  0  0  0  0  0  0
  195.6050  171.0130  140.7910 C   0  0  1  0  0  3  0  0  0  0  0  0
  195.1630  171.0470  138.5730 N   0  0  0  0  0  0  0  0  0  0  0  0
  196.9650  171.1270  141.2880 N   0  0  0  0  0  1  0  0  0  0  0  0
  193.4670  174.3990  139.2860 C   0  0  0  0  0  2  0  0  0  0  0  0
  194.7980  172.3080  139.1080 C   0  0  0  0  0  0  0  0  0  0  0  0
  194.6560  173.4850  141.3040 C   0  0  2  0  0  3  0  0  0  0  0  0
  194.2230  173.4650  138.3250 C   0  0  1  0  0  3  0  0  0  0  0  0
  192.1690  173.8780  137.1790 C   0  0  1  0  0  3  0  0  0  0  0  0
  193.3360  172.9920  137.2550 N   0  0  1  0  0  0  0  0  0  0  0  0
  193.8010  173.5690  135.9920 C   0  0  1  0  0  3  0  0  0  0  0  0
  193.7780  172.5110  134.9010 C   0  0  0  0  0  1  0  0  0  0  0  0
  192.5970  174.4720  135.8580 C   0  0  0  0  0  2  0  0  0  0  0  0
  190.8990  173.0610  136.9930 C   0  0  0  0  0  2  0  0  0  0  0  0
  189.8450  171.3210  137.8470 C   0  0  0  0  0  1  0  0  0  0  0  0
  191.1050  171.7550  137.4400 O   0  0  0  0  0  0  0  0  0  0  0  0
  1  6  1  0  0  0  0
  2  3  2  0  0  0  0
  3  4  1  0  0  0  0
  3  6  1  0  0  0  0
  5  9  1  0  0  0  0
  5 13  1  1  0  0  0
  5  4  1  0  0  0  0
  7  8  1  6  0  0  0
  7  2  1  0  0  0  0
  7 12  1  0  0  0  0
  9  2  1  0  0  0  0
 10 35  1  6  0  0  0
 10  1  1  0  0  0  0
 10  7  1  0  0  0  0
 12 11  1  0  0  0  0
 13 14  1  0  0  0  0
 15 14  1  0  0  0  0
 16 15  1  1  0  0  0
 17 24  1  1  0  0  0
 17 21  1  0  0  0  0
 18 16  1  1  0  0  0
 19 18  1  0  0  0  0
 20 17  1  0  0  0  0
 20 19  1  0  0  0  0
 21 18  1  0  0  0  0
 22 24  1  0  0  0  0
 22 27  1  0  0  0  0
 23 22  2  0  0  0  0
 26 27  2  0  0  0  0
 27 25  1  0  0  0  0
 28 16  1  6  0  0  0
 28 30  1  0  0  0  0
 28 32  1  0  0  0  0
 29 28  1  0  0  0  0
 29 30  1  0  0  0  0
 31 29  2  0  0  0  0
 32 33  1  0  0  0  0
 32 34  1  1  0  0  0
 33 34  1  0  0  0  0
 36 43  1  6  0  0  0
 36 39  1  0  0  0  0
 36 44  1  0  0  0  0
 37 44  1  0  0  0  0
 38 39  1  0  0  0  0
 39 41  1  6  0  0  0
 40 43  2  0  0  0  0
 40 38  1  0  0  0  0
 42 37  1  0  0  0  0
 44 35  1  1  0  0  0
 45 43  1  0  0  0  0
 45 42  1  1  0  0  0
 46 51  1  6  0  0  0
 46 47  1  0  0  0  0
 47 45  1  1  0  0  0
 48 49  1  6  0  0  0
 48 47  1  0  0  0  0
 50 48  1  0  0  0  0
 50 46  1  0  0  0  0
 51 53  1  0  0  0  0
 53 52  1  0  0  0  0
M  END
>  <MODEL>
5

>  <REMARK>
 VINA RESULT:      -5.8      1.701      2.014
  Name = 
  15 active torsions:
  status: ('A' for Active; 'I' for Inactive)
    1  A    between atoms: C_1  and  C_3
    2  A    between atoms: C_1  and  C_37
    3  A    between atoms: C_2  and  C_25
    4  A    between atoms: C_2  and  C_37
    5  A    between atoms: C_4  and  C_23
    6  A    between atoms: C_4  and  C_25
    7  A    between atoms: C_16  and  C_26
    8  A    between atoms: O_18  and  C_43
    9  A    between atoms: C_24  and  C_49
   10  A    between atoms: C_24  and  C_50
   11  A    between atoms: C_27  and  C_43
   12  A    between atoms: C_31  and  N_53
   13  A    between atoms: C_32  and  C_33
   14  A    between atoms: C_34  and  C_37
   15  A    between atoms: N_35  and  C_52
                            x       y       z     vdW  Elec       q    Type
                         _______ _______ _______ _____ _____    ______ ____

>  <TORSDO>
F 15

$$$$
=
 OpenBabel11062420323D

 53 60  0  0  1  0  0  0  0  0999 V2000
  194.0900  176.6340  145.6710 C   0  0  0  0  0  2  0  0  0  0  0  0
  194.3040  174.4520  143.8490 C   0  0  0  0  0  0  0  0  0  0  0  0
  194.8310  175.6310  143.5440 C   0  0  0  0  0  0  0  0  0  0  0  0
  194.9290  176.0080  141.8070 S   0  0  0  0  0  0  0  0  0  0  0  0
  193.8820  174.5460  141.4650 C   0  0  2  0  0  3  0  0  0  0  0  0
  195.1950  176.6100  144.6170 C   0  0  0  0  0  2  0  0  0  0  0  0
  194.1410  174.0170  145.2880 C   0  0  2  0  0  0  0  0  0  0  0  0
  193.1940  172.9880  145.3650 O   0  0  0  0  0  1  0  0  0  0  0  0
  193.8950  173.6260  142.6790 C   0  0  0  0  0  2  0  0  0  0  0  0
  193.7350  175.2230  146.1970 C   0  0  2  0  0  3  0  0  0  0  0  0
  195.6200  172.1220  145.4430 O   0  0  0  0  0  1  0  0  0  0  0  0
  195.4830  173.4730  145.7710 C   0  0  0  0  0  2  0  0  0  0  0  0
  194.3940  173.7810  140.2520 C   0  0  0  0  0  2  0  0  0  0  0  0
  193.2870  173.0070  139.5480 C   0  0  0  0  0  2  0  0  0  0  0  0
  191.9860  173.7910  139.5450 C   0  0  0  0  0  2  0  0  0  0  0  0
  190.8230  172.9200  140.0280 C   0  0  2  0  0  3  0  0  0  0  0  0
  189.9560  171.7650  136.8280 C   0  0  2  0  0  3  0  0  0  0  0  0
  189.7260  172.7720  138.9720 C   0  0  1  0  0  3  0  0  0  0  0  0
  189.7890  173.8040  138.0160 O   0  0  0  0  0  0  0  0  0  0  0  0
  189.5080  173.2030  136.7790 C   0  0  0  0  0  2  0  0  0  0  0  0
  189.8490  171.4320  138.2840 C   0  0  0  0  0  2  0  0  0  0  0  0
  191.9010  170.4940  135.8220 C   0  0  0  0  0  0  0  0  0  0  0  0
  191.1510  169.5180  135.5490 O   0  0  0  0  0  0  0  0  0  0  0  0
  191.3490  171.6750  136.4160 N   0  0  0  0  0  2  0  0  0  0  0  0
  193.9770  169.0970  135.2360 C   0  0  0  0  0  1  0  0  0  0  0  0
  194.1060  171.4950  135.5710 C   0  0  0  0  0  2  0  0  0  0  0  0
  193.3440  170.4100  135.5390 C   0  0  0  0  0  0  0  0  0  0  0  0
  190.2590  173.3830  141.3770 C   0  0  2  0  0  0  0  0  0  0  0  0
  189.1650  174.2370  141.3160 C   0  0  0  0  0  0  0  0  0  0  0  0
  190.5880  174.7150  141.6290 N   0  0  0  0  0  2  0  0  0  0  0  0
  187.9400  174.4610  141.1370 O   0  0  0  0  0  0  0  0  0  0  0  0
  190.4470  172.5240  142.6400 C   0  0  1  0  0  3  0  0  0  0  0  0
  189.2180  171.9700  143.0560 O   0  0  0  0  0  0  0  0  0  0  0  0
  190.1040  171.1020  142.3950 C   0  0  0  0  0  2  0  0  0  0  0  0
  192.3140  175.1590  146.7770 C   0  0  0  0  0  2  0  0  0  0  0  0
  190.5300  176.9010  146.9570 C   0  0  0  0  0  0  0  0  0  0  0  0
  190.3190  175.1070  145.2260 C   0  0  0  0  0  2  0  0  0  0  0  0
  189.9050  178.5800  148.3880 N   0  0  0  0  0  0  0  0  0  0  0  0
  191.0910  177.8240  147.9910 C   0  0  1  0  0  3  0  0  0  0  0  0
  188.8840  178.2320  147.7180 N   0  0  0  0  0  0  0  0  0  0  0  0
  191.5800  177.0620  149.1270 N   0  0  0  0  0  1  0  0  0  0  0  0
  189.1620  175.9360  144.6730 C   0  0  0  0  0  2  0  0  0  0  0  0
  189.2550  177.2180  146.8000 C   0  0  0  0  0  0  0  0  0  0  0  0
  191.2870  175.9980  146.0160 C   0  0  2  0  0  3  0  0  0  0  0  0
  188.3310  176.5320  145.8220 C   0  0  1  0  0  3  0  0  0  0  0  0
  186.9650  177.0680  143.9370 C   0  0  1  0  0  3  0  0  0  0  0  0
  187.3210  177.4640  145.3030 N   0  0  1  0  0  0  0  0  0  0  0  0
  186.0040  176.9930  145.7360 C   0  0  1  0  0  3  0  0  0  0  0  0
  185.1670  178.1670  146.2180 C   0  0  0  0  0  1  0  0  0  0  0  0
  185.5840  176.6030  144.3370 C   0  0  0  0  0  2  0  0  0  0  0  0
  186.8610  178.2940  143.0430 C   0  0  0  0  0  2  0  0  0  0  0  0
  186.6290  177.7080  140.9290 C   0  0  0  0  0  1  0  0  0  0  0  0
  185.8980  178.0810  142.0560 O   0  0  0  0  0  0  0  0  0  0  0  0
  1 10  1  0  0  0  0
  2  7  1  0  0  0  0
  3  2  2  0  0  0  0
  3  6  1  0  0  0  0
  4  3  1  0  0  0  0
  5 13  1  6  0  0  0
  5  4  1  0  0  0  0
  5  9  1  0  0  0  0
  6  1  1  0  0  0  0
  7  8  1  1  0  0  0
  7 12  1  0  0  0  0
  7 10  1  0  0  0  0
  9  2  1  0  0  0  0
 10 35  1  6  0  0  0
 11 12  1  0  0  0  0
 14 13  1  0  0  0  0
 15 14  1  0  0  0  0
 16 15  1  6  0  0  0
 17 24  1  1  0  0  0
 17 21  1  0  0  0  0
 18 16  1  1  0  0  0
 19 18  1  0  0  0  0
 20 17  1  0  0  0  0
 20 19  1  0  0  0  0
 21 18  1  0  0  0  0
 22 24  1  0  0  0  0
 23 22  2  0  0  0  0
 25 27  1  0  0  0  0
 27 26  2  0  0  0  0
 27 22  1  0  0  0  0
 28 16  1  6  0  0  0
 28 30  1  0  0  0  0
 28 32  1  0  0  0  0
 29 28  1  0  0  0  0
 29 30  1  0  0  0  0
 31 29  2  0  0  0  0
 32 34  1  6  0  0  0
 32 33  1  0  0  0  0
 34 33  1  0  0  0  0
 36 39  1  0  0  0  0
 37 44  1  0  0  0  0
 39 38  1  0  0  0  0
 39 41  1  1  0  0  0
 40 38  2  0  0  0  0
 42 37  1  0  0  0  0
 43 36  2  0  0  0  0
 43 40  1  0  0  0  0
 44 35  1  1  0  0  0
 44 36  1  0  0  0  0
 45 42  1  6  0  0  0
 45 43  1  0  0  0  0
 46 51  1  6  0  0  0
 46 50  1  0  0  0  0
 46 47  1  0  0  0  0
 47 48  1  0  0  0  0
 47 45  1  1  0  0  0
 48 49  1  6  0  0  0
 50 48  1  0  0  0  0
 52 53  1  0  0  0  0
 53 51  1  0  0  0  0
M  END
>  <MODEL>
6

>  <REMARK>
 VINA RESULT:      -5.7      2.646      7.751
  Name = 
  15 active torsions:
  status: ('A' for Active; 'I' for Inactive)
    1  A    between atoms: C_1  and  C_3
    2  A    between atoms: C_1  and  C_37
    3  A    between atoms: C_2  and  C_25
    4  A    between atoms: C_2  and  C_37
    5  A    between atoms: C_4  and  C_23
    6  A    between atoms: C_4  and  C_25
    7  A    between atoms: C_16  and  C_26
    8  A    between atoms: O_18  and  C_43
    9  A    between atoms: C_24  and  C_49
   10  A    between atoms: C_24  and  C_50
   11  A    between atoms: C_27  and  C_43
   12  A    between atoms: C_31  and  N_53
   13  A    between atoms: C_32  and  C_33
   14  A    between atoms: C_34  and  C_37
   15  A    between atoms: N_35  and  C_52
                            x       y       z     vdW  Elec       q    Type
                         _______ _______ _______ _____ _____    ______ ____

>  <TORSDO>
F 15

$$$$
=
 OpenBabel11062420323D

 53 60  0  0  1  0  0  0  0  0999 V2000
  193.8040  176.3280  144.9070 C   0  0  0  0  0  2  0  0  0  0  0  0
  194.2820  174.2730  142.9890 C   0  0  0  0  0  0  0  0  0  0  0  0
  194.8070  175.4800  142.8200 C   0  0  0  0  0  0  0  0  0  0  0  0
  195.0890  175.9710  141.1320 S   0  0  0  0  0  0  0  0  0  0  0  0
  194.1280  174.5130  140.5830 C   0  0  2  0  0  3  0  0  0  0  0  0
  195.0210  176.3950  143.9860 C   0  0  0  0  0  2  0  0  0  0  0  0
  193.9710  173.7420  144.3710 C   0  0  2  0  0  0  0  0  0  0  0  0
  193.0510  172.6910  144.2750 O   0  0  0  0  0  1  0  0  0  0  0  0
  194.0310  173.5160  141.7320 C   0  0  0  0  0  2  0  0  0  0  0  0
  193.4320  174.8780  145.3000 C   0  0  2  0  0  3  0  0  0  0  0  0
  195.0170  172.0570  145.7380 O   0  0  0  0  0  1  0  0  0  0  0  0
  195.2660  173.1960  144.9690 C   0  0  0  0  0  2  0  0  0  0  0  0
  194.7940  173.8390  139.3910 C   0  0  0  0  0  2  0  0  0  0  0  0
  193.7790  173.2670  138.4090 C   0  0  0  0  0  2  0  0  0  0  0  0
  192.3670  173.3600  138.9630 C   0  0  0  0  0  2  0  0  0  0  0  0
  191.5320  172.1510  138.5350 C   0  0  2  0  0  3  0  0  0  0  0  0
  190.3150  174.1130  135.8890 C   0  0  2  0  0  3  0  0  0  0  0  0
  190.3250  172.5480  137.6820 C   0  0  1  0  0  3  0  0  0  0  0  0
  189.7320  173.7360  138.1510 O   0  0  0  0  0  0  0  0  0  0  0  0
  189.3670  174.4640  137.0070 C   0  0  0  0  0  2  0  0  0  0  0  0
  190.7460  172.7230  136.2400 C   0  0  0  0  0  2  0  0  0  0  0  0
  191.5020  176.2560  135.2490 C   0  0  0  0  0  0  0  0  0  0  0  0
  190.4700  176.6760  134.6570 O   0  0  0  0  0  0  0  0  0  0  0  0
  191.4690  174.9990  135.9340 N   0  0  0  0  0  2  0  0  0  0  0  0
  194.0060  176.5020  135.7700 C   0  0  0  0  0  1  0  0  0  0  0  0
  192.7380  178.2900  134.7340 C   0  0  0  0  0  2  0  0  0  0  0  0
  192.7380  177.0570  135.2220 C   0  0  0  0  0  0  0  0  0  0  0  0
  191.1280  171.2620  139.7180 C   0  0  2  0  0  0  0  0  0  0  0  0
  192.1130  170.4100  140.2000 C   0  0  0  0  0  0  0  0  0  0  0  0
  190.9540  169.9390  139.3150 N   0  0  0  0  0  2  0  0  0  0  0  0
  193.1610  170.1850  140.8580 O   0  0  0  0  0  0  0  0  0  0  0  0
  190.0030  171.6970  140.6740 C   0  0  1  0  0  3  0  0  0  0  0  0
  190.1310  171.0530  141.9230 O   0  0  0  0  0  0  0  0  0  0  0  0
  190.5340  172.3980  141.8670 C   0  0  0  0  0  2  0  0  0  0  0  0
  191.9580  174.7470  145.7110 C   0  0  0  0  0  2  0  0  0  0  0  0
  190.2890  176.5470  146.1870 C   0  0  0  0  0  0  0  0  0  0  0  0
  190.0680  175.1960  144.0930 C   0  0  0  0  0  2  0  0  0  0  0  0
  189.6890  177.9180  147.9240 N   0  0  0  0  0  0  0  0  0  0  0  0
  190.8440  177.1740  147.4260 C   0  0  1  0  0  3  0  0  0  0  0  0
  188.6920  177.8090  147.1450 N   0  0  0  0  0  0  0  0  0  0  0  0
  191.2060  176.1460  148.3860 N   0  0  0  0  0  1  0  0  0  0  0  0
  189.0080  176.2160  143.6830 C   0  0  0  0  0  2  0  0  0  0  0  0
  189.0520  176.9920  146.0440 C   0  0  0  0  0  0  0  0  0  0  0  0
  191.0410  175.8120  145.1070 C   0  0  2  0  0  3  0  0  0  0  0  0
  188.1470  176.6130  144.8950 C   0  0  1  0  0  3  0  0  0  0  0  0
  186.5770  177.4020  143.2780 C   0  0  1  0  0  3  0  0  0  0  0  0
  187.2390  177.7140  144.5490 N   0  0  1  0  0  0  0  0  0  0  0  0
  185.9610  177.4780  145.2230 C   0  0  1  0  0  3  0  0  0  0  0  0
  185.4460  178.7750  145.8240 C   0  0  0  0  0  1  0  0  0  0  0  0
  185.2320  177.1840  143.9320 C   0  0  0  0  0  2  0  0  0  0  0  0
  186.5280  178.6380  142.3920 C   0  0  0  0  0  2  0  0  0  0  0  0
  187.1280  177.5590  140.5630 C   0  0  0  0  0  1  0  0  0  0  0  0
  186.0780  178.2900  141.1180 O   0  0  0  0  0  0  0  0  0  0  0  0
  1 10  1  0  0  0  0
  2  7  1  0  0  0  0
  3  2  2  0  0  0  0
  3  6  1  0  0  0  0
  4  3  1  0  0  0  0
  5 13  1  6  0  0  0
  5  4  1  0  0  0  0
  5  9  1  0  0  0  0
  6  1  1  0  0  0  0
  7  8  1  6  0  0  0
  7 12  1  0  0  0  0
  7 10  1  0  0  0  0
  9  2  1  0  0  0  0
 10 35  1  6  0  0  0
 12 11  1  0  0  0  0
 14 15  1  0  0  0  0
 14 13  1  0  0  0  0
 16 15  1  1  0  0  0
 17 24  1  1  0  0  0
 17 21  1  0  0  0  0
 17 20  1  0  0  0  0
 18 19  1  0  0  0  0
 18 16  1  1  0  0  0
 20 19  1  0  0  0  0
 21 18  1  0  0  0  0
 22 24  1  0  0  0  0
 23 22  2  0  0  0  0
 26 27  2  0  0  0  0
 27 22  1  0  0  0  0
 27 25  1  0  0  0  0
 28 16  1  6  0  0  0
 28 29  1  0  0  0  0
 28 32  1  0  0  0  0
 29 31  2  0  0  0  0
 30 28  1  0  0  0  0
 30 29  1  0  0  0  0
 32 34  1  1  0  0  0
 32 33  1  0  0  0  0
 34 33  1  0  0  0  0
 36 39  1  0  0  0  0
 37 44  1  0  0  0  0
 39 38  1  0  0  0  0
 39 41  1  1  0  0  0
 40 38  2  0  0  0  0
 42 37  1  0  0  0  0
 43 36  2  0  0  0  0
 43 40  1  0  0  0  0
 44 35  1  1  0  0  0
 44 36  1  0  0  0  0
 45 42  1  6  0  0  0
 45 43  1  0  0  0  0
 46 51  1  6  0  0  0
 46 50  1  0  0  0  0
 46 47  1  0  0  0  0
 47 45  1  1  0  0  0
 47 48  1  0  0  0  0
 48 49  1  6  0  0  0
 50 48  1  0  0  0  0
 52 53  1  0  0  0  0
 53 51  1  0  0  0  0
M  END
>  <MODEL>
7

>  <REMARK>
 VINA RESULT:      -5.6      3.017      8.298
  Name = 
  15 active torsions:
  status: ('A' for Active; 'I' for Inactive)
    1  A    between atoms: C_1  and  C_3
    2  A    between atoms: C_1  and  C_37
    3  A    between atoms: C_2  and  C_25
    4  A    between atoms: C_2  and  C_37
    5  A    between atoms: C_4  and  C_23
    6  A    between atoms: C_4  and  C_25
    7  A    between atoms: C_16  and  C_26
    8  A    between atoms: O_18  and  C_43
    9  A    between atoms: C_24  and  C_49
   10  A    between atoms: C_24  and  C_50
   11  A    between atoms: C_27  and  C_43
   12  A    between atoms: C_31  and  N_53
   13  A    between atoms: C_32  and  C_33
   14  A    between atoms: C_34  and  C_37
   15  A    between atoms: N_35  and  C_52
                            x       y       z     vdW  Elec       q    Type
                         _______ _______ _______ _____ _____    ______ ____

>  <TORSDO>
F 15

$$$$
=
 OpenBabel11062420323D

 53 60  0  0  1  0  0  0  0  0999 V2000
  194.9540  175.0040  146.0450 C   0  0  0  0  0  2  0  0  0  0  0  0
  192.2480  175.3010  145.1960 C   0  0  0  0  0  0  0  0  0  0  0  0
  192.6690  175.8940  146.3060 C   0  0  0  0  0  0  0  0  0  0  0  0
  191.4310  176.1560  147.5580 S   0  0  0  0  0  0  0  0  0  0  0  0
  190.2870  175.0930  146.6030 C   0  0  2  0  0  3  0  0  0  0  0  0
  194.1200  176.1970  146.5130 C   0  0  0  0  0  2  0  0  0  0  0  0
  193.2030  174.9990  144.0620 C   0  0  2  0  0  0  0  0  0  0  0  0
  192.6520  174.0140  143.2330 O   0  0  0  0  0  1  0  0  0  0  0  0
  190.7980  174.9680  145.1720 C   0  0  0  0  0  2  0  0  0  0  0  0
  194.6000  174.5570  144.6070 C   0  0  2  0  0  3  0  0  0  0  0  0
  192.2860  177.1270  143.4040 O   0  0  0  0  0  1  0  0  0  0  0  0
  193.3810  176.2740  143.2420 C   0  0  0  0  0  2  0  0  0  0  0  0
  188.8840  175.6820  146.5840 C   0  0  0  0  0  2  0  0  0  0  0  0
  188.8860  177.1900  146.8000 C   0  0  0  0  0  2  0  0  0  0  0  0
  188.3020  177.9160  145.6000 C   0  0  0  0  0  2  0  0  0  0  0  0
  187.1390  177.1270  144.9960 C   0  0  2  0  0  3  0  0  0  0  0  0
  187.8020  175.3560  142.0360 C   0  0  2  0  0  3  0  0  0  0  0  0
  187.1520  177.1450  143.4660 C   0  0  1  0  0  3  0  0  0  0  0  0
  188.4360  177.4380  142.9660 O   0  0  0  0  0  0  0  0  0  0  0  0
  188.6110  176.6130  141.8430 C   0  0  0  0  0  2  0  0  0  0  0  0
  186.6880  175.8110  142.9280 C   0  0  0  0  0  2  0  0  0  0  0  0
  188.8760  173.0690  142.1890 C   0  0  0  0  0  0  0  0  0  0  0  0
  188.4990  172.7890  141.0190 O   0  0  0  0  0  0  0  0  0  0  0  0
  188.6030  174.3640  142.7370 N   0  0  0  0  0  2  0  0  0  0  0  0
  190.5870  171.1580  142.3540 C   0  0  0  0  0  1  0  0  0  0  0  0
  189.3290  171.9140  144.2840 C   0  0  0  0  0  2  0  0  0  0  0  0
  189.5860  172.0580  142.9910 C   0  0  0  0  0  0  0  0  0  0  0  0
  185.7780  177.5530  145.5600 C   0  0  2  0  0  0  0  0  0  0  0  0
  185.7380  177.7940  146.9280 C   0  0  0  0  0  0  0  0  0  0  0  0
  185.1870  176.5170  146.2830 N   0  0  0  0  0  2  0  0  0  0  0  0
  185.9720  178.5080  147.9370 O   0  0  0  0  0  0  0  0  0  0  0  0
  184.7440  178.2550  144.6620 C   0  0  1  0  0  3  0  0  0  0  0  0
  183.8620  179.0410  145.4330 O   0  0  0  0  0  0  0  0  0  0  0  0
  184.8650  179.7310  144.7310 C   0  0  0  0  0  2  0  0  0  0  0  0
  194.9730  173.0890  144.3470 C   0  0  0  0  0  2  0  0  0  0  0  0
  194.8910  171.1690  142.7490 C   0  0  1  0  0  3  0  0  0  0  0  0
  196.0280  173.2880  142.0580 C   0  0  0  0  0  2  0  0  0  0  0  0
  194.3300  168.9450  142.7610 N   0  0  0  0  0  2  0  0  0  0  0  0
  194.0370  170.1830  143.4810 C   0  0  1  0  0  3  0  0  0  0  0  0
  195.1280  169.1460  141.7940 N   0  0  0  0  0  0  0  0  0  0  0  0
  194.4870  170.0590  144.8560 N   0  0  0  0  0  1  0  0  0  0  0  0
  196.0730  172.6730  140.6610 C   0  0  0  0  0  2  0  0  0  0  0  0
  195.4620  170.5220  141.7460 C   0  0  0  0  0  0  0  0  0  0  0  0
  194.8880  172.6710  142.8790 C   0  0  2  0  0  3  0  0  0  0  0  0
  196.3900  171.1700  140.7450 C   0  0  1  0  0  3  0  0  0  0  0  0
  195.2090  171.2160  138.6690 C   0  0  1  0  0  3  0  0  0  0  0  0
  196.2690  170.5390  139.4240 N   0  0  1  0  0  0  0  0  0  0  0  0
  197.2450  171.1650  138.5300 C   0  0  1  0  0  3  0  0  0  0  0  0
  197.9400  170.1010  137.6960 C   0  0  0  0  0  1  0  0  0  0  0  0
  196.1820  171.8530  137.7050 C   0  0  0  0  0  2  0  0  0  0  0  0
  194.3480  170.1950  137.9390 C   0  0  0  0  0  2  0  0  0  0  0  0
  192.6970  170.7910  139.2760 C   0  0  0  0  0  1  0  0  0  0  0  0
  193.3900  169.6750  138.8090 O   0  0  0  0  0  0  0  0  0  0  0  0
  1  6  1  0  0  0  0
  2  3  2  0  0  0  0
  3  6  1  0  0  0  0
  3  4  1  0  0  0  0
  5 13  1  6  0  0  0
  5  4  1  0  0  0  0
  7  8  1  6  0  0  0
  7 10  1  0  0  0  0
  7  2  1  0  0  0  0
  9  2  1  0  0  0  0
  9  5  1  0  0  0  0
 10 35  1  1  0  0  0
 10  1  1  0  0  0  0
 12 11  1  0  0  0  0
 12  7  1  0  0  0  0
 13 14  1  0  0  0  0
 15 14  1  0  0  0  0
 16 15  1  1  0  0  0
 17 24  1  1  0  0  0
 17 21  1  0  0  0  0
 18 16  1  1  0  0  0
 19 18  1  0  0  0  0
 20 17  1  0  0  0  0
 20 19  1  0  0  0  0
 21 18  1  0  0  0  0
 22 24  1  0  0  0  0
 22 27  1  0  0  0  0
 23 22  2  0  0  0  0
 25 27  1  0  0  0  0
 27 26  2  0  0  0  0
 28 16  1  6  0  0  0
 28 30  1  0  0  0  0
 28 29  1  0  0  0  0
 29 31  2  0  0  0  0
 30 29  1  0  0  0  0
 32 34  1  6  0  0  0
 32 33  1  0  0  0  0
 32 28  1  0  0  0  0
 34 33  1  0  0  0  0
 36 43  1  6  0  0  0
 36 44  1  0  0  0  0
 36 39  1  0  0  0  0
 37 44  1  0  0  0  0
 38 39  1  0  0  0  0
 39 41  1  1  0  0  0
 40 38  1  0  0  0  0
 42 37  1  0  0  0  0
 43 40  2  0  0  0  0
 44 35  1  1  0  0  0
 45 42  1  6  0  0  0
 45 43  1  0  0  0  0
 46 51  1  6  0  0  0
 46 47  1  0  0  0  0
 47 45  1  1  0  0  0
 48 49  1  6  0  0  0
 48 47  1  0  0  0  0
 50 48  1  0  0  0  0
 50 46  1  0  0  0  0
 51 53  1  0  0  0  0
 53 52  1  0  0  0  0
M  END
>  <MODEL>
8

>  <REMARK>
 VINA RESULT:      -5.5      2.178      3.340
  Name = 
  15 active torsions:
  status: ('A' for Active; 'I' for Inactive)
    1  A    between atoms: C_1  and  C_3
    2  A    between atoms: C_1  and  C_37
    3  A    between atoms: C_2  and  C_25
    4  A    between atoms: C_2  and  C_37
    5  A    between atoms: C_4  and  C_23
    6  A    between atoms: C_4  and  C_25
    7  A    between atoms: C_16  and  C_26
    8  A    between atoms: O_18  and  C_43
    9  A    between atoms: C_24  and  C_49
   10  A    between atoms: C_24  and  C_50
   11  A    between atoms: C_27  and  C_43
   12  A    between atoms: C_31  and  N_53
   13  A    between atoms: C_32  and  C_33
   14  A    between atoms: C_34  and  C_37
   15  A    between atoms: N_35  and  C_52
                            x       y       z     vdW  Elec       q    Type
                         _______ _______ _______ _____ _____    ______ ____

>  <TORSDO>
F 15

$$$$
=
 OpenBabel11062420323D

 53 60  0  0  1  0  0  0  0  0999 V2000
  193.9020  176.2200  145.2570 C   0  0  0  0  0  2  0  0  0  0  0  0
  194.3600  174.4790  143.0450 C   0  0  0  0  0  0  0  0  0  0  0  0
  194.9290  175.6780  143.0810 C   0  0  0  0  0  0  0  0  0  0  0  0
  195.2690  176.4190  141.4990 S   0  0  0  0  0  0  0  0  0  0  0  0
  194.2750  175.1020  140.7060 C   0  0  2  0  0  3  0  0  0  0  0  0
  195.1430  176.3870  144.3820 C   0  0  0  0  0  2  0  0  0  0  0  0
  193.9960  173.7480  144.3190 C   0  0  2  0  0  0  0  0  0  0  0  0
  193.0450  172.7600  144.0390 O   0  0  0  0  0  1  0  0  0  0  0  0
  194.1150  173.9410  141.6790 C   0  0  0  0  0  2  0  0  0  0  0  0
  193.4720  174.7410  145.4060 C   0  0  2  0  0  3  0  0  0  0  0  0
  195.8600  172.2950  143.8520 O   0  0  0  0  0  1  0  0  0  0  0  0
  195.2560  173.0670  144.8470 C   0  0  0  0  0  2  0  0  0  0  0  0
  194.9470  174.6020  139.4350 C   0  0  0  0  0  2  0  0  0  0  0  0
  194.1590  174.9620  138.1830 C   0  0  0  0  0  2  0  0  0  0  0  0
  192.8770  174.1500  138.0890 C   0  0  0  0  0  2  0  0  0  0  0  0
  192.9060  173.2220  136.8730 C   0  0  2  0  0  3  0  0  0  0  0  0
  189.4030  173.1600  137.0970 C   0  0  2  0  0  3  0  0  0  0  0  0
  191.5730  173.2020  136.1220 C   0  0  1  0  0  3  0  0  0  0  0  0
  191.0720  171.8920  136.0000 O   0  0  0  0  0  0  0  0  0  0  0  0
  189.6830  171.9900  136.1900 C   0  0  0  0  0  2  0  0  0  0  0  0
  190.5630  174.0700  136.8370 C   0  0  0  0  0  2  0  0  0  0  0  0
  188.8470  173.4780  139.5460 C   0  0  0  0  0  0  0  0  0  0  0  0
  188.1840  174.5190  139.2840 O   0  0  0  0  0  0  0  0  0  0  0  0
  189.4380  172.7210  138.4840 N   0  0  0  0  0  2  0  0  0  0  0  0
  190.3510  172.6070  141.4400 C   0  0  0  0  0  1  0  0  0  0  0  0
  187.9890  173.0380  141.7820 C   0  0  0  0  0  2  0  0  0  0  0  0
  189.0190  173.0530  140.9460 C   0  0  0  0  0  0  0  0  0  0  0  0
  193.3880  171.8080  137.2190 C   0  0  2  0  0  0  0  0  0  0  0  0
  194.7470  171.5730  137.0530 C   0  0  0  0  0  0  0  0  0  0  0  0
  193.6830  171.0820  136.0660 N   0  0  0  0  0  2  0  0  0  0  0  0
  195.9460  171.6790  137.4220 O   0  0  0  0  0  0  0  0  0  0  0  0
  192.6140  170.9430  138.2290 C   0  0  1  0  0  3  0  0  0  0  0  0
  193.4330  169.9140  138.7390 O   0  0  0  0  0  0  0  0  0  0  0  0
  193.2080  171.0130  139.5860 C   0  0  0  0  0  2  0  0  0  0  0  0
  191.9840  174.6020  145.7620 C   0  0  0  0  0  2  0  0  0  0  0  0
  190.3780  176.4650  146.2030 C   0  0  0  0  0  0  0  0  0  0  0  0
  190.0760  175.0460  144.1650 C   0  0  0  0  0  2  0  0  0  0  0  0
  189.8520  177.9160  147.8990 N   0  0  0  0  0  0  0  0  0  0  0  0
  190.9750  177.1200  147.4070 C   0  0  1  0  0  3  0  0  0  0  0  0
  188.8370  177.8070  147.1440 N   0  0  0  0  0  0  0  0  0  0  0  0
  191.3260  176.1180  148.3970 N   0  0  0  0  0  1  0  0  0  0  0  0
  189.0370  176.0810  143.7370 C   0  0  0  0  0  2  0  0  0  0  0  0
  189.1500  176.9410  146.0670 C   0  0  0  0  0  0  0  0  0  0  0  0
  191.0870  175.6700  145.1360 C   0  0  2  0  0  3  0  0  0  0  0  0
  188.2130  176.5460  144.9500 C   0  0  1  0  0  3  0  0  0  0  0  0
  186.6630  177.3390  143.3150 C   0  0  1  0  0  3  0  0  0  0  0  0
  187.3290  177.6600  144.5810 N   0  0  1  0  0  0  0  0  0  0  0  0
  186.0450  177.4650  145.2560 C   0  0  1  0  0  3  0  0  0  0  0  0
  185.5570  178.7850  145.8310 C   0  0  0  0  0  1  0  0  0  0  0  0
  185.3130  177.1620  143.9700 C   0  0  0  0  0  2  0  0  0  0  0  0
  186.6430  178.5580  142.4050 C   0  0  0  0  0  2  0  0  0  0  0  0
  186.7940  177.5390  140.4540 C   0  0  0  0  0  1  0  0  0  0  0  0
  187.5060  178.3600  141.3270 O   0  0  0  0  0  0  0  0  0  0  0  0
  1 10  1  0  0  0  0
  2  3  2  0  0  0  0
  2  7  1  0  0  0  0
  3  6  1  0  0  0  0
  4  3  1  0  0  0  0
  5 13  1  6  0  0  0
  5  4  1  0  0  0  0
  5  9  1  0  0  0  0
  6  1  1  0  0  0  0
  7  8  1  6  0  0  0
  7 12  1  0  0  0  0
  7 10  1  0  0  0  0
  9  2  1  0  0  0  0
 10 35  1  6  0  0  0
 11 12  1  0  0  0  0
 14 13  1  0  0  0  0
 15 14  1  0  0  0  0
 16 15  1  1  0  0  0
 17 24  1  1  0  0  0
 18 21  1  0  0  0  0
 18 16  1  1  0  0  0
 19 18  1  0  0  0  0
 19 20  1  0  0  0  0
 20 17  1  0  0  0  0
 21 17  1  0  0  0  0
 22 27  1  0  0  0  0
 23 22  2  0  0  0  0
 24 22  1  0  0  0  0
 27 25  1  0  0  0  0
 27 26  2  0  0  0  0
 28 16  1  6  0  0  0
 28 32  1  0  0  0  0
 29 28  1  0  0  0  0
 29 31  2  0  0  0  0
 30 29  1  0  0  0  0
 30 28  1  0  0  0  0
 32 33  1  0  0  0  0
 32 34  1  1  0  0  0
 33 34  1  0  0  0  0
 36 39  1  0  0  0  0
 37 44  1  0  0  0  0
 39 38  1  0  0  0  0
 39 41  1  1  0  0  0
 40 38  2  0  0  0  0
 42 37  1  0  0  0  0
 43 36  2  0  0  0  0
 43 40  1  0  0  0  0
 44 35  1  1  0  0  0
 44 36  1  0  0  0  0
 45 42  1  6  0  0  0
 45 43  1  0  0  0  0
 46 51  1  6  0  0  0
 46 50  1  0  0  0  0
 46 47  1  0  0  0  0
 47 45  1  1  0  0  0
 47 48  1  0  0  0  0
 48 49  1  6  0  0  0
 50 48  1  0  0  0  0
 52 53  1  0  0  0  0
 53 51  1  0  0  0  0
M  END
>  <MODEL>
9

>  <REMARK>
 VINA RESULT:      -5.5      2.738      8.398
  Name = 
  15 active torsions:
  status: ('A' for Active; 'I' for Inactive)
    1  A    between atoms: C_1  and  C_3
    2  A    between atoms: C_1  and  C_37
    3  A    between atoms: C_2  and  C_25
    4  A    between atoms: C_2  and  C_37
    5  A    between atoms: C_4  and  C_23
    6  A    between atoms: C_4  and  C_25
    7  A    between atoms: C_16  and  C_26
    8  A    between atoms: O_18  and  C_43
    9  A    between atoms: C_24  and  C_49
   10  A    between atoms: C_24  and  C_50
   11  A    between atoms: C_27  and  C_43
   12  A    between atoms: C_31  and  N_53
   13  A    between atoms: C_32  and  C_33
   14  A    between atoms: C_34  and  C_37
   15  A    between atoms: N_35  and  C_52
                            x       y       z     vdW  Elec       q    Type
                         _______ _______ _______ _____ _____    ______ ____

>  <TORSDO>
F 15

$$$$
