=
 OpenBabel11062421063D

 68 72  0  0  1  0  0  0  0  0999 V2000
  187.6110  175.1610  141.3860 C   0  0  0  0  0  2  0  0  0  0  0  0
  187.8820  172.7450  140.9200 C   0  0  0  0  0  1  0  0  0  0  0  0
  188.1800  174.1390  140.4120 C   0  0  2  0  0  3  0  0  0  0  0  0
  189.5880  174.3170  140.3300 O   0  0  0  0  0  0  0  0  0  0  0  0
  191.1260  172.6270  140.1220 O   0  0  0  0  0  0  0  0  0  0  0  0
  189.1170  173.5190  137.4280 C   0  0  0  0  0  1  0  0  0  0  0  0
  190.3930  173.5710  138.1220 N   0  0  0  0  0  0  0  0  0  0  0  0
  191.6150  173.6710  137.3730 C   0  0  0  0  0  0  0  0  0  0  0  0
  190.3970  173.4810  139.5530 C   0  0  0  0  0  0  0  0  0  0  0  0
  191.6030  173.4780  136.1230 O   0  0  0  0  0  0  0  0  0  0  0  0
  192.8840  174.1060  138.0560 C   0  0  0  0  0  2  0  0  0  0  0  0
  193.9510  173.0200  138.0750 C   0  0  0  0  0  2  0  0  0  0  0  0
  195.1160  173.5150  138.6760 O   0  0  0  0  0  0  0  0  0  0  0  0
  194.9000  169.8080  141.9860 C   0  0  0  0  0  0  0  0  0  0  0  0
  195.6240  170.9850  144.5750 C   0  0  0  0  0  3  0  0  0  0  0  0
  195.9930  168.4460  139.6800 O   0  0  0  0  0  0  0  0  0  0  0  0
  196.6940  173.2450  143.4560 S   0  0  0  0  0  0  0  0  0  0  0  0
  192.7390  170.7970  142.2440 O   0  0  0  0  0  1  0  0  0  0  0  0
  195.1940  169.4140  139.5600 C   0  0  0  0  0  0  0  0  0  0  0  0
  195.5400  172.7900  140.9670 C   0  0  1  0  0  0  0  0  0  0  0  0
  194.6050  171.7330  140.3570 C   0  0  2  0  0  3  0  0  0  0  0  0
  195.7360  168.9380  142.3620 O   0  0  0  0  0  0  0  0  0  0  0  0
  194.3100  171.3240  143.9320 C   0  0  0  0  0  2  0  0  0  0  0  0
  195.0090  170.3460  140.6480 N   0  0  0  0  0  0  0  0  0  0  0  0
  196.7280  172.3790  141.8510 C   0  0  0  0  0  2  0  0  0  0  0  0
  195.6310  172.4820  139.4760 C   0  0  1  0  0  0  0  0  0  0  0  0
  193.8080  170.2440  142.9570 C   0  0  2  0  0  0  0  0  0  0  0  0
  196.9470  171.8410  139.0230 C   0  0  0  0  0  1  0  0  0  0  0  0
  194.4750  169.5900  138.2660 C   0  0  0  0  0  1  0  0  0  0  0  0
  194.9030  174.0010  141.2550 O   0  0  0  0  0  1  0  0  0  0  0  0
  197.9410  171.2960  144.9940 N   0  0  0  0  0  1  0  0  0  0  0  0
  196.7200  171.7200  144.4000 C   0  0  0  0  0  0  0  0  0  0  0  0
  192.2890  168.2090  143.1310 N   0  0  0  0  0  1  0  0  0  0  0  0
  193.2850  169.0450  143.7140 C   0  0  0  0  0  0  0  0  0  0  0  0
  193.7650  168.7300  144.8370 O   0  0  0  0  0  0  0  0  0  0  0  0
  187.8230  176.6120  140.9520 C   0  0  2  0  0  3  0  0  0  0  0  0
  188.0630  177.6030  142.0930 C   0  0  2  0  0  3  0  0  0  0  0  0
  189.2040  178.3660  141.8600 O   0  0  0  0  0  1  0  0  0  0  0  0
  188.1570  176.9330  143.4590 C   0  0  0  0  0  2  0  0  0  0  0  0
  186.7550  176.8730  145.5670 C   0  0  2  0  0  3  0  0  0  0  0  0
  186.4230  178.6810  143.8500 C   0  0  0  0  0  2  0  0  0  0  0  0
  187.4420  177.7630  144.5140 C   0  0  2  0  0  3  0  0  0  0  0  0
  184.2530  179.7480  144.4980 C   0  0  0  0  0  2  0  0  0  0  0  0
  185.1160  178.4780  146.0070 C   0  0  2  0  0  3  0  0  0  0  0  0
  183.7040  178.8190  145.5650 C   0  0  0  0  0  2  0  0  0  0  0  0
  185.6660  179.4320  144.9400 C   0  0  1  0  0  3  0  0  0  0  0  0
  185.3640  177.1120  145.7260 O   0  0  0  0  0  0  0  0  0  0  0  0
  186.7440  176.3900  147.9480 O   0  0  0  0  0  1  0  0  0  0  0  0
  187.5390  176.8260  146.8850 C   0  0  1  0  0  3  0  0  0  0  0  0
  188.7840  176.0080  146.7650 C   0  0  0  0  0  0  0  0  0  0  0  0
  188.7270  174.7530  146.0870 N   0  0  0  0  0  2  0  0  0  0  0  0
  189.8640  176.4120  147.2730 O   0  0  0  0  0  0  0  0  0  0  0  0
  189.9160  173.9850  145.7390 C   0  0  1  0  0  3  0  0  0  0  0  0
  189.7590  172.6550  146.0920 F   0  0  0  0  0  0  0  0  0  0  0  0
  190.2370  174.1190  144.2450 C   0  0  2  0  0  3  0  0  0  0  0  0
  189.9460  172.7860  143.5700 C   0  0  0  0  0  1  0  0  0  0  0  0
  192.3450  175.1540  145.2230 C   0  0  0  0  0  2  0  0  0  0  0  0
  194.6890  175.3440  145.6610 O   0  0  0  0  0  0  0  0  0  0  0  0
  191.7110  175.5880  142.7790 C   0  0  0  0  0  2  0  0  0  0  0  0
  191.6760  174.5930  143.9630 C   0  0  2  0  0  3  0  0  0  0  0  0
  192.8130  176.6590  142.8390 C   0  0  0  0  0  2  0  0  0  0  0  0
  193.9590  176.2250  143.6310 N   0  0  0  0  0  2  0  0  0  0  0  0
  193.7330  175.5690  144.8740 C   0  0  0  0  0  0  0  0  0  0  0  0
  186.8160  177.0580  140.0870 O   0  0  0  0  0  0  0  0  0  0  0  0
  186.2160  178.0350  140.7400 O   0  0  0  0  0  0  0  0  0  0  0  0
  184.9490  178.1370  140.1530 C   0  0  0  0  0  2  0  0  0  0  0  0
  182.5050  178.1170  140.6200 C   0  0  0  0  0  1  0  0  0  0  0  0
  183.8880  178.2440  141.2310 C   0  0  0  0  0  2  0  0  0  0  0  0
  3  2  1  1  0  0  0
  3  1  1  0  0  0  0
  4  3  1  0  0  0  0
  6  7  1  0  0  0  0
  7  9  1  0  0  0  0
  8 11  1  0  0  0  0
  8  7  1  0  0  0  0
  9  5  2  0  0  0  0
  9  4  1  0  0  0  0
 10  8  2  0  0  0  0
 11 12  1  0  0  0  0
 12 13  1  0  0  0  0
 13 26  1  0  0  0  0
 14 22  2  0  0  0  0
 14 27  1  0  0  0  0
 17 32  1  0  0  0  0
 19 16  2  0  0  0  0
 19 24  1  0  0  0  0
 20 30  1  1  0  0  0
 20 25  1  0  0  0  0
 21 24  1  1  0  0  0
 21 20  1  0  0  0  0
 23 15  1  0  0  0  0
 24 14  1  0  0  0  0
 25 17  1  0  0  0  0
 26 28  1  6  0  0  0
 26 21  1  0  0  0  0
 26 20  1  0  0  0  0
 27 18  1  6  0  0  0
 27 34  1  0  0  0  0
 27 23  1  0  0  0  0
 29 19  1  0  0  0  0
 32 15  2  0  0  0  0
 32 31  1  0  0  0  0
 33 34  1  0  0  0  0
 34 35  2  0  0  0  0
 36  1  1  1  0  0  0
 36 37  1  0  0  0  0
 37 38  1  6  0  0  0
 37 39  1  0  0  0  0
 40 47  1  0  0  0  0
 40 49  1  1  0  0  0
 41 42  1  0  0  0  0
 42 39  1  6  0  0  0
 42 40  1  0  0  0  0
 43 46  1  0  0  0  0
 43 45  1  0  0  0  0
 44 45  1  6  0  0  0
 46 41  1  6  0  0  0
 46 44  1  0  0  0  0
 47 44  1  0  0  0  0
 49 48  1  1  0  0  0
 50 49  1  0  0  0  0
 50 52  2  0  0  0  0
 51 50  1  0  0  0  0
 53 51  1  0  0  0  0
 53 54  1  6  0  0  0
 55 56  1  6  0  0  0
 55 53  1  0  0  0  0
 59 61  1  0  0  0  0
 59 60  1  0  0  0  0
 60 55  1  1  0  0  0
 60 57  1  0  0  0  0
 61 62  1  0  0  0  0
 62 63  1  0  0  0  0
 63 57  1  0  0  0  0
 63 58  2  0  0  0  0
 64 65  1  0  0  0  0
 64 36  1  0  0  0  0
 66 65  1  0  0  0  0
 66 68  1  0  0  0  0
 67 68  1  0  0  0  0
M  END
>  <MODEL>
1

>  <REMARK>
 VINA RESULT:      -6.4      0.000      0.000
  Name = 
  21 active torsions:
  status: ('A' for Active; 'I' for Inactive)
    1  A    between atoms: C_3  and  C_31
    2  A    between atoms: C_8  and  N_12
    3  A    between atoms: C_8  and  C_18
    4  A    between atoms: C_9  and  C_31
    5  A    between atoms: C_13  and  C_52
    6  A    between atoms: C_13  and  C_54
    7  A    between atoms: C_16  and  C_52
    8  A    between atoms: C_18  and  C_22
    9  A    between atoms: C_21  and  C_47
   10  A    between atoms: O_23  and  C_45
   11  A    between atoms: O_23  and  C_62
   12  A    between atoms: C_30  and  O_32
   13  A    between atoms: C_30  and  C_57
   14  A    between atoms: O_32  and  C_46
   15  A    between atoms: O_36  and  C_47
   16  A    between atoms: O_36  and  O_65
   17  A    between atoms: C_38  and  C_57
   18  A    between atoms: C_39  and  C_48
   19  A    between atoms: C_43  and  C_54
   20  A    between atoms: C_43  and  C_62
   21  A    between atoms: C_54  and  O_65
                            x       y       z     vdW  Elec       q    Type
                         _______ _______ _______ _____ _____    ______ ____

>  <TORSDO>
F 21

$$$$
=
 OpenBabel11062421063D

 68 72  0  0  1  0  0  0  0  0999 V2000
  191.3800  172.3080  144.3780 C   0  0  0  0  0  2  0  0  0  0  0  0
  189.3270  171.8850  143.0600 C   0  0  0  0  0  1  0  0  0  0  0  0
  190.6470  172.6270  143.0830 C   0  0  2  0  0  3  0  0  0  0  0  0
  191.4440  172.1990  141.9860 O   0  0  0  0  0  0  0  0  0  0  0  0
  192.0270  173.5970  140.2630 O   0  0  0  0  0  0  0  0  0  0  0  0
  190.1120  170.7590  139.6550 C   0  0  0  0  0  1  0  0  0  0  0  0
  190.2120  172.1960  139.8500 N   0  0  0  0  0  0  0  0  0  0  0  0
  189.3010  173.0770  139.1750 C   0  0  0  0  0  0  0  0  0  0  0  0
  191.2560  172.7000  140.6930 C   0  0  0  0  0  0  0  0  0  0  0  0
  188.5750  172.6330  138.2390 O   0  0  0  0  0  0  0  0  0  0  0  0
  189.1370  174.4970  139.6460 C   0  0  0  0  0  2  0  0  0  0  0  0
  188.3990  174.6020  140.9740 C   0  0  0  0  0  2  0  0  0  0  0  0
  187.5060  175.6810  140.9330 O   0  0  0  0  0  0  0  0  0  0  0  0
  189.4530  177.0760  145.2940 C   0  0  0  0  0  0  0  0  0  0  0  0
  187.1790  177.5510  147.0860 C   0  0  0  0  0  3  0  0  0  0  0  0
  191.2400  178.3830  143.4300 O   0  0  0  0  0  0  0  0  0  0  0  0
  185.3550  177.6500  145.0440 S   0  0  0  0  0  0  0  0  0  0  0  0
  189.1280  174.7350  145.6490 O   0  0  0  0  0  1  0  0  0  0  0  0
  190.6840  177.2840  143.1560 C   0  0  0  0  0  0  0  0  0  0  0  0
  187.0900  176.5270  143.1830 C   0  0  1  0  0  0  0  0  0  0  0  0
  188.5260  175.9810  143.1990 C   0  0  2  0  0  3  0  0  0  0  0  0
  189.8110  178.1950  145.7590 O   0  0  0  0  0  0  0  0  0  0  0  0
  187.5290  176.1530  146.6650 C   0  0  0  0  0  2  0  0  0  0  0  0
  189.4930  176.8730  143.8620 N   0  0  0  0  0  0  0  0  0  0  0  0
  186.7410  177.8540  143.8770 C   0  0  0  0  0  2  0  0  0  0  0  0
  187.9290  176.5950  141.9120 C   0  0  1  0  0  0  0  0  0  0  0  0
  189.0050  175.9870  146.2620 C   0  0  2  0  0  0  0  0  0  0  0  0
  188.2800  178.0090  141.4380 C   0  0  0  0  0  1  0  0  0  0  0  0
  191.2640  176.4430  142.0700 C   0  0  0  0  0  1  0  0  0  0  0  0
  186.1110  175.5280  143.1610 O   0  0  0  0  0  1  0  0  0  0  0  0
  186.0590  179.6340  146.8580 N   0  0  0  0  0  1  0  0  0  0  0  0
  186.2890  178.2960  146.4320 C   0  0  0  0  0  0  0  0  0  0  0  0
  190.3300  174.7590  148.0570 N   0  0  0  0  0  1  0  0  0  0  0  0
  189.8950  175.9900  147.4840 C   0  0  0  0  0  0  0  0  0  0  0  0
  190.3160  177.0730  147.9730 O   0  0  0  0  0  0  0  0  0  0  0  0
  192.7550  172.9680  144.4880 C   0  0  2  0  0  3  0  0  0  0  0  0
  193.9410  172.0010  144.5030 C   0  0  2  0  0  3  0  0  0  0  0  0
  194.0970  171.4230  145.7600 O   0  0  0  0  0  1  0  0  0  0  0  0
  195.2480  172.6490  144.0640 C   0  0  0  0  0  2  0  0  0  0  0  0
  196.3220  172.4810  141.7760 C   0  0  2  0  0  3  0  0  0  0  0  0
  195.1850  174.6000  142.5130 C   0  0  0  0  0  2  0  0  0  0  0  0
  195.1710  173.0790  142.6070 C   0  0  2  0  0  3  0  0  0  0  0  0
  195.9230  176.3050  140.8350 C   0  0  0  0  0  2  0  0  0  0  0  0
  196.2980  174.2630  140.2660 C   0  0  2  0  0  3  0  0  0  0  0  0
  197.0070  175.5890  140.0530 C   0  0  0  0  0  2  0  0  0  0  0  0
  195.1950  174.9940  141.0400 C   0  0  1  0  0  3  0  0  0  0  0  0
  197.1100  173.4380  141.0830 O   0  0  0  0  0  0  0  0  0  0  0  0
  194.4750  171.3200  140.7070 O   0  0  0  0  0  1  0  0  0  0  0  0
  195.8580  171.3030  140.9090 C   0  0  1  0  0  3  0  0  0  0  0  0
  196.5970  171.2390  139.6120 C   0  0  0  0  0  0  0  0  0  0  0  0
  195.9410  171.6630  138.4170 N   0  0  0  0  0  2  0  0  0  0  0  0
  197.7780  170.7980  139.5720 O   0  0  0  0  0  0  0  0  0  0  0  0
  196.6360  171.8330  137.1480 C   0  0  1  0  0  3  0  0  0  0  0  0
  196.5810  170.6680  136.4010 F   0  0  0  0  0  0  0  0  0  0  0  0
  196.0570  173.0140  136.3600 C   0  0  2  0  0  3  0  0  0  0  0  0
  197.0360  174.1760  136.4490 C   0  0  0  0  0  1  0  0  0  0  0  0
  193.5720  172.9830  135.8160 C   0  0  0  0  0  2  0  0  0  0  0  0
  191.2440  172.6370  136.2410 O   0  0  0  0  0  0  0  0  0  0  0  0
  194.5810  174.9450  137.1190 C   0  0  0  0  0  2  0  0  0  0  0  0
  194.6450  173.4290  136.8160 C   0  0  2  0  0  3  0  0  0  0  0  0
  193.2250  175.6220  136.8580 C   0  0  0  0  0  2  0  0  0  0  0  0
  192.1140  174.6790  136.9490 N   0  0  0  0  0  2  0  0  0  0  0  0
  192.2400  173.4000  136.3370 C   0  0  0  0  0  0  0  0  0  0  0  0
  192.8200  173.8790  145.5500 O   0  0  0  0  0  0  0  0  0  0  0  0
  192.4870  175.0410  145.0220 O   0  0  0  0  0  0  0  0  0  0  0  0
  192.9970  175.9990  145.9060 C   0  0  0  0  0  2  0  0  0  0  0  0
  195.3860  175.3610  146.1850 C   0  0  0  0  0  1  0  0  0  0  0  0
  194.4280  176.3370  145.5300 C   0  0  0  0  0  2  0  0  0  0  0  0
  3  2  1  1  0  0  0
  3  1  1  0  0  0  0
  4  3  1  0  0  0  0
  5  9  2  0  0  0  0
  6  7  1  0  0  0  0
  7  9  1  0  0  0  0
  8 11  1  0  0  0  0
  8  7  1  0  0  0  0
  9  4  1  0  0  0  0
 10  8  2  0  0  0  0
 11 12  1  0  0  0  0
 13 12  1  0  0  0  0
 13 26  1  0  0  0  0
 14 22  2  0  0  0  0
 14 27  1  0  0  0  0
 17 32  1  0  0  0  0
 19 16  2  0  0  0  0
 19 24  1  0  0  0  0
 20 30  1  1  0  0  0
 20 21  1  0  0  0  0
 20 25  1  0  0  0  0
 21 24  1  1  0  0  0
 23 15  1  0  0  0  0
 24 14  1  0  0  0  0
 25 17  1  0  0  0  0
 26 28  1  6  0  0  0
 26 20  1  0  0  0  0
 26 21  1  0  0  0  0
 27 18  1  6  0  0  0
 27 23  1  0  0  0  0
 27 34  1  0  0  0  0
 29 19  1  0  0  0  0
 32 31  1  0  0  0  0
 32 15  2  0  0  0  0
 34 35  2  0  0  0  0
 34 33  1  0  0  0  0
 36  1  1  1  0  0  0
 36 37  1  0  0  0  0
 36 64  1  0  0  0  0
 37 38  1  1  0  0  0
 39 37  1  0  0  0  0
 40 49  1  6  0  0  0
 40 42  1  0  0  0  0
 41 42  1  0  0  0  0
 42 39  1  1  0  0  0
 44 45  1  1  0  0  0
 44 46  1  0  0  0  0
 44 47  1  0  0  0  0
 45 43  1  0  0  0  0
 46 43  1  1  0  0  0
 46 41  1  0  0  0  0
 47 40  1  0  0  0  0
 49 48  1  6  0  0  0
 50 49  1  0  0  0  0
 51 50  1  0  0  0  0
 52 50  2  0  0  0  0
 53 54  1  6  0  0  0
 53 51  1  0  0  0  0
 55 56  1  1  0  0  0
 55 53  1  0  0  0  0
 57 63  1  0  0  0  0
 57 60  1  0  0  0  0
 58 63  2  0  0  0  0
 60 55  1  6  0  0  0
 60 59  1  0  0  0  0
 61 62  1  0  0  0  0
 61 59  1  0  0  0  0
 63 62  1  0  0  0  0
 65 64  1  0  0  0  0
 65 66  1  0  0  0  0
 68 66  1  0  0  0  0
 68 67  1  0  0  0  0
M  END
>  <MODEL>
2

>  <REMARK>
 VINA RESULT:      -5.4      3.180      9.490
  Name = 
  21 active torsions:
  status: ('A' for Active; 'I' for Inactive)
    1  A    between atoms: C_3  and  C_31
    2  A    between atoms: C_8  and  N_12
    3  A    between atoms: C_8  and  C_18
    4  A    between atoms: C_9  and  C_31
    5  A    between atoms: C_13  and  C_52
    6  A    between atoms: C_13  and  C_54
    7  A    between atoms: C_16  and  C_52
    8  A    between atoms: C_18  and  C_22
    9  A    between atoms: C_21  and  C_47
   10  A    between atoms: O_23  and  C_45
   11  A    between atoms: O_23  and  C_62
   12  A    between atoms: C_30  and  O_32
   13  A    between atoms: C_30  and  C_57
   14  A    between atoms: O_32  and  C_46
   15  A    between atoms: O_36  and  C_47
   16  A    between atoms: O_36  and  O_65
   17  A    between atoms: C_38  and  C_57
   18  A    between atoms: C_39  and  C_48
   19  A    between atoms: C_43  and  C_54
   20  A    between atoms: C_43  and  C_62
   21  A    between atoms: C_54  and  O_65
                            x       y       z     vdW  Elec       q    Type
                         _______ _______ _______ _____ _____    ______ ____

>  <TORSDO>
F 21

$$$$
=
 OpenBabel11062421063D

 68 72  0  0  1  0  0  0  0  0999 V2000
  190.8310  174.0050  136.7050 C   0  0  0  0  0  2  0  0  0  0  0  0
  192.8270  174.6420  138.0230 C   0  0  0  0  0  1  0  0  0  0  0  0
  192.3520  173.9630  136.7570 C   0  0  2  0  0  3  0  0  0  0  0  0
  192.8700  174.6570  135.6300 O   0  0  0  0  0  0  0  0  0  0  0  0
  194.7300  173.4940  134.9600 O   0  0  0  0  0  0  0  0  0  0  0  0
  194.5600  176.9400  134.5280 C   0  0  0  0  0  1  0  0  0  0  0  0
  195.0340  175.7830  135.2700 N   0  0  0  0  0  0  0  0  0  0  0  0
  196.3040  175.8290  135.9370 C   0  0  0  0  0  0  0  0  0  0  0  0
  194.2240  174.6000  135.2820 C   0  0  0  0  0  0  0  0  0  0  0  0
  197.1110  176.7720  135.6890 O   0  0  0  0  0  0  0  0  0  0  0  0
  196.6340  174.8180  137.0020 C   0  0  0  0  0  2  0  0  0  0  0  0
  197.1630  175.4510  138.2810 C   0  0  0  0  0  2  0  0  0  0  0  0
  196.1670  175.4300  139.2660 O   0  0  0  0  0  0  0  0  0  0  0  0
  195.2710  171.5600  142.2610 C   0  0  0  0  0  0  0  0  0  0  0  0
  195.0770  172.6580  144.9750 C   0  0  0  0  0  3  0  0  0  0  0  0
  197.1200  170.3950  140.3650 O   0  0  0  0  0  0  0  0  0  0  0  0
  196.2430  175.0410  144.2910 S   0  0  0  0  0  0  0  0  0  0  0  0
  193.0590  172.3760  141.8710 O   0  0  0  0  0  1  0  0  0  0  0  0
  196.3160  171.3070  140.0310 C   0  0  0  0  0  0  0  0  0  0  0  0
  195.9370  174.6260  141.5580 C   0  0  1  0  0  0  0  0  0  0  0  0
  195.3230  173.5350  140.6660 C   0  0  2  0  0  3  0  0  0  0  0  0
  196.0240  170.7350  142.8520 O   0  0  0  0  0  0  0  0  0  0  0  0
  193.9960  172.9330  143.9700 C   0  0  0  0  0  2  0  0  0  0  0  0
  195.7340  172.1690  141.0330 N   0  0  0  0  0  0  0  0  0  0  0  0
  196.8330  174.2600  142.7530 C   0  0  0  0  0  2  0  0  0  0  0  0
  196.5000  174.3990  140.1600 C   0  0  1  0  0  0  0  0  0  0  0  0
  193.9040  171.8690  142.8620 C   0  0  2  0  0  0  0  0  0  0  0  0
  197.9400  173.8770  140.1130 C   0  0  0  0  0  1  0  0  0  0  0  0
  196.0100  171.4930  138.5840 C   0  0  0  0  0  1  0  0  0  0  0  0
  195.1440  175.7730  141.6680 O   0  0  0  0  0  1  0  0  0  0  0  0
  197.1260  173.1150  146.0880 N   0  0  0  0  0  1  0  0  0  0  0  0
  196.1100  173.4790  145.1610 C   0  0  0  0  0  0  0  0  0  0  0  0
  192.9930  169.5170  142.5110 N   0  0  0  0  0  1  0  0  0  0  0  0
  193.2790  170.5990  143.3940 C   0  0  0  0  0  0  0  0  0  0  0  0
  193.0630  170.4530  144.6280 O   0  0  0  0  0  0  0  0  0  0  0  0
  190.1650  172.6630  137.0110 C   0  0  2  0  0  3  0  0  0  0  0  0
  189.3980  172.6050  138.3340 C   0  0  2  0  0  3  0  0  0  0  0  0
  188.4780  173.6450  138.4230 O   0  0  0  0  0  1  0  0  0  0  0  0
  190.3090  172.6120  139.5560 C   0  0  0  0  0  2  0  0  0  0  0  0
  189.7250  174.2240  141.4210 C   0  0  2  0  0  3  0  0  0  0  0  0
  189.8560  171.7490  141.8510 C   0  0  0  0  0  2  0  0  0  0  0  0
  189.5000  172.8200  140.8280 C   0  0  2  0  0  3  0  0  0  0  0  0
  189.8730  171.5630  144.3470 C   0  0  0  0  0  2  0  0  0  0  0  0
  189.2820  173.4910  143.5940 C   0  0  2  0  0  3  0  0  0  0  0  0
  190.0450  172.9970  144.8100 C   0  0  0  0  0  2  0  0  0  0  0  0
  189.0940  172.0390  143.1400 C   0  0  1  0  0  3  0  0  0  0  0  0
  190.1660  174.2310  142.7700 O   0  0  0  0  0  0  0  0  0  0  0  0
  187.3210  174.5720  141.4460 O   0  0  0  0  0  1  0  0  0  0  0  0
  188.5480  175.1660  141.1390 C   0  0  1  0  0  3  0  0  0  0  0  0
  188.7050  176.4800  141.8350 C   0  0  0  0  0  0  0  0  0  0  0  0
  189.3640  176.5190  143.1010 N   0  0  0  0  0  2  0  0  0  0  0  0
  188.2460  177.5340  141.3200 O   0  0  0  0  0  0  0  0  0  0  0  0
  189.7480  177.7620  143.7580 C   0  0  1  0  0  3  0  0  0  0  0  0
  188.7680  178.1670  144.6490 F   0  0  0  0  0  0  0  0  0  0  0  0
  191.1010  177.6150  144.4630 C   0  0  2  0  0  3  0  0  0  0  0  0
  192.1570  177.2950  143.4150 C   0  0  0  0  0  1  0  0  0  0  0  0
  189.7280  176.4860  146.2840 C   0  0  0  0  0  2  0  0  0  0  0  0
  188.8410  174.6500  147.5340 O   0  0  0  0  0  0  0  0  0  0  0  0
  192.2480  176.8310  146.5970 C   0  0  0  0  0  2  0  0  0  0  0  0
  191.0960  176.5710  145.5970 C   0  0  2  0  0  3  0  0  0  0  0  0
  191.9710  176.4250  148.0550 C   0  0  0  0  0  2  0  0  0  0  0  0
  190.9720  175.3660  148.1500 N   0  0  0  0  0  2  0  0  0  0  0  0
  189.7990  175.4460  147.3480 C   0  0  0  0  0  0  0  0  0  0  0  0
  191.0560  171.5900  136.8860 O   0  0  0  0  0  0  0  0  0  0  0  0
  190.4170  170.7010  136.1510 O   0  0  0  0  0  0  0  0  0  0  0  0
  191.4250  169.9390  135.5480 C   0  0  0  0  0  2  0  0  0  0  0  0
  190.5650  168.5140  137.3980 C   0  0  0  0  0  1  0  0  0  0  0  0
  191.6130  168.6400  136.3090 C   0  0  0  0  0  2  0  0  0  0  0  0
  1  3  1  0  0  0  0
  3  2  1  1  0  0  0
  4  3  1  0  0  0  0
  5  9  2  0  0  0  0
  6  7  1  0  0  0  0
  7  9  1  0  0  0  0
  7  8  1  0  0  0  0
  8 11  1  0  0  0  0
  9  4  1  0  0  0  0
 10  8  2  0  0  0  0
 11 12  1  0  0  0  0
 12 13  1  0  0  0  0
 13 26  1  0  0  0  0
 14 22  2  0  0  0  0
 14 27  1  0  0  0  0
 15 32  2  0  0  0  0
 17 32  1  0  0  0  0
 19 16  2  0  0  0  0
 19 24  1  0  0  0  0
 20 30  1  1  0  0  0
 20 25  1  0  0  0  0
 21 24  1  1  0  0  0
 21 20  1  0  0  0  0
 23 15  1  0  0  0  0
 24 14  1  0  0  0  0
 25 17  1  0  0  0  0
 26 28  1  6  0  0  0
 26 21  1  0  0  0  0
 26 20  1  0  0  0  0
 27 18  1  6  0  0  0
 27 34  1  0  0  0  0
 27 23  1  0  0  0  0
 29 19  1  0  0  0  0
 32 31  1  0  0  0  0
 33 34  1  0  0  0  0
 34 35  2  0  0  0  0
 36  1  1  1  0  0  0
 36 37  1  0  0  0  0
 37 38  1  1  0  0  0
 37 39  1  0  0  0  0
 40 49  1  1  0  0  0
 40 47  1  0  0  0  0
 42 39  1  6  0  0  0
 42 40  1  0  0  0  0
 42 41  1  0  0  0  0
 43 45  1  0  0  0  0
 44 45  1  1  0  0  0
 46 41  1  6  0  0  0
 46 44  1  0  0  0  0
 46 43  1  0  0  0  0
 47 44  1  0  0  0  0
 49 48  1  1  0  0  0
 49 50  1  0  0  0  0
 50 51  1  0  0  0  0
 51 53  1  0  0  0  0
 52 50  2  0  0  0  0
 53 55  1  0  0  0  0
 53 54  1  1  0  0  0
 55 56  1  6  0  0  0
 57 63  1  0  0  0  0
 59 61  1  0  0  0  0
 60 55  1  6  0  0  0
 60 57  1  0  0  0  0
 60 59  1  0  0  0  0
 61 62  1  0  0  0  0
 63 58  2  0  0  0  0
 63 62  1  0  0  0  0
 64 36  1  0  0  0  0
 65 64  1  0  0  0  0
 66 65  1  0  0  0  0
 66 68  1  0  0  0  0
 68 67  1  0  0  0  0
M  END
>  <MODEL>
3

>  <REMARK>
 VINA RESULT:      -5.4      2.818      5.600
  Name = 
  21 active torsions:
  status: ('A' for Active; 'I' for Inactive)
    1  A    between atoms: C_3  and  C_31
    2  A    between atoms: C_8  and  N_12
    3  A    between atoms: C_8  and  C_18
    4  A    between atoms: C_9  and  C_31
    5  A    between atoms: C_13  and  C_52
    6  A    between atoms: C_13  and  C_54
    7  A    between atoms: C_16  and  C_52
    8  A    between atoms: C_18  and  C_22
    9  A    between atoms: C_21  and  C_47
   10  A    between atoms: O_23  and  C_45
   11  A    between atoms: O_23  and  C_62
   12  A    between atoms: C_30  and  O_32
   13  A    between atoms: C_30  and  C_57
   14  A    between atoms: O_32  and  C_46
   15  A    between atoms: O_36  and  C_47
   16  A    between atoms: O_36  and  O_65
   17  A    between atoms: C_38  and  C_57
   18  A    between atoms: C_39  and  C_48
   19  A    between atoms: C_43  and  C_54
   20  A    between atoms: C_43  and  C_62
   21  A    between atoms: C_54  and  O_65
                            x       y       z     vdW  Elec       q    Type
                         _______ _______ _______ _____ _____    ______ ____

>  <TORSDO>
F 21

$$$$
=
 OpenBabel11062421063D

 68 72  0  0  1  0  0  0  0  0999 V2000
  194.1370  171.7320  142.5700 C   0  0  0  0  0  2  0  0  0  0  0  0
  193.0590  173.8860  142.0000 C   0  0  0  0  0  1  0  0  0  0  0  0
  192.9520  172.3820  141.8690 C   0  0  2  0  0  3  0  0  0  0  0  0
  191.7520  171.9420  142.4910 O   0  0  0  0  0  0  0  0  0  0  0  0
  190.6580  171.2180  140.6090 O   0  0  0  0  0  0  0  0  0  0  0  0
  188.9620  171.4990  143.6310 C   0  0  0  0  0  1  0  0  0  0  0  0
  189.2930  172.0250  142.3170 N   0  0  0  0  0  0  0  0  0  0  0  0
  188.3300  172.8010  141.5890 C   0  0  0  0  0  0  0  0  0  0  0  0
  190.5790  171.7150  141.7620 C   0  0  0  0  0  0  0  0  0  0  0  0
  187.1250  172.8300  141.9750 O   0  0  0  0  0  0  0  0  0  0  0  0
  188.7690  173.6580  140.4320 C   0  0  0  0  0  2  0  0  0  0  0  0
  189.2040  175.0530  140.8570 C   0  0  0  0  0  2  0  0  0  0  0  0
  188.0800  175.8820  140.9740 O   0  0  0  0  0  0  0  0  0  0  0  0
  189.7020  177.2440  145.4750 C   0  0  0  0  0  0  0  0  0  0  0  0
  187.3420  177.2710  147.2180 C   0  0  0  0  0  3  0  0  0  0  0  0
  191.3260  178.9120  143.7570 O   0  0  0  0  0  0  0  0  0  0  0  0
  185.5710  177.2470  145.1270 S   0  0  0  0  0  0  0  0  0  0  0  0
  189.7080  174.8620  145.6720 O   0  0  0  0  0  1  0  0  0  0  0  0
  190.9400  177.7670  143.3960 C   0  0  0  0  0  0  0  0  0  0  0  0
  187.4930  176.5080  143.2580 C   0  0  1  0  0  0  0  0  0  0  0  0
  188.9920  176.1710  143.2860 C   0  0  2  0  0  3  0  0  0  0  0  0
  189.8850  178.3690  146.0210 O   0  0  0  0  0  0  0  0  0  0  0  0
  187.8990  175.9680  146.7210 C   0  0  0  0  0  2  0  0  0  0  0  0
  189.8050  177.1450  144.0350 N   0  0  0  0  0  0  0  0  0  0  0  0
  186.9410  177.7220  144.0210 C   0  0  0  0  0  2  0  0  0  0  0  0
  188.3430  176.7790  142.0220 C   0  0  1  0  0  0  0  0  0  0  0  0
  189.3930  176.0400  146.3580 C   0  0  2  0  0  0  0  0  0  0  0  0
  188.4990  178.2570  141.6500 C   0  0  0  0  0  1  0  0  0  0  0  0
  191.6610  177.0910  142.2800 C   0  0  0  0  0  1  0  0  0  0  0  0
  186.6680  175.3840  143.1400 O   0  0  0  0  0  1  0  0  0  0  0  0
  185.9400  179.1840  147.0840 N   0  0  0  0  0  1  0  0  0  0  0  0
  186.3700  177.9240  146.5830 C   0  0  0  0  0  0  0  0  0  0  0  0
  190.5420  174.8880  148.3160 N   0  0  0  0  0  1  0  0  0  0  0  0
  190.2440  176.0870  147.6070 C   0  0  0  0  0  0  0  0  0  0  0  0
  190.7530  177.1710  148.0000 O   0  0  0  0  0  0  0  0  0  0  0  0
  194.4540  170.3230  142.0670 C   0  0  2  0  0  3  0  0  0  0  0  0
  193.7840  169.9380  140.7460 C   0  0  2  0  0  3  0  0  0  0  0  0
  193.0580  168.7580  140.8800 O   0  0  0  0  0  1  0  0  0  0  0  0
  194.7680  169.8130  139.5880 C   0  0  0  0  0  2  0  0  0  0  0  0
  194.4060  172.1530  138.6900 C   0  0  2  0  0  3  0  0  0  0  0  0
  192.8780  170.2680  138.0270 C   0  0  0  0  0  2  0  0  0  0  0  0
  194.3070  170.6440  138.4000 C   0  0  2  0  0  3  0  0  0  0  0  0
  190.9250  171.4120  136.9570 C   0  0  0  0  0  2  0  0  0  0  0  0
  192.6620  172.6570  137.2190 C   0  0  2  0  0  3  0  0  0  0  0  0
  191.1610  172.8790  137.2620 C   0  0  0  0  0  2  0  0  0  0  0  0
  192.4200  171.1780  136.8930 C   0  0  1  0  0  3  0  0  0  0  0  0
  193.1920  172.8690  138.5160 O   0  0  0  0  0  0  0  0  0  0  0  0
  195.4600  172.8530  136.6160 O   0  0  0  0  0  1  0  0  0  0  0  0
  195.6180  172.7960  138.0030 C   0  0  1  0  0  3  0  0  0  0  0  0
  195.9330  174.1420  138.5710 C   0  0  0  0  0  0  0  0  0  0  0  0
  195.9600  174.3080  139.9890 N   0  0  0  0  0  2  0  0  0  0  0  0
  196.1510  175.1210  137.8080 O   0  0  0  0  0  0  0  0  0  0  0  0
  196.4530  175.5160  140.6370 C   0  0  1  0  0  3  0  0  0  0  0  0
  195.4250  176.4240  140.8270 F   0  0  0  0  0  0  0  0  0  0  0  0
  197.1410  175.1830  141.9670 C   0  0  2  0  0  3  0  0  0  0  0  0
  197.9410  173.9020  141.7860 C   0  0  0  0  0  1  0  0  0  0  0  0
  195.9220  176.4430  143.8110 C   0  0  0  0  0  2  0  0  0  0  0  0
  194.0450  177.1020  145.1380 O   0  0  0  0  0  0  0  0  0  0  0  0
  196.6410  174.0110  144.1710 C   0  0  0  0  0  2  0  0  0  0  0  0
  196.1670  175.0790  143.1560 C   0  0  2  0  0  3  0  0  0  0  0  0
  196.2760  174.2770  145.6410 C   0  0  0  0  0  2  0  0  0  0  0  0
  195.0900  175.1180  145.7690 N   0  0  0  0  0  2  0  0  0  0  0  0
  194.9590  176.2620  144.9320 C   0  0  0  0  0  0  0  0  0  0  0  0
  194.2440  169.3500  143.0520 O   0  0  0  0  0  0  0  0  0  0  0  0
  194.7970  169.8460  144.1420 O   0  0  0  0  0  0  0  0  0  0  0  0
  195.3880  168.7480  144.7780 C   0  0  0  0  0  2  0  0  0  0  0  0
  196.6210  170.4920  146.0540 C   0  0  0  0  0  1  0  0  0  0  0  0
  196.7320  169.1490  145.3580 C   0  0  0  0  0  2  0  0  0  0  0  0
  3  2  1  1  0  0  0
  3  4  1  0  0  0  0
  3  1  1  0  0  0  0
  5  9  2  0  0  0  0
  7  6  1  0  0  0  0
  8 10  2  0  0  0  0
  8  7  1  0  0  0  0
  9  7  1  0  0  0  0
  9  4  1  0  0  0  0
 11 12  1  0  0  0  0
 11  8  1  0  0  0  0
 12 13  1  0  0  0  0
 13 26  1  0  0  0  0
 14 22  2  0  0  0  0
 14 27  1  0  0  0  0
 17 32  1  0  0  0  0
 19 16  2  0  0  0  0
 19 24  1  0  0  0  0
 20 30  1  6  0  0  0
 20 21  1  0  0  0  0
 20 25  1  0  0  0  0
 21 24  1  1  0  0  0
 23 15  1  0  0  0  0
 24 14  1  0  0  0  0
 25 17  1  0  0  0  0
 26 28  1  6  0  0  0
 26 20  1  0  0  0  0
 26 21  1  0  0  0  0
 27 18  1  6  0  0  0
 27 23  1  0  0  0  0
 27 34  1  0  0  0  0
 29 19  1  0  0  0  0
 32 31  1  0  0  0  0
 32 15  2  0  0  0  0
 34 35  2  0  0  0  0
 34 33  1  0  0  0  0
 36  1  1  1  0  0  0
 36 64  1  0  0  0  0
 37 38  1  1  0  0  0
 37 36  1  0  0  0  0
 39 37  1  0  0  0  0
 40 49  1  6  0  0  0
 41 42  1  0  0  0  0
 42 40  1  0  0  0  0
 42 39  1  1  0  0  0
 43 45  1  0  0  0  0
 44 45  1  1  0  0  0
 44 47  1  0  0  0  0
 46 43  1  1  0  0  0
 46 44  1  0  0  0  0
 46 41  1  0  0  0  0
 47 40  1  0  0  0  0
 49 48  1  6  0  0  0
 49 50  1  0  0  0  0
 50 51  1  0  0  0  0
 51 53  1  0  0  0  0
 52 50  2  0  0  0  0
 53 54  1  1  0  0  0
 53 55  1  0  0  0  0
 55 56  1  6  0  0  0
 57 63  1  0  0  0  0
 59 61  1  0  0  0  0
 60 55  1  6  0  0  0
 60 57  1  0  0  0  0
 60 59  1  0  0  0  0
 61 62  1  0  0  0  0
 63 58  2  0  0  0  0
 63 62  1  0  0  0  0
 64 65  1  0  0  0  0
 65 66  1  0  0  0  0
 66 68  1  0  0  0  0
 68 67  1  0  0  0  0
M  END
>  <MODEL>
4

>  <REMARK>
 VINA RESULT:      -5.2      2.995      9.683
  Name = 
  21 active torsions:
  status: ('A' for Active; 'I' for Inactive)
    1  A    between atoms: C_3  and  C_31
    2  A    between atoms: C_8  and  N_12
    3  A    between atoms: C_8  and  C_18
    4  A    between atoms: C_9  and  C_31
    5  A    between atoms: C_13  and  C_52
    6  A    between atoms: C_13  and  C_54
    7  A    between atoms: C_16  and  C_52
    8  A    between atoms: C_18  and  C_22
    9  A    between atoms: C_21  and  C_47
   10  A    between atoms: O_23  and  C_45
   11  A    between atoms: O_23  and  C_62
   12  A    between atoms: C_30  and  O_32
   13  A    between atoms: C_30  and  C_57
   14  A    between atoms: O_32  and  C_46
   15  A    between atoms: O_36  and  C_47
   16  A    between atoms: O_36  and  O_65
   17  A    between atoms: C_38  and  C_57
   18  A    between atoms: C_39  and  C_48
   19  A    between atoms: C_43  and  C_54
   20  A    between atoms: C_43  and  C_62
   21  A    between atoms: C_54  and  O_65
                            x       y       z     vdW  Elec       q    Type
                         _______ _______ _______ _____ _____    ______ ____

>  <TORSDO>
F 21

$$$$
=
 OpenBabel11062421063D

 68 72  0  0  1  0  0  0  0  0999 V2000
  191.2270  174.1270  136.9030 C   0  0  0  0  0  2  0  0  0  0  0  0
  193.1470  174.6170  138.3870 C   0  0  0  0  0  1  0  0  0  0  0  0
  192.7390  174.0330  137.0510 C   0  0  2  0  0  3  0  0  0  0  0  0
  193.3510  174.7800  136.0070 O   0  0  0  0  0  0  0  0  0  0  0  0
  194.9830  173.3190  135.3270 O   0  0  0  0  0  0  0  0  0  0  0  0
  195.2060  176.6970  134.5370 C   0  0  0  0  0  1  0  0  0  0  0  0
  195.5970  175.5660  135.3610 N   0  0  0  0  0  0  0  0  0  0  0  0
  196.9180  175.5070  135.9200 C   0  0  0  0  0  0  0  0  0  0  0  0
  194.6500  174.5090  135.5650 C   0  0  0  0  0  0  0  0  0  0  0  0
  197.8100  176.3050  135.5100 O   0  0  0  0  0  0  0  0  0  0  0  0
  197.2140  174.5700  137.0600 C   0  0  0  0  0  2  0  0  0  0  0  0
  197.0110  175.2120  138.4260 C   0  0  0  0  0  2  0  0  0  0  0  0
  195.9130  174.6210  139.0660 O   0  0  0  0  0  0  0  0  0  0  0  0
  195.7410  171.1880  142.6620 C   0  0  0  0  0  0  0  0  0  0  0  0
  195.2840  172.6520  145.1640 C   0  0  0  0  0  3  0  0  0  0  0  0
  197.8190  170.1190  140.9560 O   0  0  0  0  0  0  0  0  0  0  0  0
  195.9700  175.0750  144.0850 S   0  0  0  0  0  0  0  0  0  0  0  0
  193.4190  171.4770  142.1750 O   0  0  0  0  0  1  0  0  0  0  0  0
  196.8570  170.7880  140.4890 C   0  0  0  0  0  0  0  0  0  0  0  0
  195.8030  174.1700  141.4610 C   0  0  1  0  0  0  0  0  0  0  0  0
  195.4330  172.8490  140.7670 C   0  0  2  0  0  3  0  0  0  0  0  0
  196.6310  170.6350  143.3690 O   0  0  0  0  0  0  0  0  0  0  0  0
  194.1890  172.5410  144.1430 C   0  0  0  0  0  2  0  0  0  0  0  0
  196.0980  171.6680  141.3450 N   0  0  0  0  0  0  0  0  0  0  0  0
  196.7310  174.1860  142.6870 C   0  0  0  0  0  2  0  0  0  0  0  0
  196.4260  173.8350  140.1100 C   0  0  1  0  0  0  0  0  0  0  0  0
  194.3290  171.3140  143.2250 C   0  0  2  0  0  0  0  0  0  0  0  0
  197.9410  173.6070  140.1300 C   0  0  0  0  0  1  0  0  0  0  0  0
  196.5470  170.6720  139.0360 C   0  0  0  0  0  1  0  0  0  0  0  0
  194.7980  175.1400  141.3940 O   0  0  0  0  0  1  0  0  0  0  0  0
  197.1810  173.6780  146.1600 N   0  0  0  0  0  1  0  0  0  0  0  0
  196.1310  173.6790  145.2000 C   0  0  0  0  0  0  0  0  0  0  0  0
  193.9220  168.8020  143.2770 N   0  0  0  0  0  1  0  0  0  0  0  0
  193.9560  170.0490  143.9640 C   0  0  0  0  0  0  0  0  0  0  0  0
  193.7360  170.0690  145.2050 O   0  0  0  0  0  0  0  0  0  0  0  0
  190.5050  172.7920  137.0910 C   0  0  2  0  0  3  0  0  0  0  0  0
  189.7750  172.6300  138.4260 C   0  0  2  0  0  3  0  0  0  0  0  0
  188.4820  173.1400  138.3530 O   0  0  0  0  0  1  0  0  0  0  0  0
  190.5180  173.2650  139.5960 C   0  0  0  0  0  2  0  0  0  0  0  0
  189.4510  174.6000  141.4650 C   0  0  2  0  0  3  0  0  0  0  0  0
  190.3470  172.2880  141.8830 C   0  0  0  0  0  2  0  0  0  0  0  0
  189.6780  173.2010  140.8630 C   0  0  2  0  0  3  0  0  0  0  0  0
  190.4110  172.0990  144.3780 C   0  0  0  0  0  2  0  0  0  0  0  0
  189.2490  173.7500  143.6320 C   0  0  2  0  0  3  0  0  0  0  0  0
  190.1230  173.5110  144.8500 C   0  0  0  0  0  2  0  0  0  0  0  0
  189.5280  172.3160  143.1680 C   0  0  1  0  0  3  0  0  0  0  0  0
  189.8610  174.7350  142.8180 O   0  0  0  0  0  0  0  0  0  0  0  0
  187.0530  174.2700  141.6750 O   0  0  0  0  0  1  0  0  0  0  0  0
  188.0380  175.1290  141.1810 C   0  0  1  0  0  3  0  0  0  0  0  0
  187.8510  176.5210  141.6900 C   0  0  0  0  0  0  0  0  0  0  0  0
  186.5760  176.9060  142.2050 N   0  0  0  0  0  2  0  0  0  0  0  0
  188.8000  177.3500  141.6460 O   0  0  0  0  0  0  0  0  0  0  0  0
  186.3510  178.1630  142.9080 C   0  0  1  0  0  3  0  0  0  0  0  0
  185.9680  179.1570  142.0220 F   0  0  0  0  0  0  0  0  0  0  0  0
  185.3080  177.9910  144.0190 C   0  0  2  0  0  3  0  0  0  0  0  0
  184.2230  179.0410  143.8260 C   0  0  0  0  0  1  0  0  0  0  0  0
  185.6990  176.7280  146.1930 C   0  0  0  0  0  2  0  0  0  0  0  0
  186.9660  175.9010  148.0450 O   0  0  0  0  0  0  0  0  0  0  0  0
  185.3600  179.2670  146.2210 C   0  0  0  0  0  2  0  0  0  0  0  0
  185.9030  178.0470  145.4390 C   0  0  2  0  0  3  0  0  0  0  0  0
  185.2360  179.0830  147.7430 C   0  0  0  0  0  2  0  0  0  0  0  0
  186.1630  178.0780  148.2530 N   0  0  0  0  0  2  0  0  0  0  0  0
  186.3170  176.8550  147.5420 C   0  0  0  0  0  0  0  0  0  0  0  0
  191.3380  171.6980  136.8240 O   0  0  0  0  0  0  0  0  0  0  0  0
  191.0910  171.3820  135.5670 O   0  0  0  0  0  0  0  0  0  0  0  0
  190.5320  170.1000  135.6200 C   0  0  0  0  0  2  0  0  0  0  0  0
  191.4020  168.6890  137.4760 C   0  0  0  0  0  1  0  0  0  0  0  0
  191.5910  169.0920  136.0260 C   0  0  0  0  0  2  0  0  0  0  0  0
  1  3  1  0  0  0  0
  3  2  1  1  0  0  0
  4  3  1  0  0  0  0
  5  9  2  0  0  0  0
  6  7  1  0  0  0  0
  7  9  1  0  0  0  0
  7  8  1  0  0  0  0
  8 11  1  0  0  0  0
  9  4  1  0  0  0  0
 10  8  2  0  0  0  0
 11 12  1  0  0  0  0
 12 13  1  0  0  0  0
 13 26  1  0  0  0  0
 14 27  1  0  0  0  0
 14 22  2  0  0  0  0
 15 32  2  0  0  0  0
 17 32  1  0  0  0  0
 19 16  2  0  0  0  0
 19 24  1  0  0  0  0
 20 30  1  6  0  0  0
 20 25  1  0  0  0  0
 21 24  1  1  0  0  0
 21 20  1  0  0  0  0
 23 15  1  0  0  0  0
 24 14  1  0  0  0  0
 25 17  1  0  0  0  0
 26 28  1  6  0  0  0
 26 21  1  0  0  0  0
 26 20  1  0  0  0  0
 27 18  1  6  0  0  0
 27 34  1  0  0  0  0
 27 23  1  0  0  0  0
 29 19  1  0  0  0  0
 32 31  1  0  0  0  0
 33 34  1  0  0  0  0
 34 35  2  0  0  0  0
 36  1  1  1  0  0  0
 36 37  1  0  0  0  0
 37 38  1  6  0  0  0
 37 39  1  0  0  0  0
 40 49  1  1  0  0  0
 40 47  1  0  0  0  0
 42 39  1  6  0  0  0
 42 40  1  0  0  0  0
 42 41  1  0  0  0  0
 43 45  1  0  0  0  0
 44 45  1  1  0  0  0
 46 41  1  6  0  0  0
 46 44  1  0  0  0  0
 46 43  1  0  0  0  0
 47 44  1  0  0  0  0
 49 48  1  1  0  0  0
 49 50  1  0  0  0  0
 50 51  1  0  0  0  0
 51 53  1  0  0  0  0
 52 50  2  0  0  0  0
 53 54  1  6  0  0  0
 53 55  1  0  0  0  0
 55 56  1  1  0  0  0
 57 63  1  0  0  0  0
 59 61  1  0  0  0  0
 60 55  1  6  0  0  0
 60 57  1  0  0  0  0
 60 59  1  0  0  0  0
 61 62  1  0  0  0  0
 63 58  2  0  0  0  0
 63 62  1  0  0  0  0
 64 36  1  0  0  0  0
 65 66  1  0  0  0  0
 65 64  1  0  0  0  0
 66 68  1  0  0  0  0
 68 67  1  0  0  0  0
M  END
>  <MODEL>
5

>  <REMARK>
 VINA RESULT:      -5.2      2.572      6.141
  Name = 
  21 active torsions:
  status: ('A' for Active; 'I' for Inactive)
    1  A    between atoms: C_3  and  C_31
    2  A    between atoms: C_8  and  N_12
    3  A    between atoms: C_8  and  C_18
    4  A    between atoms: C_9  and  C_31
    5  A    between atoms: C_13  and  C_52
    6  A    between atoms: C_13  and  C_54
    7  A    between atoms: C_16  and  C_52
    8  A    between atoms: C_18  and  C_22
    9  A    between atoms: C_21  and  C_47
   10  A    between atoms: O_23  and  C_45
   11  A    between atoms: O_23  and  C_62
   12  A    between atoms: C_30  and  O_32
   13  A    between atoms: C_30  and  C_57
   14  A    between atoms: O_32  and  C_46
   15  A    between atoms: O_36  and  C_47
   16  A    between atoms: O_36  and  O_65
   17  A    between atoms: C_38  and  C_57
   18  A    between atoms: C_39  and  C_48
   19  A    between atoms: C_43  and  C_54
   20  A    between atoms: C_43  and  C_62
   21  A    between atoms: C_54  and  O_65
                            x       y       z     vdW  Elec       q    Type
                         _______ _______ _______ _____ _____    ______ ____

>  <TORSDO>
F 21

$$$$
=
 OpenBabel11062421063D

 68 72  0  0  1  0  0  0  0  0999 V2000
  194.5780  173.9340  140.3090 C   0  0  0  0  0  2  0  0  0  0  0  0
  193.2720  173.7040  142.3990 C   0  0  0  0  0  1  0  0  0  0  0  0
  194.6260  173.4780  141.7600 C   0  0  2  0  0  3  0  0  0  0  0  0
  195.6030  174.2450  142.4510 O   0  0  0  0  0  0  0  0  0  0  0  0
  196.0080  173.1960  144.4510 O   0  0  0  0  0  0  0  0  0  0  0  0
  196.1410  176.6630  144.2250 C   0  0  0  0  0  1  0  0  0  0  0  0
  195.4330  175.4490  144.5970 N   0  0  0  0  0  0  0  0  0  0  0  0
  194.5330  175.4560  145.7150 C   0  0  0  0  0  0  0  0  0  0  0  0
  195.6880  174.2530  143.8480 C   0  0  0  0  0  0  0  0  0  0  0  0
  194.5320  176.4370  146.5150 O   0  0  0  0  0  0  0  0  0  0  0  0
  193.5230  174.3520  145.8780 C   0  0  0  0  0  2  0  0  0  0  0  0
  192.1120  174.8660  146.1210 C   0  0  0  0  0  2  0  0  0  0  0  0
  191.7180  175.6860  145.0540 O   0  0  0  0  0  0  0  0  0  0  0  0
  187.2640  176.3740  142.9470 C   0  0  0  0  0  0  0  0  0  0  0  0
  185.7180  178.0100  144.8280 C   0  0  0  0  0  3  0  0  0  0  0  0
  187.8350  173.6410  142.1880 O   0  0  0  0  0  0  0  0  0  0  0  0
  187.4180  177.5370  146.9230 S   0  0  0  0  0  0  0  0  0  0  0  0
  188.4080  178.3680  142.2940 O   0  0  0  0  0  1  0  0  0  0  0  0
  188.7530  174.4930  142.3350 C   0  0  0  0  0  0  0  0  0  0  0  0
  189.4480  176.5450  145.3010 C   0  0  1  0  0  0  0  0  0  0  0  0
  189.6580  176.3400  143.7920 C   0  0  2  0  0  3  0  0  0  0  0  0
  186.1960  175.6990  142.9490 O   0  0  0  0  0  0  0  0  0  0  0  0
  186.8660  178.6120  144.0710 C   0  0  0  0  0  2  0  0  0  0  0  0
  188.5240  175.6840  143.1190 N   0  0  0  0  0  0  0  0  0  0  0  0
  188.1250  176.1480  145.9760 C   0  0  0  0  0  2  0  0  0  0  0  0
  190.3590  175.4210  144.8190 C   0  0  1  0  0  0  0  0  0  0  0  0
  187.1790  177.8840  142.7520 C   0  0  2  0  0  0  0  0  0  0  0  0
  189.8620  174.0040  145.1250 C   0  0  0  0  0  1  0  0  0  0  0  0
  190.0800  174.2260  141.7100 C   0  0  0  0  0  1  0  0  0  0  0  0
  190.1370  177.6480  145.8180 O   0  0  0  0  0  1  0  0  0  0  0  0
  184.7320  176.8750  146.6670 N   0  0  0  0  0  1  0  0  0  0  0  0
  185.8570  177.4820  146.0430 C   0  0  0  0  0  0  0  0  0  0  0  0
  186.3570  177.8500  140.3420 N   0  0  0  0  0  1  0  0  0  0  0  0
  186.1380  178.2080  141.7040 C   0  0  0  0  0  0  0  0  0  0  0  0
  185.0400  178.7360  142.0270 O   0  0  0  0  0  0  0  0  0  0  0  0
  195.4960  173.1380  139.3810 C   0  0  2  0  0  3  0  0  0  0  0  0
  194.9020  171.8350  138.8400 C   0  0  2  0  0  3  0  0  0  0  0  0
  195.9050  170.9700  138.4110 O   0  0  0  0  0  1  0  0  0  0  0  0
  193.8930  172.0560  137.7200 C   0  0  0  0  0  2  0  0  0  0  0  0
  194.1450  170.0540  136.1900 C   0  0  2  0  0  3  0  0  0  0  0  0
  195.9430  171.8080  136.3230 C   0  0  0  0  0  2  0  0  0  0  0  0
  194.4430  171.5520  136.3940 C   0  0  2  0  0  3  0  0  0  0  0  0
  197.9090  170.7570  135.1850 C   0  0  0  0  0  2  0  0  0  0  0  0
  196.0340  169.7550  134.8470 C   0  0  2  0  0  3  0  0  0  0  0  0
  197.4790  169.3150  134.9920 C   0  0  0  0  0  2  0  0  0  0  0  0
  196.4750  171.2130  135.0240 C   0  0  1  0  0  3  0  0  0  0  0  0
  195.2910  169.2530  135.9440 O   0  0  0  0  0  0  0  0  0  0  0  0
  193.1190  168.6030  134.5330 O   0  0  0  0  0  1  0  0  0  0  0  0
  192.9940  169.8230  135.2020 C   0  0  1  0  0  3  0  0  0  0  0  0
  191.6590  169.9470  135.8630 C   0  0  0  0  0  0  0  0  0  0  0  0
  191.5150  169.5290  137.2200 N   0  0  0  0  0  2  0  0  0  0  0  0
  190.6700  170.3960  135.2240 O   0  0  0  0  0  0  0  0  0  0  0  0
  190.3210  169.7980  138.0110 C   0  0  1  0  0  3  0  0  0  0  0  0
  190.1540  168.8310  138.9890 F   0  0  0  0  0  0  0  0  0  0  0  0
  190.3780  171.1990  138.6320 C   0  0  2  0  0  3  0  0  0  0  0  0
  190.1010  171.0740  140.1240 C   0  0  0  0  0  1  0  0  0  0  0  0
  190.2000  173.3410  137.2710 C   0  0  0  0  0  2  0  0  0  0  0  0
  189.4350  174.7460  135.4930 O   0  0  0  0  0  0  0  0  0  0  0  0
  188.3790  172.7380  138.9700 C   0  0  0  0  0  2  0  0  0  0  0  0
  189.4280  172.2110  137.9630 C   0  0  2  0  0  3  0  0  0  0  0  0
  187.8920  174.1780  138.7350 C   0  0  0  0  0  2  0  0  0  0  0  0
  188.0220  174.5810  137.3380 N   0  0  0  0  0  2  0  0  0  0  0  0
  189.2170  174.2610  136.6340 C   0  0  0  0  0  0  0  0  0  0  0  0
  196.7630  172.9310  139.9410 O   0  0  0  0  0  0  0  0  0  0  0  0
  197.6100  173.1440  138.9520 O   0  0  0  0  0  0  0  0  0  0  0  0
  197.6670  174.5360  138.8190 C   0  0  0  0  0  2  0  0  0  0  0  0
  197.9400  175.4990  136.5400 C   0  0  0  0  0  1  0  0  0  0  0  0
  196.9460  174.9630  137.5540 C   0  0  0  0  0  2  0  0  0  0  0  0
  1  3  1  0  0  0  0
  3  2  1  1  0  0  0
  3  4  1  0  0  0  0
  4  9  1  0  0  0  0
  6  7  1  0  0  0  0
  7  8  1  0  0  0  0
  8 11  1  0  0  0  0
  8 10  2  0  0  0  0
  9  5  2  0  0  0  0
  9  7  1  0  0  0  0
 11 12  1  0  0  0  0
 13 12  1  0  0  0  0
 14 22  2  0  0  0  0
 14 24  1  0  0  0  0
 15 32  2  0  0  0  0
 16 19  2  0  0  0  0
 19 24  1  0  0  0  0
 20 30  1  1  0  0  0
 20 25  1  0  0  0  0
 21 24  1  6  0  0  0
 21 26  1  0  0  0  0
 21 20  1  0  0  0  0
 23 15  1  0  0  0  0
 25 17  1  0  0  0  0
 26 13  1  0  0  0  0
 26 28  1  1  0  0  0
 26 20  1  0  0  0  0
 27 18  1  6  0  0  0
 27 14  1  0  0  0  0
 27 23  1  0  0  0  0
 29 19  1  0  0  0  0
 32 31  1  0  0  0  0
 32 17  1  0  0  0  0
 33 34  1  0  0  0  0
 34 35  2  0  0  0  0
 34 27  1  0  0  0  0
 36 64  1  0  0  0  0
 36  1  1  1  0  0  0
 37 38  1  6  0  0  0
 37 36  1  0  0  0  0
 39 37  1  0  0  0  0
 40 49  1  6  0  0  0
 40 42  1  0  0  0  0
 41 42  1  0  0  0  0
 42 39  1  1  0  0  0
 44 45  1  1  0  0  0
 44 46  1  0  0  0  0
 44 47  1  0  0  0  0
 45 43  1  0  0  0  0
 46 43  1  1  0  0  0
 46 41  1  0  0  0  0
 47 40  1  0  0  0  0
 49 48  1  1  0  0  0
 49 50  1  0  0  0  0
 50 51  1  0  0  0  0
 51 53  1  0  0  0  0
 52 50  2  0  0  0  0
 53 55  1  0  0  0  0
 53 54  1  1  0  0  0
 55 56  1  1  0  0  0
 57 60  1  0  0  0  0
 58 63  2  0  0  0  0
 60 55  1  1  0  0  0
 60 59  1  0  0  0  0
 61 59  1  0  0  0  0
 62 61  1  0  0  0  0
 63 57  1  0  0  0  0
 63 62  1  0  0  0  0
 65 64  1  0  0  0  0
 66 65  1  0  0  0  0
 67 68  1  0  0  0  0
 68 66  1  0  0  0  0
M  END
>  <MODEL>
6

>  <REMARK>
 VINA RESULT:      -5.1      3.106     11.020
  Name = 
  21 active torsions:
  status: ('A' for Active; 'I' for Inactive)
    1  A    between atoms: C_3  and  C_31
    2  A    between atoms: C_8  and  N_12
    3  A    between atoms: C_8  and  C_18
    4  A    between atoms: C_9  and  C_31
    5  A    between atoms: C_13  and  C_52
    6  A    between atoms: C_13  and  C_54
    7  A    between atoms: C_16  and  C_52
    8  A    between atoms: C_18  and  C_22
    9  A    between atoms: C_21  and  C_47
   10  A    between atoms: O_23  and  C_45
   11  A    between atoms: O_23  and  C_62
   12  A    between atoms: C_30  and  O_32
   13  A    between atoms: C_30  and  C_57
   14  A    between atoms: O_32  and  C_46
   15  A    between atoms: O_36  and  C_47
   16  A    between atoms: O_36  and  O_65
   17  A    between atoms: C_38  and  C_57
   18  A    between atoms: C_39  and  C_48
   19  A    between atoms: C_43  and  C_54
   20  A    between atoms: C_43  and  C_62
   21  A    between atoms: C_54  and  O_65
                            x       y       z     vdW  Elec       q    Type
                         _______ _______ _______ _____ _____    ______ ____

>  <TORSDO>
F 21

$$$$
=
 OpenBabel11062421063D

 68 72  0  0  1  0  0  0  0  0999 V2000
  192.2110  174.7170  142.4440 C   0  0  0  0  0  2  0  0  0  0  0  0
  193.8300  175.2150  140.6380 C   0  0  0  0  0  1  0  0  0  0  0  0
  193.2680  175.6990  141.9580 C   0  0  2  0  0  3  0  0  0  0  0  0
  194.3150  175.7610  142.9180 O   0  0  0  0  0  0  0  0  0  0  0  0
  196.2680  176.6590  142.1190 O   0  0  0  0  0  0  0  0  0  0  0  0
  196.3140  173.7190  143.9740 C   0  0  0  0  0  1  0  0  0  0  0  0
  196.3610  174.4030  142.6920 N   0  0  0  0  0  0  0  0  0  0  0  0
  197.1260  173.8500  141.6100 C   0  0  0  0  0  0  0  0  0  0  0  0
  195.6610  175.6470  142.5560 C   0  0  0  0  0  0  0  0  0  0  0  0
  197.9410  172.9090  141.8340 O   0  0  0  0  0  0  0  0  0  0  0  0
  196.8850  174.3170  140.2000 C   0  0  0  0  0  2  0  0  0  0  0  0
  196.8500  173.1760  139.1930 C   0  0  0  0  0  2  0  0  0  0  0  0
  195.6570  172.4550  139.3370 O   0  0  0  0  0  0  0  0  0  0  0  0
  192.2090  172.7540  135.7630 C   0  0  0  0  0  0  0  0  0  0  0  0
  190.8460  170.1560  135.7290 C   0  0  0  0  0  3  0  0  0  0  0  0
  194.3910  174.2360  134.5730 O   0  0  0  0  0  0  0  0  0  0  0  0
  192.8000  168.9040  137.1850 S   0  0  0  0  0  0  0  0  0  0  0  0
  190.9260  173.2990  137.7040 O   0  0  0  0  0  1  0  0  0  0  0  0
  194.2020  174.2210  135.8200 C   0  0  0  0  0  0  0  0  0  0  0  0
  193.9740  171.2850  138.0150 C   0  0  1  0  0  0  0  0  0  0  0  0
  193.6890  172.7840  137.8260 C   0  0  2  0  0  3  0  0  0  0  0  0
  192.2390  172.5430  134.5180 O   0  0  0  0  0  0  0  0  0  0  0  0
  190.6390  171.1020  136.8760 C   0  0  0  0  0  2  0  0  0  0  0  0
  193.4260  173.1660  136.4280 N   0  0  0  0  0  0  0  0  0  0  0  0
  193.9040  170.3110  136.8270 C   0  0  0  0  0  2  0  0  0  0  0  0
  195.1330  172.2750  138.0470 C   0  0  1  0  0  0  0  0  0  0  0  0
  190.8910  172.5750  136.5080 C   0  0  2  0  0  0  0  0  0  0  0  0
  196.1390  172.1390  136.8990 C   0  0  0  0  0  1  0  0  0  0  0  0
  194.8240  175.2940  136.6470 C   0  0  0  0  0  1  0  0  0  0  0  0
  193.6110  170.8000  139.2760 O   0  0  0  0  0  1  0  0  0  0  0  0
  191.9510  168.3880  134.5900 N   0  0  0  0  0  1  0  0  0  0  0  0
  191.7760  169.2030  135.7430 C   0  0  0  0  0  0  0  0  0  0  0  0
  189.1210  172.2930  134.7000 N   0  0  0  0  0  1  0  0  0  0  0  0
  189.7530  173.1190  135.6740 C   0  0  0  0  0  0  0  0  0  0  0  0
  189.3060  174.2810  135.8720 O   0  0  0  0  0  0  0  0  0  0  0  0
  190.7760  175.1880  142.2060 C   0  0  2  0  0  3  0  0  0  0  0  0
  190.0480  175.7080  143.4480 C   0  0  2  0  0  3  0  0  0  0  0  0
  190.6850  176.8320  143.9660 O   0  0  0  0  0  1  0  0  0  0  0  0
  189.8920  174.6520  144.5360 C   0  0  0  0  0  2  0  0  0  0  0  0
  190.7310  176.4690  146.0900 C   0  0  2  0  0  3  0  0  0  0  0  0
  192.2190  174.5510  145.4280 C   0  0  0  0  0  2  0  0  0  0  0  0
  190.7850  174.9730  145.7260 C   0  0  2  0  0  3  0  0  0  0  0  0
  194.5060  175.2780  146.1400 C   0  0  0  0  0  2  0  0  0  0  0  0
  192.8950  176.4400  146.9700 C   0  0  2  0  0  3  0  0  0  0  0  0
  194.3150  176.7340  146.5200 C   0  0  0  0  0  2  0  0  0  0  0  0
  193.0980  174.9660  146.6020 C   0  0  1  0  0  3  0  0  0  0  0  0
  191.9940  177.1170  146.1110 O   0  0  0  0  0  0  0  0  0  0  0  0
  190.2390  177.9110  147.9820 O   0  0  0  0  0  1  0  0  0  0  0  0
  189.8690  176.7310  147.3320 C   0  0  1  0  0  3  0  0  0  0  0  0
  188.4090  176.7210  147.0100 C   0  0  0  0  0  0  0  0  0  0  0  0
  187.7040  177.9610  146.9490 N   0  0  0  0  0  2  0  0  0  0  0  0
  187.8070  175.6320  146.8140 O   0  0  0  0  0  0  0  0  0  0  0  0
  186.3410  178.0740  146.4460 C   0  0  1  0  0  3  0  0  0  0  0  0
  185.5330  178.7260  147.3630 F   0  0  0  0  0  0  0  0  0  0  0  0
  186.3150  178.7900  145.0900 C   0  0  2  0  0  3  0  0  0  0  0  0
  184.8790  179.1940  144.7870 C   0  0  0  0  0  1  0  0  0  0  0  0
  186.6730  178.6130  142.5770 C   0  0  0  0  0  2  0  0  0  0  0  0
  187.9220  178.2910  140.5630 O   0  0  0  0  0  0  0  0  0  0  0  0
  186.4350  176.4940  143.9970 C   0  0  0  0  0  2  0  0  0  0  0  0
  186.9230  177.9610  143.9420 C   0  0  2  0  0  3  0  0  0  0  0  0
  186.3140  175.7780  142.6410 C   0  0  0  0  0  2  0  0  0  0  0  0
  187.2050  176.3510  141.6370 N   0  0  0  0  0  2  0  0  0  0  0  0
  187.3070  177.7670  141.5280 C   0  0  0  0  0  0  0  0  0  0  0  0
  190.0120  174.2330  141.5240 O   0  0  0  0  0  0  0  0  0  0  0  0
  190.7860  173.1670  141.4540 O   0  0  0  0  0  0  0  0  0  0  0  0
  189.9040  172.0790  141.4810 C   0  0  0  0  0  2  0  0  0  0  0  0
  191.5680  171.0900  143.0450 C   0  0  0  0  0  1  0  0  0  0  0  0
  190.0910  171.2960  142.7670 C   0  0  0  0  0  2  0  0  0  0  0  0
  3  2  1  6  0  0  0
  3  1  1  0  0  0  0
  3  4  1  0  0  0  0
  5  9  2  0  0  0  0
  7  6  1  0  0  0  0
  8 10  2  0  0  0  0
  8  7  1  0  0  0  0
  9  7  1  0  0  0  0
  9  4  1  0  0  0  0
 11  8  1  0  0  0  0
 12 13  1  0  0  0  0
 12 11  1  0  0  0  0
 14 24  1  0  0  0  0
 14 27  1  0  0  0  0
 15 32  2  0  0  0  0
 15 23  1  0  0  0  0
 16 19  2  0  0  0  0
 19 24  1  0  0  0  0
 19 29  1  0  0  0  0
 20 26  1  0  0  0  0
 20 30  1  1  0  0  0
 21 24  1  6  0  0  0
 21 20  1  0  0  0  0
 21 26  1  0  0  0  0
 22 14  2  0  0  0  0
 25 17  1  0  0  0  0
 25 20  1  0  0  0  0
 26 28  1  6  0  0  0
 26 13  1  0  0  0  0
 27 23  1  0  0  0  0
 27 18  1  1  0  0  0
 31 32  1  0  0  0  0
 32 17  1  0  0  0  0
 33 34  1  0  0  0  0
 34 35  2  0  0  0  0
 34 27  1  0  0  0  0
 36  1  1  1  0  0  0
 36 37  1  0  0  0  0
 37 38  1  1  0  0  0
 37 39  1  0  0  0  0
 40 47  1  0  0  0  0
 40 49  1  1  0  0  0
 41 42  1  0  0  0  0
 42 39  1  6  0  0  0
 42 40  1  0  0  0  0
 43 45  1  0  0  0  0
 43 46  1  0  0  0  0
 44 45  1  6  0  0  0
 46 41  1  6  0  0  0
 46 44  1  0  0  0  0
 47 44  1  0  0  0  0
 49 48  1  6  0  0  0
 50 49  1  0  0  0  0
 51 50  1  0  0  0  0
 52 50  2  0  0  0  0
 53 51  1  0  0  0  0
 53 54  1  1  0  0  0
 55 56  1  6  0  0  0
 55 53  1  0  0  0  0
 57 60  1  0  0  0  0
 58 63  2  0  0  0  0
 60 59  1  0  0  0  0
 60 55  1  1  0  0  0
 61 59  1  0  0  0  0
 62 61  1  0  0  0  0
 63 62  1  0  0  0  0
 63 57  1  0  0  0  0
 64 36  1  0  0  0  0
 65 66  1  0  0  0  0
 65 64  1  0  0  0  0
 66 68  1  0  0  0  0
 68 67  1  0  0  0  0
M  END
>  <MODEL>
7

>  <REMARK>
 VINA RESULT:      -4.8      2.856      6.973
  Name = 
  21 active torsions:
  status: ('A' for Active; 'I' for Inactive)
    1  A    between atoms: C_3  and  C_31
    2  A    between atoms: C_8  and  N_12
    3  A    between atoms: C_8  and  C_18
    4  A    between atoms: C_9  and  C_31
    5  A    between atoms: C_13  and  C_52
    6  A    between atoms: C_13  and  C_54
    7  A    between atoms: C_16  and  C_52
    8  A    between atoms: C_18  and  C_22
    9  A    between atoms: C_21  and  C_47
   10  A    between atoms: O_23  and  C_45
   11  A    between atoms: O_23  and  C_62
   12  A    between atoms: C_30  and  O_32
   13  A    between atoms: C_30  and  C_57
   14  A    between atoms: O_32  and  C_46
   15  A    between atoms: O_36  and  C_47
   16  A    between atoms: O_36  and  O_65
   17  A    between atoms: C_38  and  C_57
   18  A    between atoms: C_39  and  C_48
   19  A    between atoms: C_43  and  C_54
   20  A    between atoms: C_43  and  C_62
   21  A    between atoms: C_54  and  O_65
                            x       y       z     vdW  Elec       q    Type
                         _______ _______ _______ _____ _____    ______ ____

>  <TORSDO>
F 21

$$$$
=
 OpenBabel11062421063D

 68 72  0  0  1  0  0  0  0  0999 V2000
  191.3830  175.1300  145.4400 C   0  0  0  0  0  2  0  0  0  0  0  0
  193.1380  176.1220  146.8760 C   0  0  0  0  0  1  0  0  0  0  0  0
  192.5860  174.8260  146.3220 C   0  0  2  0  0  3  0  0  0  0  0  0
  193.5840  174.1900  145.5350 O   0  0  0  0  0  0  0  0  0  0  0  0
  194.2970  172.1120  146.1930 O   0  0  0  0  0  0  0  0  0  0  0  0
  191.5060  172.4480  144.1470 C   0  0  0  0  0  1  0  0  0  0  0  0
  192.9190  172.1530  144.3140 N   0  0  0  0  0  0  0  0  0  0  0  0
  193.5630  171.2040  143.4510 C   0  0  0  0  0  0  0  0  0  0  0  0
  193.6310  172.8010  145.3770 C   0  0  0  0  0  0  0  0  0  0  0  0
  192.8630  170.4550  142.7090 O   0  0  0  0  0  0  0  0  0  0  0  0
  195.0640  171.1700  143.3520 C   0  0  0  0  0  2  0  0  0  0  0  0
  195.5950  171.8700  142.1090 C   0  0  0  0  0  2  0  0  0  0  0  0
  196.5000  171.0300  141.4450 O   0  0  0  0  0  0  0  0  0  0  0  0
  194.2150  170.6840  137.0400 C   0  0  0  0  0  0  0  0  0  0  0  0
  195.5130  168.4670  135.6210 C   0  0  0  0  0  3  0  0  0  0  0  0
  194.2950  173.5520  137.4130 O   0  0  0  0  0  0  0  0  0  0  0  0
  197.6810  168.4240  137.2960 S   0  0  0  0  0  0  0  0  0  0  0  0
  193.0270  169.0510  138.3170 O   0  0  0  0  0  1  0  0  0  0  0  0
  194.2010  172.7590  138.3900 C   0  0  0  0  0  0  0  0  0  0  0  0
  196.4500  169.9820  139.2420 C   0  0  1  0  0  0  0  0  0  0  0  0
  195.0700  170.6330  139.4300 C   0  0  2  0  0  3  0  0  0  0  0  0
  194.3980  171.2540  135.9270 O   0  0  0  0  0  0  0  0  0  0  0  0
  194.6310  168.1930  136.8050 C   0  0  0  0  0  2  0  0  0  0  0  0
  194.6000  171.3780  138.2490 N   0  0  0  0  0  0  0  0  0  0  0  0
  197.1910  170.0740  137.8990 C   0  0  0  0  0  2  0  0  0  0  0  0
  196.3310  171.2580  140.0690 C   0  0  1  0  0  0  0  0  0  0  0  0
  193.5870  169.2950  137.0590 C   0  0  2  0  0  0  0  0  0  0  0  0
  197.0290  172.4860  139.4770 C   0  0  0  0  0  1  0  0  0  0  0  0
  193.7020  173.2870  139.6920 C   0  0  0  0  0  1  0  0  0  0  0  0
  196.6340  168.8270  140.0090 O   0  0  0  0  0  1  0  0  0  0  0  0
  197.5880  168.9460  134.5680 N   0  0  0  0  0  1  0  0  0  0  0  0
  196.8310  168.6260  135.7300 C   0  0  0  0  0  0  0  0  0  0  0  0
  191.1210  169.0830  136.4620 N   0  0  0  0  0  1  0  0  0  0  0  0
  192.4740  169.2200  136.0380 C   0  0  0  0  0  0  0  0  0  0  0  0
  192.7180  169.3430  134.8070 O   0  0  0  0  0  0  0  0  0  0  0  0
  191.0850  176.6230  145.2960 C   0  0  2  0  0  3  0  0  0  0  0  0
  189.6710  177.0450  145.7030 C   0  0  2  0  0  3  0  0  0  0  0  0
  189.6460  177.5000  147.0190 O   0  0  0  0  0  1  0  0  0  0  0  0
  188.6380  175.9410  145.5150 C   0  0  0  0  0  2  0  0  0  0  0  0
  187.8210  177.3850  143.6020 C   0  0  2  0  0  3  0  0  0  0  0  0
  186.5010  177.2080  145.7360 C   0  0  0  0  0  2  0  0  0  0  0  0
  187.4190  176.4670  144.7710 C   0  0  2  0  0  3  0  0  0  0  0  0
  184.8380  179.0720  145.5830 C   0  0  0  0  0  2  0  0  0  0  0  0
  185.8270  178.5960  143.7310 C   0  0  2  0  0  3  0  0  0  0  0  0
  185.3030  179.8660  144.3770 C   0  0  0  0  0  2  0  0  0  0  0  0
  185.3390  177.7940  144.9430 C   0  0  1  0  0  3  0  0  0  0  0  0
  187.2390  178.6800  143.6410 O   0  0  0  0  0  0  0  0  0  0  0  0
  187.8000  177.5800  141.1800 O   0  0  0  0  0  1  0  0  0  0  0  0
  187.6960  176.6800  142.2440 C   0  0  1  0  0  3  0  0  0  0  0  0
  188.6720  175.5570  142.1060 C   0  0  0  0  0  0  0  0  0  0  0  0
  188.1980  174.2700  141.7090 N   0  0  0  0  0  2  0  0  0  0  0  0
  189.8940  175.7400  142.3570 O   0  0  0  0  0  0  0  0  0  0  0  0
  189.0880  173.1740  141.3490 C   0  0  1  0  0  3  0  0  0  0  0  0
  188.9720  172.1330  142.2560 F   0  0  0  0  0  0  0  0  0  0  0  0
  188.8100  172.6880  139.9210 C   0  0  2  0  0  3  0  0  0  0  0  0
  189.6830  171.4710  139.6500 C   0  0  0  0  0  1  0  0  0  0  0  0
  187.8160  173.8480  137.8870 C   0  0  0  0  0  2  0  0  0  0  0  0
  187.1480  175.7060  136.5370 O   0  0  0  0  0  0  0  0  0  0  0  0
  190.3550  173.5930  138.1120 C   0  0  0  0  0  2  0  0  0  0  0  0
  189.0080  173.7770  138.8490 C   0  0  2  0  0  3  0  0  0  0  0  0
  190.3820  174.0500  136.6440 C   0  0  0  0  0  2  0  0  0  0  0  0
  189.3860  175.0820  136.3710 N   0  0  0  0  0  2  0  0  0  0  0  0
  188.0730  174.9330  136.8990 C   0  0  0  0  0  0  0  0  0  0  0  0
  191.4210  177.1080  144.0260 O   0  0  0  0  0  0  0  0  0  0  0  0
  192.6610  176.7060  143.8260 O   0  0  0  0  0  0  0  0  0  0  0  0
  192.7770  176.5710  142.4370 C   0  0  0  0  0  2  0  0  0  0  0  0
  195.0150  176.1770  141.4230 C   0  0  0  0  0  1  0  0  0  0  0  0
  193.8270  175.5270  142.1060 C   0  0  0  0  0  2  0  0  0  0  0  0
  1  3  1  0  0  0  0
  3  2  1  6  0  0  0
  4  3  1  0  0  0  0
  6  7  1  0  0  0  0
  7  9  1  0  0  0  0
  8  7  1  0  0  0  0
  9  4  1  0  0  0  0
  9  5  2  0  0  0  0
 10  8  2  0  0  0  0
 11  8  1  0  0  0  0
 12 11  1  0  0  0  0
 13 12  1  0  0  0  0
 14 27  1  0  0  0  0
 14 24  1  0  0  0  0
 15 32  2  0  0  0  0
 15 23  1  0  0  0  0
 16 19  2  0  0  0  0
 17 25  1  0  0  0  0
 19 29  1  0  0  0  0
 20 21  1  0  0  0  0
 20 30  1  1  0  0  0
 20 26  1  0  0  0  0
 21 24  1  6  0  0  0
 21 26  1  0  0  0  0
 22 14  2  0  0  0  0
 23 27  1  0  0  0  0
 24 19  1  0  0  0  0
 25 20  1  0  0  0  0
 26 28  1  6  0  0  0
 26 13  1  0  0  0  0
 27 18  1  1  0  0  0
 31 32  1  0  0  0  0
 32 17  1  0  0  0  0
 34 33  1  0  0  0  0
 34 27  1  0  0  0  0
 35 34  2  0  0  0  0
 36  1  1  6  0  0  0
 36 37  1  0  0  0  0
 37 38  1  1  0  0  0
 39 37  1  0  0  0  0
 40 49  1  6  0  0  0
 40 47  1  0  0  0  0
 40 42  1  0  0  0  0
 42 39  1  1  0  0  0
 42 41  1  0  0  0  0
 44 45  1  1  0  0  0
 44 46  1  0  0  0  0
 45 43  1  0  0  0  0
 46 43  1  1  0  0  0
 46 41  1  0  0  0  0
 47 44  1  0  0  0  0
 49 48  1  6  0  0  0
 50 49  1  0  0  0  0
 50 52  2  0  0  0  0
 51 50  1  0  0  0  0
 53 51  1  0  0  0  0
 53 54  1  1  0  0  0
 55 56  1  6  0  0  0
 55 53  1  0  0  0  0
 57 60  1  0  0  0  0
 58 63  2  0  0  0  0
 59 60  1  0  0  0  0
 60 55  1  1  0  0  0
 61 59  1  0  0  0  0
 62 61  1  0  0  0  0
 62 63  1  0  0  0  0
 63 57  1  0  0  0  0
 64 36  1  0  0  0  0
 65 64  1  0  0  0  0
 66 65  1  0  0  0  0
 67 68  1  0  0  0  0
 68 66  1  0  0  0  0
M  END
>  <MODEL>
8

>  <REMARK>
 VINA RESULT:      -4.6      2.521      6.317
  Name = 
  21 active torsions:
  status: ('A' for Active; 'I' for Inactive)
    1  A    between atoms: C_3  and  C_31
    2  A    between atoms: C_8  and  N_12
    3  A    between atoms: C_8  and  C_18
    4  A    between atoms: C_9  and  C_31
    5  A    between atoms: C_13  and  C_52
    6  A    between atoms: C_13  and  C_54
    7  A    between atoms: C_16  and  C_52
    8  A    between atoms: C_18  and  C_22
    9  A    between atoms: C_21  and  C_47
   10  A    between atoms: O_23  and  C_45
   11  A    between atoms: O_23  and  C_62
   12  A    between atoms: C_30  and  O_32
   13  A    between atoms: C_30  and  C_57
   14  A    between atoms: O_32  and  C_46
   15  A    between atoms: O_36  and  C_47
   16  A    between atoms: O_36  and  O_65
   17  A    between atoms: C_38  and  C_57
   18  A    between atoms: C_39  and  C_48
   19  A    between atoms: C_43  and  C_54
   20  A    between atoms: C_43  and  C_62
   21  A    between atoms: C_54  and  O_65
                            x       y       z     vdW  Elec       q    Type
                         _______ _______ _______ _____ _____    ______ ____

>  <TORSDO>
F 21

$$$$
=
 OpenBabel11062421063D

 68 72  0  0  1  0  0  0  0  0999 V2000
  191.9540  172.1840  143.7120 C   0  0  0  0  0  2  0  0  0  0  0  0
  189.6130  171.7930  143.0110 C   0  0  0  0  0  1  0  0  0  0  0  0
  190.9110  172.4800  142.6440 C   0  0  2  0  0  3  0  0  0  0  0  0
  191.3710  171.9740  141.3980 O   0  0  0  0  0  0  0  0  0  0  0  0
  191.8560  173.5220  139.7760 O   0  0  0  0  0  0  0  0  0  0  0  0
  189.7620  170.8370  139.0750 C   0  0  0  0  0  1  0  0  0  0  0  0
  189.9470  172.2410  139.4030 N   0  0  0  0  0  0  0  0  0  0  0  0
  189.0200  173.2210  138.9130 C   0  0  0  0  0  0  0  0  0  0  0  0
  191.0870  172.6150  140.1870 C   0  0  0  0  0  0  0  0  0  0  0  0
  188.1890  172.9060  138.0120 O   0  0  0  0  0  0  0  0  0  0  0  0
  188.9670  174.5890  139.5390 C   0  0  0  0  0  2  0  0  0  0  0  0
  188.4410  174.5700  140.9680 C   0  0  0  0  0  2  0  0  0  0  0  0
  187.4330  175.5320  141.1130 O   0  0  0  0  0  0  0  0  0  0  0  0
  189.5990  176.9970  145.3450 C   0  0  0  0  0  0  0  0  0  0  0  0
  187.4230  177.4360  147.2640 C   0  0  0  0  0  3  0  0  0  0  0  0
  191.2470  178.3280  143.3740 O   0  0  0  0  0  0  0  0  0  0  0  0
  185.4820  177.4830  145.3310 S   0  0  0  0  0  0  0  0  0  0  0  0
  189.3450  174.6520  145.7320 O   0  0  0  0  0  1  0  0  0  0  0  0
  190.6990  177.2160  143.1380 C   0  0  0  0  0  0  0  0  0  0  0  0
  187.1300  176.3840  143.3790 C   0  0  1  0  0  0  0  0  0  0  0  0
  188.5760  175.8680  143.3140 C   0  0  2  0  0  3  0  0  0  0  0  0
  189.9590  178.1260  145.7830 O   0  0  0  0  0  0  0  0  0  0  0  0
  187.7780  176.0430  146.8310 C   0  0  0  0  0  2  0  0  0  0  0  0
  189.5610  176.7850  143.9140 N   0  0  0  0  0  0  0  0  0  0  0  0
  186.7930  177.7080  144.0840 C   0  0  0  0  0  2  0  0  0  0  0  0
  187.8920  176.4620  142.0610 C   0  0  1  0  0  0  0  0  0  0  0  0
  189.2320  175.9050  146.3440 C   0  0  2  0  0  0  0  0  0  0  0  0
  188.1850  177.8790  141.5600 C   0  0  0  0  0  1  0  0  0  0  0  0
  191.2330  176.3800  142.0250 C   0  0  0  0  0  1  0  0  0  0  0  0
  186.1730  175.3650  143.4180 O   0  0  0  0  0  1  0  0  0  0  0  0
  186.2480  179.4930  147.0900 N   0  0  0  0  0  1  0  0  0  0  0  0
  186.4810  178.1570  146.6590 C   0  0  0  0  0  0  0  0  0  0  0  0
  190.7360  177.1720  147.9600 N   0  0  0  0  0  1  0  0  0  0  0  0
  190.1910  175.9340  147.5120 C   0  0  0  0  0  0  0  0  0  0  0  0
  190.4690  174.8800  148.1450 O   0  0  0  0  0  0  0  0  0  0  0  0
  193.3630  172.6530  143.3450 C   0  0  2  0  0  3  0  0  0  0  0  0
  194.3500  171.5350  142.9980 C   0  0  2  0  0  3  0  0  0  0  0  0
  194.8390  170.9270  144.1510 O   0  0  0  0  0  1  0  0  0  0  0  0
  195.5090  172.0080  142.1290 C   0  0  0  0  0  2  0  0  0  0  0  0
  195.6850  171.4960  139.6550 C   0  0  2  0  0  3  0  0  0  0  0  0
  195.2870  173.8460  140.4580 C   0  0  0  0  0  2  0  0  0  0  0  0
  195.0210  172.3710  140.7340 C   0  0  2  0  0  3  0  0  0  0  0  0
  195.7150  175.2620  138.4400 C   0  0  0  0  0  2  0  0  0  0  0  0
  195.4820  173.1620  138.0300 C   0  0  2  0  0  3  0  0  0  0  0  0
  196.3110  174.2890  137.4410 C   0  0  0  0  0  2  0  0  0  0  0  0
  194.8680  174.1530  139.0250 C   0  0  1  0  0  3  0  0  0  0  0  0
  196.3540  172.2220  138.6340 O   0  0  0  0  0  0  0  0  0  0  0  0
  193.6080  170.2680  139.9410 O   0  0  0  0  0  1  0  0  0  0  0  0
  194.7410  170.4040  139.1340 C   0  0  1  0  0  3  0  0  0  0  0  0
  194.3670  170.6270  137.7040 C   0  0  0  0  0  0  0  0  0  0  0  0
  193.0790  171.1630  137.3990 N   0  0  0  0  0  2  0  0  0  0  0  0
  195.1690  170.3260  136.7800 O   0  0  0  0  0  0  0  0  0  0  0  0
  192.7000  171.6060  136.0630 C   0  0  1  0  0  3  0  0  0  0  0  0
  192.7280  170.5480  135.1710 F   0  0  0  0  0  0  0  0  0  0  0  0
  191.3190  172.2730  136.0780 C   0  0  2  0  0  3  0  0  0  0  0  0
  190.3290  171.3410  135.3940 C   0  0  0  0  0  1  0  0  0  0  0  0
  191.9780  174.7150  136.3490 C   0  0  0  0  0  2  0  0  0  0  0  0
  192.9350  176.8080  135.6980 O   0  0  0  0  0  0  0  0  0  0  0  0
  189.8700  174.0890  135.0360 C   0  0  0  0  0  2  0  0  0  0  0  0
  191.3040  173.6780  135.4440 C   0  0  2  0  0  3  0  0  0  0  0  0
  189.5610  175.5940  135.1030 C   0  0  0  0  0  2  0  0  0  0  0  0
  190.7630  176.4080  134.9550 N   0  0  0  0  0  2  0  0  0  0  0  0
  191.9420  176.0350  135.6600 C   0  0  0  0  0  0  0  0  0  0  0  0
  193.8940  173.5300  144.2980 O   0  0  0  0  0  0  0  0  0  0  0  0
  193.1480  174.6150  144.2140 O   0  0  0  0  0  0  0  0  0  0  0  0
  194.0600  175.6750  144.1410 C   0  0  0  0  0  2  0  0  0  0  0  0
  194.1950  176.4210  146.5110 C   0  0  0  0  0  1  0  0  0  0  0  0
  194.9200  175.7020  145.3900 C   0  0  0  0  0  2  0  0  0  0  0  0
  3  2  1  1  0  0  0
  3  1  1  0  0  0  0
  4  3  1  0  0  0  0
  5  9  2  0  0  0  0
  6  7  1  0  0  0  0
  7  9  1  0  0  0  0
  8  7  1  0  0  0  0
  8 11  1  0  0  0  0
  9  4  1  0  0  0  0
 10  8  2  0  0  0  0
 11 12  1  0  0  0  0
 12 13  1  0  0  0  0
 13 26  1  0  0  0  0
 14 22  2  0  0  0  0
 14 27  1  0  0  0  0
 17 32  1  0  0  0  0
 19 16  2  0  0  0  0
 19 24  1  0  0  0  0
 20 30  1  1  0  0  0
 20 25  1  0  0  0  0
 21 20  1  0  0  0  0
 21 24  1  1  0  0  0
 23 15  1  0  0  0  0
 24 14  1  0  0  0  0
 25 17  1  0  0  0  0
 26 28  1  6  0  0  0
 26 21  1  0  0  0  0
 26 20  1  0  0  0  0
 27 18  1  6  0  0  0
 27 23  1  0  0  0  0
 27 34  1  0  0  0  0
 29 19  1  0  0  0  0
 32 31  1  0  0  0  0
 32 15  2  0  0  0  0
 34 33  1  0  0  0  0
 34 35  2  0  0  0  0
 36  1  1  1  0  0  0
 36 64  1  0  0  0  0
 37 36  1  0  0  0  0
 37 38  1  1  0  0  0
 39 37  1  0  0  0  0
 40 49  1  6  0  0  0
 40 42  1  0  0  0  0
 41 42  1  0  0  0  0
 42 39  1  1  0  0  0
 44 45  1  6  0  0  0
 44 47  1  0  0  0  0
 44 46  1  0  0  0  0
 45 43  1  0  0  0  0
 46 43  1  6  0  0  0
 46 41  1  0  0  0  0
 47 40  1  0  0  0  0
 49 48  1  1  0  0  0
 50 49  1  0  0  0  0
 51 50  1  0  0  0  0
 52 50  2  0  0  0  0
 53 54  1  6  0  0  0
 53 55  1  0  0  0  0
 53 51  1  0  0  0  0
 55 56  1  6  0  0  0
 59 61  1  0  0  0  0
 59 60  1  0  0  0  0
 60 55  1  1  0  0  0
 60 57  1  0  0  0  0
 62 61  1  0  0  0  0
 62 63  1  0  0  0  0
 63 58  2  0  0  0  0
 63 57  1  0  0  0  0
 65 64  1  0  0  0  0
 66 65  1  0  0  0  0
 66 68  1  0  0  0  0
 68 67  1  0  0  0  0
M  END
>  <MODEL>
9

>  <REMARK>
 VINA RESULT:      -4.6      3.283      9.647
  Name = 
  21 active torsions:
  status: ('A' for Active; 'I' for Inactive)
    1  A    between atoms: C_3  and  C_31
    2  A    between atoms: C_8  and  N_12
    3  A    between atoms: C_8  and  C_18
    4  A    between atoms: C_9  and  C_31
    5  A    between atoms: C_13  and  C_52
    6  A    between atoms: C_13  and  C_54
    7  A    between atoms: C_16  and  C_52
    8  A    between atoms: C_18  and  C_22
    9  A    between atoms: C_21  and  C_47
   10  A    between atoms: O_23  and  C_45
   11  A    between atoms: O_23  and  C_62
   12  A    between atoms: C_30  and  O_32
   13  A    between atoms: C_30  and  C_57
   14  A    between atoms: O_32  and  C_46
   15  A    between atoms: O_36  and  C_47
   16  A    between atoms: O_36  and  O_65
   17  A    between atoms: C_38  and  C_57
   18  A    between atoms: C_39  and  C_48
   19  A    between atoms: C_43  and  C_54
   20  A    between atoms: C_43  and  C_62
   21  A    between atoms: C_54  and  O_65
                            x       y       z     vdW  Elec       q    Type
                         _______ _______ _______ _____ _____    ______ ____

>  <TORSDO>
F 21

$$$$
