=
 OpenBabel11062422453D

 29 31  0  0  1  0  0  0  0  0999 V2000
  191.4200  174.8070  142.0450 N   0  0  0  0  0  2  0  0  0  0  0  0
  190.0590  173.6350  143.5450 C   0  0  0  0  0  0  0  0  0  0  0  0
  191.3410  174.3560  143.4340 C   0  0  1  0  0  3  0  0  0  0  0  0
  190.3810  174.1000  141.2870 C   0  0  0  0  0  2  0  0  0  0  0  0
  189.3680  173.5020  142.2530 C   0  0  2  0  0  3  0  0  0  0  0  0
  189.6170  173.1960  144.5960 O   0  0  0  0  0  0  0  0  0  0  0  0
  192.4970  173.4120  143.7440 C   0  0  0  0  0  2  0  0  0  0  0  0
  193.7310  172.8680  145.6800 O   0  0  0  0  0  0  0  0  0  0  0  0
  193.0970  173.7210  145.0780 C   0  0  0  0  0  0  0  0  0  0  0  0
  192.9390  175.0880  145.6540 C   0  0  0  0  0  2  0  0  0  0  0  0
  192.2730  175.0070  147.0170 C   0  0  0  0  0  2  0  0  0  0  0  0
  189.8130  175.0730  147.4040 C   0  0  0  0  0  2  0  0  0  0  0  0
  188.5080  175.6570  146.8480 C   0  0  0  0  0  2  0  0  0  0  0  0
  191.0550  175.9100  147.0660 C   0  0  0  0  0  3  0  0  0  0  0  0
  189.6950  177.6230  145.7930 C   0  0  0  0  0  2  0  0  0  0  0  0
  190.8800  176.6480  145.7380 C   0  0  0  0  0  2  0  0  0  0  0  0
  188.5790  177.1790  146.7490 C   0  0  0  0  0  2  0  0  0  0  0  0
  188.0890  174.3310  142.2610 C   0  0  0  0  0  2  0  0  0  0  0  0
  188.0650  175.3240  141.1060 C   0  0  0  0  0  2  0  0  0  0  0  0
  186.3180  177.9550  143.3550 C   0  0  0  0  0  0  0  0  0  0  0  0
  187.5340  176.6460  141.5450 C   0  0  0  0  0  0  0  0  0  0  0  0
  186.3560  179.0350  142.7050 O   0  0  0  0  0  0  0  0  0  0  0  0
  186.9120  176.7630  142.8290 N   0  0  0  0  0  2  0  0  0  0  0  0
  187.6150  177.6350  140.7690 O   0  0  0  0  0  0  0  0  0  0  0  0
  185.6550  177.9110  144.6610 C   0  0  0  0  0  0  0  0  0  0  0  0
  185.1360  178.9970  145.3360 C   0  0  0  0  0  3  0  0  0  0  0  0
  184.6140  178.4700  146.5050 C   0  0  0  0  0  3  0  0  0  0  0  0
  184.8500  177.1060  146.4640 C   0  0  0  0  0  3  0  0  0  0  0  0
  185.4720  176.8120  145.3480 O   0  0  0  0  0  0  0  0  0  0  0  0
  1  3  1  0  0  0  0
  2  6  2  0  0  0  0
  3  2  1  0  0  0  0
  3  7  1  6  0  0  0
  4  1  1  0  0  0  0
  4  5  1  0  0  0  0
  5 18  1  1  0  0  0
  5  2  1  0  0  0  0
  7  9  1  0  0  0  0
  9 10  1  0  0  0  0
  9  8  2  0  0  0  0
 10 11  1  0  0  0  0
 11 14  1  0  0  0  0
 13 12  1  0  0  0  0
 14 12  1  0  0  0  0
 15 17  1  0  0  0  0
 16 15  1  0  0  0  0
 16 14  1  0  0  0  0
 17 13  1  0  0  0  0
 19 21  1  0  0  0  0
 19 18  1  0  0  0  0
 20 25  1  0  0  0  0
 21 23  1  0  0  0  0
 22 20  2  0  0  0  0
 23 20  1  0  0  0  0
 24 21  2  0  0  0  0
 25 26  2  0  0  0  0
 25 29  1  0  0  0  0
 26 27  1  0  0  0  0
 28 27  2  0  0  0  0
 29 28  1  0  0  0  0
M  END
>  <MODEL>
1

>  <REMARK>
 VINA RESULT:      -6.7      0.000      0.000
  Name = 
  9 active torsions:
  status: ('A' for Active; 'I' for Inactive)
    1  A    between atoms: C_2  and  C_3
    2  A    between atoms: C_6  and  C_21
    3  A    between atoms: C_11  and  C_22
    4  A    between atoms: C_12  and  C_13
    5  A    between atoms: C_12  and  C_17
    6  A    between atoms: C_13  and  C_15
    7  A    between atoms: C_16  and  C_21
    8  A    between atoms: C_16  and  C_26
    9  A    between atoms: C_17  and  C_22
                            x       y       z     vdW  Elec       q    Type
                         _______ _______ _______ _____ _____    ______ ____

>  <TORSDO>
F 9

$$$$
=
 OpenBabel11062422453D

 29 31  0  0  1  0  0  0  0  0999 V2000
  191.1310  175.1810  144.7720 N   0  0  0  0  0  2  0  0  0  0  0  0
  190.4910  176.2550  146.7510 C   0  0  0  0  0  0  0  0  0  0  0  0
  191.6430  176.0100  145.8630 C   0  0  1  0  0  3  0  0  0  0  0  0
  189.8080  174.6870  145.1730 C   0  0  0  0  0  2  0  0  0  0  0  0
  189.2880  175.5170  146.3370 C   0  0  2  0  0  3  0  0  0  0  0  0
  190.5300  176.9920  147.7240 O   0  0  0  0  0  0  0  0  0  0  0  0
  192.7340  175.2620  146.6210 C   0  0  0  0  0  2  0  0  0  0  0  0
  194.1750  177.1210  146.7950 O   0  0  0  0  0  0  0  0  0  0  0  0
  194.0540  175.9490  146.4770 C   0  0  0  0  0  0  0  0  0  0  0  0
  195.2280  175.1800  145.9680 C   0  0  0  0  0  2  0  0  0  0  0  0
  194.8510  174.4280  144.7040 C   0  0  0  0  0  2  0  0  0  0  0  0
  194.1360  172.0720  145.0820 C   0  0  0  0  0  2  0  0  0  0  0  0
  194.5220  170.7860  145.8260 C   0  0  0  0  0  2  0  0  0  0  0  0
  195.3290  172.9900  144.7810 C   0  0  0  0  0  3  0  0  0  0  0  0
  196.9700  171.4100  145.8830 C   0  0  0  0  0  2  0  0  0  0  0  0
  196.4220  172.8430  145.8410 C   0  0  0  0  0  2  0  0  0  0  0  0
  195.9410  170.3470  145.4750 C   0  0  0  0  0  2  0  0  0  0  0  0
  188.2200  176.4930  145.8560 C   0  0  0  0  0  2  0  0  0  0  0  0
  187.0780  176.6020  146.8570 C   0  0  0  0  0  2  0  0  0  0  0  0
  184.7400  178.1790  144.1970 C   0  0  0  0  0  0  0  0  0  0  0  0
  185.9410  177.3830  146.2930 C   0  0  0  0  0  0  0  0  0  0  0  0
  183.8780  178.8300  144.8460 O   0  0  0  0  0  0  0  0  0  0  0  0
  185.7560  177.4300  144.8740 N   0  0  0  0  0  2  0  0  0  0  0  0
  185.1760  178.0140  147.0700 O   0  0  0  0  0  0  0  0  0  0  0  0
  184.7120  178.1880  142.7310 C   0  0  0  0  0  0  0  0  0  0  0  0
  183.5750  178.2280  141.9500 C   0  0  0  0  0  3  0  0  0  0  0  0
  184.0430  178.2250  140.6470 C   0  0  0  0  0  3  0  0  0  0  0  0
  185.4250  178.1840  140.7220 C   0  0  0  0  0  3  0  0  0  0  0  0
  185.7850  178.1630  141.9830 O   0  0  0  0  0  0  0  0  0  0  0  0
  1  4  1  0  0  0  0
  1  3  1  0  0  0  0
  2  6  2  0  0  0  0
  3  7  1  1  0  0  0
  3  2  1  0  0  0  0
  4  5  1  0  0  0  0
  5 18  1  6  0  0  0
  5  2  1  0  0  0  0
  9  7  1  0  0  0  0
  9  8  2  0  0  0  0
 10  9  1  0  0  0  0
 11 14  1  0  0  0  0
 11 10  1  0  0  0  0
 12 13  1  0  0  0  0
 14 12  1  0  0  0  0
 14 16  1  0  0  0  0
 16 15  1  0  0  0  0
 17 13  1  0  0  0  0
 17 15  1  0  0  0  0
 18 19  1  0  0  0  0
 20 22  2  0  0  0  0
 20 23  1  0  0  0  0
 21 19  1  0  0  0  0
 21 24  2  0  0  0  0
 23 21  1  0  0  0  0
 25 20  1  0  0  0  0
 26 25  2  0  0  0  0
 27 28  2  0  0  0  0
 27 26  1  0  0  0  0
 28 29  1  0  0  0  0
 29 25  1  0  0  0  0
M  END
>  <MODEL>
2

>  <REMARK>
 VINA RESULT:      -6.6      2.641      5.131
  Name = 
  9 active torsions:
  status: ('A' for Active; 'I' for Inactive)
    1  A    between atoms: C_2  and  C_3
    2  A    between atoms: C_6  and  C_21
    3  A    between atoms: C_11  and  C_22
    4  A    between atoms: C_12  and  C_13
    5  A    between atoms: C_12  and  C_17
    6  A    between atoms: C_13  and  C_15
    7  A    between atoms: C_16  and  C_21
    8  A    between atoms: C_16  and  C_26
    9  A    between atoms: C_17  and  C_22
                            x       y       z     vdW  Elec       q    Type
                         _______ _______ _______ _____ _____    ______ ____

>  <TORSDO>
F 9

$$$$
=
 OpenBabel11062422453D

 29 31  0  0  1  0  0  0  0  0999 V2000
  189.4480  174.1130  140.4140 N   0  0  0  0  0  2  0  0  0  0  0  0
  188.3310  174.9480  142.2930 C   0  0  0  0  0  0  0  0  0  0  0  0
  189.4300  174.0590  141.8750 C   0  0  1  0  0  3  0  0  0  0  0  0
  188.2010  174.7520  139.9770 C   0  0  0  0  0  2  0  0  0  0  0  0
  187.5650  175.4780  141.1550 C   0  0  2  0  0  3  0  0  0  0  0  0
  188.0830  175.2180  143.4580 O   0  0  0  0  0  0  0  0  0  0  0  0
  189.1540  172.6340  142.3430 C   0  0  0  0  0  2  0  0  0  0  0  0
  191.1890  171.5250  142.7810 O   0  0  0  0  0  0  0  0  0  0  0  0
  190.2430  172.1450  143.2420 C   0  0  0  0  0  0  0  0  0  0  0  0
  190.1790  172.4470  144.7020 C   0  0  0  0  0  2  0  0  0  0  0  0
  191.3030  173.3930  145.0880 C   0  0  0  0  0  2  0  0  0  0  0  0
  191.8110  175.4160  146.4500 C   0  0  0  0  0  2  0  0  0  0  0  0
  191.2360  176.3210  147.5490 C   0  0  0  0  0  2  0  0  0  0  0  0
  190.7370  174.6960  145.6230 C   0  0  0  0  0  3  0  0  0  0  0  0
  188.8510  175.7470  146.9430 C   0  0  0  0  0  2  0  0  0  0  0  0
  189.4800  174.4340  146.4540 C   0  0  0  0  0  2  0  0  0  0  0  0
  189.8700  176.8750  147.1520 C   0  0  0  0  0  2  0  0  0  0  0  0
  187.7860  176.9810  141.0340 C   0  0  0  0  0  2  0  0  0  0  0  0
  186.7120  177.6320  140.1730 C   0  0  0  0  0  2  0  0  0  0  0  0
  184.5070  178.1890  143.3130 C   0  0  0  0  0  0  0  0  0  0  0  0
  185.5150  177.9890  140.9870 C   0  0  0  0  0  0  0  0  0  0  0  0
  183.3850  178.5640  142.8770 O   0  0  0  0  0  0  0  0  0  0  0  0
  185.5900  177.9230  142.4150 N   0  0  0  0  0  2  0  0  0  0  0  0
  184.4460  178.3180  140.4060 O   0  0  0  0  0  0  0  0  0  0  0  0
  184.7100  178.0140  144.7540 C   0  0  0  0  0  0  0  0  0  0  0  0
  185.5800  177.1170  145.3400 C   0  0  0  0  0  3  0  0  0  0  0  0
  185.4300  177.3180  146.7010 C   0  0  0  0  0  3  0  0  0  0  0  0
  184.4850  178.3180  146.8530 C   0  0  0  0  0  3  0  0  0  0  0  0
  184.0800  178.7070  145.6670 O   0  0  0  0  0  0  0  0  0  0  0  0
  1  3  1  0  0  0  0
  2  6  2  0  0  0  0
  3  2  1  0  0  0  0
  3  7  1  6  0  0  0
  4  1  1  0  0  0  0
  4  5  1  0  0  0  0
  5 18  1  6  0  0  0
  5  2  1  0  0  0  0
  7  9  1  0  0  0  0
  8  9  2  0  0  0  0
  9 10  1  0  0  0  0
 10 11  1  0  0  0  0
 11 14  1  0  0  0  0
 12 13  1  0  0  0  0
 14 12  1  0  0  0  0
 14 16  1  0  0  0  0
 15 17  1  0  0  0  0
 16 15  1  0  0  0  0
 17 13  1  0  0  0  0
 19 21  1  0  0  0  0
 19 18  1  0  0  0  0
 20 25  1  0  0  0  0
 21 23  1  0  0  0  0
 22 20  2  0  0  0  0
 23 20  1  0  0  0  0
 24 21  2  0  0  0  0
 25 26  2  0  0  0  0
 25 29  1  0  0  0  0
 26 27  1  0  0  0  0
 27 28  2  0  0  0  0
 29 28  1  0  0  0  0
M  END
>  <MODEL>
3

>  <REMARK>
 VINA RESULT:      -6.6      1.798      2.657
  Name = 
  9 active torsions:
  status: ('A' for Active; 'I' for Inactive)
    1  A    between atoms: C_2  and  C_3
    2  A    between atoms: C_6  and  C_21
    3  A    between atoms: C_11  and  C_22
    4  A    between atoms: C_12  and  C_13
    5  A    between atoms: C_12  and  C_17
    6  A    between atoms: C_13  and  C_15
    7  A    between atoms: C_16  and  C_21
    8  A    between atoms: C_16  and  C_26
    9  A    between atoms: C_17  and  C_22
                            x       y       z     vdW  Elec       q    Type
                         _______ _______ _______ _____ _____    ______ ____

>  <TORSDO>
F 9

$$$$
=
 OpenBabel11062422453D

 29 31  0  0  1  0  0  0  0  0999 V2000
  189.3940  176.4790  144.2160 N   0  0  0  0  0  2  0  0  0  0  0  0
  189.0870  174.4180  143.1490 C   0  0  0  0  0  0  0  0  0  0  0  0
  189.1880  175.0540  144.4760 C   0  0  1  0  0  3  0  0  0  0  0  0
  189.7270  176.6280  142.7950 C   0  0  0  0  0  2  0  0  0  0  0  0
  189.3400  175.3590  142.0480 C   0  0  2  0  0  3  0  0  0  0  0  0
  188.8210  173.2380  142.9820 O   0  0  0  0  0  0  0  0  0  0  0  0
  190.3790  174.4840  145.2370 C   0  0  0  0  0  2  0  0  0  0  0  0
  189.2570  174.9430  147.2600 O   0  0  0  0  0  0  0  0  0  0  0  0
  190.3280  174.8720  146.6800 C   0  0  0  0  0  0  0  0  0  0  0  0
  191.6010  175.1410  147.4120 C   0  0  0  0  0  2  0  0  0  0  0  0
  192.0720  176.5580  147.1350 C   0  0  0  0  0  2  0  0  0  0  0  0
  192.9700  176.8870  144.8340 C   0  0  0  0  0  2  0  0  0  0  0  0
  193.9280  176.2770  143.8020 C   0  0  0  0  0  2  0  0  0  0  0  0
  193.3300  176.5420  146.2860 C   0  0  0  0  0  3  0  0  0  0  0  0
  195.3350  175.1680  145.5830 C   0  0  0  0  0  2  0  0  0  0  0  0
  194.0210  175.1810  146.3760 C   0  0  0  0  0  2  0  0  0  0  0  0
  195.3330  176.1160  144.3770 C   0  0  0  0  0  2  0  0  0  0  0  0
  188.0590  175.5830  141.2520 C   0  0  0  0  0  2  0  0  0  0  0  0
  187.7790  177.0670  141.0570 C   0  0  0  0  0  2  0  0  0  0  0  0
  185.0730  177.8720  143.7150 C   0  0  0  0  0  0  0  0  0  0  0  0
  186.4510  177.4420  141.6210 C   0  0  0  0  0  0  0  0  0  0  0  0
  184.0200  178.1090  143.0650 O   0  0  0  0  0  0  0  0  0  0  0  0
  186.2980  177.5670  143.0380 N   0  0  0  0  0  2  0  0  0  0  0  0
  185.4750  177.6170  140.8430 O   0  0  0  0  0  0  0  0  0  0  0  0
  185.0500  177.9000  145.1800 C   0  0  0  0  0  0  0  0  0  0  0  0
  185.9180  177.2210  146.0100 C   0  0  0  0  0  3  0  0  0  0  0  0
  185.5150  177.5550  147.2920 C   0  0  0  0  0  3  0  0  0  0  0  0
  184.4340  178.4110  147.1570 C   0  0  0  0  0  3  0  0  0  0  0  0
  184.1890  178.5920  145.8810 O   0  0  0  0  0  0  0  0  0  0  0  0
  1  3  1  0  0  0  0
  2  3  1  0  0  0  0
  3  7  1  6  0  0  0
  4  1  1  0  0  0  0
  5 18  1  1  0  0  0
  5  4  1  0  0  0  0
  5  2  1  0  0  0  0
  6  2  2  0  0  0  0
  7  9  1  0  0  0  0
  9  8  2  0  0  0  0
  9 10  1  0  0  0  0
 11 10  1  0  0  0  0
 12 14  1  0  0  0  0
 13 17  1  0  0  0  0
 13 12  1  0  0  0  0
 14 16  1  0  0  0  0
 14 11  1  0  0  0  0
 15 16  1  0  0  0  0
 17 15  1  0  0  0  0
 19 18  1  0  0  0  0
 19 21  1  0  0  0  0
 20 25  1  0  0  0  0
 21 23  1  0  0  0  0
 22 20  2  0  0  0  0
 23 20  1  0  0  0  0
 24 21  2  0  0  0  0
 25 29  1  0  0  0  0
 25 26  2  0  0  0  0
 26 27  1  0  0  0  0
 28 27  2  0  0  0  0
 29 28  1  0  0  0  0
M  END
>  <MODEL>
4

>  <REMARK>
 VINA RESULT:      -6.5      2.013      3.176
  Name = 
  9 active torsions:
  status: ('A' for Active; 'I' for Inactive)
    1  A    between atoms: C_2  and  C_3
    2  A    between atoms: C_6  and  C_21
    3  A    between atoms: C_11  and  C_22
    4  A    between atoms: C_12  and  C_13
    5  A    between atoms: C_12  and  C_17
    6  A    between atoms: C_13  and  C_15
    7  A    between atoms: C_16  and  C_21
    8  A    between atoms: C_16  and  C_26
    9  A    between atoms: C_17  and  C_22
                            x       y       z     vdW  Elec       q    Type
                         _______ _______ _______ _____ _____    ______ ____

>  <TORSDO>
F 9

$$$$
=
 OpenBabel11062422453D

 29 31  0  0  1  0  0  0  0  0999 V2000
  188.3300  177.8350  141.6520 N   0  0  0  0  0  2  0  0  0  0  0  0
  186.7910  176.2470  142.4170 C   0  0  0  0  0  0  0  0  0  0  0  0
  188.2320  176.5460  142.3350 C   0  0  1  0  0  3  0  0  0  0  0  0
  187.0170  178.1270  141.0650 C   0  0  0  0  0  2  0  0  0  0  0  0
  185.9650  177.2350  141.7070 C   0  0  2  0  0  3  0  0  0  0  0  0
  186.3310  175.2830  143.0120 O   0  0  0  0  0  0  0  0  0  0  0  0
  188.9420  175.4680  141.5230 C   0  0  0  0  0  2  0  0  0  0  0  0
  190.2030  173.5710  142.1340 O   0  0  0  0  0  0  0  0  0  0  0  0
  189.9470  174.7430  142.3590 C   0  0  0  0  0  0  0  0  0  0  0  0
  190.6560  175.4730  143.4510 C   0  0  0  0  0  2  0  0  0  0  0  0
  191.9250  176.1120  142.9130 C   0  0  0  0  0  2  0  0  0  0  0  0
  193.0000  174.5140  144.4940 C   0  0  0  0  0  2  0  0  0  0  0  0
  193.6060  174.4150  145.9000 C   0  0  0  0  0  2  0  0  0  0  0  0
  193.0680  175.9250  143.8940 C   0  0  0  0  0  3  0  0  0  0  0  0
  194.2100  176.8680  145.9450 C   0  0  0  0  0  2  0  0  0  0  0  0
  193.0190  176.9950  144.9850 C   0  0  0  0  0  2  0  0  0  0  0  0
  194.7290  175.4320  146.0930 C   0  0  0  0  0  2  0  0  0  0  0  0
  185.1330  178.0300  142.7070 C   0  0  0  0  0  2  0  0  0  0  0  0
  185.9560  179.1340  143.3590 C   0  0  0  0  0  2  0  0  0  0  0  0
  187.4390  177.6130  146.6020 C   0  0  0  0  0  0  0  0  0  0  0  0
  186.1430  178.8760  144.8140 C   0  0  0  0  0  0  0  0  0  0  0  0
  186.7670  178.1090  147.5460 O   0  0  0  0  0  0  0  0  0  0  0  0
  187.1800  177.9880  145.2440 N   0  0  0  0  0  2  0  0  0  0  0  0
  185.3690  179.4220  145.6450 O   0  0  0  0  0  0  0  0  0  0  0  0
  188.4940  176.6370  146.8890 C   0  0  0  0  0  0  0  0  0  0  0  0
  189.8400  176.9190  146.9980 C   0  0  0  0  0  3  0  0  0  0  0  0
  190.4340  175.6990  147.2770 C   0  0  0  0  0  3  0  0  0  0  0  0
  189.4150  174.7630  147.3190 C   0  0  0  0  0  3  0  0  0  0  0  0
  188.2730  175.3620  147.0820 O   0  0  0  0  0  0  0  0  0  0  0  0
  1  3  1  0  0  0  0
  2  6  2  0  0  0  0
  3  7  1  6  0  0  0
  3  2  1  0  0  0  0
  4  1  1  0  0  0  0
  4  5  1  0  0  0  0
  5  2  1  0  0  0  0
  5 18  1  1  0  0  0
  7  9  1  0  0  0  0
  8  9  2  0  0  0  0
  9 10  1  0  0  0  0
 11 10  1  0  0  0  0
 11 14  1  0  0  0  0
 12 13  1  0  0  0  0
 13 17  1  0  0  0  0
 14 12  1  0  0  0  0
 14 16  1  0  0  0  0
 15 17  1  0  0  0  0
 16 15  1  0  0  0  0
 18 19  1  0  0  0  0
 19 21  1  0  0  0  0
 20 25  1  0  0  0  0
 20 22  2  0  0  0  0
 21 23  1  0  0  0  0
 21 24  2  0  0  0  0
 23 20  1  0  0  0  0
 25 26  2  0  0  0  0
 25 29  1  0  0  0  0
 26 27  1  0  0  0  0
 27 28  2  0  0  0  0
 29 28  1  0  0  0  0
M  END
>  <MODEL>
5

>  <REMARK>
 VINA RESULT:      -6.4      2.096      4.600
  Name = 
  9 active torsions:
  status: ('A' for Active; 'I' for Inactive)
    1  A    between atoms: C_2  and  C_3
    2  A    between atoms: C_6  and  C_21
    3  A    between atoms: C_11  and  C_22
    4  A    between atoms: C_12  and  C_13
    5  A    between atoms: C_12  and  C_17
    6  A    between atoms: C_13  and  C_15
    7  A    between atoms: C_16  and  C_21
    8  A    between atoms: C_16  and  C_26
    9  A    between atoms: C_17  and  C_22
                            x       y       z     vdW  Elec       q    Type
                         _______ _______ _______ _____ _____    ______ ____

>  <TORSDO>
F 9

$$$$
=
 OpenBabel11062422453D

 29 31  0  0  1  0  0  0  0  0999 V2000
  187.1010  175.1960  142.3840 N   0  0  0  0  0  2  0  0  0  0  0  0
  188.9420  176.6400  142.3420 C   0  0  0  0  0  0  0  0  0  0  0  0
  187.4680  176.6120  142.3640 C   0  0  1  0  0  3  0  0  0  0  0  0
  188.3030  174.4200  142.0570 C   0  0  0  0  0  2  0  0  0  0  0  0
  189.5340  175.2990  142.2260 C   0  0  2  0  0  3  0  0  0  0  0  0
  189.6020  177.6660  142.4140 O   0  0  0  0  0  0  0  0  0  0  0  0
  186.9160  177.2780  141.1080 C   0  0  0  0  0  2  0  0  0  0  0  0
  184.8690  178.3750  140.6970 O   0  0  0  0  0  0  0  0  0  0  0  0
  185.8210  178.2370  141.4480 C   0  0  0  0  0  0  0  0  0  0  0  0
  185.8880  179.0020  142.7280 C   0  0  0  0  0  2  0  0  0  0  0  0
  184.6670  178.7020  143.5800 C   0  0  0  0  0  2  0  0  0  0  0  0
  184.1950  178.5300  146.0200 C   0  0  0  0  0  2  0  0  0  0  0  0
  184.8810  178.4760  147.3920 C   0  0  0  0  0  2  0  0  0  0  0  0
  185.0770  178.0200  144.8720 C   0  0  0  0  0  3  0  0  0  0  0  0
  187.0100  177.5190  146.4260 C   0  0  0  0  0  2  0  0  0  0  0  0
  186.5590  178.2630  145.1610 C   0  0  0  0  0  2  0  0  0  0  0  0
  185.8930  177.3350  147.4610 C   0  0  0  0  0  2  0  0  0  0  0  0
  190.2670  174.9420  143.5140 C   0  0  0  0  0  2  0  0  0  0  0  0
  189.8520  175.8560  144.6600 C   0  0  0  0  0  2  0  0  0  0  0  0
  193.5520  176.1520  145.7800 C   0  0  0  0  0  0  0  0  0  0  0  0
  191.0260  176.2360  145.4950 C   0  0  0  0  0  0  0  0  0  0  0  0
  193.5250  176.7730  146.8760 O   0  0  0  0  0  0  0  0  0  0  0  0
  192.3440  175.8930  145.0550 N   0  0  0  0  0  2  0  0  0  0  0  0
  190.8400  176.8300  146.5910 O   0  0  0  0  0  0  0  0  0  0  0  0
  194.8300  175.6820  145.2370 C   0  0  0  0  0  0  0  0  0  0  0  0
  195.5880  174.6480  145.7480 C   0  0  0  0  0  3  0  0  0  0  0  0
  196.6870  174.5700  144.9110 C   0  0  0  0  0  3  0  0  0  0  0  0
  196.5260  175.5560  143.9520 C   0  0  0  0  0  3  0  0  0  0  0  0
  195.4060  176.1970  144.1810 O   0  0  0  0  0  0  0  0  0  0  0  0
  2  3  1  0  0  0  0
  2  6  2  0  0  0  0
  3  7  1  6  0  0  0
  3  1  1  0  0  0  0
  4  5  1  0  0  0  0
  4  1  1  0  0  0  0
  5  2  1  0  0  0  0
  5 18  1  1  0  0  0
  7  9  1  0  0  0  0
  8  9  2  0  0  0  0
  9 10  1  0  0  0  0
 10 11  1  0  0  0  0
 11 14  1  0  0  0  0
 12 13  1  0  0  0  0
 13 17  1  0  0  0  0
 14 16  1  0  0  0  0
 14 12  1  0  0  0  0
 15 17  1  0  0  0  0
 16 15  1  0  0  0  0
 18 19  1  0  0  0  0
 19 21  1  0  0  0  0
 20 22  2  0  0  0  0
 21 24  2  0  0  0  0
 23 21  1  0  0  0  0
 23 20  1  0  0  0  0
 25 26  2  0  0  0  0
 25 20  1  0  0  0  0
 27 26  1  0  0  0  0
 28 29  1  0  0  0  0
 28 27  2  0  0  0  0
 29 25  1  0  0  0  0
M  END
>  <MODEL>
6

>  <REMARK>
 VINA RESULT:      -6.4      2.268      7.327
  Name = 
  9 active torsions:
  status: ('A' for Active; 'I' for Inactive)
    1  A    between atoms: C_2  and  C_3
    2  A    between atoms: C_6  and  C_21
    3  A    between atoms: C_11  and  C_22
    4  A    between atoms: C_12  and  C_13
    5  A    between atoms: C_12  and  C_17
    6  A    between atoms: C_13  and  C_15
    7  A    between atoms: C_16  and  C_21
    8  A    between atoms: C_16  and  C_26
    9  A    between atoms: C_17  and  C_22
                            x       y       z     vdW  Elec       q    Type
                         _______ _______ _______ _____ _____    ______ ____

>  <TORSDO>
F 9

$$$$
=
 OpenBabel11062422453D

 29 31  0  0  1  0  0  0  0  0999 V2000
  187.4390  174.2000  142.0130 N   0  0  0  0  0  2  0  0  0  0  0  0
  189.0200  175.5130  143.1330 C   0  0  0  0  0  0  0  0  0  0  0  0
  187.6880  175.5560  142.4990 C   0  0  1  0  0  3  0  0  0  0  0  0
  188.7100  173.4670  142.0680 C   0  0  0  0  0  2  0  0  0  0  0  0
  189.6860  174.2130  142.9660 C   0  0  2  0  0  3  0  0  0  0  0  0
  189.5160  176.4550  143.7320 O   0  0  0  0  0  0  0  0  0  0  0  0
  187.6990  176.5370  141.3320 C   0  0  0  0  0  2  0  0  0  0  0  0
  185.6740  177.6510  140.8570 O   0  0  0  0  0  0  0  0  0  0  0  0
  186.6890  177.6210  141.5350 C   0  0  0  0  0  0  0  0  0  0  0  0
  186.9180  178.6480  142.5940 C   0  0  0  0  0  2  0  0  0  0  0  0
  185.5990  179.0360  143.2380 C   0  0  0  0  0  2  0  0  0  0  0  0
  186.8870  178.0350  145.1210 C   0  0  0  0  0  2  0  0  0  0  0  0
  186.7180  177.3120  146.4650 C   0  0  0  0  0  2  0  0  0  0  0  0
  185.6960  178.9280  144.7490 C   0  0  0  0  0  3  0  0  0  0  0  0
  184.4440  178.3370  146.8670 C   0  0  0  0  0  2  0  0  0  0  0  0
  184.3920  178.3840  145.3330 C   0  0  0  0  0  2  0  0  0  0  0  0
  185.8560  178.1270  147.4270 C   0  0  0  0  0  2  0  0  0  0  0  0
  189.8050  173.5140  144.3150 C   0  0  0  0  0  2  0  0  0  0  0  0
  191.2540  173.1780  144.6400 C   0  0  0  0  0  2  0  0  0  0  0  0
  193.9780  175.9270  144.4000 C   0  0  0  0  0  0  0  0  0  0  0  0
  192.0260  174.4050  144.9860 C   0  0  0  0  0  0  0  0  0  0  0  0
  193.7690  176.6970  145.3760 O   0  0  0  0  0  0  0  0  0  0  0  0
  193.1240  174.8030  144.1590 N   0  0  0  0  0  2  0  0  0  0  0  0
  191.7190  175.0610  146.0180 O   0  0  0  0  0  0  0  0  0  0  0  0
  195.1100  176.1740  143.5020 C   0  0  0  0  0  0  0  0  0  0  0  0
  195.1350  175.9070  142.1490 C   0  0  0  0  0  3  0  0  0  0  0  0
  196.3930  176.3070  141.7330 C   0  0  0  0  0  3  0  0  0  0  0  0
  197.0470  176.7890  142.8550 C   0  0  0  0  0  3  0  0  0  0  0  0
  196.2470  176.6930  143.8900 O   0  0  0  0  0  0  0  0  0  0  0  0
  1  4  1  0  0  0  0
  1  3  1  0  0  0  0
  2  6  2  0  0  0  0
  3  7  1  6  0  0  0
  3  2  1  0  0  0  0
  4  5  1  0  0  0  0
  5  2  1  0  0  0  0
  5 18  1  1  0  0  0
  7  9  1  0  0  0  0
  8  9  2  0  0  0  0
  9 10  1  0  0  0  0
 10 11  1  0  0  0  0
 11 14  1  0  0  0  0
 12 13  1  0  0  0  0
 13 17  1  0  0  0  0
 14 12  1  0  0  0  0
 14 16  1  0  0  0  0
 15 17  1  0  0  0  0
 16 15  1  0  0  0  0
 18 19  1  0  0  0  0
 19 21  1  0  0  0  0
 20 22  2  0  0  0  0
 21 24  2  0  0  0  0
 23 20  1  0  0  0  0
 23 21  1  0  0  0  0
 25 29  1  0  0  0  0
 25 20  1  0  0  0  0
 26 25  2  0  0  0  0
 27 26  1  0  0  0  0
 27 28  2  0  0  0  0
 28 29  1  0  0  0  0
M  END
>  <MODEL>
7

>  <REMARK>
 VINA RESULT:      -6.3      2.545      7.236
  Name = 
  9 active torsions:
  status: ('A' for Active; 'I' for Inactive)
    1  A    between atoms: C_2  and  C_3
    2  A    between atoms: C_6  and  C_21
    3  A    between atoms: C_11  and  C_22
    4  A    between atoms: C_12  and  C_13
    5  A    between atoms: C_12  and  C_17
    6  A    between atoms: C_13  and  C_15
    7  A    between atoms: C_16  and  C_21
    8  A    between atoms: C_16  and  C_26
    9  A    between atoms: C_17  and  C_22
                            x       y       z     vdW  Elec       q    Type
                         _______ _______ _______ _____ _____    ______ ____

>  <TORSDO>
F 9

$$$$
=
 OpenBabel11062422453D

 29 31  0  0  1  0  0  0  0  0999 V2000
  189.8170  174.1960  146.0970 N   0  0  0  0  0  2  0  0  0  0  0  0
  189.4650  176.4800  145.7300 C   0  0  0  0  0  0  0  0  0  0  0  0
  190.2050  175.3080  145.2290 C   0  0  1  0  0  3  0  0  0  0  0  0
  189.1280  174.7620  147.2630 C   0  0  0  0  0  2  0  0  0  0  0  0
  188.7090  176.1930  146.9590 C   0  0  2  0  0  3  0  0  0  0  0  0
  189.4770  177.5730  145.1840 O   0  0  0  0  0  0  0  0  0  0  0  0
  191.7060  175.5550  145.3360 C   0  0  0  0  0  2  0  0  0  0  0  0
  192.6670  176.8160  143.5890 O   0  0  0  0  0  0  0  0  0  0  0  0
  192.3200  175.7130  143.9830 C   0  0  0  0  0  0  0  0  0  0  0  0
  192.5340  174.5070  143.1300 C   0  0  0  0  0  2  0  0  0  0  0  0
  191.7590  174.6440  141.8300 C   0  0  0  0  0  2  0  0  0  0  0  0
  190.2140  172.9090  140.9320 C   0  0  0  0  0  2  0  0  0  0  0  0
  188.7580  172.6790  140.5030 C   0  0  0  0  0  2  0  0  0  0  0  0
  190.3790  174.0280  141.9690 C   0  0  0  0  0  3  0  0  0  0  0  0
  187.8950  174.5060  142.0190 C   0  0  0  0  0  2  0  0  0  0  0  0
  189.2970  175.0960  141.8090 C   0  0  0  0  0  2  0  0  0  0  0  0
  187.7870  173.0270  141.6280 C   0  0  0  0  0  2  0  0  0  0  0  0
  187.2130  176.2590  146.6740 C   0  0  0  0  0  2  0  0  0  0  0  0
  186.5630  177.4330  147.3940 C   0  0  0  0  0  2  0  0  0  0  0  0
  185.6530  179.0320  143.9820 C   0  0  0  0  0  0  0  0  0  0  0  0
  186.0430  178.4370  146.4240 C   0  0  0  0  0  0  0  0  0  0  0  0
  185.1630  180.1600  144.2560 O   0  0  0  0  0  0  0  0  0  0  0  0
  186.0730  178.1430  145.0230 N   0  0  0  0  0  2  0  0  0  0  0  0
  185.6100  179.5420  146.8470 O   0  0  0  0  0  0  0  0  0  0  0  0
  185.8040  178.6210  142.5830 C   0  0  0  0  0  0  0  0  0  0  0  0
  186.9760  178.1900  141.9950 C   0  0  0  0  0  3  0  0  0  0  0  0
  186.6310  177.9130  140.6830 C   0  0  0  0  0  3  0  0  0  0  0  0
  185.2800  178.1920  140.5610 C   0  0  0  0  0  3  0  0  0  0  0  0
  184.8240  178.6120  141.7170 O   0  0  0  0  0  0  0  0  0  0  0  0
  1  4  1  0  0  0  0
  2  5  1  0  0  0  0
  3  7  1  1  0  0  0
  3  2  1  0  0  0  0
  3  1  1  0  0  0  0
  5 18  1  6  0  0  0
  5  4  1  0  0  0  0
  6  2  2  0  0  0  0
  8  9  2  0  0  0  0
  9  7  1  0  0  0  0
 10  9  1  0  0  0  0
 11 14  1  0  0  0  0
 11 10  1  0  0  0  0
 12 14  1  0  0  0  0
 13 12  1  0  0  0  0
 13 17  1  0  0  0  0
 16 14  1  0  0  0  0
 16 15  1  0  0  0  0
 17 15  1  0  0  0  0
 18 19  1  0  0  0  0
 20 22  2  0  0  0  0
 20 23  1  0  0  0  0
 21 24  2  0  0  0  0
 21 19  1  0  0  0  0
 23 21  1  0  0  0  0
 25 20  1  0  0  0  0
 26 25  2  0  0  0  0
 27 26  1  0  0  0  0
 28 27  2  0  0  0  0
 28 29  1  0  0  0  0
 29 25  1  0  0  0  0
M  END
>  <MODEL>
8

>  <REMARK>
 VINA RESULT:      -6.3      2.135      4.847
  Name = 
  9 active torsions:
  status: ('A' for Active; 'I' for Inactive)
    1  A    between atoms: C_2  and  C_3
    2  A    between atoms: C_6  and  C_21
    3  A    between atoms: C_11  and  C_22
    4  A    between atoms: C_12  and  C_13
    5  A    between atoms: C_12  and  C_17
    6  A    between atoms: C_13  and  C_15
    7  A    between atoms: C_16  and  C_21
    8  A    between atoms: C_16  and  C_26
    9  A    between atoms: C_17  and  C_22
                            x       y       z     vdW  Elec       q    Type
                         _______ _______ _______ _____ _____    ______ ____

>  <TORSDO>
F 9

$$$$
=
 OpenBabel11062422453D

 29 31  0  0  1  0  0  0  0  0999 V2000
  190.0930  175.5820  142.3680 N   0  0  0  0  0  2  0  0  0  0  0  0
  190.4400  177.1550  144.0650 C   0  0  0  0  0  0  0  0  0  0  0  0
  189.4120  176.6010  143.1660 C   0  0  1  0  0  3  0  0  0  0  0  0
  191.5370  175.7570  142.5630 C   0  0  0  0  0  2  0  0  0  0  0  0
  191.7820  176.6170  143.7940 C   0  0  2  0  0  3  0  0  0  0  0  0
  190.2040  177.9730  144.9420 O   0  0  0  0  0  0  0  0  0  0  0  0
  188.8680  177.6980  142.2580 C   0  0  0  0  0  2  0  0  0  0  0  0
  187.4490  176.7790  140.6130 O   0  0  0  0  0  0  0  0  0  0  0  0
  187.5320  177.3210  141.7040 C   0  0  0  0  0  0  0  0  0  0  0  0
  186.3030  177.5870  142.5080 C   0  0  0  0  0  2  0  0  0  0  0  0
  186.3700  178.9740  143.1210 C   0  0  0  0  0  2  0  0  0  0  0  0
  186.6850  177.8460  145.3190 C   0  0  0  0  0  2  0  0  0  0  0  0
  185.9130  177.2510  146.5050 C   0  0  0  0  0  2  0  0  0  0  0  0
  185.9120  178.9370  144.5670 C   0  0  0  0  0  3  0  0  0  0  0  0
  183.9080  178.7340  146.0990 C   0  0  0  0  0  2  0  0  0  0  0  0
  184.4030  178.7010  144.6460 C   0  0  0  0  0  2  0  0  0  0  0  0
  184.9620  178.2770  147.1170 C   0  0  0  0  0  2  0  0  0  0  0  0
  192.2400  175.7520  144.9630 C   0  0  0  0  0  2  0  0  0  0  0  0
  193.3630  176.4230  145.7420 C   0  0  0  0  0  2  0  0  0  0  0  0
  196.4870  174.3650  144.7260 C   0  0  0  0  0  0  0  0  0  0  0  0
  194.6920  176.1180  145.1400 C   0  0  0  0  0  0  0  0  0  0  0  0
  197.2450  175.1740  144.1250 O   0  0  0  0  0  0  0  0  0  0  0  0
  195.2090  174.7860  145.2160 N   0  0  0  0  0  2  0  0  0  0  0  0
  195.3540  177.0430  144.5980 O   0  0  0  0  0  0  0  0  0  0  0  0
  196.9150  172.9790  144.9340 C   0  0  0  0  0  0  0  0  0  0  0  0
  196.5510  172.1760  145.9950 C   0  0  0  0  0  3  0  0  0  0  0  0
  197.1870  170.9700  145.7600 C   0  0  0  0  0  3  0  0  0  0  0  0
  197.8920  171.1170  144.5780 C   0  0  0  0  0  3  0  0  0  0  0  0
  197.7040  172.3300  144.1160 O   0  0  0  0  0  0  0  0  0  0  0  0
  1  4  1  0  0  0  0
  1  3  1  0  0  0  0
  2  6  2  0  0  0  0
  3  7  1  6  0  0  0
  3  2  1  0  0  0  0
  4  5  1  0  0  0  0
  5  2  1  0  0  0  0
  5 18  1  1  0  0  0
  8  9  2  0  0  0  0
  9  7  1  0  0  0  0
  9 10  1  0  0  0  0
 10 11  1  0  0  0  0
 11 14  1  0  0  0  0
 12 13  1  0  0  0  0
 13 17  1  0  0  0  0
 14 16  1  0  0  0  0
 14 12  1  0  0  0  0
 15 17  1  0  0  0  0
 16 15  1  0  0  0  0
 18 19  1  0  0  0  0
 20 25  1  0  0  0  0
 20 23  1  0  0  0  0
 21 23  1  0  0  0  0
 21 19  1  0  0  0  0
 22 20  2  0  0  0  0
 24 21  2  0  0  0  0
 25 26  2  0  0  0  0
 27 26  1  0  0  0  0
 28 27  2  0  0  0  0
 29 28  1  0  0  0  0
 29 25  1  0  0  0  0
M  END
>  <MODEL>
9

>  <REMARK>
 VINA RESULT:      -6.3      2.889      8.323
  Name = 
  9 active torsions:
  status: ('A' for Active; 'I' for Inactive)
    1  A    between atoms: C_2  and  C_3
    2  A    between atoms: C_6  and  C_21
    3  A    between atoms: C_11  and  C_22
    4  A    between atoms: C_12  and  C_13
    5  A    between atoms: C_12  and  C_17
    6  A    between atoms: C_13  and  C_15
    7  A    between atoms: C_16  and  C_21
    8  A    between atoms: C_16  and  C_26
    9  A    between atoms: C_17  and  C_22
                            x       y       z     vdW  Elec       q    Type
                         _______ _______ _______ _____ _____    ______ ____

>  <TORSDO>
F 9

$$$$
