=
 OpenBabel11062418433D

 43 47  0  0  1  0  0  0  0  0999 V2000
  191.4260  172.0020  139.0900 C   0  0  0  0  0  3  0  0  0  0  0  0
  190.1140  173.2800  140.7930 C   0  0  0  0  0  0  0  0  0  0  0  0
  188.9430  172.8460  140.0990 C   0  0  0  0  0  0  0  0  0  0  0  0
  188.9890  172.0900  139.0430 N   0  0  0  0  0  0  0  0  0  0  0  0
  191.4340  172.8710  140.2950 C   0  0  0  0  0  0  0  0  0  0  0  0
  192.5300  173.2660  140.8690 N   0  0  0  0  0  0  0  0  0  0  0  0
  190.2600  171.6470  138.5160 C   0  0  0  0  0  3  0  0  0  0  0  0
  188.2220  174.1470  141.8410 C   0  0  2  0  0  3  0  0  0  0  0  0
  189.7330  174.0300  141.8210 C   0  0  0  0  0  0  0  0  0  0  0  0
  187.7630  173.3420  140.7020 N   0  0  0  0  0  2  0  0  0  0  0  0
  186.3120  178.6630  142.8390 C   0  0  0  0  0  2  0  0  0  0  0  0
  187.1780  177.4260  140.7150 C   0  0  0  0  0  3  0  0  0  0  0  0
  187.3120  176.3820  142.6630 C   0  0  0  0  0  0  0  0  0  0  0  0
  187.7080  176.2020  140.4740 N   0  0  0  0  0  0  0  0  0  0  0  0
  187.0330  176.1260  144.1120 C   0  0  0  0  0  2  0  0  0  0  0  0
  187.7830  175.5670  141.6660 C   0  0  0  0  0  0  0  0  0  0  0  0
  185.9030  178.1290  144.2280 C   0  0  1  0  0  3  0  0  0  0  0  0
  186.9480  177.3600  144.8050 O   0  0  0  0  0  0  0  0  0  0  0  0
  186.9110  177.5360  142.0640 C   0  0  1  0  0  3  0  0  0  0  0  0
  185.5470  179.2950  145.1350 C   0  0  0  0  0  2  0  0  0  0  0  0
  184.1390  177.8530  146.6030 O   0  0  0  0  0  0  0  0  0  0  0  0
  185.1430  178.8050  146.4830 C   0  0  0  0  0  0  0  0  0  0  0  0
  185.6840  179.2810  147.5140 O   0  0  0  0  0  1  0  0  0  0  0  0
  191.1390  176.0070  142.2930 C   0  0  0  0  0  1  0  0  0  0  0  0
  190.6380  174.6760  142.8180 C   0  0  0  0  0  2  0  0  0  0  0  0
  193.8550  172.8800  140.4060 C   0  0  0  0  0  2  0  0  0  0  0  0
  194.9200  173.5170  141.2850 C   0  0  0  0  0  2  0  0  0  0  0  0
  194.6110  174.9200  141.5390 N   0  0  0  0  0  2  0  0  0  0  0  0
  195.7760  175.5470  142.1460 C   0  0  0  0  0  2  0  0  0  0  0  0
  196.2120  174.7760  143.3820 C   0  0  0  0  0  2  0  0  0  0  0  0
  196.1250  175.5970  144.5090 O   0  0  0  0  0  0  0  0  0  0  0  0
  192.4720  177.0190  147.4920 O   0  0  0  0  0  0  0  0  0  0  0  0
  193.2160  174.3490  145.0820 C   0  0  0  0  0  2  0  0  0  0  0  0
  192.2620  176.1300  146.6210 C   0  0  0  0  0  0  0  0  0  0  0  0
  195.5780  174.7870  145.5070 C   0  0  1  0  0  3  0  0  0  0  0  0
  194.7430  175.6440  146.4410 C   0  0  0  0  0  2  0  0  0  0  0  0
  193.3630  175.3940  146.0730 N   0  0  0  0  0  0  0  0  0  0  0  0
  194.6120  173.7920  144.8690 C   0  0  0  0  0  2  0  0  0  0  0  0
  190.8630  175.8530  146.1620 C   0  0  0  0  0  3  0  0  0  0  0  0
  190.2420  177.9470  144.9390 C   0  0  0  0  0  1  0  0  0  0  0  0
  190.0430  177.1370  146.2070 C   0  0  0  0  0  2  0  0  0  0  0  0
  188.7730  175.0530  147.2880 C   0  0  0  0  0  1  0  0  0  0  0  0
  190.2420  174.7660  147.0320 C   0  0  0  0  0  2  0  0  0  0  0  0
  1  5  1  0  0  0  0
  2  9  2  0  0  0  0
  3 10  1  0  0  0  0
  3  2  1  0  0  0  0
  4  3  2  0  0  0  0
  5  2  1  0  0  0  0
  5  6  2  0  0  0  0
  7  4  1  0  0  0  0
  7  1  2  0  0  0  0
  8 16  1  6  0  0  0
  9  8  1  0  0  0  0
  9 25  1  0  0  0  0
 10  8  1  0  0  0  0
 11 17  1  0  0  0  0
 13 15  1  0  0  0  0
 14 12  2  0  0  0  0
 14 16  1  0  0  0  0
 15 18  1  0  0  0  0
 16 13  2  0  0  0  0
 17 18  1  0  0  0  0
 17 20  1  1  0  0  0
 19 12  1  1  0  0  0
 19 13  1  0  0  0  0
 19 11  1  0  0  0  0
 20 22  1  0  0  0  0
 22 21  2  0  0  0  0
 22 23  1  0  0  0  0
 24 25  1  0  0  0  0
 26  6  1  0  0  0  0
 26 27  1  0  0  0  0
 27 28  1  0  0  0  0
 28 29  1  0  0  0  0
 29 30  1  0  0  0  0
 30 31  1  0  0  0  0
 33 37  1  0  0  0  0
 34 32  2  0  0  0  0
 35 31  1  6  0  0  0
 35 36  1  0  0  0  0
 37 36  1  0  0  0  0
 37 34  1  0  0  0  0
 38 33  1  0  0  0  0
 38 35  1  0  0  0  0
 39 41  1  0  0  0  0
 39 34  1  0  0  0  0
 39 43  1  0  0  0  0
 40 41  1  0  0  0  0
 43 42  1  0  0  0  0
M  END
>  <MODEL>
1

>  <REMARK>
 VINA RESULT:      -6.4      0.000      0.000
  Name = 
  14 active torsions:
  status: ('A' for Active; 'I' for Inactive)
    1  A    between atoms: C_1  and  N_29
    2  A    between atoms: C_1  and  C_30
    3  A    between atoms: C_3  and  C_12
    4  A    between atoms: C_5  and  C_38
    5  A    between atoms: C_12  and  C_22
    6  A    between atoms: C_15  and  C_40
    7  A    between atoms: C_19  and  C_36
    8  A    between atoms: C_21  and  C_38
    9  A    between atoms: C_26  and  C_38
   10  A    between atoms: C_28  and  N_31
   11  A    between atoms: C_28  and  C_32
   12  A    between atoms: C_30  and  N_31
   13  A    between atoms: C_32  and  O_41
   14  A    between atoms: C_33  and  O_41
                            x       y       z     vdW  Elec       q    Type
                         _______ _______ _______ _____ _____    ______ ____

>  <TORSDO>
F 14

$$$$
=
 OpenBabel11062418433D

 43 47  0  0  1  0  0  0  0  0999 V2000
  194.6820  172.7540  144.1410 C   0  0  0  0  0  3  0  0  0  0  0  0
  192.5770  173.9180  144.8260 C   0  0  0  0  0  0  0  0  0  0  0  0
  191.9060  172.6820  144.5740 C   0  0  0  0  0  0  0  0  0  0  0  0
  192.5230  171.6170  144.1620 N   0  0  0  0  0  0  0  0  0  0  0  0
  194.0270  174.0040  144.6050 C   0  0  0  0  0  0  0  0  0  0  0  0
  194.6780  175.1120  144.7870 N   0  0  0  0  0  0  0  0  0  0  0  0
  193.9520  171.6390  143.9380 C   0  0  0  0  0  3  0  0  0  0  0  0
  190.2990  174.1690  145.2510 C   0  0  2  0  0  3  0  0  0  0  0  0
  191.6760  174.8040  145.2340 C   0  0  0  0  0  0  0  0  0  0  0  0
  190.5170  172.7810  144.8240 N   0  0  0  0  0  2  0  0  0  0  0  0
  186.8380  177.2970  143.4410 C   0  0  0  0  0  2  0  0  0  0  0  0
  188.1480  175.2320  142.5390 C   0  0  0  0  0  3  0  0  0  0  0  0
  188.6110  175.9580  144.5790 C   0  0  0  0  0  0  0  0  0  0  0  0
  189.0960  174.4070  143.0480 N   0  0  0  0  0  0  0  0  0  0  0  0
  188.4140  176.7340  145.8450 C   0  0  0  0  0  2  0  0  0  0  0  0
  189.3720  174.8530  144.2950 C   0  0  0  0  0  0  0  0  0  0  0  0
  186.6230  177.8120  144.8800 C   0  0  1  0  0  3  0  0  0  0  0  0
  187.8640  178.0050  145.5420 O   0  0  0  0  0  0  0  0  0  0  0  0
  187.8280  176.1800  143.4900 C   0  0  1  0  0  3  0  0  0  0  0  0
  185.8420  179.1150  144.8390 C   0  0  0  0  0  2  0  0  0  0  0  0
  183.6950  178.7880  143.6130 O   0  0  0  0  0  0  0  0  0  0  0  0
  184.3770  178.8460  144.8220 C   0  0  0  0  0  0  0  0  0  0  0  0
  183.7490  178.7110  145.9040 O   0  0  0  0  0  1  0  0  0  0  0  0
  192.0240  176.3530  147.1290 C   0  0  0  0  0  1  0  0  0  0  0  0
  191.9510  176.2210  145.6200 C   0  0  0  0  0  2  0  0  0  0  0  0
  196.1150  175.2350  144.5790 C   0  0  0  0  0  2  0  0  0  0  0  0
  196.4070  176.3870  143.6300 C   0  0  0  0  0  2  0  0  0  0  0  0
  197.5340  176.0690  142.7610 N   0  0  0  0  0  2  0  0  0  0  0  0
  197.2070  174.8720  142.0000 C   0  0  0  0  0  2  0  0  0  0  0  0
  196.4470  175.2370  140.7350 C   0  0  0  0  0  2  0  0  0  0  0  0
  195.3940  174.3400  140.5370 O   0  0  0  0  0  0  0  0  0  0  0  0
  191.5750  172.7750  137.8490 O   0  0  0  0  0  0  0  0  0  0  0  0
  192.2400  174.2190  141.1600 C   0  0  0  0  0  2  0  0  0  0  0  0
  191.4210  173.0170  139.0780 C   0  0  0  0  0  0  0  0  0  0  0  0
  194.2930  175.1380  140.2150 C   0  0  1  0  0  3  0  0  0  0  0  0
  193.5000  174.4660  139.1090 C   0  0  0  0  0  2  0  0  0  0  0  0
  192.3460  173.8750  139.7570 N   0  0  0  0  0  0  0  0  0  0  0  0
  193.3590  175.2110  141.4200 C   0  0  0  0  0  2  0  0  0  0  0  0
  190.2740  172.4010  139.8200 C   0  0  0  0  0  3  0  0  0  0  0  0
  190.5560  170.5860  141.5200 C   0  0  0  0  0  1  0  0  0  0  0  0
  190.5410  170.9170  140.0390 C   0  0  0  0  0  2  0  0  0  0  0  0
  188.5990  174.0940  139.0430 C   0  0  0  0  0  1  0  0  0  0  0  0
  188.9800  172.6250  139.0460 C   0  0  0  0  0  2  0  0  0  0  0  0
  1  5  1  0  0  0  0
  2  9  2  0  0  0  0
  3 10  1  0  0  0  0
  3  2  1  0  0  0  0
  4  3  2  0  0  0  0
  5  6  2  0  0  0  0
  5  2  1  0  0  0  0
  7  1  2  0  0  0  0
  7  4  1  0  0  0  0
  8 16  1  6  0  0  0
  9  8  1  0  0  0  0
  9 25  1  0  0  0  0
 10  8  1  0  0  0  0
 11 19  1  0  0  0  0
 11 17  1  0  0  0  0
 12 14  2  0  0  0  0
 13 15  1  0  0  0  0
 14 16  1  0  0  0  0
 16 13  2  0  0  0  0
 17 20  1  6  0  0  0
 17 18  1  0  0  0  0
 18 15  1  0  0  0  0
 19 12  1  6  0  0  0
 19 13  1  0  0  0  0
 21 22  2  0  0  0  0
 22 20  1  0  0  0  0
 22 23  1  0  0  0  0
 25 24  1  0  0  0  0
 26  6  1  0  0  0  0
 27 26  1  0  0  0  0
 28 27  1  0  0  0  0
 29 28  1  0  0  0  0
 30 29  1  0  0  0  0
 31 30  1  0  0  0  0
 32 34  2  0  0  0  0
 33 38  1  0  0  0  0
 34 37  1  0  0  0  0
 34 39  1  0  0  0  0
 35 31  1  1  0  0  0
 35 38  1  0  0  0  0
 36 37  1  0  0  0  0
 36 35  1  0  0  0  0
 37 33  1  0  0  0  0
 39 41  1  0  0  0  0
 41 40  1  0  0  0  0
 42 43  1  0  0  0  0
 43 39  1  0  0  0  0
M  END
>  <MODEL>
2

>  <REMARK>
 VINA RESULT:      -6.3      2.359      5.156
  Name = 
  14 active torsions:
  status: ('A' for Active; 'I' for Inactive)
    1  A    between atoms: C_1  and  N_29
    2  A    between atoms: C_1  and  C_30
    3  A    between atoms: C_3  and  C_12
    4  A    between atoms: C_5  and  C_38
    5  A    between atoms: C_12  and  C_22
    6  A    between atoms: C_15  and  C_40
    7  A    between atoms: C_19  and  C_36
    8  A    between atoms: C_21  and  C_38
    9  A    between atoms: C_26  and  C_38
   10  A    between atoms: C_28  and  N_31
   11  A    between atoms: C_28  and  C_32
   12  A    between atoms: C_30  and  N_31
   13  A    between atoms: C_32  and  O_41
   14  A    between atoms: C_33  and  O_41
                            x       y       z     vdW  Elec       q    Type
                         _______ _______ _______ _____ _____    ______ ____

>  <TORSDO>
F 14

$$$$
=
 OpenBabel11062418433D

 43 47  0  0  1  0  0  0  0  0999 V2000
  184.9420  178.6810  142.5860 C   0  0  0  0  0  3  0  0  0  0  0  0
  187.0510  177.3640  142.3190 C   0  0  0  0  0  0  0  0  0  0  0  0
  186.6080  177.0740  140.9920 C   0  0  0  0  0  0  0  0  0  0  0  0
  185.4870  177.5200  140.5110 N   0  0  0  0  0  0  0  0  0  0  0  0
  186.2080  178.1930  143.1910 C   0  0  0  0  0  0  0  0  0  0  0  0
  186.5490  178.4570  144.4150 N   0  0  0  0  0  0  0  0  0  0  0  0
  184.6220  178.3500  141.3190 C   0  0  0  0  0  3  0  0  0  0  0  0
  188.6180  176.0060  141.2540 C   0  0  2  0  0  3  0  0  0  0  0  0
  188.2240  176.7700  142.5030 C   0  0  0  0  0  0  0  0  0  0  0  0
  187.5300  176.2550  140.2990 N   0  0  0  0  0  2  0  0  0  0  0  0
  190.3640  171.3170  141.2580 C   0  0  0  0  0  2  0  0  0  0  0  0
  188.1780  172.5000  142.0420 C   0  0  0  0  0  3  0  0  0  0  0  0
  189.8010  173.7480  141.2000 C   0  0  0  0  0  0  0  0  0  0  0  0
  187.7340  173.7810  142.0430 N   0  0  0  0  0  2  0  0  0  0  0  0
  191.0730  174.0470  140.4680 C   0  0  0  0  0  2  0  0  0  0  0  0
  188.7280  174.5380  141.5240 C   0  0  0  0  0  0  0  0  0  0  0  0
  191.4880  171.7870  140.3100 C   0  0  1  0  0  3  0  0  0  0  0  0
  192.0250  173.0310  140.7360 O   0  0  0  0  0  0  0  0  0  0  0  0
  189.4470  172.4710  141.5020 C   0  0  0  0  0  0  0  0  0  0  0  0
  192.5820  170.7330  140.2600 C   0  0  0  0  0  2  0  0  0  0  0  0
  191.5170  169.7070  138.2520 O   0  0  0  0  0  0  0  0  0  0  0  0
  192.1250  169.5430  139.4900 C   0  0  0  0  0  0  0  0  0  0  0  0
  192.2540  168.3900  139.9780 O   0  0  0  0  0  1  0  0  0  0  0  0
  190.1880  177.8130  143.5820 C   0  0  0  0  0  1  0  0  0  0  0  0
  189.0500  176.8250  143.7470 C   0  0  0  0  0  2  0  0  0  0  0  0
  185.7400  179.2760  145.3080 C   0  0  0  0  0  2  0  0  0  0  0  0
  185.0520  178.3960  146.3400 C   0  0  0  0  0  2  0  0  0  0  0  0
  185.6270  177.0550  146.3430 N   0  0  0  0  0  2  0  0  0  0  0  0
  186.6310  176.9860  147.3950 C   0  0  0  0  0  2  0  0  0  0  0  0
  187.7770  176.0780  146.9770 C   0  0  0  0  0  2  0  0  0  0  0  0
  188.9880  176.7670  147.0720 O   0  0  0  0  0  0  0  0  0  0  0  0
  191.4390  173.7050  144.0920 O   0  0  0  0  0  0  0  0  0  0  0  0
  192.1350  176.2710  146.6260 C   0  0  0  0  0  2  0  0  0  0  0  0
  192.0570  174.6270  144.6910 C   0  0  0  0  0  0  0  0  0  0  0  0
  189.9110  175.8190  147.5220 C   0  0  1  0  0  3  0  0  0  0  0  0
  190.1990  174.8360  146.4020 C   0  0  0  0  0  2  0  0  0  0  0  0
  191.4910  175.2180  145.8680 N   0  0  0  0  0  0  0  0  0  0  0  0
  191.2350  176.5160  147.8230 C   0  0  0  0  0  2  0  0  0  0  0  0
  193.3770  175.1020  144.1650 C   0  0  0  0  0  3  0  0  0  0  0  0
  194.4900  175.8420  142.0480 C   0  0  0  0  0  1  0  0  0  0  0  0
  193.1800  175.7760  142.8120 C   0  0  0  0  0  2  0  0  0  0  0  0
  194.6890  173.3940  145.4440 C   0  0  0  0  0  1  0  0  0  0  0  0
  194.3450  173.9290  144.0660 C   0  0  0  0  0  2  0  0  0  0  0  0
  1  5  1  0  0  0  0
  2  9  2  0  0  0  0
  2  5  1  0  0  0  0
  3  2  1  0  0  0  0
  4  3  2  0  0  0  0
  4  7  1  0  0  0  0
  5  6  2  0  0  0  0
  6 26  1  0  0  0  0
  7  1  2  0  0  0  0
  8 16  1  1  0  0  0
  8  9  1  0  0  0  0
  9 25  1  0  0  0  0
 10  3  1  0  0  0  0
 10  8  1  0  0  0  0
 11 19  1  0  0  0  0
 12 14  1  0  0  0  0
 13 19  1  0  0  0  0
 13 16  2  0  0  0  0
 15 18  1  0  0  0  0
 15 13  1  0  0  0  0
 16 14  1  0  0  0  0
 17 20  1  1  0  0  0
 17 18  1  0  0  0  0
 17 11  1  0  0  0  0
 19 12  2  0  0  0  0
 21 22  2  0  0  0  0
 22 23  1  0  0  0  0
 22 20  1  0  0  0  0
 24 25  1  0  0  0  0
 26 27  1  0  0  0  0
 27 28  1  0  0  0  0
 28 29  1  0  0  0  0
 30 31  1  0  0  0  0
 30 29  1  0  0  0  0
 32 34  2  0  0  0  0
 33 38  1  0  0  0  0
 34 37  1  0  0  0  0
 35 31  1  6  0  0  0
 35 38  1  0  0  0  0
 36 35  1  0  0  0  0
 37 36  1  0  0  0  0
 37 33  1  0  0  0  0
 39 34  1  0  0  0  0
 40 41  1  0  0  0  0
 41 39  1  0  0  0  0
 43 39  1  0  0  0  0
 43 42  1  0  0  0  0
M  END
>  <MODEL>
3

>  <REMARK>
 VINA RESULT:      -6.3      3.013      7.529
  Name = 
  14 active torsions:
  status: ('A' for Active; 'I' for Inactive)
    1  A    between atoms: C_1  and  N_29
    2  A    between atoms: C_1  and  C_30
    3  A    between atoms: C_3  and  C_12
    4  A    between atoms: C_5  and  C_38
    5  A    between atoms: C_12  and  C_22
    6  A    between atoms: C_15  and  C_40
    7  A    between atoms: C_19  and  C_36
    8  A    between atoms: C_21  and  C_38
    9  A    between atoms: C_26  and  C_38
   10  A    between atoms: C_28  and  N_31
   11  A    between atoms: C_28  and  C_32
   12  A    between atoms: C_30  and  N_31
   13  A    between atoms: C_32  and  O_41
   14  A    between atoms: C_33  and  O_41
                            x       y       z     vdW  Elec       q    Type
                         _______ _______ _______ _____ _____    ______ ____

>  <TORSDO>
F 14

$$$$
=
 OpenBabel11062418433D

 43 47  0  0  1  0  0  0  0  0999 V2000
  195.7600  173.9160  144.1940 C   0  0  0  0  0  3  0  0  0  0  0  0
  193.7140  175.3180  144.5210 C   0  0  0  0  0  0  0  0  0  0  0  0
  194.1510  175.4990  145.8700 C   0  0  0  0  0  0  0  0  0  0  0  0
  195.2420  174.9690  146.3340 N   0  0  0  0  0  0  0  0  0  0  0  0
  194.5200  174.4910  143.6120 C   0  0  0  0  0  0  0  0  0  0  0  0
  194.1500  174.2680  142.3880 N   0  0  0  0  0  0  0  0  0  0  0  0
  196.0800  174.1550  145.4820 C   0  0  0  0  0  3  0  0  0  0  0  0
  192.1800  176.6490  145.6640 C   0  0  2  0  0  3  0  0  0  0  0  0
  192.5770  175.9840  144.3600 C   0  0  0  0  0  0  0  0  0  0  0  0
  193.2540  176.3070  146.6060 N   0  0  0  0  0  2  0  0  0  0  0  0
  187.2860  176.2770  146.6370 C   0  0  0  0  0  2  0  0  0  0  0  0
  189.4350  174.9780  147.3320 C   0  0  0  0  0  3  0  0  0  0  0  0
  189.6420  176.6560  145.9030 C   0  0  0  0  0  0  0  0  0  0  0  0
  190.7550  175.0900  147.0410 N   0  0  0  0  0  2  0  0  0  0  0  0
  189.2310  177.8810  145.1460 C   0  0  0  0  0  2  0  0  0  0  0  0
  190.8750  176.1190  146.1710 C   0  0  0  0  0  0  0  0  0  0  0  0
  187.1050  177.6740  146.0060 C   0  0  1  0  0  3  0  0  0  0  0  0
  187.8570  177.7910  144.8070 O   0  0  0  0  0  0  0  0  0  0  0  0
  188.7450  175.9570  146.6480 C   0  0  0  0  0  0  0  0  0  0  0  0
  185.6310  177.9150  145.7260 C   0  0  0  0  0  2  0  0  0  0  0  0
  185.5500  179.8100  144.1060 O   0  0  0  0  0  1  0  0  0  0  0  0
  185.4410  178.4470  144.3470 C   0  0  0  0  0  0  0  0  0  0  0  0
  185.1440  177.6650  143.4060 O   0  0  0  0  0  0  0  0  0  0  0  0
  191.5390  177.5260  142.7310 C   0  0  0  0  0  1  0  0  0  0  0  0
  191.7840  176.0750  143.0980 C   0  0  0  0  0  2  0  0  0  0  0  0
  194.9220  173.4550  141.4580 C   0  0  0  0  0  2  0  0  0  0  0  0
  195.1260  174.2090  140.1530 C   0  0  0  0  0  2  0  0  0  0  0  0
  195.4640  173.2900  139.0720 N   0  0  0  0  0  2  0  0  0  0  0  0
  194.9490  173.8360  137.8240 C   0  0  0  0  0  2  0  0  0  0  0  0
  193.7460  173.0370  137.3500 C   0  0  0  0  0  2  0  0  0  0  0  0
  193.4240  172.0590  138.2940 O   0  0  0  0  0  0  0  0  0  0  0  0
  190.7690  170.7290  142.2240 O   0  0  0  0  0  0  0  0  0  0  0  0
  191.1190  173.5830  139.9400 C   0  0  0  0  0  2  0  0  0  0  0  0
  190.7510  171.9270  141.8300 C   0  0  0  0  0  0  0  0  0  0  0  0
  192.0280  172.0140  138.3080 C   0  0  1  0  0  3  0  0  0  0  0  0
  191.5680  171.2410  139.5320 C   0  0  0  0  0  2  0  0  0  0  0  0
  191.1230  172.2410  140.4820 N   0  0  0  0  0  0  0  0  0  0  0  0
  191.4840  173.4300  138.4750 C   0  0  0  0  0  2  0  0  0  0  0  0
  190.3450  173.0160  142.7760 C   0  0  0  0  0  3  0  0  0  0  0  0
  189.6200  172.1760  145.0200 C   0  0  0  0  0  1  0  0  0  0  0  0
  190.7940  172.6630  144.1900 C   0  0  0  0  0  2  0  0  0  0  0  0
  188.4930  174.7000  142.6960 C   0  0  0  0  0  1  0  0  0  0  0  0
  188.8360  173.2220  142.7070 C   0  0  0  0  0  2  0  0  0  0  0  0
  1  7  2  0  0  0  0
  2  3  1  0  0  0  0
  3  4  2  0  0  0  0
  3 10  1  0  0  0  0
  5  1  1  0  0  0  0
  5  2  1  0  0  0  0
  6  5  2  0  0  0  0
  7  4  1  0  0  0  0
  8 16  1  1  0  0  0
  8 10  1  0  0  0  0
  9  2  2  0  0  0  0
  9  8  1  0  0  0  0
 11 19  1  0  0  0  0
 13 16  2  0  0  0  0
 13 19  1  0  0  0  0
 14 12  1  0  0  0  0
 15 13  1  0  0  0  0
 16 14  1  0  0  0  0
 17 20  1  6  0  0  0
 17 11  1  0  0  0  0
 18 15  1  0  0  0  0
 18 17  1  0  0  0  0
 19 12  2  0  0  0  0
 21 22  1  0  0  0  0
 22 20  1  0  0  0  0
 23 22  2  0  0  0  0
 24 25  1  0  0  0  0
 25  9  1  0  0  0  0
 26  6  1  0  0  0  0
 27 26  1  0  0  0  0
 28 27  1  0  0  0  0
 29 28  1  0  0  0  0
 30 29  1  0  0  0  0
 30 31  1  0  0  0  0
 33 37  1  0  0  0  0
 34 32  2  0  0  0  0
 34 39  1  0  0  0  0
 35 31  1  1  0  0  0
 35 38  1  0  0  0  0
 35 36  1  0  0  0  0
 36 37  1  0  0  0  0
 37 34  1  0  0  0  0
 38 33  1  0  0  0  0
 39 41  1  0  0  0  0
 41 40  1  0  0  0  0
 42 43  1  0  0  0  0
 43 39  1  0  0  0  0
M  END
>  <MODEL>
4

>  <REMARK>
 VINA RESULT:      -6.2      2.362      5.726
  Name = 
  14 active torsions:
  status: ('A' for Active; 'I' for Inactive)
    1  A    between atoms: C_1  and  N_29
    2  A    between atoms: C_1  and  C_30
    3  A    between atoms: C_3  and  C_12
    4  A    between atoms: C_5  and  C_38
    5  A    between atoms: C_12  and  C_22
    6  A    between atoms: C_15  and  C_40
    7  A    between atoms: C_19  and  C_36
    8  A    between atoms: C_21  and  C_38
    9  A    between atoms: C_26  and  C_38
   10  A    between atoms: C_28  and  N_31
   11  A    between atoms: C_28  and  C_32
   12  A    between atoms: C_30  and  N_31
   13  A    between atoms: C_32  and  O_41
   14  A    between atoms: C_33  and  O_41
                            x       y       z     vdW  Elec       q    Type
                         _______ _______ _______ _____ _____    ______ ____

>  <TORSDO>
F 14

$$$$
=
 OpenBabel11062418433D

 43 47  0  0  1  0  0  0  0  0999 V2000
  190.7720  172.3110  142.0630 C   0  0  0  0  0  3  0  0  0  0  0  0
  190.7090  174.1440  143.7630 C   0  0  0  0  0  0  0  0  0  0  0  0
  189.9430  173.2540  144.5780 C   0  0  0  0  0  0  0  0  0  0  0  0
  189.6270  172.0520  144.2020 N   0  0  0  0  0  0  0  0  0  0  0  0
  191.1560  173.6960  142.4370 C   0  0  0  0  0  0  0  0  0  0  0  0
  191.8250  174.4780  141.6450 N   0  0  0  0  0  0  0  0  0  0  0  0
  190.0500  171.5530  142.9120 C   0  0  0  0  0  3  0  0  0  0  0  0
  190.1540  175.2020  145.7640 C   0  0  2  0  0  3  0  0  0  0  0  0
  190.8630  175.2840  144.4260 C   0  0  0  0  0  0  0  0  0  0  0  0
  189.5860  173.8490  145.8100 N   0  0  0  0  0  2  0  0  0  0  0  0
  186.1960  178.0170  144.5600 C   0  0  0  0  0  2  0  0  0  0  0  0
  187.9020  177.9320  146.5290 C   0  0  0  0  0  3  0  0  0  0  0  0
  188.0620  176.4020  144.9370 C   0  0  0  0  0  0  0  0  0  0  0  0
  188.9610  177.1450  146.8400 N   0  0  0  0  0  2  0  0  0  0  0  0
  187.8060  175.7640  143.6060 C   0  0  0  0  0  2  0  0  0  0  0  0
  189.0570  176.2150  145.8620 C   0  0  0  0  0  0  0  0  0  0  0  0
  186.2430  177.3920  143.1500 C   0  0  1  0  0  3  0  0  0  0  0  0
  186.4610  175.9910  143.2210 O   0  0  0  0  0  0  0  0  0  0  0  0
  187.3540  177.4900  145.3420 C   0  0  0  0  0  0  0  0  0  0  0  0
  184.9410  177.6840  142.4230 C   0  0  0  0  0  2  0  0  0  0  0  0
  186.4250  177.7230  140.4190 O   0  0  0  0  0  1  0  0  0  0  0  0
  185.2050  178.0420  141.0010 C   0  0  0  0  0  0  0  0  0  0  0  0
  184.3380  178.6700  140.3390 O   0  0  0  0  0  0  0  0  0  0  0  0
  192.8110  176.7500  144.8370 C   0  0  0  0  0  1  0  0  0  0  0  0
  191.6130  176.4840  143.9460 C   0  0  0  0  0  2  0  0  0  0  0  0
  192.2850  174.0690  140.3250 C   0  0  0  0  0  2  0  0  0  0  0  0
  193.7770  173.7740  140.3620 C   0  0  0  0  0  2  0  0  0  0  0  0
  194.5420  175.0010  140.5560 N   0  0  0  0  0  2  0  0  0  0  0  0
  195.5490  175.0880  139.5080 C   0  0  0  0  0  2  0  0  0  0  0  0
  196.8370  175.6810  140.0560 C   0  0  0  0  0  2  0  0  0  0  0  0
  196.5740  176.3770  141.2390 O   0  0  0  0  0  0  0  0  0  0  0  0
  195.5790  174.8610  145.8190 O   0  0  0  0  0  0  0  0  0  0  0  0
  197.1860  173.6110  142.7620 C   0  0  0  0  0  2  0  0  0  0  0  0
  195.9740  174.0310  144.9540 C   0  0  0  0  0  0  0  0  0  0  0  0
  197.5470  175.9420  142.1410 C   0  0  1  0  0  3  0  0  0  0  0  0
  196.9470  175.8910  143.5340 C   0  0  0  0  0  2  0  0  0  0  0  0
  196.6840  174.4900  143.7960 N   0  0  0  0  0  0  0  0  0  0  0  0
  197.9410  174.5080  141.7980 C   0  0  0  0  0  2  0  0  0  0  0  0
  195.6950  172.5710  145.1410 C   0  0  0  0  0  3  0  0  0  0  0  0
  193.4240  171.6320  144.6670 C   0  0  0  0  0  1  0  0  0  0  0  0
  194.2780  172.3820  145.6710 C   0  0  0  0  0  2  0  0  0  0  0  0
  196.7260  170.4510  145.9880 C   0  0  0  0  0  1  0  0  0  0  0  0
  196.7270  171.9660  146.0850 C   0  0  0  0  0  2  0  0  0  0  0  0
  1  5  1  0  0  0  0
  1  7  2  0  0  0  0
  2  9  2  0  0  0  0
  2  3  1  0  0  0  0
  3 10  1  0  0  0  0
  4  3  2  0  0  0  0
  5  2  1  0  0  0  0
  6  5  2  0  0  0  0
  7  4  1  0  0  0  0
  8 10  1  0  0  0  0
  8 16  1  6  0  0  0
  9  8  1  0  0  0  0
 11 19  1  0  0  0  0
 12 14  1  0  0  0  0
 13 19  1  0  0  0  0
 13 16  2  0  0  0  0
 15 13  1  0  0  0  0
 16 14  1  0  0  0  0
 17 20  1  1  0  0  0
 17 18  1  0  0  0  0
 17 11  1  0  0  0  0
 18 15  1  0  0  0  0
 19 12  2  0  0  0  0
 21 22  1  0  0  0  0
 22 20  1  0  0  0  0
 23 22  2  0  0  0  0
 25  9  1  0  0  0  0
 25 24  1  0  0  0  0
 26 27  1  0  0  0  0
 26  6  1  0  0  0  0
 27 28  1  0  0  0  0
 29 30  1  0  0  0  0
 29 28  1  0  0  0  0
 30 31  1  0  0  0  0
 33 37  1  0  0  0  0
 34 39  1  0  0  0  0
 34 32  2  0  0  0  0
 35 31  1  6  0  0  0
 35 36  1  0  0  0  0
 36 37  1  0  0  0  0
 37 34  1  0  0  0  0
 38 35  1  0  0  0  0
 38 33  1  0  0  0  0
 39 41  1  0  0  0  0
 39 43  1  0  0  0  0
 40 41  1  0  0  0  0
 42 43  1  0  0  0  0
M  END
>  <MODEL>
5

>  <REMARK>
 VINA RESULT:      -6.1      2.464      4.475
  Name = 
  14 active torsions:
  status: ('A' for Active; 'I' for Inactive)
    1  A    between atoms: C_1  and  N_29
    2  A    between atoms: C_1  and  C_30
    3  A    between atoms: C_3  and  C_12
    4  A    between atoms: C_5  and  C_38
    5  A    between atoms: C_12  and  C_22
    6  A    between atoms: C_15  and  C_40
    7  A    between atoms: C_19  and  C_36
    8  A    between atoms: C_21  and  C_38
    9  A    between atoms: C_26  and  C_38
   10  A    between atoms: C_28  and  N_31
   11  A    between atoms: C_28  and  C_32
   12  A    between atoms: C_30  and  N_31
   13  A    between atoms: C_32  and  O_41
   14  A    between atoms: C_33  and  O_41
                            x       y       z     vdW  Elec       q    Type
                         _______ _______ _______ _____ _____    ______ ____

>  <TORSDO>
F 14

$$$$
=
 OpenBabel11062418433D

 43 47  0  0  1  0  0  0  0  0999 V2000
  190.5930  175.2160  147.3240 C   0  0  0  0  0  3  0  0  0  0  0  0
  189.6920  176.7930  145.6050 C   0  0  0  0  0  0  0  0  0  0  0  0
  188.3900  176.3670  146.0110 C   0  0  0  0  0  0  0  0  0  0  0  0
  188.1980  175.4870  146.9470 N   0  0  0  0  0  0  0  0  0  0  0  0
  190.8730  176.2120  146.2580 C   0  0  0  0  0  0  0  0  0  0  0  0
  192.0770  176.5400  145.9020 N   0  0  0  0  0  0  0  0  0  0  0  0
  189.3220  174.8890  147.6320 C   0  0  0  0  0  3  0  0  0  0  0  0
  188.0790  177.8970  144.3350 C   0  0  2  0  0  3  0  0  0  0  0  0
  189.5510  177.6940  144.6390 C   0  0  0  0  0  0  0  0  0  0  0  0
  187.3730  177.0140  145.2720 N   0  0  0  0  0  2  0  0  0  0  0  0
  187.8020  175.2170  140.1180 C   0  0  0  0  0  2  0  0  0  0  0  0
  187.2080  177.6530  140.8290 C   0  0  0  0  0  3  0  0  0  0  0  0
  187.9780  176.2690  142.3750 C   0  0  0  0  0  0  0  0  0  0  0  0
  187.2790  178.3530  141.9880 N   0  0  0  0  0  2  0  0  0  0  0  0
  188.6310  175.0360  142.9210 C   0  0  0  0  0  2  0  0  0  0  0  0
  187.7540  177.5040  142.9280 C   0  0  0  0  0  0  0  0  0  0  0  0
  188.6860  174.1500  140.7960 C   0  0  1  0  0  3  0  0  0  0  0  0
  188.2650  173.9160  142.1320 O   0  0  0  0  0  0  0  0  0  0  0  0
  187.6590  176.3700  141.0570 C   0  0  0  0  0  0  0  0  0  0  0  0
  188.6270  172.8600  139.9950 C   0  0  0  0  0  2  0  0  0  0  0  0
  190.6320  172.9070  138.5140 O   0  0  0  0  0  1  0  0  0  0  0  0
  189.2580  173.0460  138.6580 C   0  0  0  0  0  0  0  0  0  0  0  0
  188.5520  173.3680  137.6680 O   0  0  0  0  0  0  0  0  0  0  0  0
  191.2410  177.5370  142.8420 C   0  0  0  0  0  1  0  0  0  0  0  0
  190.6580  178.4090  143.9380 C   0  0  0  0  0  2  0  0  0  0  0  0
  193.2710  175.9860  146.5260 C   0  0  0  0  0  2  0  0  0  0  0  0
  194.2200  175.4610  145.4600 C   0  0  0  0  0  2  0  0  0  0  0  0
  194.3360  176.4090  144.3580 N   0  0  0  0  0  2  0  0  0  0  0  0
  195.7490  176.6590  144.1100 C   0  0  0  0  0  2  0  0  0  0  0  0
  196.2600  175.7590  142.9970 C   0  0  0  0  0  2  0  0  0  0  0  0
  196.8470  174.6140  143.5430 O   0  0  0  0  0  0  0  0  0  0  0  0
  193.4800  171.1960  144.6570 O   0  0  0  0  0  0  0  0  0  0  0  0
  194.1260  173.7270  142.0750 C   0  0  0  0  0  2  0  0  0  0  0  0
  193.2340  172.0520  143.7630 C   0  0  0  0  0  0  0  0  0  0  0  0
  196.4830  173.5750  142.6840 C   0  0  1  0  0  3  0  0  0  0  0  0
  195.7040  172.5320  143.4660 C   0  0  0  0  0  2  0  0  0  0  0  0
  194.3130  172.7400  143.1180 N   0  0  0  0  0  0  0  0  0  0  0  0
  195.5230  174.1130  141.6260 C   0  0  0  0  0  2  0  0  0  0  0  0
  191.8140  172.3490  143.3870 C   0  0  0  0  0  3  0  0  0  0  0  0
  189.8060  172.2800  144.8800 C   0  0  0  0  0  1  0  0  0  0  0  0
  191.0980  173.0090  144.5600 C   0  0  0  0  0  2  0  0  0  0  0  0
  191.2070  170.8690  141.4590 C   0  0  0  0  0  1  0  0  0  0  0  0
  191.1150  171.0630  142.9610 C   0  0  0  0  0  2  0  0  0  0  0  0
  1  7  2  0  0  0  0
  2  3  1  0  0  0  0
  2  5  1  0  0  0  0
  3  4  2  0  0  0  0
  4  7  1  0  0  0  0
  5  1  1  0  0  0  0
  6  5  2  0  0  0  0
  6 26  1  0  0  0  0
  8 16  1  6  0  0  0
  8  9  1  0  0  0  0
  8 10  1  0  0  0  0
  9  2  2  0  0  0  0
 10  3  1  0  0  0  0
 11 17  1  0  0  0  0
 11 19  1  0  0  0  0
 12 19  2  0  0  0  0
 12 14  1  0  0  0  0
 13 15  1  0  0  0  0
 13 16  2  0  0  0  0
 14 16  1  0  0  0  0
 17 20  1  6  0  0  0
 17 18  1  0  0  0  0
 18 15  1  0  0  0  0
 19 13  1  0  0  0  0
 21 22  1  0  0  0  0
 22 20  1  0  0  0  0
 23 22  2  0  0  0  0
 24 25  1  0  0  0  0
 25  9  1  0  0  0  0
 27 26  1  0  0  0  0
 28 27  1  0  0  0  0
 29 28  1  0  0  0  0
 30 31  1  0  0  0  0
 30 29  1  0  0  0  0
 33 37  1  0  0  0  0
 34 32  2  0  0  0  0
 35 36  1  0  0  0  0
 35 31  1  1  0  0  0
 37 36  1  0  0  0  0
 37 34  1  0  0  0  0
 38 33  1  0  0  0  0
 38 35  1  0  0  0  0
 39 34  1  0  0  0  0
 39 41  1  0  0  0  0
 41 40  1  0  0  0  0
 42 43  1  0  0  0  0
 43 39  1  0  0  0  0
M  END
>  <MODEL>
6

>  <REMARK>
 VINA RESULT:      -6.0      2.909      5.818
  Name = 
  14 active torsions:
  status: ('A' for Active; 'I' for Inactive)
    1  A    between atoms: C_1  and  N_29
    2  A    between atoms: C_1  and  C_30
    3  A    between atoms: C_3  and  C_12
    4  A    between atoms: C_5  and  C_38
    5  A    between atoms: C_12  and  C_22
    6  A    between atoms: C_15  and  C_40
    7  A    between atoms: C_19  and  C_36
    8  A    between atoms: C_21  and  C_38
    9  A    between atoms: C_26  and  C_38
   10  A    between atoms: C_28  and  N_31
   11  A    between atoms: C_28  and  C_32
   12  A    between atoms: C_30  and  N_31
   13  A    between atoms: C_32  and  O_41
   14  A    between atoms: C_33  and  O_41
                            x       y       z     vdW  Elec       q    Type
                         _______ _______ _______ _____ _____    ______ ____

>  <TORSDO>
F 14

$$$$
=
 OpenBabel11062418433D

 43 47  0  0  1  0  0  0  0  0999 V2000
  195.1610  173.8670  145.4300 C   0  0  0  0  0  3  0  0  0  0  0  0
  192.7230  174.0230  144.8970 C   0  0  0  0  0  0  0  0  0  0  0  0
  192.9140  175.4370  144.8110 C   0  0  0  0  0  0  0  0  0  0  0  0
  194.0660  176.0050  145.0040 N   0  0  0  0  0  0  0  0  0  0  0  0
  193.8680  173.1640  145.2270 C   0  0  0  0  0  0  0  0  0  0  0  0
  193.7400  171.8780  145.3510 N   0  0  0  0  0  0  0  0  0  0  0  0
  195.2310  175.2080  145.3210 C   0  0  0  0  0  3  0  0  0  0  0  0
  190.6940  175.0540  144.3920 C   0  0  2  0  0  3  0  0  0  0  0  0
  191.4450  173.7610  144.6470 C   0  0  0  0  0  0  0  0  0  0  0  0
  191.7090  176.1100  144.5000 N   0  0  0  0  0  2  0  0  0  0  0  0
  186.5360  176.7520  146.5990 C   0  0  0  0  0  2  0  0  0  0  0  0
  188.6060  175.3500  147.3360 C   0  0  0  0  0  3  0  0  0  0  0  0
  188.4620  175.9700  145.2150 C   0  0  0  0  0  0  0  0  0  0  0  0
  189.7170  174.8890  146.7110 N   0  0  0  0  0  2  0  0  0  0  0  0
  187.9510  176.7360  144.0340 C   0  0  0  0  0  2  0  0  0  0  0  0
  189.6260  175.2740  145.4170 C   0  0  0  0  0  0  0  0  0  0  0  0
  186.3050  177.6470  145.3630 C   0  0  1  0  0  3  0  0  0  0  0  0
  186.5520  176.9310  144.1620 O   0  0  0  0  0  0  0  0  0  0  0  0
  187.8360  176.0380  146.4210 C   0  0  0  0  0  0  0  0  0  0  0  0
  184.8790  178.1720  145.3770 C   0  0  0  0  0  2  0  0  0  0  0  0
  185.0860  180.3560  144.1910 O   0  0  0  0  0  1  0  0  0  0  0  0
  184.6310  179.0440  144.1950 C   0  0  0  0  0  0  0  0  0  0  0  0
  183.9760  178.6040  143.2140 O   0  0  0  0  0  0  0  0  0  0  0  0
  190.0790  172.1930  143.3110 C   0  0  0  0  0  1  0  0  0  0  0  0
  190.8160  172.4070  144.6190 C   0  0  0  0  0  2  0  0  0  0  0  0
  194.8520  170.9950  145.6760 C   0  0  0  0  0  2  0  0  0  0  0  0
  194.4210  169.5430  145.5380 C   0  0  0  0  0  2  0  0  0  0  0  0
  193.0380  169.4550  145.0820 N   0  0  0  0  0  2  0  0  0  0  0  0
  192.9570  168.4310  144.0500 C   0  0  0  0  0  2  0  0  0  0  0  0
  193.3820  168.9970  142.7050 C   0  0  0  0  0  2  0  0  0  0  0  0
  192.8560  170.2810  142.5420 O   0  0  0  0  0  0  0  0  0  0  0  0
  189.8680  170.9300  138.6810 O   0  0  0  0  0  0  0  0  0  0  0  0
  192.2960  172.8370  140.6710 C   0  0  0  0  0  2  0  0  0  0  0  0
  190.4140  171.9280  139.2270 C   0  0  0  0  0  0  0  0  0  0  0  0
  193.2950  170.6970  141.2830 C   0  0  1  0  0  3  0  0  0  0  0  0
  192.1930  170.4530  140.2670 C   0  0  0  0  0  2  0  0  0  0  0  0
  191.5950  171.7500  140.0190 N   0  0  0  0  0  0  0  0  0  0  0  0
  193.5220  172.2060  141.3060 C   0  0  0  0  0  2  0  0  0  0  0  0
  189.8210  173.2920  139.0480 C   0  0  0  0  0  3  0  0  0  0  0  0
  188.4790  174.3940  140.8510 C   0  0  0  0  0  1  0  0  0  0  0  0
  188.4650  173.3590  139.7420 C   0  0  0  0  0  2  0  0  0  0  0  0
  191.0550  173.9690  136.9760 C   0  0  0  0  0  1  0  0  0  0  0  0
  189.7010  173.6110  137.5630 C   0  0  0  0  0  2  0  0  0  0  0  0
  2  5  1  0  0  0  0
  3  2  1  0  0  0  0
  3  4  2  0  0  0  0
  4  7  1  0  0  0  0
  5  6  2  0  0  0  0
  5  1  1  0  0  0  0
  6 26  1  0  0  0  0
  7  1  2  0  0  0  0
  8 10  1  0  0  0  0
  8  9  1  0  0  0  0
  8 16  1  1  0  0  0
  9  2  2  0  0  0  0
 10  3  1  0  0  0  0
 13 16  2  0  0  0  0
 13 19  1  0  0  0  0
 14 12  1  0  0  0  0
 15 18  1  0  0  0  0
 15 13  1  0  0  0  0
 16 14  1  0  0  0  0
 17 20  1  6  0  0  0
 17 11  1  0  0  0  0
 18 17  1  0  0  0  0
 19 11  1  0  0  0  0
 19 12  2  0  0  0  0
 21 22  1  0  0  0  0
 22 20  1  0  0  0  0
 23 22  2  0  0  0  0
 24 25  1  0  0  0  0
 25  9  1  0  0  0  0
 27 26  1  0  0  0  0
 28 27  1  0  0  0  0
 29 28  1  0  0  0  0
 30 29  1  0  0  0  0
 31 30  1  0  0  0  0
 32 34  2  0  0  0  0
 33 38  1  0  0  0  0
 34 37  1  0  0  0  0
 35 38  1  0  0  0  0
 35 31  1  1  0  0  0
 36 35  1  0  0  0  0
 37 36  1  0  0  0  0
 37 33  1  0  0  0  0
 39 34  1  0  0  0  0
 39 41  1  0  0  0  0
 41 40  1  0  0  0  0
 42 43  1  0  0  0  0
 43 39  1  0  0  0  0
M  END
>  <MODEL>
7

>  <REMARK>
 VINA RESULT:      -6.0      2.981      6.187
  Name = 
  14 active torsions:
  status: ('A' for Active; 'I' for Inactive)
    1  A    between atoms: C_1  and  N_29
    2  A    between atoms: C_1  and  C_30
    3  A    between atoms: C_3  and  C_12
    4  A    between atoms: C_5  and  C_38
    5  A    between atoms: C_12  and  C_22
    6  A    between atoms: C_15  and  C_40
    7  A    between atoms: C_19  and  C_36
    8  A    between atoms: C_21  and  C_38
    9  A    between atoms: C_26  and  C_38
   10  A    between atoms: C_28  and  N_31
   11  A    between atoms: C_28  and  C_32
   12  A    between atoms: C_30  and  N_31
   13  A    between atoms: C_32  and  O_41
   14  A    between atoms: C_33  and  O_41
                            x       y       z     vdW  Elec       q    Type
                         _______ _______ _______ _____ _____    ______ ____

>  <TORSDO>
F 14

$$$$
=
 OpenBabel11062418433D

 43 47  0  0  1  0  0  0  0  0999 V2000
  194.4340  172.2340  144.2720 C   0  0  0  0  0  3  0  0  0  0  0  0
  192.5510  173.6120  145.1710 C   0  0  0  0  0  0  0  0  0  0  0  0
  191.6720  172.6470  144.5880 C   0  0  0  0  0  0  0  0  0  0  0  0
  192.1000  171.6100  143.9340 N   0  0  0  0  0  0  0  0  0  0  0  0
  194.0020  173.4400  145.0230 C   0  0  0  0  0  0  0  0  0  0  0  0
  194.8410  174.3060  145.5050 N   0  0  0  0  0  0  0  0  0  0  0  0
  193.5180  171.3840  143.7660 C   0  0  0  0  0  3  0  0  0  0  0  0
  190.3390  174.2260  145.5770 C   0  0  2  0  0  3  0  0  0  0  0  0
  191.8100  174.5390  145.7670 C   0  0  0  0  0  0  0  0  0  0  0  0
  190.3140  172.9720  144.8120 N   0  0  0  0  0  2  0  0  0  0  0  0
  187.1700  177.9180  144.4090 C   0  0  0  0  0  2  0  0  0  0  0  0
  188.9470  176.5040  143.1310 C   0  0  0  0  0  3  0  0  0  0  0  0
  188.6970  176.1570  145.3030 C   0  0  0  0  0  0  0  0  0  0  0  0
  189.8070  175.5150  143.4760 N   0  0  0  0  0  0  0  0  0  0  0  0
  188.0400  176.2390  146.6460 C   0  0  0  0  0  2  0  0  0  0  0  0
  189.6470  175.3040  144.8030 C   0  0  0  0  0  0  0  0  0  0  0  0
  186.4800  177.6890  145.7700 C   0  0  1  0  0  3  0  0  0  0  0  0
  187.4380  177.5130  146.8040 O   0  0  0  0  0  0  0  0  0  0  0  0
  188.2420  176.8900  144.2520 C   0  0  1  0  0  3  0  0  0  0  0  0
  185.5790  178.8710  146.0860 C   0  0  0  0  0  2  0  0  0  0  0  0
  185.2540  180.5410  144.2620 O   0  0  0  0  0  0  0  0  0  0  0  0
  184.8820  179.3410  144.8560 C   0  0  0  0  0  0  0  0  0  0  0  0
  183.9310  178.6720  144.3760 O   0  0  0  0  0  1  0  0  0  0  0  0
  191.5650  175.9030  147.8140 C   0  0  0  0  0  1  0  0  0  0  0  0
  192.3250  175.7260  146.5130 C   0  0  0  0  0  2  0  0  0  0  0  0
  196.2860  174.1690  145.3790 C   0  0  0  0  0  2  0  0  0  0  0  0
  196.7600  174.8190  144.0880 C   0  0  0  0  0  2  0  0  0  0  0  0
  196.3960  176.2310  144.0550 N   0  0  0  0  0  2  0  0  0  0  0  0
  195.3470  176.4150  143.0630 C   0  0  0  0  0  2  0  0  0  0  0  0
  195.8010  175.8990  141.7070 C   0  0  0  0  0  2  0  0  0  0  0  0
  194.6910  175.5340  140.9410 O   0  0  0  0  0  0  0  0  0  0  0  0
  190.1820  173.6730  140.2570 O   0  0  0  0  0  0  0  0  0  0  0  0
  193.6910  172.7340  139.7140 C   0  0  0  0  0  2  0  0  0  0  0  0
  191.1800  173.1150  139.7230 C   0  0  0  0  0  0  0  0  0  0  0  0
  194.2640  174.3180  141.4790 C   0  0  1  0  0  3  0  0  0  0  0  0
  192.7520  174.2290  141.3680 C   0  0  0  0  0  2  0  0  0  0  0  0
  192.4920  173.3420  140.2520 N   0  0  0  0  0  0  0  0  0  0  0  0
  194.8170  173.1750  140.6310 C   0  0  0  0  0  2  0  0  0  0  0  0
  190.9860  172.2210  138.5360 C   0  0  0  0  0  3  0  0  0  0  0  0
  190.8530  174.0930  136.8800 C   0  0  0  0  0  1  0  0  0  0  0  0
  190.1140  172.9220  137.5010 C   0  0  0  0  0  2  0  0  0  0  0  0
  189.6800  170.2070  137.8190 C   0  0  0  0  0  1  0  0  0  0  0  0
  190.3680  170.9010  138.9810 C   0  0  0  0  0  2  0  0  0  0  0  0
  1  5  1  0  0  0  0
  2  9  2  0  0  0  0
  3 10  1  0  0  0  0
  3  2  1  0  0  0  0
  4  3  2  0  0  0  0
  5  2  1  0  0  0  0
  5  6  2  0  0  0  0
  7  4  1  0  0  0  0
  7  1  2  0  0  0  0
  8 16  1  6  0  0  0
  8  9  1  0  0  0  0
  9 25  1  0  0  0  0
 10  8  1  0  0  0  0
 11 17  1  0  0  0  0
 12 14  2  0  0  0  0
 13 15  1  0  0  0  0
 14 16  1  0  0  0  0
 15 18  1  0  0  0  0
 16 13  2  0  0  0  0
 17 20  1  1  0  0  0
 17 18  1  0  0  0  0
 19 12  1  1  0  0  0
 19 11  1  0  0  0  0
 19 13  1  0  0  0  0
 21 22  2  0  0  0  0
 22 20  1  0  0  0  0
 23 22  1  0  0  0  0
 25 24  1  0  0  0  0
 26  6  1  0  0  0  0
 27 26  1  0  0  0  0
 28 27  1  0  0  0  0
 29 28  1  0  0  0  0
 30 29  1  0  0  0  0
 31 30  1  0  0  0  0
 33 37  1  0  0  0  0
 33 38  1  0  0  0  0
 34 37  1  0  0  0  0
 34 32  2  0  0  0  0
 35 31  1  6  0  0  0
 36 35  1  0  0  0  0
 37 36  1  0  0  0  0
 38 35  1  0  0  0  0
 39 43  1  0  0  0  0
 39 34  1  0  0  0  0
 40 41  1  0  0  0  0
 41 39  1  0  0  0  0
 42 43  1  0  0  0  0
M  END
>  <MODEL>
8

>  <REMARK>
 VINA RESULT:      -5.9      2.218      5.311
  Name = 
  14 active torsions:
  status: ('A' for Active; 'I' for Inactive)
    1  A    between atoms: C_1  and  N_29
    2  A    between atoms: C_1  and  C_30
    3  A    between atoms: C_3  and  C_12
    4  A    between atoms: C_5  and  C_38
    5  A    between atoms: C_12  and  C_22
    6  A    between atoms: C_15  and  C_40
    7  A    between atoms: C_19  and  C_36
    8  A    between atoms: C_21  and  C_38
    9  A    between atoms: C_26  and  C_38
   10  A    between atoms: C_28  and  N_31
   11  A    between atoms: C_28  and  C_32
   12  A    between atoms: C_30  and  N_31
   13  A    between atoms: C_32  and  O_41
   14  A    between atoms: C_33  and  O_41
                            x       y       z     vdW  Elec       q    Type
                         _______ _______ _______ _____ _____    ______ ____

>  <TORSDO>
F 14

$$$$
=
 OpenBabel11062418433D

 43 47  0  0  1  0  0  0  0  0999 V2000
  191.5770  175.9000  144.4030 C   0  0  0  0  0  3  0  0  0  0  0  0
  189.6830  176.1670  142.7920 C   0  0  0  0  0  0  0  0  0  0  0  0
  190.0650  177.5410  142.6940 C   0  0  0  0  0  0  0  0  0  0  0  0
  191.0660  178.0420  143.3540 N   0  0  0  0  0  0  0  0  0  0  0  0
  190.4400  175.2750  143.6800 C   0  0  0  0  0  0  0  0  0  0  0  0
  190.1120  174.0270  143.8290 N   0  0  0  0  0  0  0  0  0  0  0  0
  191.8540  177.2080  144.2340 C   0  0  0  0  0  3  0  0  0  0  0  0
  188.2470  177.2740  141.3270 C   0  0  2  0  0  3  0  0  0  0  0  0
  188.6360  175.9720  141.9990 C   0  0  0  0  0  0  0  0  0  0  0  0
  189.2250  178.2570  141.8100 N   0  0  0  0  0  2  0  0  0  0  0  0
  184.2840  178.4460  144.1500 C   0  0  0  0  0  2  0  0  0  0  0  0
  184.7380  178.1230  141.6040 C   0  0  0  0  0  3  0  0  0  0  0  0
  186.4420  177.9330  143.0040 C   0  0  0  0  0  0  0  0  0  0  0  0
  185.8300  177.8190  140.8600 N   0  0  0  0  0  0  0  0  0  0  0  0
  187.1310  177.7810  144.3250 C   0  0  0  0  0  2  0  0  0  0  0  0
  186.8670  177.7000  141.7210 C   0  0  0  0  0  0  0  0  0  0  0  0
  185.1020  178.0210  145.3870 C   0  0  1  0  0  3  0  0  0  0  0  0
  186.4310  178.5170  145.3140 O   0  0  0  0  0  0  0  0  0  0  0  0
  185.1060  178.1740  142.9320 C   0  0  1  0  0  3  0  0  0  0  0  0
  184.4210  178.5340  146.6450 C   0  0  0  0  0  2  0  0  0  0  0  0
  185.8460  177.5990  148.4650 O   0  0  0  0  0  1  0  0  0  0  0  0
  185.4120  178.7040  147.7440 C   0  0  0  0  0  0  0  0  0  0  0  0
  185.8260  179.8530  148.0460 O   0  0  0  0  0  0  0  0  0  0  0  0
  188.4740  173.9640  140.5670 C   0  0  0  0  0  1  0  0  0  0  0  0
  187.9250  174.6750  141.7890 C   0  0  0  0  0  2  0  0  0  0  0  0
  190.8380  173.1120  144.6990 C   0  0  0  0  0  2  0  0  0  0  0  0
  191.2420  171.8670  143.9250 C   0  0  0  0  0  2  0  0  0  0  0  0
  192.6180  171.4930  144.2280 N   0  0  0  0  0  2  0  0  0  0  0  0
  193.2940  172.6460  144.8070 C   0  0  0  0  0  2  0  0  0  0  0  0
  194.2400  173.2720  143.7940 C   0  0  0  0  0  2  0  0  0  0  0  0
  194.4500  172.3890  142.7320 O   0  0  0  0  0  0  0  0  0  0  0  0
  192.9950  170.8670  138.2780 O   0  0  0  0  0  0  0  0  0  0  0  0
  192.2260  173.5190  140.7010 C   0  0  0  0  0  2  0  0  0  0  0  0
  192.3150  171.7290  138.9010 C   0  0  0  0  0  0  0  0  0  0  0  0
  194.4740  173.1940  141.5900 C   0  0  1  0  0  3  0  0  0  0  0  0
  194.3000  172.3200  140.3610 C   0  0  0  0  0  2  0  0  0  0  0  0
  192.9240  172.5010  139.9430 N   0  0  0  0  0  0  0  0  0  0  0  0
  193.2710  174.1320  141.6150 C   0  0  0  0  0  2  0  0  0  0  0  0
  190.8730  171.9350  138.5500 C   0  0  0  0  0  3  0  0  0  0  0  0
  189.7220  169.9730  137.5060 C   0  0  0  0  0  1  0  0  0  0  0  0
  190.0910  170.6530  138.8110 C   0  0  0  0  0  2  0  0  0  0  0  0
  190.6690  173.8830  136.9880 C   0  0  0  0  0  1  0  0  0  0  0  0
  190.7550  172.3710  137.0940 C   0  0  0  0  0  2  0  0  0  0  0  0
  2  5  1  0  0  0  0
  3  2  1  0  0  0  0
  3  4  2  0  0  0  0
  4  7  1  0  0  0  0
  5  6  2  0  0  0  0
  5  1  1  0  0  0  0
  6 26  1  0  0  0  0
  7  1  2  0  0  0  0
  8 16  1  1  0  0  0
  8 10  1  0  0  0  0
  8  9  1  0  0  0  0
  9  2  2  0  0  0  0
 10  3  1  0  0  0  0
 11 17  1  0  0  0  0
 13 15  1  0  0  0  0
 14 12  2  0  0  0  0
 14 16  1  0  0  0  0
 15 18  1  0  0  0  0
 16 13  2  0  0  0  0
 17 20  1  1  0  0  0
 18 17  1  0  0  0  0
 19 12  1  6  0  0  0
 19 13  1  0  0  0  0
 19 11  1  0  0  0  0
 20 22  1  0  0  0  0
 22 23  2  0  0  0  0
 22 21  1  0  0  0  0
 24 25  1  0  0  0  0
 25  9  1  0  0  0  0
 27 28  1  0  0  0  0
 27 26  1  0  0  0  0
 28 29  1  0  0  0  0
 30 29  1  0  0  0  0
 31 30  1  0  0  0  0
 32 34  2  0  0  0  0
 33 38  1  0  0  0  0
 34 37  1  0  0  0  0
 35 38  1  0  0  0  0
 35 31  1  1  0  0  0
 36 35  1  0  0  0  0
 37 36  1  0  0  0  0
 37 33  1  0  0  0  0
 39 41  1  0  0  0  0
 39 34  1  0  0  0  0
 40 41  1  0  0  0  0
 42 43  1  0  0  0  0
 43 39  1  0  0  0  0
M  END
>  <MODEL>
9

>  <REMARK>
 VINA RESULT:      -5.9      2.392      5.568
  Name = 
  14 active torsions:
  status: ('A' for Active; 'I' for Inactive)
    1  A    between atoms: C_1  and  N_29
    2  A    between atoms: C_1  and  C_30
    3  A    between atoms: C_3  and  C_12
    4  A    between atoms: C_5  and  C_38
    5  A    between atoms: C_12  and  C_22
    6  A    between atoms: C_15  and  C_40
    7  A    between atoms: C_19  and  C_36
    8  A    between atoms: C_21  and  C_38
    9  A    between atoms: C_26  and  C_38
   10  A    between atoms: C_28  and  N_31
   11  A    between atoms: C_28  and  C_32
   12  A    between atoms: C_30  and  N_31
   13  A    between atoms: C_32  and  O_41
   14  A    between atoms: C_33  and  O_41
                            x       y       z     vdW  Elec       q    Type
                         _______ _______ _______ _____ _____    ______ ____

>  <TORSDO>
F 14

$$$$
