=
 OpenBabel11062420573D

 31 35  0  0  0  0  0  0  0  0999 V2000
  185.1730  178.1780  142.5880 S   0  0  0  0  0  0  0  0  0  0  0  0
  186.5140  177.8120  143.4900 C   0  0  0  0  0  0  0  0  0  0  0  0
  188.8940  177.5570  143.6650 C   0  0  0  0  0  0  0  0  0  0  0  0
  187.5130  177.2050  145.6220 C   0  0  0  0  0  0  0  0  0  0  0  0
  192.1590  176.5450  146.6450 N   0  0  0  0  0  0  0  0  0  0  0  0
  185.0090  177.1600  146.8340 C   0  0  0  0  0  3  0  0  0  0  0  0
  188.7850  177.2200  145.0340 C   0  0  0  0  0  0  0  0  0  0  0  0
  190.2400  177.6410  143.0190 C   0  0  0  0  0  2  0  0  0  0  0  0
  193.4630  176.2030  146.4850 C   0  0  0  0  0  3  0  0  0  0  0  0
  189.9230  176.9400  145.8770 N   0  0  0  0  0  2  0  0  0  0  0  0
  191.7740  176.2660  144.3120 C   0  0  0  0  0  0  0  0  0  0  0  0
  191.2920  176.5930  145.5980 C   0  0  0  0  0  0  0  0  0  0  0  0
  187.7680  177.8290  142.9220 N   0  0  0  0  0  0  0  0  0  0  0  0
  186.1260  176.8780  147.5520 N   0  0  0  0  0  0  0  0  0  0  0  0
  193.9340  175.8850  145.2150 C   0  0  0  0  0  3  0  0  0  0  0  0
  190.9130  176.2930  143.1030 C   0  0  0  0  0  2  0  0  0  0  0  0
  185.1100  177.4720  145.4800 C   0  0  0  0  0  3  0  0  0  0  0  0
  187.3580  176.8940  146.9810 C   0  0  0  0  0  3  0  0  0  0  0  0
  186.3690  177.4990  144.8560 C   0  0  0  0  0  0  0  0  0  0  0  0
  193.0800  175.9220  144.1600 N   0  0  0  0  0  0  0  0  0  0  0  0
  187.9170  178.1340  141.4920 C   0  0  0  0  0  2  0  0  0  0  0  0
  188.2250  175.6940  140.9220 N   0  0  0  0  0  2  0  0  0  0  0  0
  187.5800  176.9400  140.6630 C   0  0  0  0  0  0  0  0  0  0  0  0
  186.7400  177.0430  139.7310 O   0  0  0  0  0  0  0  0  0  0  0  0
  187.9590  174.4960  140.1330 C   0  0  0  0  0  2  0  0  0  0  0  0
  190.0840  173.5910  140.7360 C   0  0  0  0  0  2  0  0  0  0  0  0
  190.8160  172.4720  141.4730 C   0  0  0  0  0  2  0  0  0  0  0  0
  189.9670  171.9680  142.6400 C   0  0  0  0  0  2  0  0  0  0  0  0
  188.0720  173.0280  142.0230 C   0  0  0  0  0  2  0  0  0  0  0  0
  189.0550  172.9610  143.0350 O   0  0  0  0  0  0  0  0  0  0  0  0
  188.6400  173.3270  140.6900 N   0  0  0  0  0  0  0  0  0  0  0  0
  1  2  2  0  0  0  0
  2 19  1  0  0  0  0
  3  7  2  0  0  0  0
  4 18  1  0  0  0  0
  6 14  1  0  0  0  0
  7  4  1  0  0  0  0
  7 10  1  0  0  0  0
  8 16  1  0  0  0  0
  8  3  1  0  0  0  0
  9  5  1  0  0  0  0
 11 12  1  0  0  0  0
 12 10  1  0  0  0  0
 12  5  2  0  0  0  0
 13  2  1  0  0  0  0
 13  3  1  0  0  0  0
 15  9  2  0  0  0  0
 16 11  1  0  0  0  0
 17  6  2  0  0  0  0
 18 14  2  0  0  0  0
 19 17  1  0  0  0  0
 19  4  2  0  0  0  0
 20 11  2  0  0  0  0
 20 15  1  0  0  0  0
 21 13  1  0  0  0  0
 23 22  1  0  0  0  0
 23 21  1  0  0  0  0
 24 23  2  0  0  0  0
 25 31  1  0  0  0  0
 25 22  1  0  0  0  0
 26 27  1  0  0  0  0
 27 28  1  0  0  0  0
 28 30  1  0  0  0  0
 29 30  1  0  0  0  0
 31 26  1  0  0  0  0
 31 29  1  0  0  0  0
M  END
>  <MODEL>
1

>  <REMARK>
 VINA RESULT:      -7.6      0.000      0.000
  Name = 
  4 active torsions:
  status: ('A' for Active; 'I' for Inactive)
    1  A    between atoms: C_2  and  N_9
    2  A    between atoms: C_2  and  N_30
    3  A    between atoms: C_8  and  C_13
    4  A    between atoms: C_8  and  N_22
                            x       y       z     vdW  Elec       q    Type
                         _______ _______ _______ _____ _____    ______ ____

>  <TORSDO>
F 4

$$$$
=
 OpenBabel11062420573D

 31 35  0  0  0  0  0  0  0  0999 V2000
  186.3360  177.7090  147.3530 S   0  0  0  0  0  0  0  0  0  0  0  0
  186.7120  177.1110  145.8540 C   0  0  0  0  0  0  0  0  0  0  0  0
  188.0660  175.7060  144.4570 C   0  0  0  0  0  0  0  0  0  0  0  0
  186.2540  176.9700  143.4700 C   0  0  0  0  0  0  0  0  0  0  0  0
  188.5530  174.3700  140.1500 N   0  0  0  0  0  0  0  0  0  0  0  0
  184.1180  178.7350  143.7310 C   0  0  0  0  0  3  0  0  0  0  0  0
  187.3250  176.0800  143.3130 C   0  0  0  0  0  0  0  0  0  0  0  0
  189.1780  174.7130  144.3370 C   0  0  0  0  0  2  0  0  0  0  0  0
  189.5660  173.7400  139.5020 C   0  0  0  0  0  3  0  0  0  0  0  0
  187.5780  175.5540  141.9920 N   0  0  0  0  0  2  0  0  0  0  0  0
  189.9600  174.7460  142.0350 C   0  0  0  0  0  0  0  0  0  0  0  0
  188.7040  174.8780  141.4030 C   0  0  0  0  0  0  0  0  0  0  0  0
  187.7610  176.2330  145.6900 N   0  0  0  0  0  0  0  0  0  0  0  0
  184.4400  178.2180  142.5170 N   0  0  0  0  0  0  0  0  0  0  0  0
  190.8010  173.6090  140.1300 C   0  0  0  0  0  3  0  0  0  0  0  0
  190.2280  175.2590  143.4010 C   0  0  0  0  0  2  0  0  0  0  0  0
  184.8590  178.3840  144.8580 C   0  0  0  0  0  3  0  0  0  0  0  0
  185.4780  177.3550  142.3670 C   0  0  0  0  0  3  0  0  0  0  0  0
  185.9400  177.4930  144.7390 C   0  0  0  0  0  0  0  0  0  0  0  0
  190.9700  174.1160  141.3780 N   0  0  0  0  0  0  0  0  0  0  0  0
  188.5800  175.8530  146.8490 C   0  0  0  0  0  2  0  0  0  0  0  0
  191.0880  175.8650  147.1280 N   0  0  0  0  0  2  0  0  0  0  0  0
  189.8880  176.5720  146.8270 C   0  0  0  0  0  0  0  0  0  0  0  0
  189.9200  177.8010  146.5540 O   0  0  0  0  0  0  0  0  0  0  0  0
  192.3950  176.5140  147.1470 C   0  0  0  0  0  2  0  0  0  0  0  0
  192.8050  174.4590  146.0030 C   0  0  0  0  0  2  0  0  0  0  0  0
  193.7220  173.7150  145.0340 C   0  0  0  0  0  2  0  0  0  0  0  0
  194.3670  174.7000  144.0600 C   0  0  0  0  0  2  0  0  0  0  0  0
  193.7570  176.5640  145.1760 C   0  0  0  0  0  2  0  0  0  0  0  0
  193.5850  175.8620  143.9630 O   0  0  0  0  0  0  0  0  0  0  0  0
  193.3750  175.7650  146.3610 N   0  0  0  0  0  0  0  0  0  0  0  0
  2  1  2  0  0  0  0
  3 13  1  0  0  0  0
  4 19  1  0  0  0  0
  5 12  2  0  0  0  0
  6 17  1  0  0  0  0
  7  4  1  0  0  0  0
  7  3  2  0  0  0  0
  8  3  1  0  0  0  0
  9 15  2  0  0  0  0
  9  5  1  0  0  0  0
 10  7  1  0  0  0  0
 11 16  1  0  0  0  0
 12 10  1  0  0  0  0
 12 11  1  0  0  0  0
 13  2  1  0  0  0  0
 13 21  1  0  0  0  0
 14  6  2  0  0  0  0
 15 20  1  0  0  0  0
 16  8  1  0  0  0  0
 18 14  1  0  0  0  0
 18  4  2  0  0  0  0
 19 17  2  0  0  0  0
 19  2  1  0  0  0  0
 20 11  2  0  0  0  0
 22 25  1  0  0  0  0
 23 21  1  0  0  0  0
 23 22  1  0  0  0  0
 24 23  2  0  0  0  0
 26 31  1  0  0  0  0
 27 26  1  0  0  0  0
 28 27  1  0  0  0  0
 29 31  1  0  0  0  0
 30 28  1  0  0  0  0
 30 29  1  0  0  0  0
 31 25  1  0  0  0  0
M  END
>  <MODEL>
2

>  <REMARK>
 VINA RESULT:      -7.5      2.562      5.311
  Name = 
  4 active torsions:
  status: ('A' for Active; 'I' for Inactive)
    1  A    between atoms: C_2  and  N_9
    2  A    between atoms: C_2  and  N_30
    3  A    between atoms: C_8  and  C_13
    4  A    between atoms: C_8  and  N_22
                            x       y       z     vdW  Elec       q    Type
                         _______ _______ _______ _____ _____    ______ ____

>  <TORSDO>
F 4

$$$$
=
 OpenBabel11062420573D

 31 35  0  0  1  0  0  0  0  0999 V2000
  189.8360  176.2780  146.4630 S   0  0  0  0  0  0  0  0  0  0  0  0
  188.4410  176.8100  145.7450 C   0  0  0  0  0  0  0  0  0  0  0  0
  186.9270  176.7970  143.8830 C   0  0  0  0  0  0  0  0  0  0  0  0
  186.3980  178.1270  145.8350 C   0  0  0  0  0  0  0  0  0  0  0  0
  182.9760  178.5350  142.4900 N   0  0  0  0  0  0  0  0  0  0  0  0
  187.0300  179.0150  148.3950 C   0  0  0  0  0  3  0  0  0  0  0  0
  186.0590  177.6950  144.5460 C   0  0  0  0  0  0  0  0  0  0  0  0
  186.5680  176.2690  142.5310 C   0  0  0  0  0  2  0  0  0  0  0  0
  182.3910  178.6000  141.2660 C   0  0  0  0  0  2  0  0  0  0  0  0
  184.8080  178.1530  143.9870 N   0  0  0  0  0  2  0  0  0  0  0  0
  185.0290  177.8450  141.5000 C   0  0  1  0  0  3  0  0  0  0  0  0
  184.2750  178.1630  142.6500 C   0  0  0  0  0  0  0  0  0  0  0  0
  188.0970  176.3880  144.4800 N   0  0  0  0  0  0  0  0  0  0  0  0
  185.8870  179.4230  147.7880 N   0  0  0  0  0  0  0  0  0  0  0  0
  183.1380  178.2830  140.1360 C   0  0  0  0  0  3  0  0  0  0  0  0
  186.4500  177.4220  141.5650 C   0  0  0  0  0  2  0  0  0  0  0  0
  187.8980  178.1470  147.7370 C   0  0  0  0  0  3  0  0  0  0  0  0
  185.5580  179.0030  146.5390 C   0  0  0  0  0  3  0  0  0  0  0  0
  187.5900  177.6910  146.4430 C   0  0  0  0  0  0  0  0  0  0  0  0
  184.4370  177.9150  140.2780 N   0  0  0  0  0  0  0  0  0  0  0  0
  188.9940  175.4880  143.7430 C   0  0  0  0  0  2  0  0  0  0  0  0
  191.4820  175.7220  143.3880 N   0  0  0  0  0  2  0  0  0  0  0  0
  190.1660  176.2390  143.2050 C   0  0  0  0  0  0  0  0  0  0  0  0
  189.9850  177.3320  142.6050 O   0  0  0  0  0  0  0  0  0  0  0  0
  192.6700  176.4200  142.9080 C   0  0  0  0  0  2  0  0  0  0  0  0
  193.4850  176.8100  145.1180 C   0  0  0  0  0  2  0  0  0  0  0  0
  194.5660  176.4730  146.1430 C   0  0  0  0  0  2  0  0  0  0  0  0
  195.0900  175.0570  145.9070 C   0  0  0  0  0  2  0  0  0  0  0  0
  194.1130  174.7780  143.8920 C   0  0  0  0  0  2  0  0  0  0  0  0
  194.1300  174.2970  145.2190 O   0  0  0  0  0  0  0  0  0  0  0  0
  193.8050  176.2230  143.8100 N   0  0  0  0  0  0  0  0  0  0  0  0
  2 19  1  0  0  0  0
  2  1  2  0  0  0  0
  3 13  1  0  0  0  0
  3  7  2  0  0  0  0
  4 19  2  0  0  0  0
  4 18  1  0  0  0  0
  5 12  2  0  0  0  0
  7  4  1  0  0  0  0
  8  3  1  0  0  0  0
  9  5  1  0  0  0  0
 10  7  1  0  0  0  0
 11 16  1  1  0  0  0
 11 12  1  0  0  0  0
 12 10  1  0  0  0  0
 13  2  1  0  0  0  0
 14  6  1  0  0  0  0
 15 20  2  0  0  0  0
 15  9  1  0  0  0  0
 16  8  1  0  0  0  0
 17  6  2  0  0  0  0
 18 14  2  0  0  0  0
 19 17  1  0  0  0  0
 20 11  1  0  0  0  0
 21 13  1  0  0  0  0
 23 22  1  0  0  0  0
 23 21  1  0  0  0  0
 24 23  2  0  0  0  0
 25 22  1  0  0  0  0
 25 31  1  0  0  0  0
 26 27  1  0  0  0  0
 28 27  1  0  0  0  0
 29 30  1  0  0  0  0
 30 28  1  0  0  0  0
 31 29  1  0  0  0  0
 31 26  1  0  0  0  0
M  END
>  <MODEL>
3

>  <REMARK>
 VINA RESULT:      -7.3      2.859      6.108
  Name = 
  4 active torsions:
  status: ('A' for Active; 'I' for Inactive)
    1  A    between atoms: C_2  and  N_9
    2  A    between atoms: C_2  and  N_30
    3  A    between atoms: C_8  and  C_13
    4  A    between atoms: C_8  and  N_22
                            x       y       z     vdW  Elec       q    Type
                         _______ _______ _______ _____ _____    ______ ____

>  <TORSDO>
F 4

$$$$
=
 OpenBabel11062420573D

 31 35  0  0  1  0  0  0  0  0999 V2000
  191.5850  173.2270  144.6370 S   0  0  0  0  0  0  0  0  0  0  0  0
  190.3140  174.2500  144.3500 C   0  0  0  0  0  0  0  0  0  0  0  0
  188.7580  175.9010  145.1340 C   0  0  0  0  0  0  0  0  0  0  0  0
  188.7010  175.2220  142.8120 C   0  0  0  0  0  0  0  0  0  0  0  0
  185.3510  178.5400  143.7220 N   0  0  0  0  0  0  0  0  0  0  0  0
  189.7080  173.6890  140.7180 C   0  0  0  0  0  3  0  0  0  0  0  0
  188.1760  176.0040  143.8500 C   0  0  0  0  0  0  0  0  0  0  0  0
  188.2630  176.7630  146.2520 C   0  0  0  0  0  2  0  0  0  0  0  0
  184.4090  179.2490  144.3970 C   0  0  0  0  0  2  0  0  0  0  0  0
  187.1000  176.9120  143.5340 N   0  0  0  0  0  2  0  0  0  0  0  0
  185.9810  177.4220  145.7290 C   0  0  1  0  0  3  0  0  0  0  0  0
  186.1510  177.6310  144.3420 C   0  0  0  0  0  0  0  0  0  0  0  0
  189.7940  175.0250  145.3640 N   0  0  0  0  0  0  0  0  0  0  0  0
  188.6760  174.5460  140.5100 N   0  0  0  0  0  0  0  0  0  0  0  0
  184.2470  179.0410  145.7630 C   0  0  0  0  0  3  0  0  0  0  0  0
  186.8060  176.4600  146.5000 C   0  0  0  0  0  2  0  0  0  0  0  0
  190.2700  173.5700  141.9880 C   0  0  0  0  0  3  0  0  0  0  0  0
  188.1690  175.3040  141.5160 C   0  0  0  0  0  3  0  0  0  0  0  0
  189.7710  174.3390  143.0530 C   0  0  0  0  0  0  0  0  0  0  0  0
  185.0340  178.1330  146.3960 N   0  0  0  0  0  0  0  0  0  0  0  0
  190.3450  174.9150  146.7220 C   0  0  0  0  0  2  0  0  0  0  0  0
  192.6420  175.8230  146.2050 N   0  0  0  0  0  2  0  0  0  0  0  0
  191.4210  175.9250  146.9350 C   0  0  0  0  0  0  0  0  0  0  0  0
  191.2500  176.8540  147.7680 O   0  0  0  0  0  0  0  0  0  0  0  0
  193.7420  176.7640  146.3850 C   0  0  0  0  0  2  0  0  0  0  0  0
  195.2500  174.9300  146.1370 C   0  0  0  0  0  2  0  0  0  0  0  0
  196.4030  174.3440  145.3250 C   0  0  0  0  0  2  0  0  0  0  0  0
  196.3230  174.8250  143.8770 C   0  0  0  0  0  2  0  0  0  0  0  0
  194.7640  176.4150  144.2450 C   0  0  0  0  0  2  0  0  0  0  0  0
  195.0050  175.2010  143.5670 O   0  0  0  0  0  0  0  0  0  0  0  0
  194.9550  176.3030  145.7080 N   0  0  0  0  0  0  0  0  0  0  0  0
  2  1  2  0  0  0  0
  2 13  1  0  0  0  0
  3 13  1  0  0  0  0
  3  8  1  0  0  0  0
  4 19  1  0  0  0  0
  4  7  1  0  0  0  0
  5 12  2  0  0  0  0
  5  9  1  0  0  0  0
  6 17  1  0  0  0  0
  7  3  2  0  0  0  0
  8 16  1  0  0  0  0
  9 15  1  0  0  0  0
 10  7  1  0  0  0  0
 10 12  1  0  0  0  0
 11 20  1  0  0  0  0
 11 16  1  1  0  0  0
 12 11  1  0  0  0  0
 13 21  1  0  0  0  0
 14  6  2  0  0  0  0
 14 18  1  0  0  0  0
 15 20  2  0  0  0  0
 17 19  2  0  0  0  0
 18  4  2  0  0  0  0
 19  2  1  0  0  0  0
 21 23  1  0  0  0  0
 22 25  1  0  0  0  0
 22 23  1  0  0  0  0
 23 24  2  0  0  0  0
 27 26  1  0  0  0  0
 28 27  1  0  0  0  0
 29 31  1  0  0  0  0
 30 28  1  0  0  0  0
 30 29  1  0  0  0  0
 31 26  1  0  0  0  0
 31 25  1  0  0  0  0
M  END
>  <MODEL>
4

>  <REMARK>
 VINA RESULT:      -7.2      2.964      6.910
  Name = 
  4 active torsions:
  status: ('A' for Active; 'I' for Inactive)
    1  A    between atoms: C_2  and  N_9
    2  A    between atoms: C_2  and  N_30
    3  A    between atoms: C_8  and  C_13
    4  A    between atoms: C_8  and  N_22
                            x       y       z     vdW  Elec       q    Type
                         _______ _______ _______ _____ _____    ______ ____

>  <TORSDO>
F 4

$$$$
=
 OpenBabel11062420573D

 31 35  0  0  1  0  0  0  0  0999 V2000
  192.8680  175.1850  142.0710 S   0  0  0  0  0  0  0  0  0  0  0  0
  191.3430  175.4760  142.6480 C   0  0  0  0  0  0  0  0  0  0  0  0
  189.8650  176.7020  144.0880 C   0  0  0  0  0  0  0  0  0  0  0  0
  188.9550  175.0190  142.6070 C   0  0  0  0  0  0  0  0  0  0  0  0
  185.4860  177.0930  145.2010 N   0  0  0  0  0  0  0  0  0  0  0  0
  189.3130  173.0880  140.6350 C   0  0  0  0  0  3  0  0  0  0  0  0
  188.7490  175.9860  143.6000 C   0  0  0  0  0  0  0  0  0  0  0  0
  189.6760  177.7820  145.1060 C   0  0  0  0  0  2  0  0  0  0  0  0
  184.8630  177.6930  146.2490 C   0  0  0  0  0  2  0  0  0  0  0  0
  187.3930  176.2320  144.0320 N   0  0  0  0  0  2  0  0  0  0  0  0
  187.5940  177.3400  146.2820 C   0  0  1  0  0  3  0  0  0  0  0  0
  186.8330  176.9030  145.1760 C   0  0  0  0  0  0  0  0  0  0  0  0
  191.1300  176.4270  143.6210 N   0  0  0  0  0  0  0  0  0  0  0  0
  188.0730  173.3580  141.1160 N   0  0  0  0  0  0  0  0  0  0  0  0
  185.6180  178.1230  147.3350 C   0  0  0  0  0  3  0  0  0  0  0  0
  189.0690  177.1860  146.3510 C   0  0  0  0  0  2  0  0  0  0  0  0
  190.4190  173.7780  141.1290 C   0  0  0  0  0  3  0  0  0  0  0  0
  187.8750  174.2960  142.0780 C   0  0  0  0  0  3  0  0  0  0  0  0
  190.2510  174.7560  142.1250 C   0  0  0  0  0  0  0  0  0  0  0  0
  186.9620  177.9360  147.3280 N   0  0  0  0  0  0  0  0  0  0  0  0
  192.2710  177.1630  144.1840 C   0  0  0  0  0  2  0  0  0  0  0  0
  194.3880  176.0890  145.0410 N   0  0  0  0  0  2  0  0  0  0  0  0
  192.9900  176.3280  145.1900 C   0  0  0  0  0  0  0  0  0  0  0  0
  192.3550  175.8290  146.1560 O   0  0  0  0  0  0  0  0  0  0  0  0
  195.1440  175.2620  145.9760 C   0  0  0  0  0  2  0  0  0  0  0  0
  196.7250  173.4780  146.1050 C   0  0  0  0  0  2  0  0  0  0  0  0
  197.1070  172.0900  145.5950 C   0  0  0  0  0  2  0  0  0  0  0  0
  195.8510  171.3110  145.2030 C   0  0  0  0  0  2  0  0  0  0  0  0
  194.4460  173.0750  145.2870 C   0  0  0  0  0  2  0  0  0  0  0  0
  194.7340  171.8260  145.8800 O   0  0  0  0  0  0  0  0  0  0  0  0
  195.5860  174.0160  145.3490 N   0  0  0  0  0  0  0  0  0  0  0  0
  1  2  2  0  0  0  0
  2 13  1  0  0  0  0
  3  8  1  0  0  0  0
  4  7  1  0  0  0  0
  5  9  1  0  0  0  0
  6 14  2  0  0  0  0
  6 17  1  0  0  0  0
  7 10  1  0  0  0  0
  7  3  2  0  0  0  0
  8 16  1  0  0  0  0
  9 15  1  0  0  0  0
 10 12  1  0  0  0  0
 11 16  1  6  0  0  0
 11 20  1  0  0  0  0
 12  5  2  0  0  0  0
 12 11  1  0  0  0  0
 13  3  1  0  0  0  0
 13 21  1  0  0  0  0
 14 18  1  0  0  0  0
 17 19  2  0  0  0  0
 18  4  2  0  0  0  0
 19  4  1  0  0  0  0
 19  2  1  0  0  0  0
 20 15  2  0  0  0  0
 21 23  1  0  0  0  0
 22 23  1  0  0  0  0
 22 25  1  0  0  0  0
 23 24  2  0  0  0  0
 27 26  1  0  0  0  0
 28 27  1  0  0  0  0
 28 30  1  0  0  0  0
 29 31  1  0  0  0  0
 29 30  1  0  0  0  0
 31 25  1  0  0  0  0
 31 26  1  0  0  0  0
M  END
>  <MODEL>
5

>  <REMARK>
 VINA RESULT:      -7.2      2.944      6.573
  Name = 
  4 active torsions:
  status: ('A' for Active; 'I' for Inactive)
    1  A    between atoms: C_2  and  N_9
    2  A    between atoms: C_2  and  N_30
    3  A    between atoms: C_8  and  C_13
    4  A    between atoms: C_8  and  N_22
                            x       y       z     vdW  Elec       q    Type
                         _______ _______ _______ _____ _____    ______ ____

>  <TORSDO>
F 4

$$$$
=
 OpenBabel11062420573D

 31 35  0  0  1  0  0  0  0  0999 V2000
  192.2860  175.6100  142.8390 S   0  0  0  0  0  0  0  0  0  0  0  0
  191.0430  176.0910  143.8230 C   0  0  0  0  0  0  0  0  0  0  0  0
  188.7230  176.6210  144.1300 C   0  0  0  0  0  0  0  0  0  0  0  0
  190.2240  176.7160  146.0260 C   0  0  0  0  0  0  0  0  0  0  0  0
  185.7450  177.8780  147.3120 N   0  0  0  0  0  0  0  0  0  0  0  0
  192.7690  176.4050  147.1090 C   0  0  0  0  0  3  0  0  0  0  0  0
  188.9340  176.8790  145.5040 C   0  0  0  0  0  0  0  0  0  0  0  0
  187.3480  176.7280  143.5510 C   0  0  0  0  0  2  0  0  0  0  0  0
  184.4860  178.3800  147.2330 C   0  0  0  0  0  2  0  0  0  0  0  0
  187.8790  177.2550  146.4150 N   0  0  0  0  0  2  0  0  0  0  0  0
  186.0530  178.2150  144.9750 C   0  0  1  0  0  3  0  0  0  0  0  0
  186.5510  177.7750  146.2210 C   0  0  0  0  0  0  0  0  0  0  0  0
  189.7710  176.2510  143.3200 N   0  0  0  0  0  0  0  0  0  0  0  0
  191.7280  176.7850  147.8940 N   0  0  0  0  0  0  0  0  0  0  0  0
  184.0000  178.8110  146.0020 C   0  0  0  0  0  3  0  0  0  0  0  0
  186.8480  178.1410  143.7240 C   0  0  0  0  0  2  0  0  0  0  0  0
  192.5680  176.1690  145.7500 C   0  0  0  0  0  3  0  0  0  0  0  0
  190.4780  176.9420  147.3870 C   0  0  0  0  0  3  0  0  0  0  0  0
  191.2870  176.3220  145.1910 C   0  0  0  0  0  0  0  0  0  0  0  0
  184.7930  178.7200  144.9050 N   0  0  0  0  0  0  0  0  0  0  0  0
  189.5210  176.0320  141.8880 C   0  0  0  0  0  2  0  0  0  0  0  0
  188.8390  173.7240  142.6450 N   0  0  0  0  0  2  0  0  0  0  0  0
  189.3070  174.5830  141.6080 C   0  0  0  0  0  0  0  0  0  0  0  0
  189.5540  174.1250  140.4610 O   0  0  0  0  0  0  0  0  0  0  0  0
  188.6340  172.2930  142.4440 C   0  0  0  0  0  2  0  0  0  0  0  0
  190.7210  171.1880  142.0960 C   0  0  0  0  0  2  0  0  0  0  0  0
  191.9230  170.5220  142.7630 C   0  0  0  0  0  2  0  0  0  0  0  0
  192.1700  171.1390  144.1390 C   0  0  0  0  0  2  0  0  0  0  0  0
  190.2150  172.2630  144.2440 C   0  0  0  0  0  2  0  0  0  0  0  0
  191.6170  172.4280  144.1940 O   0  0  0  0  0  0  0  0  0  0  0  0
  189.6860  171.5060  143.0880 N   0  0  0  0  0  0  0  0  0  0  0  0
  1  2  2  0  0  0  0
  2 19  1  0  0  0  0
  3  7  2  0  0  0  0
  4 18  1  0  0  0  0
  6 14  1  0  0  0  0
  7  4  1  0  0  0  0
  7 10  1  0  0  0  0
  8 16  1  0  0  0  0
  8  3  1  0  0  0  0
  9  5  1  0  0  0  0
 11 16  1  6  0  0  0
 11 12  1  0  0  0  0
 12 10  1  0  0  0  0
 12  5  2  0  0  0  0
 13  2  1  0  0  0  0
 13  3  1  0  0  0  0
 15  9  1  0  0  0  0
 17  6  2  0  0  0  0
 18 14  2  0  0  0  0
 19 17  1  0  0  0  0
 19  4  2  0  0  0  0
 20 11  1  0  0  0  0
 20 15  2  0  0  0  0
 21 13  1  0  0  0  0
 23 21  1  0  0  0  0
 23 22  1  0  0  0  0
 24 23  2  0  0  0  0
 25 22  1  0  0  0  0
 25 31  1  0  0  0  0
 26 27  1  0  0  0  0
 26 31  1  0  0  0  0
 27 28  1  0  0  0  0
 28 30  1  0  0  0  0
 30 29  1  0  0  0  0
 31 29  1  0  0  0  0
M  END
>  <MODEL>
6

>  <REMARK>
 VINA RESULT:      -7.1      2.278      5.062
  Name = 
  4 active torsions:
  status: ('A' for Active; 'I' for Inactive)
    1  A    between atoms: C_2  and  N_9
    2  A    between atoms: C_2  and  N_30
    3  A    between atoms: C_8  and  C_13
    4  A    between atoms: C_8  and  N_22
                            x       y       z     vdW  Elec       q    Type
                         _______ _______ _______ _____ _____    ______ ____

>  <TORSDO>
F 4

$$$$
=
 OpenBabel11062420573D

 31 35  0  0  1  0  0  0  0  0999 V2000
  188.2380  177.0720  146.5650 S   0  0  0  0  0  0  0  0  0  0  0  0
  188.1800  176.5640  144.9890 C   0  0  0  0  0  0  0  0  0  0  0  0
  188.8040  174.9890  143.2890 C   0  0  0  0  0  0  0  0  0  0  0  0
  187.3490  176.8360  142.7200 C   0  0  0  0  0  0  0  0  0  0  0  0
  188.2020  174.0670  138.8900 N   0  0  0  0  0  0  0  0  0  0  0  0
  185.9310  179.1120  143.4650 C   0  0  0  0  0  3  0  0  0  0  0  0
  188.0540  175.6930  142.3200 C   0  0  0  0  0  0  0  0  0  0  0  0
  189.5220  173.7320  142.9120 C   0  0  0  0  0  2  0  0  0  0  0  0
  188.8590  173.2430  138.0340 C   0  0  0  0  0  2  0  0  0  0  0  0
  187.9300  175.2690  140.9460 N   0  0  0  0  0  2  0  0  0  0  0  0
  189.9220  173.7930  140.5140 C   0  0  1  0  0  3  0  0  0  0  0  0
  188.6890  174.3620  140.1250 C   0  0  0  0  0  0  0  0  0  0  0  0
  188.8670  175.4400  144.5880 N   0  0  0  0  0  0  0  0  0  0  0  0
  185.8910  178.6650  142.1840 N   0  0  0  0  0  0  0  0  0  0  0  0
  190.0720  172.6830  138.4230 C   0  0  0  0  0  3  0  0  0  0  0  0
  190.5370  174.0450  141.8410 C   0  0  0  0  0  2  0  0  0  0  0  0
  186.6870  178.4320  144.4180 C   0  0  0  0  0  3  0  0  0  0  0  0
  186.5750  177.5570  141.7980 C   0  0  0  0  0  3  0  0  0  0  0  0
  187.4070  177.2810  144.0540 C   0  0  0  0  0  0  0  0  0  0  0  0
  190.5750  172.9710  139.6500 N   0  0  0  0  0  0  0  0  0  0  0  0
  189.6920  174.7050  145.5570 C   0  0  0  0  0  2  0  0  0  0  0  0
  191.5950  176.1130  144.6840 N   0  0  0  0  0  2  0  0  0  0  0  0
  191.0010  175.3930  145.7610 C   0  0  0  0  0  0  0  0  0  0  0  0
  191.5770  175.3210  146.8780 O   0  0  0  0  0  0  0  0  0  0  0  0
  192.8840  176.7860  144.8100 C   0  0  0  0  0  2  0  0  0  0  0  0
  193.8860  176.0140  142.7860 C   0  0  0  0  0  2  0  0  0  0  0  0
  195.0990  175.3300  142.1590 C   0  0  0  0  0  2  0  0  0  0  0  0
  196.3510  175.6150  142.9880 C   0  0  0  0  0  2  0  0  0  0  0  0
  195.2600  176.4780  144.7660 C   0  0  0  0  0  2  0  0  0  0  0  0
  196.1740  176.7910  143.7360 O   0  0  0  0  0  0  0  0  0  0  0  0
  193.9670  175.9760  144.2520 N   0  0  0  0  0  0  0  0  0  0  0  0
  2  1  2  0  0  0  0
  3 13  1  0  0  0  0
  4 19  1  0  0  0  0
  5 12  2  0  0  0  0
  6 17  1  0  0  0  0
  7  4  1  0  0  0  0
  7  3  2  0  0  0  0
  8  3  1  0  0  0  0
  9 15  1  0  0  0  0
  9  5  1  0  0  0  0
 10  7  1  0  0  0  0
 11 16  1  1  0  0  0
 12 11  1  0  0  0  0
 12 10  1  0  0  0  0
 13  2  1  0  0  0  0
 13 21  1  0  0  0  0
 14  6  2  0  0  0  0
 15 20  2  0  0  0  0
 16  8  1  0  0  0  0
 18 14  1  0  0  0  0
 18  4  2  0  0  0  0
 19 17  2  0  0  0  0
 19  2  1  0  0  0  0
 20 11  1  0  0  0  0
 21 23  1  0  0  0  0
 22 25  1  0  0  0  0
 22 23  1  0  0  0  0
 23 24  2  0  0  0  0
 26 31  1  0  0  0  0
 27 26  1  0  0  0  0
 27 28  1  0  0  0  0
 28 30  1  0  0  0  0
 30 29  1  0  0  0  0
 31 29  1  0  0  0  0
 31 25  1  0  0  0  0
M  END
>  <MODEL>
7

>  <REMARK>
 VINA RESULT:      -7.1      2.745      5.893
  Name = 
  4 active torsions:
  status: ('A' for Active; 'I' for Inactive)
    1  A    between atoms: C_2  and  N_9
    2  A    between atoms: C_2  and  N_30
    3  A    between atoms: C_8  and  C_13
    4  A    between atoms: C_8  and  N_22
                            x       y       z     vdW  Elec       q    Type
                         _______ _______ _______ _____ _____    ______ ____

>  <TORSDO>
F 4

$$$$
=
 OpenBabel11062420573D

 31 35  0  0  1  0  0  0  0  0999 V2000
  191.2050  176.7330  147.9780 S   0  0  0  0  0  0  0  0  0  0  0  0
  191.5190  175.8740  146.5970 C   0  0  0  0  0  0  0  0  0  0  0  0
  190.8040  174.3350  144.8990 C   0  0  0  0  0  0  0  0  0  0  0  0
  193.0200  175.2980  144.7730 C   0  0  0  0  0  0  0  0  0  0  0  0
  192.2180  172.3230  141.0890 N   0  0  0  0  0  0  0  0  0  0  0  0
  194.9830  176.9860  145.7960 C   0  0  0  0  0  3  0  0  0  0  0  0
  192.0490  174.4420  144.2380 C   0  0  0  0  0  0  0  0  0  0  0  0
  189.7220  173.4760  144.3260 C   0  0  0  0  0  2  0  0  0  0  0  0
  191.7390  171.2630  140.3880 C   0  0  0  0  0  2  0  0  0  0  0  0
  192.3580  173.7530  143.0070 N   0  0  0  0  0  2  0  0  0  0  0  0
  190.7730  171.8020  142.9090 C   0  0  1  0  0  3  0  0  0  0  0  0
  191.7660  172.6270  142.3360 C   0  0  0  0  0  0  0  0  0  0  0  0
  190.5690  175.0320  146.0620 N   0  0  0  0  0  0  0  0  0  0  0  0
  195.2070  176.2800  144.6580 N   0  0  0  0  0  0  0  0  0  0  0  0
  190.7590  170.4560  140.9560 C   0  0  0  0  0  3  0  0  0  0  0  0
  190.2080  172.0500  144.2590 C   0  0  0  0  0  2  0  0  0  0  0  0
  193.7640  176.8680  146.4620 C   0  0  0  0  0  3  0  0  0  0  0  0
  194.2640  175.4510  144.1410 C   0  0  0  0  0  3  0  0  0  0  0  0
  192.7650  176.0190  145.9550 C   0  0  0  0  0  0  0  0  0  0  0  0
  190.3010  170.7420  142.2010 N   0  0  0  0  0  0  0  0  0  0  0  0
  189.2780  174.8630  146.7440 C   0  0  0  0  0  2  0  0  0  0  0  0
  188.5810  176.6940  145.1530 N   0  0  0  0  0  2  0  0  0  0  0  0
  188.3210  175.9290  146.3280 C   0  0  0  0  0  0  0  0  0  0  0  0
  187.2960  176.1550  147.0240 O   0  0  0  0  0  0  0  0  0  0  0  0
  187.6980  177.7660  144.7050 C   0  0  0  0  0  2  0  0  0  0  0  0
  186.2190  178.5640  143.0100 C   0  0  0  0  0  2  0  0  0  0  0  0
  185.6820  178.3440  141.5970 C   0  0  0  0  0  2  0  0  0  0  0  0
  186.7430  177.6640  140.7320 C   0  0  0  0  0  2  0  0  0  0  0  0
  188.1210  177.1230  142.4350 C   0  0  0  0  0  2  0  0  0  0  0  0
  188.0210  177.9020  141.2620 O   0  0  0  0  0  0  0  0  0  0  0  0
  187.0680  177.4400  143.4250 N   0  0  0  0  0  0  0  0  0  0  0  0
  2  1  2  0  0  0  0
  3 13  1  0  0  0  0
  4 19  1  0  0  0  0
  5 12  2  0  0  0  0
  6 17  1  0  0  0  0
  7  4  1  0  0  0  0
  7  3  2  0  0  0  0
  8  3  1  0  0  0  0
  9 15  1  0  0  0  0
  9  5  1  0  0  0  0
 10  7  1  0  0  0  0
 11 16  1  6  0  0  0
 12 11  1  0  0  0  0
 12 10  1  0  0  0  0
 13  2  1  0  0  0  0
 13 21  1  0  0  0  0
 14  6  2  0  0  0  0
 15 20  2  0  0  0  0
 16  8  1  0  0  0  0
 18 14  1  0  0  0  0
 18  4  2  0  0  0  0
 19 17  2  0  0  0  0
 19  2  1  0  0  0  0
 20 11  1  0  0  0  0
 22 23  1  0  0  0  0
 23 21  1  0  0  0  0
 23 24  2  0  0  0  0
 25 22  1  0  0  0  0
 26 31  1  0  0  0  0
 27 26  1  0  0  0  0
 28 30  1  0  0  0  0
 28 27  1  0  0  0  0
 29 31  1  0  0  0  0
 30 29  1  0  0  0  0
 31 25  1  0  0  0  0
M  END
>  <MODEL>
8

>  <REMARK>
 VINA RESULT:      -6.9      2.708      6.467
  Name = 
  4 active torsions:
  status: ('A' for Active; 'I' for Inactive)
    1  A    between atoms: C_2  and  N_9
    2  A    between atoms: C_2  and  N_30
    3  A    between atoms: C_8  and  C_13
    4  A    between atoms: C_8  and  N_22
                            x       y       z     vdW  Elec       q    Type
                         _______ _______ _______ _____ _____    ______ ____

>  <TORSDO>
F 4

$$$$
=
 OpenBabel11062420573D

 31 35  0  0  1  0  0  0  0  0999 V2000
  187.9600  177.5270  146.4830 S   0  0  0  0  0  0  0  0  0  0  0  0
  188.3600  176.4490  145.2900 C   0  0  0  0  0  0  0  0  0  0  0  0
  189.3050  174.3470  144.6210 C   0  0  0  0  0  0  0  0  0  0  0  0
  188.3600  175.8120  142.9430 C   0  0  0  0  0  0  0  0  0  0  0  0
  190.0690  171.7880  140.9560 N   0  0  0  0  0  0  0  0  0  0  0  0
  187.0730  178.1810  142.2540 C   0  0  0  0  0  3  0  0  0  0  0  0
  189.0080  174.6120  143.2650 C   0  0  0  0  0  0  0  0  0  0  0  0
  189.9440  173.0510  145.0080 C   0  0  0  0  0  2  0  0  0  0  0  0
  190.8620  170.7050  140.7510 C   0  0  0  0  0  2  0  0  0  0  0  0
  189.2910  173.6880  142.1920 N   0  0  0  0  0  2  0  0  0  0  0  0
  191.1120  172.1850  143.0600 C   0  0  1  0  0  3  0  0  0  0  0  0
  190.1570  172.5440  142.0830 C   0  0  0  0  0  0  0  0  0  0  0  0
  188.9940  175.2650  145.5970 N   0  0  0  0  0  0  0  0  0  0  0  0
  187.4000  177.2730  141.3000 N   0  0  0  0  0  0  0  0  0  0  0  0
  191.8000  170.3540  141.7170 C   0  0  0  0  0  3  0  0  0  0  0  0
  191.2850  172.9380  144.3270 C   0  0  0  0  0  2  0  0  0  0  0  0
  187.3820  177.9320  143.5900 C   0  0  0  0  0  3  0  0  0  0  0  0
  188.0280  176.1100  141.6130 C   0  0  0  0  0  3  0  0  0  0  0  0
  188.0320  176.7390  143.9510 C   0  0  0  0  0  0  0  0  0  0  0  0
  191.9040  171.1010  142.8450 N   0  0  0  0  0  0  0  0  0  0  0  0
  189.3560  174.9730  146.9910 C   0  0  0  0  0  2  0  0  0  0  0  0
  191.5150  176.0510  146.2500 N   0  0  0  0  0  2  0  0  0  0  0  0
  190.7420  175.4440  147.2830 C   0  0  0  0  0  0  0  0  0  0  0  0
  191.2230  175.2900  148.4360 O   0  0  0  0  0  0  0  0  0  0  0  0
  192.8830  176.5100  146.4640 C   0  0  0  0  0  2  0  0  0  0  0  0
  194.6240  175.6590  145.0690 C   0  0  0  0  0  2  0  0  0  0  0  0
  195.2660  175.7010  143.6840 C   0  0  0  0  0  2  0  0  0  0  0  0
  194.2160  176.0420  142.6280 C   0  0  0  0  0  2  0  0  0  0  0  0
  192.6090  176.6590  144.0870 C   0  0  0  0  0  2  0  0  0  0  0  0
  192.9350  175.7070  143.0970 O   0  0  0  0  0  0  0  0  0  0  0  0
  193.5890  176.6940  145.1950 N   0  0  0  0  0  0  0  0  0  0  0  0
  2 13  1  0  0  0  0
  2  1  2  0  0  0  0
  3  8  1  0  0  0  0
  3 13  1  0  0  0  0
  4  7  1  0  0  0  0
  4 19  1  0  0  0  0
  5 12  2  0  0  0  0
  6 17  1  0  0  0  0
  7  3  2  0  0  0  0
  9  5  1  0  0  0  0
  9 15  1  0  0  0  0
 10  7  1  0  0  0  0
 11 16  1  1  0  0  0
 12 10  1  0  0  0  0
 12 11  1  0  0  0  0
 13 21  1  0  0  0  0
 14 18  1  0  0  0  0
 14  6  2  0  0  0  0
 15 20  2  0  0  0  0
 16  8  1  0  0  0  0
 17 19  2  0  0  0  0
 18  4  2  0  0  0  0
 19  2  1  0  0  0  0
 20 11  1  0  0  0  0
 21 23  1  0  0  0  0
 22 25  1  0  0  0  0
 22 23  1  0  0  0  0
 23 24  2  0  0  0  0
 26 31  1  0  0  0  0
 27 26  1  0  0  0  0
 28 30  1  0  0  0  0
 28 27  1  0  0  0  0
 29 31  1  0  0  0  0
 30 29  1  0  0  0  0
 31 25  1  0  0  0  0
M  END
>  <MODEL>
9

>  <REMARK>
 VINA RESULT:      -6.8      2.506      5.786
  Name = 
  4 active torsions:
  status: ('A' for Active; 'I' for Inactive)
    1  A    between atoms: C_2  and  N_9
    2  A    between atoms: C_2  and  N_30
    3  A    between atoms: C_8  and  C_13
    4  A    between atoms: C_8  and  N_22
                            x       y       z     vdW  Elec       q    Type
                         _______ _______ _______ _____ _____    ______ ____

>  <TORSDO>
F 4

$$$$
