=
 OpenBabel11072409413D

 25 27  0  0  1  0  0  0  0  0999 V2000
  187.1710  177.2040  145.5290 C   0  0  2  0  0  3  0  0  0  0  0  0
  190.0580  173.6770  145.5920 Cl  0  0  0  0  0  0  0  0  0  0  0  0
  189.6930  177.6130  144.9960 C   0  0  0  0  0  3  0  0  0  0  0  0
  185.2740  177.1620  142.8000 O   0  0  0  0  0  1  0  0  0  0  0  0
  188.0160  177.4860  143.1580 C   0  0  0  0  0  2  0  0  0  0  0  0
  188.2500  177.8500  144.6170 C   0  0  1  0  0  3  0  0  0  0  0  0
  185.7070  178.4770  142.6140 C   0  0  1  0  0  3  0  0  0  0  0  0
  190.2090  176.4510  145.4260 C   0  0  0  0  0  0  0  0  0  0  0  0
  189.2800  175.2820  145.6430 C   0  0  2  0  0  3  0  0  0  0  0  0
  185.1280  179.4160  143.6790 C   0  0  0  0  0  2  0  0  0  0  0  0
  185.8710  179.4160  145.0160 C   0  0  0  0  0  2  0  0  0  0  0  0
  185.9270  178.0490  145.6350 C   0  0  0  0  0  0  0  0  0  0  0  0
  188.4080  175.4570  146.8880 C   0  0  0  0  0  2  0  0  0  0  0  0
  187.2280  178.5750  142.4290 C   0  0  0  0  0  2  0  0  0  0  0  0
  187.6920  176.8140  146.9180 C   0  0  0  0  0  2  0  0  0  0  0  0
  184.8220  177.5340  146.1750 C   0  0  0  0  0  2  0  0  0  0  0  0
  191.6220  176.4160  145.8760 C   0  0  0  0  0  0  0  0  0  0  0  0
  191.8850  176.5810  147.0970 O   0  0  0  0  0  0  0  0  0  0  0  0
  195.8500  176.4160  143.5830 O   0  0  0  0  0  0  0  0  0  0  0  0
  193.8010  175.4510  143.1880 N   0  0  0  0  0  2  0  0  0  0  0  0
  194.0170  176.6980  145.0130 C   0  0  0  0  0  0  0  0  0  0  0  0
  192.7340  176.2010  144.9270 C   0  0  0  0  0  0  0  0  0  0  0  0
  194.6520  176.2070  143.9050 C   0  0  0  0  0  0  0  0  0  0  0  0
  192.6630  175.4700  143.8310 O   0  0  0  0  0  0  0  0  0  0  0  0
  194.5660  177.5400  146.0220 N   0  0  0  0  0  1  0  0  0  0  0  0
  1 12  1  0  0  0  0
  1 15  1  1  0  0  0
  3  8  2  0  0  0  0
  6  5  1  6  0  0  0
  6  3  1  0  0  0  0
  6  1  1  0  0  0  0
  7  4  1  1  0  0  0
  7 10  1  0  0  0  0
  8  9  1  0  0  0  0
  8 17  1  0  0  0  0
  9  2  1  1  0  0  0
  9 13  1  0  0  0  0
 10 11  1  0  0  0  0
 11 12  1  0  0  0  0
 12 16  2  0  0  0  0
 13 15  1  0  0  0  0
 14  7  1  0  0  0  0
 14  5  1  0  0  0  0
 17 18  2  0  0  0  0
 19 23  2  0  0  0  0
 20 24  1  0  0  0  0
 20 23  1  0  0  0  0
 21 25  1  0  0  0  0
 22 21  2  0  0  0  0
 22 17  1  0  0  0  0
 23 21  1  0  0  0  0
 24 22  1  0  0  0  0
M  END
>  <MODEL>
1

>  <REMARK>
 VINA RESULT:      -8.8      0.000      0.000
  Name = 
  2 active torsions:
  status: ('A' for Active; 'I' for Inactive)
    1  A    between atoms: C_5  and  C_12
    2  A    between atoms: C_5  and  C_13
                            x       y       z     vdW  Elec       q    Type
                         _______ _______ _______ _____ _____    ______ ____

>  <TORSDO>
F 2

$$$$
=
 OpenBabel11072409413D

 25 27  0  0  1  0  0  0  0  0999 V2000
  187.2510  177.9730  144.5830 C   0  0  2  0  0  3  0  0  0  0  0  0
  191.7840  177.5060  144.6740 Cl  0  0  0  0  0  0  0  0  0  0  0  0
  188.2800  175.6520  145.1870 C   0  0  0  0  0  3  0  0  0  0  0  0
  186.1550  179.6240  147.2520 O   0  0  0  0  0  1  0  0  0  0  0  0
  187.4040  177.1510  146.9730 C   0  0  0  0  0  2  0  0  0  0  0  0
  187.2760  176.7320  145.5170 C   0  0  1  0  0  3  0  0  0  0  0  0
  185.2890  178.5410  147.4270 C   0  0  1  0  0  3  0  0  0  0  0  0
  189.5470  175.8540  144.7950 C   0  0  0  0  0  0  0  0  0  0  0  0
  190.0180  177.2710  144.5700 C   0  0  2  0  0  3  0  0  0  0  0  0
  184.2210  178.4900  146.3270 C   0  0  0  0  0  2  0  0  0  0  0  0
  184.6740  177.8480  145.0150 C   0  0  0  0  0  2  0  0  0  0  0  0
  185.8640  178.5440  144.4230 C   0  0  0  0  0  0  0  0  0  0  0  0
  189.4330  177.8810  143.2950 C   0  0  0  0  0  2  0  0  0  0  0  0
  186.0390  177.2210  147.6580 C   0  0  0  0  0  2  0  0  0  0  0  0
  187.9080  177.7310  143.2180 C   0  0  0  0  0  2  0  0  0  0  0  0
  185.7030  179.7410  143.8580 C   0  0  0  0  0  2  0  0  0  0  0  0
  190.3690  174.6880  144.3900 C   0  0  0  0  0  0  0  0  0  0  0  0
  191.1440  174.1570  145.2310 O   0  0  0  0  0  0  0  0  0  0  0  0
  189.6370  171.9550  140.5000 O   0  0  0  0  0  0  0  0  0  0  0  0
  190.5660  174.0270  140.8660 N   0  0  0  0  0  2  0  0  0  0  0  0
  189.7900  172.9210  142.6280 C   0  0  0  0  0  0  0  0  0  0  0  0
  190.3110  174.1360  143.0210 C   0  0  0  0  0  0  0  0  0  0  0  0
  189.9700  172.8910  141.2720 C   0  0  0  0  0  0  0  0  0  0  0  0
  190.7530  174.7470  141.9390 O   0  0  0  0  0  0  0  0  0  0  0  0
  189.1990  171.9140  143.4440 N   0  0  0  0  0  1  0  0  0  0  0  0
  1 15  1  6  0  0  0
  1  6  1  0  0  0  0
  5 14  1  0  0  0  0
  6  3  1  6  0  0  0
  6  5  1  0  0  0  0
  7  4  1  6  0  0  0
  7 14  1  0  0  0  0
  8  3  2  0  0  0  0
  9  2  1  6  0  0  0
  9  8  1  0  0  0  0
 10  7  1  0  0  0  0
 11 10  1  0  0  0  0
 12  1  1  0  0  0  0
 12 11  1  0  0  0  0
 13  9  1  0  0  0  0
 15 13  1  0  0  0  0
 16 12  2  0  0  0  0
 17  8  1  0  0  0  0
 17 18  2  0  0  0  0
 19 23  2  0  0  0  0
 20 23  1  0  0  0  0
 20 24  1  0  0  0  0
 21 22  2  0  0  0  0
 21 25  1  0  0  0  0
 22 17  1  0  0  0  0
 23 21  1  0  0  0  0
 24 22  1  0  0  0  0
M  END
>  <MODEL>
2

>  <REMARK>
 VINA RESULT:      -8.1      3.041      4.289
  Name = 
  2 active torsions:
  status: ('A' for Active; 'I' for Inactive)
    1  A    between atoms: C_5  and  C_12
    2  A    between atoms: C_5  and  C_13
                            x       y       z     vdW  Elec       q    Type
                         _______ _______ _______ _____ _____    ______ ____

>  <TORSDO>
F 2

$$$$
=
 OpenBabel11072409413D

 25 27  0  0  1  0  0  0  0  0999 V2000
  187.5430  176.9740  145.1950 C   0  0  2  0  0  3  0  0  0  0  0  0
  190.3460  173.8780  143.3700 Cl  0  0  0  0  0  0  0  0  0  0  0  0
  189.6390  177.7810  143.8660 C   0  0  0  0  0  3  0  0  0  0  0  0
  184.7320  177.2400  143.4390 O   0  0  0  0  0  1  0  0  0  0  0  0
  187.3830  177.8160  142.8110 C   0  0  0  0  0  2  0  0  0  0  0  0
  188.1550  177.9120  144.1180 C   0  0  1  0  0  3  0  0  0  0  0  0
  185.0110  178.6080  143.4100 C   0  0  1  0  0  3  0  0  0  0  0  0
  190.3220  176.6280  143.7950 C   0  0  0  0  0  0  0  0  0  0  0  0
  189.5930  175.3360  144.0710 C   0  0  2  0  0  3  0  0  0  0  0  0
  184.8620  179.2430  144.7980 C   0  0  0  0  0  2  0  0  0  0  0  0
  186.0690  179.0710  145.7220 C   0  0  0  0  0  2  0  0  0  0  0  0
  186.4090  177.6260  145.9470 C   0  0  0  0  0  0  0  0  0  0  0  0
  189.2720  175.1570  145.5570 C   0  0  0  0  0  2  0  0  0  0  0  0
  186.3350  178.9230  142.6970 C   0  0  0  0  0  2  0  0  0  0  0  0
  188.5780  176.3850  146.1600 C   0  0  0  0  0  2  0  0  0  0  0  0
  185.6220  176.8860  146.7280 C   0  0  0  0  0  2  0  0  0  0  0  0
  191.7990  176.6760  143.6640 C   0  0  0  0  0  0  0  0  0  0  0  0
  192.3110  177.0120  142.5620 O   0  0  0  0  0  0  0  0  0  0  0  0
  195.3360  174.9840  146.4510 O   0  0  0  0  0  0  0  0  0  0  0  0
  193.4560  176.2560  146.8230 N   0  0  0  0  0  2  0  0  0  0  0  0
  193.8500  175.5840  144.7430 C   0  0  0  0  0  0  0  0  0  0  0  0
  192.6900  176.3280  144.7900 C   0  0  0  0  0  0  0  0  0  0  0  0
  194.2980  175.5610  146.0360 C   0  0  0  0  0  0  0  0  0  0  0  0
  192.5070  176.7010  146.0430 O   0  0  0  0  0  0  0  0  0  0  0  0
  194.4510  174.9680  143.6090 N   0  0  0  0  0  1  0  0  0  0  0  0
  1 12  1  0  0  0  0
  1 15  1  1  0  0  0
  3  6  1  0  0  0  0
  6  5  1  6  0  0  0
  6  1  1  0  0  0  0
  7  4  1  1  0  0  0
  7 10  1  0  0  0  0
  8  3  2  0  0  0  0
  8  9  1  0  0  0  0
  9  2  1  1  0  0  0
  9 13  1  0  0  0  0
 10 11  1  0  0  0  0
 11 12  1  0  0  0  0
 12 16  2  0  0  0  0
 13 15  1  0  0  0  0
 14  5  1  0  0  0  0
 14  7  1  0  0  0  0
 17  8  1  0  0  0  0
 17 22  1  0  0  0  0
 18 17  2  0  0  0  0
 21 22  2  0  0  0  0
 21 23  1  0  0  0  0
 22 24  1  0  0  0  0
 23 19  2  0  0  0  0
 23 20  1  0  0  0  0
 24 20  1  0  0  0  0
 25 21  1  0  0  0  0
M  END
>  <MODEL>
3

>  <REMARK>
 VINA RESULT:      -7.9      1.371      1.995
  Name = 
  2 active torsions:
  status: ('A' for Active; 'I' for Inactive)
    1  A    between atoms: C_5  and  C_12
    2  A    between atoms: C_5  and  C_13
                            x       y       z     vdW  Elec       q    Type
                         _______ _______ _______ _____ _____    ______ ____

>  <TORSDO>
F 2

$$$$
=
 OpenBabel11072409413D

 25 27  0  0  1  0  0  0  0  0999 V2000
  187.0150  177.5300  145.0910 C   0  0  2  0  0  3  0  0  0  0  0  0
  189.0650  174.2540  147.5100 Cl  0  0  0  0  0  0  0  0  0  0  0  0
  189.6150  177.5460  145.3090 C   0  0  0  0  0  3  0  0  0  0  0  0
  185.9820  176.3860  142.1450 O   0  0  0  0  0  1  0  0  0  0  0  0
  188.5250  176.7070  143.2320 C   0  0  0  0  0  2  0  0  0  0  0  0
  188.4050  177.6600  144.4110 C   0  0  1  0  0  3  0  0  0  0  0  0
  186.6840  177.4660  141.6060 C   0  0  1  0  0  3  0  0  0  0  0  0
  189.7670  176.6670  146.3110 C   0  0  0  0  0  0  0  0  0  0  0  0
  188.6140  175.7550  146.6540 C   0  0  2  0  0  3  0  0  0  0  0  0
  186.0150  178.8020  141.9490 C   0  0  0  0  0  2  0  0  0  0  0  0
  186.3420  179.3520  143.3390 C   0  0  0  0  0  2  0  0  0  0  0  0
  185.9690  178.3930  144.4310 C   0  0  0  0  0  0  0  0  0  0  0  0
  187.4770  176.4970  147.3600 C   0  0  0  0  0  2  0  0  0  0  0  0
  188.1870  177.4020  141.9130 C   0  0  0  0  0  2  0  0  0  0  0  0
  187.0450  177.7620  146.6070 C   0  0  0  0  0  2  0  0  0  0  0  0
  184.6810  178.2180  144.7320 C   0  0  0  0  0  2  0  0  0  0  0  0
  190.9650  176.7660  147.1780 C   0  0  0  0  0  0  0  0  0  0  0  0
  190.8580  177.2830  148.3230 O   0  0  0  0  0  0  0  0  0  0  0  0
  194.6000  174.3300  145.1800 O   0  0  0  0  0  0  0  0  0  0  0  0
  194.4460  176.2170  146.4850 N   0  0  0  0  0  2  0  0  0  0  0  0
  192.5580  175.1790  145.9500 C   0  0  0  0  0  0  0  0  0  0  0  0
  192.2880  176.2820  146.7330 C   0  0  0  0  0  0  0  0  0  0  0  0
  193.9200  175.1730  145.8200 C   0  0  0  0  0  0  0  0  0  0  0  0
  193.4400  176.8580  147.0180 O   0  0  0  0  0  0  0  0  0  0  0  0
  191.6330  174.2460  145.4000 N   0  0  0  0  0  1  0  0  0  0  0  0
  1 15  1  1  0  0  0
  3  8  2  0  0  0  0
  6  5  1  6  0  0  0
  6  1  1  0  0  0  0
  6  3  1  0  0  0  0
  7 14  1  0  0  0  0
  7 10  1  0  0  0  0
  7  4  1  1  0  0  0
  8  9  1  0  0  0  0
  8 17  1  0  0  0  0
  9 13  1  0  0  0  0
  9  2  1  1  0  0  0
 10 11  1  0  0  0  0
 11 12  1  0  0  0  0
 12 16  2  0  0  0  0
 12  1  1  0  0  0  0
 14  5  1  0  0  0  0
 15 13  1  0  0  0  0
 17 18  2  0  0  0  0
 19 23  2  0  0  0  0
 20 24  1  0  0  0  0
 21 22  2  0  0  0  0
 22 24  1  0  0  0  0
 22 17  1  0  0  0  0
 23 21  1  0  0  0  0
 23 20  1  0  0  0  0
 25 21  1  0  0  0  0
M  END
>  <MODEL>
4

>  <REMARK>
 VINA RESULT:      -7.9      1.589      2.033
  Name = 
  2 active torsions:
  status: ('A' for Active; 'I' for Inactive)
    1  A    between atoms: C_5  and  C_12
    2  A    between atoms: C_5  and  C_13
                            x       y       z     vdW  Elec       q    Type
                         _______ _______ _______ _____ _____    ______ ____

>  <TORSDO>
F 2

$$$$
=
 OpenBabel11072409413D

 25 27  0  0  1  0  0  0  0  0999 V2000
  186.8500  178.1650  144.3280 C   0  0  2  0  0  3  0  0  0  0  0  0
  191.2640  177.8030  143.2470 Cl  0  0  0  0  0  0  0  0  0  0  0  0
  187.9710  175.8080  144.3250 C   0  0  0  0  0  3  0  0  0  0  0  0
  186.4560  179.3930  147.3920 O   0  0  0  0  0  1  0  0  0  0  0  0
  187.5740  177.0170  146.4670 C   0  0  0  0  0  2  0  0  0  0  0  0
  187.0890  176.8060  145.0410 C   0  0  1  0  0  3  0  0  0  0  0  0
  185.6480  178.2760  147.6150 C   0  0  1  0  0  3  0  0  0  0  0  0
  189.1060  176.0960  143.6700 C   0  0  0  0  0  0  0  0  0  0  0  0
  189.5230  177.5410  143.5430 C   0  0  2  0  0  3  0  0  0  0  0  0
  184.3440  178.3540  146.8130 C   0  0  0  0  0  2  0  0  0  0  0  0
  184.4550  177.9160  145.3510 C   0  0  0  0  0  2  0  0  0  0  0  0
  185.4720  178.7180  144.5940 C   0  0  0  0  0  0  0  0  0  0  0  0
  188.6510  178.3110  142.5500 C   0  0  0  0  0  2  0  0  0  0  0  0
  186.4170  176.9560  147.4650 C   0  0  0  0  0  2  0  0  0  0  0  0
  187.1510  178.1350  142.8250 C   0  0  0  0  0  2  0  0  0  0  0  0
  185.1910  179.9790  144.2630 C   0  0  0  0  0  2  0  0  0  0  0  0
  189.7920  175.0190  142.9150 C   0  0  0  0  0  0  0  0  0  0  0  0
  189.7520  175.0270  141.6550 O   0  0  0  0  0  0  0  0  0  0  0  0
  193.1050  172.1960  144.9620 O   0  0  0  0  0  0  0  0  0  0  0  0
  190.8330  172.0450  144.6380 N   0  0  0  0  0  2  0  0  0  0  0  0
  191.8630  173.8600  143.8790 C   0  0  0  0  0  0  0  0  0  0  0  0
  190.5140  173.9280  143.6010 C   0  0  0  0  0  0  0  0  0  0  0  0
  192.0220  172.6650  144.5270 C   0  0  0  0  0  0  0  0  0  0  0  0
  189.9550  172.8310  144.0740 O   0  0  0  0  0  0  0  0  0  0  0  0
  192.8730  174.8120  143.5610 N   0  0  0  0  0  1  0  0  0  0  0  0
  1 15  1  6  0  0  0
  1 12  1  0  0  0  0
  1  6  1  0  0  0  0
  5 14  1  0  0  0  0
  6  3  1  6  0  0  0
  6  5  1  0  0  0  0
  7  4  1  6  0  0  0
  8  3  2  0  0  0  0
  9  2  1  6  0  0  0
  9  8  1  0  0  0  0
 10  7  1  0  0  0  0
 11 10  1  0  0  0  0
 12 11  1  0  0  0  0
 13 15  1  0  0  0  0
 13  9  1  0  0  0  0
 14  7  1  0  0  0  0
 16 12  2  0  0  0  0
 17 22  1  0  0  0  0
 17  8  1  0  0  0  0
 18 17  2  0  0  0  0
 21 23  1  0  0  0  0
 22 21  2  0  0  0  0
 22 24  1  0  0  0  0
 23 20  1  0  0  0  0
 23 19  2  0  0  0  0
 24 20  1  0  0  0  0
 25 21  1  0  0  0  0
M  END
>  <MODEL>
5

>  <REMARK>
 VINA RESULT:      -7.7      2.843      3.961
  Name = 
  2 active torsions:
  status: ('A' for Active; 'I' for Inactive)
    1  A    between atoms: C_5  and  C_12
    2  A    between atoms: C_5  and  C_13
                            x       y       z     vdW  Elec       q    Type
                         _______ _______ _______ _____ _____    ______ ____

>  <TORSDO>
F 2

$$$$
=
 OpenBabel11072409413D

 25 27  0  0  1  0  0  0  0  0999 V2000
  187.1020  178.0310  144.4750 C   0  0  2  0  0  3  0  0  0  0  0  0
  191.6150  178.2670  143.8810 Cl  0  0  0  0  0  0  0  0  0  0  0  0
  188.5740  175.9590  145.0680 C   0  0  0  0  0  3  0  0  0  0  0  0
  186.1490  179.7380  147.1640 O   0  0  0  0  0  1  0  0  0  0  0  0
  187.7330  177.4680  146.8630 C   0  0  0  0  0  2  0  0  0  0  0  0
  187.4650  176.9010  145.4770 C   0  0  1  0  0  3  0  0  0  0  0  0
  185.5070  178.5580  147.5480 C   0  0  1  0  0  3  0  0  0  0  0  0
  189.7200  176.3140  144.4670 C   0  0  0  0  0  0  0  0  0  0  0  0
  189.9150  177.7580  144.0740 C   0  0  2  0  0  3  0  0  0  0  0  0
  184.3140  178.2440  146.6370 C   0  0  0  0  0  2  0  0  0  0  0  0
  184.6700  177.5580  145.3170 C   0  0  0  0  0  2  0  0  0  0  0  0
  185.6320  178.3690  144.4980 C   0  0  0  0  0  0  0  0  0  0  0  0
  189.0590  178.1520  142.8690 C   0  0  0  0  0  2  0  0  0  0  0  0
  186.4880  177.3940  147.7480 C   0  0  0  0  0  2  0  0  0  0  0  0
  187.5840  177.7650  143.0440 C   0  0  0  0  0  2  0  0  0  0  0  0
  185.1970  179.4700  143.8840 C   0  0  0  0  0  2  0  0  0  0  0  0
  190.6540  175.2530  144.0190 C   0  0  0  0  0  0  0  0  0  0  0  0
  190.2200  174.3100  143.3030 O   0  0  0  0  0  0  0  0  0  0  0  0
  194.8430  175.2650  146.3830 O   0  0  0  0  0  0  0  0  0  0  0  0
  194.2430  175.2710  144.1630 N   0  0  0  0  0  2  0  0  0  0  0  0
  192.6120  175.2590  145.6710 C   0  0  0  0  0  0  0  0  0  0  0  0
  192.0820  175.2640  144.3980 C   0  0  0  0  0  0  0  0  0  0  0  0
  193.9670  175.2650  145.4800 C   0  0  0  0  0  0  0  0  0  0  0  0
  193.0910  175.2690  143.5470 O   0  0  0  0  0  0  0  0  0  0  0  0
  191.9140  175.2550  146.9120 N   0  0  0  0  0  1  0  0  0  0  0  0
  1 15  1  6  0  0  0
  1 12  1  0  0  0  0
  1  6  1  0  0  0  0
  5 14  1  0  0  0  0
  6  3  1  6  0  0  0
  6  5  1  0  0  0  0
  7  4  1  6  0  0  0
  7 14  1  0  0  0  0
  8  3  2  0  0  0  0
  9  2  1  6  0  0  0
  9  8  1  0  0  0  0
 10  7  1  0  0  0  0
 11 10  1  0  0  0  0
 12 11  1  0  0  0  0
 13 15  1  0  0  0  0
 13  9  1  0  0  0  0
 16 12  2  0  0  0  0
 17 22  1  0  0  0  0
 17  8  1  0  0  0  0
 18 17  2  0  0  0  0
 20 23  1  0  0  0  0
 21 25  1  0  0  0  0
 22 21  2  0  0  0  0
 23 21  1  0  0  0  0
 23 19  2  0  0  0  0
 24 20  1  0  0  0  0
 24 22  1  0  0  0  0
M  END
>  <MODEL>
6

>  <REMARK>
 VINA RESULT:      -7.7      2.102      3.276
  Name = 
  2 active torsions:
  status: ('A' for Active; 'I' for Inactive)
    1  A    between atoms: C_5  and  C_12
    2  A    between atoms: C_5  and  C_13
                            x       y       z     vdW  Elec       q    Type
                         _______ _______ _______ _____ _____    ______ ____

>  <TORSDO>
F 2

$$$$
=
 OpenBabel11072409413D

 25 27  0  0  1  0  0  0  0  0999 V2000
  188.2130  176.5930  145.1210 C   0  0  2  0  0  3  0  0  0  0  0  0
  191.4820  173.4200  144.9630 Cl  0  0  0  0  0  0  0  0  0  0  0  0
  190.6620  177.3140  144.5750 C   0  0  0  0  0  3  0  0  0  0  0  0
  186.2800  176.4690  142.4190 O   0  0  0  0  0  1  0  0  0  0  0  0
  188.9740  177.0870  142.7560 C   0  0  0  0  0  2  0  0  0  0  0  0
  189.1930  177.4020  144.2280 C   0  0  1  0  0  3  0  0  0  0  0  0
  186.5570  177.8330  142.2950 C   0  0  1  0  0  3  0  0  0  0  0  0
  191.3140  176.1990  144.9370 C   0  0  0  0  0  0  0  0  0  0  0  0
  190.5280  174.9210  145.1060 C   0  0  2  0  0  3  0  0  0  0  0  0
  185.8960  178.6450  143.4150 C   0  0  0  0  0  2  0  0  0  0  0  0
  186.6610  178.6640  144.7400 C   0  0  0  0  0  2  0  0  0  0  0  0
  186.8830  177.2840  145.2860 C   0  0  0  0  0  0  0  0  0  0  0  0
  189.6660  174.9340  146.3710 C   0  0  0  0  0  2  0  0  0  0  0  0
  188.0530  178.1130  142.0940 C   0  0  0  0  0  2  0  0  0  0  0  0
  188.8020  176.1970  146.4810 C   0  0  0  0  0  2  0  0  0  0  0  0
  185.8540  176.6200  145.8140 C   0  0  0  0  0  2  0  0  0  0  0  0
  192.7300  176.3030  145.3650 C   0  0  0  0  0  0  0  0  0  0  0  0
  192.9940  176.6590  146.5450 O   0  0  0  0  0  0  0  0  0  0  0  0
  196.8380  174.8210  143.3490 O   0  0  0  0  0  0  0  0  0  0  0  0
  194.9800  175.9410  142.5890 N   0  0  0  0  0  2  0  0  0  0  0  0
  195.0210  175.3490  144.7290 C   0  0  0  0  0  0  0  0  0  0  0  0
  193.8440  176.0090  144.4410 C   0  0  0  0  0  0  0  0  0  0  0  0
  195.7040  175.3290  143.5430 C   0  0  0  0  0  0  0  0  0  0  0  0
  193.8730  176.3330  143.1630 O   0  0  0  0  0  0  0  0  0  0  0  0
  195.4420  174.8100  145.9780 N   0  0  0  0  0  1  0  0  0  0  0  0
  1 12  1  0  0  0  0
  1 15  1  1  0  0  0
  3  8  2  0  0  0  0
  6  5  1  6  0  0  0
  6  3  1  0  0  0  0
  6  1  1  0  0  0  0
  7  4  1  1  0  0  0
  7 10  1  0  0  0  0
  8  9  1  0  0  0  0
  8 17  1  0  0  0  0
  9  2  1  1  0  0  0
  9 13  1  0  0  0  0
 10 11  1  0  0  0  0
 11 12  1  0  0  0  0
 12 16  2  0  0  0  0
 13 15  1  0  0  0  0
 14  7  1  0  0  0  0
 14  5  1  0  0  0  0
 17 18  2  0  0  0  0
 19 23  2  0  0  0  0
 20 24  1  0  0  0  0
 20 23  1  0  0  0  0
 21 25  1  0  0  0  0
 22 21  2  0  0  0  0
 22 17  1  0  0  0  0
 23 21  1  0  0  0  0
 24 22  1  0  0  0  0
M  END
>  <MODEL>
7

>  <REMARK>
 VINA RESULT:      -7.6      1.304      1.431
  Name = 
  2 active torsions:
  status: ('A' for Active; 'I' for Inactive)
    1  A    between atoms: C_5  and  C_12
    2  A    between atoms: C_5  and  C_13
                            x       y       z     vdW  Elec       q    Type
                         _______ _______ _______ _____ _____    ______ ____

>  <TORSDO>
F 2

$$$$
=
 OpenBabel11072409413D

 25 27  0  0  1  0  0  0  0  0999 V2000
  191.5110  176.1430  144.7080 C   0  0  2  0  0  3  0  0  0  0  0  0
  188.7830  178.2110  141.6980 Cl  0  0  0  0  0  0  0  0  0  0  0  0
  189.0740  175.2650  144.3850 C   0  0  0  0  0  3  0  0  0  0  0  0
  193.7720  174.2440  143.1810 O   0  0  0  0  0  1  0  0  0  0  0  0
  190.9960  174.0820  143.3290 C   0  0  0  0  0  2  0  0  0  0  0  0
  190.5470  174.9430  144.5000 C   0  0  1  0  0  3  0  0  0  0  0  0
  193.3190  173.2240  144.0220 C   0  0  1  0  0  3  0  0  0  0  0  0
  188.5490  176.2940  143.7030 C   0  0  0  0  0  0  0  0  0  0  0  0
  189.4840  177.2860  143.0540 C   0  0  2  0  0  3  0  0  0  0  0  0
  193.7060  173.4840  145.4830 C   0  0  0  0  0  2  0  0  0  0  0  0
  192.7830  174.4430  146.2370 C   0  0  0  0  0  2  0  0  0  0  0  0
  192.6950  175.7860  145.5720 C   0  0  0  0  0  0  0  0  0  0  0  0
  190.1650  178.1970  144.0770 C   0  0  0  0  0  2  0  0  0  0  0  0
  191.8360  172.8940  143.7980 C   0  0  0  0  0  2  0  0  0  0  0  0
  190.8160  177.4110  145.2230 C   0  0  0  0  0  2  0  0  0  0  0  0
  193.7320  176.6200  145.6490 C   0  0  0  0  0  2  0  0  0  0  0  0
  187.0900  176.5430  143.7900 C   0  0  0  0  0  0  0  0  0  0  0  0
  186.3010  175.8390  143.1050 O   0  0  0  0  0  0  0  0  0  0  0  0
  185.5970  179.2250  147.4940 O   0  0  0  0  0  0  0  0  0  0  0  0
  185.6260  179.4990  145.2110 N   0  0  0  0  0  2  0  0  0  0  0  0
  186.4430  177.6040  146.0310 C   0  0  0  0  0  0  0  0  0  0  0  0
  186.5340  177.6050  144.6550 C   0  0  0  0  0  0  0  0  0  0  0  0
  185.8680  178.8070  146.3390 C   0  0  0  0  0  0  0  0  0  0  0  0
  186.0380  178.7490  144.2240 O   0  0  0  0  0  0  0  0  0  0  0  0
  186.8500  176.5830  146.9360 N   0  0  0  0  0  1  0  0  0  0  0  0
  1 15  1  1  0  0  0
  1 12  1  0  0  0  0
  3  6  1  0  0  0  0
  5 14  1  0  0  0  0
  6  5  1  6  0  0  0
  6  1  1  0  0  0  0
  7  4  1  6  0  0  0
  7 10  1  0  0  0  0
  8 17  1  0  0  0  0
  8  3  2  0  0  0  0
  9  2  1  6  0  0  0
  9  8  1  0  0  0  0
  9 13  1  0  0  0  0
 10 11  1  0  0  0  0
 12 16  2  0  0  0  0
 12 11  1  0  0  0  0
 13 15  1  0  0  0  0
 14  7  1  0  0  0  0
 17 22  1  0  0  0  0
 18 17  2  0  0  0  0
 20 23  1  0  0  0  0
 21 23  1  0  0  0  0
 21 25  1  0  0  0  0
 22 21  2  0  0  0  0
 23 19  2  0  0  0  0
 24 22  1  0  0  0  0
 24 20  1  0  0  0  0
M  END
>  <MODEL>
8

>  <REMARK>
 VINA RESULT:      -7.5      3.383      7.160
  Name = 
  2 active torsions:
  status: ('A' for Active; 'I' for Inactive)
    1  A    between atoms: C_5  and  C_12
    2  A    between atoms: C_5  and  C_13
                            x       y       z     vdW  Elec       q    Type
                         _______ _______ _______ _____ _____    ______ ____

>  <TORSDO>
F 2

$$$$
=
 OpenBabel11072409413D

 25 27  0  0  1  0  0  0  0  0999 V2000
  187.0860  177.5290  143.3010 C   0  0  2  0  0  3  0  0  0  0  0  0
  191.4160  177.5430  144.7230 Cl  0  0  0  0  0  0  0  0  0  0  0  0
  187.7150  176.2370  145.4790 C   0  0  0  0  0  3  0  0  0  0  0  0
  185.6040  180.4400  143.9200 O   0  0  0  0  0  1  0  0  0  0  0  0
  186.6250  178.4730  145.6060 C   0  0  0  0  0  2  0  0  0  0  0  0
  186.7780  177.2000  144.7880 C   0  0  1  0  0  3  0  0  0  0  0  0
  184.6150  179.6770  144.5460 C   0  0  1  0  0  3  0  0  0  0  0  0
  189.0510  176.2210  145.3580 C   0  0  0  0  0  0  0  0  0  0  0  0
  189.7020  177.1770  144.3890 C   0  0  2  0  0  3  0  0  0  0  0  0
  183.8160  178.8500  143.5310 C   0  0  0  0  0  2  0  0  0  0  0  0
  184.4770  177.5410  143.0970 C   0  0  0  0  0  2  0  0  0  0  0  0
  185.8330  177.7640  142.4940 C   0  0  0  0  0  0  0  0  0  0  0  0
  189.4760  176.7700  142.9310 C   0  0  0  0  0  2  0  0  0  0  0  0
  185.1570  178.8790  145.7410 C   0  0  0  0  0  2  0  0  0  0  0  0
  187.9980  176.5030  142.6180 C   0  0  0  0  0  2  0  0  0  0  0  0
  185.9240  178.2910  141.2720 C   0  0  0  0  0  2  0  0  0  0  0  0
  189.8180  175.1310  146.0080 C   0  0  0  0  0  0  0  0  0  0  0  0
  189.9930  175.1580  147.2570 O   0  0  0  0  0  0  0  0  0  0  0  0
  192.7480  172.0070  143.8190 O   0  0  0  0  0  0  0  0  0  0  0  0
  190.4660  172.2170  144.0110 N   0  0  0  0  0  2  0  0  0  0  0  0
  191.7290  173.7410  145.0180 C   0  0  0  0  0  0  0  0  0  0  0  0
  190.3940  174.0150  145.2300 C   0  0  0  0  0  0  0  0  0  0  0  0
  191.7310  172.6090  144.2500 C   0  0  0  0  0  0  0  0  0  0  0  0
  189.6940  173.0810  144.6140 O   0  0  0  0  0  0  0  0  0  0  0  0
  192.8590  174.4710  145.4860 N   0  0  0  0  0  1  0  0  0  0  0  0
  1 15  1  6  0  0  0
  1  6  1  0  0  0  0
  5 14  1  0  0  0  0
  6  3  1  1  0  0  0
  6  5  1  0  0  0  0
  7  4  1  6  0  0  0
  7 14  1  0  0  0  0
  8  3  2  0  0  0  0
  8 17  1  0  0  0  0
  9  2  1  1  0  0  0
  9  8  1  0  0  0  0
 10  7  1  0  0  0  0
 11 10  1  0  0  0  0
 12 11  1  0  0  0  0
 12  1  1  0  0  0  0
 13  9  1  0  0  0  0
 15 13  1  0  0  0  0
 16 12  2  0  0  0  0
 17 18  2  0  0  0  0
 19 23  2  0  0  0  0
 20 23  1  0  0  0  0
 20 24  1  0  0  0  0
 21 22  2  0  0  0  0
 21 25  1  0  0  0  0
 22 17  1  0  0  0  0
 23 21  1  0  0  0  0
 24 22  1  0  0  0  0
M  END
>  <MODEL>
9

>  <REMARK>
 VINA RESULT:      -7.3      2.510      3.467
  Name = 
  2 active torsions:
  status: ('A' for Active; 'I' for Inactive)
    1  A    between atoms: C_5  and  C_12
    2  A    between atoms: C_5  and  C_13
                            x       y       z     vdW  Elec       q    Type
                         _______ _______ _______ _____ _____    ______ ____

>  <TORSDO>
F 2

$$$$
