=
 OpenBabel11062420153D

 25 27  0  0  1  0  0  0  0  0999 V2000
  189.6340  173.7090  142.6190 C   0  0  1  0  0  3  0  0  0  0  0  0
  190.2880  174.1280  145.0560 C   0  0  0  0  0  3  0  0  0  0  0  0
  190.8080  176.4410  146.0760 C   0  0  2  0  0  3  0  0  0  0  0  0
  194.6770  174.8110  145.6920 O   0  0  0  0  0  0  0  0  0  0  0  0
  189.4610  171.9070  144.5150 C   0  0  0  0  0  1  0  0  0  0  0  0
  194.2320  175.9880  143.1040 C   0  0  0  0  0  1  0  0  0  0  0  0
  190.7230  175.5740  144.8230 C   0  0  1  0  0  3  0  0  0  0  0  0
  189.8290  173.2900  144.0900 C   0  0  0  0  0  0  0  0  0  0  0  0
  190.8680  174.2810  141.9680 C   0  0  0  0  0  2  0  0  0  0  0  0
  191.8450  175.7250  143.8150 C   0  0  2  0  0  3  0  0  0  0  0  0
  189.1380  172.6580  141.8450 O   0  0  0  0  0  1  0  0  0  0  0  0
  193.7360  175.6270  145.4950 C   0  0  0  0  0  0  0  0  0  0  0  0
  193.2120  176.4070  146.6510 C   0  0  0  0  0  2  0  0  0  0  0  0
  191.5050  175.1110  142.7250 C   0  0  0  0  0  2  0  0  0  0  0  0
  191.8420  175.9130  147.0570 C   0  0  0  0  0  2  0  0  0  0  0  0
  193.2420  175.8370  144.1660 N   0  0  0  0  0  0  0  0  0  0  0  0
  188.5020  177.1210  146.1900 C   0  0  0  0  0  0  0  0  0  0  0  0
  187.1010  178.1440  144.5120 C   0  0  0  0  0  2  0  0  0  0  0  0
  188.5270  177.7310  144.8260 C   0  0  0  0  0  2  0  0  0  0  0  0
  186.9130  177.0930  146.9950 S   0  0  0  0  0  0  0  0  0  0  0  0
  186.1720  177.2730  145.3470 C   0  0  1  0  0  3  0  0  0  0  0  0
  189.5120  176.5150  146.7110 N   0  0  0  0  0  0  0  0  0  0  0  0
  184.1630  177.8410  146.5190 O   0  0  0  0  0  0  0  0  0  0  0  0
  184.8100  177.8780  145.4380 C   0  0  0  0  0  0  0  0  0  0  0  0
  184.2370  178.4980  144.2940 N   0  0  0  0  0  1  0  0  0  0  0  0
  1 11  1  6  0  0  0
  1  8  1  0  0  0  0
  3 22  1  1  0  0  0
  3 15  1  0  0  0  0
  6 16  1  0  0  0  0
  7  2  1  1  0  0  0
  7  3  1  0  0  0  0
  8  5  1  0  0  0  0
  8  2  2  0  0  0  0
  9  1  1  0  0  0  0
  9 14  1  0  0  0  0
 10 14  1  6  0  0  0
 10 16  1  0  0  0  0
 10  7  1  0  0  0  0
 12  4  2  0  0  0  0
 12 13  1  0  0  0  0
 13 15  1  0  0  0  0
 16 12  1  0  0  0  0
 17 22  2  0  0  0  0
 17 20  1  0  0  0  0
 18 19  1  0  0  0  0
 18 21  1  0  0  0  0
 19 17  1  0  0  0  0
 21 24  1  1  0  0  0
 21 20  1  0  0  0  0
 24 23  2  0  0  0  0
 25 24  1  0  0  0  0
M  END
>  <MODEL>
1

>  <REMARK>
 VINA RESULT:      -7.3      0.000      0.000
  Name = 
  2 active torsions:
  status: ('A' for Active; 'I' for Inactive)
    1  A    between atoms: C_4  and  N_22
    2  A    between atoms: C_19  and  C_20
                            x       y       z     vdW  Elec       q    Type
                         _______ _______ _______ _____ _____    ______ ____

>  <TORSDO>
F 2

$$$$
=
 OpenBabel11062420153D

 25 27  0  0  1  0  0  0  0  0999 V2000
  189.8640  173.8650  141.8370 C   0  0  1  0  0  3  0  0  0  0  0  0
  189.8040  173.8900  144.3940 C   0  0  0  0  0  3  0  0  0  0  0  0
  189.9990  176.0030  145.8630 C   0  0  2  0  0  3  0  0  0  0  0  0
  193.8330  174.3130  146.3240 O   0  0  0  0  0  0  0  0  0  0  0  0
  189.1800  171.8060  143.3080 C   0  0  0  0  0  1  0  0  0  0  0  0
  194.1220  175.8810  143.9290 C   0  0  0  0  0  1  0  0  0  0  0  0
  190.2750  175.3380  144.5170 C   0  0  1  0  0  3  0  0  0  0  0  0
  189.6420  173.2230  143.2210 C   0  0  0  0  0  0  0  0  0  0  0  0
  191.2260  174.4840  141.6520 C   0  0  0  0  0  2  0  0  0  0  0  0
  191.6340  175.5990  143.8970 C   0  0  2  0  0  3  0  0  0  0  0  0
  189.6140  172.9610  140.8030 O   0  0  0  0  0  1  0  0  0  0  0  0
  192.9780  175.1820  146.0010 C   0  0  0  0  0  0  0  0  0  0  0  0
  192.1440  175.7980  147.0720 C   0  0  0  0  0  2  0  0  0  0  0  0
  191.6180  175.1690  142.6740 C   0  0  0  0  0  2  0  0  0  0  0  0
  190.7200  175.2980  146.9990 C   0  0  0  0  0  2  0  0  0  0  0  0
  192.8760  175.6070  144.6360 N   0  0  0  0  0  0  0  0  0  0  0  0
  187.7720  176.8630  145.5570 C   0  0  0  0  0  0  0  0  0  0  0  0
  186.9350  178.4760  143.9680 C   0  0  0  0  0  2  0  0  0  0  0  0
  188.2020  177.8390  144.5100 C   0  0  0  0  0  2  0  0  0  0  0  0
  186.0180  176.7720  145.8530 S   0  0  0  0  0  0  0  0  0  0  0  0
  185.7880  177.5040  144.2080 C   0  0  1  0  0  3  0  0  0  0  0  0
  188.5760  176.0260  146.1150 N   0  0  0  0  0  0  0  0  0  0  0  0
  183.8340  178.2210  143.0240 O   0  0  0  0  0  0  0  0  0  0  0  0
  184.4700  178.1980  144.1120 C   0  0  0  0  0  0  0  0  0  0  0  0
  183.9280  178.8410  145.2600 N   0  0  0  0  0  1  0  0  0  0  0  0
  1 11  1  6  0  0  0
  1  8  1  0  0  0  0
  3 22  1  1  0  0  0
  3 15  1  0  0  0  0
  6 16  1  0  0  0  0
  7  2  1  1  0  0  0
  7  3  1  0  0  0  0
  8  5  1  0  0  0  0
  8  2  2  0  0  0  0
  9  1  1  0  0  0  0
  9 14  1  0  0  0  0
 10 14  1  6  0  0  0
 10  7  1  0  0  0  0
 10 16  1  0  0  0  0
 12  4  2  0  0  0  0
 12 13  1  0  0  0  0
 15 13  1  0  0  0  0
 16 12  1  0  0  0  0
 17 20  1  0  0  0  0
 17 22  2  0  0  0  0
 18 21  1  0  0  0  0
 18 19  1  0  0  0  0
 19 17  1  0  0  0  0
 21 24  1  1  0  0  0
 21 20  1  0  0  0  0
 23 24  2  0  0  0  0
 24 25  1  0  0  0  0
M  END
>  <MODEL>
2

>  <REMARK>
 VINA RESULT:      -7.0      1.167      1.200
  Name = 
  2 active torsions:
  status: ('A' for Active; 'I' for Inactive)
    1  A    between atoms: C_4  and  N_22
    2  A    between atoms: C_19  and  C_20
                            x       y       z     vdW  Elec       q    Type
                         _______ _______ _______ _____ _____    ______ ____

>  <TORSDO>
F 2

$$$$
=
 OpenBabel11062420153D

 25 27  0  0  1  0  0  0  0  0999 V2000
  191.5510  172.9590  142.1160 C   0  0  1  0  0  3  0  0  0  0  0  0
  192.0930  173.5360  144.5480 C   0  0  0  0  0  3  0  0  0  0  0  0
  192.0810  175.9160  145.5470 C   0  0  2  0  0  3  0  0  0  0  0  0
  196.2160  175.1920  145.1710 O   0  0  0  0  0  0  0  0  0  0  0  0
  191.7850  171.1810  144.0290 C   0  0  0  0  0  1  0  0  0  0  0  0
  195.5200  176.2160  142.5730 C   0  0  0  0  0  1  0  0  0  0  0  0
  192.1920  175.0410  144.3010 C   0  0  1  0  0  3  0  0  0  0  0  0
  191.8340  172.6080  143.5900 C   0  0  0  0  0  0  0  0  0  0  0  0
  192.6250  173.7870  141.4580 C   0  0  0  0  0  2  0  0  0  0  0  0
  193.2520  175.4310  143.2900 C   0  0  2  0  0  3  0  0  0  0  0  0
  191.3030  171.8170  141.3520 O   0  0  0  0  0  1  0  0  0  0  0  0
  195.1160  175.7740  144.9680 C   0  0  0  0  0  0  0  0  0  0  0  0
  194.4300  176.4270  146.1180 C   0  0  0  0  0  2  0  0  0  0  0  0
  193.0590  174.7460  142.2060 C   0  0  0  0  0  2  0  0  0  0  0  0
  193.2060  175.6420  146.5300 C   0  0  0  0  0  2  0  0  0  0  0  0
  194.5880  175.8560  143.6380 N   0  0  0  0  0  0  0  0  0  0  0  0
  189.7410  176.3700  145.8830 C   0  0  0  0  0  0  0  0  0  0  0  0
  188.2320  177.7620  144.6140 C   0  0  0  0  0  2  0  0  0  0  0  0
  189.6890  177.3700  144.7740 C   0  0  0  0  0  2  0  0  0  0  0  0
  188.1800  175.9880  146.6520 S   0  0  0  0  0  0  0  0  0  0  0  0
  187.3830  176.6150  145.1470 C   0  0  1  0  0  3  0  0  0  0  0  0
  190.8010  175.7020  146.1830 N   0  0  0  0  0  0  0  0  0  0  0  0
  185.3890  176.6860  146.4700 O   0  0  0  0  0  0  0  0  0  0  0  0
  185.9890  177.0690  145.4300 C   0  0  0  0  0  0  0  0  0  0  0  0
  185.3320  177.9390  144.5170 N   0  0  0  0  0  1  0  0  0  0  0  0
  1 11  1  6  0  0  0
  1  8  1  0  0  0  0
  3 22  1  1  0  0  0
  3 15  1  0  0  0  0
  6 16  1  0  0  0  0
  7  2  1  1  0  0  0
  7  3  1  0  0  0  0
  8  5  1  0  0  0  0
  8  2  2  0  0  0  0
  9  1  1  0  0  0  0
  9 14  1  0  0  0  0
 10 14  1  6  0  0  0
 10 16  1  0  0  0  0
 10  7  1  0  0  0  0
 12  4  2  0  0  0  0
 12 13  1  0  0  0  0
 13 15  1  0  0  0  0
 16 12  1  0  0  0  0
 17 22  2  0  0  0  0
 17 20  1  0  0  0  0
 18 19  1  0  0  0  0
 18 21  1  0  0  0  0
 19 17  1  0  0  0  0
 21 24  1  1  0  0  0
 21 20  1  0  0  0  0
 24 23  2  0  0  0  0
 25 24  1  0  0  0  0
M  END
>  <MODEL>
3

>  <REMARK>
 VINA RESULT:      -6.6      1.557      1.681
  Name = 
  2 active torsions:
  status: ('A' for Active; 'I' for Inactive)
    1  A    between atoms: C_4  and  N_22
    2  A    between atoms: C_19  and  C_20
                            x       y       z     vdW  Elec       q    Type
                         _______ _______ _______ _____ _____    ______ ____

>  <TORSDO>
F 2

$$$$
=
 OpenBabel11062420153D

 25 27  0  0  1  0  0  0  0  0999 V2000
  191.4190  173.1840  142.1920 C   0  0  1  0  0  3  0  0  0  0  0  0
  191.4180  174.1850  144.5460 C   0  0  0  0  0  3  0  0  0  0  0  0
  191.8940  176.6580  145.1070 C   0  0  2  0  0  3  0  0  0  0  0  0
  195.5090  174.8310  146.2720 O   0  0  0  0  0  0  0  0  0  0  0  0
  190.5280  171.9330  144.3170 C   0  0  0  0  0  1  0  0  0  0  0  0
  195.9310  175.3250  143.4690 C   0  0  0  0  0  1  0  0  0  0  0  0
  192.0600  175.5050  144.1220 C   0  0  1  0  0  3  0  0  0  0  0  0
  191.1520  173.1470  143.7100 C   0  0  0  0  0  0  0  0  0  0  0  0
  192.8410  173.5210  141.8200 C   0  0  0  0  0  2  0  0  0  0  0  0
  193.4270  175.3480  143.4840 C   0  0  2  0  0  3  0  0  0  0  0  0
  191.0410  171.9910  141.5720 O   0  0  0  0  0  1  0  0  0  0  0  0
  194.7570  175.6060  145.6220 C   0  0  0  0  0  0  0  0  0  0  0  0
  194.0260  176.6760  146.3570 C   0  0  0  0  0  2  0  0  0  0  0  0
  193.3330  174.4910  142.5160 C   0  0  0  0  0  2  0  0  0  0  0  0
  192.5500  176.3570  146.4440 C   0  0  0  0  0  2  0  0  0  0  0  0
  194.6760  175.4900  144.1950 N   0  0  0  0  0  0  0  0  0  0  0  0
  189.7470  177.4760  144.3880 C   0  0  0  0  0  0  0  0  0  0  0  0
  189.0080  178.1830  142.2020 C   0  0  0  0  0  2  0  0  0  0  0  0
  190.2280  177.7680  143.0040 C   0  0  0  0  0  2  0  0  0  0  0  0
  188.0050  177.7160  144.6670 S   0  0  0  0  0  0  0  0  0  0  0  0
  187.7850  177.5710  142.8710 C   0  0  1  0  0  3  0  0  0  0  0  0
  190.4900  176.9430  145.2960 N   0  0  0  0  0  0  0  0  0  0  0  0
  186.0150  179.1620  143.1360 O   0  0  0  0  0  0  0  0  0  0  0  0
  186.5340  178.2570  142.4300 C   0  0  0  0  0  0  0  0  0  0  0  0
  185.9230  177.8840  141.2010 N   0  0  0  0  0  1  0  0  0  0  0  0
  1 11  1  1  0  0  0
  1  8  1  0  0  0  0
  3 22  1  1  0  0  0
  3 15  1  0  0  0  0
  6 16  1  0  0  0  0
  7  2  1  1  0  0  0
  7  3  1  0  0  0  0
  8  5  1  0  0  0  0
  8  2  2  0  0  0  0
  9  1  1  0  0  0  0
  9 14  1  0  0  0  0
 10 14  1  1  0  0  0
 10  7  1  0  0  0  0
 10 16  1  0  0  0  0
 12  4  2  0  0  0  0
 12 13  1  0  0  0  0
 13 15  1  0  0  0  0
 16 12  1  0  0  0  0
 17 20  1  0  0  0  0
 17 22  2  0  0  0  0
 18 21  1  0  0  0  0
 18 19  1  0  0  0  0
 19 17  1  0  0  0  0
 21 24  1  6  0  0  0
 21 20  1  0  0  0  0
 24 23  2  0  0  0  0
 25 24  1  0  0  0  0
M  END
>  <MODEL>
4

>  <REMARK>
 VINA RESULT:      -6.5      1.987      2.174
  Name = 
  2 active torsions:
  status: ('A' for Active; 'I' for Inactive)
    1  A    between atoms: C_4  and  N_22
    2  A    between atoms: C_19  and  C_20
                            x       y       z     vdW  Elec       q    Type
                         _______ _______ _______ _____ _____    ______ ____

>  <TORSDO>
F 2

$$$$
=
 OpenBabel11062420153D

 25 27  0  0  1  0  0  0  0  0999 V2000
  189.8290  176.6730  145.8400 C   0  0  1  0  0  3  0  0  0  0  0  0
  189.8130  174.1630  145.3490 C   0  0  0  0  0  3  0  0  0  0  0  0
  191.0500  173.0270  143.3880 C   0  0  2  0  0  3  0  0  0  0  0  0
  187.0670  172.9590  142.0110 O   0  0  0  0  0  0  0  0  0  0  0  0
  188.9020  174.8610  147.4920 C   0  0  0  0  0  1  0  0  0  0  0  0
  187.9800  175.5510  141.1600 C   0  0  0  0  0  1  0  0  0  0  0  0
  190.4380  174.3030  143.9610 C   0  0  1  0  0  3  0  0  0  0  0  0
  189.5190  175.2010  146.1750 C   0  0  0  0  0  0  0  0  0  0  0  0
  189.2460  177.1480  144.5330 C   0  0  0  0  0  2  0  0  0  0  0  0
  189.6290  175.1560  143.0040 C   0  0  2  0  0  3  0  0  0  0  0  0
  189.4350  177.5300  146.8690 O   0  0  0  0  0  1  0  0  0  0  0  0
  188.2920  173.2530  142.0040 C   0  0  0  0  0  0  0  0  0  0  0  0
  189.2910  172.1530  141.8880 C   0  0  0  0  0  2  0  0  0  0  0  0
  189.3870  176.2960  143.5730 C   0  0  0  0  0  2  0  0  0  0  0  0
  190.0080  171.9370  143.2010 C   0  0  0  0  0  2  0  0  0  0  0  0
  188.6960  174.6280  142.0360 N   0  0  0  0  0  0  0  0  0  0  0  0
  193.3160  173.0040  144.1990 C   0  0  0  0  0  0  0  0  0  0  0  0
  195.1600  174.4780  143.6950 C   0  0  0  0  0  2  0  0  0  0  0  0
  193.7360  174.1240  143.3040 C   0  0  0  0  0  2  0  0  0  0  0  0
  194.5440  172.4400  145.3600 S   0  0  0  0  0  0  0  0  0  0  0  0
  195.3640  174.0450  145.1400 C   0  0  1  0  0  3  0  0  0  0  0  0
  192.1080  172.5600  144.2550 N   0  0  0  0  0  0  0  0  0  0  0  0
  197.1980  173.4160  146.5460 O   0  0  0  0  0  0  0  0  0  0  0  0
  196.8170  173.9510  145.4710 C   0  0  0  0  0  0  0  0  0  0  0  0
  197.7800  174.4730  144.5630 N   0  0  0  0  0  1  0  0  0  0  0  0
  1  8  1  0  0  0  0
  1 11  1  1  0  0  0
  2  8  2  0  0  0  0
  3  7  1  0  0  0  0
  3 22  1  1  0  0  0
  6 16  1  0  0  0  0
  7  2  1  1  0  0  0
  8  5  1  0  0  0  0
  9  1  1  0  0  0  0
 10 14  1  1  0  0  0
 10  7  1  0  0  0  0
 12  4  2  0  0  0  0
 12 16  1  0  0  0  0
 13 12  1  0  0  0  0
 13 15  1  0  0  0  0
 14  9  1  0  0  0  0
 15  3  1  0  0  0  0
 16 10  1  0  0  0  0
 17 22  2  0  0  0  0
 17 20  1  0  0  0  0
 18 21  1  0  0  0  0
 19 18  1  0  0  0  0
 19 17  1  0  0  0  0
 21 20  1  0  0  0  0
 21 24  1  6  0  0  0
 24 23  2  0  0  0  0
 25 24  1  0  0  0  0
M  END
>  <MODEL>
5

>  <REMARK>
 VINA RESULT:      -6.5      3.401      7.344
  Name = 
  2 active torsions:
  status: ('A' for Active; 'I' for Inactive)
    1  A    between atoms: C_4  and  N_22
    2  A    between atoms: C_19  and  C_20
                            x       y       z     vdW  Elec       q    Type
                         _______ _______ _______ _____ _____    ______ ____

>  <TORSDO>
F 2

$$$$
=
 OpenBabel11062420153D

 25 27  0  0  1  0  0  0  0  0999 V2000
  195.6650  176.3670  144.0010 C   0  0  1  0  0  3  0  0  0  0  0  0
  193.5340  175.2570  143.1250 C   0  0  0  0  0  3  0  0  0  0  0  0
  191.6380  174.3140  144.6000 C   0  0  2  0  0  3  0  0  0  0  0  0
  193.5640  170.7760  143.3600 O   0  0  0  0  0  0  0  0  0  0  0  0
  194.9180  176.4050  141.4880 C   0  0  0  0  0  1  0  0  0  0  0  0
  195.0780  171.5320  145.6880 C   0  0  0  0  0  1  0  0  0  0  0  0
  193.1070  174.7120  144.4870 C   0  0  1  0  0  3  0  0  0  0  0  0
  194.6700  175.9670  142.8940 C   0  0  0  0  0  0  0  0  0  0  0  0
  196.1870  175.2100  144.8150 C   0  0  0  0  0  2  0  0  0  0  0  0
  194.1150  173.7720  145.1190 C   0  0  2  0  0  3  0  0  0  0  0  0
  196.7360  177.1030  143.4900 O   0  0  0  0  0  1  0  0  0  0  0  0
  193.1340  171.6410  144.1700 C   0  0  0  0  0  0  0  0  0  0  0  0
  191.6640  171.8660  144.2620 C   0  0  0  0  0  2  0  0  0  0  0  0
  195.2690  174.3630  145.1440 C   0  0  0  0  0  2  0  0  0  0  0  0
  191.2830  173.1900  143.6400 C   0  0  0  0  0  2  0  0  0  0  0  0
  194.0510  172.3320  145.0280 N   0  0  0  0  0  0  0  0  0  0  0  0
  189.7470  175.7350  145.0440 C   0  0  0  0  0  0  0  0  0  0  0  0
  188.1890  175.7150  146.8880 C   0  0  0  0  0  2  0  0  0  0  0  0
  189.3330  174.9510  146.2470 C   0  0  0  0  0  2  0  0  0  0  0  0
  188.8120  177.2190  144.7310 S   0  0  0  0  0  0  0  0  0  0  0  0
  188.3200  177.1760  146.4780 C   0  0  1  0  0  3  0  0  0  0  0  0
  190.7980  175.4640  144.3510 N   0  0  0  0  0  0  0  0  0  0  0  0
  186.6050  178.1230  147.8540 O   0  0  0  0  0  0  0  0  0  0  0  0
  187.0370  177.9090  146.6890 C   0  0  0  0  0  0  0  0  0  0  0  0
  186.2950  178.3670  145.5660 N   0  0  0  0  0  1  0  0  0  0  0  0
  1 11  1  6  0  0  0
  1  9  1  0  0  0  0
  3 22  1  6  0  0  0
  4 12  2  0  0  0  0
  5  8  1  0  0  0  0
  7  2  1  6  0  0  0
  7  3  1  0  0  0  0
  7 10  1  0  0  0  0
  8  2  2  0  0  0  0
  8  1  1  0  0  0  0
  9 14  1  0  0  0  0
 10 14  1  6  0  0  0
 12 13  1  0  0  0  0
 12 16  1  0  0  0  0
 15 13  1  0  0  0  0
 15  3  1  0  0  0  0
 16 10  1  0  0  0  0
 16  6  1  0  0  0  0
 17 19  1  0  0  0  0
 19 18  1  0  0  0  0
 20 17  1  0  0  0  0
 20 21  1  0  0  0  0
 21 24  1  6  0  0  0
 21 18  1  0  0  0  0
 22 17  2  0  0  0  0
 24 23  2  0  0  0  0
 25 24  1  0  0  0  0
M  END
>  <MODEL>
6

>  <REMARK>
 VINA RESULT:      -6.5      2.490      4.542
  Name = 
  2 active torsions:
  status: ('A' for Active; 'I' for Inactive)
    1  A    between atoms: C_4  and  N_22
    2  A    between atoms: C_19  and  C_20
                            x       y       z     vdW  Elec       q    Type
                         _______ _______ _______ _____ _____    ______ ____

>  <TORSDO>
F 2

$$$$
=
 OpenBabel11062420153D

 25 27  0  0  1  0  0  0  0  0999 V2000
  192.4360  174.3370  140.9210 C   0  0  1  0  0  3  0  0  0  0  0  0
  190.9860  174.1260  143.0170 C   0  0  0  0  0  3  0  0  0  0  0  0
  189.9500  176.1050  144.3100 C   0  0  2  0  0  3  0  0  0  0  0  0
  193.1430  175.0340  146.8450 O   0  0  0  0  0  0  0  0  0  0  0  0
  191.4570  172.0720  141.8040 C   0  0  0  0  0  1  0  0  0  0  0  0
  194.3970  176.8330  144.9830 C   0  0  0  0  0  1  0  0  0  0  0  0
  191.0350  175.6160  143.3540 C   0  0  1  0  0  3  0  0  0  0  0  0
  191.6180  173.5480  141.9620 C   0  0  0  0  0  0  0  0  0  0  0  0
  193.5350  175.1860  141.5090 C   0  0  0  0  0  2  0  0  0  0  0  0
  192.4350  176.1500  143.5850 C   0  0  2  0  0  3  0  0  0  0  0  0
  192.9650  173.4990  139.9370 O   0  0  0  0  0  1  0  0  0  0  0  0
  192.4600  175.7750  146.0890 C   0  0  0  0  0  0  0  0  0  0  0  0
  191.0800  176.1490  146.5080 C   0  0  0  0  0  2  0  0  0  0  0  0
  193.1700  175.8320  142.5650 C   0  0  0  0  0  2  0  0  0  0  0  0
  190.0490  175.4300  145.6680 C   0  0  0  0  0  2  0  0  0  0  0  0
  193.0430  176.2970  144.8870 N   0  0  0  0  0  0  0  0  0  0  0  0
  187.6400  176.6550  143.9150 C   0  0  0  0  0  0  0  0  0  0  0  0
  186.4060  178.6560  144.4630 C   0  0  0  0  0  2  0  0  0  0  0  0
  187.7340  177.9470  144.6600 C   0  0  0  0  0  2  0  0  0  0  0  0
  186.0880  176.3450  143.0990 S   0  0  0  0  0  0  0  0  0  0  0  0
  185.7900  178.1340  143.1720 C   0  0  1  0  0  3  0  0  0  0  0  0
  188.6460  175.8710  143.7330 N   0  0  0  0  0  0  0  0  0  0  0  0
  183.6460  178.1170  142.1060 O   0  0  0  0  0  0  0  0  0  0  0  0
  184.3290  178.4350  143.1170 C   0  0  0  0  0  0  0  0  0  0  0  0
  183.7020  179.0870  144.2140 N   0  0  0  0  0  1  0  0  0  0  0  0
  1 11  1  6  0  0  0
  1  9  1  0  0  0  0
  1  8  1  0  0  0  0
  3 22  1  6  0  0  0
  3 15  1  0  0  0  0
  5  8  1  0  0  0  0
  7  2  1  1  0  0  0
  7 10  1  0  0  0  0
  7  3  1  0  0  0  0
  8  2  2  0  0  0  0
  9 14  1  0  0  0  0
 10 14  1  6  0  0  0
 10 16  1  0  0  0  0
 12 13  1  0  0  0  0
 12  4  2  0  0  0  0
 15 13  1  0  0  0  0
 16  6  1  0  0  0  0
 16 12  1  0  0  0  0
 17 19  1  0  0  0  0
 18 19  1  0  0  0  0
 20 21  1  0  0  0  0
 20 17  1  0  0  0  0
 21 24  1  1  0  0  0
 21 18  1  0  0  0  0
 22 17  2  0  0  0  0
 23 24  2  0  0  0  0
 24 25  1  0  0  0  0
M  END
>  <MODEL>
7

>  <REMARK>
 VINA RESULT:      -6.4      2.085      2.522
  Name = 
  2 active torsions:
  status: ('A' for Active; 'I' for Inactive)
    1  A    between atoms: C_4  and  N_22
    2  A    between atoms: C_19  and  C_20
                            x       y       z     vdW  Elec       q    Type
                         _______ _______ _______ _____ _____    ______ ____

>  <TORSDO>
F 2

$$$$
=
 OpenBabel11062420153D

 25 27  0  0  1  0  0  0  0  0999 V2000
  189.5700  176.9760  145.9720 C   0  0  1  0  0  3  0  0  0  0  0  0
  190.0410  174.6760  144.9570 C   0  0  0  0  0  3  0  0  0  0  0  0
  191.2400  174.2640  142.7090 C   0  0  2  0  0  3  0  0  0  0  0  0
  187.2280  173.5080  141.6630 O   0  0  0  0  0  0  0  0  0  0  0  0
  189.2750  174.7150  147.2650 C   0  0  0  0  0  1  0  0  0  0  0  0
  187.4400  176.3580  141.3190 C   0  0  0  0  0  1  0  0  0  0  0  0
  190.4410  175.2230  143.5880 C   0  0  1  0  0  3  0  0  0  0  0  0
  189.6340  175.4370  146.0080 C   0  0  0  0  0  0  0  0  0  0  0  0
  188.7390  177.5380  144.8470 C   0  0  0  0  0  2  0  0  0  0  0  0
  189.3520  176.0240  142.9010 C   0  0  2  0  0  3  0  0  0  0  0  0
  189.1310  177.5030  147.1890 O   0  0  0  0  0  1  0  0  0  0  0  0
  188.3490  174.0830  141.6240 C   0  0  0  0  0  0  0  0  0  0  0  0
  189.5410  173.2970  141.1980 C   0  0  0  0  0  2  0  0  0  0  0  0
  188.9410  176.9430  143.7180 C   0  0  0  0  0  2  0  0  0  0  0  0
  190.4460  173.0120  142.3750 C   0  0  0  0  0  2  0  0  0  0  0  0
  188.4430  175.4830  141.9180 N   0  0  0  0  0  0  0  0  0  0  0  0
  193.6160  174.4210  143.0650 C   0  0  0  0  0  0  0  0  0  0  0  0
  195.2210  175.9760  142.1550 C   0  0  0  0  0  2  0  0  0  0  0  0
  193.7780  175.5170  142.0620 C   0  0  0  0  0  2  0  0  0  0  0  0
  195.0800  173.9930  143.9840 S   0  0  0  0  0  0  0  0  0  0  0  0
  195.7290  175.6320  143.5480 C   0  0  1  0  0  3  0  0  0  0  0  0
  192.4750  173.9070  143.3710 N   0  0  0  0  0  0  0  0  0  0  0  0
  197.8690  176.6190  143.1270 O   0  0  0  0  0  0  0  0  0  0  0  0
  197.2210  175.6440  143.5930 C   0  0  0  0  0  0  0  0  0  0  0  0
  197.9170  174.5430  144.1650 N   0  0  0  0  0  1  0  0  0  0  0  0
  1  8  1  0  0  0  0
  1 11  1  1  0  0  0
  2  8  2  0  0  0  0
  3 22  1  1  0  0  0
  3  7  1  0  0  0  0
  6 16  1  0  0  0  0
  7  2  1  1  0  0  0
  8  5  1  0  0  0  0
  9  1  1  0  0  0  0
 10  7  1  0  0  0  0
 10 14  1  1  0  0  0
 12  4  2  0  0  0  0
 12 16  1  0  0  0  0
 13 12  1  0  0  0  0
 13 15  1  0  0  0  0
 14  9  1  0  0  0  0
 15  3  1  0  0  0  0
 16 10  1  0  0  0  0
 17 22  2  0  0  0  0
 17 20  1  0  0  0  0
 18 21  1  0  0  0  0
 19 18  1  0  0  0  0
 19 17  1  0  0  0  0
 21 24  1  6  0  0  0
 21 20  1  0  0  0  0
 23 24  2  0  0  0  0
 24 25  1  0  0  0  0
M  END
>  <MODEL>
8

>  <REMARK>
 VINA RESULT:      -6.3      3.298      7.417
  Name = 
  2 active torsions:
  status: ('A' for Active; 'I' for Inactive)
    1  A    between atoms: C_4  and  N_22
    2  A    between atoms: C_19  and  C_20
                            x       y       z     vdW  Elec       q    Type
                         _______ _______ _______ _____ _____    ______ ____

>  <TORSDO>
F 2

$$$$
=
 OpenBabel11062420153D

 25 27  0  0  1  0  0  0  0  0999 V2000
  190.8410  175.7290  144.8750 C   0  0  1  0  0  3  0  0  0  0  0  0
  190.1490  175.8530  142.4160 C   0  0  0  0  0  3  0  0  0  0  0  0
  187.9560  174.9020  141.4420 C   0  0  2  0  0  3  0  0  0  0  0  0
  190.7570  172.0350  140.1390 O   0  0  0  0  0  0  0  0  0  0  0  0
  192.0610  177.2000  143.0810 C   0  0  0  0  0  1  0  0  0  0  0  0
  190.0670  171.0890  142.7680 C   0  0  0  0  0  1  0  0  0  0  0  0
  188.9940  174.8630  142.5610 C   0  0  1  0  0  3  0  0  0  0  0  0
  190.9830  176.2240  143.4230 C   0  0  0  0  0  0  0  0  0  0  0  0
  190.8330  174.2280  145.0220 C   0  0  0  0  0  2  0  0  0  0  0  0
  189.4150  173.4900  143.0480 C   0  0  2  0  0  3  0  0  0  0  0  0
  191.8210  176.2770  145.7060 O   0  0  0  0  0  1  0  0  0  0  0  0
  189.7480  172.4770  140.7520 C   0  0  0  0  0  0  0  0  0  0  0  0
  188.6200  173.0410  139.9580 C   0  0  0  0  0  2  0  0  0  0  0  0
  190.1050  173.6340  144.1360 C   0  0  0  0  0  2  0  0  0  0  0  0
  188.5640  174.5450  140.0960 C   0  0  0  0  0  2  0  0  0  0  0  0
  189.6760  172.3660  142.1790 N   0  0  0  0  0  0  0  0  0  0  0  0
  186.6460  176.7120  142.3380 C   0  0  0  0  0  0  0  0  0  0  0  0
  185.7600  177.0350  144.5590 C   0  0  0  0  0  2  0  0  0  0  0  0
  186.4600  176.0350  143.6570 C   0  0  0  0  0  2  0  0  0  0  0  0
  186.0040  178.3700  142.2230 S   0  0  0  0  0  0  0  0  0  0  0  0
  186.0720  178.4300  144.0360 C   0  0  1  0  0  3  0  0  0  0  0  0
  187.3500  176.2130  141.3820 N   0  0  0  0  0  0  0  0  0  0  0  0
  185.2050  180.6510  144.2630 O   0  0  0  0  0  0  0  0  0  0  0  0
  185.1060  179.4330  144.5730 C   0  0  0  0  0  0  0  0  0  0  0  0
  184.0640  179.0100  145.4440 N   0  0  0  0  0  1  0  0  0  0  0  0
  1  9  1  0  0  0  0
  1 11  1  1  0  0  0
  2  8  2  0  0  0  0
  3 22  1  6  0  0  0
  3  7  1  0  0  0  0
  4 12  2  0  0  0  0
  5  8  1  0  0  0  0
  7  2  1  6  0  0  0
  7 10  1  0  0  0  0
  8  1  1  0  0  0  0
 10 14  1  6  0  0  0
 12 16  1  0  0  0  0
 13 15  1  0  0  0  0
 13 12  1  0  0  0  0
 14  9  1  0  0  0  0
 15  3  1  0  0  0  0
 16  6  1  0  0  0  0
 16 10  1  0  0  0  0
 17 19  1  0  0  0  0
 19 18  1  0  0  0  0
 20 17  1  0  0  0  0
 20 21  1  0  0  0  0
 21 18  1  0  0  0  0
 21 24  1  1  0  0  0
 22 17  2  0  0  0  0
 23 24  2  0  0  0  0
 24 25  1  0  0  0  0
M  END
>  <MODEL>
9

>  <REMARK>
 VINA RESULT:      -6.2      2.702      4.865
  Name = 
  2 active torsions:
  status: ('A' for Active; 'I' for Inactive)
    1  A    between atoms: C_4  and  N_22
    2  A    between atoms: C_19  and  C_20
                            x       y       z     vdW  Elec       q    Type
                         _______ _______ _______ _____ _____    ______ ____

>  <TORSDO>
F 2

$$$$
