=
 OpenBabel11062421453D

 41 47  0  0  1  0  0  0  0  0999 V2000
  189.1200  176.8500  144.8360 C   0  0  0  0  0  2  0  0  0  0  0  0
  193.7340  171.5900  145.2460 C   0  0  0  0  0  1  0  0  0  0  0  0
  196.8100  173.5240  143.7550 C   0  0  0  0  0  0  0  0  0  0  0  0
  191.3410  176.7810  146.0380 C   0  0  0  0  0  2  0  0  0  0  0  0
  194.3670  176.1250  141.1360 S   0  0  0  0  0  0  0  0  0  0  0  0
  193.2950  176.4100  142.4050 C   0  0  0  0  0  3  0  0  0  0  0  0
  189.1440  175.4880  142.6650 C   0  0  2  0  0  3  0  0  0  0  0  0
  192.1210  171.4550  142.8590 C   0  0  0  0  0  2  0  0  0  0  0  0
  197.2620  173.6810  142.4280 C   0  0  0  0  0  3  0  0  0  0  0  0
  189.8200  173.0110  140.2130 C   0  0  0  0  0  2  0  0  0  0  0  0
  191.7030  176.1860  144.7480 N   0  0  2  0  0  0  0  0  0  0  0  0
  195.6420  174.1760  144.1870 C   0  0  0  0  0  3  0  0  0  0  0  0
  191.8520  170.8450  140.5180 N   0  0  0  0  0  2  0  0  0  0  0  0
  197.3850  171.2940  144.2270 O   0  0  0  0  0  0  0  0  0  0  0  0
  197.5290  172.6050  144.6780 C   0  0  0  0  0  2  0  0  0  0  0  0
  194.7130  169.4140  144.4390 C   0  0  0  0  0  2  0  0  0  0  0  0
  193.5300  170.9100  142.8140 C   0  0  2  0  0  3  0  0  0  0  0  0
  196.5580  174.4900  141.5280 C   0  0  0  0  0  3  0  0  0  0  0  0
  190.2090  172.3830  141.5220 C   0  0  1  0  0  3  0  0  0  0  0  0
  196.9170  169.1860  145.2390 C   0  0  0  0  0  2  0  0  0  0  0  0
  194.9410  174.9780  143.2750 C   0  0  0  0  0  0  0  0  0  0  0  0
  197.6810  170.4920  145.3370 C   0  0  0  0  0  2  0  0  0  0  0  0
  190.8430  175.0240  144.5170 C   0  0  0  0  0  2  0  0  0  0  0  0
  188.9870  174.1270  142.1150 N   0  0  2  0  0  0  0  0  0  0  0  0
  191.6680  171.9350  141.4820 C   0  0  1  0  0  3  0  0  0  0  0  0
  193.0760  175.7110  144.8600 C   0  0  0  0  0  2  0  0  0  0  0  0
  189.8530  177.0150  146.1680 C   0  0  0  0  0  2  0  0  0  0  0  0
  190.0460  173.3610  142.5130 O   0  0  0  0  0  0  0  0  0  0  0  0
  194.3810  170.8570  144.0650 C   0  0  1  0  0  3  0  0  0  0  0  0
  195.4040  175.1210  141.9800 C   0  0  0  0  0  0  0  0  0  0  0  0
  195.5340  169.3740  145.6450 N   0  0  2  0  0  0  0  0  0  0  0  0
  189.4050  175.4840  144.1940 C   0  0  1  0  0  3  0  0  0  0  0  0
  193.7580  175.6900  143.5190 C   0  0  0  0  0  0  0  0  0  0  0  0
  194.0320  170.4860  141.6530 C   0  0  0  0  0  3  0  0  0  0  0  0
  189.0520  174.2050  140.6610 C   0  0  0  0  0  2  0  0  0  0  0  0
  193.2300  170.5420  140.4660 N   0  0  0  0  0  0  0  0  0  0  0  0
  195.1700  168.1870  146.4090 C   0  0  0  0  0  3  0  0  0  0  0  0
  194.6460  168.5730  147.6280 O   0  0  0  0  0  0  0  0  0  0  0  0
  193.8110  168.1670  146.6540 O   0  0  0  0  0  0  0  0  0  0  0  0
  186.7400  175.6720  142.7140 O   0  0  0  0  0  1  0  0  0  0  0  0
  187.9070  176.3230  142.3070 C   0  0  0  0  0  2  0  0  0  0  0  0
  1 27  1  0  0  0  0
  3 12  1  0  0  0  0
  3 15  1  0  0  0  0
  4 27  1  0  0  0  0
  5 30  1  0  0  0  0
  5  6  1  0  0  0  0
  6 33  2  0  0  0  0
  7 41  1  1  0  0  0
  7 32  1  0  0  0  0
  9  3  2  0  0  0  0
 10 35  1  0  0  0  0
 11 23  1  1  0  0  0
 11 26  1  0  0  0  0
 11  4  1  0  0  0  0
 13 25  1  0  0  0  0
 14 15  1  0  0  0  0
 14 22  1  0  0  0  0
 16 31  1  0  0  0  0
 17 34  1  6  0  0  0
 17  8  1  0  0  0  0
 17 29  1  0  0  0  0
 18 30  2  0  0  0  0
 18  9  1  0  0  0  0
 19 10  1  6  0  0  0
 19 28  1  0  0  0  0
 20 22  1  0  0  0  0
 20 31  1  0  0  0  0
 21 33  1  0  0  0  0
 21 12  2  0  0  0  0
 24 35  1  6  0  0  0
 24 28  1  0  0  0  0
 24  7  1  0  0  0  0
 25 19  1  0  0  0  0
 25  8  1  1  0  0  0
 29 16  1  0  0  0  0
 29  2  1  1  0  0  0
 30 21  1  0  0  0  0
 31 37  1  1  0  0  0
 32 23  1  6  0  0  0
 32  1  1  0  0  0  0
 33 26  1  0  0  0  0
 36 13  1  0  0  0  0
 36 34  2  0  0  0  0
 37 39  1  0  0  0  0
 37 38  1  0  0  0  0
 39 38  1  0  0  0  0
 41 40  1  0  0  0  0
M  END
>  <MODEL>
1

>  <REMARK>
 VINA RESULT:      -7.4      0.000      0.000
  Name = 
  2 active torsions:
  status: ('A' for Active; 'I' for Inactive)
    1  A    between atoms: C_7  and  C_11
    2  A    between atoms: C_12  and  N_36
                            x       y       z     vdW  Elec       q    Type
                         _______ _______ _______ _____ _____    ______ ____

>  <TORSDO>
F 2

$$$$
=
 OpenBabel11062421453D

 41 47  0  0  1  0  0  0  0  0999 V2000
  195.1900  168.7700  145.7050 C   0  0  0  0  0  2  0  0  0  0  0  0
  190.5030  173.9040  144.8120 C   0  0  0  0  0  1  0  0  0  0  0  0
  189.6050  173.0990  141.0740 C   0  0  0  0  0  0  0  0  0  0  0  0
  192.7660  168.6000  145.0110 C   0  0  0  0  0  2  0  0  0  0  0  0
  193.6160  171.5160  140.0730 S   0  0  0  0  0  0  0  0  0  0  0  0
  193.6300  170.6240  141.5020 C   0  0  0  0  0  3  0  0  0  0  0  0
  196.3170  170.8850  144.7980 C   0  0  2  0  0  3  0  0  0  0  0  0
  193.2120  174.8070  144.4120 C   0  0  0  0  0  2  0  0  0  0  0  0
  190.1700  173.5420  139.8600 C   0  0  0  0  0  3  0  0  0  0  0  0
  196.9300  174.2000  143.6830 C   0  0  0  0  0  2  0  0  0  0  0  0
  193.2250  169.7020  144.1600 N   0  0  2  0  0  0  0  0  0  0  0  0
  190.3080  172.1990  141.8950 C   0  0  0  0  0  3  0  0  0  0  0  0
  194.8150  176.2740  143.3150 N   0  0  0  0  0  2  0  0  0  0  0  0
  188.4350  174.9980  141.8140 O   0  0  0  0  0  0  0  0  0  0  0  0
  188.2950  173.6420  141.5230 C   0  0  0  0  0  2  0  0  0  0  0  0
  189.8810  176.3160  144.4400 C   0  0  0  0  0  2  0  0  0  0  0  0
  192.1020  175.4800  143.6380 C   0  0  2  0  0  3  0  0  0  0  0  0
  191.4330  173.0910  139.4560 C   0  0  0  0  0  3  0  0  0  0  0  0
  195.6670  174.2860  144.4950 C   0  0  1  0  0  3  0  0  0  0  0  0
  187.7010  176.4510  143.5570 C   0  0  0  0  0  2  0  0  0  0  0  0
  191.5740  171.7590  141.4850 C   0  0  0  0  0  0  0  0  0  0  0  0
  187.3360  175.3120  142.6250 C   0  0  0  0  0  2  0  0  0  0  0  0
  193.7740  170.7520  145.0180 C   0  0  0  0  0  2  0  0  0  0  0  0
  196.5210  172.3240  145.0530 N   0  0  2  0  0  0  0  0  0  0  0  0
  194.5370  174.8740  143.6550 C   0  0  1  0  0  3  0  0  0  0  0  0
  192.0520  170.2440  143.4840 C   0  0  0  0  0  2  0  0  0  0  0  0
  193.8180  168.1660  146.0080 C   0  0  0  0  0  2  0  0  0  0  0  0
  195.3350  172.9800  144.8800 O   0  0  0  0  0  0  0  0  0  0  0  0
  190.6540  175.1200  143.8890 C   0  0  1  0  0  3  0  0  0  0  0  0
  192.1080  172.2050  140.2890 C   0  0  0  0  0  0  0  0  0  0  0  0
  188.4850  175.9590  144.6780 N   0  0  2  0  0  0  0  0  0  0  0  0
  195.1290  170.3020  145.6070 C   0  0  1  0  0  3  0  0  0  0  0  0
  192.4230  170.8810  142.1730 C   0  0  0  0  0  0  0  0  0  0  0  0
  192.4080  176.3890  142.7120 C   0  0  0  0  0  3  0  0  0  0  0  0
  197.4370  172.8480  144.0460 C   0  0  0  0  0  2  0  0  0  0  0  0
  193.7800  176.7260  142.4680 N   0  0  0  0  0  0  0  0  0  0  0  0
  188.0190  176.6880  145.8510 C   0  0  0  0  0  3  0  0  0  0  0  0
  187.8270  175.7990  146.8920 O   0  0  0  0  0  0  0  0  0  0  0  0
  188.9280  176.5730  146.8850 O   0  0  0  0  0  0  0  0  0  0  0  0
  197.9300  169.2570  144.0450 O   0  0  0  0  0  1  0  0  0  0  0  0
  197.6210  170.1310  145.0900 C   0  0  0  0  0  2  0  0  0  0  0  0
  1 27  1  0  0  0  0
  3 15  1  0  0  0  0
  3 12  1  0  0  0  0
  4 27  1  0  0  0  0
  5 30  1  0  0  0  0
  5  6  1  0  0  0  0
  6 33  2  0  0  0  0
  7 24  1  0  0  0  0
  7 41  1  1  0  0  0
  7 32  1  0  0  0  0
  9  3  2  0  0  0  0
 10 35  1  0  0  0  0
 11 26  1  1  0  0  0
 11  4  1  0  0  0  0
 11 23  1  0  0  0  0
 13 25  1  0  0  0  0
 14 22  1  0  0  0  0
 15 14  1  0  0  0  0
 16 31  1  0  0  0  0
 17 34  1  6  0  0  0
 17 29  1  0  0  0  0
 17  8  1  0  0  0  0
 18  9  1  0  0  0  0
 18 30  2  0  0  0  0
 19 10  1  6  0  0  0
 19 28  1  0  0  0  0
 20 31  1  0  0  0  0
 21 12  2  0  0  0  0
 21 33  1  0  0  0  0
 22 20  1  0  0  0  0
 24 35  1  6  0  0  0
 25  8  1  1  0  0  0
 25 19  1  0  0  0  0
 28 24  1  0  0  0  0
 29 16  1  0  0  0  0
 29  2  1  1  0  0  0
 30 21  1  0  0  0  0
 31 37  1  1  0  0  0
 32 23  1  6  0  0  0
 32  1  1  0  0  0  0
 33 26  1  0  0  0  0
 36 34  2  0  0  0  0
 36 13  1  0  0  0  0
 37 39  1  0  0  0  0
 37 38  1  0  0  0  0
 39 38  1  0  0  0  0
 40 41  1  0  0  0  0
M  END
>  <MODEL>
2

>  <REMARK>
 VINA RESULT:      -7.1      2.137      7.995
  Name = 
  2 active torsions:
  status: ('A' for Active; 'I' for Inactive)
    1  A    between atoms: C_7  and  C_11
    2  A    between atoms: C_12  and  N_36
                            x       y       z     vdW  Elec       q    Type
                         _______ _______ _______ _____ _____    ______ ____

>  <TORSDO>
F 2

$$$$
=
 OpenBabel11062421453D

 41 47  0  0  1  0  0  0  0  0999 V2000
  189.7550  173.3940  145.3900 C   0  0  0  0  0  2  0  0  0  0  0  0
  194.4660  174.0030  140.2370 C   0  0  0  0  0  1  0  0  0  0  0  0
  196.8330  171.0900  141.3950 C   0  0  0  0  0  0  0  0  0  0  0  0
  190.5080  171.6560  143.7170 C   0  0  0  0  0  2  0  0  0  0  0  0
  195.9540  171.6020  145.7030 S   0  0  0  0  0  0  0  0  0  0  0  0
  194.3080  171.7210  145.3610 C   0  0  0  0  0  3  0  0  0  0  0  0
  191.6530  174.9750  146.0730 C   0  0  2  0  0  3  0  0  0  0  0  0
  194.9630  175.8390  142.4040 C   0  0  0  0  0  2  0  0  0  0  0  0
  197.9410  171.0760  142.2670 C   0  0  0  0  0  3  0  0  0  0  0  0
  194.5660  177.0040  146.0380 C   0  0  0  0  0  2  0  0  0  0  0  0
  191.7950  172.2200  144.1330 N   0  0  2  0  0  0  0  0  0  0  0  0
  195.5330  171.2580  141.9040 C   0  0  0  0  0  3  0  0  0  0  0  0
  196.5080  177.1300  143.7730 N   0  0  0  0  0  2  0  0  0  0  0  0
  197.7020  172.1520  139.4870 O   0  0  0  0  0  0  0  0  0  0  0  0
  197.0480  171.0030  139.9250 C   0  0  0  0  0  2  0  0  0  0  0  0
  196.4160  175.1410  139.1200 C   0  0  0  0  0  2  0  0  0  0  0  0
  196.1390  175.3270  141.6040 C   0  0  0  0  0  0  0  0  0  0  0  0
  197.7610  171.2240  143.6480 C   0  0  0  0  0  3  0  0  0  0  0  0
  194.2050  176.8110  144.5910 C   0  0  1  0  0  3  0  0  0  0  0  0
  197.4740  173.6440  137.6400 C   0  0  0  0  0  2  0  0  0  0  0  0
  195.3650  171.4120  143.2860 C   0  0  0  0  0  0  0  0  0  0  0  0
  197.4680  172.2010  138.1060 C   0  0  0  0  0  2  0  0  0  0  0  0
  191.7710  173.6620  143.8830 C   0  0  0  0  0  2  0  0  0  0  0  0
  192.3800  176.1970  145.6770 N   0  0  2  0  0  0  0  0  0  0  0  0
  195.3770  176.1970  143.8300 C   0  0  1  0  0  3  0  0  0  0  0  0
  192.8200  171.6350  143.2780 C   0  0  0  0  0  2  0  0  0  0  0  0
  189.3330  172.4130  144.2940 C   0  0  0  0  0  2  0  0  0  0  0  0
  193.1100  175.9370  144.5530 O   0  0  0  0  0  0  0  0  0  0  0  0
  195.9260  174.4480  140.3900 C   0  0  1  0  0  3  0  0  0  0  0  0
  196.4650  171.3930  144.1240 C   0  0  0  0  0  0  0  0  0  0  0  0
  196.2080  174.2850  137.9560 N   0  0  2  0  0  0  0  0  0  0  0  0
  190.8430  174.3610  144.9000 C   0  0  1  0  0  3  0  0  0  0  0  0
  194.1560  171.6030  143.9700 C   0  0  0  0  0  0  0  0  0  0  0  0
  197.3770  175.6420  141.9840 C   0  0  0  0  0  3  0  0  0  0  0  0
  193.3360  176.5260  146.7280 C   0  0  0  0  0  2  0  0  0  0  0  0
  197.5810  176.4680  143.1380 N   0  0  0  0  0  2  0  0  0  0  0  0
  195.8860  175.1330  136.8150 C   0  0  0  0  0  3  0  0  0  0  0  0
  194.8020  174.5990  136.1430 O   0  0  0  0  0  0  0  0  0  0  0  0
  194.6160  175.6610  136.9480 O   0  0  0  0  0  0  0  0  0  0  0  0
  189.9470  176.3990  147.0070 O   0  0  0  0  0  1  0  0  0  0  0  0
  190.7520  175.2900  147.2740 C   0  0  0  0  0  2  0  0  0  0  0  0
  3 12  2  0  0  0  0
  3  9  1  0  0  0  0
  4 11  1  0  0  0  0
  4 27  1  0  0  0  0
  6  5  1  0  0  0  0
  7 41  1  1  0  0  0
  9 18  2  0  0  0  0
 10 35  1  0  0  0  0
 11 26  1  6  0  0  0
 12 21  1  0  0  0  0
 13 25  1  0  0  0  0
 14 15  1  0  0  0  0
 15  3  1  0  0  0  0
 16 29  1  0  0  0  0
 17 34  2  0  0  0  0
 17  8  1  0  0  0  0
 18 30  1  0  0  0  0
 19 10  1  1  0  0  0
 20 31  1  0  0  0  0
 20 22  1  0  0  0  0
 21 33  1  0  0  0  0
 21 30  2  0  0  0  0
 22 14  1  0  0  0  0
 23 11  1  0  0  0  0
 24  7  1  0  0  0  0
 24 35  1  1  0  0  0
 25  8  1  6  0  0  0
 25 19  1  0  0  0  0
 26 33  1  0  0  0  0
 27  1  1  0  0  0  0
 28 19  1  0  0  0  0
 28 24  1  0  0  0  0
 29  2  1  6  0  0  0
 29 17  1  0  0  0  0
 30  5  1  0  0  0  0
 31 37  1  6  0  0  0
 31 16  1  0  0  0  0
 32 23  1  6  0  0  0
 32  1  1  0  0  0  0
 32  7  1  0  0  0  0
 33  6  2  0  0  0  0
 34 36  1  0  0  0  0
 36 13  1  0  0  0  0
 37 39  1  0  0  0  0
 38 37  1  0  0  0  0
 38 39  1  0  0  0  0
 40 41  1  0  0  0  0
M  END
>  <MODEL>
3

>  <REMARK>
 VINA RESULT:      -7.0      3.499      6.454
  Name = 
  2 active torsions:
  status: ('A' for Active; 'I' for Inactive)
    1  A    between atoms: C_7  and  C_11
    2  A    between atoms: C_12  and  N_36
                            x       y       z     vdW  Elec       q    Type
                         _______ _______ _______ _____ _____    ______ ____

>  <TORSDO>
F 2

$$$$
=
 OpenBabel11062421453D

 41 47  0  0  1  0  0  0  0  0999 V2000
  188.4450  177.9220  143.7580 C   0  0  0  0  0  2  0  0  0  0  0  0
  193.3240  174.5940  139.9850 C   0  0  0  0  0  1  0  0  0  0  0  0
  191.5070  171.1160  139.7990 C   0  0  0  0  0  0  0  0  0  0  0  0
  188.2020  176.7560  141.5290 C   0  0  0  0  0  2  0  0  0  0  0  0
  189.4990  171.5480  143.7200 S   0  0  0  0  0  0  0  0  0  0  0  0
  189.0650  173.1290  143.3330 C   0  0  0  0  0  3  0  0  0  0  0  0
  190.1410  176.7590  145.2860 C   0  0  2  0  0  3  0  0  0  0  0  0
  193.9310  174.6040  142.8040 C   0  0  0  0  0  2  0  0  0  0  0  0
  191.5470  169.9930  140.6520 C   0  0  0  0  0  3  0  0  0  0  0  0
  192.9500  174.9550  146.4960 C   0  0  0  0  0  2  0  0  0  0  0  0
  188.9820  175.7670  142.2790 N   0  0  2  0  0  0  0  0  0  0  0  0
  190.8530  172.2920  140.2070 C   0  0  0  0  0  3  0  0  0  0  0  0
  194.9300  173.5510  144.7580 N   0  0  0  0  0  2  0  0  0  0  0  0
  193.5970  171.0160  138.7280 O   0  0  0  0  0  0  0  0  0  0  0  0
  192.2250  171.0820  138.4960 C   0  0  0  0  0  2  0  0  0  0  0  0
  195.5500  173.4420  139.7370 C   0  0  0  0  0  2  0  0  0  0  0  0
  194.4040  173.4390  141.9650 C   0  0  0  0  0  0  0  0  0  0  0  0
  190.9330  170.0330  141.9100 C   0  0  0  0  0  3  0  0  0  0  0  0
  193.3340  175.3950  145.1110 C   0  0  1  0  0  3  0  0  0  0  0  0
  195.5310  172.0730  137.8190 C   0  0  0  0  0  2  0  0  0  0  0  0
  190.2480  172.3240  141.4710 C   0  0  0  0  0  0  0  0  0  0  0  0
  194.1900  171.4300  137.5280 C   0  0  0  0  0  2  0  0  0  0  0  0
  190.2080  176.4090  142.7550 C   0  0  0  0  0  2  0  0  0  0  0  0
  191.5800  176.6510  145.5970 N   0  0  2  0  0  0  0  0  0  0  0  0
  193.7070  174.1870  144.2560 C   0  0  1  0  0  3  0  0  0  0  0  0
  189.3610  174.7160  141.3430 C   0  0  0  0  0  2  0  0  0  0  0  0
  188.0260  178.0500  142.2920 C   0  0  0  0  0  2  0  0  0  0  0  0
  192.2150  176.0340  144.5570 O   0  0  0  0  0  0  0  0  0  0  0  0
  194.2070  173.4350  140.4640 C   0  0  1  0  0  3  0  0  0  0  0  0
  190.2970  171.2110  142.2890 C   0  0  0  0  0  0  0  0  0  0  0  0
  195.3500  173.4360  138.2910 N   0  0  2  0  0  0  0  0  0  0  0  0
  189.8810  177.3970  143.8960 C   0  0  1  0  0  3  0  0  0  0  0  0
  189.5670  173.4040  142.0510 C   0  0  0  0  0  0  0  0  0  0  0  0
  194.9860  172.3980  142.5590 C   0  0  0  0  0  3  0  0  0  0  0  0
  191.7390  175.7810  146.7570 C   0  0  0  0  0  2  0  0  0  0  0  0
  195.1670  172.3960  143.9820 N   0  0  0  0  0  2  0  0  0  0  0  0
  196.4130  174.2240  137.6780 C   0  0  0  0  0  3  0  0  0  0  0  0
  195.8800  175.4000  137.1840 O   0  0  0  0  0  0  0  0  0  0  0  0
  196.5680  175.4260  138.3400 O   0  0  0  0  0  0  0  0  0  0  0  0
  188.3690  176.8090  146.9200 O   0  0  0  0  0  1  0  0  0  0  0  0
  189.4410  177.5420  146.4040 C   0  0  0  0  0  2  0  0  0  0  0  0
  1 32  1  0  0  0  0
  3 12  2  0  0  0  0
  3  9  1  0  0  0  0
  4 11  1  0  0  0  0
  4 27  1  0  0  0  0
  6  5  1  0  0  0  0
  7 24  1  0  0  0  0
  7 41  1  1  0  0  0
  9 18  2  0  0  0  0
 10 35  1  0  0  0  0
 11 26  1  6  0  0  0
 11 23  1  0  0  0  0
 12 21  1  0  0  0  0
 15 14  1  0  0  0  0
 15  3  1  0  0  0  0
 16 29  1  0  0  0  0
 17 34  2  0  0  0  0
 17  8  1  0  0  0  0
 18 30  1  0  0  0  0
 19 10  1  1  0  0  0
 20 31  1  0  0  0  0
 21 33  1  0  0  0  0
 21 30  2  0  0  0  0
 22 20  1  0  0  0  0
 22 14  1  0  0  0  0
 24 35  1  1  0  0  0
 25  8  1  6  0  0  0
 25 13  1  0  0  0  0
 25 19  1  0  0  0  0
 26 33  1  0  0  0  0
 27  1  1  0  0  0  0
 28 19  1  0  0  0  0
 28 24  1  0  0  0  0
 29  2  1  6  0  0  0
 29 17  1  0  0  0  0
 30  5  1  0  0  0  0
 31 37  1  6  0  0  0
 31 16  1  0  0  0  0
 32 23  1  6  0  0  0
 32  7  1  0  0  0  0
 33  6  2  0  0  0  0
 34 36  1  0  0  0  0
 36 13  1  0  0  0  0
 37 39  1  0  0  0  0
 38 37  1  0  0  0  0
 38 39  1  0  0  0  0
 41 40  1  0  0  0  0
M  END
>  <MODEL>
4

>  <REMARK>
 VINA RESULT:      -7.0      3.504      6.280
  Name = 
  2 active torsions:
  status: ('A' for Active; 'I' for Inactive)
    1  A    between atoms: C_7  and  C_11
    2  A    between atoms: C_12  and  N_36
                            x       y       z     vdW  Elec       q    Type
                         _______ _______ _______ _____ _____    ______ ____

>  <TORSDO>
F 2

$$$$
=
 OpenBabel11062421453D

 41 47  0  0  1  0  0  0  0  0999 V2000
  187.3330  177.3120  142.3350 C   0  0  0  0  0  2  0  0  0  0  0  0
  193.8670  174.9950  141.3060 C   0  0  0  0  0  1  0  0  0  0  0  0
  193.1070  171.1700  141.7760 C   0  0  0  0  0  0  0  0  0  0  0  0
  188.1750  175.6520  140.6260 C   0  0  0  0  0  2  0  0  0  0  0  0
  189.8030  171.8100  144.6510 S   0  0  0  0  0  0  0  0  0  0  0  0
  189.1730  173.0270  143.6700 C   0  0  0  0  0  3  0  0  0  0  0  0
  188.6040  177.1550  144.5540 C   0  0  2  0  0  3  0  0  0  0  0  0
  193.4190  175.8530  144.0220 C   0  0  0  0  0  2  0  0  0  0  0  0
  193.1060  170.3510  142.9240 C   0  0  0  0  0  3  0  0  0  0  0  0
  191.1450  176.7020  146.9930 C   0  0  0  0  0  2  0  0  0  0  0  0
  188.8490  175.1740  141.8360 N   0  0  2  0  0  0  0  0  0  0  0  0
  192.0930  172.1270  141.5880 C   0  0  0  0  0  3  0  0  0  0  0  0
  193.8820  175.6660  146.4050 N   0  0  0  0  0  2  0  0  0  0  0  0
  195.4010  171.5170  141.4000 O   0  0  0  0  0  0  0  0  0  0  0  0
  194.2240  171.0740  140.7990 C   0  0  0  0  0  2  0  0  0  0  0  0
  196.2420  174.6130  142.0540 C   0  0  0  0  0  2  0  0  0  0  0  0
  194.4180  174.7470  143.7670 C   0  0  0  0  0  0  0  0  0  0  0  0
  192.0970  170.4760  143.8870 C   0  0  0  0  0  3  0  0  0  0  0  0
  191.8780  176.9120  145.6970 C   0  0  1  0  0  3  0  0  0  0  0  0
  197.2240  172.9110  140.7540 C   0  0  0  0  0  2  0  0  0  0  0  0
  191.0920  172.2480  142.5620 C   0  0  0  0  0  0  0  0  0  0  0  0
  196.2640  171.8140  140.3370 C   0  0  0  0  0  2  0  0  0  0  0  0
  189.6400  176.2730  142.3910 C   0  0  0  0  0  2  0  0  0  0  0  0
  189.8220  177.6000  145.2590 N   0  0  2  0  0  0  0  0  0  0  0  0
  192.8020  175.7310  145.4140 C   0  0  1  0  0  3  0  0  0  0  0  0
  189.7710  174.1200  141.4310 C   0  0  0  0  0  2  0  0  0  0  0  0
  187.4410  176.9550  140.8510 C   0  0  0  0  0  2  0  0  0  0  0  0
  190.9100  177.0030  144.6870 O   0  0  0  0  0  0  0  0  0  0  0  0
  194.7710  174.3330  142.3540 C   0  0  1  0  0  3  0  0  0  0  0  0
  191.1090  171.4330  143.6780 C   0  0  0  0  0  0  0  0  0  0  0  0
  196.5720  174.2090  140.6900 N   0  0  2  0  0  0  0  0  0  0  0  0
  188.7090  177.3340  143.0170 C   0  0  1  0  0  3  0  0  0  0  0  0
  190.0160  173.1480  142.5540 C   0  0  0  0  0  0  0  0  0  0  0  0
  194.9810  174.1210  144.8000 C   0  0  0  0  0  3  0  0  0  0  0  0
  189.7610  177.1220  146.6350 C   0  0  0  0  0  2  0  0  0  0  0  0
  194.6420  174.5060  146.1390 N   0  0  0  0  0  2  0  0  0  0  0  0
  197.5660  175.1380  140.1650 C   0  0  0  0  0  3  0  0  0  0  0  0
  197.1050  175.6710  138.9760 O   0  0  0  0  0  0  0  0  0  0  0  0
  197.0450  176.4150  140.0960 O   0  0  0  0  0  0  0  0  0  0  0  0
  186.4660  176.9980  145.6590 O   0  0  0  0  0  1  0  0  0  0  0  0
  187.3900  177.9000  145.1260 C   0  0  0  0  0  2  0  0  0  0  0  0
  3  9  1  0  0  0  0
  4 27  1  0  0  0  0
  6  5  1  0  0  0  0
  7 41  1  1  0  0  0
  7 24  1  0  0  0  0
  9 18  2  0  0  0  0
 11  4  1  6  0  0  0
 11 23  1  0  0  0  0
 12  3  2  0  0  0  0
 12 21  1  0  0  0  0
 15 14  1  0  0  0  0
 15  3  1  0  0  0  0
 16 29  1  0  0  0  0
 17  8  1  0  0  0  0
 17 34  2  0  0  0  0
 19 10  1  1  0  0  0
 21 30  2  0  0  0  0
 22 20  1  0  0  0  0
 22 14  1  0  0  0  0
 23 32  1  0  0  0  0
 24 35  1  1  0  0  0
 25  8  1  6  0  0  0
 25 19  1  0  0  0  0
 25 13  1  0  0  0  0
 26 11  1  0  0  0  0
 26 33  1  0  0  0  0
 27  1  1  0  0  0  0
 28 24  1  0  0  0  0
 28 19  1  0  0  0  0
 29  2  1  6  0  0  0
 29 17  1  0  0  0  0
 30 18  1  0  0  0  0
 30  5  1  0  0  0  0
 31 37  1  1  0  0  0
 31 20  1  0  0  0  0
 31 16  1  0  0  0  0
 32  1  1  6  0  0  0
 32  7  1  0  0  0  0
 33 21  1  0  0  0  0
 33  6  2  0  0  0  0
 34 36  1  0  0  0  0
 35 10  1  0  0  0  0
 36 13  1  0  0  0  0
 38 39  1  0  0  0  0
 38 37  1  0  0  0  0
 39 37  1  0  0  0  0
 41 40  1  0  0  0  0
M  END
>  <MODEL>
5

>  <REMARK>
 VINA RESULT:      -6.9      3.090      5.875
  Name = 
  2 active torsions:
  status: ('A' for Active; 'I' for Inactive)
    1  A    between atoms: C_7  and  C_11
    2  A    between atoms: C_12  and  N_36
                            x       y       z     vdW  Elec       q    Type
                         _______ _______ _______ _____ _____    ______ ____

>  <TORSDO>
F 2

$$$$
=
 OpenBabel11062421453D

 41 47  0  0  1  0  0  0  0  0999 V2000
  196.8960  174.5180  140.2480 C   0  0  0  0  0  2  0  0  0  0  0  0
  190.2980  176.0880  142.0130 C   0  0  0  0  0  1  0  0  0  0  0  0
  190.9550  176.7320  145.8310 C   0  0  0  0  0  0  0  0  0  0  0  0
  196.0030  176.6180  141.3330 C   0  0  0  0  0  2  0  0  0  0  0  0
  194.2860  173.8310  146.1180 S   0  0  0  0  0  0  0  0  0  0  0  0
  194.9440  174.4330  144.6880 C   0  0  0  0  0  3  0  0  0  0  0  0
  195.6300  172.4200  140.9970 C   0  0  2  0  0  3  0  0  0  0  0  0
  190.7790  173.2450  141.9730 C   0  0  0  0  0  2  0  0  0  0  0  0
  190.9370  175.8630  146.9420 C   0  0  0  0  0  3  0  0  0  0  0  0
  193.0860  170.1820  142.0590 C   0  0  0  0  0  2  0  0  0  0  0  0
  195.3210  175.5850  142.1180 N   0  0  2  0  0  0  0  0  0  0  0  0
  191.9930  176.6520  144.8870 C   0  0  0  0  0  3  0  0  0  0  0  0
  190.3200  171.0090  142.8170 N   0  0  0  0  0  2  0  0  0  0  0  0
  188.6700  176.9680  145.3340 O   0  0  0  0  0  0  0  0  0  0  0  0
  189.8320  177.6840  145.6180 C   0  0  0  0  0  2  0  0  0  0  0  0
  187.9160  175.4530  142.5310 C   0  0  0  0  0  2  0  0  0  0  0  0
  189.7490  173.7930  142.9350 C   0  0  0  0  0  0  0  0  0  0  0  0
  191.9530  174.9160  147.1220 C   0  0  0  0  0  3  0  0  0  0  0  0
  192.3550  171.3570  141.4720 C   0  0  1  0  0  3  0  0  0  0  0  0
  186.8830  177.1720  143.7680 C   0  0  0  0  0  2  0  0  0  0  0  0
  193.0010  175.6950  145.0710 C   0  0  0  0  0  0  0  0  0  0  0  0
  187.8110  177.8930  144.7250 C   0  0  0  0  0  2  0  0  0  0  0  0
  194.5620  174.7330  141.2020 C   0  0  0  0  0  2  0  0  0  0  0  0
  194.4270  171.6050  140.7400 N   0  0  2  0  0  0  0  0  0  0  0  0
  191.3970  171.9530  142.5000 C   0  0  1  0  0  3  0  0  0  0  0  0
  194.3690  176.2630  142.9900 C   0  0  0  0  0  2  0  0  0  0  0  0
  196.7730  176.0410  140.1670 C   0  0  0  0  0  2  0  0  0  0  0  0
  193.3210  172.3100  141.1220 O   0  0  0  0  0  0  0  0  0  0  0  0
  189.3800  175.2610  142.9220 C   0  0  1  0  0  3  0  0  0  0  0  0
  192.9660  174.8560  146.1690 C   0  0  0  0  0  0  0  0  0  0  0  0
  187.5700  176.8710  142.5230 N   0  0  2  0  0  0  0  0  0  0  0  0
  195.5240  173.8420  140.3860 C   0  0  1  0  0  3  0  0  0  0  0  0
  194.1010  175.4590  144.2340 C   0  0  0  0  0  0  0  0  0  0  0  0
  189.1740  172.9740  143.8140 C   0  0  0  0  0  3  0  0  0  0  0  0
  194.4800  170.4220  141.5900 C   0  0  0  0  0  2  0  0  0  0  0  0
  189.5270  171.5840  143.8330 N   0  0  0  0  0  2  0  0  0  0  0  0
  186.6010  177.1000  141.4590 C   0  0  0  0  0  3  0  0  0  0  0  0
  187.1660  177.9160  140.4960 O   0  0  0  0  0  0  0  0  0  0  0  0
  187.0680  176.5940  140.2610 O   0  0  0  0  0  0  0  0  0  0  0  0
  197.7710  171.4390  141.5130 O   0  0  0  0  0  1  0  0  0  0  0  0
  196.8650  171.6740  140.4760 C   0  0  0  0  0  2  0  0  0  0  0  0
  3  9  1  0  0  0  0
  4 11  1  0  0  0  0
  5 30  1  0  0  0  0
  6  5  1  0  0  0  0
  7 41  1  6  0  0  0
  8 17  1  0  0  0  0
  9 18  2  0  0  0  0
 11 23  1  6  0  0  0
 11 26  1  0  0  0  0
 12 21  1  0  0  0  0
 12  3  2  0  0  0  0
 13 36  1  0  0  0  0
 14 15  1  0  0  0  0
 15  3  1  0  0  0  0
 16 29  1  0  0  0  0
 17 34  2  0  0  0  0
 19 10  1  1  0  0  0
 19 25  1  0  0  0  0
 20 22  1  0  0  0  0
 21 30  2  0  0  0  0
 22 14  1  0  0  0  0
 24  7  1  0  0  0  0
 24 28  1  0  0  0  0
 24 35  1  1  0  0  0
 25  8  1  6  0  0  0
 25 13  1  0  0  0  0
 26 33  1  0  0  0  0
 27  1  1  0  0  0  0
 27  4  1  0  0  0  0
 28 19  1  0  0  0  0
 29  2  1  6  0  0  0
 29 17  1  0  0  0  0
 30 18  1  0  0  0  0
 31 37  1  6  0  0  0
 31 16  1  0  0  0  0
 31 20  1  0  0  0  0
 32  1  1  1  0  0  0
 32  7  1  0  0  0  0
 32 23  1  0  0  0  0
 33  6  2  0  0  0  0
 33 21  1  0  0  0  0
 34 36  1  0  0  0  0
 35 10  1  0  0  0  0
 38 37  1  0  0  0  0
 39 38  1  0  0  0  0
 39 37  1  0  0  0  0
 41 40  1  0  0  0  0
M  END
>  <MODEL>
6

>  <REMARK>
 VINA RESULT:      -6.7      3.048      7.732
  Name = 
  2 active torsions:
  status: ('A' for Active; 'I' for Inactive)
    1  A    between atoms: C_7  and  C_11
    2  A    between atoms: C_12  and  N_36
                            x       y       z     vdW  Elec       q    Type
                         _______ _______ _______ _____ _____    ______ ____

>  <TORSDO>
F 2

$$$$
=
 OpenBabel11062421453D

 41 47  0  0  1  0  0  0  0  0999 V2000
  190.0680  171.5870  137.5900 C   0  0  0  0  0  2  0  0  0  0  0  0
  192.1000  174.6120  143.5760 C   0  0  0  0  0  1  0  0  0  0  0  0
  195.8360  175.2580  142.5520 C   0  0  0  0  0  0  0  0  0  0  0  0
  191.0840  173.8730  137.9450 C   0  0  0  0  0  2  0  0  0  0  0  0
  196.1000  171.7230  139.9010 S   0  0  0  0  0  0  0  0  0  0  0  0
  194.6060  172.1090  139.2230 C   0  0  0  0  0  3  0  0  0  0  0  0
  190.9990  169.8430  139.2210 C   0  0  2  0  0  3  0  0  0  0  0  0
  192.1900  171.7330  143.7130 C   0  0  0  0  0  2  0  0  0  0  0  0
  196.9920  174.4620  142.6810 C   0  0  0  0  0  3  0  0  0  0  0  0
  192.3190  168.2510  142.1080 C   0  0  0  0  0  2  0  0  0  0  0  0
  191.9600  173.0450  138.7780 N   0  0  2  0  0  0  0  0  0  0  0  0
  194.8420  174.9170  141.6170 C   0  0  0  0  0  3  0  0  0  0  0  0
  193.1790  169.6850  144.5810 N   0  0  0  0  0  2  0  0  0  0  0  0
  195.4520  175.9600  144.7620 O   0  0  0  0  0  0  0  0  0  0  0  0
  195.6320  176.4200  143.4590 C   0  0  0  0  0  2  0  0  0  0  0  0
  192.7810  174.5270  146.0000 C   0  0  0  0  0  2  0  0  0  0  0  0
  193.1750  172.5300  144.5380 C   0  0  0  0  0  0  0  0  0  0  0  0
  197.1680  173.3260  141.8800 C   0  0  0  0  0  3  0  0  0  0  0  0
  191.7080  169.5300  142.6100 C   0  0  1  0  0  3  0  0  0  0  0  0
  193.9760  176.4770  146.5620 C   0  0  0  0  0  2  0  0  0  0  0  0
  195.0240  173.7750  140.8260 C   0  0  0  0  0  0  0  0  0  0  0  0
  194.8410  177.0220  145.4420 C   0  0  0  0  0  2  0  0  0  0  0  0
  191.1340  172.3380  139.7580 C   0  0  0  0  0  2  0  0  0  0  0  0
  190.8530  169.2960  140.5840 N   0  0  2  0  0  0  0  0  0  0  0  0
  192.7530  170.3610  143.3500 C   0  0  1  0  0  3  0  0  0  0  0  0
  192.8440  173.9470  139.5060 C   0  0  0  0  0  2  0  0  0  0  0  0
  189.9100  173.0950  137.3920 C   0  0  0  0  0  2  0  0  0  0  0  0
  191.2540  170.2380  141.4880 O   0  0  0  0  0  0  0  0  0  0  0  0
  193.1010  174.0410  144.5870 C   0  0  1  0  0  3  0  0  0  0  0  0
  196.1670  173.0100  140.9670 C   0  0  0  0  0  0  0  0  0  0  0  0
  192.7140  175.9840  146.0370 N   0  0  2  0  0  0  0  0  0  0  0  0
  190.3170  171.2280  139.0620 C   0  0  1  0  0  3  0  0  0  0  0  0
  194.1420  173.2730  139.8570 C   0  0  0  0  0  0  0  0  0  0  0  0
  194.1280  171.8910  145.2170 C   0  0  0  0  0  3  0  0  0  0  0  0
  191.7620  168.1660  140.7290 C   0  0  0  0  0  2  0  0  0  0  0  0
  194.2040  170.4600  145.1660 N   0  0  0  0  0  2  0  0  0  0  0  0
  191.6930  176.3710  147.0020 C   0  0  0  0  0  3  0  0  0  0  0  0
  190.6100  176.9060  146.3290 O   0  0  0  0  0  0  0  0  0  0  0  0
  190.5340  175.6470  146.7990 O   0  0  0  0  0  0  0  0  0  0  0  0
  191.4460  168.4600  137.2980 O   0  0  0  0  0  1  0  0  0  0  0  0
  190.4530  168.8280  138.2090 C   0  0  0  0  0  2  0  0  0  0  0  0
  3  9  1  0  0  0  0
  3 15  1  0  0  0  0
  5 30  1  0  0  0  0
  6 33  2  0  0  0  0
  6  5  1  0  0  0  0
  7 41  1  6  0  0  0
  7 24  1  0  0  0  0
  8 17  1  0  0  0  0
 11  4  1  6  0  0  0
 11 26  1  0  0  0  0
 11 23  1  0  0  0  0
 12  3  2  0  0  0  0
 13 36  1  0  0  0  0
 14 22  1  0  0  0  0
 15 14  1  0  0  0  0
 16 31  1  0  0  0  0
 17 29  1  0  0  0  0
 17 34  2  0  0  0  0
 18  9  2  0  0  0  0
 19 10  1  6  0  0  0
 19 25  1  0  0  0  0
 21 30  2  0  0  0  0
 21 12  1  0  0  0  0
 22 20  1  0  0  0  0
 24 35  1  6  0  0  0
 24 28  1  0  0  0  0
 25  8  1  1  0  0  0
 25 13  1  0  0  0  0
 26 33  1  0  0  0  0
 27  1  1  0  0  0  0
 27  4  1  0  0  0  0
 28 19  1  0  0  0  0
 29  2  1  6  0  0  0
 29 16  1  0  0  0  0
 30 18  1  0  0  0  0
 31 20  1  0  0  0  0
 31 37  1  1  0  0  0
 32  1  1  6  0  0  0
 32  7  1  0  0  0  0
 32 23  1  0  0  0  0
 33 21  1  0  0  0  0
 35 10  1  0  0  0  0
 36 34  1  0  0  0  0
 38 39  1  0  0  0  0
 38 37  1  0  0  0  0
 39 37  1  0  0  0  0
 40 41  1  0  0  0  0
M  END
>  <MODEL>
7

>  <REMARK>
 VINA RESULT:      -6.6      3.078      5.921
  Name = 
  2 active torsions:
  status: ('A' for Active; 'I' for Inactive)
    1  A    between atoms: C_7  and  C_11
    2  A    between atoms: C_12  and  N_36
                            x       y       z     vdW  Elec       q    Type
                         _______ _______ _______ _____ _____    ______ ____

>  <TORSDO>
F 2

$$$$
=
 OpenBabel11062421453D

 41 47  0  0  1  0  0  0  0  0999 V2000
  191.7070  175.5110  146.4600 C   0  0  0  0  0  2  0  0  0  0  0  0
  190.8200  173.1570  139.9180 C   0  0  0  0  0  1  0  0  0  0  0  0
  191.4040  169.3500  140.6880 C   0  0  0  0  0  0  0  0  0  0  0  0
  190.0610  173.7960  145.6030 C   0  0  0  0  0  2  0  0  0  0  0  0
  194.2230  170.0840  144.0200 S   0  0  0  0  0  0  0  0  0  0  0  0
  193.1980  171.2690  144.6380 C   0  0  0  0  0  3  0  0  0  0  0  0
  193.9440  175.4240  145.2120 C   0  0  2  0  0  3  0  0  0  0  0  0
  193.5030  174.1020  140.3930 C   0  0  0  0  0  2  0  0  0  0  0  0
  192.5780  168.5680  140.7010 C   0  0  0  0  0  3  0  0  0  0  0  0
  196.4210  175.0470  142.6960 C   0  0  0  0  0  2  0  0  0  0  0  0
  191.2930  173.3570  144.9410 N   0  0  2  0  0  0  0  0  0  0  0  0
  191.1760  170.3010  141.6980 C   0  0  0  0  0  3  0  0  0  0  0  0
  195.8950  173.9900  139.9540 N   0  0  0  0  0  2  0  0  0  0  0  0
  191.0400  169.6820  138.3900 O   0  0  0  0  0  0  0  0  0  0  0  0
  190.4420  169.2210  139.5600 C   0  0  0  0  0  2  0  0  0  0  0  0
  191.6030  172.7970  137.5520 C   0  0  0  0  0  2  0  0  0  0  0  0
  193.2920  172.9870  139.3930 C   0  0  2  0  0  3  0  0  0  0  0  0
  193.5260  168.7240  141.7200 C   0  0  0  0  0  3  0  0  0  0  0  0
  195.1270  175.2150  141.9500 C   0  0  1  0  0  3  0  0  0  0  0  0
  190.3680  171.0540  136.5580 C   0  0  0  0  0  2  0  0  0  0  0  0
  192.1340  170.4540  142.7090 C   0  0  0  0  0  0  0  0  0  0  0  0
  189.9770  169.9450  137.5150 C   0  0  0  0  0  2  0  0  0  0  0  0
  191.8200  174.4730  144.1550 C   0  0  0  0  0  2  0  0  0  0  0  0
  194.6460  175.8900  144.0000 N   0  0  2  0  0  0  0  0  0  0  0  0
  194.8910  174.0250  141.0240 C   0  0  1  0  0  3  0  0  0  0  0  0
  190.9310  172.2890  144.0170 C   0  0  0  0  0  2  0  0  0  0  0  0
  190.2370  175.1060  146.3370 C   0  0  0  0  0  2  0  0  0  0  0  0
  194.1040  175.2750  142.9070 O   0  0  0  0  0  0  0  0  0  0  0  0
  191.8970  172.5280  139.0260 C   0  0  1  0  0  3  0  0  0  0  0  0
  193.2760  169.6750  142.7040 C   0  0  0  0  0  0  0  0  0  0  0  0
  190.2570  172.3500  137.2080 N   0  0  2  0  0  0  0  0  0  0  0  0
  192.4020  175.5540  145.0910 C   0  0  1  0  0  3  0  0  0  0  0  0
  192.0870  171.3540  143.7830 C   0  0  0  0  0  0  0  0  0  0  0  0
  194.3510  172.3940  138.8410 C   0  0  0  0  0  3  0  0  0  0  0  0
  196.0360  175.4570  144.0760 C   0  0  0  0  0  2  0  0  0  0  0  0
  195.6730  172.8230  139.1930 N   0  0  0  0  0  0  0  0  0  0  0  0
  189.7130  173.2600  136.2080 C   0  0  0  0  0  3  0  0  0  0  0  0
  188.8710  174.1650  136.8280 O   0  0  0  0  0  0  0  0  0  0  0  0
  190.1070  174.5580  136.4700 O   0  0  0  0  0  0  0  0  0  0  0  0
  194.5660  177.5540  146.1540 O   0  0  0  0  0  1  0  0  0  0  0  0
  194.4790  176.1880  146.4300 C   0  0  0  0  0  2  0  0  0  0  0  0
  3  9  2  0  0  0  0
  3 12  1  0  0  0  0
  4 27  1  0  0  0  0
  5  6  1  0  0  0  0
  7 41  1  1  0  0  0
  9 18  1  0  0  0  0
 10 35  1  0  0  0  0
 11 26  1  6  0  0  0
 11  4  1  0  0  0  0
 12 21  2  0  0  0  0
 13 25  1  0  0  0  0
 14 15  1  0  0  0  0
 15  3  1  0  0  0  0
 16 29  1  0  0  0  0
 17 34  1  1  0  0  0
 17  8  1  0  0  0  0
 18 30  2  0  0  0  0
 19 10  1  1  0  0  0
 19 28  1  0  0  0  0
 20 31  1  0  0  0  0
 20 22  1  0  0  0  0
 21 33  1  0  0  0  0
 22 14  1  0  0  0  0
 23 11  1  0  0  0  0
 24 35  1  1  0  0  0
 24  7  1  0  0  0  0
 25  8  1  6  0  0  0
 25 19  1  0  0  0  0
 27  1  1  0  0  0  0
 28 24  1  0  0  0  0
 29 17  1  0  0  0  0
 29  2  1  1  0  0  0
 30 21  1  0  0  0  0
 30  5  1  0  0  0  0
 31 37  1  6  0  0  0
 31 16  1  0  0  0  0
 32 23  1  6  0  0  0
 32  7  1  0  0  0  0
 32  1  1  0  0  0  0
 33 26  1  0  0  0  0
 33  6  2  0  0  0  0
 34 36  2  0  0  0  0
 36 13  1  0  0  0  0
 37 39  1  0  0  0  0
 37 38  1  0  0  0  0
 39 38  1  0  0  0  0
 40 41  1  0  0  0  0
M  END
>  <MODEL>
8

>  <REMARK>
 VINA RESULT:      -6.6      3.546      7.056
  Name = 
  2 active torsions:
  status: ('A' for Active; 'I' for Inactive)
    1  A    between atoms: C_7  and  C_11
    2  A    between atoms: C_12  and  N_36
                            x       y       z     vdW  Elec       q    Type
                         _______ _______ _______ _____ _____    ______ ____

>  <TORSDO>
F 2

$$$$
=
 OpenBabel11062421453D

 41 47  0  0  1  0  0  0  0  0999 V2000
  191.9410  173.4810  136.0440 C   0  0  0  0  0  2  0  0  0  0  0  0
  192.1960  175.3480  142.7950 C   0  0  0  0  0  1  0  0  0  0  0  0
  196.1060  175.3270  143.1590 C   0  0  0  0  0  0  0  0  0  0  0  0
  193.1090  175.4590  137.0990 C   0  0  0  0  0  2  0  0  0  0  0  0
  196.7300  172.1270  140.1640 S   0  0  0  0  0  0  0  0  0  0  0  0
  195.6450  172.8830  139.1190 C   0  0  0  0  0  3  0  0  0  0  0  0
  191.9620  171.4160  137.5600 C   0  0  2  0  0  3  0  0  0  0  0  0
  191.7860  172.5140  142.4520 C   0  0  0  0  0  2  0  0  0  0  0  0
  197.0070  174.3010  143.5150 C   0  0  0  0  0  3  0  0  0  0  0  0
  191.9290  169.2780  140.3960 C   0  0  0  0  0  2  0  0  0  0  0  0
  193.5000  174.3830  138.0140 N   0  0  2  0  0  0  0  0  0  0  0  0
  195.4610  175.3010  141.9100 C   0  0  0  0  0  3  0  0  0  0  0  0
  192.0810  170.2240  143.2230 N   0  0  0  0  0  2  0  0  0  0  0  0
  195.0880  175.8430  145.2130 O   0  0  0  0  0  0  0  0  0  0  0  0
  195.7810  176.3980  144.1390 C   0  0  0  0  0  2  0  0  0  0  0  0
  191.9660  174.8580  145.2550 C   0  0  0  0  0  2  0  0  0  0  0  0
  192.5320  172.9960  143.6760 C   0  0  0  0  0  0  0  0  0  0  0  0
  197.2740  173.2490  142.6290 C   0  0  0  0  0  3  0  0  0  0  0  0
  191.3860  170.5920  140.8880 C   0  0  1  0  0  3  0  0  0  0  0  0
  193.1750  176.4490  146.5020 C   0  0  0  0  0  2  0  0  0  0  0  0
  195.7300  174.2400  141.0340 C   0  0  0  0  0  0  0  0  0  0  0  0
  194.4490  176.9250  145.8330 C   0  0  0  0  0  2  0  0  0  0  0  0
  192.2850  173.7550  138.5360 C   0  0  0  0  0  2  0  0  0  0  0  0
  191.2670  170.7630  138.6860 N   0  0  2  0  0  0  0  0  0  0  0  0
  192.2220  171.1050  142.0580 C   0  0  1  0  0  3  0  0  0  0  0  0
  194.2020  174.9990  139.1320 C   0  0  0  0  0  2  0  0  0  0  0  0
  192.0980  175.0030  136.0710 C   0  0  0  0  0  2  0  0  0  0  0  0
  191.4680  171.4970  139.8200 O   0  0  0  0  0  0  0  0  0  0  0  0
  192.6800  174.4760  143.9600 C   0  0  1  0  0  3  0  0  0  0  0  0
  196.6180  173.2470  141.4010 C   0  0  0  0  0  0  0  0  0  0  0  0
  192.1160  176.2850  145.5200 N   0  0  2  0  0  0  0  0  0  0  0  0
  191.6020  172.9190  137.4330 C   0  0  1  0  0  3  0  0  0  0  0  0
  195.1750  174.0390  139.7610 C   0  0  0  0  0  0  0  0  0  0  0  0
  193.0770  172.1050  144.5040 C   0  0  0  0  0  3  0  0  0  0  0  0
  191.8820  169.4610  138.9180 C   0  0  0  0  0  2  0  0  0  0  0  0
  192.9440  170.7040  144.2320 N   0  0  0  0  0  2  0  0  0  0  0  0
  190.8950  176.7640  146.1570 C   0  0  0  0  0  3  0  0  0  0  0  0
  190.2380  177.6210  145.2940 O   0  0  0  0  0  0  0  0  0  0  0  0
  189.7850  176.3620  145.4380 O   0  0  0  0  0  0  0  0  0  0  0  0
  190.2760  170.4920  136.1050 O   0  0  0  0  0  1  0  0  0  0  0  0
  191.6550  170.6520  136.2660 C   0  0  0  0  0  2  0  0  0  0  0  0
  1 27  1  0  0  0  0
  3  9  1  0  0  0  0
  3 15  1  0  0  0  0
  5 30  1  0  0  0  0
  6 33  2  0  0  0  0
  6  5  1  0  0  0  0
  7 41  1  6  0  0  0
  7 24  1  0  0  0  0
  8 17  1  0  0  0  0
 11  4  1  6  0  0  0
 11 23  1  0  0  0  0
 11 26  1  0  0  0  0
 12  3  2  0  0  0  0
 13 36  1  0  0  0  0
 14 22  1  0  0  0  0
 15 14  1  0  0  0  0
 16 31  1  0  0  0  0
 17 29  1  0  0  0  0
 17 34  2  0  0  0  0
 18  9  2  0  0  0  0
 19 10  1  6  0  0  0
 19 25  1  0  0  0  0
 21 30  2  0  0  0  0
 21 12  1  0  0  0  0
 22 20  1  0  0  0  0
 24 35  1  1  0  0  0
 24 28  1  0  0  0  0
 25  8  1  1  0  0  0
 25 13  1  0  0  0  0
 26 33  1  0  0  0  0
 27  4  1  0  0  0  0
 28 19  1  0  0  0  0
 29  2  1  6  0  0  0
 29 16  1  0  0  0  0
 30 18  1  0  0  0  0
 31 37  1  1  0  0  0
 31 20  1  0  0  0  0
 32  1  1  6  0  0  0
 32  7  1  0  0  0  0
 32 23  1  0  0  0  0
 33 21  1  0  0  0  0
 35 10  1  0  0  0  0
 36 34  1  0  0  0  0
 38 39  1  0  0  0  0
 38 37  1  0  0  0  0
 39 37  1  0  0  0  0
 40 41  1  0  0  0  0
M  END
>  <MODEL>
9

>  <REMARK>
 VINA RESULT:      -6.5      3.208      6.076
  Name = 
  2 active torsions:
  status: ('A' for Active; 'I' for Inactive)
    1  A    between atoms: C_7  and  C_11
    2  A    between atoms: C_12  and  N_36
                            x       y       z     vdW  Elec       q    Type
                         _______ _______ _______ _____ _____    ______ ____

>  <TORSDO>
F 2

$$$$
