=
 OpenBabel11072408283D

 56 60  0  0  1  0  0  0  0  0999 V2000
  188.1970  175.6650  142.2550 O   0  0  0  0  0  1  0  0  0  0  0  0
  194.3370  171.1880  136.8190 C   0  0  1  0  0  3  0  0  0  0  0  0
  194.6400  173.7460  137.1250 C   0  0  2  0  0  0  0  0  0  0  0  0
  195.1880  174.0840  138.5110 C   0  0  1  0  0  3  0  0  0  0  0  0
  190.5400  170.7770  136.8660 C   0  0  0  0  0  2  0  0  0  0  0  0
  190.0780  178.7590  143.2070 C   0  0  0  0  0  2  0  0  0  0  0  0
  195.6560  174.8760  137.2970 C   0  0  1  0  0  3  0  0  0  0  0  0
  192.3160  169.2360  136.4860 O   0  0  0  0  0  0  0  0  0  0  0  0
  192.8600  176.1190  144.0110 C   0  0  2  0  0  3  0  0  0  0  0  0
  193.4280  175.3360  141.6420 C   0  0  2  0  0  3  0  0  0  0  0  0
  189.6620  173.3520  140.2030 N   0  0  0  0  0  2  0  0  0  0  0  0
  188.7630  172.2430  139.9180 C   0  0  0  0  0  2  0  0  0  0  0  0
  189.1620  176.4230  142.9200 C   0  0  1  0  0  3  0  0  0  0  0  0
  189.5810  173.0680  142.5200 O   0  0  0  0  0  0  0  0  0  0  0  0
  192.3470  174.2790  141.8040 C   0  0  0  0  0  2  0  0  0  0  0  0
  193.2860  174.2940  136.6810 C   0  0  0  0  0  1  0  0  0  0  0  0
  190.9410  174.8860  141.7440 C   0  0  2  0  0  3  0  0  0  0  0  0
  194.5640  174.7880  140.8030 C   0  0  0  0  0  2  0  0  0  0  0  0
  190.5670  175.7480  142.9910 C   0  0  1  0  0  3  0  0  0  0  0  0
  192.9360  171.4410  136.8060 O   0  0  0  0  0  0  0  0  0  0  0  0
  193.9650  175.7640  143.0030 C   0  0  0  0  0  2  0  0  0  0  0  0
  188.9380  171.7970  138.4780 C   0  0  0  0  0  2  0  0  0  0  0  0
  191.0980  178.0170  144.0690 C   0  0  0  0  0  2  0  0  0  0  0  0
  189.2350  177.8250  142.3230 C   0  0  0  0  0  2  0  0  0  0  0  0
  195.1480  172.4490  136.4730 C   0  0  0  0  0  2  0  0  0  0  0  0
  190.0040  173.7340  141.5360 C   0  0  0  0  0  0  0  0  0  0  0  0
  194.2170  174.9120  139.3330 C   0  0  0  0  0  2  0  0  0  0  0  0
  190.2820  171.1070  138.3220 C   0  0  0  0  0  2  0  0  0  0  0  0
  191.9780  170.4310  136.6950 C   0  0  0  0  0  0  0  0  0  0  0  0
  191.6600  176.7970  143.3290 C   0  0  1  0  0  3  0  0  0  0  0  0
  193.4080  176.8090  145.2710 C   0  0  2  0  0  3  0  0  0  0  0  0
  194.9170  176.9860  145.2270 C   0  0  0  0  0  1  0  0  0  0  0  0
  193.0090  176.0320  146.5160 C   0  0  0  0  0  2  0  0  0  0  0  0
  191.7270  177.1870  148.1510 O   0  0  0  0  0  1  0  0  0  0  0  0
  191.6140  176.4270  146.9880 C   0  0  2  0  0  3  0  0  0  0  0  0
  189.3820  175.2770  147.2840 C   0  0  0  0  0  0  0  0  0  0  0  0
  190.8100  175.2420  147.2700 N   0  0  0  0  0  2  0  0  0  0  0  0
  188.6880  176.4990  147.0020 N   0  0  0  0  0  2  0  0  0  0  0  0
  188.7190  174.1960  147.5420 N   0  0  0  0  0  2  0  0  0  0  0  0
  184.6610  177.5770  145.0060 F   0  0  0  0  0  0  0  0  0  0  0  0
  185.8090  178.4910  146.7460 O   0  0  0  0  0  0  0  0  0  0  0  0
  185.9210  177.8550  145.4980 C   0  0  1  0  0  0  0  0  0  0  0  0
  186.8650  178.0090  147.5360 C   0  0  0  0  0  2  0  0  0  0  0  0
  186.6780  176.5610  145.6720 C   0  0  0  0  0  2  0  0  0  0  0  0
  187.2390  176.6290  147.0600 C   0  0  1  0  0  3  0  0  0  0  0  0
  186.6600  178.7500  144.5150 C   0  0  0  0  0  2  0  0  0  0  0  0
  185.7520  179.4680  143.7330 O   0  0  0  0  0  1  0  0  0  0  0  0
  194.7770  170.4660  138.1050 C   0  0  0  0  0  3  0  0  0  0  0  0
  194.0300  170.9020  139.3280 C   0  0  0  0  0  3  0  0  0  0  0  0
  194.6290  171.1900  140.3530 O   0  0  0  0  0  0  0  0  0  0  0  0
  196.2520  170.5800  138.3160 C   0  0  0  0  0  3  0  0  0  0  0  0
  197.0060  169.7320  137.8680 O   0  0  0  0  0  0  0  0  0  0  0  0
  197.0940  174.4850  136.9850 C   0  0  0  0  0  2  0  0  0  0  0  0
  197.5060  175.0690  135.6800 C   0  0  0  0  0  0  0  0  0  0  0  0
  197.9410  174.3220  134.7660 O   0  0  0  0  0  0  0  0  0  0  0  0
  197.4460  176.4420  135.4840 O   0  0  0  0  0  1  0  0  0  0  0  0
  2 48  1  1  0  0  0
  3 16  1  6  0  0  0
  3  7  1  0  0  0  0
  3  4  1  0  0  0  0
  4 27  1  1  0  0  0
  5 28  1  0  0  0  0
  6 23  1  0  0  0  0
  7 53  1  6  0  0  0
  7  4  1  0  0  0  0
  8 29  2  0  0  0  0
  9 31  1  1  0  0  0
 10 18  1  6  0  0  0
 10 15  1  0  0  0  0
 10 21  1  0  0  0  0
 11 26  1  0  0  0  0
 12 11  1  0  0  0  0
 13  1  1  6  0  0  0
 13 19  1  0  0  0  0
 17 15  1  1  0  0  0
 17 19  1  0  0  0  0
 19 30  1  0  0  0  0
 20  2  1  0  0  0  0
 21  9  1  0  0  0  0
 22 12  1  0  0  0  0
 24 13  1  0  0  0  0
 24  6  1  0  0  0  0
 25  2  1  0  0  0  0
 25  3  1  0  0  0  0
 26 17  1  0  0  0  0
 26 14  2  0  0  0  0
 27 18  1  0  0  0  0
 28 22  1  0  0  0  0
 29 20  1  0  0  0  0
 29  5  1  0  0  0  0
 30  9  1  0  0  0  0
 30 23  1  0  0  0  0
 31 33  1  0  0  0  0
 32 31  1  0  0  0  0
 33 35  1  0  0  0  0
 35 37  1  0  0  0  0
 35 34  1  0  0  0  0
 36 39  2  0  0  0  0
 37 36  1  0  0  0  0
 38 45  1  0  0  0  0
 38 36  1  0  0  0  0
 40 42  1  0  0  0  0
 41 43  1  0  0  0  0
 42 44  1  0  0  0  0
 42 41  1  0  0  0  0
 44 45  1  0  0  0  0
 45 43  1  0  0  0  0
 46 42  1  0  0  0  0
 47 46  1  0  0  0  0
 48 51  1  0  0  0  0
 48 49  1  0  0  0  0
 49 50  2  0  0  0  0
 52 51  2  0  0  0  0
 54 53  1  0  0  0  0
 55 54  2  0  0  0  0
 56 54  1  0  0  0  0
M  END
>  <MODEL>
1

>  <REMARK>
 VINA RESULT:      -7.0      0.000      0.000
  Name = 
  11 active torsions:
  status: ('A' for Active; 'I' for Inactive)
    1  A    between atoms: C_2  and  C_9
    2  A    between atoms: C_7  and  C_22
    3  A    between atoms: C_9  and  C_13
    4  A    between atoms: C_9  and  C_27
    5  A    between atoms: C_10  and  C_22
    6  A    between atoms: C_14  and  C_24
    7  A    between atoms: C_24  and  C_34
    8  A    between atoms: C_29  and  C_43
    9  A    between atoms: N_30  and  C_52
   10  A    between atoms: N_33  and  C_55
   11  A    between atoms: C_34  and  C_52
                            x       y       z     vdW  Elec       q    Type
                         _______ _______ _______ _____ _____    ______ ____

>  <TORSDO>
F 11

$$$$
=
 OpenBabel11072408283D

 56 60  0  0  1  0  0  0  0  0999 V2000
  196.9320  176.0540  143.4720 O   0  0  0  0  0  1  0  0  0  0  0  0
  194.3060  171.0640  136.0230 C   0  0  1  0  0  3  0  0  0  0  0  0
  194.1810  169.9160  138.3460 C   0  0  2  0  0  0  0  0  0  0  0  0
  193.0070  170.4430  139.1690 C   0  0  1  0  0  3  0  0  0  0  0  0
  197.3790  173.3070  136.3540 C   0  0  0  0  0  2  0  0  0  0  0  0
  195.2060  174.2730  146.2770 C   0  0  0  0  0  2  0  0  0  0  0  0
  193.3750  168.9670  139.2330 C   0  0  1  0  0  3  0  0  0  0  0  0
  195.9390  172.8190  134.5210 O   0  0  0  0  0  0  0  0  0  0  0  0
  192.1570  174.6020  143.8390 C   0  0  2  0  0  3  0  0  0  0  0  0
  192.8950  172.9980  141.9860 C   0  0  2  0  0  3  0  0  0  0  0  0
  196.5760  174.9160  140.2650 N   0  0  0  0  0  2  0  0  0  0  0  0
  197.3490  175.7130  139.3250 C   0  0  0  0  0  2  0  0  0  0  0  0
  195.8540  175.6540  144.2650 C   0  0  1  0  0  3  0  0  0  0  0  0
  195.3410  176.7260  141.0750 O   0  0  0  0  0  0  0  0  0  0  0  0
  193.5800  174.1830  141.3240 C   0  0  0  0  0  2  0  0  0  0  0  0
  195.6090  170.0650  138.8640 C   0  0  0  0  0  1  0  0  0  0  0  0
  194.8480  174.6020  142.0770 C   0  0  2  0  0  3  0  0  0  0  0  0
  192.3490  172.0600  140.9280 C   0  0  0  0  0  2  0  0  0  0  0  0
  194.5740  175.2750  143.4590 C   0  0  1  0  0  3  0  0  0  0  0  0
  195.5030  171.6800  136.4850 O   0  0  0  0  0  0  0  0  0  0  0  0
  191.7530  173.4710  142.8790 C   0  0  0  0  0  2  0  0  0  0  0  0
  197.9410  174.8140  138.2550 C   0  0  0  0  0  2  0  0  0  0  0  0
  193.8040  174.6870  145.8360 C   0  0  0  0  0  2  0  0  0  0  0  0
  196.2820  174.5360  145.2100 C   0  0  0  0  0  2  0  0  0  0  0  0
  193.9680  169.7960  136.8280 C   0  0  0  0  0  2  0  0  0  0  0  0
  195.6060  175.4950  141.1390 C   0  0  0  0  0  0  0  0  0  0  0  0
  193.4560  171.1500  140.4360 C   0  0  0  0  0  2  0  0  0  0  0  0
  196.8330  174.3150  137.3440 C   0  0  0  0  0  2  0  0  0  0  0  0
  196.2420  172.5850  135.7200 C   0  0  0  0  0  0  0  0  0  0  0  0
  193.6030  174.4390  144.3370 C   0  0  1  0  0  3  0  0  0  0  0  0
  191.0930  174.8740  144.9140 C   0  0  2  0  0  3  0  0  0  0  0  0
  190.1920  173.6750  145.1580 C   0  0  0  0  0  1  0  0  0  0  0  0
  190.2560  176.0870  144.5340 C   0  0  0  0  0  2  0  0  0  0  0  0
  191.3170  177.1030  146.4040 O   0  0  0  0  0  1  0  0  0  0  0  0
  190.1080  177.0440  145.7120 C   0  0  2  0  0  3  0  0  0  0  0  0
  187.6790  176.8530  146.3850 C   0  0  0  0  0  0  0  0  0  0  0  0
  189.0630  176.5850  146.6200 N   0  0  0  0  0  2  0  0  0  0  0  0
  187.2740  177.5840  145.2210 N   0  0  0  0  0  2  0  0  0  0  0  0
  186.7940  176.4230  147.2250 N   0  0  0  0  0  2  0  0  0  0  0  0
  183.7120  177.9550  142.2990 F   0  0  0  0  0  0  0  0  0  0  0  0
  184.9450  179.5010  143.4270 O   0  0  0  0  0  0  0  0  0  0  0  0
  184.9740  178.2600  142.7690 C   0  0  1  0  0  0  0  0  0  0  0  0
  185.8190  179.3960  144.5200 C   0  0  0  0  0  2  0  0  0  0  0  0
  185.4040  177.1960  143.7480 C   0  0  0  0  0  2  0  0  0  0  0  0
  185.8920  177.9520  144.9470 C   0  0  1  0  0  3  0  0  0  0  0  0
  185.9500  178.3050  141.6030 C   0  0  0  0  0  2  0  0  0  0  0  0
  185.2580  178.3020  140.3890 O   0  0  0  0  0  1  0  0  0  0  0  0
  193.1530  172.0760  135.8920 C   0  0  0  0  0  3  0  0  0  0  0  0
  193.1490  173.1260  136.9610 C   0  0  0  0  0  3  0  0  0  0  0  0
  192.9980  174.3040  136.6740 O   0  0  0  0  0  0  0  0  0  0  0  0
  191.8290  171.3870  135.8220 C   0  0  0  0  0  3  0  0  0  0  0  0
  190.7950  172.0330  135.8640 O   0  0  0  0  0  0  0  0  0  0  0  0
  192.3090  168.1660  138.4970 C   0  0  0  0  0  2  0  0  0  0  0  0
  190.9690  168.4560  139.0750 C   0  0  0  0  0  0  0  0  0  0  0  0
  190.0790  168.9890  138.3650 O   0  0  0  0  0  0  0  0  0  0  0  0
  190.7140  168.1730  140.4100 O   0  0  0  0  0  1  0  0  0  0  0  0
  2 48  1  1  0  0  0
  2 20  1  0  0  0  0
  2 25  1  0  0  0  0
  3 16  1  1  0  0  0
  3  4  1  0  0  0  0
  3  7  1  0  0  0  0
  4  7  1  0  0  0  0
  4 27  1  1  0  0  0
  5 28  1  0  0  0  0
  7 53  1  6  0  0  0
  8 29  2  0  0  0  0
  9 30  1  0  0  0  0
  9 31  1  1  0  0  0
 10 18  1  6  0  0  0
 10 21  1  0  0  0  0
 11 26  1  0  0  0  0
 12 11  1  0  0  0  0
 13  1  1  6  0  0  0
 13 24  1  0  0  0  0
 14 26  2  0  0  0  0
 15 10  1  0  0  0  0
 17 15  1  6  0  0  0
 17 19  1  0  0  0  0
 19 13  1  0  0  0  0
 19 30  1  0  0  0  0
 21  9  1  0  0  0  0
 22 12  1  0  0  0  0
 23  6  1  0  0  0  0
 24  6  1  0  0  0  0
 25  3  1  0  0  0  0
 26 17  1  0  0  0  0
 27 18  1  0  0  0  0
 28 22  1  0  0  0  0
 29  5  1  0  0  0  0
 29 20  1  0  0  0  0
 30 23  1  0  0  0  0
 31 32  1  0  0  0  0
 33 31  1  0  0  0  0
 33 35  1  0  0  0  0
 35 34  1  0  0  0  0
 35 37  1  0  0  0  0
 36 37  1  0  0  0  0
 36 39  2  0  0  0  0
 38 36  1  0  0  0  0
 40 42  1  0  0  0  0
 41 43  1  0  0  0  0
 42 41  1  0  0  0  0
 42 44  1  0  0  0  0
 43 45  1  0  0  0  0
 44 45  1  0  0  0  0
 45 38  1  0  0  0  0
 46 42  1  0  0  0  0
 47 46  1  0  0  0  0
 48 49  1  0  0  0  0
 50 49  2  0  0  0  0
 51 52  2  0  0  0  0
 51 48  1  0  0  0  0
 53 54  1  0  0  0  0
 54 56  1  0  0  0  0
 55 54  2  0  0  0  0
M  END
>  <MODEL>
2

>  <REMARK>
 VINA RESULT:      -6.6      2.476      5.425
  Name = 
  11 active torsions:
  status: ('A' for Active; 'I' for Inactive)
    1  A    between atoms: C_2  and  C_9
    2  A    between atoms: C_7  and  C_22
    3  A    between atoms: C_9  and  C_13
    4  A    between atoms: C_9  and  C_27
    5  A    between atoms: C_10  and  C_22
    6  A    between atoms: C_14  and  C_24
    7  A    between atoms: C_24  and  C_34
    8  A    between atoms: C_29  and  C_43
    9  A    between atoms: N_30  and  C_52
   10  A    between atoms: N_33  and  C_55
   11  A    between atoms: C_34  and  C_52
                            x       y       z     vdW  Elec       q    Type
                         _______ _______ _______ _____ _____    ______ ____

>  <TORSDO>
F 11

$$$$
=
 OpenBabel11072408283D

 56 60  0  0  1  0  0  0  0  0999 V2000
  196.9750  174.2080  143.9600 O   0  0  0  0  0  1  0  0  0  0  0  0
  193.8290  173.4340  135.1960 C   0  0  1  0  0  3  0  0  0  0  0  0
  193.4540  171.4230  136.7930 C   0  0  2  0  0  0  0  0  0  0  0  0
  192.3520  171.7140  137.8100 C   0  0  1  0  0  3  0  0  0  0  0  0
  197.2050  174.8020  136.3430 C   0  0  0  0  0  2  0  0  0  0  0  0
  194.9050  171.6740  145.7790 C   0  0  0  0  0  2  0  0  0  0  0  0
  192.4820  170.3200  137.2110 C   0  0  1  0  0  3  0  0  0  0  0  0
  195.7630  175.3910  134.5410 O   0  0  0  0  0  0  0  0  0  0  0  0
  192.0220  173.5000  143.8540 C   0  0  2  0  0  3  0  0  0  0  0  0
  192.5550  172.7700  141.4590 C   0  0  2  0  0  3  0  0  0  0  0  0
  196.5430  174.6500  140.5940 N   0  0  0  0  0  2  0  0  0  0  0  0
  197.4610  175.6470  140.0630 C   0  0  0  0  0  2  0  0  0  0  0  0
  195.8230  173.6750  144.5430 C   0  0  1  0  0  3  0  0  0  0  0  0
  195.5840  176.0940  142.1600 O   0  0  0  0  0  0  0  0  0  0  0  0
  193.4380  174.0030  141.3510 C   0  0  0  0  0  2  0  0  0  0  0  0
  194.8710  171.1090  137.2650 C   0  0  0  0  0  1  0  0  0  0  0  0
  194.7320  173.8510  142.1580 C   0  0  2  0  0  3  0  0  0  0  0  0
  191.9020  172.4840  140.1220 C   0  0  0  0  0  2  0  0  0  0  0  0
  194.5250  173.8880  143.7060 C   0  0  1  0  0  3  0  0  0  0  0  0
  195.0930  173.5930  135.8310 O   0  0  0  0  0  0  0  0  0  0  0  0
  191.4750  172.9770  142.5160 C   0  0  0  0  0  2  0  0  0  0  0  0
  197.9380  175.2250  138.6850 C   0  0  0  0  0  2  0  0  0  0  0  0
  193.5990  172.4510  145.6200 C   0  0  0  0  0  2  0  0  0  0  0  0
  196.0410  172.2050  144.8900 C   0  0  0  0  0  2  0  0  0  0  0  0
  193.2720  172.0110  135.3840 C   0  0  0  0  0  2  0  0  0  0  0  0
  195.6500  174.9330  141.6720 C   0  0  0  0  0  0  0  0  0  0  0  0
  192.8670  171.7200  139.2380 C   0  0  0  0  0  2  0  0  0  0  0  0
  196.7940  175.3500  137.6940 C   0  0  0  0  0  2  0  0  0  0  0  0
  195.9890  174.6140  135.5060 C   0  0  0  0  0  0  0  0  0  0  0  0
  193.4080  172.9150  144.1720 C   0  0  1  0  0  3  0  0  0  0  0  0
  190.9810  173.4380  144.9830 C   0  0  2  0  0  3  0  0  0  0  0  0
  189.5800  173.1520  144.4670 C   0  0  0  0  0  1  0  0  0  0  0  0
  190.9890  174.7340  145.7800 C   0  0  0  0  0  2  0  0  0  0  0  0
  190.6660  176.6520  144.4130 O   0  0  0  0  0  1  0  0  0  0  0  0
  189.9870  175.7350  145.2140 C   0  0  2  0  0  3  0  0  0  0  0  0
  188.0140  177.0270  146.1220 C   0  0  0  0  0  0  0  0  0  0  0  0
  189.3100  176.4510  146.2890 N   0  0  0  0  0  2  0  0  0  0  0  0
  187.3250  176.9010  144.8710 N   0  0  0  0  0  2  0  0  0  0  0  0
  187.4600  177.6530  147.1100 N   0  0  0  0  0  2  0  0  0  0  0  0
  183.9460  178.0490  141.9340 F   0  0  0  0  0  0  0  0  0  0  0  0
  185.3940  179.2920  143.1750 O   0  0  0  0  0  0  0  0  0  0  0  0
  185.2300  178.1070  142.4390 C   0  0  1  0  0  0  0  0  0  0  0  0
  186.2120  178.9720  144.2710 C   0  0  0  0  0  2  0  0  0  0  0  0
  185.4520  176.9260  143.3520 C   0  0  0  0  0  2  0  0  0  0  0  0
  186.0310  177.5130  144.6040 C   0  0  1  0  0  3  0  0  0  0  0  0
  186.2260  178.0570  141.2910 C   0  0  0  0  0  2  0  0  0  0  0  0
  187.1130  176.9920  141.4620 O   0  0  0  0  0  1  0  0  0  0  0  0
  192.8550  174.5660  135.5660 C   0  0  0  0  0  3  0  0  0  0  0  0
  192.9480  174.9990  136.9970 C   0  0  0  0  0  3  0  0  0  0  0  0
  193.4350  176.0800  137.2890 O   0  0  0  0  0  0  0  0  0  0  0  0
  191.4470  174.2110  135.2100 C   0  0  0  0  0  3  0  0  0  0  0  0
  190.5460  175.0150  135.3850 O   0  0  0  0  0  0  0  0  0  0  0  0
  191.3260  170.0960  136.2440 C   0  0  0  0  0  2  0  0  0  0  0  0
  190.0450  170.4980  136.8850 C   0  0  0  0  0  0  0  0  0  0  0  0
  189.5510  169.7900  137.8000 O   0  0  0  0  0  1  0  0  0  0  0  0
  189.3760  171.6330  136.4480 O   0  0  0  0  0  0  0  0  0  0  0  0
  2 25  1  0  0  0  0
  2 48  1  1  0  0  0
  2 20  1  0  0  0  0
  3  7  1  0  0  0  0
  3 16  1  1  0  0  0
  3  4  1  0  0  0  0
  4 27  1  1  0  0  0
  5 28  1  0  0  0  0
  7 53  1  6  0  0  0
  7  4  1  0  0  0  0
  8 29  2  0  0  0  0
  9 30  1  0  0  0  0
  9 31  1  1  0  0  0
 10 18  1  6  0  0  0
 10 21  1  0  0  0  0
 11 26  1  0  0  0  0
 12 11  1  0  0  0  0
 13  1  1  6  0  0  0
 13 24  1  0  0  0  0
 15 10  1  0  0  0  0
 17 15  1  6  0  0  0
 17 19  1  0  0  0  0
 19 30  1  0  0  0  0
 19 13  1  0  0  0  0
 21  9  1  0  0  0  0
 22 12  1  0  0  0  0
 23  6  1  0  0  0  0
 24  6  1  0  0  0  0
 25  3  1  0  0  0  0
 26 17  1  0  0  0  0
 26 14  2  0  0  0  0
 27 18  1  0  0  0  0
 28 22  1  0  0  0  0
 29 20  1  0  0  0  0
 29  5  1  0  0  0  0
 30 23  1  0  0  0  0
 31 33  1  0  0  0  0
 32 31  1  0  0  0  0
 34 35  1  0  0  0  0
 35 33  1  0  0  0  0
 35 37  1  0  0  0  0
 36 37  1  0  0  0  0
 36 39  2  0  0  0  0
 38 36  1  0  0  0  0
 40 42  1  0  0  0  0
 41 43  1  0  0  0  0
 42 41  1  0  0  0  0
 42 44  1  0  0  0  0
 43 45  1  0  0  0  0
 44 45  1  0  0  0  0
 45 38  1  0  0  0  0
 46 47  1  0  0  0  0
 46 42  1  0  0  0  0
 48 49  1  0  0  0  0
 49 50  2  0  0  0  0
 51 52  2  0  0  0  0
 51 48  1  0  0  0  0
 53 54  1  0  0  0  0
 54 55  1  0  0  0  0
 56 54  2  0  0  0  0
M  END
>  <MODEL>
3

>  <REMARK>
 VINA RESULT:      -6.6      2.728      5.653
  Name = 
  11 active torsions:
  status: ('A' for Active; 'I' for Inactive)
    1  A    between atoms: C_2  and  C_9
    2  A    between atoms: C_7  and  C_22
    3  A    between atoms: C_9  and  C_13
    4  A    between atoms: C_9  and  C_27
    5  A    between atoms: C_10  and  C_22
    6  A    between atoms: C_14  and  C_24
    7  A    between atoms: C_24  and  C_34
    8  A    between atoms: C_29  and  C_43
    9  A    between atoms: N_30  and  C_52
   10  A    between atoms: N_33  and  C_55
   11  A    between atoms: C_34  and  C_52
                            x       y       z     vdW  Elec       q    Type
                         _______ _______ _______ _____ _____    ______ ____

>  <TORSDO>
F 11

$$$$
=
 OpenBabel11072408283D

 56 60  0  0  1  0  0  0  0  0999 V2000
  188.2740  172.0470  139.6960 O   0  0  0  0  0  1  0  0  0  0  0  0
  197.4030  171.2240  141.5100 C   0  0  1  0  0  3  0  0  0  0  0  0
  196.5550  173.5030  140.6040 C   0  0  2  0  0  0  0  0  0  0  0  0
  195.7900  174.2810  141.6730 C   0  0  1  0  0  3  0  0  0  0  0  0
  195.1520  168.7130  139.7160 C   0  0  0  0  0  2  0  0  0  0  0  0
  187.7670  175.7540  139.8080 C   0  0  0  0  0  2  0  0  0  0  0  0
  196.6990  175.0210  140.7000 C   0  0  1  0  0  3  0  0  0  0  0  0
  197.0140  168.4410  141.1750 O   0  0  0  0  0  0  0  0  0  0  0  0
  189.7510  175.3400  143.1610 C   0  0  2  0  0  3  0  0  0  0  0  0
  192.0540  174.7080  142.2410 C   0  0  2  0  0  3  0  0  0  0  0  0
  191.3910  170.7430  140.2350 N   0  0  0  0  0  2  0  0  0  0  0  0
  191.3930  169.2930  140.1140 C   0  0  0  0  0  2  0  0  0  0  0  0
  188.1510  173.3050  140.2880 C   0  0  1  0  0  3  0  0  0  0  0  0
  189.7670  170.7870  141.9130 O   0  0  0  0  0  0  0  0  0  0  0  0
  191.6060  173.2570  142.3010 C   0  0  0  0  0  2  0  0  0  0  0  0
  195.8620  173.1020  139.3040 C   0  0  0  0  0  1  0  0  0  0  0  0
  190.5860  172.9290  141.2050 C   0  0  2  0  0  3  0  0  0  0  0  0
  193.5330  174.8060  142.5510 C   0  0  0  0  0  2  0  0  0  0  0  0
  189.1840  173.5800  141.4250 C   0  0  1  0  0  3  0  0  0  0  0  0
  196.4650  170.6190  140.6250 O   0  0  0  0  0  0  0  0  0  0  0  0
  191.2710  175.5510  143.2430 C   0  0  0  0  0  2  0  0  0  0  0  0
  192.6790  168.8350  139.4480 C   0  0  0  0  0  2  0  0  0  0  0  0
  188.0150  175.8630  141.3110 C   0  0  0  0  0  2  0  0  0  0  0  0
  188.1790  174.3950  139.2200 C   0  0  0  0  0  2  0  0  0  0  0  0
  197.7500  172.6600  141.0780 C   0  0  0  0  0  2  0  0  0  0  0  0
  190.5230  171.4310  141.1370 C   0  0  0  0  0  0  0  0  0  0  0  0
  194.3360  174.5030  141.3010 C   0  0  0  0  0  2  0  0  0  0  0  0
  193.8420  169.0310  140.4060 C   0  0  0  0  0  2  0  0  0  0  0  0
  196.2740  169.2380  140.5410 C   0  0  0  0  0  0  0  0  0  0  0  0
  189.2830  175.1020  141.7160 C   0  0  1  0  0  3  0  0  0  0  0  0
  188.9640  176.3860  143.9690 C   0  0  2  0  0  3  0  0  0  0  0  0
  189.5560  177.7810  143.8460 C   0  0  0  0  0  1  0  0  0  0  0  0
  188.8900  175.9770  145.4320 C   0  0  0  0  0  2  0  0  0  0  0  0
  190.5860  176.6390  146.9620 O   0  0  0  0  0  1  0  0  0  0  0  0
  189.4190  177.0820  146.3400 C   0  0  2  0  0  3  0  0  0  0  0  0
  187.0780  177.7310  147.0390 C   0  0  0  0  0  0  0  0  0  0  0  0
  188.4360  177.4250  147.3620 N   0  0  0  0  0  2  0  0  0  0  0  0
  186.6350  177.6960  145.6760 N   0  0  0  0  0  2  0  0  0  0  0  0
  186.2490  178.0300  147.9860 N   0  0  0  0  0  2  0  0  0  0  0  0
  183.4150  178.1330  142.3900 F   0  0  0  0  0  0  0  0  0  0  0  0
  184.4910  179.6510  143.7020 O   0  0  0  0  0  0  0  0  0  0  0  0
  184.6120  178.4360  143.0080 C   0  0  1  0  0  0  0  0  0  0  0  0
  185.2390  179.5150  144.8820 C   0  0  0  0  0  2  0  0  0  0  0  0
  184.9480  177.3410  143.9910 C   0  0  0  0  0  2  0  0  0  0  0  0
  185.2870  178.0580  145.2630 C   0  0  1  0  0  3  0  0  0  0  0  0
  185.7110  178.5340  141.9610 C   0  0  0  0  0  2  0  0  0  0  0  0
  185.1740  178.3980  140.6780 O   0  0  0  0  0  1  0  0  0  0  0  0
  196.9810  171.0730  142.9820 C   0  0  0  0  0  3  0  0  0  0  0  0
  195.5060  171.2160  143.2060 C   0  0  0  0  0  3  0  0  0  0  0  0
  194.8440  170.2730  143.6090 O   0  0  0  0  0  0  0  0  0  0  0  0
  197.7440  172.0070  143.8650 C   0  0  0  0  0  3  0  0  0  0  0  0
  197.3890  172.1930  145.0180 O   0  0  0  0  0  0  0  0  0  0  0  0
  197.9380  175.4910  141.4520 C   0  0  0  0  0  2  0  0  0  0  0  0
  197.5470  176.0290  142.7840 C   0  0  0  0  0  0  0  0  0  0  0  0
  196.9240  177.1190  142.8640 O   0  0  0  0  0  0  0  0  0  0  0  0
  197.9040  175.3480  143.9390 O   0  0  0  0  0  1  0  0  0  0  0  0
  2 48  1  1  0  0  0
  3 16  1  6  0  0  0
  3  7  1  0  0  0  0
  3 25  1  0  0  0  0
  3  4  1  0  0  0  0
  4 27  1  6  0  0  0
  5 28  1  0  0  0  0
  5 29  1  0  0  0  0
  6 23  1  0  0  0  0
  7 53  1  1  0  0  0
  7  4  1  0  0  0  0
  9 21  1  0  0  0  0
  9 31  1  6  0  0  0
 10 15  1  1  0  0  0
 10 18  1  0  0  0  0
 10 21  1  0  0  0  0
 11 26  1  0  0  0  0
 12 11  1  0  0  0  0
 13  1  1  6  0  0  0
 13 19  1  0  0  0  0
 17 19  1  0  0  0  0
 17 15  1  1  0  0  0
 19 30  1  0  0  0  0
 20  2  1  0  0  0  0
 22 12  1  0  0  0  0
 22 28  1  0  0  0  0
 23 30  1  0  0  0  0
 24  6  1  0  0  0  0
 24 13  1  0  0  0  0
 25  2  1  0  0  0  0
 26 17  1  0  0  0  0
 26 14  2  0  0  0  0
 27 18  1  0  0  0  0
 29 20  1  0  0  0  0
 29  8  2  0  0  0  0
 30  9  1  0  0  0  0
 31 33  1  0  0  0  0
 32 31  1  0  0  0  0
 33 35  1  0  0  0  0
 35 34  1  0  0  0  0
 35 37  1  0  0  0  0
 36 37  1  0  0  0  0
 36 39  2  0  0  0  0
 38 36  1  0  0  0  0
 40 42  1  0  0  0  0
 41 43  1  0  0  0  0
 42 41  1  0  0  0  0
 42 44  1  0  0  0  0
 43 45  1  0  0  0  0
 44 45  1  0  0  0  0
 45 38  1  0  0  0  0
 46 42  1  0  0  0  0
 47 46  1  0  0  0  0
 48 49  1  0  0  0  0
 48 51  1  0  0  0  0
 49 50  2  0  0  0  0
 51 52  2  0  0  0  0
 53 54  1  0  0  0  0
 54 55  2  0  0  0  0
 54 56  1  0  0  0  0
M  END
>  <MODEL>
4

>  <REMARK>
 VINA RESULT:      -6.4      2.924      4.380
  Name = 
  11 active torsions:
  status: ('A' for Active; 'I' for Inactive)
    1  A    between atoms: C_2  and  C_9
    2  A    between atoms: C_7  and  C_22
    3  A    between atoms: C_9  and  C_13
    4  A    between atoms: C_9  and  C_27
    5  A    between atoms: C_10  and  C_22
    6  A    between atoms: C_14  and  C_24
    7  A    between atoms: C_24  and  C_34
    8  A    between atoms: C_29  and  C_43
    9  A    between atoms: N_30  and  C_52
   10  A    between atoms: N_33  and  C_55
   11  A    between atoms: C_34  and  C_52
                            x       y       z     vdW  Elec       q    Type
                         _______ _______ _______ _____ _____    ______ ____

>  <TORSDO>
F 11

$$$$
=
 OpenBabel11072408283D

 56 60  0  0  1  0  0  0  0  0999 V2000
  188.9290  175.5050  142.6640 O   0  0  0  0  0  1  0  0  0  0  0  0
  193.1530  172.1190  135.0490 C   0  0  1  0  0  3  0  0  0  0  0  0
  193.7990  174.5100  135.8220 C   0  0  2  0  0  0  0  0  0  0  0  0
  194.6790  174.4770  137.0710 C   0  0  1  0  0  3  0  0  0  0  0  0
  189.4430  171.9210  135.9330 C   0  0  0  0  0  2  0  0  0  0  0  0
  191.3080  178.1730  143.7790 C   0  0  0  0  0  2  0  0  0  0  0  0
  194.9460  175.5080  135.9820 C   0  0  1  0  0  3  0  0  0  0  0  0
  190.9050  170.4190  134.8020 O   0  0  0  0  0  0  0  0  0  0  0  0
  193.8890  175.2670  143.2810 C   0  0  2  0  0  3  0  0  0  0  0  0
  193.8180  175.0410  140.7330 C   0  0  2  0  0  3  0  0  0  0  0  0
  189.6290  173.6700  139.8620 N   0  0  0  0  0  2  0  0  0  0  0  0
  188.5720  172.7130  139.5710 C   0  0  0  0  0  2  0  0  0  0  0  0
  190.0980  176.0280  143.2220 C   0  0  1  0  0  3  0  0  0  0  0  0
  190.0410  172.8470  142.0090 O   0  0  0  0  0  0  0  0  0  0  0  0
  192.6910  174.0380  140.9200 C   0  0  0  0  0  2  0  0  0  0  0  0
  192.4490  175.2220  135.8540 C   0  0  0  0  0  1  0  0  0  0  0  0
  191.3840  174.7190  141.3390 C   0  0  2  0  0  3  0  0  0  0  0  0
  194.6690  174.6470  139.5430 C   0  0  0  0  0  2  0  0  0  0  0  0
  191.3990  175.2780  142.7980 C   0  0  1  0  0  3  0  0  0  0  0  0
  191.8220  172.4460  135.4340 O   0  0  0  0  0  0  0  0  0  0  0  0
  194.6920  175.1020  141.9810 C   0  0  0  0  0  2  0  0  0  0  0  0
  188.3680  172.6140  138.0690 C   0  0  0  0  0  2  0  0  0  0  0  0
  192.4060  177.1910  144.1810 C   0  0  0  0  0  2  0  0  0  0  0  0
  190.1890  177.5250  142.9460 C   0  0  0  0  0  2  0  0  0  0  0  0
  194.0000  173.3800  134.7990 C   0  0  0  0  0  2  0  0  0  0  0  0
  190.3020  173.7030  141.1210 C   0  0  0  0  0  0  0  0  0  0  0  0
  194.0160  175.1370  138.2660 C   0  0  0  0  0  2  0  0  0  0  0  0
  189.5570  171.9080  137.4430 C   0  0  0  0  0  2  0  0  0  0  0  0
  190.7570  171.5460  135.3430 C   0  0  0  0  0  0  0  0  0  0  0  0
  192.6490  176.1540  143.0780 C   0  0  1  0  0  3  0  0  0  0  0  0
  194.7790  175.6060  144.4880 C   0  0  2  0  0  3  0  0  0  0  0  0
  196.0580  176.3210  144.0840 C   0  0  0  0  0  1  0  0  0  0  0  0
  195.1110  174.3440  145.2700 C   0  0  0  0  0  2  0  0  0  0  0  0
  192.8680  173.9340  145.9440 O   0  0  0  0  0  1  0  0  0  0  0  0
  193.9410  173.3660  145.2590 C   0  0  2  0  0  3  0  0  0  0  0  0
  194.3540  170.8730  145.2030 C   0  0  0  0  0  0  0  0  0  0  0  0
  194.3110  172.1130  145.9100 N   0  0  0  0  0  2  0  0  0  0  0  0
  194.0410  170.8280  143.8050 N   0  0  0  0  0  2  0  0  0  0  0  0
  194.6870  169.7910  145.8310 N   0  0  0  0  0  2  0  0  0  0  0  0
  193.1460  168.5710  139.8720 F   0  0  0  0  0  0  0  0  0  0  0  0
  192.2180  168.4710  141.9490 O   0  0  0  0  0  0  0  0  0  0  0  0
  192.8070  169.3100  140.9880 C   0  0  1  0  0  0  0  0  0  0  0  0
  192.6600  168.9260  143.2020 C   0  0  0  0  0  2  0  0  0  0  0  0
  194.0580  169.9210  141.5700 C   0  0  0  0  0  2  0  0  0  0  0  0
  194.0000  169.5950  143.0320 C   0  0  1  0  0  3  0  0  0  0  0  0
  191.8390  170.4140  140.5880 C   0  0  0  0  0  2  0  0  0  0  0  0
  190.6340  169.8660  140.1430 O   0  0  0  0  0  1  0  0  0  0  0  0
  193.7880  171.0880  135.9980 C   0  0  0  0  0  3  0  0  0  0  0  0
  193.4310  171.2930  137.4380 C   0  0  0  0  0  3  0  0  0  0  0  0
  194.2940  171.2750  138.3020 O   0  0  0  0  0  0  0  0  0  0  0  0
  195.2720  171.0290  135.8240 C   0  0  0  0  0  3  0  0  0  0  0  0
  195.7890  170.0720  135.2720 O   0  0  0  0  0  0  0  0  0  0  0  0
  196.2250  175.1230  135.2500 C   0  0  0  0  0  2  0  0  0  0  0  0
  197.2940  174.8030  136.2340 C   0  0  0  0  0  0  0  0  0  0  0  0
  197.8250  173.6630  136.2370 O   0  0  0  0  0  0  0  0  0  0  0  0
  197.6790  175.7490  137.1730 O   0  0  0  0  0  1  0  0  0  0  0  0
  2 20  1  0  0  0  0
  2 48  1  1  0  0  0
  3 16  1  1  0  0  0
  3  7  1  0  0  0  0
  3  4  1  0  0  0  0
  4 27  1  1  0  0  0
  5 28  1  0  0  0  0
  6 23  1  0  0  0  0
  7 53  1  6  0  0  0
  7  4  1  0  0  0  0
  8 29  2  0  0  0  0
  9 31  1  1  0  0  0
 10 18  1  6  0  0  0
 10 15  1  0  0  0  0
 10 21  1  0  0  0  0
 11 26  1  0  0  0  0
 12 11  1  0  0  0  0
 13  1  1  6  0  0  0
 17 15  1  1  0  0  0
 17 19  1  0  0  0  0
 19 30  1  0  0  0  0
 19 13  1  0  0  0  0
 21  9  1  0  0  0  0
 22 12  1  0  0  0  0
 24 13  1  0  0  0  0
 24  6  1  0  0  0  0
 25  2  1  0  0  0  0
 25  3  1  0  0  0  0
 26 17  1  0  0  0  0
 26 14  2  0  0  0  0
 27 18  1  0  0  0  0
 28 22  1  0  0  0  0
 29 20  1  0  0  0  0
 29  5  1  0  0  0  0
 30  9  1  0  0  0  0
 30 23  1  0  0  0  0
 31 33  1  0  0  0  0
 32 31  1  0  0  0  0
 35 33  1  0  0  0  0
 35 37  1  0  0  0  0
 35 34  1  0  0  0  0
 36 39  2  0  0  0  0
 36 37  1  0  0  0  0
 38 36  1  0  0  0  0
 40 42  1  0  0  0  0
 41 43  1  0  0  0  0
 42 44  1  0  0  0  0
 42 41  1  0  0  0  0
 44 45  1  0  0  0  0
 45 43  1  0  0  0  0
 45 38  1  0  0  0  0
 46 42  1  0  0  0  0
 47 46  1  0  0  0  0
 48 49  1  0  0  0  0
 49 50  2  0  0  0  0
 51 48  1  0  0  0  0
 52 51  2  0  0  0  0
 53 54  1  0  0  0  0
 54 55  2  0  0  0  0
 54 56  1  0  0  0  0
M  END
>  <MODEL>
5

>  <REMARK>
 VINA RESULT:      -6.3      3.274      5.075
  Name = 
  11 active torsions:
  status: ('A' for Active; 'I' for Inactive)
    1  A    between atoms: C_2  and  C_9
    2  A    between atoms: C_7  and  C_22
    3  A    between atoms: C_9  and  C_13
    4  A    between atoms: C_9  and  C_27
    5  A    between atoms: C_10  and  C_22
    6  A    between atoms: C_14  and  C_24
    7  A    between atoms: C_24  and  C_34
    8  A    between atoms: C_29  and  C_43
    9  A    between atoms: N_30  and  C_52
   10  A    between atoms: N_33  and  C_55
   11  A    between atoms: C_34  and  C_52
                            x       y       z     vdW  Elec       q    Type
                         _______ _______ _______ _____ _____    ______ ____

>  <TORSDO>
F 11

$$$$
=
 OpenBabel11072408283D

 56 60  0  0  1  0  0  0  0  0999 V2000
  192.6760  176.4260  146.7980 O   0  0  0  0  0  1  0  0  0  0  0  0
  195.5640  172.6160  138.7700 C   0  0  1  0  0  3  0  0  0  0  0  0
  193.7350  171.3560  140.1130 C   0  0  2  0  0  0  0  0  0  0  0  0
  192.3790  172.0520  140.0020 C   0  0  1  0  0  3  0  0  0  0  0  0
  197.7190  174.1570  141.5220 C   0  0  0  0  0  2  0  0  0  0  0  0
  189.3180  174.8400  147.2740 C   0  0  0  0  0  2  0  0  0  0  0  0
  192.4530  170.5310  140.0130 C   0  0  1  0  0  3  0  0  0  0  0  0
  197.9400  174.1040  139.1510 O   0  0  0  0  0  0  0  0  0  0  0  0
  188.9060  175.9550  143.5410 C   0  0  2  0  0  3  0  0  0  0  0  0
  190.5720  174.3700  142.4170 C   0  0  2  0  0  3  0  0  0  0  0  0
  194.5630  175.6150  144.0620 N   0  0  0  0  0  2  0  0  0  0  0  0
  195.8460  176.3030  144.0730 C   0  0  0  0  0  2  0  0  0  0  0  0
  191.3200  176.1990  146.5530 C   0  0  1  0  0  3  0  0  0  0  0  0
  193.2980  177.5760  144.1480 O   0  0  0  0  0  0  0  0  0  0  0  0
  191.6340  175.4340  142.6410 C   0  0  0  0  0  2  0  0  0  0  0  0
  194.3950  171.1750  141.4770 C   0  0  0  0  0  1  0  0  0  0  0  0
  192.0420  175.5320  144.1150 C   0  0  2  0  0  3  0  0  0  0  0  0
  190.8380  173.6400  141.1160 C   0  0  0  0  0  2  0  0  0  0  0  0
  190.9440  176.1470  145.0400 C   0  0  1  0  0  3  0  0  0  0  0  0
  196.1440  172.9410  140.0290 O   0  0  0  0  0  0  0  0  0  0  0  0
  189.1840  175.0010  142.3680 C   0  0  0  0  0  2  0  0  0  0  0  0
  196.9280  175.3800  143.5420 C   0  0  0  0  0  2  0  0  0  0  0  0
  188.6770  175.5610  146.0910 C   0  0  0  0  0  2  0  0  0  0  0  0
  190.8520  174.9530  147.2980 C   0  0  0  0  0  2  0  0  0  0  0  0
  194.6380  171.3910  138.8690 C   0  0  0  0  0  2  0  0  0  0  0  0
  193.3210  176.3160  144.1360 C   0  0  0  0  0  0  0  0  0  0  0  0
  191.8770  172.5610  141.3420 C   0  0  0  0  0  2  0  0  0  0  0  0
  196.7360  175.1830  142.0480 C   0  0  0  0  0  2  0  0  0  0  0  0
  197.2900  173.7290  140.1620 C   0  0  0  0  0  0  0  0  0  0  0  0
  189.5630  175.4670  144.8430 C   0  0  1  0  0  3  0  0  0  0  0  0
  187.4270  176.3620  143.6350 C   0  0  2  0  0  3  0  0  0  0  0  0
  186.4880  175.2500  143.1940 C   0  0  0  0  0  1  0  0  0  0  0  0
  187.1710  177.6170  142.8140 C   0  0  0  0  0  2  0  0  0  0  0  0
  187.2060  177.8800  140.4510 O   0  0  0  0  0  1  0  0  0  0  0  0
  186.4950  177.2790  141.4890 C   0  0  2  0  0  3  0  0  0  0  0  0
  184.5520  178.4760  142.5760 C   0  0  0  0  0  0  0  0  0  0  0  0
  185.1210  177.7710  141.4710 N   0  0  0  0  0  2  0  0  0  0  0  0
  185.3350  178.7340  143.7480 N   0  0  0  0  0  2  0  0  0  0  0  0
  183.3270  178.8890  142.5070 N   0  0  0  0  0  2  0  0  0  0  0  0
  185.7970  180.0690  148.1490 F   0  0  0  0  0  0  0  0  0  0  0  0
  184.4020  178.5880  147.1280 O   0  0  0  0  0  0  0  0  0  0  0  0
  185.6940  179.1380  147.1340 C   0  0  1  0  0  0  0  0  0  0  0  0
  184.0560  178.3900  145.7820 C   0  0  0  0  0  2  0  0  0  0  0  0
  185.9420  179.8230  145.8120 C   0  0  0  0  0  2  0  0  0  0  0  0
  184.8060  179.3880  144.9360 C   0  0  1  0  0  3  0  0  0  0  0  0
  186.7310  178.0460  147.3450 C   0  0  0  0  0  2  0  0  0  0  0  0
  186.1080  176.8410  147.6780 O   0  0  0  0  0  1  0  0  0  0  0  0
  194.9390  173.8490  138.0920 C   0  0  0  0  0  3  0  0  0  0  0  0
  194.0440  174.6440  138.9920 C   0  0  0  0  0  3  0  0  0  0  0  0
  194.4340  175.6880  139.4920 O   0  0  0  0  0  0  0  0  0  0  0  0
  194.2260  173.4740  136.8330 C   0  0  0  0  0  3  0  0  0  0  0  0
  194.8570  173.2180  135.8200 O   0  0  0  0  0  0  0  0  0  0  0  0
  192.1390  170.0190  138.6130 C   0  0  0  0  0  2  0  0  0  0  0  0
  190.8670  170.6190  138.1280 C   0  0  0  0  0  0  0  0  0  0  0  0
  190.8850  171.7120  137.5050 O   0  0  0  0  0  0  0  0  0  0  0  0
  189.6570  169.9930  138.3960 O   0  0  0  0  0  1  0  0  0  0  0  0
  2 48  1  1  0  0  0
  2 25  1  0  0  0  0
  2 20  1  0  0  0  0
  3 16  1  1  0  0  0
  4  7  1  0  0  0  0
  4  3  1  0  0  0  0
  4 27  1  1  0  0  0
  5 28  1  0  0  0  0
  6 24  1  0  0  0  0
  7 53  1  6  0  0  0
  7  3  1  0  0  0  0
  8 29  2  0  0  0  0
  9 31  1  1  0  0  0
  9 30  1  0  0  0  0
 10 18  1  6  0  0  0
 10 15  1  0  0  0  0
 11 12  1  0  0  0  0
 11 26  1  0  0  0  0
 13  1  1  6  0  0  0
 13 24  1  0  0  0  0
 17 15  1  6  0  0  0
 17 26  1  0  0  0  0
 17 19  1  0  0  0  0
 18 27  1  0  0  0  0
 19 13  1  0  0  0  0
 20 29  1  0  0  0  0
 21 10  1  0  0  0  0
 21  9  1  0  0  0  0
 22 12  1  0  0  0  0
 23  6  1  0  0  0  0
 25  3  1  0  0  0  0
 26 14  2  0  0  0  0
 28 22  1  0  0  0  0
 29  5  1  0  0  0  0
 30 19  1  0  0  0  0
 30 23  1  0  0  0  0
 32 31  1  0  0  0  0
 33 31  1  0  0  0  0
 34 35  1  0  0  0  0
 35 33  1  0  0  0  0
 36 38  1  0  0  0  0
 37 35  1  0  0  0  0
 37 36  1  0  0  0  0
 38 45  1  0  0  0  0
 39 36  2  0  0  0  0
 41 42  1  0  0  0  0
 42 46  1  0  0  0  0
 42 40  1  0  0  0  0
 43 41  1  0  0  0  0
 44 42  1  0  0  0  0
 45 43  1  0  0  0  0
 45 44  1  0  0  0  0
 46 47  1  0  0  0  0
 48 49  1  0  0  0  0
 49 50  2  0  0  0  0
 51 48  1  0  0  0  0
 52 51  2  0  0  0  0
 54 56  1  0  0  0  0
 54 53  1  0  0  0  0
 55 54  2  0  0  0  0
M  END
>  <MODEL>
6

>  <REMARK>
 VINA RESULT:      -6.3      2.674      5.902
  Name = 
  11 active torsions:
  status: ('A' for Active; 'I' for Inactive)
    1  A    between atoms: C_2  and  C_9
    2  A    between atoms: C_7  and  C_22
    3  A    between atoms: C_9  and  C_13
    4  A    between atoms: C_9  and  C_27
    5  A    between atoms: C_10  and  C_22
    6  A    between atoms: C_14  and  C_24
    7  A    between atoms: C_24  and  C_34
    8  A    between atoms: C_29  and  C_43
    9  A    between atoms: N_30  and  C_52
   10  A    between atoms: N_33  and  C_55
   11  A    between atoms: C_34  and  C_52
                            x       y       z     vdW  Elec       q    Type
                         _______ _______ _______ _____ _____    ______ ____

>  <TORSDO>
F 11

$$$$
=
 OpenBabel11072408283D

 56 60  0  0  1  0  0  0  0  0999 V2000
  189.7130  177.7000  146.7970 O   0  0  0  0  0  1  0  0  0  0  0  0
  195.4000  172.0420  142.0070 C   0  0  1  0  0  3  0  0  0  0  0  0
  193.0010  171.1920  142.5140 C   0  0  2  0  0  0  0  0  0  0  0  0
  191.9620  171.8910  141.6390 C   0  0  1  0  0  3  0  0  0  0  0  0
  196.2400  174.0970  145.1140 C   0  0  0  0  0  2  0  0  0  0  0  0
  186.3270  176.3880  145.8880 C   0  0  0  0  0  2  0  0  0  0  0  0
  191.8060  170.4120  141.9660 C   0  0  1  0  0  3  0  0  0  0  0  0
  197.5180  173.4910  143.1970 O   0  0  0  0  0  0  0  0  0  0  0  0
  187.8410  176.6260  142.2820 C   0  0  2  0  0  3  0  0  0  0  0  0
  189.5940  174.7660  142.4120 C   0  0  2  0  0  3  0  0  0  0  0  0
  192.5120  176.2130  145.5070 N   0  0  0  0  0  2  0  0  0  0  0  0
  193.7280  176.8390  146.0040 C   0  0  0  0  0  2  0  0  0  0  0  0
  188.6050  177.4710  145.9770 C   0  0  1  0  0  3  0  0  0  0  0  0
  191.6400  178.1860  144.6100 O   0  0  0  0  0  0  0  0  0  0  0  0
  190.5730  175.8150  142.9160 C   0  0  0  0  0  2  0  0  0  0  0  0
  192.9260  171.3060  144.0340 C   0  0  0  0  0  1  0  0  0  0  0  0
  190.2660  176.2350  144.3580 C   0  0  2  0  0  3  0  0  0  0  0  0
  190.3230  173.7470  141.5590 C   0  0  0  0  0  2  0  0  0  0  0  0
  188.9650  177.0860  144.5090 C   0  0  1  0  0  3  0  0  0  0  0  0
  195.3750  172.6270  143.3050 O   0  0  0  0  0  0  0  0  0  0  0  0
  188.4900  175.4190  141.5870 C   0  0  0  0  0  2  0  0  0  0  0  0
  194.7910  175.7800  146.2400 C   0  0  0  0  0  2  0  0  0  0  0  0
  186.4110  176.8400  144.4310 C   0  0  0  0  0  2  0  0  0  0  0  0
  187.6760  176.4480  146.6230 C   0  0  0  0  0  2  0  0  0  0  0  0
  194.3700  170.9060  141.8740 C   0  0  0  0  0  2  0  0  0  0  0  0
  191.4880  176.9560  144.8440 C   0  0  0  0  0  0  0  0  0  0  0  0
  190.9770  172.7120  142.4520 C   0  0  0  0  0  2  0  0  0  0  0  0
  195.2820  175.2510  144.9040 C   0  0  0  0  0  2  0  0  0  0  0  0
  196.4300  173.3820  143.8220 C   0  0  0  0  0  0  0  0  0  0  0  0
  187.7480  176.4280  143.8040 C   0  0  1  0  0  3  0  0  0  0  0  0
  186.5590  177.0970  141.5760 C   0  0  2  0  0  3  0  0  0  0  0  0
  186.7010  177.1160  140.0630 C   0  0  0  0  0  1  0  0  0  0  0  0
  186.1530  178.4740  142.0800 C   0  0  0  0  0  2  0  0  0  0  0  0
  184.0620  178.0460  143.1290 O   0  0  0  0  0  1  0  0  0  0  0  0
  184.6400  178.6580  142.0170 C   0  0  2  0  0  3  0  0  0  0  0  0
  182.6920  177.9160  140.5880 C   0  0  0  0  0  0  0  0  0  0  0  0
  184.0970  178.0540  140.8060 N   0  0  0  0  0  2  0  0  0  0  0  0
  181.7610  178.3900  141.5690 N   0  0  0  0  0  2  0  0  0  0  0  0
  182.2650  177.3710  139.4950 N   0  0  0  0  0  2  0  0  0  0  0  0
  177.7080  179.6490  139.7370 F   0  0  0  0  0  0  0  0  0  0  0  0
  178.5250  179.7180  141.8610 O   0  0  0  0  0  0  0  0  0  0  0  0
  178.8440  179.8410  140.4990 C   0  0  1  0  0  0  0  0  0  0  0  0
  179.6180  179.0840  142.4730 C   0  0  0  0  0  2  0  0  0  0  0  0
  179.8630  178.7880  140.1360 C   0  0  0  0  0  2  0  0  0  0  0  0
  180.3190  178.2280  141.4490 C   0  0  1  0  0  3  0  0  0  0  0  0
  179.4150  181.2220  140.2130 C   0  0  0  0  0  2  0  0  0  0  0  0
  178.3860  182.1250  139.9350 O   0  0  0  0  0  1  0  0  0  0  0  0
  195.3380  173.1060  140.8960 C   0  0  0  0  0  3  0  0  0  0  0  0
  194.3010  174.1620  141.1290 C   0  0  0  0  0  3  0  0  0  0  0  0
  194.5910  175.3460  141.0520 O   0  0  0  0  0  0  0  0  0  0  0  0
  195.1640  172.4790  139.5510 C   0  0  0  0  0  3  0  0  0  0  0  0
  194.6210  173.0970  138.6490 O   0  0  0  0  0  0  0  0  0  0  0  0
  192.1030  169.6020  140.7100 C   0  0  0  0  0  2  0  0  0  0  0  0
  190.8400  169.3350  139.9700 C   0  0  0  0  0  0  0  0  0  0  0  0
  190.3970  170.1840  139.1550 O   0  0  0  0  0  0  0  0  0  0  0  0
  190.1300  168.1660  140.2080 O   0  0  0  0  0  1  0  0  0  0  0  0
  2 48  1  6  0  0  0
  2 20  1  0  0  0  0
  3 16  1  1  0  0  0
  4  7  1  0  0  0  0
  4 27  1  1  0  0  0
  4  3  1  0  0  0  0
  6 24  1  0  0  0  0
  7 53  1  6  0  0  0
  7  3  1  0  0  0  0
  8 29  2  0  0  0  0
  9 31  1  6  0  0  0
  9 30  1  0  0  0  0
 10 18  1  6  0  0  0
 10 15  1  0  0  0  0
 11 12  1  0  0  0  0
 12 22  1  0  0  0  0
 13 24  1  0  0  0  0
 13  1  1  1  0  0  0
 14 26  2  0  0  0  0
 17 15  1  6  0  0  0
 17 19  1  0  0  0  0
 17 26  1  0  0  0  0
 18 27  1  0  0  0  0
 19 13  1  0  0  0  0
 20 29  1  0  0  0  0
 21  9  1  0  0  0  0
 21 10  1  0  0  0  0
 23  6  1  0  0  0  0
 25  2  1  0  0  0  0
 25  3  1  0  0  0  0
 26 11  1  0  0  0  0
 28  5  1  0  0  0  0
 28 22  1  0  0  0  0
 29  5  1  0  0  0  0
 30 23  1  0  0  0  0
 30 19  1  0  0  0  0
 31 33  1  0  0  0  0
 32 31  1  0  0  0  0
 35 33  1  0  0  0  0
 35 34  1  0  0  0  0
 36 37  1  0  0  0  0
 36 38  1  0  0  0  0
 37 35  1  0  0  0  0
 39 36  2  0  0  0  0
 40 42  1  0  0  0  0
 41 43  1  0  0  0  0
 42 41  1  0  0  0  0
 44 42  1  0  0  0  0
 44 45  1  0  0  0  0
 45 38  1  0  0  0  0
 45 43  1  0  0  0  0
 46 42  1  0  0  0  0
 47 46  1  0  0  0  0
 48 49  1  0  0  0  0
 50 49  2  0  0  0  0
 51 48  1  0  0  0  0
 52 51  2  0  0  0  0
 54 56  1  0  0  0  0
 54 53  1  0  0  0  0
 55 54  2  0  0  0  0
M  END
>  <MODEL>
7

>  <REMARK>
 VINA RESULT:      -6.3      4.354      7.448
  Name = 
  11 active torsions:
  status: ('A' for Active; 'I' for Inactive)
    1  A    between atoms: C_2  and  C_9
    2  A    between atoms: C_7  and  C_22
    3  A    between atoms: C_9  and  C_13
    4  A    between atoms: C_9  and  C_27
    5  A    between atoms: C_10  and  C_22
    6  A    between atoms: C_14  and  C_24
    7  A    between atoms: C_24  and  C_34
    8  A    between atoms: C_29  and  C_43
    9  A    between atoms: N_30  and  C_52
   10  A    between atoms: N_33  and  C_55
   11  A    between atoms: C_34  and  C_52
                            x       y       z     vdW  Elec       q    Type
                         _______ _______ _______ _____ _____    ______ ____

>  <TORSDO>
F 11

$$$$
=
 OpenBabel11072408283D

 56 60  0  0  1  0  0  0  0  0999 V2000
  187.0760  175.9050  141.3180 O   0  0  0  0  0  1  0  0  0  0  0  0
  194.4230  171.9980  137.0690 C   0  0  1  0  0  3  0  0  0  0  0  0
  194.8170  174.2100  138.3660 C   0  0  2  0  0  0  0  0  0  0  0  0
  194.7980  173.9850  139.8770 C   0  0  1  0  0  3  0  0  0  0  0  0
  190.8990  172.4580  135.6680 C   0  0  0  0  0  2  0  0  0  0  0  0
  188.7040  178.0640  143.9070 C   0  0  0  0  0  2  0  0  0  0  0  0
  195.7810  174.9780  139.2700 C   0  0  1  0  0  3  0  0  0  0  0  0
  192.5280  170.7430  135.3840 O   0  0  0  0  0  0  0  0  0  0  0  0
  190.6770  174.7500  144.5940 C   0  0  2  0  0  3  0  0  0  0  0  0
  192.0640  174.6050  142.4480 C   0  0  2  0  0  3  0  0  0  0  0  0
  189.0120  174.0440  139.1980 N   0  0  0  0  0  2  0  0  0  0  0  0
  188.2010  173.3040  138.2430 C   0  0  0  0  0  2  0  0  0  0  0  0
  187.7640  176.1910  142.4990 C   0  0  1  0  0  3  0  0  0  0  0  0
  187.9910  173.1060  141.0770 O   0  0  0  0  0  0  0  0  0  0  0  0
  190.9140  173.8190  141.8370 C   0  0  0  0  0  2  0  0  0  0  0  0
  193.8080  175.1550  137.7180 C   0  0  0  0  0  1  0  0  0  0  0  0
  189.7110  174.7180  141.5260 C   0  0  2  0  0  3  0  0  0  0  0  0
  193.3830  174.0920  141.9080 C   0  0  0  0  0  2  0  0  0  0  0  0
  188.9550  175.2280  142.7940 C   0  0  1  0  0  3  0  0  0  0  0  0
  193.1720  172.5520  136.6730 O   0  0  0  0  0  0  0  0  0  0  0  0
  192.0530  174.4740  143.9670 C   0  0  0  0  0  2  0  0  0  0  0  0
  188.8920  173.2820  136.8910 C   0  0  0  0  0  2  0  0  0  0  0  0
  189.2230  176.8890  144.7330 C   0  0  0  0  0  2  0  0  0  0  0  0
  188.1980  177.6530  142.5140 C   0  0  0  0  0  2  0  0  0  0  0  0
  195.4180  173.0890  137.5030 C   0  0  0  0  0  2  0  0  0  0  0  0
  188.8300  173.9220  140.6090 C   0  0  0  0  0  0  0  0  0  0  0  0
  193.6620  174.7250  140.5600 C   0  0  0  0  0  2  0  0  0  0  0  0
  190.1160  172.3860  136.9630 C   0  0  0  0  0  2  0  0  0  0  0  0
  192.2470  171.8650  135.8840 C   0  0  0  0  0  0  0  0  0  0  0  0
  189.9160  175.8530  143.8400 C   0  0  1  0  0  3  0  0  0  0  0  0
  190.7410  174.8890  146.1230 C   0  0  2  0  0  3  0  0  0  0  0  0
  189.4230  174.5410  146.7950 C   0  0  0  0  0  1  0  0  0  0  0  0
  191.1670  176.2980  146.5090 C   0  0  0  0  0  2  0  0  0  0  0  0
  192.7740  177.1190  148.0580 O   0  0  0  0  0  1  0  0  0  0  0  0
  192.6380  176.3370  146.9110 C   0  0  2  0  0  3  0  0  0  0  0  0
  194.5850  176.2380  145.3020 C   0  0  0  0  0  0  0  0  0  0  0  0
  193.4480  176.9140  145.8440 N   0  0  0  0  0  2  0  0  0  0  0  0
  194.9580  174.9450  145.7960 N   0  0  0  0  0  2  0  0  0  0  0  0
  195.2690  176.7970  144.3570 N   0  0  0  0  0  2  0  0  0  0  0  0
  196.9520  171.0950  144.1950 F   0  0  0  0  0  0  0  0  0  0  0  0
  197.1880  172.2570  146.1390 O   0  0  0  0  0  0  0  0  0  0  0  0
  196.2880  171.8530  145.1390 C   0  0  1  0  0  0  0  0  0  0  0  0
  196.8170  173.5590  146.5110 C   0  0  0  0  0  2  0  0  0  0  0  0
  195.7160  173.0790  144.4700 C   0  0  0  0  0  2  0  0  0  0  0  0
  196.1370  174.2240  145.3410 C   0  0  1  0  0  3  0  0  0  0  0  0
  195.1610  171.0310  145.7450 C   0  0  0  0  0  2  0  0  0  0  0  0
  195.6710  170.1050  146.6590 O   0  0  0  0  0  1  0  0  0  0  0  0
  194.2460  170.8440  138.0730 C   0  0  0  0  0  3  0  0  0  0  0  0
  193.0840  171.0240  139.0010 C   0  0  0  0  0  3  0  0  0  0  0  0
  192.1230  170.2720  138.9470 O   0  0  0  0  0  0  0  0  0  0  0  0
  195.5030  170.5930  138.8400 C   0  0  0  0  0  3  0  0  0  0  0  0
  195.5050  170.6610  140.0590 O   0  0  0  0  0  0  0  0  0  0  0  0
  197.1820  174.3840  139.3480 C   0  0  0  0  0  2  0  0  0  0  0  0
  197.6730  174.4280  140.7510 C   0  0  0  0  0  0  0  0  0  0  0  0
  197.9400  173.3600  141.3580 O   0  0  0  0  0  0  0  0  0  0  0  0
  197.8010  175.6470  141.4040 O   0  0  0  0  0  1  0  0  0  0  0  0
  2 25  1  0  0  0  0
  2 48  1  1  0  0  0
  3 16  1  6  0  0  0
  3  7  1  0  0  0  0
  3  4  1  0  0  0  0
  4 27  1  1  0  0  0
  5 29  1  0  0  0  0
  5 28  1  0  0  0  0
  6 23  1  0  0  0  0
  7 53  1  6  0  0  0
  7  4  1  0  0  0  0
  8 29  2  0  0  0  0
  9 31  1  1  0  0  0
 10 15  1  6  0  0  0
 10 21  1  0  0  0  0
 11 26  1  0  0  0  0
 12 11  1  0  0  0  0
 13  1  1  6  0  0  0
 13 24  1  0  0  0  0
 13 19  1  0  0  0  0
 17 15  1  1  0  0  0
 17 19  1  0  0  0  0
 18 10  1  0  0  0  0
 19 30  1  0  0  0  0
 20  2  1  0  0  0  0
 21  9  1  0  0  0  0
 22 28  1  0  0  0  0
 22 12  1  0  0  0  0
 24  6  1  0  0  0  0
 25  3  1  0  0  0  0
 26 14  2  0  0  0  0
 26 17  1  0  0  0  0
 27 18  1  0  0  0  0
 29 20  1  0  0  0  0
 30  9  1  0  0  0  0
 30 23  1  0  0  0  0
 31 33  1  0  0  0  0
 31 32  1  0  0  0  0
 33 35  1  0  0  0  0
 35 34  1  0  0  0  0
 36 38  1  0  0  0  0
 36 37  1  0  0  0  0
 37 35  1  0  0  0  0
 39 36  2  0  0  0  0
 40 42  1  0  0  0  0
 41 43  1  0  0  0  0
 42 46  1  0  0  0  0
 42 41  1  0  0  0  0
 44 42  1  0  0  0  0
 44 45  1  0  0  0  0
 45 38  1  0  0  0  0
 45 43  1  0  0  0  0
 46 47  1  0  0  0  0
 48 51  1  0  0  0  0
 48 49  1  0  0  0  0
 50 49  2  0  0  0  0
 51 52  2  0  0  0  0
 53 54  1  0  0  0  0
 54 55  2  0  0  0  0
 54 56  1  0  0  0  0
M  END
>  <MODEL>
8

>  <REMARK>
 VINA RESULT:      -6.2      3.207      5.281
  Name = 
  11 active torsions:
  status: ('A' for Active; 'I' for Inactive)
    1  A    between atoms: C_2  and  C_9
    2  A    between atoms: C_7  and  C_22
    3  A    between atoms: C_9  and  C_13
    4  A    between atoms: C_9  and  C_27
    5  A    between atoms: C_10  and  C_22
    6  A    between atoms: C_14  and  C_24
    7  A    between atoms: C_24  and  C_34
    8  A    between atoms: C_29  and  C_43
    9  A    between atoms: N_30  and  C_52
   10  A    between atoms: N_33  and  C_55
   11  A    between atoms: C_34  and  C_52
                            x       y       z     vdW  Elec       q    Type
                         _______ _______ _______ _____ _____    ______ ____

>  <TORSDO>
F 11

$$$$
=
 OpenBabel11072408283D

 56 60  0  0  1  0  0  0  0  0999 V2000
  189.4030  170.7690  139.1950 O   0  0  0  0  0  1  0  0  0  0  0  0
  197.3950  171.5410  143.9740 C   0  0  1  0  0  3  0  0  0  0  0  0
  196.8150  173.4220  142.2830 C   0  0  2  0  0  0  0  0  0  0  0  0
  195.7020  174.3260  142.8100 C   0  0  1  0  0  3  0  0  0  0  0  0
  195.9910  168.4200  142.2760 C   0  0  0  0  0  2  0  0  0  0  0  0
  188.7400  174.3080  138.1680 C   0  0  0  0  0  2  0  0  0  0  0  0
  196.8580  174.9270  142.0210 C   0  0  1  0  0  3  0  0  0  0  0  0
  197.2550  168.7310  144.2710 O   0  0  0  0  0  0  0  0  0  0  0  0
  189.4790  174.9360  141.9640 C   0  0  2  0  0  3  0  0  0  0  0  0
  191.9810  174.4020  142.0250 C   0  0  2  0  0  3  0  0  0  0  0  0
  192.2000  170.0280  141.0210 N   0  0  0  0  0  2  0  0  0  0  0  0
  192.3020  168.6010  141.2890 C   0  0  0  0  0  2  0  0  0  0  0  0
  189.0360  172.1060  139.3670 C   0  0  1  0  0  3  0  0  0  0  0  0
  190.1010  170.2570  142.0200 O   0  0  0  0  0  0  0  0  0  0  0  0
  191.5980  172.9590  142.3150 C   0  0  0  0  0  2  0  0  0  0  0  0
  196.6230  172.6470  140.9820 C   0  0  0  0  0  1  0  0  0  0  0  0
  191.0270  172.2600  141.0770 C   0  0  2  0  0  3  0  0  0  0  0  0
  193.2620  174.7530  142.7530 C   0  0  0  0  0  2  0  0  0  0  0  0
  189.6080  172.7640  140.6600 C   0  0  1  0  0  3  0  0  0  0  0  0
  196.8390  170.6340  143.0260 O   0  0  0  0  0  0  0  0  0  0  0  0
  190.8710  175.3490  142.4680 C   0  0  0  0  0  2  0  0  0  0  0  0
  193.7540  168.1660  141.2120 C   0  0  0  0  0  2  0  0  0  0  0  0
  188.4570  174.7930  139.5890 C   0  0  0  0  0  2  0  0  0  0  0  0
  189.3810  172.9120  138.1190 C   0  0  0  0  0  2  0  0  0  0  0  0
  197.8110  172.8690  143.3160 C   0  0  0  0  0  2  0  0  0  0  0  0
  191.0500  170.7930  141.3860 C   0  0  0  0  0  0  0  0  0  0  0  0
  194.4530  174.2710  141.9500 C   0  0  0  0  0  2  0  0  0  0  0  0
  194.5130  168.7230  142.4040 C   0  0  0  0  0  2  0  0  0  0  0  0
  196.7440  169.2590  143.2490 C   0  0  0  0  0  0  0  0  0  0  0  0
  189.5410  174.3120  140.5600 C   0  0  1  0  0  3  0  0  0  0  0  0
  188.4240  176.0340  142.1760 C   0  0  2  0  0  3  0  0  0  0  0  0
  189.0390  177.4210  142.2780 C   0  0  0  0  0  1  0  0  0  0  0  0
  187.5950  175.7380  143.4180 C   0  0  0  0  0  2  0  0  0  0  0  0
  186.0450  176.8830  142.0250 O   0  0  0  0  0  1  0  0  0  0  0  0
  186.1860  176.3060  143.2860 C   0  0  2  0  0  3  0  0  0  0  0  0
  186.6860  177.3710  145.5230 C   0  0  0  0  0  0  0  0  0  0  0  0
  185.9430  177.3220  144.3040 N   0  0  0  0  0  2  0  0  0  0  0  0
  187.7180  176.4100  145.7780 N   0  0  0  0  0  2  0  0  0  0  0  0
  186.4280  178.2940  146.3920 N   0  0  0  0  0  2  0  0  0  0  0  0
  191.6860  176.8820  148.1020 F   0  0  0  0  0  0  0  0  0  0  0  0
  190.3640  175.0810  147.6630 O   0  0  0  0  0  0  0  0  0  0  0  0
  190.8520  176.3010  147.1670 C   0  0  1  0  0  0  0  0  0  0  0  0
  189.0360  174.9710  147.2210 C   0  0  0  0  0  2  0  0  0  0  0  0
  189.6880  177.2250  146.9050 C   0  0  0  0  0  2  0  0  0  0  0  0
  188.4730  176.3550  147.0210 C   0  0  1  0  0  3  0  0  0  0  0  0
  191.6230  176.0730  145.8750 C   0  0  0  0  0  2  0  0  0  0  0  0
  192.9820  175.8950  146.1440 O   0  0  0  0  0  1  0  0  0  0  0  0
  196.5030  171.6840  145.2200 C   0  0  0  0  0  3  0  0  0  0  0  0
  195.0370  171.6970  144.9150 C   0  0  0  0  0  3  0  0  0  0  0  0
  194.2890  170.8770  145.4250 O   0  0  0  0  0  0  0  0  0  0  0  0
  196.8870  172.8820  146.0280 C   0  0  0  0  0  3  0  0  0  0  0  0
  196.1330  173.8380  146.1090 O   0  0  0  0  0  0  0  0  0  0  0  0
  197.7460  175.7110  142.9780 C   0  0  0  0  0  2  0  0  0  0  0  0
  197.0370  176.9340  143.4410 C   0  0  0  0  0  0  0  0  0  0  0  0
  197.5980  178.0560  143.3580 O   0  0  0  0  0  0  0  0  0  0  0  0
  195.7700  176.8320  144.0000 O   0  0  0  0  0  1  0  0  0  0  0  0
  2 48  1  1  0  0  0
  3 16  1  6  0  0  0
  3  4  1  0  0  0  0
  3 25  1  0  0  0  0
  4 27  1  6  0  0  0
  5 28  1  0  0  0  0
  5 29  1  0  0  0  0
  6 23  1  0  0  0  0
  7  3  1  0  0  0  0
  7  4  1  0  0  0  0
  7 53  1  1  0  0  0
  9 31  1  6  0  0  0
  9 21  1  0  0  0  0
 10 15  1  1  0  0  0
 10 21  1  0  0  0  0
 10 18  1  0  0  0  0
 11 12  1  0  0  0  0
 11 26  1  0  0  0  0
 13  1  1  6  0  0  0
 13 19  1  0  0  0  0
 17 26  1  0  0  0  0
 17 15  1  1  0  0  0
 19 17  1  0  0  0  0
 20 29  1  0  0  0  0
 20  2  1  0  0  0  0
 22 12  1  0  0  0  0
 22 28  1  0  0  0  0
 23 30  1  0  0  0  0
 24  6  1  0  0  0  0
 24 13  1  0  0  0  0
 25  2  1  0  0  0  0
 26 14  2  0  0  0  0
 27 18  1  0  0  0  0
 29  8  2  0  0  0  0
 30 19  1  0  0  0  0
 30  9  1  0  0  0  0
 31 32  1  0  0  0  0
 31 33  1  0  0  0  0
 34 35  1  0  0  0  0
 35 33  1  0  0  0  0
 35 37  1  0  0  0  0
 36 38  1  0  0  0  0
 36 39  2  0  0  0  0
 37 36  1  0  0  0  0
 38 45  1  0  0  0  0
 42 41  1  0  0  0  0
 42 40  1  0  0  0  0
 43 41  1  0  0  0  0
 44 45  1  0  0  0  0
 44 42  1  0  0  0  0
 45 43  1  0  0  0  0
 46 47  1  0  0  0  0
 46 42  1  0  0  0  0
 48 51  1  0  0  0  0
 49 48  1  0  0  0  0
 49 50  2  0  0  0  0
 51 52  2  0  0  0  0
 53 54  1  0  0  0  0
 54 56  1  0  0  0  0
 55 54  2  0  0  0  0
M  END
>  <MODEL>
9

>  <REMARK>
 VINA RESULT:      -6.2      3.482      5.992
  Name = 
  11 active torsions:
  status: ('A' for Active; 'I' for Inactive)
    1  A    between atoms: C_2  and  C_9
    2  A    between atoms: C_7  and  C_22
    3  A    between atoms: C_9  and  C_13
    4  A    between atoms: C_9  and  C_27
    5  A    between atoms: C_10  and  C_22
    6  A    between atoms: C_14  and  C_24
    7  A    between atoms: C_24  and  C_34
    8  A    between atoms: C_29  and  C_43
    9  A    between atoms: N_30  and  C_52
   10  A    between atoms: N_33  and  C_55
   11  A    between atoms: C_34  and  C_52
                            x       y       z     vdW  Elec       q    Type
                         _______ _______ _______ _____ _____    ______ ____

>  <TORSDO>
F 11

$$$$
