=
 OpenBabel11062419103D

 54 61  0  0  1  0  0  0  0  0999 V2000
  193.6760  172.8210  137.6020 C   0  0  1  0  0  3  0  0  0  0  0  0
  194.4110  174.1310  137.5760 C   0  0  2  0  0  3  0  0  0  0  0  0
  194.1010  174.3450  140.1070 C   0  0  1  0  0  3  0  0  0  0  0  0
  192.9250  172.4450  138.9020 C   0  0  1  0  0  3  0  0  0  0  0  0
  194.2780  175.0700  138.7800 C   0  0  0  0  0  2  0  0  0  0  0  0
  193.1330  173.9730  137.0040 O   0  0  0  0  0  0  0  0  0  0  0  0
  192.8380  173.4980  140.0320 C   0  0  1  0  0  3  0  0  0  0  0  0
  190.4800  174.5360  141.8890 C   0  0  0  0  0  3  0  0  0  0  0  0
  192.5060  171.4100  141.5010 C   0  0  2  0  0  3  0  0  0  0  0  0
  188.9450  172.2130  142.3270 C   0  0  0  0  0  3  0  0  0  0  0  0
  189.1270  174.6470  142.2390 C   0  0  0  0  0  0  0  0  0  0  0  0
  192.4440  172.9490  141.4160 C   0  0  2  0  0  3  0  0  0  0  0  0
  190.2930  172.1340  141.9740 C   0  0  0  0  0  0  0  0  0  0  0  0
  191.0950  170.8980  141.8470 C   0  0  0  0  0  2  0  0  0  0  0  0
  188.3600  173.4820  142.4560 C   0  0  0  0  0  3  0  0  0  0  0  0
  191.0380  173.2640  141.7510 C   0  0  0  0  0  0  0  0  0  0  0  0
  187.0320  178.3570  142.6670 C   0  0  0  0  0  2  0  0  0  0  0  0
  186.2530  177.6620  144.9470 C   0  0  0  0  0  1  0  0  0  0  0  0
  187.8510  176.1750  143.7530 C   0  0  0  0  0  2  0  0  0  0  0  0
  187.5780  176.3390  141.2340 C   0  0  0  0  0  2  0  0  0  0  0  0
  187.4090  177.6250  143.9670 C   0  0  1  0  0  3  0  0  0  0  0  0
  188.5300  176.0080  142.3940 C   0  0  2  0  0  3  0  0  0  0  0  0
  186.5200  177.3880  141.6030 C   0  0  0  0  0  2  0  0  0  0  0  0
  193.5880  170.9550  142.4920 C   0  0  2  0  0  3  0  0  0  0  0  0
  194.7890  170.2440  141.8650 C   0  0  0  0  0  2  0  0  0  0  0  0
  194.4760  169.6430  140.5040 C   0  0  0  0  0  1  0  0  0  0  0  0
  193.1210  170.4070  143.8510 C   0  0  0  0  0  2  0  0  0  0  0  0
  193.3660  168.9160  144.0250 C   0  0  0  0  0  2  0  0  0  0  0  0
  195.0740  168.1720  145.4420 C   0  0  0  0  0  2  0  0  0  0  0  0
  194.7500  169.5440  145.8100 C   0  0  0  0  0  2  0  0  0  0  0  0
  193.6730  168.6230  145.4140 N   0  0  0  0  0  0  0  0  0  0  0  0
  191.7260  171.7340  138.6730 O   0  0  0  0  0  0  0  0  0  0  0  0
  190.7440  172.6370  138.2420 C   0  0  0  0  0  1  0  0  0  0  0  0
  195.3430  173.5340  140.4860 C   0  0  0  0  0  2  0  0  0  0  0  0
  194.4030  175.3270  144.3560 C   0  0  2  0  0  3  0  0  0  0  0  0
  196.2240  173.9710  146.1180 O   0  0  0  0  0  1  0  0  0  0  0  0
  197.2530  173.3620  142.0780 C   0  0  0  0  0  2  0  0  0  0  0  0
  195.9150  174.0370  141.7950 C   0  0  1  0  0  3  0  0  0  0  0  0
  196.4240  176.1460  143.0850 C   0  0  0  0  0  3  0  0  0  0  0  0
  194.4810  173.7890  144.3890 C   0  0  0  0  0  2  0  0  0  0  0  0
  195.5990  173.1180  145.2030 C   0  0  1  0  0  3  0  0  0  0  0  0
  196.0110  175.5610  141.7650 C   0  0  0  0  0  2  0  0  0  0  0  0
  196.6140  172.3880  144.3190 C   0  0  0  0  0  2  0  0  0  0  0  0
  197.5540  173.3330  143.5750 C   0  0  0  0  0  2  0  0  0  0  0  0
  195.7210  176.0450  144.2200 C   0  0  0  0  0  3  0  0  0  0  0  0
  193.5780  175.8860  145.5170 C   0  0  1  0  0  0  0  0  0  0  0  0
  194.2120  176.0750  146.7480 O   0  0  0  0  0  1  0  0  0  0  0  0
  192.4360  176.8560  145.2390 C   0  0  2  0  0  3  0  0  0  0  0  0
  192.1370  175.4050  145.6030 C   0  0  2  0  0  3  0  0  0  0  0  0
  192.1580  177.0590  143.7550 C   0  0  0  0  0  2  0  0  0  0  0  0
  191.0440  178.4760  143.5260 S   0  0  0  0  0  1  0  0  0  0  0  0
  191.7050  175.3420  146.9300 O   0  0  0  0  0  0  0  0  0  0  0  0
  190.1900  174.2390  145.6340 O   0  0  0  0  0  1  0  0  0  0  0  0
  190.3860  174.9040  146.8480 C   0  0  0  0  0  2  0  0  0  0  0  0
  1  6  1  6  0  0  0
  1  4  1  0  0  0  0
  2  1  1  0  0  0  0
  2  5  1  1  0  0  0
  3 34  1  6  0  0  0
  4 32  1  6  0  0  0
  4  7  1  0  0  0  0
  5  3  1  0  0  0  0
  6  2  1  0  0  0  0
  7  3  1  0  0  0  0
  7 12  1  1  0  0  0
  8 11  1  0  0  0  0
  9 14  1  0  0  0  0
  9 24  1  1  0  0  0
 10 15  1  0  0  0  0
 11 15  2  0  0  0  0
 12  9  1  0  0  0  0
 12 16  1  6  0  0  0
 13 10  2  0  0  0  0
 14 13  1  0  0  0  0
 16  8  2  0  0  0  0
 16 13  1  0  0  0  0
 17 21  1  0  0  0  0
 19 21  1  0  0  0  0
 20 23  1  0  0  0  0
 20 22  1  0  0  0  0
 21 18  1  1  0  0  0
 22 11  1  6  0  0  0
 22 19  1  0  0  0  0
 23 17  1  0  0  0  0
 24 25  1  6  0  0  0
 24 27  1  0  0  0  0
 26 25  1  0  0  0  0
 27 28  1  0  0  0  0
 28 31  1  0  0  0  0
 29 30  1  0  0  0  0
 31 29  1  0  0  0  0
 31 30  1  0  0  0  0
 33 32  1  0  0  0  0
 35 45  1  1  0  0  0
 35 40  1  0  0  0  0
 35 46  1  0  0  0  0
 37 44  1  0  0  0  0
 38 34  1  6  0  0  0
 38 37  1  0  0  0  0
 39 45  2  0  0  0  0
 40 41  1  0  0  0  0
 41 36  1  6  0  0  0
 42 38  1  0  0  0  0
 42 39  1  0  0  0  0
 43 41  1  0  0  0  0
 44 43  1  0  0  0  0
 46 49  1  0  0  0  0
 46 47  1  1  0  0  0
 48 50  1  6  0  0  0
 48 46  1  0  0  0  0
 48 49  1  0  0  0  0
 49 52  1  1  0  0  0
 51 50  1  0  0  0  0
 53 54  1  0  0  0  0
 54 52  1  0  0  0  0
M  END
>  <MODEL>
1

>  <REMARK>
 VINA RESULT:      -6.2      0.000      0.000
  Name = 
  14 active torsions:
  status: ('A' for Active; 'I' for Inactive)
    1  A    between atoms: C_2  and  C_29
    2  A    between atoms: O_3  and  C_20
    3  A    between atoms: C_4  and  C_46
    4  A    between atoms: O_5  and  C_31
    5  A    between atoms: O_5  and  C_49
    6  A    between atoms: C_10  and  C_17
    7  A    between atoms: C_10  and  C_24
    8  A    between atoms: C_11  and  C_36
    9  A    between atoms: C_12  and  C_13
   10  A    between atoms: C_23  and  C_42
   11  A    between atoms: C_25  and  N_43
   12  A    between atoms: C_25  and  C_44
   13  A    between atoms: C_44  and  C_46
   14  A    between atoms: C_46  and  C_47
                            x       y       z     vdW  Elec       q    Type
                         _______ _______ _______ _____ _____    ______ ____

>  <TORSDO>
F 14

$$$$
=
 OpenBabel11062419103D

 54 61  0  0  1  0  0  0  0  0999 V2000
  191.0320  176.6130  147.3440 C   0  0  1  0  0  3  0  0  0  0  0  0
  192.1900  175.7690  147.7940 C   0  0  2  0  0  3  0  0  0  0  0  0
  192.3920  174.8010  145.4340 C   0  0  1  0  0  3  0  0  0  0  0  0
  190.4130  176.3020  145.9590 C   0  0  1  0  0  3  0  0  0  0  0  0
  192.6130  174.5810  146.9240 C   0  0  0  0  0  2  0  0  0  0  0  0
  190.8720  175.5370  148.2360 O   0  0  0  0  0  0  0  0  0  0  0  0
  190.9090  175.0520  145.1960 C   0  0  1  0  0  3  0  0  0  0  0  0
  191.3970  172.6390  143.1890 C   0  0  0  0  0  3  0  0  0  0  0  0
  189.2090  175.6740  143.3640 C   0  0  2  0  0  3  0  0  0  0  0  0
  188.8280  172.1610  142.1320 C   0  0  0  0  0  3  0  0  0  0  0  0
  191.0830  171.3820  142.6530 C   0  0  0  0  0  0  0  0  0  0  0  0
  190.5650  175.0160  143.6940 C   0  0  2  0  0  3  0  0  0  0  0  0
  189.1680  173.4010  142.6760 C   0  0  0  0  0  0  0  0  0  0  0  0
  188.3090  174.6040  142.7190 C   0  0  0  0  0  2  0  0  0  0  0  0
  189.7950  171.1440  142.1270 C   0  0  0  0  0  3  0  0  0  0  0  0
  190.4140  173.6310  143.1990 C   0  0  0  0  0  0  0  0  0  0  0  0
  194.3850  168.6570  142.5610 C   0  0  0  0  0  2  0  0  0  0  0  0
  195.1670  169.5170  144.7820 C   0  0  0  0  0  1  0  0  0  0  0  0
  193.0040  170.3680  143.8920 C   0  0  0  0  0  2  0  0  0  0  0  0
  192.9790  170.3860  141.3540 C   0  0  0  0  0  2  0  0  0  0  0  0
  193.9510  169.1660  143.9460 C   0  0  1  0  0  3  0  0  0  0  0  0
  192.1350  170.3210  142.6360 C   0  0  2  0  0  3  0  0  0  0  0  0
  194.3780  169.7750  141.5200 C   0  0  0  0  0  2  0  0  0  0  0  0
  189.4000  176.9260  142.4950 C   0  0  2  0  0  3  0  0  0  0  0  0
  190.7650  177.6050  142.6220 C   0  0  0  0  0  2  0  0  0  0  0  0
  190.8030  178.6580  143.7170 C   0  0  0  0  0  1  0  0  0  0  0  0
  188.1970  177.8680  142.3330 C   0  0  0  0  0  2  0  0  0  0  0  0
  187.3430  177.9900  143.5860 C   0  0  0  0  0  2  0  0  0  0  0  0
  185.6590  176.8040  144.6980 C   0  0  0  0  0  2  0  0  0  0  0  0
  185.0820  178.0470  144.2030 C   0  0  0  0  0  2  0  0  0  0  0  0
  186.0670  177.3250  143.3830 N   0  0  0  0  0  0  0  0  0  0  0  0
  189.0150  176.4990  145.9110 O   0  0  0  0  0  0  0  0  0  0  0  0
  188.6640  177.4630  146.8670 C   0  0  0  0  0  1  0  0  0  0  0  0
  193.2830  175.9190  144.8830 C   0  0  0  0  0  2  0  0  0  0  0  0
  194.5370  174.0440  141.1420 C   0  0  2  0  0  3  0  0  0  0  0  0
  197.1330  175.2020  140.7170 O   0  0  0  0  0  1  0  0  0  0  0  0
  195.7630  175.8970  144.6410 C   0  0  0  0  0  2  0  0  0  0  0  0
  194.4490  175.3270  144.1180 C   0  0  1  0  0  3  0  0  0  0  0  0
  195.4260  173.1390  143.3250 C   0  0  0  0  0  3  0  0  0  0  0  0
  194.7410  175.5710  141.1690 C   0  0  0  0  0  2  0  0  0  0  0  0
  196.1720  176.1310  141.1290 C   0  0  1  0  0  3  0  0  0  0  0  0
  194.3910  173.8020  144.1880 C   0  0  0  0  0  2  0  0  0  0  0  0
  196.5710  176.8240  142.4350 C   0  0  0  0  0  2  0  0  0  0  0  0
  196.8530  175.8460  143.5720 C   0  0  0  0  0  2  0  0  0  0  0  0
  195.4900  173.2430  141.9910 C   0  0  0  0  0  3  0  0  0  0  0  0
  194.4640  173.4980  139.7150 C   0  0  1  0  0  0  0  0  0  0  0  0
  195.4680  172.6250  139.2880 O   0  0  0  0  0  1  0  0  0  0  0  0
  193.1070  173.2700  139.0580 C   0  0  2  0  0  3  0  0  0  0  0  0
  193.9620  174.4690  138.6560 C   0  0  2  0  0  3  0  0  0  0  0  0
  191.9350  173.7620  139.8980 C   0  0  0  0  0  2  0  0  0  0  0  0
  190.3740  173.4090  139.0380 S   0  0  0  0  0  1  0  0  0  0  0  0
  194.5580  174.2140  137.4180 O   0  0  0  0  0  0  0  0  0  0  0  0
  193.3250  176.0270  136.7980 O   0  0  0  0  0  1  0  0  0  0  0  0
  194.6000  175.4550  136.7880 C   0  0  0  0  0  2  0  0  0  0  0  0
  1  2  1  0  0  0  0
  1  6  1  1  0  0  0
  2  5  1  6  0  0  0
  2  6  1  0  0  0  0
  3 34  1  1  0  0  0
  3  5  1  0  0  0  0
  4 32  1  1  0  0  0
  4  1  1  0  0  0  0
  7 12  1  6  0  0  0
  7  3  1  0  0  0  0
  7  4  1  0  0  0  0
  8 16  1  0  0  0  0
  9 24  1  6  0  0  0
  9 12  1  0  0  0  0
 10 13  1  0  0  0  0
 11  8  2  0  0  0  0
 12 16  1  1  0  0  0
 13 14  1  0  0  0  0
 13 16  2  0  0  0  0
 14  9  1  0  0  0  0
 15 10  2  0  0  0  0
 15 11  1  0  0  0  0
 17 21  1  0  0  0  0
 19 21  1  0  0  0  0
 20 23  1  0  0  0  0
 20 22  1  0  0  0  0
 21 18  1  1  0  0  0
 22 11  1  1  0  0  0
 22 19  1  0  0  0  0
 23 17  1  0  0  0  0
 24 27  1  1  0  0  0
 24 25  1  0  0  0  0
 25 26  1  0  0  0  0
 27 28  1  0  0  0  0
 30 29  1  0  0  0  0
 31 28  1  0  0  0  0
 31 30  1  0  0  0  0
 31 29  1  0  0  0  0
 32 33  1  0  0  0  0
 35 40  1  6  0  0  0
 35 45  1  0  0  0  0
 38 42  1  0  0  0  0
 38 37  1  0  0  0  0
 38 34  1  1  0  0  0
 39 42  1  0  0  0  0
 41 36  1  1  0  0  0
 41 40  1  0  0  0  0
 41 43  1  0  0  0  0
 43 44  1  0  0  0  0
 44 37  1  0  0  0  0
 45 39  2  0  0  0  0
 46 47  1  6  0  0  0
 46 35  1  0  0  0  0
 48 46  1  0  0  0  0
 48 50  1  1  0  0  0
 49 52  1  6  0  0  0
 49 48  1  0  0  0  0
 49 46  1  0  0  0  0
 51 50  1  0  0  0  0
 54 53  1  0  0  0  0
 54 52  1  0  0  0  0
M  END
>  <MODEL>
2

>  <REMARK>
 VINA RESULT:      -6.1      2.470      7.756
  Name = 
  14 active torsions:
  status: ('A' for Active; 'I' for Inactive)
    1  A    between atoms: C_2  and  C_29
    2  A    between atoms: O_3  and  C_20
    3  A    between atoms: C_4  and  C_46
    4  A    between atoms: O_5  and  C_31
    5  A    between atoms: O_5  and  C_49
    6  A    between atoms: C_10  and  C_17
    7  A    between atoms: C_10  and  C_24
    8  A    between atoms: C_11  and  C_36
    9  A    between atoms: C_12  and  C_13
   10  A    between atoms: C_23  and  C_42
   11  A    between atoms: C_25  and  N_43
   12  A    between atoms: C_25  and  C_44
   13  A    between atoms: C_44  and  C_46
   14  A    between atoms: C_46  and  C_47
                            x       y       z     vdW  Elec       q    Type
                         _______ _______ _______ _____ _____    ______ ____

>  <TORSDO>
F 14

$$$$
=
 OpenBabel11062419103D

 54 61  0  0  1  0  0  0  0  0999 V2000
  190.3990  171.8410  141.9140 C   0  0  1  0  0  3  0  0  0  0  0  0
  189.5670  172.3740  143.0450 C   0  0  2  0  0  3  0  0  0  0  0  0
  191.7000  172.9060  144.3540 C   0  0  1  0  0  3  0  0  0  0  0  0
  191.9080  171.6150  142.1780 C   0  0  1  0  0  3  0  0  0  0  0  0
  190.2220  172.5470  144.4190 C   0  0  0  0  0  2  0  0  0  0  0  0
  189.6010  171.0040  142.7160 O   0  0  0  0  0  0  0  0  0  0  0  0
  192.4360  171.7940  143.6210 C   0  0  1  0  0  3  0  0  0  0  0  0
  194.3300  173.5550  141.7760 C   0  0  0  0  0  3  0  0  0  0  0  0
  194.4450  172.0630  145.2100 C   0  0  2  0  0  3  0  0  0  0  0  0
  195.6320  175.2380  143.6240 C   0  0  0  0  0  3  0  0  0  0  0  0
  194.8670  174.7780  141.3510 C   0  0  0  0  0  0  0  0  0  0  0  0
  193.9640  171.9500  143.7490 C   0  0  2  0  0  3  0  0  0  0  0  0
  195.0840  174.0170  144.0190 C   0  0  0  0  0  0  0  0  0  0  0  0
  195.1550  173.4200  145.3700 C   0  0  0  0  0  2  0  0  0  0  0  0
  195.5170  175.6200  142.2790 C   0  0  0  0  0  3  0  0  0  0  0  0
  194.4420  173.2020  143.1230 C   0  0  0  0  0  0  0  0  0  0  0  0
  194.7010  175.4700  137.1290 C   0  0  0  0  0  2  0  0  0  0  0  0
  192.8930  173.7470  136.9100 C   0  0  0  0  0  1  0  0  0  0  0  0
  193.6760  174.3390  139.1970 C   0  0  0  0  0  2  0  0  0  0  0  0
  196.1110  175.0590  139.1950 C   0  0  0  0  0  2  0  0  0  0  0  0
  193.4460  174.8620  137.7770 C   0  0  1  0  0  3  0  0  0  0  0  0
  194.7540  175.1540  139.9100 C   0  0  2  0  0  3  0  0  0  0  0  0
  195.9810  174.8440  137.6800 C   0  0  0  0  0  2  0  0  0  0  0  0
  195.3180  170.8600  145.5990 C   0  0  2  0  0  3  0  0  0  0  0  0
  194.6350  169.8210  146.4900 C   0  0  0  0  0  2  0  0  0  0  0  0
  194.0690  168.6480  145.7060 C   0  0  0  0  0  1  0  0  0  0  0  0
  196.8010  171.1270  145.8990 C   0  0  0  0  0  2  0  0  0  0  0  0
  197.7420  170.6560  144.7990 C   0  0  0  0  0  2  0  0  0  0  0  0
  197.5040  171.1330  142.5200 C   0  0  0  0  0  2  0  0  0  0  0  0
  197.9410  169.7480  142.6470 C   0  0  0  0  0  2  0  0  0  0  0  0
  196.9800  170.3000  143.6140 N   0  0  0  0  0  0  0  0  0  0  0  0
  192.4360  170.4960  141.4970 O   0  0  0  0  0  0  0  0  0  0  0  0
  191.7780  170.3680  140.2650 C   0  0  0  0  0  1  0  0  0  0  0  0
  191.9260  174.2860  143.7290 C   0  0  0  0  0  2  0  0  0  0  0  0
  188.6040  177.0420  144.3990 C   0  0  2  0  0  3  0  0  0  0  0  0
  188.3140  176.9690  147.2580 O   0  0  0  0  0  1  0  0  0  0  0  0
  191.9520  175.2290  146.0370 C   0  0  0  0  0  2  0  0  0  0  0  0
  191.3690  175.3660  144.6340 C   0  0  1  0  0  3  0  0  0  0  0  0
  190.9650  177.8540  144.7760 C   0  0  0  0  0  3  0  0  0  0  0  0
  188.4600  175.7040  145.1500 C   0  0  0  0  0  2  0  0  0  0  0  0
  188.5010  175.7060  146.6860 C   0  0  1  0  0  3  0  0  0  0  0  0
  191.6230  176.7390  144.0140 C   0  0  0  0  0  2  0  0  0  0  0  0
  189.7450  175.0070  147.2430 C   0  0  0  0  0  2  0  0  0  0  0  0
  191.0190  175.8310  147.0850 C   0  0  0  0  0  2  0  0  0  0  0  0
  189.6430  177.9880  144.9440 C   0  0  0  0  0  3  0  0  0  0  0  0
  187.2570  177.7410  144.2050 C   0  0  1  0  0  0  0  0  0  0  0  0
  186.9960  178.8940  144.9510 O   0  0  0  0  0  1  0  0  0  0  0  0
  186.5700  177.7000  142.8450 C   0  0  2  0  0  3  0  0  0  0  0  0
  186.0580  176.8290  143.9900 C   0  0  2  0  0  3  0  0  0  0  0  0
  187.2800  176.8120  141.8310 C   0  0  0  0  0  2  0  0  0  0  0  0
  186.7510  177.2550  140.1510 S   0  0  0  0  0  1  0  0  0  0  0  0
  184.8940  177.3960  144.5140 O   0  0  0  0  0  0  0  0  0  0  0  0
  184.1780  178.0460  146.5770 O   0  0  0  0  0  1  0  0  0  0  0  0
  184.9540  177.1180  145.8770 C   0  0  0  0  0  2  0  0  0  0  0  0
  1  4  1  0  0  0  0
  1  6  1  1  0  0  0
  1  2  1  0  0  0  0
  2  5  1  1  0  0  0
  3 34  1  6  0  0  0
  3  5  1  0  0  0  0
  4 32  1  1  0  0  0
  4  7  1  0  0  0  0
  6  2  1  0  0  0  0
  7 12  1  6  0  0  0
  7  3  1  0  0  0  0
  8 16  1  0  0  0  0
  9 14  1  0  0  0  0
  9 24  1  6  0  0  0
 10 13  1  0  0  0  0
 11  8  2  0  0  0  0
 11 15  1  0  0  0  0
 12 16  1  6  0  0  0
 12  9  1  0  0  0  0
 13 14  1  0  0  0  0
 15 10  2  0  0  0  0
 16 13  2  0  0  0  0
 17 23  1  0  0  0  0
 17 21  1  0  0  0  0
 19 22  1  0  0  0  0
 20 22  1  0  0  0  0
 21 18  1  6  0  0  0
 21 19  1  0  0  0  0
 22 11  1  1  0  0  0
 23 20  1  0  0  0  0
 24 27  1  1  0  0  0
 24 25  1  0  0  0  0
 26 25  1  0  0  0  0
 28 27  1  0  0  0  0
 29 30  1  0  0  0  0
 29 31  1  0  0  0  0
 30 31  1  0  0  0  0
 31 28  1  0  0  0  0
 33 32  1  0  0  0  0
 35 45  1  1  0  0  0
 35 40  1  0  0  0  0
 37 44  1  0  0  0  0
 38 34  1  6  0  0  0
 38 37  1  0  0  0  0
 39 45  2  0  0  0  0
 40 41  1  0  0  0  0
 41 43  1  0  0  0  0
 41 36  1  6  0  0  0
 42 38  1  0  0  0  0
 42 39  1  0  0  0  0
 44 43  1  0  0  0  0
 46 35  1  0  0  0  0
 46 47  1  1  0  0  0
 48 50  1  6  0  0  0
 48 49  1  0  0  0  0
 48 46  1  0  0  0  0
 49 46  1  0  0  0  0
 49 52  1  1  0  0  0
 51 50  1  0  0  0  0
 52 54  1  0  0  0  0
 54 53  1  0  0  0  0
M  END
>  <MODEL>
3

>  <REMARK>
 VINA RESULT:      -6.1      2.452      6.423
  Name = 
  14 active torsions:
  status: ('A' for Active; 'I' for Inactive)
    1  A    between atoms: C_2  and  C_29
    2  A    between atoms: O_3  and  C_20
    3  A    between atoms: C_4  and  C_46
    4  A    between atoms: O_5  and  C_31
    5  A    between atoms: O_5  and  C_49
    6  A    between atoms: C_10  and  C_17
    7  A    between atoms: C_10  and  C_24
    8  A    between atoms: C_11  and  C_36
    9  A    between atoms: C_12  and  C_13
   10  A    between atoms: C_23  and  C_42
   11  A    between atoms: C_25  and  N_43
   12  A    between atoms: C_25  and  C_44
   13  A    between atoms: C_44  and  C_46
   14  A    between atoms: C_46  and  C_47
                            x       y       z     vdW  Elec       q    Type
                         _______ _______ _______ _____ _____    ______ ____

>  <TORSDO>
F 14

$$$$
=
 OpenBabel11062419103D

 54 61  0  0  1  0  0  0  0  0999 V2000
  191.3500  171.0100  142.8790 C   0  0  1  0  0  3  0  0  0  0  0  0
  191.1150  171.0150  141.3960 C   0  0  2  0  0  3  0  0  0  0  0  0
  191.9070  173.4450  141.2870 C   0  0  1  0  0  3  0  0  0  0  0  0
  191.6180  172.3700  143.5690 C   0  0  1  0  0  3  0  0  0  0  0  0
  191.0320  172.3620  140.6720 C   0  0  0  0  0  2  0  0  0  0  0  0
  190.0580  170.9540  142.3250 O   0  0  0  0  0  0  0  0  0  0  0  0
  191.4690  173.6610  142.7290 C   0  0  1  0  0  3  0  0  0  0  0  0
  190.0050  176.3640  143.5250 C   0  0  0  0  0  3  0  0  0  0  0  0
  193.1910  174.5990  144.3980 C   0  0  2  0  0  3  0  0  0  0  0  0
  190.6870  176.6810  146.2420 C   0  0  0  0  0  3  0  0  0  0  0  0
  189.1940  177.1410  144.3650 C   0  0  0  0  0  0  0  0  0  0  0  0
  192.1200  174.9190  143.3350 C   0  0  2  0  0  3  0  0  0  0  0  0
  191.4730  175.9110  145.3830 C   0  0  0  0  0  0  0  0  0  0  0  0
  192.7440  175.2370  145.7260 C   0  0  0  0  0  2  0  0  0  0  0  0
  189.5360  177.2960  145.7250 C   0  0  0  0  0  3  0  0  0  0  0  0
  191.1360  175.7480  144.0640 C   0  0  0  0  0  0  0  0  0  0  0  0
  185.5100  178.6990  142.8340 C   0  0  0  0  0  2  0  0  0  0  0  0
  184.6260  178.9230  145.1700 C   0  0  0  0  0  1  0  0  0  0  0  0
  186.9940  178.2130  144.8770 C   0  0  0  0  0  2  0  0  0  0  0  0
  187.3250  176.9350  142.7090 C   0  0  0  0  0  2  0  0  0  0  0  0
  185.8550  179.0530  144.2910 C   0  0  1  0  0  3  0  0  0  0  0  0
  187.9860  177.8050  143.7890 C   0  0  2  0  0  3  0  0  0  0  0  0
  185.8330  177.2400  142.5160 C   0  0  0  0  0  2  0  0  0  0  0  0
  194.5830  175.0530  143.9340 C   0  0  2  0  0  3  0  0  0  0  0  0
  194.5890  176.0500  142.7730 C   0  0  0  0  0  2  0  0  0  0  0  0
  195.9850  176.3320  142.2420 C   0  0  0  0  0  1  0  0  0  0  0  0
  195.7040  174.0020  143.9180 C   0  0  0  0  0  2  0  0  0  0  0  0
  195.8790  173.2750  145.2430 C   0  0  0  0  0  2  0  0  0  0  0  0
  196.8000  171.2580  145.9920 C   0  0  0  0  0  2  0  0  0  0  0  0
  196.7410  171.2130  144.5370 C   0  0  0  0  0  2  0  0  0  0  0  0
  197.0890  172.4720  145.2120 N   0  0  0  0  0  0  0  0  0  0  0  0
  191.0790  172.4550  144.8710 O   0  0  0  0  0  0  0  0  0  0  0  0
  189.6830  172.5560  144.7750 C   0  0  0  0  0  1  0  0  0  0  0  0
  193.3980  173.1180  141.1580 C   0  0  0  0  0  2  0  0  0  0  0  0
  192.1060  172.2160  137.0840 C   0  0  2  0  0  3  0  0  0  0  0  0
  193.3170  174.3400  135.5730 O   0  0  0  0  0  1  0  0  0  0  0  0
  194.9310  174.1030  139.4580 C   0  0  0  0  0  2  0  0  0  0  0  0
  193.8040  173.1040  139.6990 C   0  0  1  0  0  3  0  0  0  0  0  0
  194.4340  171.5580  137.8060 C   0  0  0  0  0  3  0  0  0  0  0  0
  191.9080  173.6910  137.4850 C   0  0  0  0  0  2  0  0  0  0  0  0
  192.7280  174.7730  136.7650 C   0  0  1  0  0  3  0  0  0  0  0  0
  194.1680  171.6820  139.2790 C   0  0  0  0  0  2  0  0  0  0  0  0
  193.7420  175.4560  137.6880 C   0  0  0  0  0  2  0  0  0  0  0  0
  194.9500  174.5790  138.0070 C   0  0  0  0  0  2  0  0  0  0  0  0
  193.5320  171.7910  136.8430 C   0  0  0  0  0  3  0  0  0  0  0  0
  191.1970  171.8080  135.9240 C   0  0  1  0  0  0  0  0  0  0  0  0
  191.7610  171.6910  134.6500 O   0  0  0  0  0  1  0  0  0  0  0  0
  190.0120  170.8830  136.1770 C   0  0  2  0  0  3  0  0  0  0  0  0
  189.7860  172.3760  135.9520 C   0  0  2  0  0  3  0  0  0  0  0  0
  189.7900  170.5690  137.6510 C   0  0  0  0  0  2  0  0  0  0  0  0
  190.4350  168.9130  138.0290 S   0  0  0  0  0  1  0  0  0  0  0  0
  189.2980  172.5770  134.6580 O   0  0  0  0  0  0  0  0  0  0  0  0
  188.9210  174.5450  135.7430 O   0  0  0  0  0  1  0  0  0  0  0  0
  189.2470  173.9610  134.5150 C   0  0  0  0  0  2  0  0  0  0  0  0
  1  6  1  1  0  0  0
  1  4  1  0  0  0  0
  2  5  1  1  0  0  0
  2  6  1  0  0  0  0
  2  1  1  0  0  0  0
  3 34  1  1  0  0  0
  3  7  1  0  0  0  0
  4 32  1  1  0  0  0
  5  3  1  0  0  0  0
  7 12  1  1  0  0  0
  7  4  1  0  0  0  0
  8 16  2  0  0  0  0
  8 11  1  0  0  0  0
  9 24  1  6  0  0  0
  9 14  1  0  0  0  0
 11 15  2  0  0  0  0
 12 16  1  1  0  0  0
 12  9  1  0  0  0  0
 13 14  1  0  0  0  0
 13 10  2  0  0  0  0
 15 10  1  0  0  0  0
 16 13  1  0  0  0  0
 17 21  1  0  0  0  0
 20 22  1  0  0  0  0
 21 19  1  0  0  0  0
 21 18  1  1  0  0  0
 22 11  1  1  0  0  0
 22 19  1  0  0  0  0
 23 20  1  0  0  0  0
 23 17  1  0  0  0  0
 24 25  1  6  0  0  0
 26 25  1  0  0  0  0
 27 24  1  0  0  0  0
 27 28  1  0  0  0  0
 30 31  1  0  0  0  0
 30 29  1  0  0  0  0
 31 28  1  0  0  0  0
 31 29  1  0  0  0  0
 33 32  1  0  0  0  0
 35 45  1  6  0  0  0
 35 40  1  0  0  0  0
 37 38  1  0  0  0  0
 38 34  1  1  0  0  0
 39 42  1  0  0  0  0
 41 36  1  6  0  0  0
 41 40  1  0  0  0  0
 41 43  1  0  0  0  0
 42 38  1  0  0  0  0
 43 44  1  0  0  0  0
 44 37  1  0  0  0  0
 45 39  2  0  0  0  0
 46 47  1  6  0  0  0
 46 49  1  0  0  0  0
 46 48  1  0  0  0  0
 46 35  1  0  0  0  0
 48 50  1  1  0  0  0
 49 52  1  6  0  0  0
 49 48  1  0  0  0  0
 50 51  1  0  0  0  0
 54 52  1  0  0  0  0
 54 53  1  0  0  0  0
M  END
>  <MODEL>
4

>  <REMARK>
 VINA RESULT:      -6.0      2.654      6.696
  Name = 
  14 active torsions:
  status: ('A' for Active; 'I' for Inactive)
    1  A    between atoms: C_2  and  C_29
    2  A    between atoms: O_3  and  C_20
    3  A    between atoms: C_4  and  C_46
    4  A    between atoms: O_5  and  C_31
    5  A    between atoms: O_5  and  C_49
    6  A    between atoms: C_10  and  C_17
    7  A    between atoms: C_10  and  C_24
    8  A    between atoms: C_11  and  C_36
    9  A    between atoms: C_12  and  C_13
   10  A    between atoms: C_23  and  C_42
   11  A    between atoms: C_25  and  N_43
   12  A    between atoms: C_25  and  C_44
   13  A    between atoms: C_44  and  C_46
   14  A    between atoms: C_46  and  C_47
                            x       y       z     vdW  Elec       q    Type
                         _______ _______ _______ _____ _____    ______ ____

>  <TORSDO>
F 14

$$$$
=
 OpenBabel11062419103D

 54 61  0  0  1  0  0  0  0  0999 V2000
  187.7860  175.1460  141.3420 C   0  0  1  0  0  3  0  0  0  0  0  0
  188.4850  174.1200  140.4980 C   0  0  2  0  0  3  0  0  0  0  0  0
  190.5580  174.3210  141.9840 C   0  0  1  0  0  3  0  0  0  0  0  0
  188.6400  175.9410  142.3600 C   0  0  1  0  0  3  0  0  0  0  0  0
  190.0090  174.0010  140.6000 C   0  0  0  0  0  2  0  0  0  0  0  0
  188.1800  175.4080  140.0170 O   0  0  0  0  0  0  0  0  0  0  0  0
  190.1750  175.7510  142.3380 C   0  0  1  0  0  3  0  0  0  0  0  0
  188.8750  176.5520  145.1230 C   0  0  0  0  0  3  0  0  0  0  0  0
  192.2340  175.4800  143.8600 C   0  0  2  0  0  3  0  0  0  0  0  0
  190.2160  174.8820  146.9550 C   0  0  0  0  0  3  0  0  0  0  0  0
  188.2790  176.2430  146.3540 C   0  0  0  0  0  0  0  0  0  0  0  0
  190.9170  176.2390  143.5970 C   0  0  2  0  0  3  0  0  0  0  0  0
  190.7820  175.2040  145.7200 C   0  0  0  0  0  0  0  0  0  0  0  0
  192.1200  174.7990  145.2370 C   0  0  0  0  0  2  0  0  0  0  0  0
  188.9520  175.4050  147.2690 C   0  0  0  0  0  3  0  0  0  0  0  0
  190.1260  176.0080  144.8240 C   0  0  0  0  0  0  0  0  0  0  0  0
  184.6080  178.2980  147.1520 C   0  0  0  0  0  2  0  0  0  0  0  0
  184.2670  178.6590  144.6940 C   0  0  0  0  0  1  0  0  0  0  0  0
  186.1990  177.2650  145.4160 C   0  0  0  0  0  2  0  0  0  0  0  0
  187.0630  177.9730  147.6960 C   0  0  0  0  0  2  0  0  0  0  0  0
  184.7660  177.6890  145.7480 C   0  0  1  0  0  3  0  0  0  0  0  0
  186.9440  176.8290  146.6770 C   0  0  2  0  0  3  0  0  0  0  0  0
  185.8980  178.9700  147.6230 C   0  0  0  0  0  2  0  0  0  0  0  0
  193.4460  176.4150  143.7330 C   0  0  2  0  0  3  0  0  0  0  0  0
  194.1280  176.4140  142.3630 C   0  0  0  0  0  2  0  0  0  0  0  0
  193.8380  175.1580  141.5580 C   0  0  0  0  0  1  0  0  0  0  0  0
  194.3820  176.5340  144.9460 C   0  0  0  0  0  2  0  0  0  0  0  0
  195.7690  175.9570  144.7060 C   0  0  0  0  0  2  0  0  0  0  0  0
  196.6210  173.9250  143.9180 C   0  0  0  0  0  2  0  0  0  0  0  0
  197.1460  174.1420  145.2600 C   0  0  0  0  0  2  0  0  0  0  0  0
  195.7600  174.5250  144.9490 N   0  0  0  0  0  0  0  0  0  0  0  0
  188.2190  177.2790  142.5230 O   0  0  0  0  0  0  0  0  0  0  0  0
  186.8970  177.3930  142.0680 C   0  0  0  0  0  1  0  0  0  0  0  0
  190.0990  173.3030  143.0310 C   0  0  0  0  0  2  0  0  0  0  0  0
  192.4730  170.8220  140.3300 C   0  0  2  0  0  3  0  0  0  0  0  0
  194.5540  169.8520  142.0590 O   0  0  0  0  0  1  0  0  0  0  0  0
  191.4000  171.5700  144.2630 C   0  0  0  0  0  2  0  0  0  0  0  0
  190.8960  172.0220  142.8960 C   0  0  1  0  0  3  0  0  0  0  0  0
  190.8230  169.7100  141.8840 C   0  0  0  0  0  3  0  0  0  0  0  0
  193.3150  171.7910  141.1830 C   0  0  0  0  0  2  0  0  0  0  0  0
  194.2800  171.2130  142.2300 C   0  0  1  0  0  3  0  0  0  0  0  0
  190.0510  170.9610  142.1930 C   0  0  0  0  0  2  0  0  0  0  0  0
  193.8530  171.5340  143.6650 C   0  0  0  0  0  2  0  0  0  0  0  0
  192.6570  170.7110  144.1340 C   0  0  0  0  0  2  0  0  0  0  0  0
  191.8830  169.6480  141.0680 C   0  0  0  0  0  3  0  0  0  0  0  0
  193.2120  170.3770  139.0670 C   0  0  1  0  0  0  0  0  0  0  0  0
  193.7340  169.0810  139.0280 O   0  0  0  0  0  1  0  0  0  0  0  0
  192.7960  170.9310  137.7090 C   0  0  2  0  0  3  0  0  0  0  0  0
  194.0670  171.4360  138.3870 C   0  0  2  0  0  3  0  0  0  0  0  0
  191.7280  172.0140  137.7960 C   0  0  0  0  0  2  0  0  0  0  0  0
  190.1020  171.3070  137.4010 S   0  0  0  0  0  1  0  0  0  0  0  0
  195.1790  170.8620  137.7650 O   0  0  0  0  0  0  0  0  0  0  0  0
  195.8190  172.7580  138.8550 O   0  0  0  0  0  1  0  0  0  0  0  0
  196.2660  171.5690  138.2720 C   0  0  0  0  0  2  0  0  0  0  0  0
  1  6  1  6  0  0  0
  1  4  1  0  0  0  0
  2  5  1  1  0  0  0
  2  1  1  0  0  0  0
  3  7  1  0  0  0  0
  3 34  1  1  0  0  0
  4 32  1  6  0  0  0
  5  3  1  0  0  0  0
  6  2  1  0  0  0  0
  7  4  1  0  0  0  0
  7 12  1  1  0  0  0
  8 11  1  0  0  0  0
  9 24  1  1  0  0  0
  9 14  1  0  0  0  0
 10 15  1  0  0  0  0
 11 15  2  0  0  0  0
 12  9  1  0  0  0  0
 12 16  1  1  0  0  0
 13 10  2  0  0  0  0
 14 13  1  0  0  0  0
 16  8  2  0  0  0  0
 16 13  1  0  0  0  0
 17 23  1  0  0  0  0
 19 21  1  0  0  0  0
 19 22  1  0  0  0  0
 21 18  1  6  0  0  0
 21 17  1  0  0  0  0
 22 11  1  6  0  0  0
 22 20  1  0  0  0  0
 23 20  1  0  0  0  0
 24 25  1  6  0  0  0
 24 27  1  0  0  0  0
 26 25  1  0  0  0  0
 28 27  1  0  0  0  0
 28 31  1  0  0  0  0
 29 31  1  0  0  0  0
 29 30  1  0  0  0  0
 31 30  1  0  0  0  0
 33 32  1  0  0  0  0
 35 45  1  1  0  0  0
 35 40  1  0  0  0  0
 38 34  1  1  0  0  0
 38 37  1  0  0  0  0
 39 42  1  0  0  0  0
 40 41  1  0  0  0  0
 41 36  1  1  0  0  0
 41 43  1  0  0  0  0
 42 38  1  0  0  0  0
 43 44  1  0  0  0  0
 44 37  1  0  0  0  0
 45 39  2  0  0  0  0
 46 47  1  1  0  0  0
 46 35  1  0  0  0  0
 48 50  1  1  0  0  0
 48 49  1  0  0  0  0
 48 46  1  0  0  0  0
 49 52  1  6  0  0  0
 49 46  1  0  0  0  0
 51 50  1  0  0  0  0
 52 54  1  0  0  0  0
 54 53  1  0  0  0  0
M  END
>  <MODEL>
5

>  <REMARK>
 VINA RESULT:      -5.9      2.836      6.472
  Name = 
  14 active torsions:
  status: ('A' for Active; 'I' for Inactive)
    1  A    between atoms: C_2  and  C_29
    2  A    between atoms: O_3  and  C_20
    3  A    between atoms: C_4  and  C_46
    4  A    between atoms: O_5  and  C_31
    5  A    between atoms: O_5  and  C_49
    6  A    between atoms: C_10  and  C_17
    7  A    between atoms: C_10  and  C_24
    8  A    between atoms: C_11  and  C_36
    9  A    between atoms: C_12  and  C_13
   10  A    between atoms: C_23  and  C_42
   11  A    between atoms: C_25  and  N_43
   12  A    between atoms: C_25  and  C_44
   13  A    between atoms: C_44  and  C_46
   14  A    between atoms: C_46  and  C_47
                            x       y       z     vdW  Elec       q    Type
                         _______ _______ _______ _____ _____    ______ ____

>  <TORSDO>
F 14

$$$$
=
 OpenBabel11062419103D

 54 61  0  0  1  0  0  0  0  0999 V2000
  191.2860  172.0180  142.2290 C   0  0  1  0  0  3  0  0  0  0  0  0
  192.0630  172.3320  140.9840 C   0  0  2  0  0  3  0  0  0  0  0  0
  193.1750  174.2990  142.1850 C   0  0  1  0  0  3  0  0  0  0  0  0
  191.2960  173.0680  143.3670 C   0  0  1  0  0  3  0  0  0  0  0  0
  192.7170  173.7120  140.8570 C   0  0  0  0  0  2  0  0  0  0  0  0
  190.6690  172.5170  141.0680 O   0  0  0  0  0  0  0  0  0  0  0  0
  191.9640  174.4370  143.0970 C   0  0  1  0  0  3  0  0  0  0  0  0
  190.1090  176.6100  144.4830 C   0  0  0  0  0  3  0  0  0  0  0  0
  193.0170  174.4560  145.4470 C   0  0  2  0  0  3  0  0  0  0  0  0
  189.9090  175.6770  147.1350 C   0  0  0  0  0  3  0  0  0  0  0  0
  189.0200  176.9920  145.2800 C   0  0  0  0  0  0  0  0  0  0  0  0
  192.2950  175.2670  144.3520 C   0  0  2  0  0  3  0  0  0  0  0  0
  190.9790  175.3100  146.3180 C   0  0  0  0  0  0  0  0  0  0  0  0
  192.1380  174.4800  146.7110 C   0  0  0  0  0  2  0  0  0  0  0  0
  188.9210  176.5220  146.6070 C   0  0  0  0  0  3  0  0  0  0  0  0
  191.0710  175.7550  145.0240 C   0  0  0  0  0  0  0  0  0  0  0  0
  185.8380  179.2760  143.5480 C   0  0  0  0  0  2  0  0  0  0  0  0
  184.3500  178.6770  145.4750 C   0  0  0  0  0  1  0  0  0  0  0  0
  186.7300  177.9550  145.5650 C   0  0  0  0  0  2  0  0  0  0  0  0
  187.6750  177.5570  143.2430 C   0  0  0  0  0  2  0  0  0  0  0  0
  185.7660  179.0340  145.0660 C   0  0  1  0  0  3  0  0  0  0  0  0
  187.9920  177.9110  144.7040 C   0  0  2  0  0  3  0  0  0  0  0  0
  186.2820  178.0220  142.7970 C   0  0  0  0  0  2  0  0  0  0  0  0
  194.4420  174.9830  145.6760 C   0  0  2  0  0  3  0  0  0  0  0  0
  194.7970  176.2550  144.9040 C   0  0  0  0  0  2  0  0  0  0  0  0
  194.7280  177.5080  145.7630 C   0  0  0  0  0  1  0  0  0  0  0  0
  195.5690  173.9470  145.8120 C   0  0  0  0  0  2  0  0  0  0  0  0
  195.0890  172.5060  145.7200 C   0  0  0  0  0  2  0  0  0  0  0  0
  196.2590  170.5870  145.0670 C   0  0  0  0  0  2  0  0  0  0  0  0
  197.2010  171.6980  145.1010 C   0  0  0  0  0  2  0  0  0  0  0  0
  196.1510  171.6020  146.1260 N   0  0  0  0  0  0  0  0  0  0  0  0
  190.0750  173.1430  144.0730 O   0  0  0  0  0  0  0  0  0  0  0  0
  189.8070  171.8900  144.6420 C   0  0  0  0  0  1  0  0  0  0  0  0
  194.3060  173.4800  142.8120 C   0  0  0  0  0  2  0  0  0  0  0  0
  195.7530  173.4290  138.6910 C   0  0  2  0  0  3  0  0  0  0  0  0
  197.9390  175.2930  138.7860 O   0  0  0  0  0  1  0  0  0  0  0  0
  196.6910  174.1880  142.6560 C   0  0  0  0  0  2  0  0  0  0  0  0
  195.5330  173.5180  141.9240 C   0  0  1  0  0  3  0  0  0  0  0  0
  196.9790  172.0800  140.4370 C   0  0  0  0  0  3  0  0  0  0  0  0
  195.5650  174.8470  139.2650 C   0  0  0  0  0  2  0  0  0  0  0  0
  196.8020  175.7360  139.4700 C   0  0  1  0  0  3  0  0  0  0  0  0
  195.8670  172.1060  141.4460 C   0  0  0  0  0  2  0  0  0  0  0  0
  197.0950  176.0050  140.9490 C   0  0  0  0  0  2  0  0  0  0  0  0
  197.6880  174.7990  141.6730 C   0  0  0  0  0  2  0  0  0  0  0  0
  196.9300  172.6580  139.2290 C   0  0  0  0  0  3  0  0  0  0  0  0
  195.7290  173.4200  137.1610 C   0  0  1  0  0  0  0  0  0  0  0  0
  196.9150  173.1250  136.4830 O   0  0  0  0  0  1  0  0  0  0  0  0
  194.4610  173.0060  136.4240 C   0  0  2  0  0  3  0  0  0  0  0  0
  194.8570  174.4780  136.5020 C   0  0  2  0  0  3  0  0  0  0  0  0
  193.2720  172.7680  137.3470 C   0  0  0  0  0  2  0  0  0  0  0  0
  192.9240  170.9870  137.4520 S   0  0  0  0  0  1  0  0  0  0  0  0
  195.3910  174.8760  135.2730 O   0  0  0  0  0  0  0  0  0  0  0  0
  196.6880  176.7450  135.1520 O   0  0  0  0  0  1  0  0  0  0  0  0
  195.3860  176.2670  135.3240 C   0  0  0  0  0  2  0  0  0  0  0  0
  1  6  1  6  0  0  0
  1  4  1  0  0  0  0
  2  5  1  1  0  0  0
  2  6  1  0  0  0  0
  2  1  1  0  0  0  0
  3 34  1  1  0  0  0
  3  7  1  0  0  0  0
  4 32  1  6  0  0  0
  5  3  1  0  0  0  0
  7  4  1  0  0  0  0
  7 12  1  1  0  0  0
  8 16  2  0  0  0  0
  8 11  1  0  0  0  0
  9 24  1  1  0  0  0
  9 14  1  0  0  0  0
 11 15  2  0  0  0  0
 12 16  1  1  0  0  0
 12  9  1  0  0  0  0
 13 14  1  0  0  0  0
 13 10  2  0  0  0  0
 15 10  1  0  0  0  0
 16 13  1  0  0  0  0
 17 21  1  0  0  0  0
 20 22  1  0  0  0  0
 21 18  1  6  0  0  0
 21 19  1  0  0  0  0
 22 11  1  1  0  0  0
 22 19  1  0  0  0  0
 23 20  1  0  0  0  0
 23 17  1  0  0  0  0
 24 25  1  6  0  0  0
 24 27  1  0  0  0  0
 25 26  1  0  0  0  0
 28 27  1  0  0  0  0
 28 31  1  0  0  0  0
 29 30  1  0  0  0  0
 29 31  1  0  0  0  0
 30 31  1  0  0  0  0
 32 33  1  0  0  0  0
 35 45  1  6  0  0  0
 35 40  1  0  0  0  0
 38 37  1  0  0  0  0
 38 34  1  1  0  0  0
 39 42  1  0  0  0  0
 40 41  1  0  0  0  0
 41 36  1  1  0  0  0
 41 43  1  0  0  0  0
 42 38  1  0  0  0  0
 43 44  1  0  0  0  0
 44 37  1  0  0  0  0
 45 39  2  0  0  0  0
 46 47  1  6  0  0  0
 46 35  1  0  0  0  0
 48 49  1  0  0  0  0
 48 46  1  0  0  0  0
 48 50  1  1  0  0  0
 49 52  1  6  0  0  0
 49 46  1  0  0  0  0
 50 51  1  0  0  0  0
 52 54  1  0  0  0  0
 53 54  1  0  0  0  0
M  END
>  <MODEL>
6

>  <REMARK>
 VINA RESULT:      -5.8      2.625      6.050
  Name = 
  14 active torsions:
  status: ('A' for Active; 'I' for Inactive)
    1  A    between atoms: C_2  and  C_29
    2  A    between atoms: O_3  and  C_20
    3  A    between atoms: C_4  and  C_46
    4  A    between atoms: O_5  and  C_31
    5  A    between atoms: O_5  and  C_49
    6  A    between atoms: C_10  and  C_17
    7  A    between atoms: C_10  and  C_24
    8  A    between atoms: C_11  and  C_36
    9  A    between atoms: C_12  and  C_13
   10  A    between atoms: C_23  and  C_42
   11  A    between atoms: C_25  and  N_43
   12  A    between atoms: C_25  and  C_44
   13  A    between atoms: C_44  and  C_46
   14  A    between atoms: C_46  and  C_47
                            x       y       z     vdW  Elec       q    Type
                         _______ _______ _______ _____ _____    ______ ____

>  <TORSDO>
F 14

$$$$
=
 OpenBabel11062419103D

 54 61  0  0  1  0  0  0  0  0999 V2000
  190.8790  176.0920  146.5580 C   0  0  1  0  0  3  0  0  0  0  0  0
  192.2270  175.7950  147.1510 C   0  0  2  0  0  3  0  0  0  0  0  0
  192.8420  174.4560  145.0590 C   0  0  1  0  0  3  0  0  0  0  0  0
  190.4600  175.3010  145.2950 C   0  0  1  0  0  3  0  0  0  0  0  0
  193.0540  174.6520  146.5540 C   0  0  0  0  0  2  0  0  0  0  0  0
  191.0380  175.2470  147.6710 O   0  0  0  0  0  0  0  0  0  0  0  0
  191.3720  174.1470  144.8150 C   0  0  1  0  0  3  0  0  0  0  0  0
  192.7750  171.7020  143.3530 C   0  0  0  0  0  3  0  0  0  0  0  0
  189.6420  173.7150  142.9570 C   0  0  2  0  0  3  0  0  0  0  0  0
  190.5950  170.1230  142.5190 C   0  0  0  0  0  3  0  0  0  0  0  0
  192.9540  170.3330  143.1100 C   0  0  0  0  0  0  0  0  0  0  0  0
  191.1280  173.6730  143.3690 C   0  0  2  0  0  3  0  0  0  0  0  0
  190.4450  171.4870  142.7720 C   0  0  0  0  0  0  0  0  0  0  0  0
  189.2120  172.2830  142.5890 C   0  0  0  0  0  2  0  0  0  0  0  0
  191.8600  169.5440  142.6940 C   0  0  0  0  0  3  0  0  0  0  0  0
  191.5030  172.2540  143.1870 C   0  0  0  0  0  0  0  0  0  0  0  0
  197.0130  169.0200  143.4870 C   0  0  0  0  0  2  0  0  0  0  0  0
  197.3230  170.5230  145.4690 C   0  0  0  0  0  1  0  0  0  0  0  0
  195.0460  170.3440  144.4800 C   0  0  0  0  0  2  0  0  0  0  0  0
  195.1440  169.8520  141.9910 C   0  0  0  0  0  2  0  0  0  0  0  0
  196.3570  169.6010  144.7510 C   0  0  1  0  0  3  0  0  0  0  0  0
  194.3160  169.7410  143.2810 C   0  0  2  0  0  3  0  0  0  0  0  0
  196.6580  169.8320  142.2430 C   0  0  0  0  0  2  0  0  0  0  0  0
  189.4100  174.7370  141.8340 C   0  0  2  0  0  3  0  0  0  0  0  0
  189.7480  174.2440  140.4250 C   0  0  0  0  0  2  0  0  0  0  0  0
  188.5170  174.0550  139.5530 C   0  0  0  0  0  1  0  0  0  0  0  0
  189.7520  176.2060  142.1280 C   0  0  0  0  0  2  0  0  0  0  0  0
  188.5410  177.1270  142.1300 C   0  0  0  0  0  2  0  0  0  0  0  0
  186.2480  177.0870  142.5910 C   0  0  0  0  0  2  0  0  0  0  0  0
  186.4140  177.2140  141.1490 C   0  0  0  0  0  2  0  0  0  0  0  0
  187.3300  176.3550  141.9150 N   0  0  0  0  0  0  0  0  0  0  0  0
  189.0780  175.0120  145.2460 O   0  0  0  0  0  0  0  0  0  0  0  0
  188.3710  176.1110  145.7550 C   0  0  0  0  0  1  0  0  0  0  0  0
  193.3440  175.6550  144.2490 C   0  0  0  0  0  2  0  0  0  0  0  0
  195.3840  173.5800  140.9910 C   0  0  2  0  0  3  0  0  0  0  0  0
  197.4930  175.4140  140.3220 O   0  0  0  0  0  1  0  0  0  0  0  0
  195.7100  176.4000  144.0100 C   0  0  0  0  0  2  0  0  0  0  0  0
  194.6870  175.3370  143.6250 C   0  0  1  0  0  3  0  0  0  0  0  0
  196.3670  173.4780  143.3140 C   0  0  0  0  0  3  0  0  0  0  0  0
  195.0840  175.0610  140.6910 C   0  0  0  0  0  2  0  0  0  0  0  0
  196.2590  176.0390  140.5280 C   0  0  1  0  0  3  0  0  0  0  0  0
  195.1170  173.9250  144.0180 C   0  0  0  0  0  2  0  0  0  0  0  0
  196.3240  177.0740  141.6550 C   0  0  0  0  0  2  0  0  0  0  0  0
  196.8280  176.4950  142.9740 C   0  0  0  0  0  2  0  0  0  0  0  0
  196.4840  173.3260  141.9890 C   0  0  0  0  0  3  0  0  0  0  0  0
  195.5860  172.7630  139.7130 C   0  0  1  0  0  0  0  0  0  0  0  0
  196.8260  172.1510  139.5090 O   0  0  0  0  0  1  0  0  0  0  0  0
  194.4080  172.0260  139.0890 C   0  0  2  0  0  3  0  0  0  0  0  0
  194.9270  173.3150  138.4580 C   0  0  2  0  0  3  0  0  0  0  0  0
  193.0780  172.3150  139.7740 C   0  0  0  0  0  2  0  0  0  0  0  0
  191.7920  171.2200  139.1040 S   0  0  0  0  0  1  0  0  0  0  0  0
  195.6730  173.0030  137.3190 O   0  0  0  0  0  0  0  0  0  0  0  0
  195.5440  175.2730  137.1840 O   0  0  0  0  0  1  0  0  0  0  0  0
  195.4690  174.0800  136.4610 C   0  0  0  0  0  2  0  0  0  0  0  0
  1  2  1  0  0  0  0
  1  6  1  1  0  0  0
  2  5  1  6  0  0  0
  2  6  1  0  0  0  0
  3 34  1  6  0  0  0
  3  5  1  0  0  0  0
  4 32  1  1  0  0  0
  4  1  1  0  0  0  0
  7 12  1  6  0  0  0
  7  3  1  0  0  0  0
  7  4  1  0  0  0  0
  9 24  1  6  0  0  0
  9 12  1  0  0  0  0
 10 15  2  0  0  0  0
 10 13  1  0  0  0  0
 11  8  2  0  0  0  0
 12 16  1  1  0  0  0
 13 16  2  0  0  0  0
 14 13  1  0  0  0  0
 14  9  1  0  0  0  0
 15 11  1  0  0  0  0
 16  8  1  0  0  0  0
 17 21  1  0  0  0  0
 19 21  1  0  0  0  0
 20 23  1  0  0  0  0
 20 22  1  0  0  0  0
 21 18  1  6  0  0  0
 22 11  1  6  0  0  0
 22 19  1  0  0  0  0
 23 17  1  0  0  0  0
 24 25  1  6  0  0  0
 24 27  1  0  0  0  0
 26 25  1  0  0  0  0
 27 28  1  0  0  0  0
 30 31  1  0  0  0  0
 30 29  1  0  0  0  0
 31 28  1  0  0  0  0
 31 29  1  0  0  0  0
 32 33  1  0  0  0  0
 35 40  1  6  0  0  0
 35 45  1  0  0  0  0
 38 37  1  0  0  0  0
 38 42  1  0  0  0  0
 38 34  1  1  0  0  0
 39 42  1  0  0  0  0
 41 36  1  1  0  0  0
 41 40  1  0  0  0  0
 41 43  1  0  0  0  0
 43 44  1  0  0  0  0
 44 37  1  0  0  0  0
 45 39  2  0  0  0  0
 46 47  1  6  0  0  0
 46 35  1  0  0  0  0
 48 46  1  0  0  0  0
 48 50  1  1  0  0  0
 49 52  1  6  0  0  0
 49 48  1  0  0  0  0
 49 46  1  0  0  0  0
 51 50  1  0  0  0  0
 54 53  1  0  0  0  0
 54 52  1  0  0  0  0
M  END
>  <MODEL>
7

>  <REMARK>
 VINA RESULT:      -5.7      2.557      7.805
  Name = 
  14 active torsions:
  status: ('A' for Active; 'I' for Inactive)
    1  A    between atoms: C_2  and  C_29
    2  A    between atoms: O_3  and  C_20
    3  A    between atoms: C_4  and  C_46
    4  A    between atoms: O_5  and  C_31
    5  A    between atoms: O_5  and  C_49
    6  A    between atoms: C_10  and  C_17
    7  A    between atoms: C_10  and  C_24
    8  A    between atoms: C_11  and  C_36
    9  A    between atoms: C_12  and  C_13
   10  A    between atoms: C_23  and  C_42
   11  A    between atoms: C_25  and  N_43
   12  A    between atoms: C_25  and  C_44
   13  A    between atoms: C_44  and  C_46
   14  A    between atoms: C_46  and  C_47
                            x       y       z     vdW  Elec       q    Type
                         _______ _______ _______ _____ _____    ______ ____

>  <TORSDO>
F 14

$$$$
=
 OpenBabel11062419103D

 54 61  0  0  1  0  0  0  0  0999 V2000
  188.3610  173.6090  140.8330 C   0  0  1  0  0  3  0  0  0  0  0  0
  188.4950  173.7850  142.3180 C   0  0  2  0  0  3  0  0  0  0  0  0
  191.0190  173.4100  142.1270 C   0  0  1  0  0  3  0  0  0  0  0  0
  189.5850  173.0570  140.0620 C   0  0  1  0  0  3  0  0  0  0  0  0
  189.7780  173.2990  143.0010 C   0  0  0  0  0  2  0  0  0  0  0  0
  187.8560  172.6670  141.7470 O   0  0  0  0  0  0  0  0  0  0  0  0
  190.8070  172.5690  140.8750 C   0  0  1  0  0  3  0  0  0  0  0  0
  193.6590  171.7680  142.0210 C   0  0  0  0  0  3  0  0  0  0  0  0
  191.9110  171.7220  138.7080 C   0  0  2  0  0  3  0  0  0  0  0  0
  194.3490  169.5080  140.4850 C   0  0  0  0  0  3  0  0  0  0  0  0
  194.5860  170.8410  142.5170 C   0  0  0  0  0  0  0  0  0  0  0  0
  192.1130  172.4130  140.0730 C   0  0  2  0  0  3  0  0  0  0  0  0
  193.4270  170.4460  140.0180 C   0  0  0  0  0  0  0  0  0  0  0  0
  192.7590  170.4370  138.6990 C   0  0  0  0  0  2  0  0  0  0  0  0
  194.9280  169.7090  141.7470 C   0  0  0  0  0  3  0  0  0  0  0  0
  193.0830  171.5400  140.7690 C   0  0  0  0  0  0  0  0  0  0  0  0
  196.6970  171.7210  146.1370 C   0  0  0  0  0  2  0  0  0  0  0  0
  196.3500  174.1740  145.7520 C   0  0  0  0  0  1  0  0  0  0  0  0
  195.2570  172.5770  144.1870 C   0  0  0  0  0  2  0  0  0  0  0  0
  196.5930  170.4300  143.9590 C   0  0  0  0  0  2  0  0  0  0  0  0
  195.7240  172.7980  145.6280 C   0  0  1  0  0  3  0  0  0  0  0  0
  195.2080  171.0860  143.8530 C   0  0  2  0  0  3  0  0  0  0  0  0
  197.5030  171.1040  144.9950 C   0  0  0  0  0  2  0  0  0  0  0  0
  192.2300  172.6810  137.5520 C   0  0  2  0  0  3  0  0  0  0  0  0
  193.0980  172.0910  136.4380 C   0  0  0  0  0  2  0  0  0  0  0  0
  192.4140  172.1110  135.0810 C   0  0  0  0  0  1  0  0  0  0  0  0
  192.5020  174.1520  137.9030 C   0  0  0  0  0  2  0  0  0  0  0  0
  193.9600  174.5580  137.7490 C   0  0  0  0  0  2  0  0  0  0  0  0
  195.8010  173.4810  138.7120 C   0  0  0  0  0  2  0  0  0  0  0  0
  196.0140  174.9190  138.8190 C   0  0  0  0  0  2  0  0  0  0  0  0
  194.6640  174.3670  139.0060 N   0  0  0  0  0  0  0  0  0  0  0  0
  189.2360  172.2230  138.9760 O   0  0  0  0  0  0  0  0  0  0  0  0
  188.5690  172.9950  138.0130 C   0  0  0  0  0  1  0  0  0  0  0  0
  191.3700  174.8670  141.8150 C   0  0  0  0  0  2  0  0  0  0  0  0
  189.2960  176.9660  145.0360 C   0  0  2  0  0  3  0  0  0  0  0  0
  190.8600  176.2510  147.3400 O   0  0  0  0  0  1  0  0  0  0  0  0
  192.8680  175.2950  143.7610 C   0  0  0  0  0  2  0  0  0  0  0  0
  191.5400  175.6500  143.1010 C   0  0  1  0  0  3  0  0  0  0  0  0
  191.3970  177.9770  144.0680 C   0  0  0  0  0  3  0  0  0  0  0  0
  189.6100  175.4920  145.3580 C   0  0  0  0  0  2  0  0  0  0  0  0
  190.6060  175.1730  146.4850 C   0  0  1  0  0  3  0  0  0  0  0  0
  191.3950  177.1440  142.8190 C   0  0  0  0  0  2  0  0  0  0  0  0
  191.8990  174.5380  145.9670 C   0  0  0  0  0  2  0  0  0  0  0  0
  192.8200  175.5350  145.2680 C   0  0  0  0  0  2  0  0  0  0  0  0
  190.4780  177.9010  145.0400 C   0  0  0  0  0  3  0  0  0  0  0  0
  188.1490  177.5100  145.8900 C   0  0  1  0  0  0  0  0  0  0  0  0
  188.4350  177.9260  147.1940 O   0  0  0  0  0  1  0  0  0  0  0  0
  186.9970  178.2550  145.2280 C   0  0  2  0  0  3  0  0  0  0  0  0
  186.8040  176.8210  145.7150 C   0  0  2  0  0  3  0  0  0  0  0  0
  187.0660  178.2520  143.7060 C   0  0  0  0  0  2  0  0  0  0  0  0
  185.4350  178.6580  143.0170 S   0  0  0  0  0  1  0  0  0  0  0  0
  186.0730  176.8350  146.9060 O   0  0  0  0  0  0  0  0  0  0  0  0
  184.3430  178.2840  147.2160 O   0  0  0  0  0  1  0  0  0  0  0  0
  184.7750  177.1550  146.5160 C   0  0  0  0  0  2  0  0  0  0  0  0
  1  6  1  1  0  0  0
  1  2  1  0  0  0  0
  2  5  1  6  0  0  0
  3 34  1  6  0  0  0
  3  5  1  0  0  0  0
  4 32  1  1  0  0  0
  4  1  1  0  0  0  0
  4  7  1  0  0  0  0
  6  2  1  0  0  0  0
  7 12  1  6  0  0  0
  7  3  1  0  0  0  0
  8 11  1  0  0  0  0
  9 24  1  6  0  0  0
  9 12  1  0  0  0  0
 10 15  1  0  0  0  0
 12 16  1  1  0  0  0
 13 10  2  0  0  0  0
 13 16  1  0  0  0  0
 14  9  1  0  0  0  0
 14 13  1  0  0  0  0
 15 11  2  0  0  0  0
 16  8  2  0  0  0  0
 19 21  1  0  0  0  0
 20 23  1  0  0  0  0
 21 18  1  6  0  0  0
 21 17  1  0  0  0  0
 22 11  1  6  0  0  0
 22 20  1  0  0  0  0
 22 19  1  0  0  0  0
 23 17  1  0  0  0  0
 24 25  1  1  0  0  0
 24 27  1  0  0  0  0
 26 25  1  0  0  0  0
 28 27  1  0  0  0  0
 28 31  1  0  0  0  0
 29 30  1  0  0  0  0
 29 31  1  0  0  0  0
 30 31  1  0  0  0  0
 33 32  1  0  0  0  0
 35 45  1  1  0  0  0
 35 40  1  0  0  0  0
 35 46  1  0  0  0  0
 37 44  1  0  0  0  0
 38 34  1  6  0  0  0
 38 37  1  0  0  0  0
 39 45  2  0  0  0  0
 40 41  1  0  0  0  0
 41 36  1  6  0  0  0
 42 38  1  0  0  0  0
 42 39  1  0  0  0  0
 43 41  1  0  0  0  0
 44 43  1  0  0  0  0
 46 47  1  1  0  0  0
 48 50  1  6  0  0  0
 48 49  1  0  0  0  0
 48 46  1  0  0  0  0
 49 46  1  0  0  0  0
 49 52  1  1  0  0  0
 51 50  1  0  0  0  0
 54 52  1  0  0  0  0
 54 53  1  0  0  0  0
M  END
>  <MODEL>
8

>  <REMARK>
 VINA RESULT:      -5.5      2.509      6.586
  Name = 
  14 active torsions:
  status: ('A' for Active; 'I' for Inactive)
    1  A    between atoms: C_2  and  C_29
    2  A    between atoms: O_3  and  C_20
    3  A    between atoms: C_4  and  C_46
    4  A    between atoms: O_5  and  C_31
    5  A    between atoms: O_5  and  C_49
    6  A    between atoms: C_10  and  C_17
    7  A    between atoms: C_10  and  C_24
    8  A    between atoms: C_11  and  C_36
    9  A    between atoms: C_12  and  C_13
   10  A    between atoms: C_23  and  C_42
   11  A    between atoms: C_25  and  N_43
   12  A    between atoms: C_25  and  C_44
   13  A    between atoms: C_44  and  C_46
   14  A    between atoms: C_46  and  C_47
                            x       y       z     vdW  Elec       q    Type
                         _______ _______ _______ _____ _____    ______ ____

>  <TORSDO>
F 14

$$$$
=
 OpenBabel11062419103D

 54 61  0  0  1  0  0  0  0  0999 V2000
  189.8260  172.2970  141.3920 C   0  0  1  0  0  3  0  0  0  0  0  0
  189.5400  172.7560  142.7930 C   0  0  2  0  0  3  0  0  0  0  0  0
  192.0140  173.3270  143.1040 C   0  0  1  0  0  3  0  0  0  0  0  0
  191.3100  172.1220  140.9830 C   0  0  1  0  0  3  0  0  0  0  0  0
  190.7110  172.9070  143.7690 C   0  0  0  0  0  2  0  0  0  0  0  0
  189.4610  171.4010  142.4140 O   0  0  0  0  0  0  0  0  0  0  0  0
  192.3950  172.2710  142.0750 C   0  0  1  0  0  3  0  0  0  0  0  0
  195.0420  170.9080  143.1810 C   0  0  0  0  0  3  0  0  0  0  0  0
  193.9130  172.5610  140.0150 C   0  0  2  0  0  3  0  0  0  0  0  0
  196.1260  169.6730  140.8920 C   0  0  0  0  0  3  0  0  0  0  0  0
  195.9200  169.8240  143.3200 C   0  0  0  0  0  0  0  0  0  0  0  0
  193.8290  172.4830  141.5540 C   0  0  2  0  0  3  0  0  0  0  0  0
  195.2470  170.7510  140.7840 C   0  0  0  0  0  0  0  0  0  0  0  0
  194.8240  171.4170  139.5330 C   0  0  0  0  0  2  0  0  0  0  0  0
  196.4600  169.2050  142.1720 C   0  0  0  0  0  3  0  0  0  0  0  0
  194.7110  171.3460  141.8980 C   0  0  0  0  0  0  0  0  0  0  0  0
  196.7210  168.8160  147.4040 C   0  0  0  0  0  2  0  0  0  0  0  0
  194.3120  168.2000  147.7320 C   0  0  0  0  0  1  0  0  0  0  0  0
  195.0640  168.8080  145.4390 C   0  0  0  0  0  2  0  0  0  0  0  0
  196.9930  170.4580  145.4930 C   0  0  0  0  0  2  0  0  0  0  0  0
  195.4810  168.1680  146.7650 C   0  0  1  0  0  3  0  0  0  0  0  0
  196.2790  169.3570  144.6930 C   0  0  2  0  0  3  0  0  0  0  0  0
  196.8540  170.2860  147.0120 C   0  0  0  0  0  2  0  0  0  0  0  0
  194.3750  173.9520  139.5570 C   0  0  2  0  0  3  0  0  0  0  0  0
  194.2460  174.2200  138.0560 C   0  0  0  0  0  2  0  0  0  0  0  0
  193.5500  175.5350  137.7470 C   0  0  0  0  0  1  0  0  0  0  0  0
  195.6170  174.5480  140.2380 C   0  0  0  0  0  2  0  0  0  0  0  0
  195.2950  175.6270  141.2620 C   0  0  0  0  0  2  0  0  0  0  0  0
  195.8830  176.3500  143.4080 C   0  0  0  0  0  2  0  0  0  0  0  0
  196.2250  174.9370  143.3000 C   0  0  0  0  0  2  0  0  0  0  0  0
  196.4300  175.8270  142.1460 N   0  0  0  0  0  0  0  0  0  0  0  0
  191.5230  171.0500  140.0890 O   0  0  0  0  0  0  0  0  0  0  0  0
  190.5570  171.1100  139.0750 C   0  0  0  0  0  1  0  0  0  0  0  0
  191.9250  174.7350  142.5100 C   0  0  0  0  0  2  0  0  0  0  0  0
  188.6600  177.0790  144.2210 C   0  0  2  0  0  3  0  0  0  0  0  0
  189.2110  176.9320  147.0380 O   0  0  0  0  0  1  0  0  0  0  0  0
  192.5110  175.6430  144.7570 C   0  0  0  0  0  2  0  0  0  0  0  0
  191.5390  175.7310  143.5840 C   0  0  1  0  0  3  0  0  0  0  0  0
  190.9290  178.1530  143.9500 C   0  0  0  0  0  3  0  0  0  0  0  0
  188.8820  175.7230  144.9190 C   0  0  0  0  0  2  0  0  0  0  0  0
  189.3610  175.7080  146.3790 C   0  0  1  0  0  3  0  0  0  0  0  0
  191.4570  177.1320  142.9830 C   0  0  0  0  0  2  0  0  0  0  0  0
  190.7790  175.1500  146.5280 C   0  0  0  0  0  2  0  0  0  0  0  0
  191.8590  176.1180  146.0540 C   0  0  0  0  0  2  0  0  0  0  0  0
  189.7040  178.1310  144.4930 C   0  0  0  0  0  3  0  0  0  0  0  0
  187.2480  177.6200  144.4490 C   0  0  1  0  0  0  0  0  0  0  0  0
  187.1060  178.8390  145.1170 O   0  0  0  0  0  1  0  0  0  0  0  0
  186.1490  177.3240  143.4350 C   0  0  2  0  0  3  0  0  0  0  0  0
  186.1810  176.5830  144.7690 C   0  0  2  0  0  3  0  0  0  0  0  0
  186.5820  176.3680  142.3300 C   0  0  0  0  0  2  0  0  0  0  0  0
  186.9610  177.3060  140.8210 S   0  0  0  0  0  1  0  0  0  0  0  0
  185.2010  177.1120  145.6130 O   0  0  0  0  0  0  0  0  0  0  0  0
  185.4730  177.7790  147.7740 O   0  0  0  0  0  1  0  0  0  0  0  0
  185.5810  176.7040  146.8880 C   0  0  0  0  0  2  0  0  0  0  0  0
  1  6  1  1  0  0  0
  1  2  1  0  0  0  0
  2  5  1  1  0  0  0
  3 34  1  6  0  0  0
  3  5  1  0  0  0  0
  4 32  1  1  0  0  0
  4  1  1  0  0  0  0
  4  7  1  0  0  0  0
  6  2  1  0  0  0  0
  7 12  1  6  0  0  0
  7  3  1  0  0  0  0
  8 11  1  0  0  0  0
  9 24  1  1  0  0  0
  9 12  1  0  0  0  0
 10 15  1  0  0  0  0
 12 16  1  6  0  0  0
 13 10  2  0  0  0  0
 13 16  1  0  0  0  0
 14  9  1  0  0  0  0
 14 13  1  0  0  0  0
 15 11  2  0  0  0  0
 16  8  2  0  0  0  0
 19 21  1  0  0  0  0
 20 23  1  0  0  0  0
 21 17  1  0  0  0  0
 21 18  1  1  0  0  0
 22 11  1  6  0  0  0
 22 19  1  0  0  0  0
 22 20  1  0  0  0  0
 23 17  1  0  0  0  0
 24 25  1  6  0  0  0
 24 27  1  0  0  0  0
 26 25  1  0  0  0  0
 27 28  1  0  0  0  0
 28 31  1  0  0  0  0
 30 29  1  0  0  0  0
 31 30  1  0  0  0  0
 31 29  1  0  0  0  0
 33 32  1  0  0  0  0
 35 46  1  0  0  0  0
 35 45  1  1  0  0  0
 35 40  1  0  0  0  0
 37 44  1  0  0  0  0
 38 34  1  6  0  0  0
 38 37  1  0  0  0  0
 39 45  2  0  0  0  0
 40 41  1  0  0  0  0
 41 43  1  0  0  0  0
 41 36  1  6  0  0  0
 42 38  1  0  0  0  0
 42 39  1  0  0  0  0
 44 43  1  0  0  0  0
 46 49  1  0  0  0  0
 46 47  1  1  0  0  0
 48 50  1  6  0  0  0
 48 46  1  0  0  0  0
 48 49  1  0  0  0  0
 49 52  1  1  0  0  0
 51 50  1  0  0  0  0
 52 54  1  0  0  0  0
 54 53  1  0  0  0  0
M  END
>  <MODEL>
9

>  <REMARK>
 VINA RESULT:      -5.4      2.497      7.171
  Name = 
  14 active torsions:
  status: ('A' for Active; 'I' for Inactive)
    1  A    between atoms: C_2  and  C_29
    2  A    between atoms: O_3  and  C_20
    3  A    between atoms: C_4  and  C_46
    4  A    between atoms: O_5  and  C_31
    5  A    between atoms: O_5  and  C_49
    6  A    between atoms: C_10  and  C_17
    7  A    between atoms: C_10  and  C_24
    8  A    between atoms: C_11  and  C_36
    9  A    between atoms: C_12  and  C_13
   10  A    between atoms: C_23  and  C_42
   11  A    between atoms: C_25  and  N_43
   12  A    between atoms: C_25  and  C_44
   13  A    between atoms: C_44  and  C_46
   14  A    between atoms: C_46  and  C_47
                            x       y       z     vdW  Elec       q    Type
                         _______ _______ _______ _____ _____    ______ ____

>  <TORSDO>
F 14

$$$$
