=
 OpenBabel11062421173D

 56 60  0  0  1  0  0  0  0  0999 V2000
  190.8420  176.3810  144.9510 O   0  0  0  0  0  0  0  0  0  0  0  0
  192.1930  176.2820  144.5790 C   0  0  2  0  0  3  0  0  0  0  0  0
  192.5360  176.3890  147.1250 C   0  0  0  0  0  1  0  0  0  0  0  0
  193.0410  175.9750  145.7840 C   0  0  0  0  0  0  0  0  0  0  0  0
  194.2000  175.3060  145.7200 C   0  0  0  0  0  3  0  0  0  0  0  0
  194.8070  174.7880  144.4400 C   0  0  1  0  0  3  0  0  0  0  0  0
  197.1740  175.1500  144.0290 N   0  0  0  0  0  2  0  0  0  0  0  0
  195.8520  175.7740  143.9440 C   0  0  1  0  0  3  0  0  0  0  0  0
  197.9400  172.8550  144.2700 C   0  0  0  0  0  1  0  0  0  0  0  0
  197.0100  173.9260  144.8000 C   0  0  2  0  0  3  0  0  0  0  0  0
  195.5760  173.4910  144.6480 C   0  0  1  0  0  3  0  0  0  0  0  0
  195.5560  176.1480  142.5030 C   0  0  0  0  0  2  0  0  0  0  0  0
  194.5170  175.2150  141.9060 C   0  0  0  0  0  1  0  0  0  0  0  0
  195.1560  172.7930  145.7860 O   0  0  0  0  0  0  0  0  0  0  0  0
  195.1020  171.4510  145.3980 C   0  0  0  0  0  2  0  0  0  0  0  0
  194.2670  171.2970  144.1330 C   0  0  1  0  0  3  0  0  0  0  0  0
  194.8920  170.2860  143.2140 C   0  0  0  0  0  0  0  0  0  0  0  0
  194.1580  169.8180  142.0830 N   0  0  0  0  0  2  0  0  0  0  0  0
  196.0750  169.8980  143.4110 O   0  0  0  0  0  0  0  0  0  0  0  0
  194.2830  169.6390  138.6210 P   0  0  1  0  0  0  0  0  0  0  0  0
  194.8710  168.7630  137.3000 O   0  0  0  0  0  0  0  0  0  0  0  0
  195.7730  170.2380  139.9620 S   0  0  0  0  0  0  0  0  0  0  0  0
  193.3330  170.7550  138.2410 O   0  0  0  0  0  1  0  0  0  0  0  0
  193.7300  168.6250  139.9970 C   0  0  0  0  0  2  0  0  0  0  0  0
  194.7940  169.0760  141.0060 C   0  0  2  0  0  3  0  0  0  0  0  0
  192.9630  170.9190  144.4710 O   0  0  0  0  0  0  0  0  0  0  0  0
  192.1820  172.0560  144.2410 C   0  0  0  0  0  1  0  0  0  0  0  0
  191.4650  178.1850  143.6950 C   0  0  0  0  0  1  0  0  0  0  0  0
  192.6340  177.4580  143.9540 O   0  0  0  0  0  0  0  0  0  0  0  0
  190.3520  175.0690  145.0180 C   0  0  0  0  0  2  0  0  0  0  0  0
  189.1040  174.9980  145.8880 C   0  0  0  0  0  2  0  0  0  0  0  0
  188.8110  176.2900  146.5000 N   0  0  0  0  0  2  0  0  0  0  0  0
  183.4580  178.5350  144.4130 O   0  0  0  0  0  0  0  0  0  0  0  0
  184.3240  179.0980  143.4240 C   0  0  1  0  0  3  0  0  0  0  0  0
  187.5550  176.9710  146.3780 C   0  0  0  0  0  0  0  0  0  0  0  0
  186.1800  178.6120  145.2490 C   0  0  0  0  0  0  0  0  0  0  0  0
  187.3940  177.9320  145.3690 C   0  0  0  0  0  3  0  0  0  0  0  0
  185.2580  177.3520  147.0990 C   0  0  0  0  0  3  0  0  0  0  0  0
  186.4860  176.6940  147.2550 C   0  0  0  0  0  3  0  0  0  0  0  0
  183.7980  178.9090  145.7330 C   0  0  0  0  0  2  0  0  0  0  0  0
  185.1150  178.3120  146.0910 C   0  0  0  0  0  0  0  0  0  0  0  0
  185.9110  179.8570  143.9940 S   0  0  0  0  0  0  0  0  0  0  0  0
  184.6410  178.0530  142.3640 C   0  0  0  0  0  2  0  0  0  0  0  0
  185.9610  178.3200  141.6490 C   0  0  0  0  0  2  0  0  0  0  0  0
  186.3520  177.1580  140.7420 C   0  0  0  0  0  2  0  0  0  0  0  0
  188.3510  177.9020  141.6960 C   0  0  0  0  0  1  0  0  0  0  0  0
  187.7450  176.7940  140.9770 N   0  0  0  0  0  0  0  0  0  0  0  0
  187.7450  175.6490  141.8810 C   0  0  0  0  0  2  0  0  0  0  0  0
  188.7070  174.3100  139.9620 C   0  0  0  0  0  2  0  0  0  0  0  0
  190.3140  172.4100  140.6170 C   0  0  1  0  0  3  0  0  0  0  0  0
  190.8010  171.2550  140.0300 F   0  0  0  0  0  0  0  0  0  0  0  0
  189.8490  173.3830  139.5230 C   0  0  0  0  0  2  0  0  0  0  0  0
  188.6910  173.3410  142.3180 C   0  0  0  0  0  2  0  0  0  0  0  0
  188.7820  174.6130  141.4580 C   0  0  2  0  0  3  0  0  0  0  0  0
  189.6030  171.1460  142.5140 F   0  0  0  0  0  0  0  0  0  0  0  0
  189.1800  172.0810  141.5880 C   0  0  2  0  0  3  0  0  0  0  0  0
  1 30  1  0  0  0  0
  2 29  1  1  0  0  0
  2  1  1  0  0  0  0
  2  4  1  0  0  0  0
  4  3  1  0  0  0  0
  5  4  2  0  0  0  0
  6 11  1  0  0  0  0
  6  5  1  1  0  0  0
  7 10  1  0  0  0  0
  8 12  1  6  0  0  0
  8  7  1  0  0  0  0
  8  6  1  0  0  0  0
 10  9  1  6  0  0  0
 11 10  1  0  0  0  0
 11 14  1  1  0  0  0
 13 12  1  0  0  0  0
 15 14  1  0  0  0  0
 16 26  1  0  0  0  0
 16 15  1  1  0  0  0
 17 19  2  0  0  0  0
 17 16  1  0  0  0  0
 18 17  1  0  0  0  0
 20 21  2  6  0  0  0
 20 22  1  0  0  0  0
 20 24  1  0  0  0  0
 22 25  1  0  0  0  0
 23 20  1  0  0  0  0
 24 25  1  0  0  0  0
 25 18  1  1  0  0  0
 27 26  1  0  0  0  0
 28 29  1  0  0  0  0
 30 31  1  0  0  0  0
 31 32  1  0  0  0  0
 33 40  1  0  0  0  0
 34 43  1  6  0  0  0
 34 42  1  0  0  0  0
 34 33  1  0  0  0  0
 35 32  1  0  0  0  0
 35 39  1  0  0  0  0
 36 37  1  0  0  0  0
 36 41  2  0  0  0  0
 37 35  2  0  0  0  0
 38 39  2  0  0  0  0
 40 41  1  0  0  0  0
 41 38  1  0  0  0  0
 42 36  1  0  0  0  0
 44 43  1  0  0  0  0
 45 47  1  0  0  0  0
 45 44  1  0  0  0  0
 47 46  1  0  0  0  0
 47 48  1  0  0  0  0
 49 54  1  0  0  0  0
 50 51  1  6  0  0  0
 50 56  1  0  0  0  0
 52 49  1  0  0  0  0
 52 50  1  0  0  0  0
 54 48  1  1  0  0  0
 54 53  1  0  0  0  0
 56 53  1  0  0  0  0
 56 55  1  1  0  0  0
M  END
>  <MODEL>
1

>  <REMARK>
 VINA RESULT:      -6.2      0.000      0.000
  Name = 
  21 active torsions:
  status: ('A' for Active; 'I' for Inactive)
    1  A    between atoms: C_3  and  C_13
    2  A    between atoms: C_4  and  N_16
    3  A    between atoms: C_7  and  C_35
    4  A    between atoms: O_8  and  C_35
    5  A    between atoms: C_13  and  C_24
    6  A    between atoms: C_14  and  C_54
    7  A    between atoms: N_16  and  C_45
    8  A    between atoms: N_17  and  C_52
    9  A    between atoms: C_22  and  C_27
   10  A    between atoms: C_24  and  C_40
   11  A    between atoms: O_25  and  C_53
   12  A    between atoms: O_29  and  C_41
   13  A    between atoms: O_29  and  C_42
   14  A    between atoms: C_35  and  C_42
   15  A    between atoms: O_38  and  C_49
   16  A    between atoms: O_38  and  C_53
   17  A    between atoms: C_40  and  N_55
   18  A    between atoms: C_45  and  C_49
   19  A    between atoms: C_46  and  C_50
   20  A    between atoms: C_46  and  N_55
   21  A    between atoms: C_48  and  C_53
                            x       y       z     vdW  Elec       q    Type
                         _______ _______ _______ _____ _____    ______ ____

>  <TORSDO>
F 21

$$$$
=
 OpenBabel11062421173D

 56 60  0  0  1  0  0  0  0  0999 V2000
  189.6640  173.8060  140.0100 O   0  0  0  0  0  0  0  0  0  0  0  0
  190.2320  172.7150  139.3330 C   0  0  2  0  0  3  0  0  0  0  0  0
  191.2690  174.0170  137.3730 C   0  0  0  0  0  1  0  0  0  0  0  0
  191.4560  173.1550  138.5760 C   0  0  0  0  0  0  0  0  0  0  0  0
  192.7060  172.8550  138.9540 C   0  0  0  0  0  3  0  0  0  0  0  0
  193.0450  172.0330  140.1730 C   0  0  1  0  0  3  0  0  0  0  0  0
  194.6020  170.1820  139.9470 N   0  0  0  0  0  2  0  0  0  0  0  0
  193.2030  170.5760  139.7690 C   0  0  1  0  0  3  0  0  0  0  0  0
  196.4760  171.1320  141.1710 C   0  0  0  0  0  1  0  0  0  0  0  0
  195.3540  171.4050  140.1920 C   0  0  2  0  0  3  0  0  0  0  0  0
  194.3930  172.4120  140.7690 C   0  0  1  0  0  3  0  0  0  0  0  0
  192.3130  169.7060  140.6370 C   0  0  0  0  0  2  0  0  0  0  0  0
  193.0340  169.2970  141.9090 C   0  0  0  0  0  1  0  0  0  0  0  0
  194.7870  173.7100  140.4280 O   0  0  0  0  0  0  0  0  0  0  0  0
  195.5710  174.1520  141.4980 C   0  0  0  0  0  2  0  0  0  0  0  0
  194.7710  175.0940  142.3880 C   0  0  1  0  0  3  0  0  0  0  0  0
  194.7860  174.6090  143.8100 C   0  0  0  0  0  0  0  0  0  0  0  0
  194.8730  173.2090  144.0720 N   0  0  0  0  0  2  0  0  0  0  0  0
  194.7770  175.4360  144.7610 O   0  0  0  0  0  0  0  0  0  0  0  0
  196.2940  170.4620  145.6430 P   0  0  1  0  0  0  0  0  0  0  0  0
  196.5850  169.7160  147.1330 O   0  0  0  0  0  1  0  0  0  0  0  0
  197.0010  172.4270  145.5350 S   0  0  0  0  0  0  0  0  0  0  0  0
  196.6820  169.6160  144.4490 O   0  0  0  0  0  0  0  0  0  0  0  0
  194.6830  171.2450  145.5090 C   0  0  0  0  0  2  0  0  0  0  0  0
  195.1830  172.6910  145.3950 C   0  0  2  0  0  3  0  0  0  0  0  0
  195.2980  176.3880  142.3020 O   0  0  0  0  0  0  0  0  0  0  0  0
  196.6140  176.2190  141.8610 C   0  0  0  0  0  1  0  0  0  0  0  0
  189.7060  170.7800  138.3780 C   0  0  0  0  0  1  0  0  0  0  0  0
  189.3050  172.1190  138.4640 O   0  0  0  0  0  0  0  0  0  0  0  0
  188.4470  173.3550  140.5390 C   0  0  0  0  0  2  0  0  0  0  0  0
  188.0690  174.1450  141.7850 C   0  0  0  0  0  2  0  0  0  0  0  0
  187.9470  175.5690  141.4920 N   0  0  0  0  0  2  0  0  0  0  0  0
  185.3360  179.5220  145.4420 O   0  0  0  0  0  0  0  0  0  0  0  0
  185.6220  178.4630  146.3600 C   0  0  1  0  0  3  0  0  0  0  0  0
  187.0350  176.4520  142.1580 C   0  0  0  0  0  0  0  0  0  0  0  0
  185.7700  177.0260  144.1420 C   0  0  0  0  0  0  0  0  0  0  0  0
  186.6680  176.1800  143.4850 C   0  0  0  0  0  3  0  0  0  0  0  0
  185.6340  178.4460  142.1860 C   0  0  0  0  0  3  0  0  0  0  0  0
  186.5010  177.5810  141.5040 C   0  0  0  0  0  3  0  0  0  0  0  0
  184.5200  179.1210  144.3610 C   0  0  0  0  0  2  0  0  0  0  0  0
  185.2730  178.1580  143.5070 C   0  0  0  0  0  0  0  0  0  0  0  0
  185.2510  176.7320  145.8270 S   0  0  0  0  0  0  0  0  0  0  0  0
  187.0800  178.5350  146.7880 C   0  0  0  0  0  2  0  0  0  0  0  0
  187.7520  177.1670  146.8250 C   0  0  0  0  0  2  0  0  0  0  0  0
  189.2650  177.2800  146.6660 C   0  0  0  0  0  2  0  0  0  0  0  0
  189.7060  177.8680  144.4480 C   0  0  0  0  0  1  0  0  0  0  0  0
  189.6670  176.7460  145.3710 N   0  0  0  0  0  0  0  0  0  0  0  0
  191.0370  176.2640  145.5110 C   0  0  0  0  0  2  0  0  0  0  0  0
  191.2000  174.7350  143.5010 C   0  0  0  0  0  2  0  0  0  0  0  0
  190.9490  172.2200  143.9830 C   0  0  1  0  0  3  0  0  0  0  0  0
  190.6370  171.0820  143.2600 F   0  0  0  0  0  0  0  0  0  0  0  0
  191.4800  173.3020  143.0300 C   0  0  0  0  0  2  0  0  0  0  0  0
  190.0820  173.9220  145.6400 C   0  0  0  0  0  2  0  0  0  0  0  0
  191.1670  174.8220  145.0270 C   0  0  2  0  0  3  0  0  0  0  0  0
  189.2240  171.6980  145.5490 F   0  0  0  0  0  0  0  0  0  0  0  0
  189.7270  172.7140  144.7590 C   0  0  2  0  0  3  0  0  0  0  0  0
  1 30  1  0  0  0  0
  2 29  1  6  0  0  0
  2  1  1  0  0  0  0
  3  4  1  0  0  0  0
  4  5  2  0  0  0  0
  4  2  1  0  0  0  0
  6  5  1  6  0  0  0
  6 11  1  0  0  0  0
  7 10  1  0  0  0  0
  8  7  1  0  0  0  0
  8  6  1  0  0  0  0
  8 12  1  1  0  0  0
 10 11  1  0  0  0  0
 10  9  1  1  0  0  0
 11 14  1  6  0  0  0
 12 13  1  0  0  0  0
 14 15  1  0  0  0  0
 16 15  1  6  0  0  0
 16 17  1  0  0  0  0
 17 18  1  0  0  0  0
 17 19  2  0  0  0  0
 20 23  2  6  0  0  0
 20 21  1  0  0  0  0
 22 20  1  0  0  0  0
 24 20  1  0  0  0  0
 25 18  1  6  0  0  0
 25 24  1  0  0  0  0
 25 22  1  0  0  0  0
 26 16  1  0  0  0  0
 27 26  1  0  0  0  0
 28 29  1  0  0  0  0
 30 31  1  0  0  0  0
 32 31  1  0  0  0  0
 32 35  1  0  0  0  0
 33 34  1  0  0  0  0
 34 43  1  6  0  0  0
 35 37  1  0  0  0  0
 36 42  1  0  0  0  0
 37 36  2  0  0  0  0
 38 41  2  0  0  0  0
 39 35  2  0  0  0  0
 39 38  1  0  0  0  0
 40 33  1  0  0  0  0
 41 36  1  0  0  0  0
 41 40  1  0  0  0  0
 42 34  1  0  0  0  0
 43 44  1  0  0  0  0
 45 44  1  0  0  0  0
 46 47  1  0  0  0  0
 47 48  1  0  0  0  0
 47 45  1  0  0  0  0
 49 54  1  0  0  0  0
 50 51  1  6  0  0  0
 50 56  1  0  0  0  0
 52 49  1  0  0  0  0
 52 50  1  0  0  0  0
 54 48  1  6  0  0  0
 54 53  1  0  0  0  0
 56 55  1  1  0  0  0
 56 53  1  0  0  0  0
M  END
>  <MODEL>
2

>  <REMARK>
 VINA RESULT:      -6.1      2.513      5.567
  Name = 
  21 active torsions:
  status: ('A' for Active; 'I' for Inactive)
    1  A    between atoms: C_3  and  C_13
    2  A    between atoms: C_4  and  N_16
    3  A    between atoms: C_7  and  C_35
    4  A    between atoms: O_8  and  C_35
    5  A    between atoms: C_13  and  C_24
    6  A    between atoms: C_14  and  C_54
    7  A    between atoms: N_16  and  C_45
    8  A    between atoms: N_17  and  C_52
    9  A    between atoms: C_22  and  C_27
   10  A    between atoms: C_24  and  C_40
   11  A    between atoms: O_25  and  C_53
   12  A    between atoms: O_29  and  C_41
   13  A    between atoms: O_29  and  C_42
   14  A    between atoms: C_35  and  C_42
   15  A    between atoms: O_38  and  C_49
   16  A    between atoms: O_38  and  C_53
   17  A    between atoms: C_40  and  N_55
   18  A    between atoms: C_45  and  C_49
   19  A    between atoms: C_46  and  C_50
   20  A    between atoms: C_46  and  N_55
   21  A    between atoms: C_48  and  C_53
                            x       y       z     vdW  Elec       q    Type
                         _______ _______ _______ _____ _____    ______ ____

>  <TORSDO>
F 21

$$$$
=
 OpenBabel11062421173D

 56 60  0  0  1  0  0  0  0  0999 V2000
  188.3320  176.5210  146.8980 O   0  0  0  0  0  0  0  0  0  0  0  0
  187.5830  176.7530  145.7330 C   0  0  2  0  0  3  0  0  0  0  0  0
  189.7270  178.0520  145.1620 C   0  0  0  0  0  1  0  0  0  0  0  0
  188.4160  177.4950  144.7220 C   0  0  0  0  0  0  0  0  0  0  0  0
  188.0630  177.6380  143.4380 C   0  0  0  0  0  3  0  0  0  0  0  0
  186.7900  177.0880  142.8450 C   0  0  1  0  0  3  0  0  0  0  0  0
  185.6690  178.3430  141.0920 N   0  0  0  0  0  2  0  0  0  0  0  0
  185.8390  178.2350  142.5430 C   0  0  1  0  0  3  0  0  0  0  0  0
  186.1260  176.8510  139.2280 C   0  0  0  0  0  1  0  0  0  0  0  0
  186.6780  177.4840  140.4880 C   0  0  2  0  0  3  0  0  0  0  0  0
  187.0210  176.4200  141.4970 C   0  0  1  0  0  3  0  0  0  0  0  0
  184.4950  177.9690  143.1950 C   0  0  0  0  0  2  0  0  0  0  0  0
  184.1520  179.0650  144.1890 C   0  0  0  0  0  1  0  0  0  0  0  0
  188.3430  175.9960  141.3260 O   0  0  0  0  0  0  0  0  0  0  0  0
  188.2540  174.6660  140.9060 C   0  0  0  0  0  2  0  0  0  0  0  0
  189.6320  174.0150  140.9090 C   0  0  1  0  0  3  0  0  0  0  0  0
  189.6140  172.7550  141.7270 C   0  0  0  0  0  0  0  0  0  0  0  0
  190.7450  171.8860  141.7020 N   0  0  0  0  0  2  0  0  0  0  0  0
  188.6290  172.4980  142.4710 O   0  0  0  0  0  0  0  0  0  0  0  0
  193.1030  169.6080  142.8370 P   0  0  1  0  0  0  0  0  0  0  0  0
  193.3690  168.2770  143.8450 O   0  0  0  0  0  1  0  0  0  0  0  0
  192.2870  171.2610  143.8270 S   0  0  0  0  0  0  0  0  0  0  0  0
  194.2860  169.9570  141.9590 O   0  0  0  0  0  0  0  0  0  0  0  0
  191.5210  169.5890  141.9850 C   0  0  0  0  0  2  0  0  0  0  0  0
  190.9180  170.8190  142.6750 C   0  0  2  0  0  3  0  0  0  0  0  0
  190.0300  173.7460  139.5940 O   0  0  0  0  0  0  0  0  0  0  0  0
  188.8420  173.6390  138.8660 C   0  0  0  0  0  1  0  0  0  0  0  0
  186.6020  177.9710  147.3100 C   0  0  0  0  0  1  0  0  0  0  0  0
  186.4070  177.4630  146.0190 O   0  0  0  0  0  0  0  0  0  0  0  0
  188.6710  175.1610  146.8870 C   0  0  0  0  0  2  0  0  0  0  0  0
  190.1510  174.9660  147.1910 C   0  0  0  0  0  2  0  0  0  0  0  0
  190.8820  174.5310  146.0060 N   0  0  0  0  0  2  0  0  0  0  0  0
  196.3710  175.3760  143.3210 O   0  0  0  0  0  0  0  0  0  0  0  0
  196.6140  174.0910  143.9010 C   0  0  1  0  0  3  0  0  0  0  0  0
  192.1590  175.0500  145.6130 C   0  0  0  0  0  0  0  0  0  0  0  0
  194.5550  174.7570  145.4260 C   0  0  0  0  0  0  0  0  0  0  0  0
  193.3030  174.2580  145.7930 C   0  0  0  0  0  3  0  0  0  0  0  0
  193.5390  176.8130  144.6510 C   0  0  0  0  0  3  0  0  0  0  0  0
  192.2840  176.3390  145.0540 C   0  0  0  0  0  3  0  0  0  0  0  0
  196.0030  176.3570  144.2680 C   0  0  0  0  0  2  0  0  0  0  0  0
  194.6720  176.0140  144.8430 C   0  0  0  0  0  0  0  0  0  0  0  0
  196.0540  173.8070  145.6400 S   0  0  0  0  0  0  0  0  0  0  0  0
  196.0140  173.0070  143.0170 C   0  0  0  0  0  2  0  0  0  0  0  0
  196.3260  173.2130  141.5390 C   0  0  0  0  0  2  0  0  0  0  0  0
  195.2170  173.9880  140.8350 C   0  0  0  0  0  2  0  0  0  0  0  0
  196.5400  173.3800  139.0080 C   0  0  0  0  0  1  0  0  0  0  0  0
  195.1680  173.6140  139.4270 N   0  0  0  0  0  0  0  0  0  0  0  0
  194.4740  172.3330  139.3460 C   0  0  0  0  0  2  0  0  0  0  0  0
  192.7860  173.5710  137.9240 C   0  0  0  0  0  2  0  0  0  0  0  0
  191.5380  172.1530  136.1770 C   0  0  1  0  0  3  0  0  0  0  0  0
  190.3670  172.2550  135.4470 F   0  0  0  0  0  0  0  0  0  0  0  0
  191.9970  173.5540  136.6090 C   0  0  0  0  0  2  0  0  0  0  0  0
  192.6540  171.0380  138.1530 C   0  0  0  0  0  2  0  0  0  0  0  0
  193.5690  172.2720  138.1180 C   0  0  2  0  0  3  0  0  0  0  0  0
  190.8530  170.0090  136.9750 F   0  0  0  0  0  0  0  0  0  0  0  0
  191.3380  171.2370  137.3850 C   0  0  2  0  0  3  0  0  0  0  0  0
  2  4  1  6  0  0  0
  2 29  1  0  0  0  0
  2  1  1  0  0  0  0
  4  3  1  0  0  0  0
  5  4  2  0  0  0  0
  6  5  1  6  0  0  0
  7  8  1  0  0  0  0
  8  6  1  0  0  0  0
  8 12  1  1  0  0  0
 10  9  1  6  0  0  0
 10  7  1  0  0  0  0
 10 11  1  0  0  0  0
 11 14  1  1  0  0  0
 11  6  1  0  0  0  0
 12 13  1  0  0  0  0
 15 14  1  0  0  0  0
 16 15  1  6  0  0  0
 16 17  1  0  0  0  0
 17 19  2  0  0  0  0
 18 17  1  0  0  0  0
 20 23  2  6  0  0  0
 20 22  1  0  0  0  0
 20 21  1  0  0  0  0
 24 25  1  0  0  0  0
 24 20  1  0  0  0  0
 25 18  1  6  0  0  0
 25 22  1  0  0  0  0
 26 16  1  0  0  0  0
 27 26  1  0  0  0  0
 29 28  1  0  0  0  0
 30  1  1  0  0  0  0
 30 31  1  0  0  0  0
 32 31  1  0  0  0  0
 33 34  1  0  0  0  0
 33 40  1  0  0  0  0
 34 43  1  6  0  0  0
 34 42  1  0  0  0  0
 35 37  1  0  0  0  0
 35 32  1  0  0  0  0
 36 42  1  0  0  0  0
 36 37  2  0  0  0  0
 38 41  2  0  0  0  0
 38 39  1  0  0  0  0
 39 35  2  0  0  0  0
 40 41  1  0  0  0  0
 41 36  1  0  0  0  0
 44 43  1  0  0  0  0
 45 44  1  0  0  0  0
 46 47  1  0  0  0  0
 47 45  1  0  0  0  0
 48 47  1  0  0  0  0
 49 54  1  0  0  0  0
 50 51  1  1  0  0  0
 50 52  1  0  0  0  0
 50 56  1  0  0  0  0
 52 49  1  0  0  0  0
 54 53  1  0  0  0  0
 54 48  1  1  0  0  0
 56 55  1  6  0  0  0
 56 53  1  0  0  0  0
M  END
>  <MODEL>
3

>  <REMARK>
 VINA RESULT:      -5.7      2.945      7.999
  Name = 
  21 active torsions:
  status: ('A' for Active; 'I' for Inactive)
    1  A    between atoms: C_3  and  C_13
    2  A    between atoms: C_4  and  N_16
    3  A    between atoms: C_7  and  C_35
    4  A    between atoms: O_8  and  C_35
    5  A    between atoms: C_13  and  C_24
    6  A    between atoms: C_14  and  C_54
    7  A    between atoms: N_16  and  C_45
    8  A    between atoms: N_17  and  C_52
    9  A    between atoms: C_22  and  C_27
   10  A    between atoms: C_24  and  C_40
   11  A    between atoms: O_25  and  C_53
   12  A    between atoms: O_29  and  C_41
   13  A    between atoms: O_29  and  C_42
   14  A    between atoms: C_35  and  C_42
   15  A    between atoms: O_38  and  C_49
   16  A    between atoms: O_38  and  C_53
   17  A    between atoms: C_40  and  N_55
   18  A    between atoms: C_45  and  C_49
   19  A    between atoms: C_46  and  C_50
   20  A    between atoms: C_46  and  N_55
   21  A    between atoms: C_48  and  C_53
                            x       y       z     vdW  Elec       q    Type
                         _______ _______ _______ _____ _____    ______ ____

>  <TORSDO>
F 21

$$$$
=
 OpenBabel11062421173D

 56 60  0  0  1  0  0  0  0  0999 V2000
  191.6440  176.9300  145.7680 O   0  0  0  0  0  0  0  0  0  0  0  0
  192.5690  176.4650  144.8190 C   0  0  2  0  0  3  0  0  0  0  0  0
  194.1820  177.3720  146.6030 C   0  0  0  0  0  1  0  0  0  0  0  0
  193.9680  176.5680  145.3660 C   0  0  0  0  0  0  0  0  0  0  0  0
  195.0190  175.9360  144.8270 C   0  0  0  0  0  3  0  0  0  0  0  0
  194.9410  175.0550  143.6060 C   0  0  1  0  0  3  0  0  0  0  0  0
  196.8500  174.9480  142.1070 N   0  0  0  0  0  2  0  0  0  0  0  0
  195.6610  175.7310  142.4510 C   0  0  1  0  0  3  0  0  0  0  0  0
  197.5710  172.6780  142.5970 C   0  0  0  0  0  1  0  0  0  0  0  0
  197.0290  173.9710  143.1720 C   0  0  2  0  0  3  0  0  0  0  0  0
  195.6780  173.7370  143.7960 C   0  0  1  0  0  3  0  0  0  0  0  0
  194.7370  175.8100  141.2490 C   0  0  0  0  0  2  0  0  0  0  0  0
  194.4600  174.4250  140.6910 C   0  0  0  0  0  1  0  0  0  0  0  0
  195.8190  173.3880  145.1430 O   0  0  0  0  0  0  0  0  0  0  0  0
  194.7680  172.5040  145.4080 C   0  0  0  0  0  2  0  0  0  0  0  0
  195.3100  171.1230  145.7530 C   0  0  1  0  0  3  0  0  0  0  0  0
  194.7280  170.0880  144.8320 C   0  0  0  0  0  0  0  0  0  0  0  0
  195.0570  170.1200  143.4440 N   0  0  0  0  0  2  0  0  0  0  0  0
  194.0010  169.1680  145.2930 O   0  0  0  0  0  0  0  0  0  0  0  0
  193.7300  169.4020  140.3200 P   0  0  1  0  0  0  0  0  0  0  0  0
  193.2490  168.1660  139.2700 O   0  0  0  0  0  0  0  0  0  0  0  0
  195.7050  169.2190  140.9840 S   0  0  0  0  0  0  0  0  0  0  0  0
  193.3880  170.7910  139.8260 O   0  0  0  0  0  1  0  0  0  0  0  0
  193.3310  169.1050  142.0460 C   0  0  0  0  0  2  0  0  0  0  0  0
  194.7740  169.0010  142.5590 C   0  0  2  0  0  3  0  0  0  0  0  0
  196.7070  171.1290  145.6700 O   0  0  0  0  0  0  0  0  0  0  0  0
  197.0950  169.8130  145.9390 C   0  0  0  0  0  1  0  0  0  0  0  0
  191.5630  176.4240  142.8390 C   0  0  0  0  0  1  0  0  0  0  0  0
  192.4580  177.1740  143.6130 O   0  0  0  0  0  0  0  0  0  0  0  0
  190.7190  175.8940  145.9610 C   0  0  0  0  0  2  0  0  0  0  0  0
  191.4110  174.6340  146.4660 C   0  0  0  0  0  2  0  0  0  0  0  0
  190.7930  173.4330  145.9130 N   0  0  0  0  0  2  0  0  0  0  0  0
  189.8410  173.8650  139.8340 O   0  0  0  0  0  0  0  0  0  0  0  0
  188.5270  174.2100  140.2800 C   0  0  1  0  0  3  0  0  0  0  0  0
  190.6890  173.1540  144.5110 C   0  0  0  0  0  0  0  0  0  0  0  0
  189.3320  173.0320  142.5100 C   0  0  0  0  0  0  0  0  0  0  0  0
  189.4490  173.3130  143.8730 C   0  0  0  0  0  3  0  0  0  0  0  0
  191.6860  172.4830  142.3910 C   0  0  0  0  0  3  0  0  0  0  0  0
  191.8060  172.7210  143.7680 C   0  0  0  0  0  3  0  0  0  0  0  0
  190.2720  172.5990  140.2910 C   0  0  0  0  0  2  0  0  0  0  0  0
  190.4420  172.6400  141.7710 C   0  0  0  0  0  0  0  0  0  0  0  0
  187.7800  173.2010  141.6380 S   0  0  0  0  0  0  0  0  0  0  0  0
  188.4920  175.6750  140.6900 C   0  0  0  0  0  2  0  0  0  0  0  0
  187.1100  176.2990  140.5340 C   0  0  0  0  0  2  0  0  0  0  0  0
  187.1300  177.7920  140.8440 C   0  0  0  0  0  2  0  0  0  0  0  0
  184.8180  178.1110  140.7360 C   0  0  0  0  0  1  0  0  0  0  0  0
  185.9590  178.1490  141.6360 N   0  0  0  0  0  0  0  0  0  0  0  0
  185.7630  177.0870  142.6170 C   0  0  0  0  0  2  0  0  0  0  0  0
  185.9770  179.0770  144.1640 C   0  0  0  0  0  2  0  0  0  0  0  0
  185.2910  178.6730  146.6110 C   0  0  1  0  0  3  0  0  0  0  0  0
  185.5240  179.2740  147.8360 F   0  0  0  0  0  0  0  0  0  0  0  0
  185.5080  179.6980  145.4870 C   0  0  0  0  0  2  0  0  0  0  0  0
  185.8810  176.7180  145.1200 C   0  0  0  0  0  2  0  0  0  0  0  0
  185.4300  177.6600  143.9910 C   0  0  2  0  0  3  0  0  0  0  0  0
  186.0340  176.5830  147.4960 F   0  0  0  0  0  0  0  0  0  0  0  0
  186.1930  177.4520  146.4330 C   0  0  2  0  0  3  0  0  0  0  0  0
  1 30  1  0  0  0  0
  2 29  1  6  0  0  0
  2  4  1  0  0  0  0
  2  1  1  0  0  0  0
  4  3  1  0  0  0  0
  5  4  2  0  0  0  0
  6 11  1  0  0  0  0
  6  5  1  1  0  0  0
  7  8  1  0  0  0  0
  7 10  1  0  0  0  0
  8 12  1  6  0  0  0
  8  6  1  0  0  0  0
 10  9  1  6  0  0  0
 10 11  1  0  0  0  0
 11 14  1  1  0  0  0
 13 12  1  0  0  0  0
 14 15  1  0  0  0  0
 16 15  1  6  0  0  0
 17 19  2  0  0  0  0
 17 16  1  0  0  0  0
 18 17  1  0  0  0  0
 20 21  2  6  0  0  0
 20 22  1  0  0  0  0
 20 24  1  0  0  0  0
 22 25  1  0  0  0  0
 23 20  1  0  0  0  0
 24 25  1  0  0  0  0
 25 18  1  1  0  0  0
 26 16  1  0  0  0  0
 26 27  1  0  0  0  0
 28 29  1  0  0  0  0
 30 31  1  0  0  0  0
 32 31  1  0  0  0  0
 33 34  1  0  0  0  0
 33 40  1  0  0  0  0
 34 43  1  1  0  0  0
 34 42  1  0  0  0  0
 35 32  1  0  0  0  0
 36 37  2  0  0  0  0
 37 35  1  0  0  0  0
 38 39  1  0  0  0  0
 39 35  2  0  0  0  0
 40 41  1  0  0  0  0
 41 38  2  0  0  0  0
 41 36  1  0  0  0  0
 42 36  1  0  0  0  0
 44 43  1  0  0  0  0
 44 45  1  0  0  0  0
 45 47  1  0  0  0  0
 46 47  1  0  0  0  0
 47 48  1  0  0  0  0
 49 52  1  0  0  0  0
 50 51  1  1  0  0  0
 52 50  1  0  0  0  0
 53 56  1  0  0  0  0
 54 48  1  6  0  0  0
 54 49  1  0  0  0  0
 54 53  1  0  0  0  0
 56 50  1  0  0  0  0
 56 55  1  1  0  0  0
M  END
>  <MODEL>
4

>  <REMARK>
 VINA RESULT:      -5.6      2.746      5.002
  Name = 
  21 active torsions:
  status: ('A' for Active; 'I' for Inactive)
    1  A    between atoms: C_3  and  C_13
    2  A    between atoms: C_4  and  N_16
    3  A    between atoms: C_7  and  C_35
    4  A    between atoms: O_8  and  C_35
    5  A    between atoms: C_13  and  C_24
    6  A    between atoms: C_14  and  C_54
    7  A    between atoms: N_16  and  C_45
    8  A    between atoms: N_17  and  C_52
    9  A    between atoms: C_22  and  C_27
   10  A    between atoms: C_24  and  C_40
   11  A    between atoms: O_25  and  C_53
   12  A    between atoms: O_29  and  C_41
   13  A    between atoms: O_29  and  C_42
   14  A    between atoms: C_35  and  C_42
   15  A    between atoms: O_38  and  C_49
   16  A    between atoms: O_38  and  C_53
   17  A    between atoms: C_40  and  N_55
   18  A    between atoms: C_45  and  C_49
   19  A    between atoms: C_46  and  C_50
   20  A    between atoms: C_46  and  N_55
   21  A    between atoms: C_48  and  C_53
                            x       y       z     vdW  Elec       q    Type
                         _______ _______ _______ _____ _____    ______ ____

>  <TORSDO>
F 21

$$$$
=
 OpenBabel11062421173D

 56 60  0  0  1  0  0  0  0  0999 V2000
  191.4030  176.7770  145.3810 O   0  0  0  0  0  0  0  0  0  0  0  0
  192.5960  176.1580  144.9760 C   0  0  2  0  0  3  0  0  0  0  0  0
  193.1260  176.6330  147.4460 C   0  0  0  0  0  1  0  0  0  0  0  0
  193.5440  176.0460  146.1400 C   0  0  0  0  0  0  0  0  0  0  0  0
  194.7180  175.4060  146.0770 C   0  0  0  0  0  3  0  0  0  0  0  0
  195.2460  174.7270  144.8370 C   0  0  1  0  0  3  0  0  0  0  0  0
  197.3080  173.4520  144.9810 N   0  0  0  0  0  2  0  0  0  0  0  0
  196.7640  174.8030  144.8300 C   0  0  1  0  0  3  0  0  0  0  0  0
  196.3760  171.2220  144.7190 C   0  0  0  0  0  1  0  0  0  0  0  0
  196.1930  172.5890  145.3430 C   0  0  2  0  0  3  0  0  0  0  0  0
  194.9380  173.2370  144.8180 C   0  0  1  0  0  3  0  0  0  0  0  0
  197.2390  175.4020  143.5190 C   0  0  0  0  0  2  0  0  0  0  0  0
  196.4910  176.6870  143.2110 C   0  0  0  0  0  1  0  0  0  0  0  0
  193.8450  172.9030  145.6240 O   0  0  0  0  0  0  0  0  0  0  0  0
  193.2770  171.7730  145.0270 C   0  0  0  0  0  2  0  0  0  0  0  0
  192.4960  172.1680  143.7800 C   0  0  1  0  0  3  0  0  0  0  0  0
  193.3140  171.9090  142.5470 C   0  0  0  0  0  0  0  0  0  0  0  0
  193.6000  172.9870  141.6570 N   0  0  0  0  0  2  0  0  0  0  0  0
  193.7900  170.7620  142.3320 O   0  0  0  0  0  0  0  0  0  0  0  0
  194.2100  173.8920  138.3640 P   0  0  1  0  0  0  0  0  0  0  0  0
  195.2640  173.7190  137.0520 O   0  0  0  0  0  0  0  0  0  0  0  0
  195.1440  174.5680  140.1090 S   0  0  0  0  0  0  0  0  0  0  0  0
  192.9390  174.6440  138.0310 O   0  0  0  0  0  1  0  0  0  0  0  0
  193.9600  172.3900  139.3170 C   0  0  0  0  0  2  0  0  0  0  0  0
  194.6120  172.8790  140.6170 C   0  0  2  0  0  3  0  0  0  0  0  0
  191.2910  171.4570  143.7320 O   0  0  0  0  0  0  0  0  0  0  0  0
  190.3880  172.2160  144.4840 C   0  0  0  0  0  1  0  0  0  0  0  0
  192.6580  176.2840  142.7590 C   0  0  0  0  0  1  0  0  0  0  0  0
  193.1960  176.8580  143.9180 O   0  0  0  0  0  0  0  0  0  0  0  0
  190.4990  175.7460  145.6710 C   0  0  0  0  0  2  0  0  0  0  0  0
  189.8110  175.9850  147.0080 C   0  0  0  0  0  2  0  0  0  0  0  0
  188.4000  175.6130  146.9510 N   0  0  0  0  0  2  0  0  0  0  0  0
  183.8970  178.5210  143.9000 O   0  0  0  0  0  0  0  0  0  0  0  0
  184.9510  178.7080  142.9520 C   0  0  1  0  0  3  0  0  0  0  0  0
  187.3470  176.5080  146.5730 C   0  0  0  0  0  0  0  0  0  0  0  0
  186.4820  178.1750  145.0440 C   0  0  0  0  0  0  0  0  0  0  0  0
  187.4960  177.2890  145.4170 C   0  0  0  0  0  3  0  0  0  0  0  0
  185.1410  177.4800  146.9370 C   0  0  0  0  0  3  0  0  0  0  0  0
  186.1700  176.6190  147.3430 C   0  0  0  0  0  3  0  0  0  0  0  0
  184.1960  179.0430  145.1790 C   0  0  0  0  0  2  0  0  0  0  0  0
  185.3080  178.2560  145.7840 C   0  0  0  0  0  0  0  0  0  0  0  0
  186.6130  179.2080  143.5910 S   0  0  0  0  0  0  0  0  0  0  0  0
  185.1150  177.4500  142.1110 C   0  0  0  0  0  2  0  0  0  0  0  0
  186.5050  176.8350  142.2350 C   0  0  0  0  0  2  0  0  0  0  0  0
  187.1370  176.6010  140.8670 C   0  0  0  0  0  2  0  0  0  0  0  0
  188.8990  176.2160  142.3530 C   0  0  0  0  0  1  0  0  0  0  0  0
  188.4070  175.9010  141.0220 N   0  0  0  0  0  0  0  0  0  0  0  0
  188.1150  174.4720  141.0050 C   0  0  0  0  0  2  0  0  0  0  0  0
  188.2850  173.2640  138.7880 C   0  0  0  0  0  2  0  0  0  0  0  0
  190.4750  171.9780  138.3780 C   0  0  1  0  0  3  0  0  0  0  0  0
  190.9020  170.9520  137.5520 F   0  0  0  0  0  0  0  0  0  0  0  0
  189.2460  172.6580  137.7570 C   0  0  0  0  0  2  0  0  0  0  0  0
  189.7830  172.5850  140.7330 C   0  0  0  0  0  2  0  0  0  0  0  0
  189.0330  173.7330  140.0350 C   0  0  2  0  0  3  0  0  0  0  0  0
  191.2650  170.7720  140.2820 F   0  0  0  0  0  0  0  0  0  0  0  0
  190.1680  171.4450  139.7780 C   0  0  2  0  0  3  0  0  0  0  0  0
  1 30  1  0  0  0  0
  2 29  1  6  0  0  0
  2  1  1  0  0  0  0
  2  4  1  0  0  0  0
  4  3  1  0  0  0  0
  5  4  2  0  0  0  0
  6  5  1  1  0  0  0
  7 10  1  0  0  0  0
  8 12  1  6  0  0  0
  8  6  1  0  0  0  0
  8  7  1  0  0  0  0
 10  9  1  6  0  0  0
 11  6  1  0  0  0  0
 11 10  1  0  0  0  0
 11 14  1  1  0  0  0
 13 12  1  0  0  0  0
 15 14  1  0  0  0  0
 16 15  1  1  0  0  0
 17 16  1  0  0  0  0
 18 17  1  0  0  0  0
 19 17  2  0  0  0  0
 20 21  2  6  0  0  0
 20 24  1  0  0  0  0
 20 22  1  0  0  0  0
 22 25  1  0  0  0  0
 23 20  1  0  0  0  0
 24 25  1  0  0  0  0
 25 18  1  1  0  0  0
 26 16  1  0  0  0  0
 26 27  1  0  0  0  0
 28 29  1  0  0  0  0
 30 31  1  0  0  0  0
 32 31  1  0  0  0  0
 33 40  1  0  0  0  0
 34 43  1  1  0  0  0
 34 42  1  0  0  0  0
 34 33  1  0  0  0  0
 35 32  1  0  0  0  0
 35 39  1  0  0  0  0
 36 37  1  0  0  0  0
 36 41  2  0  0  0  0
 37 35  2  0  0  0  0
 38 39  2  0  0  0  0
 40 41  1  0  0  0  0
 41 38  1  0  0  0  0
 42 36  1  0  0  0  0
 43 44  1  0  0  0  0
 45 47  1  0  0  0  0
 45 44  1  0  0  0  0
 47 46  1  0  0  0  0
 48 47  1  0  0  0  0
 49 54  1  0  0  0  0
 50 51  1  6  0  0  0
 50 56  1  0  0  0  0
 52 50  1  0  0  0  0
 52 49  1  0  0  0  0
 54 53  1  0  0  0  0
 54 48  1  1  0  0  0
 56 55  1  1  0  0  0
 56 53  1  0  0  0  0
M  END
>  <MODEL>
5

>  <REMARK>
 VINA RESULT:      -5.5      1.878      2.073
  Name = 
  21 active torsions:
  status: ('A' for Active; 'I' for Inactive)
    1  A    between atoms: C_3  and  C_13
    2  A    between atoms: C_4  and  N_16
    3  A    between atoms: C_7  and  C_35
    4  A    between atoms: O_8  and  C_35
    5  A    between atoms: C_13  and  C_24
    6  A    between atoms: C_14  and  C_54
    7  A    between atoms: N_16  and  C_45
    8  A    between atoms: N_17  and  C_52
    9  A    between atoms: C_22  and  C_27
   10  A    between atoms: C_24  and  C_40
   11  A    between atoms: O_25  and  C_53
   12  A    between atoms: O_29  and  C_41
   13  A    between atoms: O_29  and  C_42
   14  A    between atoms: C_35  and  C_42
   15  A    between atoms: O_38  and  C_49
   16  A    between atoms: O_38  and  C_53
   17  A    between atoms: C_40  and  N_55
   18  A    between atoms: C_45  and  C_49
   19  A    between atoms: C_46  and  C_50
   20  A    between atoms: C_46  and  N_55
   21  A    between atoms: C_48  and  C_53
                            x       y       z     vdW  Elec       q    Type
                         _______ _______ _______ _____ _____    ______ ____

>  <TORSDO>
F 21

$$$$
=
 OpenBabel11062421173D

 56 60  0  0  1  0  0  0  0  0999 V2000
  187.6270  177.3790  146.0330 O   0  0  0  0  0  0  0  0  0  0  0  0
  187.1230  177.7100  144.7650 C   0  0  2  0  0  3  0  0  0  0  0  0
  189.5650  178.3470  144.2720 C   0  0  0  0  0  1  0  0  0  0  0  0
  188.2510  177.8420  143.7770 C   0  0  0  0  0  0  0  0  0  0  0  0
  188.1510  177.4840  142.4910 C   0  0  0  0  0  3  0  0  0  0  0  0
  186.9010  176.9170  141.8660 C   0  0  1  0  0  3  0  0  0  0  0  0
  185.9980  177.9730  139.8730 N   0  0  0  0  0  2  0  0  0  0  0  0
  186.0440  178.0540  141.3340 C   0  0  1  0  0  3  0  0  0  0  0  0
  186.5180  176.2240  138.2670 C   0  0  0  0  0  1  0  0  0  0  0  0
  187.0010  176.9950  139.4760 C   0  0  2  0  0  3  0  0  0  0  0  0
  187.2020  176.0630  140.6420 C   0  0  1  0  0  3  0  0  0  0  0  0
  184.6390  177.9400  141.8970 C   0  0  0  0  0  2  0  0  0  0  0  0
  183.6300  178.5860  140.9630 C   0  0  0  0  0  1  0  0  0  0  0  0
  188.5080  175.5610  140.6440 O   0  0  0  0  0  0  0  0  0  0  0  0
  188.4300  174.3280  141.2990 C   0  0  0  0  0  2  0  0  0  0  0  0
  188.3130  173.1960  140.2870 C   0  0  1  0  0  3  0  0  0  0  0  0
  189.6640  172.5960  140.0150 C   0  0  0  0  0  0  0  0  0  0  0  0
  189.8380  171.7430  138.8850 N   0  0  0  0  0  2  0  0  0  0  0  0
  190.6460  172.8910  140.7490 O   0  0  0  0  0  0  0  0  0  0  0  0
  191.6280  171.3380  135.9410 P   0  0  1  0  0  0  0  0  0  0  0  0
  193.0840  170.8020  135.2680 O   0  0  0  0  0  1  0  0  0  0  0  0
  191.8750  172.7720  137.4450 S   0  0  0  0  0  0  0  0  0  0  0  0
  190.5830  171.7180  134.9140 O   0  0  0  0  0  0  0  0  0  0  0  0
  191.0150  170.3200  137.2880 C   0  0  0  0  0  2  0  0  0  0  0  0
  191.1570  171.3680  138.4000 C   0  0  2  0  0  3  0  0  0  0  0  0
  187.4270  172.2240  140.7640 O   0  0  0  0  0  0  0  0  0  0  0  0
  187.3990  172.4030  142.1500 C   0  0  0  0  0  1  0  0  0  0  0  0
  185.3430  178.6260  145.7270 C   0  0  0  0  0  1  0  0  0  0  0  0
  186.3690  178.8930  144.8130 O   0  0  0  0  0  0  0  0  0  0  0  0
  187.5310  175.9850  146.1460 C   0  0  0  0  0  2  0  0  0  0  0  0
  188.7340  175.4150  146.8850 C   0  0  0  0  0  2  0  0  0  0  0  0
  189.5200  174.5380  146.0220 N   0  0  0  0  0  2  0  0  0  0  0  0
  195.2400  175.1090  143.7860 O   0  0  0  0  0  0  0  0  0  0  0  0
  195.5290  175.3340  145.1690 C   0  0  1  0  0  3  0  0  0  0  0  0
  190.6770  174.9580  145.2890 C   0  0  0  0  0  0  0  0  0  0  0  0
  192.9330  175.8380  145.2890 C   0  0  0  0  0  0  0  0  0  0  0  0
  191.8030  175.4140  145.9920 C   0  0  0  0  0  3  0  0  0  0  0  0
  191.8560  175.3130  143.1850 C   0  0  0  0  0  3  0  0  0  0  0  0
  190.7020  174.9250  143.8790 C   0  0  0  0  0  3  0  0  0  0  0  0
  194.2910  176.0130  143.2580 C   0  0  0  0  0  2  0  0  0  0  0  0
  192.9680  175.7700  143.9010 C   0  0  0  0  0  0  0  0  0  0  0  0
  194.3960  176.4420  146.1210 S   0  0  0  0  0  0  0  0  0  0  0  0
  195.6260  174.0010  145.8960 C   0  0  0  0  0  2  0  0  0  0  0  0
  197.0660  173.5360  146.0840 C   0  0  0  0  0  2  0  0  0  0  0  0
  197.5950  172.8330  144.8380 C   0  0  0  0  0  2  0  0  0  0  0  0
  196.8150  171.0980  146.1950 C   0  0  0  0  0  1  0  0  0  0  0  0
  197.7070  171.4010  145.0880 N   0  0  0  0  0  0  0  0  0  0  0  0
  197.1770  170.7160  143.9150 C   0  0  0  0  0  2  0  0  0  0  0  0
  194.7910  171.2310  143.2480 C   0  0  0  0  0  2  0  0  0  0  0  0
  194.5040  172.9330  141.3400 C   0  0  1  0  0  3  0  0  0  0  0  0
  193.5130  173.2760  140.4360 F   0  0  0  0  0  0  0  0  0  0  0  0
  193.8690  172.2460  142.5590 C   0  0  0  0  0  2  0  0  0  0  0  0
  196.7030  171.7230  141.6400 C   0  0  0  0  0  2  0  0  0  0  0  0
  196.2600  171.6320  143.1090 C   0  0  2  0  0  3  0  0  0  0  0  0
  196.0470  172.6450  139.5410 F   0  0  0  0  0  0  0  0  0  0  0  0
  195.5480  172.0360  140.6760 C   0  0  2  0  0  3  0  0  0  0  0  0
  1 30  1  0  0  0  0
  2  4  1  6  0  0  0
  2 29  1  0  0  0  0
  2  1  1  0  0  0  0
  4  3  1  0  0  0  0
  5  4  2  0  0  0  0
  6  5  1  6  0  0  0
  7  8  1  0  0  0  0
  8  6  1  0  0  0  0
  8 12  1  1  0  0  0
 10  9  1  6  0  0  0
 10  7  1  0  0  0  0
 10 11  1  0  0  0  0
 11 14  1  1  0  0  0
 11  6  1  0  0  0  0
 13 12  1  0  0  0  0
 14 15  1  0  0  0  0
 16 26  1  0  0  0  0
 16 15  1  1  0  0  0
 17 16  1  0  0  0  0
 17 19  2  0  0  0  0
 18 17  1  0  0  0  0
 20 23  2  6  0  0  0
 20 24  1  0  0  0  0
 20 22  1  0  0  0  0
 21 20  1  0  0  0  0
 22 25  1  0  0  0  0
 24 25  1  0  0  0  0
 25 18  1  6  0  0  0
 26 27  1  0  0  0  0
 29 28  1  0  0  0  0
 30 31  1  0  0  0  0
 32 31  1  0  0  0  0
 33 34  1  0  0  0  0
 34 43  1  1  0  0  0
 34 42  1  0  0  0  0
 35 37  1  0  0  0  0
 35 32  1  0  0  0  0
 36 37  2  0  0  0  0
 36 42  1  0  0  0  0
 38 39  1  0  0  0  0
 38 41  2  0  0  0  0
 39 35  2  0  0  0  0
 40 33  1  0  0  0  0
 40 41  1  0  0  0  0
 41 36  1  0  0  0  0
 43 44  1  0  0  0  0
 45 47  1  0  0  0  0
 45 44  1  0  0  0  0
 47 46  1  0  0  0  0
 48 47  1  0  0  0  0
 50 51  1  6  0  0  0
 50 52  1  0  0  0  0
 52 49  1  0  0  0  0
 53 54  1  0  0  0  0
 54 49  1  0  0  0  0
 54 48  1  1  0  0  0
 56 55  1  6  0  0  0
 56 50  1  0  0  0  0
 56 53  1  0  0  0  0
M  END
>  <MODEL>
6

>  <REMARK>
 VINA RESULT:      -5.4      2.922      8.174
  Name = 
  21 active torsions:
  status: ('A' for Active; 'I' for Inactive)
    1  A    between atoms: C_3  and  C_13
    2  A    between atoms: C_4  and  N_16
    3  A    between atoms: C_7  and  C_35
    4  A    between atoms: O_8  and  C_35
    5  A    between atoms: C_13  and  C_24
    6  A    between atoms: C_14  and  C_54
    7  A    between atoms: N_16  and  C_45
    8  A    between atoms: N_17  and  C_52
    9  A    between atoms: C_22  and  C_27
   10  A    between atoms: C_24  and  C_40
   11  A    between atoms: O_25  and  C_53
   12  A    between atoms: O_29  and  C_41
   13  A    between atoms: O_29  and  C_42
   14  A    between atoms: C_35  and  C_42
   15  A    between atoms: O_38  and  C_49
   16  A    between atoms: O_38  and  C_53
   17  A    between atoms: C_40  and  N_55
   18  A    between atoms: C_45  and  C_49
   19  A    between atoms: C_46  and  C_50
   20  A    between atoms: C_46  and  N_55
   21  A    between atoms: C_48  and  C_53
                            x       y       z     vdW  Elec       q    Type
                         _______ _______ _______ _____ _____    ______ ____

>  <TORSDO>
F 21

$$$$
=
 OpenBabel11062421173D

 56 60  0  0  1  0  0  0  0  0999 V2000
  192.2000  172.2130  143.9710 O   0  0  0  0  0  0  0  0  0  0  0  0
  191.1070  171.9070  143.1440 C   0  0  2  0  0  3  0  0  0  0  0  0
  189.3120  171.6060  144.9610 C   0  0  0  0  0  1  0  0  0  0  0  0
  189.8260  172.3690  143.7870 C   0  0  0  0  0  0  0  0  0  0  0  0
  189.1520  173.4560  143.3910 C   0  0  0  0  0  3  0  0  0  0  0  0
  189.5790  174.3470  142.2510 C   0  0  1  0  0  3  0  0  0  0  0  0
  188.1520  176.2070  141.6120 N   0  0  0  0  0  2  0  0  0  0  0  0
  188.3540  174.7650  141.4530 C   0  0  1  0  0  3  0  0  0  0  0  0
  189.5630  178.0300  142.3840 C   0  0  0  0  0  1  0  0  0  0  0  0
  189.0420  176.6390  142.6800 C   0  0  2  0  0  3  0  0  0  0  0  0
  190.1840  175.6570  142.7360 C   0  0  1  0  0  3  0  0  0  0  0  0
  188.5640  174.4380  139.9860 C   0  0  0  0  0  2  0  0  0  0  0  0
  189.0020  172.9940  139.8140 C   0  0  0  0  0  1  0  0  0  0  0  0
  190.6860  175.5690  144.0380 O   0  0  0  0  0  0  0  0  0  0  0  0
  190.5870  176.8620  144.5610 C   0  0  0  0  0  2  0  0  0  0  0  0
  190.4260  176.8100  146.0750 C   0  0  1  0  0  3  0  0  0  0  0  0
  189.0010  176.5040  146.4390 C   0  0  0  0  0  0  0  0  0  0  0  0
  188.0840  177.5760  146.6490 N   0  0  0  0  0  2  0  0  0  0  0  0
  188.6070  175.3070  146.5030 O   0  0  0  0  0  0  0  0  0  0  0  0
  185.0900  178.8840  145.4820 P   0  0  1  0  0  0  0  0  0  0  0  0
  183.4050  178.7960  145.5890 O   0  0  0  0  0  1  0  0  0  0  0  0
  186.0000  177.0590  145.0150 S   0  0  0  0  0  0  0  0  0  0  0  0
  185.5900  180.0380  144.6390 O   0  0  0  0  0  0  0  0  0  0  0  0
  185.9440  178.6820  147.0490 C   0  0  0  0  0  2  0  0  0  0  0  0
  186.6470  177.3600  146.7140 C   0  0  2  0  0  3  0  0  0  0  0  0
  191.2910  175.8490  146.6110 O   0  0  0  0  0  0  0  0  0  0  0  0
  191.5610  176.2840  147.9120 C   0  0  0  0  0  1  0  0  0  0  0  0
  190.8000  170.4570  141.4900 C   0  0  0  0  0  1  0  0  0  0  0  0
  191.0500  170.5330  142.8660 O   0  0  0  0  0  0  0  0  0  0  0  0
  192.7280  170.9870  144.3990 C   0  0  0  0  0  2  0  0  0  0  0  0
  194.2510  171.0070  144.3590 C   0  0  0  0  0  2  0  0  0  0  0  0
  194.7900  172.0410  145.2370 N   0  0  0  0  0  2  0  0  0  0  0  0
  196.4910  176.9210  141.8710 O   0  0  0  0  0  0  0  0  0  0  0  0
  196.8710  175.8900  140.9560 C   0  0  1  0  0  3  0  0  0  0  0  0
  195.4110  173.2470  144.7740 C   0  0  0  0  0  0  0  0  0  0  0  0
  196.7790  174.3840  143.1310 C   0  0  0  0  0  0  0  0  0  0  0  0
  196.1580  173.2180  143.5870 C   0  0  0  0  0  3  0  0  0  0  0  0
  195.8780  175.6280  145.0020 C   0  0  0  0  0  3  0  0  0  0  0  0
  195.2860  174.4550  145.4900 C   0  0  0  0  0  3  0  0  0  0  0  0
  197.1170  176.8090  143.1330 C   0  0  0  0  0  2  0  0  0  0  0  0
  196.6250  175.5810  143.8200 C   0  0  0  0  0  0  0  0  0  0  0  0
  197.7560  174.4140  141.6340 S   0  0  0  0  0  0  0  0  0  0  0  0
  195.6490  175.4100  140.1870 C   0  0  0  0  0  2  0  0  0  0  0  0
  195.9980  174.8710  138.8040 C   0  0  0  0  0  2  0  0  0  0  0  0
  194.8010  174.1850  138.1520 C   0  0  0  0  0  2  0  0  0  0  0  0
  195.5760  175.6950  136.5450 C   0  0  0  0  0  1  0  0  0  0  0  0
  194.4260  174.8960  136.9350 N   0  0  0  0  0  0  0  0  0  0  0  0
  194.2320  173.8930  135.8940 C   0  0  0  0  0  2  0  0  0  0  0  0
  191.8580  174.3880  136.6160 C   0  0  0  0  0  2  0  0  0  0  0  0
  190.1250  172.5580  136.0980 C   0  0  1  0  0  3  0  0  0  0  0  0
  188.8660  172.2040  136.5520 F   0  0  0  0  0  0  0  0  0  0  0  0
  190.3790  174.0430  136.3960 C   0  0  0  0  0  2  0  0  0  0  0  0
  192.5870  171.9870  136.1740 C   0  0  0  0  0  2  0  0  0  0  0  0
  192.7690  173.4680  135.8020 C   0  0  2  0  0  3  0  0  0  0  0  0
  190.9000  170.3380  136.5190 F   0  0  0  0  0  0  0  0  0  0  0  0
  191.1940  171.6710  136.7380 C   0  0  2  0  0  3  0  0  0  0  0  0
  1 30  1  0  0  0  0
  2 29  1  1  0  0  0
  2  4  1  0  0  0  0
  2  1  1  0  0  0  0
  4  3  1  0  0  0  0
  5  4  2  0  0  0  0
  6 11  1  0  0  0  0
  6  5  1  1  0  0  0
  7 10  1  0  0  0  0
  8 12  1  6  0  0  0
  8  7  1  0  0  0  0
  8  6  1  0  0  0  0
 10  9  1  6  0  0  0
 10 11  1  0  0  0  0
 11 14  1  1  0  0  0
 13 12  1  0  0  0  0
 14 15  1  0  0  0  0
 16 15  1  6  0  0  0
 16 17  1  0  0  0  0
 16 26  1  0  0  0  0
 17 19  2  0  0  0  0
 17 18  1  0  0  0  0
 20 23  2  6  0  0  0
 20 21  1  0  0  0  0
 20 24  1  0  0  0  0
 22 20  1  0  0  0  0
 22 25  1  0  0  0  0
 25 18  1  6  0  0  0
 25 24  1  0  0  0  0
 26 27  1  0  0  0  0
 28 29  1  0  0  0  0
 31 30  1  0  0  0  0
 31 32  1  0  0  0  0
 33 40  1  0  0  0  0
 34 43  1  1  0  0  0
 34 42  1  0  0  0  0
 34 33  1  0  0  0  0
 35 32  1  0  0  0  0
 35 39  1  0  0  0  0
 36 37  1  0  0  0  0
 36 41  2  0  0  0  0
 37 35  2  0  0  0  0
 38 39  2  0  0  0  0
 40 41  1  0  0  0  0
 41 38  1  0  0  0  0
 42 36  1  0  0  0  0
 44 43  1  0  0  0  0
 45 44  1  0  0  0  0
 46 47  1  0  0  0  0
 47 45  1  0  0  0  0
 48 47  1  0  0  0  0
 50 52  1  0  0  0  0
 50 51  1  1  0  0  0
 50 56  1  0  0  0  0
 52 49  1  0  0  0  0
 53 56  1  0  0  0  0
 54 48  1  1  0  0  0
 54 53  1  0  0  0  0
 54 49  1  0  0  0  0
 56 55  1  6  0  0  0
M  END
>  <MODEL>
7

>  <REMARK>
 VINA RESULT:      -5.2      3.411      9.267
  Name = 
  21 active torsions:
  status: ('A' for Active; 'I' for Inactive)
    1  A    between atoms: C_3  and  C_13
    2  A    between atoms: C_4  and  N_16
    3  A    between atoms: C_7  and  C_35
    4  A    between atoms: O_8  and  C_35
    5  A    between atoms: C_13  and  C_24
    6  A    between atoms: C_14  and  C_54
    7  A    between atoms: N_16  and  C_45
    8  A    between atoms: N_17  and  C_52
    9  A    between atoms: C_22  and  C_27
   10  A    between atoms: C_24  and  C_40
   11  A    between atoms: O_25  and  C_53
   12  A    between atoms: O_29  and  C_41
   13  A    between atoms: O_29  and  C_42
   14  A    between atoms: C_35  and  C_42
   15  A    between atoms: O_38  and  C_49
   16  A    between atoms: O_38  and  C_53
   17  A    between atoms: C_40  and  N_55
   18  A    between atoms: C_45  and  C_49
   19  A    between atoms: C_46  and  C_50
   20  A    between atoms: C_46  and  N_55
   21  A    between atoms: C_48  and  C_53
                            x       y       z     vdW  Elec       q    Type
                         _______ _______ _______ _____ _____    ______ ____

>  <TORSDO>
F 21

$$$$
=
 OpenBabel11062421173D

 56 60  0  0  1  0  0  0  0  0999 V2000
  195.9630  173.8110  142.3730 O   0  0  0  0  0  0  0  0  0  0  0  0
  195.6810  174.7360  143.3900 C   0  0  2  0  0  3  0  0  0  0  0  0
  196.1140  174.2440  145.8760 C   0  0  0  0  0  1  0  0  0  0  0  0
  195.2920  174.0160  144.6530 C   0  0  0  0  0  0  0  0  0  0  0  0
  194.2180  173.2200  144.7480 C   0  0  0  0  0  3  0  0  0  0  0  0
  193.2730  172.9370  143.6070 C   0  0  1  0  0  3  0  0  0  0  0  0
  191.6720  171.1230  143.8290 N   0  0  0  0  0  2  0  0  0  0  0  0
  193.0620  171.4360  143.4910 C   0  0  1  0  0  3  0  0  0  0  0  0
  189.6420  172.4490  144.0020 C   0  0  0  0  0  1  0  0  0  0  0  0
  191.0980  172.3330  144.4010 C   0  0  2  0  0  3  0  0  0  0  0  0
  191.8810  173.4990  143.8570 C   0  0  1  0  0  3  0  0  0  0  0  0
  193.3550  170.9880  142.0710 C   0  0  0  0  0  2  0  0  0  0  0  0
  192.7420  169.6250  141.7980 C   0  0  0  0  0  1  0  0  0  0  0  0
  191.8830  174.5540  144.7750 O   0  0  0  0  0  0  0  0  0  0  0  0
  190.6590  174.4640  145.4450 C   0  0  0  0  0  2  0  0  0  0  0  0
  190.5050  175.6180  146.4270 C   0  0  1  0  0  3  0  0  0  0  0  0
  189.1030  175.6650  146.9640 C   0  0  0  0  0  0  0  0  0  0  0  0
  188.2870  176.8040  146.6950 N   0  0  0  0  0  2  0  0  0  0  0  0
  188.6350  174.6810  147.5980 O   0  0  0  0  0  0  0  0  0  0  0  0
  185.3960  178.5350  145.8690 P   0  0  1  0  0  0  0  0  0  0  0  0
  183.7390  178.6870  146.1700 O   0  0  0  0  0  1  0  0  0  0  0  0
  185.9760  176.6040  145.3150 S   0  0  0  0  0  0  0  0  0  0  0  0
  185.9550  179.6140  144.9650 O   0  0  0  0  0  0  0  0  0  0  0  0
  186.3870  178.2000  147.3300 C   0  0  0  0  0  2  0  0  0  0  0  0
  186.8500  176.7940  146.9260 C   0  0  2  0  0  3  0  0  0  0  0  0
  191.4290  175.4780  147.4690 O   0  0  0  0  0  0  0  0  0  0  0  0
  191.4990  176.7400  148.0680 C   0  0  0  0  0  1  0  0  0  0  0  0
  194.9270  176.8000  143.7190 C   0  0  0  0  0  1  0  0  0  0  0  0
  194.6680  175.6260  143.0000 O   0  0  0  0  0  0  0  0  0  0  0  0
  197.2580  174.1000  141.9210 C   0  0  0  0  0  2  0  0  0  0  0  0
  197.7120  173.0840  140.8820 C   0  0  0  0  0  2  0  0  0  0  0  0
  197.7960  173.6850  139.5540 N   0  0  0  0  0  2  0  0  0  0  0  0
  192.1710  173.5640  137.0240 O   0  0  0  0  0  0  0  0  0  0  0  0
  192.3130  172.1670  137.2950 C   0  0  1  0  0  3  0  0  0  0  0  0
  196.6830  173.8180  138.6600 C   0  0  0  0  0  0  0  0  0  0  0  0
  194.8830  172.7870  137.4110 C   0  0  0  0  0  0  0  0  0  0  0  0
  195.9620  172.6720  138.2920 C   0  0  0  0  0  3  0  0  0  0  0  0
  195.1970  175.1840  137.2940 C   0  0  0  0  0  3  0  0  0  0  0  0
  196.3070  175.0750  138.1440 C   0  0  0  0  0  3  0  0  0  0  0  0
  193.1950  174.0810  136.1990 C   0  0  0  0  0  2  0  0  0  0  0  0
  194.4920  174.0310  136.9320 C   0  0  0  0  0  0  0  0  0  0  0  0
  193.9300  171.3670  136.8910 S   0  0  0  0  0  0  0  0  0  0  0  0
  191.9870  171.8910  138.7550 C   0  0  0  0  0  2  0  0  0  0  0  0
  191.5830  173.1490  139.5170 C   0  0  0  0  0  2  0  0  0  0  0  0
  190.3260  172.9190  140.3510 C   0  0  0  0  0  2  0  0  0  0  0  0
  188.7470  173.4920  138.7280 C   0  0  0  0  0  1  0  0  0  0  0  0
  189.3130  173.9070  140.0000 N   0  0  0  0  0  0  0  0  0  0  0  0
  188.2490  173.8030  140.9930 C   0  0  0  0  0  2  0  0  0  0  0  0
  187.4370  176.1250  140.3990 C   0  0  0  0  0  2  0  0  0  0  0  0
  187.5350  177.8640  142.2930 C   0  0  1  0  0  3  0  0  0  0  0  0
  187.5390  179.2450  142.3940 F   0  0  0  0  0  0  0  0  0  0  0  0
  186.9010  177.4500  140.9560 C   0  0  0  0  0  2  0  0  0  0  0  0
  188.9570  175.7770  142.4130 C   0  0  0  0  0  2  0  0  0  0  0  0
  187.8540  175.1780  141.5250 C   0  0  2  0  0  3  0  0  0  0  0  0
  189.5290  177.7630  143.6030 F   0  0  0  0  0  0  0  0  0  0  0  0
  188.9550  177.3130  142.4290 C   0  0  2  0  0  3  0  0  0  0  0  0
  2  1  1  6  0  0  0
  2  4  1  0  0  0  0
  4  5  2  0  0  0  0
  4  3  1  0  0  0  0
  6 11  1  0  0  0  0
  6  5  1  1  0  0  0
  7 10  1  0  0  0  0
  8 12  1  6  0  0  0
  8  6  1  0  0  0  0
  8  7  1  0  0  0  0
 10  9  1  6  0  0  0
 11 10  1  0  0  0  0
 11 14  1  1  0  0  0
 13 12  1  0  0  0  0
 14 15  1  0  0  0  0
 16 15  1  6  0  0  0
 16 17  1  0  0  0  0
 16 26  1  0  0  0  0
 17 19  2  0  0  0  0
 18 17  1  0  0  0  0
 20 23  2  6  0  0  0
 20 21  1  0  0  0  0
 20 24  1  0  0  0  0
 22 20  1  0  0  0  0
 22 25  1  0  0  0  0
 25 18  1  6  0  0  0
 25 24  1  0  0  0  0
 26 27  1  0  0  0  0
 29  2  1  0  0  0  0
 29 28  1  0  0  0  0
 30  1  1  0  0  0  0
 31 30  1  0  0  0  0
 32 31  1  0  0  0  0
 33 34  1  0  0  0  0
 34 43  1  1  0  0  0
 35 32  1  0  0  0  0
 36 37  2  0  0  0  0
 37 35  1  0  0  0  0
 38 39  1  0  0  0  0
 39 35  2  0  0  0  0
 40 41  1  0  0  0  0
 40 33  1  0  0  0  0
 41 38  2  0  0  0  0
 41 36  1  0  0  0  0
 42 34  1  0  0  0  0
 42 36  1  0  0  0  0
 43 44  1  0  0  0  0
 44 45  1  0  0  0  0
 46 47  1  0  0  0  0
 47 45  1  0  0  0  0
 47 48  1  0  0  0  0
 49 52  1  0  0  0  0
 49 54  1  0  0  0  0
 50 51  1  6  0  0  0
 50 56  1  0  0  0  0
 52 50  1  0  0  0  0
 53 56  1  0  0  0  0
 54 48  1  6  0  0  0
 54 53  1  0  0  0  0
 56 55  1  1  0  0  0
M  END
>  <MODEL>
8

>  <REMARK>
 VINA RESULT:      -5.2      3.560      9.000
  Name = 
  21 active torsions:
  status: ('A' for Active; 'I' for Inactive)
    1  A    between atoms: C_3  and  C_13
    2  A    between atoms: C_4  and  N_16
    3  A    between atoms: C_7  and  C_35
    4  A    between atoms: O_8  and  C_35
    5  A    between atoms: C_13  and  C_24
    6  A    between atoms: C_14  and  C_54
    7  A    between atoms: N_16  and  C_45
    8  A    between atoms: N_17  and  C_52
    9  A    between atoms: C_22  and  C_27
   10  A    between atoms: C_24  and  C_40
   11  A    between atoms: O_25  and  C_53
   12  A    between atoms: O_29  and  C_41
   13  A    between atoms: O_29  and  C_42
   14  A    between atoms: C_35  and  C_42
   15  A    between atoms: O_38  and  C_49
   16  A    between atoms: O_38  and  C_53
   17  A    between atoms: C_40  and  N_55
   18  A    between atoms: C_45  and  C_49
   19  A    between atoms: C_46  and  C_50
   20  A    between atoms: C_46  and  N_55
   21  A    between atoms: C_48  and  C_53
                            x       y       z     vdW  Elec       q    Type
                         _______ _______ _______ _____ _____    ______ ____

>  <TORSDO>
F 21

$$$$
=
 OpenBabel11062421173D

 56 60  0  0  1  0  0  0  0  0999 V2000
  188.3030  176.9390  146.8410 O   0  0  0  0  0  0  0  0  0  0  0  0
  187.7330  177.5160  145.6950 C   0  0  2  0  0  3  0  0  0  0  0  0
  190.1880  177.9390  145.0620 C   0  0  0  0  0  1  0  0  0  0  0  0
  188.7820  177.6980  144.6300 C   0  0  0  0  0  0  0  0  0  0  0  0
  188.5260  177.6050  143.3190 C   0  0  0  0  0  3  0  0  0  0  0  0
  187.1620  177.3190  142.7420 C   0  0  1  0  0  3  0  0  0  0  0  0
  186.3630  178.6670  140.8860 N   0  0  0  0  0  2  0  0  0  0  0  0
  186.5000  178.6280  142.3430 C   0  0  1  0  0  3  0  0  0  0  0  0
  186.4690  176.9800  139.1380 C   0  0  0  0  0  1  0  0  0  0  0  0
  187.1490  177.5590  140.3610 C   0  0  2  0  0  3  0  0  0  0  0  0
  187.2370  176.5200  141.4490 C   0  0  1  0  0  3  0  0  0  0  0  0
  185.1290  178.7250  142.9870 C   0  0  0  0  0  2  0  0  0  0  0  0
  184.4710  177.3580  143.0600 C   0  0  0  0  0  1  0  0  0  0  0  0
  188.4270  175.7940  141.3320 O   0  0  0  0  0  0  0  0  0  0  0  0
  188.1560  174.5460  141.9020 C   0  0  0  0  0  2  0  0  0  0  0  0
  187.8690  173.5180  140.8160 C   0  0  1  0  0  3  0  0  0  0  0  0
  188.7690  173.7400  139.6340 C   0  0  0  0  0  0  0  0  0  0  0  0
  190.1810  173.6120  139.7940 N   0  0  0  0  0  2  0  0  0  0  0  0
  188.2760  173.9830  138.5000 O   0  0  0  0  0  0  0  0  0  0  0  0
  192.8070  171.7150  138.5510 P   0  0  1  0  0  0  0  0  0  0  0  0
  193.9770  171.5970  137.3360 O   0  0  0  0  0  0  0  0  0  0  0  0
  190.8540  171.8950  137.8230 S   0  0  0  0  0  0  0  0  0  0  0  0
  192.9490  170.6720  139.6400 O   0  0  0  0  0  1  0  0  0  0  0  0
  192.5260  173.3850  139.1510 C   0  0  0  0  0  2  0  0  0  0  0  0
  191.0810  173.5250  138.6540 C   0  0  2  0  0  3  0  0  0  0  0  0
  188.0380  172.2270  141.3300 O   0  0  0  0  0  0  0  0  0  0  0  0
  187.7950  172.3450  142.7020 C   0  0  0  0  0  1  0  0  0  0  0  0
  186.0810  178.4140  146.8770 C   0  0  0  0  0  1  0  0  0  0  0  0
  187.1190  178.7410  145.9960 O   0  0  0  0  0  0  0  0  0  0  0  0
  188.1110  175.5550  146.7260 C   0  0  0  0  0  2  0  0  0  0  0  0
  189.2790  174.7910  147.3350 C   0  0  0  0  0  2  0  0  0  0  0  0
  189.9450  173.9580  146.3390 N   0  0  0  0  0  2  0  0  0  0  0  0
  195.3300  175.0010  143.5170 O   0  0  0  0  0  0  0  0  0  0  0  0
  195.6830  175.4600  144.8250 C   0  0  1  0  0  3  0  0  0  0  0  0
  190.9670  174.4270  145.4510 C   0  0  0  0  0  0  0  0  0  0  0  0
  193.0570  175.6060  145.1230 C   0  0  0  0  0  0  0  0  0  0  0  0
  192.0590  175.1330  145.9790 C   0  0  0  0  0  3  0  0  0  0  0  0
  191.9190  174.6390  143.2170 C   0  0  0  0  0  3  0  0  0  0  0  0
  190.8920  174.1950  144.0620 C   0  0  0  0  0  3  0  0  0  0  0  0
  194.2180  175.6780  142.9680 C   0  0  0  0  0  2  0  0  0  0  0  0
  192.9990  175.3460  143.7590 C   0  0  0  0  0  0  0  0  0  0  0  0
  194.4670  176.5230  145.7270 S   0  0  0  0  0  0  0  0  0  0  0  0
  196.0360  174.2720  145.7090 C   0  0  0  0  0  2  0  0  0  0  0  0
  197.4740  173.8040  145.5200 C   0  0  0  0  0  2  0  0  0  0  0  0
  197.6560  173.0730  144.1930 C   0  0  0  0  0  2  0  0  0  0  0  0
  197.3570  171.3430  145.7340 C   0  0  0  0  0  1  0  0  0  0  0  0
  197.9340  171.6630  144.4400 N   0  0  0  0  0  0  0  0  0  0  0  0
  197.1940  170.8980  143.4430 C   0  0  0  0  0  2  0  0  0  0  0  0
  195.8530  168.7840  143.8110 C   0  0  0  0  0  2  0  0  0  0  0  0
  193.4550  169.1160  144.6830 C   0  0  1  0  0  3  0  0  0  0  0  0
  192.2840  168.3790  144.7180 F   0  0  0  0  0  0  0  0  0  0  0  0
  194.6540  168.1670  144.5440 C   0  0  0  0  0  2  0  0  0  0  0  0
  194.6660  171.0220  143.5460 C   0  0  0  0  0  2  0  0  0  0  0  0
  195.9260  170.2940  144.0410 C   0  0  2  0  0  3  0  0  0  0  0  0
  192.2850  170.9220  143.6470 F   0  0  0  0  0  0  0  0  0  0  0  0
  193.4140  170.1320  143.5400 C   0  0  2  0  0  3  0  0  0  0  0  0
  2  4  1  6  0  0  0
  2 29  1  0  0  0  0
  2  1  1  0  0  0  0
  4  3  1  0  0  0  0
  5  4  2  0  0  0  0
  6  5  1  6  0  0  0
  7  8  1  0  0  0  0
  8  6  1  0  0  0  0
  8 12  1  1  0  0  0
 10  9  1  6  0  0  0
 10  7  1  0  0  0  0
 10 11  1  0  0  0  0
 11 14  1  1  0  0  0
 11  6  1  0  0  0  0
 12 13  1  0  0  0  0
 14 15  1  0  0  0  0
 16 26  1  0  0  0  0
 16 15  1  1  0  0  0
 17 18  1  0  0  0  0
 17 16  1  0  0  0  0
 19 17  2  0  0  0  0
 20 21  2  6  0  0  0
 20 24  1  0  0  0  0
 20 23  1  0  0  0  0
 22 20  1  0  0  0  0
 22 25  1  0  0  0  0
 25 24  1  0  0  0  0
 25 18  1  1  0  0  0
 26 27  1  0  0  0  0
 29 28  1  0  0  0  0
 30  1  1  0  0  0  0
 30 31  1  0  0  0  0
 32 31  1  0  0  0  0
 33 34  1  0  0  0  0
 34 43  1  1  0  0  0
 34 42  1  0  0  0  0
 35 37  1  0  0  0  0
 35 32  1  0  0  0  0
 36 42  1  0  0  0  0
 36 37  2  0  0  0  0
 38 41  2  0  0  0  0
 38 39  1  0  0  0  0
 39 35  2  0  0  0  0
 40 33  1  0  0  0  0
 40 41  1  0  0  0  0
 41 36  1  0  0  0  0
 44 43  1  0  0  0  0
 45 47  1  0  0  0  0
 45 44  1  0  0  0  0
 47 46  1  0  0  0  0
 48 47  1  0  0  0  0
 49 54  1  0  0  0  0
 49 52  1  0  0  0  0
 50 51  1  6  0  0  0
 52 50  1  0  0  0  0
 53 54  1  0  0  0  0
 54 48  1  6  0  0  0
 56 53  1  0  0  0  0
 56 55  1  1  0  0  0
 56 50  1  0  0  0  0
M  END
>  <MODEL>
9

>  <REMARK>
 VINA RESULT:      -5.2      2.679      8.198
  Name = 
  21 active torsions:
  status: ('A' for Active; 'I' for Inactive)
    1  A    between atoms: C_3  and  C_13
    2  A    between atoms: C_4  and  N_16
    3  A    between atoms: C_7  and  C_35
    4  A    between atoms: O_8  and  C_35
    5  A    between atoms: C_13  and  C_24
    6  A    between atoms: C_14  and  C_54
    7  A    between atoms: N_16  and  C_45
    8  A    between atoms: N_17  and  C_52
    9  A    between atoms: C_22  and  C_27
   10  A    between atoms: C_24  and  C_40
   11  A    between atoms: O_25  and  C_53
   12  A    between atoms: O_29  and  C_41
   13  A    between atoms: O_29  and  C_42
   14  A    between atoms: C_35  and  C_42
   15  A    between atoms: O_38  and  C_49
   16  A    between atoms: O_38  and  C_53
   17  A    between atoms: C_40  and  N_55
   18  A    between atoms: C_45  and  C_49
   19  A    between atoms: C_46  and  C_50
   20  A    between atoms: C_46  and  N_55
   21  A    between atoms: C_48  and  C_53
                            x       y       z     vdW  Elec       q    Type
                         _______ _______ _______ _____ _____    ______ ____

>  <TORSDO>
F 21

$$$$
