=
 OpenBabel11062418483D

 37 41  0  0  1  0  0  0  0  0999 V2000
  191.5790  175.2000  142.1820 C   0  0  2  0  0  3  0  0  0  0  0  0
  193.5880  176.5170  146.5170 C   0  0  0  0  0  2  0  0  0  0  0  0
  192.8440  175.4410  142.9990 C   0  0  1  0  0  3  0  0  0  0  0  0
  192.5910  176.4600  144.0980 C   0  0  0  0  0  2  0  0  0  0  0  0
  193.8390  174.4930  144.8280 C   0  0  2  0  0  3  0  0  0  0  0  0
  193.3430  174.2230  143.5350 O   0  0  0  0  0  0  0  0  0  0  0  0
  192.4530  175.7070  146.3300 O   0  0  0  0  0  0  0  0  0  0  0  0
  193.3190  175.8420  145.2290 C   0  0  1  0  0  0  0  0  0  0  0  0
  197.3580  174.9520  144.1770 N   0  0  0  0  0  0  0  0  0  0  0  0
  195.3360  174.4470  144.8330 C   0  0  0  0  0  0  0  0  0  0  0  0
  197.5010  174.0430  145.3070 C   0  0  0  0  0  2  0  0  0  0  0  0
  196.0810  173.7600  145.6850 C   0  0  0  0  0  3  0  0  0  0  0  0
  196.1370  175.1690  143.9180 N   0  0  0  0  0  0  0  0  0  0  0  0
  189.7150  176.6600  142.1120 N   0  0  0  0  0  0  0  0  0  0  0  0
  190.4400  175.8680  142.7940 N   0  0  0  0  0  0  0  0  0  0  0  0
  186.4030  178.6280  143.8580 C   0  0  0  0  0  3  0  0  0  0  0  0
  188.5900  177.3280  142.6860 C   0  0  0  0  0  0  0  0  0  0  0  0
  188.4170  177.3020  144.0740 C   0  0  0  0  0  3  0  0  0  0  0  0
  186.5690  178.6570  142.4710 C   0  0  0  0  0  3  0  0  0  0  0  0
  187.6600  178.0090  141.8860 C   0  0  0  0  0  3  0  0  0  0  0  0
  187.3280  177.9500  144.6660 C   0  0  0  0  0  0  0  0  0  0  0  0
  187.1760  177.8980  146.1590 C   0  0  1  0  0  3  0  0  0  0  0  0
  185.7890  177.5180  146.5910 C   0  0  0  0  0  0  0  0  0  0  0  0
  185.2750  176.4770  146.2100 O   0  0  0  0  0  0  0  0  0  0  0  0
  185.0240  178.4320  147.4850 C   0  0  0  0  0  1  0  0  0  0  0  0
  188.2330  177.0710  146.8250 C   0  0  0  0  0  0  0  0  0  0  0  0
  189.3070  177.6050  147.2220 O   0  0  0  0  0  0  0  0  0  0  0  0
  189.0800  174.8040  147.2660 C   0  0  0  0  0  1  0  0  0  0  0  0
  188.0160  175.7030  146.9920 O   0  0  0  0  0  0  0  0  0  0  0  0
  191.3320  173.8260  142.0940 O   0  0  0  0  0  0  0  0  0  0  0  0
  190.4610  172.1750  138.9710 C   0  0  0  0  0  1  0  0  0  0  0  0
  190.5520  173.6730  140.9440 C   0  0  1  0  0  3  0  0  0  0  0  0
  188.2580  172.9980  140.3830 O   0  0  0  0  0  1  0  0  0  0  0  0
  190.6150  172.2160  140.4840 C   0  0  1  0  0  3  0  0  0  0  0  0
  189.3730  172.7440  141.1860 C   0  0  1  0  0  0  0  0  0  0  0  0
  188.9390  171.8720  143.6250 N   0  0  0  0  0  0  0  0  0  0  0  0
  189.1260  172.2550  142.5490 C   0  0  0  0  0  0  0  0  0  0  0  0
  1 30  1  1  0  0  0
  1 15  1  0  0  0  0
  3  1  1  1  0  0  0
  3  6  1  0  0  0  0
  3  4  1  0  0  0  0
  5 10  1  6  0  0  0
  5  8  1  0  0  0  0
  6  5  1  0  0  0  0
  7  2  1  0  0  0  0
  8  4  1  6  0  0  0
  8  7  1  0  0  0  0
  8  2  1  0  0  0  0
  9 11  1  0  0  0  0
 10 12  2  0  0  0  0
 11 12  1  0  0  0  0
 13  9  2  0  0  0  0
 13 10  1  0  0  0  0
 14 17  1  0  0  0  0
 14 15  2  0  0  0  0
 16 21  1  0  0  0  0
 17 18  1  0  0  0  0
 18 21  2  0  0  0  0
 19 16  2  0  0  0  0
 20 19  1  0  0  0  0
 20 17  2  0  0  0  0
 21 22  1  0  0  0  0
 22 23  1  6  0  0  0
 22 26  1  0  0  0  0
 23 25  1  0  0  0  0
 24 23  2  0  0  0  0
 26 29  1  0  0  0  0
 26 27  2  0  0  0  0
 29 28  1  0  0  0  0
 32 35  1  0  0  0  0
 32 30  1  1  0  0  0
 34 31  1  6  0  0  0
 34 32  1  0  0  0  0
 34 35  1  0  0  0  0
 35 33  1  6  0  0  0
 35 37  1  0  0  0  0
 37 36  3  0  0  0  0
M  END
>  <MODEL>
1

>  <REMARK>
 VINA RESULT:      -7.0      0.000      0.000
  Name = 
  11 active torsions:
  status: ('A' for Active; 'I' for Inactive)
    1  A    between atoms: C_3  and  C_12
    2  A    between atoms: C_5  and  C_11
    3  A    between atoms: O_7  and  C_29
    4  A    between atoms: C_8  and  N_25
    5  A    between atoms: C_11  and  O_23
    6  A    between atoms: C_11  and  N_26
    7  A    between atoms: C_12  and  C_29
    8  A    between atoms: C_12  and  C_30
    9  A    between atoms: C_13  and  C_18
   10  A    between atoms: C_16  and  O_23
   11  A    between atoms: C_33  and  C_35
                            x       y       z     vdW  Elec       q    Type
                         _______ _______ _______ _____ _____    ______ ____

>  <TORSDO>
F 11

$$$$
=
 OpenBabel11062418483D

 37 41  0  0  1  0  0  0  0  0999 V2000
  191.6840  175.0810  142.5600 C   0  0  2  0  0  3  0  0  0  0  0  0
  194.1110  176.6870  146.5720 C   0  0  0  0  0  2  0  0  0  0  0  0
  193.0050  175.1840  143.3150 C   0  0  1  0  0  3  0  0  0  0  0  0
  193.0220  176.4140  144.2080 C   0  0  0  0  0  2  0  0  0  0  0  0
  193.8510  174.3880  145.2860 C   0  0  2  0  0  3  0  0  0  0  0  0
  193.2540  174.0040  144.0670 O   0  0  0  0  0  0  0  0  0  0  0  0
  192.8220  176.1240  146.5410 O   0  0  0  0  0  0  0  0  0  0  0  0
  193.6480  175.8660  145.4320 C   0  0  1  0  0  0  0  0  0  0  0  0
  197.0430  172.7420  145.6430 N   0  0  0  0  0  0  0  0  0  0  0  0
  195.3030  174.0180  145.2960 C   0  0  0  0  0  0  0  0  0  0  0  0
  197.5410  173.9750  145.0480 C   0  0  0  0  0  3  0  0  0  0  0  0
  196.2920  174.7740  144.8460 C   0  0  0  0  0  3  0  0  0  0  0  0
  195.7840  172.7790  145.7800 N   0  0  0  0  0  2  0  0  0  0  0  0
  189.9830  175.0140  144.2080 N   0  0  0  0  0  0  0  0  0  0  0  0
  190.6070  175.6890  143.3290 N   0  0  0  0  0  0  0  0  0  0  0  0
  186.8230  176.7160  146.4460 C   0  0  0  0  0  3  0  0  0  0  0  0
  188.9240  175.5860  144.9790 C   0  0  0  0  0  0  0  0  0  0  0  0
  187.8780  176.2400  144.3200 C   0  0  0  0  0  3  0  0  0  0  0  0
  187.8650  176.0640  147.1110 C   0  0  0  0  0  3  0  0  0  0  0  0
  188.9130  175.5000  146.3790 C   0  0  0  0  0  3  0  0  0  0  0  0
  186.8250  176.8060  145.0460 C   0  0  0  0  0  0  0  0  0  0  0  0
  185.7220  177.5030  144.3030 C   0  0  1  0  0  3  0  0  0  0  0  0
  185.2530  178.7520  144.9910 C   0  0  0  0  0  0  0  0  0  0  0  0
  185.8980  179.7880  144.9210 O   0  0  0  0  0  0  0  0  0  0  0  0
  183.9910  178.7230  145.7820 C   0  0  0  0  0  1  0  0  0  0  0  0
  186.0440  177.7280  142.8570 C   0  0  0  0  0  0  0  0  0  0  0  0
  185.3560  177.1730  141.9550 O   0  0  0  0  0  0  0  0  0  0  0  0
  188.0520  178.1960  141.5140 C   0  0  0  0  0  1  0  0  0  0  0  0
  187.1200  178.5520  142.5240 O   0  0  0  0  0  0  0  0  0  0  0  0
  191.3880  173.7370  142.3120 O   0  0  0  0  0  0  0  0  0  0  0  0
  191.9270  171.8000  139.2800 C   0  0  0  0  0  1  0  0  0  0  0  0
  191.4730  173.5990  140.9240 C   0  0  1  0  0  3  0  0  0  0  0  0
  189.9560  173.6860  138.9940 O   0  0  0  0  0  1  0  0  0  0  0  0
  191.1540  172.1540  140.5410 C   0  0  1  0  0  3  0  0  0  0  0  0
  190.1260  173.2510  140.3110 C   0  0  1  0  0  0  0  0  0  0  0  0
  188.0070  173.2190  141.8620 N   0  0  0  0  0  0  0  0  0  0  0  0
  188.9390  173.2360  141.1760 C   0  0  0  0  0  0  0  0  0  0  0  0
  1 30  1  1  0  0  0
  1 15  1  0  0  0  0
  3  1  1  1  0  0  0
  3  6  1  0  0  0  0
  3  4  1  0  0  0  0
  5 10  1  6  0  0  0
  5  8  1  0  0  0  0
  6  5  1  0  0  0  0
  7  2  1  0  0  0  0
  8  4  1  6  0  0  0
  8  7  1  0  0  0  0
  8  2  1  0  0  0  0
  9 13  1  0  0  0  0
 10 13  1  0  0  0  0
 11  9  2  0  0  0  0
 12 11  1  0  0  0  0
 12 10  2  0  0  0  0
 14 17  1  0  0  0  0
 15 14  2  0  0  0  0
 16 19  1  0  0  0  0
 17 20  1  0  0  0  0
 18 17  2  0  0  0  0
 18 21  1  0  0  0  0
 20 19  2  0  0  0  0
 21 16  2  0  0  0  0
 22 26  1  6  0  0  0
 22 23  1  0  0  0  0
 22 21  1  0  0  0  0
 23 25  1  0  0  0  0
 24 23  2  0  0  0  0
 27 26  2  0  0  0  0
 28 29  1  0  0  0  0
 29 26  1  0  0  0  0
 32 30  1  1  0  0  0
 34 31  1  6  0  0  0
 34 32  1  0  0  0  0
 35 33  1  6  0  0  0
 35 34  1  0  0  0  0
 35 32  1  0  0  0  0
 35 37  1  0  0  0  0
 37 36  3  0  0  0  0
M  END
>  <MODEL>
2

>  <REMARK>
 VINA RESULT:      -6.7      1.751      2.817
  Name = 
  11 active torsions:
  status: ('A' for Active; 'I' for Inactive)
    1  A    between atoms: C_3  and  C_12
    2  A    between atoms: C_5  and  C_11
    3  A    between atoms: O_7  and  C_29
    4  A    between atoms: C_8  and  N_25
    5  A    between atoms: C_11  and  O_23
    6  A    between atoms: C_11  and  N_26
    7  A    between atoms: C_12  and  C_29
    8  A    between atoms: C_12  and  C_30
    9  A    between atoms: C_13  and  C_18
   10  A    between atoms: C_16  and  O_23
   11  A    between atoms: C_33  and  C_35
                            x       y       z     vdW  Elec       q    Type
                         _______ _______ _______ _____ _____    ______ ____

>  <TORSDO>
F 11

$$$$
=
 OpenBabel11062418483D

 37 41  0  0  1  0  0  0  0  0999 V2000
  191.9220  175.1220  144.1940 C   0  0  2  0  0  3  0  0  0  0  0  0
  190.1530  171.0350  142.0190 C   0  0  0  0  0  2  0  0  0  0  0  0
  191.7430  174.3160  142.9130 C   0  0  1  0  0  3  0  0  0  0  0  0
  191.6300  172.8310  143.2200 C   0  0  0  0  0  2  0  0  0  0  0  0
  189.9850  173.6460  141.6100 C   0  0  2  0  0  3  0  0  0  0  0  0
  190.6160  174.7730  142.1770 O   0  0  0  0  0  0  0  0  0  0  0  0
  189.5210  171.7920  143.0240 O   0  0  0  0  0  0  0  0  0  0  0  0
  190.5410  172.4350  142.2990 C   0  0  1  0  0  0  0  0  0  0  0  0
  191.3690  173.3480  138.2910 N   0  0  0  0  0  0  0  0  0  0  0  0
  190.2190  173.6050  140.1310 C   0  0  0  0  0  0  0  0  0  0  0  0
  189.9980  173.6340  137.8900 C   0  0  0  0  0  3  0  0  0  0  0  0
  189.2950  173.7890  139.2010 C   0  0  0  0  0  3  0  0  0  0  0  0
  191.4820  173.3370  139.5530 N   0  0  0  0  0  2  0  0  0  0  0  0
  189.7740  175.2600  145.1870 N   0  0  0  0  0  0  0  0  0  0  0  0
  190.6960  175.8350  144.5240 N   0  0  0  0  0  0  0  0  0  0  0  0
  186.1740  177.2630  146.1430 C   0  0  0  0  0  3  0  0  0  0  0  0
  188.5620  175.9360  145.5260 C   0  0  0  0  0  0  0  0  0  0  0  0
  187.7460  176.4270  144.5020 C   0  0  0  0  0  3  0  0  0  0  0  0
  186.9860  176.7760  147.1710 C   0  0  0  0  0  3  0  0  0  0  0  0
  188.1770  176.1130  146.8640 C   0  0  0  0  0  3  0  0  0  0  0  0
  186.5510  177.0890  144.8030 C   0  0  0  0  0  0  0  0  0  0  0  0
  185.7030  177.6040  143.6760 C   0  0  1  0  0  3  0  0  0  0  0  0
  184.8880  178.8050  144.0600 C   0  0  0  0  0  0  0  0  0  0  0  0
  183.6750  178.7240  144.1970 O   0  0  0  0  0  0  0  0  0  0  0  0
  185.5660  180.1160  144.2620 C   0  0  0  0  0  1  0  0  0  0  0  0
  186.4770  177.8130  142.4110 C   0  0  0  0  0  0  0  0  0  0  0  0
  187.4170  178.6560  142.3680 O   0  0  0  0  0  0  0  0  0  0  0  0
  186.3690  177.5560  139.9660 C   0  0  0  0  0  1  0  0  0  0  0  0
  186.1380  177.0700  141.2800 O   0  0  0  0  0  0  0  0  0  0  0  0
  192.9710  176.0320  144.0350 O   0  0  0  0  0  0  0  0  0  0  0  0
  196.5320  175.4580  143.5580 C   0  0  0  0  0  1  0  0  0  0  0  0
  194.1340  175.2670  144.1590 C   0  0  1  0  0  3  0  0  0  0  0  0
  195.6170  174.4960  145.9590 O   0  0  0  0  0  1  0  0  0  0  0  0
  195.3490  176.1960  144.1660 C   0  0  1  0  0  3  0  0  0  0  0  0
  194.8630  175.5610  145.4600 C   0  0  1  0  0  0  0  0  0  0  0  0
  193.7280  177.1670  147.2020 N   0  0  0  0  0  0  0  0  0  0  0  0
  194.2300  176.4570  146.4380 C   0  0  0  0  0  0  0  0  0  0  0  0
  1 30  1  6  0  0  0
  1 15  1  0  0  0  0
  2  7  1  0  0  0  0
  3  4  1  0  0  0  0
  3  1  1  1  0  0  0
  5 10  1  6  0  0  0
  5  6  1  0  0  0  0
  5  8  1  0  0  0  0
  6  3  1  0  0  0  0
  8  2  1  6  0  0  0
  8  7  1  0  0  0  0
  8  4  1  0  0  0  0
  9 13  1  0  0  0  0
 11  9  2  0  0  0  0
 11 12  1  0  0  0  0
 12 10  2  0  0  0  0
 13 10  1  0  0  0  0
 14 17  1  0  0  0  0
 15 14  2  0  0  0  0
 16 19  1  0  0  0  0
 17 20  1  0  0  0  0
 18 21  1  0  0  0  0
 18 17  2  0  0  0  0
 20 19  2  0  0  0  0
 21 16  2  0  0  0  0
 22 26  1  6  0  0  0
 22 23  1  0  0  0  0
 22 21  1  0  0  0  0
 23 24  2  0  0  0  0
 23 25  1  0  0  0  0
 27 26  2  0  0  0  0
 28 29  1  0  0  0  0
 29 26  1  0  0  0  0
 32 30  1  1  0  0  0
 32 34  1  0  0  0  0
 32 35  1  0  0  0  0
 34 31  1  6  0  0  0
 34 35  1  0  0  0  0
 35 33  1  1  0  0  0
 35 37  1  0  0  0  0
 37 36  3  0  0  0  0
M  END
>  <MODEL>
3

>  <REMARK>
 VINA RESULT:      -6.5      2.414      5.837
  Name = 
  11 active torsions:
  status: ('A' for Active; 'I' for Inactive)
    1  A    between atoms: C_3  and  C_12
    2  A    between atoms: C_5  and  C_11
    3  A    between atoms: O_7  and  C_29
    4  A    between atoms: C_8  and  N_25
    5  A    between atoms: C_11  and  O_23
    6  A    between atoms: C_11  and  N_26
    7  A    between atoms: C_12  and  C_29
    8  A    between atoms: C_12  and  C_30
    9  A    between atoms: C_13  and  C_18
   10  A    between atoms: C_16  and  O_23
   11  A    between atoms: C_33  and  C_35
                            x       y       z     vdW  Elec       q    Type
                         _______ _______ _______ _____ _____    ______ ____

>  <TORSDO>
F 11

$$$$
=
 OpenBabel11062418483D

 37 41  0  0  1  0  0  0  0  0999 V2000
  189.2150  175.3890  142.9630 C   0  0  2  0  0  3  0  0  0  0  0  0
  185.7540  178.5740  141.3990 C   0  0  0  0  0  2  0  0  0  0  0  0
  188.1810  176.4520  143.3210 C   0  0  1  0  0  3  0  0  0  0  0  0
  187.9720  177.4140  142.1630 C   0  0  0  0  0  2  0  0  0  0  0  0
  185.9040  176.6490  143.2110 C   0  0  2  0  0  3  0  0  0  0  0  0
  186.9540  175.8540  143.7170 O   0  0  0  0  0  0  0  0  0  0  0  0
  185.9730  177.2700  140.9180 O   0  0  0  0  0  0  0  0  0  0  0  0
  186.5000  177.5690  142.1870 C   0  0  1  0  0  0  0  0  0  0  0  0
  183.9480  178.9200  145.2210 N   0  0  0  0  0  0  0  0  0  0  0  0
  185.2380  177.4030  144.3210 C   0  0  0  0  0  0  0  0  0  0  0  0
  184.4970  178.1340  146.3180 C   0  0  0  0  0  2  0  0  0  0  0  0
  185.3540  177.1320  145.6120 C   0  0  0  0  0  3  0  0  0  0  0  0
  184.3750  178.5010  144.1030 N   0  0  0  0  0  0  0  0  0  0  0  0
  190.7430  175.4510  144.7730 N   0  0  0  0  0  0  0  0  0  0  0  0
  190.5060  175.7140  143.5500 N   0  0  0  0  0  0  0  0  0  0  0  0
  194.4930  176.3400  146.5150 C   0  0  0  0  0  3  0  0  0  0  0  0
  192.0010  175.7570  145.3750 C   0  0  0  0  0  0  0  0  0  0  0  0
  193.1790  175.3910  144.7160 C   0  0  0  0  0  3  0  0  0  0  0  0
  193.3200  176.7080  147.1790 C   0  0  0  0  0  3  0  0  0  0  0  0
  192.0760  176.4180  146.6110 C   0  0  0  0  0  3  0  0  0  0  0  0
  194.4270  175.6800  145.2780 C   0  0  0  0  0  0  0  0  0  0  0  0
  195.6680  175.2690  144.5410 C   0  0  1  0  0  3  0  0  0  0  0  0
  196.3230  174.0540  145.1330 C   0  0  0  0  0  0  0  0  0  0  0  0
  195.6570  173.1770  145.6650 O   0  0  0  0  0  0  0  0  0  0  0  0
  197.8060  173.9240  145.0850 C   0  0  0  0  0  1  0  0  0  0  0  0
  195.4570  175.1460  143.0630 C   0  0  0  0  0  0  0  0  0  0  0  0
  195.4470  174.0110  142.5100 O   0  0  0  0  0  0  0  0  0  0  0  0
  196.2000  176.6900  141.2980 C   0  0  0  0  0  1  0  0  0  0  0  0
  195.2790  176.3060  142.3070 O   0  0  0  0  0  0  0  0  0  0  0  0
  189.3350  175.3010  141.5730 O   0  0  0  0  0  0  0  0  0  0  0  0
  188.1670  172.7080  139.3040 C   0  0  0  0  0  1  0  0  0  0  0  0
  188.9940  173.9810  141.2640 C   0  0  1  0  0  3  0  0  0  0  0  0
  190.1380  171.8250  140.9950 O   0  0  0  0  0  1  0  0  0  0  0  0
  189.1710  173.7540  139.7620 C   0  0  1  0  0  3  0  0  0  0  0  0
  190.1900  173.1990  140.7460 C   0  0  1  0  0  0  0  0  0  0  0  0
  192.5510  174.3490  140.7680 N   0  0  0  0  0  0  0  0  0  0  0  0
  191.5120  173.8380  140.7590 C   0  0  0  0  0  0  0  0  0  0  0  0
  1 30  1  6  0  0  0
  1 15  1  0  0  0  0
  3  1  1  6  0  0  0
  3  6  1  0  0  0  0
  4  8  1  0  0  0  0
  4  3  1  0  0  0  0
  5  6  1  0  0  0  0
  5 10  1  1  0  0  0
  7  2  1  0  0  0  0
  7  8  1  0  0  0  0
  8  2  1  1  0  0  0
  8  5  1  0  0  0  0
  9 11  1  0  0  0  0
 10 12  2  0  0  0  0
 12 11  1  0  0  0  0
 13 10  1  0  0  0  0
 13  9  2  0  0  0  0
 14 17  1  0  0  0  0
 15 14  2  0  0  0  0
 16 19  1  0  0  0  0
 17 20  1  0  0  0  0
 18 21  1  0  0  0  0
 18 17  2  0  0  0  0
 20 19  2  0  0  0  0
 21 16  2  0  0  0  0
 22 26  1  6  0  0  0
 22 23  1  0  0  0  0
 22 21  1  0  0  0  0
 23 24  2  0  0  0  0
 25 23  1  0  0  0  0
 27 26  2  0  0  0  0
 28 29  1  0  0  0  0
 29 26  1  0  0  0  0
 32 30  1  6  0  0  0
 34 31  1  1  0  0  0
 34 35  1  0  0  0  0
 34 32  1  0  0  0  0
 35 37  1  0  0  0  0
 35 33  1  1  0  0  0
 35 32  1  0  0  0  0
 37 36  3  0  0  0  0
M  END
>  <MODEL>
4

>  <REMARK>
 VINA RESULT:      -6.5      2.491      7.985
  Name = 
  11 active torsions:
  status: ('A' for Active; 'I' for Inactive)
    1  A    between atoms: C_3  and  C_12
    2  A    between atoms: C_5  and  C_11
    3  A    between atoms: O_7  and  C_29
    4  A    between atoms: C_8  and  N_25
    5  A    between atoms: C_11  and  O_23
    6  A    between atoms: C_11  and  N_26
    7  A    between atoms: C_12  and  C_29
    8  A    between atoms: C_12  and  C_30
    9  A    between atoms: C_13  and  C_18
   10  A    between atoms: C_16  and  O_23
   11  A    between atoms: C_33  and  C_35
                            x       y       z     vdW  Elec       q    Type
                         _______ _______ _______ _____ _____    ______ ____

>  <TORSDO>
F 11

$$$$
=
 OpenBabel11062418483D

 37 41  0  0  1  0  0  0  0  0999 V2000
  192.6940  174.6600  143.0150 C   0  0  2  0  0  3  0  0  0  0  0  0
  191.0530  170.7280  140.4820 C   0  0  0  0  0  2  0  0  0  0  0  0
  192.3880  174.0330  141.6590 C   0  0  1  0  0  3  0  0  0  0  0  0
  192.5010  172.5190  141.7250 C   0  0  0  0  0  2  0  0  0  0  0  0
  190.5180  173.3210  140.5500 C   0  0  2  0  0  3  0  0  0  0  0  0
  191.1050  174.4300  141.1940 O   0  0  0  0  0  0  0  0  0  0  0  0
  190.5240  171.2320  141.6850 O   0  0  0  0  0  0  0  0  0  0  0  0
  191.3210  172.1120  140.9300 C   0  0  1  0  0  0  0  0  0  0  0  0
  189.5890  173.8990  137.1110 N   0  0  0  0  0  0  0  0  0  0  0  0
  190.4920  173.5320  139.0670 C   0  0  0  0  0  0  0  0  0  0  0  0
  191.0290  173.8290  136.9000 C   0  0  0  0  0  3  0  0  0  0  0  0
  191.5550  173.5820  138.2780 C   0  0  0  0  0  3  0  0  0  0  0  0
  189.2990  173.7270  138.3320 N   0  0  0  0  0  2  0  0  0  0  0  0
  191.3680  176.3070  144.0840 N   0  0  0  0  0  0  0  0  0  0  0  0
  191.4690  175.1120  143.6570 N   0  0  0  0  0  0  0  0  0  0  0  0
  187.8200  177.7070  145.9110 C   0  0  0  0  0  3  0  0  0  0  0  0
  190.1770  176.7780  144.7160 C   0  0  0  0  0  0  0  0  0  0  0  0
  189.1180  177.2310  143.9230 C   0  0  0  0  0  3  0  0  0  0  0  0
  188.8750  177.2570  146.7090 C   0  0  0  0  0  3  0  0  0  0  0  0
  190.0510  176.7930  146.1140 C   0  0  0  0  0  3  0  0  0  0  0  0
  187.9370  177.6940  144.5130 C   0  0  0  0  0  0  0  0  0  0  0  0
  186.8230  178.1740  143.6280 C   0  0  1  0  0  3  0  0  0  0  0  0
  186.3310  177.1160  142.6830 C   0  0  0  0  0  0  0  0  0  0  0  0
  186.0990  175.9810  143.0760 O   0  0  0  0  0  0  0  0  0  0  0  0
  186.1380  177.4510  141.2440 C   0  0  0  0  0  1  0  0  0  0  0  0
  185.7110  178.8270  144.3910 C   0  0  0  0  0  0  0  0  0  0  0  0
  185.6620  180.0840  144.5000 O   0  0  0  0  0  0  0  0  0  0  0  0
  184.1190  178.3800  146.2130 C   0  0  0  0  0  1  0  0  0  0  0  0
  184.7370  178.0240  144.9860 O   0  0  0  0  0  0  0  0  0  0  0  0
  193.5670  175.7380  142.8480 O   0  0  0  0  0  0  0  0  0  0  0  0
  197.0950  175.6200  141.9640 C   0  0  0  0  0  1  0  0  0  0  0  0
  194.8480  175.1800  142.9130 C   0  0  1  0  0  3  0  0  0  0  0  0
  196.6360  174.9290  144.5790 O   0  0  0  0  0  1  0  0  0  0  0  0
  195.8850  176.2650  142.6220 C   0  0  1  0  0  3  0  0  0  0  0  0
  195.6640  175.7800  144.0470 C   0  0  1  0  0  0  0  0  0  0  0  0
  194.4990  177.4630  145.6930 N   0  0  0  0  0  0  0  0  0  0  0  0
  195.0100  176.7180  144.9700 C   0  0  0  0  0  0  0  0  0  0  0  0
  1 30  1  6  0  0  0
  1 15  1  0  0  0  0
  2  7  1  0  0  0  0
  3  4  1  0  0  0  0
  3  1  1  1  0  0  0
  5 10  1  6  0  0  0
  5  8  1  0  0  0  0
  5  6  1  0  0  0  0
  6  3  1  0  0  0  0
  8  2  1  6  0  0  0
  8  7  1  0  0  0  0
  8  4  1  0  0  0  0
  9 13  1  0  0  0  0
 11  9  2  0  0  0  0
 11 12  1  0  0  0  0
 12 10  2  0  0  0  0
 13 10  1  0  0  0  0
 14 17  1  0  0  0  0
 15 14  2  0  0  0  0
 16 19  1  0  0  0  0
 17 20  1  0  0  0  0
 18 21  1  0  0  0  0
 18 17  2  0  0  0  0
 20 19  2  0  0  0  0
 21 16  2  0  0  0  0
 22 23  1  1  0  0  0
 22 26  1  0  0  0  0
 22 21  1  0  0  0  0
 23 24  2  0  0  0  0
 25 23  1  0  0  0  0
 26 27  2  0  0  0  0
 26 29  1  0  0  0  0
 29 28  1  0  0  0  0
 32 30  1  1  0  0  0
 32 35  1  0  0  0  0
 34 31  1  6  0  0  0
 34 32  1  0  0  0  0
 34 35  1  0  0  0  0
 35 33  1  1  0  0  0
 35 37  1  0  0  0  0
 37 36  3  0  0  0  0
M  END
>  <MODEL>
5

>  <REMARK>
 VINA RESULT:      -6.5      2.334      6.009
  Name = 
  11 active torsions:
  status: ('A' for Active; 'I' for Inactive)
    1  A    between atoms: C_3  and  C_12
    2  A    between atoms: C_5  and  C_11
    3  A    between atoms: O_7  and  C_29
    4  A    between atoms: C_8  and  N_25
    5  A    between atoms: C_11  and  O_23
    6  A    between atoms: C_11  and  N_26
    7  A    between atoms: C_12  and  C_29
    8  A    between atoms: C_12  and  C_30
    9  A    between atoms: C_13  and  C_18
   10  A    between atoms: C_16  and  O_23
   11  A    between atoms: C_33  and  C_35
                            x       y       z     vdW  Elec       q    Type
                         _______ _______ _______ _____ _____    ______ ____

>  <TORSDO>
F 11

$$$$
=
 OpenBabel11062418483D

 37 41  0  0  1  0  0  0  0  0999 V2000
  190.8860  174.1630  143.3220 C   0  0  2  0  0  3  0  0  0  0  0  0
  188.1960  172.7200  139.4170 C   0  0  0  0  0  2  0  0  0  0  0  0
  190.6470  173.1240  142.2320 C   0  0  1  0  0  3  0  0  0  0  0  0
  189.1870  173.1130  141.8080 C   0  0  0  0  0  2  0  0  0  0  0  0
  190.7670  173.0640  139.9480 C   0  0  2  0  0  3  0  0  0  0  0  0
  191.5010  173.3490  141.1190 O   0  0  0  0  0  0  0  0  0  0  0  0
  188.6100  174.0320  139.7130 O   0  0  0  0  0  0  0  0  0  0  0  0
  189.3210  172.9920  140.3380 C   0  0  1  0  0  0  0  0  0  0  0  0
  191.8240  170.4340  137.7150 N   0  0  0  0  0  0  0  0  0  0  0  0
  191.2450  171.7850  139.3320 C   0  0  0  0  0  0  0  0  0  0  0  0
  192.0230  169.7040  138.9600 C   0  0  0  0  0  2  0  0  0  0  0  0
  191.6080  170.6990  139.9970 C   0  0  0  0  0  3  0  0  0  0  0  0
  191.3840  171.6020  137.9370 N   0  0  0  0  0  0  0  0  0  0  0  0
  189.4790  175.3260  144.8340 N   0  0  0  0  0  0  0  0  0  0  0  0
  189.6410  174.8330  143.6720 N   0  0  0  0  0  0  0  0  0  0  0  0
  185.8860  177.2950  145.8820 C   0  0  0  0  0  3  0  0  0  0  0  0
  188.2700  175.9900  145.2040 C   0  0  0  0  0  0  0  0  0  0  0  0
  187.4570  176.5330  144.2040 C   0  0  0  0  0  3  0  0  0  0  0  0
  186.6940  176.7550  146.8860 C   0  0  0  0  0  3  0  0  0  0  0  0
  187.8830  176.1030  146.5480 C   0  0  0  0  0  3  0  0  0  0  0  0
  186.2640  177.1850  144.5350 C   0  0  0  0  0  0  0  0  0  0  0  0
  185.4200  177.7570  143.4330 C   0  0  1  0  0  3  0  0  0  0  0  0
  184.6410  178.9670  143.8630 C   0  0  0  0  0  0  0  0  0  0  0  0
  183.4190  178.9640  143.8500 O   0  0  0  0  0  0  0  0  0  0  0  0
  185.3700  180.1920  144.2970 C   0  0  0  0  0  1  0  0  0  0  0  0
  186.1890  177.9870  142.1680 C   0  0  0  0  0  0  0  0  0  0  0  0
  187.2010  178.7420  142.1620 O   0  0  0  0  0  0  0  0  0  0  0  0
  186.5120  177.4350  139.7920 C   0  0  0  0  0  1  0  0  0  0  0  0
  185.7630  177.3610  140.9960 O   0  0  0  0  0  0  0  0  0  0  0  0
  191.8200  175.1030  142.8790 O   0  0  0  0  0  0  0  0  0  0  0  0
  195.2140  175.6090  144.0900 C   0  0  0  0  0  1  0  0  0  0  0  0
  192.7840  175.1590  143.8900 C   0  0  1  0  0  3  0  0  0  0  0  0
  193.3180  176.5920  145.8120 O   0  0  0  0  0  1  0  0  0  0  0  0
  193.9180  176.0880  143.4540 C   0  0  1  0  0  3  0  0  0  0  0  0
  192.8980  176.5560  144.4800 C   0  0  1  0  0  0  0  0  0  0  0  0
  191.2040  178.4050  143.6990 N   0  0  0  0  0  0  0  0  0  0  0  0
  191.9470  177.5870  144.0440 C   0  0  0  0  0  0  0  0  0  0  0  0
  1 30  1  6  0  0  0
  1 15  1  0  0  0  0
  2  7  1  0  0  0  0
  3  1  1  1  0  0  0
  4  3  1  0  0  0  0
  5 10  1  1  0  0  0
  5  8  1  0  0  0  0
  5  6  1  0  0  0  0
  6  3  1  0  0  0  0
  7  8  1  0  0  0  0
  8  2  1  6  0  0  0
  8  4  1  0  0  0  0
  9 13  2  0  0  0  0
  9 11  1  0  0  0  0
 10 12  2  0  0  0  0
 11 12  1  0  0  0  0
 13 10  1  0  0  0  0
 14 17  1  0  0  0  0
 15 14  2  0  0  0  0
 16 19  1  0  0  0  0
 17 20  1  0  0  0  0
 18 21  1  0  0  0  0
 18 17  2  0  0  0  0
 20 19  2  0  0  0  0
 21 16  2  0  0  0  0
 22 26  1  6  0  0  0
 22 23  1  0  0  0  0
 22 21  1  0  0  0  0
 23 25  1  0  0  0  0
 24 23  2  0  0  0  0
 27 26  2  0  0  0  0
 28 29  1  0  0  0  0
 29 26  1  0  0  0  0
 32 30  1  6  0  0  0
 32 35  1  0  0  0  0
 34 32  1  0  0  0  0
 34 31  1  1  0  0  0
 34 35  1  0  0  0  0
 35 33  1  1  0  0  0
 36 37  3  0  0  0  0
 37 35  1  0  0  0  0
M  END
>  <MODEL>
6

>  <REMARK>
 VINA RESULT:      -6.5      2.519      5.845
  Name = 
  11 active torsions:
  status: ('A' for Active; 'I' for Inactive)
    1  A    between atoms: C_3  and  C_12
    2  A    between atoms: C_5  and  C_11
    3  A    between atoms: O_7  and  C_29
    4  A    between atoms: C_8  and  N_25
    5  A    between atoms: C_11  and  O_23
    6  A    between atoms: C_11  and  N_26
    7  A    between atoms: C_12  and  C_29
    8  A    between atoms: C_12  and  C_30
    9  A    between atoms: C_13  and  C_18
   10  A    between atoms: C_16  and  O_23
   11  A    between atoms: C_33  and  C_35
                            x       y       z     vdW  Elec       q    Type
                         _______ _______ _______ _____ _____    ______ ____

>  <TORSDO>
F 11

$$$$
=
 OpenBabel11062418483D

 37 41  0  0  1  0  0  0  0  0999 V2000
  190.5440  177.8080  144.3560 C   0  0  2  0  0  3  0  0  0  0  0  0
  188.2110  174.5210  141.4710 C   0  0  0  0  0  2  0  0  0  0  0  0
  189.5510  177.5570  143.2260 C   0  0  1  0  0  3  0  0  0  0  0  0
  189.8740  176.2600  142.5020 C   0  0  0  0  0  2  0  0  0  0  0  0
  187.5050  176.5560  143.0120 C   0  0  2  0  0  3  0  0  0  0  0  0
  188.2160  177.5520  143.7140 O   0  0  0  0  0  0  0  0  0  0  0  0
  188.4750  174.3920  142.8480 O   0  0  0  0  0  0  0  0  0  0  0  0
  188.5180  175.6950  142.3180 C   0  0  1  0  0  0  0  0  0  0  0  0
  185.8530  177.9340  140.1160 N   0  0  0  0  0  0  0  0  0  0  0  0
  186.5460  177.1810  142.0460 C   0  0  0  0  0  0  0  0  0  0  0  0
  184.7480  178.1020  141.0510 C   0  0  0  0  0  2  0  0  0  0  0  0
  185.3100  177.5620  142.3280 C   0  0  0  0  0  3  0  0  0  0  0  0
  186.8590  177.4180  140.6880 N   0  0  0  0  0  0  0  0  0  0  0  0
  192.7600  177.1430  144.8690 N   0  0  0  0  0  0  0  0  0  0  0  0
  191.6710  176.8920  144.2590 N   0  0  0  0  0  0  0  0  0  0  0  0
  196.0810  174.5390  144.5950 C   0  0  0  0  0  3  0  0  0  0  0  0
  193.8810  176.2620  144.7930 C   0  0  0  0  0  0  0  0  0  0  0  0
  194.3530  175.8650  143.5380 C   0  0  0  0  0  3  0  0  0  0  0  0
  195.6150  174.9310  145.8520 C   0  0  0  0  0  3  0  0  0  0  0  0
  194.5170  175.7910  145.9520 C   0  0  0  0  0  3  0  0  0  0  0  0
  195.4520  175.0060  143.4310 C   0  0  0  0  0  0  0  0  0  0  0  0
  195.9260  174.6010  142.0650 C   0  0  1  0  0  3  0  0  0  0  0  0
  195.5020  173.2110  141.6880 C   0  0  0  0  0  0  0  0  0  0  0  0
  196.1660  172.5400  140.9120 O   0  0  0  0  0  0  0  0  0  0  0  0
  194.2440  172.6490  142.2570 C   0  0  0  0  0  1  0  0  0  0  0  0
  195.5970  175.6110  141.0090 C   0  0  0  0  0  0  0  0  0  0  0  0
  196.2840  176.6640  140.8940 O   0  0  0  0  0  0  0  0  0  0  0  0
  194.6700  175.2950  138.7520 C   0  0  0  0  0  1  0  0  0  0  0  0
  194.5150  175.3730  140.1610 O   0  0  0  0  0  0  0  0  0  0  0  0
  189.9040  177.6430  145.5880 O   0  0  0  0  0  0  0  0  0  0  0  0
  191.4100  175.4110  148.0360 C   0  0  0  0  0  1  0  0  0  0  0  0
  190.3090  176.3820  146.0390 C   0  0  1  0  0  3  0  0  0  0  0  0
  189.2510  174.2900  146.7690 O   0  0  0  0  0  1  0  0  0  0  0  0
  190.3350  176.3780  147.5680 C   0  0  1  0  0  3  0  0  0  0  0  0
  189.2060  175.6850  146.8190 C   0  0  1  0  0  0  0  0  0  0  0  0
  186.8370  176.8140  146.9350 N   0  0  0  0  0  0  0  0  0  0  0  0
  187.8810  176.3160  146.8890 C   0  0  0  0  0  0  0  0  0  0  0  0
  1 15  1  6  0  0  0
  1 30  1  0  0  0  0
  2  7  1  0  0  0  0
  3  6  1  0  0  0  0
  3  1  1  1  0  0  0
  4  3  1  0  0  0  0
  5 10  1  6  0  0  0
  5  6  1  0  0  0  0
  8  2  1  6  0  0  0
  8  4  1  0  0  0  0
  8  7  1  0  0  0  0
  8  5  1  0  0  0  0
  9 13  2  0  0  0  0
  9 11  1  0  0  0  0
 10 12  2  0  0  0  0
 11 12  1  0  0  0  0
 13 10  1  0  0  0  0
 15 14  2  0  0  0  0
 16 19  1  0  0  0  0
 17 14  1  0  0  0  0
 17 20  1  0  0  0  0
 18 17  2  0  0  0  0
 19 20  2  0  0  0  0
 21 18  1  0  0  0  0
 21 16  2  0  0  0  0
 22 26  1  6  0  0  0
 22 21  1  0  0  0  0
 23 22  1  0  0  0  0
 23 25  1  0  0  0  0
 24 23  2  0  0  0  0
 27 26  2  0  0  0  0
 28 29  1  0  0  0  0
 29 26  1  0  0  0  0
 32 30  1  1  0  0  0
 32 35  1  0  0  0  0
 32 34  1  0  0  0  0
 34 31  1  6  0  0  0
 35 33  1  6  0  0  0
 35 37  1  0  0  0  0
 35 34  1  0  0  0  0
 37 36  3  0  0  0  0
M  END
>  <MODEL>
7

>  <REMARK>
 VINA RESULT:      -6.5      2.741      8.534
  Name = 
  11 active torsions:
  status: ('A' for Active; 'I' for Inactive)
    1  A    between atoms: C_3  and  C_12
    2  A    between atoms: C_5  and  C_11
    3  A    between atoms: O_7  and  C_29
    4  A    between atoms: C_8  and  N_25
    5  A    between atoms: C_11  and  O_23
    6  A    between atoms: C_11  and  N_26
    7  A    between atoms: C_12  and  C_29
    8  A    between atoms: C_12  and  C_30
    9  A    between atoms: C_13  and  C_18
   10  A    between atoms: C_16  and  O_23
   11  A    between atoms: C_33  and  C_35
                            x       y       z     vdW  Elec       q    Type
                         _______ _______ _______ _____ _____    ______ ____

>  <TORSDO>
F 11

$$$$
=
 OpenBabel11062418483D

 37 41  0  0  1  0  0  0  0  0999 V2000
  191.2890  173.1710  144.3000 C   0  0  2  0  0  3  0  0  0  0  0  0
  191.2620  169.8710  140.6020 C   0  0  0  0  0  2  0  0  0  0  0  0
  191.2310  172.9160  142.7980 C   0  0  1  0  0  3  0  0  0  0  0  0
  191.9220  171.6080  142.4450 C   0  0  0  0  0  2  0  0  0  0  0  0
  189.7680  171.9280  141.3420 C   0  0  2  0  0  3  0  0  0  0  0  0
  189.8880  172.9270  142.3320 O   0  0  0  0  0  0  0  0  0  0  0  0
  190.5950  169.7550  141.8350 O   0  0  0  0  0  0  0  0  0  0  0  0
  190.9800  171.0520  141.4480 C   0  0  1  0  0  0  0  0  0  0  0  0
  190.3180  173.6100  138.1980 N   0  0  0  0  0  0  0  0  0  0  0  0
  189.6430  172.5500  139.9850 C   0  0  0  0  0  0  0  0  0  0  0  0
  188.9210  173.2630  137.9740 C   0  0  0  0  0  3  0  0  0  0  0  0
  188.5520  172.5470  139.2350 C   0  0  0  0  0  3  0  0  0  0  0  0
  190.7120  173.2070  139.3330 N   0  0  0  0  0  2  0  0  0  0  0  0
  189.5810  174.4110  145.3780 N   0  0  0  0  0  0  0  0  0  0  0  0
  190.6130  174.4170  144.6330 N   0  0  0  0  0  0  0  0  0  0  0  0
  187.5280  177.9750  146.3640 C   0  0  0  0  0  3  0  0  0  0  0  0
  188.9000  175.6180  145.7230 C   0  0  0  0  0  0  0  0  0  0  0  0
  187.8040  176.0250  144.9550 C   0  0  0  0  0  3  0  0  0  0  0  0
  188.6230  177.5740  147.1350 C   0  0  0  0  0  3  0  0  0  0  0  0
  189.3070  176.3990  146.8150 C   0  0  0  0  0  3  0  0  0  0  0  0
  187.1130  177.2000  145.2700 C   0  0  0  0  0  0  0  0  0  0  0  0
  185.9440  177.6050  144.4210 C   0  0  1  0  0  3  0  0  0  0  0  0
  185.1850  178.7700  144.9890 C   0  0  0  0  0  0  0  0  0  0  0  0
  185.3610  179.9030  144.5630 O   0  0  0  0  0  0  0  0  0  0  0  0
  184.2160  178.5430  146.0970 C   0  0  0  0  0  1  0  0  0  0  0  0
  186.3080  177.8020  142.9810 C   0  0  0  0  0  0  0  0  0  0  0  0
  185.5470  177.3800  142.0650 O   0  0  0  0  0  0  0  0  0  0  0  0
  188.4470  177.8880  141.7690 C   0  0  0  0  0  1  0  0  0  0  0  0
  187.5030  178.4500  142.6690 O   0  0  0  0  0  0  0  0  0  0  0  0
  192.6220  173.2300  144.7150 O   0  0  0  0  0  0  0  0  0  0  0  0
  194.0080  176.1360  146.4110 C   0  0  0  0  0  1  0  0  0  0  0  0
  192.9110  174.5950  144.8080 C   0  0  1  0  0  3  0  0  0  0  0  0
  194.3780  176.2200  143.6940 O   0  0  0  0  0  1  0  0  0  0  0  0
  194.1290  174.7910  145.7120 C   0  0  1  0  0  3  0  0  0  0  0  0
  194.2670  174.9230  144.2030 C   0  0  1  0  0  0  0  0  0  0  0  0
  195.5980  173.0230  142.9730 N   0  0  0  0  0  0  0  0  0  0  0  0
  195.0080  173.8610  143.5110 C   0  0  0  0  0  0  0  0  0  0  0  0
  1 15  1  6  0  0  0
  1 30  1  0  0  0  0
  2  7  1  0  0  0  0
  3  1  1  1  0  0  0
  4  3  1  0  0  0  0
  5 10  1  6  0  0  0
  5  8  1  0  0  0  0
  5  6  1  0  0  0  0
  6  3  1  0  0  0  0
  8  2  1  6  0  0  0
  8  7  1  0  0  0  0
  8  4  1  0  0  0  0
  9 13  1  0  0  0  0
 11  9  2  0  0  0  0
 11 12  1  0  0  0  0
 12 10  2  0  0  0  0
 13 10  1  0  0  0  0
 14 17  1  0  0  0  0
 15 14  2  0  0  0  0
 16 19  1  0  0  0  0
 17 20  1  0  0  0  0
 18 21  1  0  0  0  0
 18 17  2  0  0  0  0
 20 19  2  0  0  0  0
 21 16  2  0  0  0  0
 22 26  1  6  0  0  0
 22 23  1  0  0  0  0
 22 21  1  0  0  0  0
 23 25  1  0  0  0  0
 24 23  2  0  0  0  0
 27 26  2  0  0  0  0
 28 29  1  0  0  0  0
 29 26  1  0  0  0  0
 32 30  1  6  0  0  0
 32 34  1  0  0  0  0
 34 31  1  1  0  0  0
 35 33  1  6  0  0  0
 35 32  1  0  0  0  0
 35 34  1  0  0  0  0
 36 37  3  0  0  0  0
 37 35  1  0  0  0  0
M  END
>  <MODEL>
8

>  <REMARK>
 VINA RESULT:      -6.4      2.369      5.940
  Name = 
  11 active torsions:
  status: ('A' for Active; 'I' for Inactive)
    1  A    between atoms: C_3  and  C_12
    2  A    between atoms: C_5  and  C_11
    3  A    between atoms: O_7  and  C_29
    4  A    between atoms: C_8  and  N_25
    5  A    between atoms: C_11  and  O_23
    6  A    between atoms: C_11  and  N_26
    7  A    between atoms: C_12  and  C_29
    8  A    between atoms: C_12  and  C_30
    9  A    between atoms: C_13  and  C_18
   10  A    between atoms: C_16  and  O_23
   11  A    between atoms: C_33  and  C_35
                            x       y       z     vdW  Elec       q    Type
                         _______ _______ _______ _____ _____    ______ ____

>  <TORSDO>
F 11

$$$$
=
 OpenBabel11062418483D

 37 41  0  0  1  0  0  0  0  0999 V2000
  188.4350  176.3900  143.7900 C   0  0  2  0  0  3  0  0  0  0  0  0
  191.1080  176.6030  147.9590 C   0  0  0  0  0  2  0  0  0  0  0  0
  189.7920  176.6290  144.4430 C   0  0  1  0  0  3  0  0  0  0  0  0
  189.6250  177.1320  145.8670 C   0  0  0  0  0  2  0  0  0  0  0  0
  191.3050  175.3780  145.6190 C   0  0  2  0  0  3  0  0  0  0  0  0
  190.5880  175.4510  144.4070 O   0  0  0  0  0  0  0  0  0  0  0  0
  190.1050  175.6640  147.6510 O   0  0  0  0  0  0  0  0  0  0  0  0
  190.6740  176.3560  146.5660 C   0  0  1  0  0  0  0  0  0  0  0  0
  194.4710  176.7940  144.6240 N   0  0  0  0  0  0  0  0  0  0  0  0
  192.7540  175.6790  145.3870 C   0  0  0  0  0  0  0  0  0  0  0  0
  195.0060  175.6740  145.3870 C   0  0  0  0  0  2  0  0  0  0  0  0
  193.7710  174.9790  145.8660 C   0  0  0  0  0  3  0  0  0  0  0  0
  193.2040  176.7850  144.6300 N   0  0  0  0  0  0  0  0  0  0  0  0
  188.7520  175.4890  141.6220 N   0  0  0  0  0  0  0  0  0  0  0  0
  188.5070  175.2790  142.8530 N   0  0  0  0  0  0  0  0  0  0  0  0
  189.0070  172.2890  138.8680 C   0  0  0  0  0  3  0  0  0  0  0  0
  188.8300  174.4180  140.6800 C   0  0  0  0  0  0  0  0  0  0  0  0
  189.5610  173.2720  141.0110 C   0  0  0  0  0  3  0  0  0  0  0  0
  188.2760  173.4310  138.5310 C   0  0  0  0  0  3  0  0  0  0  0  0
  188.1880  174.4930  139.4350 C   0  0  0  0  0  3  0  0  0  0  0  0
  189.6520  172.2040  140.1120 C   0  0  0  0  0  0  0  0  0  0  0  0
  190.4480  170.9920  140.5020 C   0  0  1  0  0  3  0  0  0  0  0  0
  191.0980  170.3180  139.3280 C   0  0  0  0  0  0  0  0  0  0  0  0
  191.8710  170.9280  138.6030 O   0  0  0  0  0  0  0  0  0  0  0  0
  190.7860  168.8910  139.0360 C   0  0  0  0  0  1  0  0  0  0  0  0
  191.4100  171.2600  141.6190 C   0  0  0  0  0  0  0  0  0  0  0  0
  192.5750  171.6800  141.3720 O   0  0  0  0  0  0  0  0  0  0  0  0
  191.3960  171.8770  144.0000 C   0  0  0  0  0  1  0  0  0  0  0  0
  191.0010  171.0290  142.9330 O   0  0  0  0  0  0  0  0  0  0  0  0
  188.0260  177.5480  143.1210 O   0  0  0  0  0  0  0  0  0  0  0  0
  185.4000  179.7900  144.2690 C   0  0  0  0  0  1  0  0  0  0  0  0
  186.7430  177.8130  143.6110 C   0  0  1  0  0  3  0  0  0  0  0  0
  184.4280  177.6870  142.7990 O   0  0  0  0  0  1  0  0  0  0  0  0
  186.3330  179.2300  143.2070 C   0  0  1  0  0  3  0  0  0  0  0  0
  185.7460  178.0280  142.4840 C   0  0  1  0  0  0  0  0  0  0  0  0
  186.5410  177.6420  140.0100 N   0  0  0  0  0  0  0  0  0  0  0  0
  186.1860  177.8100  141.0990 C   0  0  0  0  0  0  0  0  0  0  0  0
  1 15  1  6  0  0  0
  3  1  1  1  0  0  0
  3  4  1  0  0  0  0
  5 10  1  6  0  0  0
  5  8  1  0  0  0  0
  6  3  1  0  0  0  0
  6  5  1  0  0  0  0
  7  2  1  0  0  0  0
  8  4  1  6  0  0  0
  8  7  1  0  0  0  0
  8  2  1  0  0  0  0
  9 13  2  0  0  0  0
  9 11  1  0  0  0  0
 10 12  2  0  0  0  0
 11 12  1  0  0  0  0
 13 10  1  0  0  0  0
 14 15  2  0  0  0  0
 16 21  1  0  0  0  0
 17 18  1  0  0  0  0
 17 14  1  0  0  0  0
 19 16  2  0  0  0  0
 19 20  1  0  0  0  0
 20 17  2  0  0  0  0
 21 22  1  0  0  0  0
 21 18  2  0  0  0  0
 22 23  1  6  0  0  0
 22 26  1  0  0  0  0
 24 23  2  0  0  0  0
 25 23  1  0  0  0  0
 26 29  1  0  0  0  0
 27 26  2  0  0  0  0
 29 28  1  0  0  0  0
 30  1  1  0  0  0  0
 32 30  1  6  0  0  0
 34 32  1  0  0  0  0
 34 31  1  1  0  0  0
 35 33  1  1  0  0  0
 35 34  1  0  0  0  0
 35 32  1  0  0  0  0
 36 37  3  0  0  0  0
 37 35  1  0  0  0  0
M  END
>  <MODEL>
9

>  <REMARK>
 VINA RESULT:      -6.3      2.339      6.524
  Name = 
  11 active torsions:
  status: ('A' for Active; 'I' for Inactive)
    1  A    between atoms: C_3  and  C_12
    2  A    between atoms: C_5  and  C_11
    3  A    between atoms: O_7  and  C_29
    4  A    between atoms: C_8  and  N_25
    5  A    between atoms: C_11  and  O_23
    6  A    between atoms: C_11  and  N_26
    7  A    between atoms: C_12  and  C_29
    8  A    between atoms: C_12  and  C_30
    9  A    between atoms: C_13  and  C_18
   10  A    between atoms: C_16  and  O_23
   11  A    between atoms: C_33  and  C_35
                            x       y       z     vdW  Elec       q    Type
                         _______ _______ _______ _____ _____    ______ ____

>  <TORSDO>
F 11

$$$$
