=
 OpenBabel11062422323D

 43 49  0  0  1  0  0  0  0  0999 V2000
  190.0560  174.5430  145.6760 C   0  0  0  0  0  0  0  0  0  0  0  0
  193.4560  174.1210  144.8680 C   0  0  0  0  0  2  0  0  0  0  0  0
  192.2800  175.4130  146.6780 C   0  0  0  0  0  2  0  0  0  0  0  0
  191.0440  173.3770  144.0540 C   0  0  0  0  0  0  0  0  0  0  0  0
  191.3770  174.7490  145.7670 N   0  0  0  0  0  0  0  0  0  0  0  0
  194.6790  175.3510  146.5400 O   0  0  0  0  0  0  0  0  0  0  0  0
  191.9750  174.0610  144.8170 C   0  0  0  0  0  0  0  0  0  0  0  0
  193.6010  175.0070  146.0830 C   0  0  0  0  0  0  0  0  0  0  0  0
  189.7930  173.6890  144.6060 C   0  0  0  0  0  3  0  0  0  0  0  0
  192.3650  170.6370  144.2080 N   0  0  0  0  0  0  0  0  0  0  0  0
  191.8620  170.8330  140.5740 C   0  0  0  0  0  0  0  0  0  0  0  0
  191.4620  170.9780  143.1170 C   0  0  2  0  0  3  0  0  0  0  0  0
  193.3260  169.8990  143.7570 C   0  0  0  0  0  3  0  0  0  0  0  0
  191.2030  172.9520  141.6510 C   0  0  0  0  0  3  0  0  0  0  0  0
  193.2320  169.7230  142.3130 C   0  0  0  0  0  2  0  0  0  0  0  0
  192.1300  170.3540  141.9410 C   0  0  2  0  0  3  0  0  0  0  0  0
  191.4150  172.0940  140.4590 C   0  0  0  0  0  3  0  0  0  0  0  0
  191.2950  172.4730  142.9070 C   0  0  0  0  0  0  0  0  0  0  0  0
  189.6660  169.6890  137.6440 C   0  0  0  0  0  2  0  0  0  0  0  0
  191.4040  171.4080  136.7900 C   0  0  0  0  0  2  0  0  0  0  0  0
  190.7050  168.5960  137.9200 C   0  0  0  0  0  2  0  0  0  0  0  0
  192.6160  170.4930  137.0030 C   0  0  0  0  0  2  0  0  0  0  0  0
  192.1200  170.0230  139.4090 N   0  0  0  0  0  0  0  0  0  0  0  0
  190.2160  171.1200  137.7160 C   0  0  0  0  0  2  0  0  0  0  0  0
  191.4320  168.7340  139.2620 C   0  0  0  0  0  2  0  0  0  0  0  0
  193.1410  170.4530  138.4420 C   0  0  0  0  0  2  0  0  0  0  0  0
  189.0360  175.1060  146.6060 C   0  0  0  0  0  2  0  0  0  0  0  0
  188.8430  176.5880  146.3380 C   0  0  0  0  0  2  0  0  0  0  0  0
  187.9960  176.8050  145.0840 C   0  0  2  0  0  3  0  0  0  0  0  0
  189.0400  176.6940  142.8440 N   0  0  0  0  0  0  0  0  0  0  0  0
  188.0610  176.1200  141.9740 C   0  0  0  0  0  0  0  0  0  0  0  0
  191.1310  177.4300  143.6760 C   0  0  0  0  0  2  0  0  0  0  0  0
  190.0250  178.2010  144.3880 C   0  0  0  0  0  2  0  0  0  0  0  0
  190.4640  176.6070  142.5910 C   0  0  0  0  0  2  0  0  0  0  0  0
  188.4150  175.3740  141.0220 O   0  0  0  0  0  0  0  0  0  0  0  0
  186.7110  176.3830  142.1720 O   0  0  0  0  0  1  0  0  0  0  0  0
  188.7070  177.5730  143.9480 C   0  0  2  0  0  3  0  0  0  0  0  0
  184.2050  178.6060  146.0260 C   0  0  0  0  0  3  0  0  0  0  0  0
  185.0690  179.2120  145.1090 C   0  0  0  0  0  3  0  0  0  0  0  0
  184.5730  177.4070  146.6460 C   0  0  0  0  0  3  0  0  0  0  0  0
  186.6740  177.4220  145.4290 C   0  0  0  0  0  0  0  0  0  0  0  0
  185.8030  176.8160  146.3480 C   0  0  0  0  0  3  0  0  0  0  0  0
  186.3010  178.6210  144.8100 C   0  0  0  0  0  3  0  0  0  0  0  0
  1  5  1  0  0  0  0
  1 27  1  0  0  0  0
  2  8  1  0  0  0  0
  4  9  1  0  0  0  0
  4  7  2  0  0  0  0
  5  3  1  0  0  0  0
  7  2  1  0  0  0  0
  7  5  1  0  0  0  0
  8  6  2  0  0  0  0
  8  3  1  0  0  0  0
  9  1  2  0  0  0  0
 11 16  1  0  0  0  0
 12 18  1  6  0  0  0
 12 10  1  0  0  0  0
 13 10  2  0  0  0  0
 14 18  2  0  0  0  0
 15 13  1  0  0  0  0
 16 15  1  1  0  0  0
 16 12  1  0  0  0  0
 17 11  2  0  0  0  0
 17 14  1  0  0  0  0
 18  4  1  0  0  0  0
 19 24  1  0  0  0  0
 19 21  1  0  0  0  0
 20 22  1  0  0  0  0
 20 24  1  0  0  0  0
 21 25  1  0  0  0  0
 22 26  1  0  0  0  0
 23 11  1  0  0  0  0
 25 23  1  0  0  0  0
 26 23  1  0  0  0  0
 28 27  1  0  0  0  0
 29 41  1  0  0  0  0
 29 28  1  1  0  0  0
 30 37  1  0  0  0  0
 31 36  1  0  0  0  0
 31 30  1  0  0  0  0
 32 33  1  0  0  0  0
 34 30  1  0  0  0  0
 34 32  1  0  0  0  0
 35 31  2  0  0  0  0
 37 33  1  0  0  0  0
 37 29  1  1  0  0  0
 38 40  1  0  0  0  0
 39 38  2  0  0  0  0
 41 42  1  0  0  0  0
 42 40  2  0  0  0  0
 43 39  1  0  0  0  0
 43 41  2  0  0  0  0
M  END
>  <MODEL>
1

>  <REMARK>
 VINA RESULT:      -8.7      0.000      0.000
  Name = 
  7 active torsions:
  status: ('A' for Active; 'I' for Inactive)
    1  A    between atoms: C_5  and  N_25
    2  A    between atoms: C_11  and  C_37
    3  A    between atoms: C_15  and  C_16
    4  A    between atoms: C_15  and  C_37
    5  A    between atoms: C_16  and  C_27
    6  A    between atoms: C_16  and  C_35
    7  A    between atoms: C_19  and  C_31
                            x       y       z     vdW  Elec       q    Type
                         _______ _______ _______ _____ _____    ______ ____

>  <TORSDO>
F 7

$$$$
=
 OpenBabel11062422323D

 43 49  0  0  1  0  0  0  0  0999 V2000
  190.0220  174.6870  146.0510 C   0  0  0  0  0  0  0  0  0  0  0  0
  193.4770  174.5270  145.3940 C   0  0  0  0  0  2  0  0  0  0  0  0
  192.0900  176.0050  146.8840 C   0  0  0  0  0  2  0  0  0  0  0  0
  191.2010  173.3460  144.7160 C   0  0  0  0  0  0  0  0  0  0  0  0
  191.3060  175.0660  146.1160 N   0  0  0  0  0  0  0  0  0  0  0  0
  194.4830  176.2090  146.7950 O   0  0  0  0  0  0  0  0  0  0  0  0
  192.0160  174.2780  145.3360 C   0  0  0  0  0  0  0  0  0  0  0  0
  193.4710  175.6500  146.4030 C   0  0  0  0  0  0  0  0  0  0  0  0
  189.9020  173.6090  145.1750 C   0  0  0  0  0  3  0  0  0  0  0  0
  190.2570  173.0500  141.8350 N   0  0  0  0  0  0  0  0  0  0  0  0
  192.3400  170.0330  142.0750 C   0  0  0  0  0  0  0  0  0  0  0  0
  191.5160  172.4680  142.2790 C   0  0  2  0  0  3  0  0  0  0  0  0
  189.6930  172.2580  140.9830 C   0  0  0  0  0  3  0  0  0  0  0  0
  192.2040  171.1620  144.2630 C   0  0  0  0  0  3  0  0  0  0  0  0
  190.4550  171.0260  140.8130 C   0  0  0  0  0  2  0  0  0  0  0  0
  191.5300  171.1570  141.5730 C   0  0  2  0  0  3  0  0  0  0  0  0
  192.6520  170.0570  143.3800 C   0  0  0  0  0  3  0  0  0  0  0  0
  191.6000  172.2670  143.7820 C   0  0  0  0  0  0  0  0  0  0  0  0
  192.8000  169.6660  138.2840 C   0  0  0  0  0  2  0  0  0  0  0  0
  195.1140  169.5560  139.4420 C   0  0  0  0  0  2  0  0  0  0  0  0
  192.3250  168.3190  138.8420 C   0  0  0  0  0  2  0  0  0  0  0  0
  194.8580  168.2100  140.1310 C   0  0  0  0  0  2  0  0  0  0  0  0
  192.7300  168.9280  141.2340 N   0  0  0  0  0  0  0  0  0  0  0  0
  193.8510  170.3750  139.1490 C   0  0  0  0  0  2  0  0  0  0  0  0
  191.7670  168.3830  140.2680 C   0  0  0  0  0  2  0  0  0  0  0  0
  194.0460  168.3030  141.4280 C   0  0  0  0  0  2  0  0  0  0  0  0
  188.9090  175.2970  146.8310 C   0  0  0  0  0  2  0  0  0  0  0  0
  188.7240  176.7510  146.4320 C   0  0  0  0  0  2  0  0  0  0  0  0
  187.8550  176.8610  145.1800 C   0  0  2  0  0  3  0  0  0  0  0  0
  188.7370  176.6000  142.8840 N   0  0  0  0  0  0  0  0  0  0  0  0
  187.6640  176.0710  142.1000 C   0  0  0  0  0  0  0  0  0  0  0  0
  190.9260  177.2070  143.5530 C   0  0  0  0  0  2  0  0  0  0  0  0
  189.9280  178.0800  144.3040 C   0  0  0  0  0  2  0  0  0  0  0  0
  190.1310  176.4000  142.5440 C   0  0  0  0  0  2  0  0  0  0  0  0
  187.9000  175.2700  141.1570 O   0  0  0  0  0  0  0  0  0  0  0  0
  186.3520  176.4390  142.3740 O   0  0  0  0  0  1  0  0  0  0  0  0
  188.5420  177.5370  143.9730 C   0  0  2  0  0  3  0  0  0  0  0  0
  184.0690  178.6660  146.1370 C   0  0  0  0  0  3  0  0  0  0  0  0
  184.4620  177.4750  146.7550 C   0  0  0  0  0  3  0  0  0  0  0  0
  184.9070  179.2770  145.1990 C   0  0  0  0  0  3  0  0  0  0  0  0
  186.5360  177.5000  145.4970 C   0  0  0  0  0  0  0  0  0  0  0  0
  186.1380  178.6970  144.8800 C   0  0  0  0  0  3  0  0  0  0  0  0
  185.6940  176.8930  146.4360 C   0  0  0  0  0  3  0  0  0  0  0  0
  1  5  1  0  0  0  0
  1 27  1  0  0  0  0
  2  8  1  0  0  0  0
  4  9  1  0  0  0  0
  4  7  2  0  0  0  0
  5  3  1  0  0  0  0
  7  2  1  0  0  0  0
  7  5  1  0  0  0  0
  8  6  2  0  0  0  0
  8  3  1  0  0  0  0
  9  1  2  0  0  0  0
 11 17  2  0  0  0  0
 12 10  1  1  0  0  0
 12 18  1  0  0  0  0
 13 10  2  0  0  0  0
 15 13  1  0  0  0  0
 16 15  1  1  0  0  0
 16 11  1  0  0  0  0
 16 12  1  0  0  0  0
 17 14  1  0  0  0  0
 18 14  2  0  0  0  0
 18  4  1  0  0  0  0
 19 21  1  0  0  0  0
 19 24  1  0  0  0  0
 20 22  1  0  0  0  0
 21 25  1  0  0  0  0
 22 26  1  0  0  0  0
 23 26  1  0  0  0  0
 23 11  1  0  0  0  0
 24 20  1  0  0  0  0
 25 23  1  0  0  0  0
 28 27  1  0  0  0  0
 29 41  1  0  0  0  0
 29 28  1  1  0  0  0
 30 37  1  0  0  0  0
 31 36  1  0  0  0  0
 31 30  1  0  0  0  0
 32 33  1  0  0  0  0
 34 30  1  0  0  0  0
 34 32  1  0  0  0  0
 35 31  2  0  0  0  0
 37 33  1  0  0  0  0
 37 29  1  1  0  0  0
 38 39  1  0  0  0  0
 40 38  2  0  0  0  0
 41 43  1  0  0  0  0
 42 40  1  0  0  0  0
 42 41  2  0  0  0  0
 43 39  2  0  0  0  0
M  END
>  <MODEL>
2

>  <REMARK>
 VINA RESULT:      -8.2      1.225      2.212
  Name = 
  7 active torsions:
  status: ('A' for Active; 'I' for Inactive)
    1  A    between atoms: C_5  and  N_25
    2  A    between atoms: C_11  and  C_37
    3  A    between atoms: C_15  and  C_16
    4  A    between atoms: C_15  and  C_37
    5  A    between atoms: C_16  and  C_27
    6  A    between atoms: C_16  and  C_35
    7  A    between atoms: C_19  and  C_31
                            x       y       z     vdW  Elec       q    Type
                         _______ _______ _______ _____ _____    ______ ____

>  <TORSDO>
F 7

$$$$
=
 OpenBabel11062422323D

 43 49  0  0  1  0  0  0  0  0999 V2000
  189.5330  176.7440  142.7700 C   0  0  0  0  0  0  0  0  0  0  0  0
  190.0910  173.4960  141.5300 C   0  0  0  0  0  2  0  0  0  0  0  0
  188.1730  175.1070  141.2940 C   0  0  0  0  0  2  0  0  0  0  0  0
  191.2630  175.3590  143.0100 C   0  0  0  0  0  0  0  0  0  0  0  0
  189.2350  175.5990  142.1410 N   0  0  0  0  0  0  0  0  0  0  0  0
  188.1560  172.9700  140.1950 O   0  0  0  0  0  0  0  0  0  0  0  0
  190.2510  174.7720  142.2700 C   0  0  0  0  0  0  0  0  0  0  0  0
  188.7350  173.7610  140.9210 C   0  0  0  0  0  0  0  0  0  0  0  0
  190.8010  176.6420  143.3410 C   0  0  0  0  0  3  0  0  0  0  0  0
  193.7820  175.5040  141.3040 N   0  0  0  0  0  0  0  0  0  0  0  0
  195.0880  173.5050  144.0970 C   0  0  0  0  0  0  0  0  0  0  0  0
  193.8590  175.3270  142.7480 C   0  0  2  0  0  3  0  0  0  0  0  0
  194.7150  174.8130  140.7360 C   0  0  0  0  0  3  0  0  0  0  0  0
  192.6680  173.8920  144.3720 C   0  0  0  0  0  3  0  0  0  0  0  0
  195.4730  174.0350  141.7090 C   0  0  0  0  0  2  0  0  0  0  0  0
  194.9700  174.3460  142.8920 C   0  0  2  0  0  3  0  0  0  0  0  0
  193.9610  173.2990  144.7960 C   0  0  0  0  0  3  0  0  0  0  0  0
  192.5820  174.7840  143.3660 C   0  0  0  0  0  0  0  0  0  0  0  0
  195.9620  170.0080  145.4090 C   0  0  0  0  0  2  0  0  0  0  0  0
  196.8820  170.2730  143.0040 C   0  0  0  0  0  2  0  0  0  0  0  0
  196.9460  171.0100  146.0240 C   0  0  0  0  0  2  0  0  0  0  0  0
  197.9410  171.3190  143.3770 C   0  0  0  0  0  2  0  0  0  0  0  0
  196.3300  172.8810  144.4820 N   0  0  0  0  0  0  0  0  0  0  0  0
  195.6560  170.2490  143.9250 C   0  0  0  0  0  2  0  0  0  0  0  0
  196.5300  172.4780  145.8800 C   0  0  0  0  0  2  0  0  0  0  0  0
  197.4100  172.7520  143.4930 C   0  0  0  0  0  2  0  0  0  0  0  0
  188.6600  177.9510  142.8080 C   0  0  0  0  0  2  0  0  0  0  0  0
  188.1890  178.2130  144.2280 C   0  0  0  0  0  2  0  0  0  0  0  0
  187.7440  176.9130  144.8990 C   0  0  2  0  0  3  0  0  0  0  0  0
  185.5200  177.9930  144.9430 N   0  0  0  0  0  0  0  0  0  0  0  0
  185.0030  177.9000  143.6130 C   0  0  0  0  0  0  0  0  0  0  0  0
  185.8000  178.7000  147.1850 C   0  0  0  0  0  2  0  0  0  0  0  0
  186.3930  177.3040  147.0370 C   0  0  0  0  0  2  0  0  0  0  0  0
  185.1120  179.0260  145.8730 C   0  0  0  0  0  2  0  0  0  0  0  0
  184.2780  178.8180  143.1460 O   0  0  0  0  0  1  0  0  0  0  0  0
  185.2960  176.7920  142.8260 O   0  0  0  0  0  0  0  0  0  0  0  0
  186.3460  176.9680  145.5500 C   0  0  2  0  0  3  0  0  0  0  0  0
  190.7310  175.4520  147.6280 C   0  0  0  0  0  3  0  0  0  0  0  0
  189.9290  174.5590  146.9110 C   0  0  0  0  0  3  0  0  0  0  0  0
  190.5620  176.8310  147.4630 C   0  0  0  0  0  3  0  0  0  0  0  0
  188.7850  176.4210  145.8590 C   0  0  0  0  0  0  0  0  0  0  0  0
  189.5940  177.3150  146.5800 C   0  0  0  0  0  3  0  0  0  0  0  0
  188.9590  175.0430  146.0280 C   0  0  0  0  0  3  0  0  0  0  0  0
  1 27  1  0  0  0  0
  1  9  2  0  0  0  0
  2  7  1  0  0  0  0
  3  5  1  0  0  0  0
  4  9  1  0  0  0  0
  4 18  1  0  0  0  0
  5  7  1  0  0  0  0
  5  1  1  0  0  0  0
  6  8  2  0  0  0  0
  7  4  2  0  0  0  0
  8  3  1  0  0  0  0
  8  2  1  0  0  0  0
 11 23  1  0  0  0  0
 11 17  2  0  0  0  0
 12 10  1  6  0  0  0
 12 16  1  0  0  0  0
 12 18  1  0  0  0  0
 13 10  2  0  0  0  0
 13 15  1  0  0  0  0
 14 17  1  0  0  0  0
 16 15  1  6  0  0  0
 16 11  1  0  0  0  0
 18 14  2  0  0  0  0
 19 21  1  0  0  0  0
 20 22  1  0  0  0  0
 20 24  1  0  0  0  0
 22 26  1  0  0  0  0
 23 25  1  0  0  0  0
 24 19  1  0  0  0  0
 25 21  1  0  0  0  0
 26 23  1  0  0  0  0
 27 28  1  0  0  0  0
 29 28  1  1  0  0  0
 29 41  1  0  0  0  0
 30 37  1  0  0  0  0
 30 34  1  0  0  0  0
 31 30  1  0  0  0  0
 33 32  1  0  0  0  0
 34 32  1  0  0  0  0
 35 31  1  0  0  0  0
 36 31  2  0  0  0  0
 37 29  1  6  0  0  0
 37 33  1  0  0  0  0
 39 38  2  0  0  0  0
 40 38  1  0  0  0  0
 41 43  2  0  0  0  0
 41 42  1  0  0  0  0
 42 40  2  0  0  0  0
 43 39  1  0  0  0  0
M  END
>  <MODEL>
3

>  <REMARK>
 VINA RESULT:      -8.1      3.334      5.882
  Name = 
  7 active torsions:
  status: ('A' for Active; 'I' for Inactive)
    1  A    between atoms: C_5  and  N_25
    2  A    between atoms: C_11  and  C_37
    3  A    between atoms: C_15  and  C_16
    4  A    between atoms: C_15  and  C_37
    5  A    between atoms: C_16  and  C_27
    6  A    between atoms: C_16  and  C_35
    7  A    between atoms: C_19  and  C_31
                            x       y       z     vdW  Elec       q    Type
                         _______ _______ _______ _____ _____    ______ ____

>  <TORSDO>
F 7

$$$$
=
 OpenBabel11062422323D

 43 49  0  0  1  0  0  0  0  0999 V2000
  191.5110  177.3360  143.9840 C   0  0  0  0  0  0  0  0  0  0  0  0
  192.5600  175.7610  146.9530 C   0  0  0  0  0  2  0  0  0  0  0  0
  190.8430  177.5380  146.4780 C   0  0  0  0  0  2  0  0  0  0  0  0
  193.0420  175.7570  144.3450 C   0  0  0  0  0  0  0  0  0  0  0  0
  191.5700  177.1130  145.3040 N   0  0  0  0  0  0  0  0  0  0  0  0
  191.1900  176.6930  148.7020 O   0  0  0  0  0  0  0  0  0  0  0  0
  192.4670  176.1770  145.5320 C   0  0  0  0  0  0  0  0  0  0  0  0
  191.4960  176.6700  147.5200 C   0  0  0  0  0  0  0  0  0  0  0  0
  192.4260  176.5100  143.3340 C   0  0  0  0  0  3  0  0  0  0  0  0
  196.0160  176.2500  143.9080 N   0  0  0  0  0  0  0  0  0  0  0  0
  195.9930  172.5850  143.6550 C   0  0  0  0  0  0  0  0  0  0  0  0
  195.5340  174.9910  144.4590 C   0  0  2  0  0  3  0  0  0  0  0  0
  197.0230  176.0210  143.1290 C   0  0  0  0  0  3  0  0  0  0  0  0
  193.6930  173.4480  143.8730 C   0  0  0  0  0  3  0  0  0  0  0  0
  197.2860  174.5930  143.0010 C   0  0  0  0  0  2  0  0  0  0  0  0
  196.4120  173.9910  143.7910 C   0  0  2  0  0  3  0  0  0  0  0  0
  194.6730  172.3470  143.6960 C   0  0  0  0  0  3  0  0  0  0  0  0
  194.0730  174.7100  144.1530 C   0  0  0  0  0  0  0  0  0  0  0  0
  196.5960  169.2100  145.3770 C   0  0  0  0  0  2  0  0  0  0  0  0
  195.6180  168.8020  143.0150 C   0  0  0  0  0  2  0  0  0  0  0  0
  197.9410  169.7320  144.8600 C   0  0  0  0  0  2  0  0  0  0  0  0
  196.8580  169.3040  142.2650 C   0  0  0  0  0  2  0  0  0  0  0  0
  196.9380  171.5180  143.4260 N   0  0  0  0  0  0  0  0  0  0  0  0
  195.4230  169.4120  144.4080 C   0  0  0  0  0  2  0  0  0  0  0  0
  197.9380  171.2100  144.4570 C   0  0  0  0  0  2  0  0  0  0  0  0
  196.9470  170.8280  142.1290 C   0  0  0  0  0  2  0  0  0  0  0  0
  190.5780  178.2880  143.3180 C   0  0  0  0  0  2  0  0  0  0  0  0
  189.4270  177.5330  142.6760 C   0  0  0  0  0  2  0  0  0  0  0  0
  188.6160  176.7840  143.7340 C   0  0  2  0  0  3  0  0  0  0  0  0
  189.2650  174.4030  143.5650 N   0  0  0  0  0  0  0  0  0  0  0  0
  189.6980  174.0130  144.8720 C   0  0  0  0  0  0  0  0  0  0  0  0
  188.9460  174.3820  141.2200 C   0  0  0  0  0  2  0  0  0  0  0  0
  187.8480  175.2270  141.8520 C   0  0  0  0  0  2  0  0  0  0  0  0
  189.7220  173.7460  142.3580 C   0  0  0  0  0  2  0  0  0  0  0  0
  190.6250  173.1710  145.0100 O   0  0  0  0  0  0  0  0  0  0  0  0
  189.0970  174.5600  145.9990 O   0  0  0  0  0  1  0  0  0  0  0  0
  188.1950  175.3530  143.3320 C   0  0  2  0  0  3  0  0  0  0  0  0
  185.2660  179.1150  145.0910 C   0  0  0  0  0  3  0  0  0  0  0  0
  185.8650  178.1780  145.9370 C   0  0  0  0  0  3  0  0  0  0  0  0
  185.7530  179.2980  143.7930 C   0  0  0  0  0  3  0  0  0  0  0  0
  187.4430  177.6000  144.1880 C   0  0  0  0  0  0  0  0  0  0  0  0
  186.8400  178.5440  143.3430 C   0  0  0  0  0  3  0  0  0  0  0  0
  186.9520  177.4220  145.4870 C   0  0  0  0  0  3  0  0  0  0  0  0
  1  5  1  0  0  0  0
  2  8  1  0  0  0  0
  3  8  1  0  0  0  0
  4  7  2  0  0  0  0
  5  7  1  0  0  0  0
  5  3  1  0  0  0  0
  7  2  1  0  0  0  0
  8  6  2  0  0  0  0
  9  1  2  0  0  0  0
  9  4  1  0  0  0  0
 11 17  2  0  0  0  0
 11 16  1  0  0  0  0
 12 10  1  6  0  0  0
 13 10  2  0  0  0  0
 14 18  2  0  0  0  0
 15 13  1  0  0  0  0
 16 15  1  6  0  0  0
 16 12  1  0  0  0  0
 17 14  1  0  0  0  0
 18  4  1  0  0  0  0
 18 12  1  0  0  0  0
 20 24  1  0  0  0  0
 21 19  1  0  0  0  0
 22 20  1  0  0  0  0
 23 11  1  0  0  0  0
 23 25  1  0  0  0  0
 24 19  1  0  0  0  0
 25 21  1  0  0  0  0
 26 22  1  0  0  0  0
 26 23  1  0  0  0  0
 27  1  1  0  0  0  0
 28 27  1  0  0  0  0
 29 28  1  6  0  0  0
 29 41  1  0  0  0  0
 30 31  1  0  0  0  0
 31 35  2  0  0  0  0
 31 36  1  0  0  0  0
 32 33  1  0  0  0  0
 32 34  1  0  0  0  0
 33 37  1  0  0  0  0
 34 30  1  0  0  0  0
 37 30  1  0  0  0  0
 37 29  1  6  0  0  0
 38 39  1  0  0  0  0
 40 38  2  0  0  0  0
 41 43  1  0  0  0  0
 42 40  1  0  0  0  0
 42 41  2  0  0  0  0
 43 39  2  0  0  0  0
M  END
>  <MODEL>
4

>  <REMARK>
 VINA RESULT:      -7.9      3.401      5.096
  Name = 
  7 active torsions:
  status: ('A' for Active; 'I' for Inactive)
    1  A    between atoms: C_5  and  N_25
    2  A    between atoms: C_11  and  C_37
    3  A    between atoms: C_15  and  C_16
    4  A    between atoms: C_15  and  C_37
    5  A    between atoms: C_16  and  C_27
    6  A    between atoms: C_16  and  C_35
    7  A    between atoms: C_19  and  C_31
                            x       y       z     vdW  Elec       q    Type
                         _______ _______ _______ _____ _____    ______ ____

>  <TORSDO>
F 7

$$$$
=
 OpenBabel11062422323D

 43 49  0  0  1  0  0  0  0  0999 V2000
  193.2310  173.7180  145.4330 C   0  0  0  0  0  0  0  0  0  0  0  0
  192.7870  177.2050  145.6450 C   0  0  0  0  0  2  0  0  0  0  0  0
  194.8340  175.7410  145.6600 C   0  0  0  0  0  2  0  0  0  0  0  0
  191.3850  174.9660  145.4110 C   0  0  0  0  0  0  0  0  0  0  0  0
  193.5960  174.9980  145.5940 N   0  0  0  0  0  0  0  0  0  0  0  0
  195.0060  178.1360  145.7620 O   0  0  0  0  0  0  0  0  0  0  0  0
  192.5140  175.7490  145.5770 C   0  0  0  0  0  0  0  0  0  0  0  0
  194.2960  177.1460  145.7000 C   0  0  0  0  0  0  0  0  0  0  0  0
  191.8440  173.6440  145.3200 C   0  0  0  0  0  3  0  0  0  0  0  0
  190.0970  176.2770  142.9820 N   0  0  0  0  0  0  0  0  0  0  0  0
  187.2310  176.3740  145.2780 C   0  0  0  0  0  0  0  0  0  0  0  0
  189.2960  175.5610  143.9640 C   0  0  2  0  0  3  0  0  0  0  0  0
  189.4410  177.3080  142.5600 C   0  0  0  0  0  3  0  0  0  0  0  0
  189.2350  175.5220  146.4360 C   0  0  0  0  0  3  0  0  0  0  0  0
  188.1690  177.4540  143.2570 C   0  0  0  0  0  2  0  0  0  0  0  0
  188.0840  176.4200  144.0780 C   0  0  2  0  0  3  0  0  0  0  0  0
  187.8100  175.9370  146.4080 C   0  0  0  0  0  3  0  0  0  0  0  0
  189.9750  175.4130  145.3150 C   0  0  0  0  0  0  0  0  0  0  0  0
  185.4350  179.2990  146.9920 C   0  0  0  0  0  2  0  0  0  0  0  0
  185.5650  179.7490  144.4450 C   0  0  0  0  0  2  0  0  0  0  0  0
  184.4410  178.1390  146.8560 C   0  0  0  0  0  2  0  0  0  0  0  0
  184.6020  178.6190  144.0580 C   0  0  0  0  0  2  0  0  0  0  0  0
  185.8620  176.8290  145.2690 N   0  0  0  0  0  0  0  0  0  0  0  0
  186.3220  179.5210  145.7600 C   0  0  0  0  0  2  0  0  0  0  0  0
  185.0820  176.7900  146.5120 C   0  0  0  0  0  2  0  0  0  0  0  0
  185.2430  177.2280  143.9970 C   0  0  0  0  0  2  0  0  0  0  0  0
  194.1710  172.5660  145.3440 C   0  0  0  0  0  2  0  0  0  0  0  0
  195.0200  172.6760  144.0900 C   0  0  0  0  0  2  0  0  0  0  0  0
  194.1690  173.1170  142.8980 C   0  0  2  0  0  3  0  0  0  0  0  0
  192.2190  171.7410  142.2510 N   0  0  0  0  0  0  0  0  0  0  0  0
  191.2030  172.6580  141.8320 C   0  0  0  0  0  0  0  0  0  0  0  0
  193.2600  169.7460  142.9840 C   0  0  0  0  0  2  0  0  0  0  0  0
  194.3110  170.6280  142.3200 C   0  0  0  0  0  2  0  0  0  0  0  0
  191.9190  170.4220  142.7690 C   0  0  0  0  0  2  0  0  0  0  0  0
  189.9890  172.4030  142.0450 O   0  0  0  0  0  1  0  0  0  0  0  0
  191.5520  173.8370  141.1840 O   0  0  0  0  0  0  0  0  0  0  0  0
  193.6330  171.9620  142.0250 C   0  0  2  0  0  3  0  0  0  0  0  0
  196.2490  176.0300  140.5130 C   0  0  0  0  0  3  0  0  0  0  0  0
  196.6780  174.7000  140.5400 C   0  0  0  0  0  3  0  0  0  0  0  0
  195.1370  176.4220  141.2670 C   0  0  0  0  0  3  0  0  0  0  0  0
  194.8860  174.1460  142.0780 C   0  0  0  0  0  0  0  0  0  0  0  0
  194.4570  175.4830  142.0460 C   0  0  0  0  0  3  0  0  0  0  0  0
  195.9980  173.7600  141.3210 C   0  0  0  0  0  3  0  0  0  0  0  0
  1  5  1  0  0  0  0
  2  8  1  0  0  0  0
  3  8  1  0  0  0  0
  4  7  2  0  0  0  0
  5  3  1  0  0  0  0
  7  5  1  0  0  0  0
  7  2  1  0  0  0  0
  8  6  2  0  0  0  0
  9  4  1  0  0  0  0
  9  1  2  0  0  0  0
 11 17  2  0  0  0  0
 12 10  1  6  0  0  0
 12 16  1  0  0  0  0
 12 18  1  0  0  0  0
 13 10  2  0  0  0  0
 13 15  1  0  0  0  0
 16 15  1  1  0  0  0
 16 11  1  0  0  0  0
 17 14  1  0  0  0  0
 18  4  1  0  0  0  0
 18 14  2  0  0  0  0
 20 24  1  0  0  0  0
 21 19  1  0  0  0  0
 22 20  1  0  0  0  0
 23 11  1  0  0  0  0
 23 25  1  0  0  0  0
 24 19  1  0  0  0  0
 25 21  1  0  0  0  0
 26 22  1  0  0  0  0
 26 23  1  0  0  0  0
 27  1  1  0  0  0  0
 28 27  1  0  0  0  0
 29 28  1  1  0  0  0
 30 34  1  0  0  0  0
 31 35  1  0  0  0  0
 31 30  1  0  0  0  0
 33 32  1  0  0  0  0
 34 32  1  0  0  0  0
 36 31  2  0  0  0  0
 37 30  1  0  0  0  0
 37 33  1  0  0  0  0
 37 29  1  1  0  0  0
 38 39  2  0  0  0  0
 38 40  1  0  0  0  0
 39 43  1  0  0  0  0
 40 42  2  0  0  0  0
 41 29  1  0  0  0  0
 42 41  1  0  0  0  0
 43 41  2  0  0  0  0
M  END
>  <MODEL>
5

>  <REMARK>
 VINA RESULT:      -7.9      2.544      8.563
  Name = 
  7 active torsions:
  status: ('A' for Active; 'I' for Inactive)
    1  A    between atoms: C_5  and  N_25
    2  A    between atoms: C_11  and  C_37
    3  A    between atoms: C_15  and  C_16
    4  A    between atoms: C_15  and  C_37
    5  A    between atoms: C_16  and  C_27
    6  A    between atoms: C_16  and  C_35
    7  A    between atoms: C_19  and  C_31
                            x       y       z     vdW  Elec       q    Type
                         _______ _______ _______ _____ _____    ______ ____

>  <TORSDO>
F 7

$$$$
=
 OpenBabel11062422323D

 43 49  0  0  1  0  0  0  0  0999 V2000
  193.2210  173.7000  145.1800 C   0  0  0  0  0  0  0  0  0  0  0  0
  192.7790  177.1700  145.5780 C   0  0  0  0  0  2  0  0  0  0  0  0
  194.8240  175.7060  145.5220 C   0  0  0  0  0  2  0  0  0  0  0  0
  191.3760  174.9490  145.2190 C   0  0  0  0  0  0  0  0  0  0  0  0
  193.5860  174.9680  145.4120 N   0  0  0  0  0  0  0  0  0  0  0  0
  194.9980  178.0920  145.7550 O   0  0  0  0  0  0  0  0  0  0  0  0
  192.5050  175.7200  145.4310 C   0  0  0  0  0  0  0  0  0  0  0  0
  194.2870  177.1070  145.6360 C   0  0  0  0  0  0  0  0  0  0  0  0
  191.8340  173.6330  145.0580 C   0  0  0  0  0  3  0  0  0  0  0  0
  190.0860  176.3490  142.8400 N   0  0  0  0  0  0  0  0  0  0  0  0
  187.2250  176.3680  145.1440 C   0  0  0  0  0  0  0  0  0  0  0  0
  189.2850  175.6000  143.7980 C   0  0  2  0  0  3  0  0  0  0  0  0
  189.4310  177.3960  142.4570 C   0  0  0  0  0  3  0  0  0  0  0  0
  189.2290  175.4710  146.2670 C   0  0  0  0  0  3  0  0  0  0  0  0
  188.1610  177.5190  143.1610 C   0  0  0  0  0  2  0  0  0  0  0  0
  188.0760  176.4560  143.9450 C   0  0  2  0  0  3  0  0  0  0  0  0
  187.8040  175.8900  146.2560 C   0  0  0  0  0  3  0  0  0  0  0  0
  189.9660  175.4010  145.1420 C   0  0  0  0  0  0  0  0  0  0  0  0
  185.4260  179.2010  147.0050 C   0  0  0  0  0  2  0  0  0  0  0  0
  185.5680  179.7870  144.4870 C   0  0  0  0  0  2  0  0  0  0  0  0
  184.4320  178.0520  146.8030 C   0  0  0  0  0  2  0  0  0  0  0  0
  184.6050  178.6810  144.0350 C   0  0  0  0  0  2  0  0  0  0  0  0
  185.8570  176.8260  145.1530 N   0  0  0  0  0  0  0  0  0  0  0  0
  186.3190  179.4860  145.7900 C   0  0  0  0  0  2  0  0  0  0  0  0
  185.0710  176.7220  146.3900 C   0  0  0  0  0  2  0  0  0  0  0  0
  185.2430  177.2940  143.9020 C   0  0  0  0  0  2  0  0  0  0  0  0
  194.1610  172.5530  145.0330 C   0  0  0  0  0  2  0  0  0  0  0  0
  194.1510  172.0480  143.6010 C   0  0  0  0  0  2  0  0  0  0  0  0
  195.3570  172.5860  142.8300 C   0  0  2  0  0  3  0  0  0  0  0  0
  195.1380  174.9090  142.0090 N   0  0  0  0  0  0  0  0  0  0  0  0
  196.3980  175.5400  142.2550 C   0  0  0  0  0  0  0  0  0  0  0  0
  192.8350  174.6290  141.5390 C   0  0  0  0  0  2  0  0  0  0  0  0
  193.5680  173.3460  141.1650 C   0  0  0  0  0  2  0  0  0  0  0  0
  193.8950  175.6470  141.9140 C   0  0  0  0  0  2  0  0  0  0  0  0
  196.4490  176.7630  142.5550 O   0  0  0  0  0  1  0  0  0  0  0  0
  197.5760  174.8080  142.1640 O   0  0  0  0  0  0  0  0  0  0  0  0
  195.0060  173.5120  141.6450 C   0  0  2  0  0  3  0  0  0  0  0  0
  197.9410  169.3510  141.6610 C   0  0  0  0  0  3  0  0  0  0  0  0
  197.1740  169.2600  142.8260 C   0  0  0  0  0  3  0  0  0  0  0  0
  197.8730  170.5020  140.8680 C   0  0  0  0  0  3  0  0  0  0  0  0
  196.2680  171.4710  142.4110 C   0  0  0  0  0  0  0  0  0  0  0  0
  197.0380  171.5580  141.2400 C   0  0  0  0  0  3  0  0  0  0  0  0
  196.3390  170.3170  143.2010 C   0  0  0  0  0  3  0  0  0  0  0  0
  1  5  1  0  0  0  0
  2  8  1  0  0  0  0
  3  8  1  0  0  0  0
  4  7  2  0  0  0  0
  5  7  1  0  0  0  0
  5  3  1  0  0  0  0
  7  2  1  0  0  0  0
  8  6  2  0  0  0  0
  9  1  2  0  0  0  0
  9  4  1  0  0  0  0
 11 23  1  0  0  0  0
 11 17  2  0  0  0  0
 12 10  1  6  0  0  0
 12 16  1  0  0  0  0
 12 18  1  0  0  0  0
 13 10  2  0  0  0  0
 13 15  1  0  0  0  0
 16 15  1  1  0  0  0
 16 11  1  0  0  0  0
 17 14  1  0  0  0  0
 18  4  1  0  0  0  0
 18 14  2  0  0  0  0
 20 24  1  0  0  0  0
 21 19  1  0  0  0  0
 22 20  1  0  0  0  0
 23 25  1  0  0  0  0
 24 19  1  0  0  0  0
 25 21  1  0  0  0  0
 26 22  1  0  0  0  0
 26 23  1  0  0  0  0
 27  1  1  0  0  0  0
 28 27  1  0  0  0  0
 29 28  1  6  0  0  0
 30 31  1  0  0  0  0
 31 35  1  0  0  0  0
 32 34  1  0  0  0  0
 33 32  1  0  0  0  0
 33 37  1  0  0  0  0
 34 30  1  0  0  0  0
 36 31  2  0  0  0  0
 37 30  1  0  0  0  0
 37 29  1  1  0  0  0
 38 39  1  0  0  0  0
 39 43  2  0  0  0  0
 40 42  1  0  0  0  0
 40 38  2  0  0  0  0
 41 29  1  0  0  0  0
 41 43  1  0  0  0  0
 42 41  2  0  0  0  0
M  END
>  <MODEL>
6

>  <REMARK>
 VINA RESULT:      -7.7      3.520      9.316
  Name = 
  7 active torsions:
  status: ('A' for Active; 'I' for Inactive)
    1  A    between atoms: C_5  and  N_25
    2  A    between atoms: C_11  and  C_37
    3  A    between atoms: C_15  and  C_16
    4  A    between atoms: C_15  and  C_37
    5  A    between atoms: C_16  and  C_27
    6  A    between atoms: C_16  and  C_35
    7  A    between atoms: C_19  and  C_31
                            x       y       z     vdW  Elec       q    Type
                         _______ _______ _______ _____ _____    ______ ____

>  <TORSDO>
F 7

$$$$
=
 OpenBabel11062422323D

 43 49  0  0  1  0  0  0  0  0999 V2000
  192.5200  174.9300  141.8380 C   0  0  0  0  0  0  0  0  0  0  0  0
  189.3130  173.5170  141.4990 C   0  0  0  0  0  2  0  0  0  0  0  0
  191.4860  173.1280  140.2920 C   0  0  0  0  0  2  0  0  0  0  0  0
  190.6240  175.3140  142.9440 C   0  0  0  0  0  0  0  0  0  0  0  0
  191.5630  174.1670  141.2920 N   0  0  0  0  0  0  0  0  0  0  0  0
  189.5140  171.8600  139.7610 O   0  0  0  0  0  0  0  0  0  0  0  0
  190.4360  174.3790  141.9400 C   0  0  0  0  0  0  0  0  0  0  0  0
  190.0410  172.7320  140.4330 C   0  0  0  0  0  0  0  0  0  0  0  0
  191.9770  175.6780  142.8810 C   0  0  0  0  0  3  0  0  0  0  0  0
  190.8060  175.0550  145.9730 N   0  0  0  0  0  0  0  0  0  0  0  0
  187.5420  176.7240  145.7300 C   0  0  0  0  0  0  0  0  0  0  0  0
  190.0180  176.1110  145.3540 C   0  0  2  0  0  3  0  0  0  0  0  0
  190.2020  174.6360  147.0370 C   0  0  0  0  0  3  0  0  0  0  0  0
  188.4020  176.1820  143.4840 C   0  0  0  0  0  3  0  0  0  0  0  0
  188.9140  175.2950  147.2160 C   0  0  0  0  0  2  0  0  0  0  0  0
  188.8120  176.1670  146.2260 C   0  0  2  0  0  3  0  0  0  0  0  0
  187.3650  176.7190  144.4000 C   0  0  0  0  0  3  0  0  0  0  0  0
  189.6250  175.8170  143.9160 C   0  0  0  0  0  0  0  0  0  0  0  0
  185.9410  180.1650  146.2900 C   0  0  0  0  0  2  0  0  0  0  0  0
  184.2150  178.5910  145.1750 C   0  0  0  0  0  2  0  0  0  0  0  0
  185.9410  179.4130  147.6260 C   0  0  0  0  0  2  0  0  0  0  0  0
  184.0620  177.6710  146.3930 C   0  0  0  0  0  2  0  0  0  0  0  0
  186.5080  177.1950  146.6190 N   0  0  0  0  0  0  0  0  0  0  0  0
  185.5700  179.3020  145.0770 C   0  0  0  0  0  2  0  0  0  0  0  0
  186.8450  178.1760  147.6590 C   0  0  0  0  0  2  0  0  0  0  0  0
  185.1610  176.6120  146.5340 C   0  0  0  0  0  2  0  0  0  0  0  0
  193.9510  174.9370  141.4200 C   0  0  0  0  0  2  0  0  0  0  0  0
  194.6710  173.7280  141.9930 C   0  0  0  0  0  2  0  0  0  0  0  0
  194.7480  173.8170  143.5170 C   0  0  2  0  0  3  0  0  0  0  0  0
  195.7750  175.9220  144.3120 N   0  0  0  0  0  0  0  0  0  0  0  0
  194.9390  176.4010  145.3700 C   0  0  0  0  0  0  0  0  0  0  0  0
  197.4040  175.8890  142.5950 C   0  0  0  0  0  2  0  0  0  0  0  0
  197.1870  174.4640  143.0870 C   0  0  0  0  0  2  0  0  0  0  0  0
  196.6090  176.7970  143.5130 C   0  0  0  0  0  2  0  0  0  0  0  0
  194.7810  177.6380  145.5460 O   0  0  0  0  0  0  0  0  0  0  0  0
  194.2960  175.5020  146.2120 O   0  0  0  0  0  1  0  0  0  0  0  0
  196.0140  174.5150  144.0600 C   0  0  2  0  0  3  0  0  0  0  0  0
  194.1920  169.9710  145.3610 C   0  0  0  0  0  3  0  0  0  0  0  0
  195.2420  170.8030  145.7600 C   0  0  0  0  0  3  0  0  0  0  0  0
  193.3150  170.3870  144.3540 C   0  0  0  0  0  3  0  0  0  0  0  0
  194.5440  172.4710  144.1440 C   0  0  0  0  0  0  0  0  0  0  0  0
  193.4890  171.6340  143.7480 C   0  0  0  0  0  3  0  0  0  0  0  0
  195.4180  172.0500  145.1530 C   0  0  0  0  0  3  0  0  0  0  0  0
  1  9  2  0  0  0  0
  2  7  1  0  0  0  0
  3  8  1  0  0  0  0
  3  5  1  0  0  0  0
  4 18  1  0  0  0  0
  5  1  1  0  0  0  0
  5  7  1  0  0  0  0
  6  8  2  0  0  0  0
  7  4  2  0  0  0  0
  8  2  1  0  0  0  0
  9  4  1  0  0  0  0
 10 13  2  0  0  0  0
 11 16  1  0  0  0  0
 11 23  1  0  0  0  0
 12 18  1  6  0  0  0
 12 10  1  0  0  0  0
 12 16  1  0  0  0  0
 13 15  1  0  0  0  0
 14 18  2  0  0  0  0
 14 17  1  0  0  0  0
 16 15  1  6  0  0  0
 17 11  2  0  0  0  0
 19 21  1  0  0  0  0
 20 22  1  0  0  0  0
 21 25  1  0  0  0  0
 22 26  1  0  0  0  0
 23 25  1  0  0  0  0
 24 20  1  0  0  0  0
 24 19  1  0  0  0  0
 26 23  1  0  0  0  0
 27  1  1  0  0  0  0
 27 28  1  0  0  0  0
 29 28  1  6  0  0  0
 29 41  1  0  0  0  0
 30 31  1  0  0  0  0
 31 35  2  0  0  0  0
 31 36  1  0  0  0  0
 32 33  1  0  0  0  0
 32 34  1  0  0  0  0
 33 37  1  0  0  0  0
 34 30  1  0  0  0  0
 37 29  1  6  0  0  0
 37 30  1  0  0  0  0
 38 39  1  0  0  0  0
 40 38  2  0  0  0  0
 41 43  1  0  0  0  0
 42 41  2  0  0  0  0
 42 40  1  0  0  0  0
 43 39  2  0  0  0  0
M  END
>  <MODEL>
7

>  <REMARK>
 VINA RESULT:      -7.7      2.683      9.082
  Name = 
  7 active torsions:
  status: ('A' for Active; 'I' for Inactive)
    1  A    between atoms: C_5  and  N_25
    2  A    between atoms: C_11  and  C_37
    3  A    between atoms: C_15  and  C_16
    4  A    between atoms: C_15  and  C_37
    5  A    between atoms: C_16  and  C_27
    6  A    between atoms: C_16  and  C_35
    7  A    between atoms: C_19  and  C_31
                            x       y       z     vdW  Elec       q    Type
                         _______ _______ _______ _____ _____    ______ ____

>  <TORSDO>
F 7

$$$$
=
 OpenBabel11062422323D

 43 49  0  0  1  0  0  0  0  0999 V2000
  188.7750  174.8970  141.9440 C   0  0  0  0  0  0  0  0  0  0  0  0
  190.3220  173.3560  139.1820 C   0  0  0  0  0  2  0  0  0  0  0  0
  188.1050  174.5100  139.4720 C   0  0  0  0  0  2  0  0  0  0  0  0
  190.7520  173.8880  141.7440 C   0  0  0  0  0  0  0  0  0  0  0  0
  188.8740  174.4280  140.6930 N   0  0  0  0  0  0  0  0  0  0  0  0
  188.7960  173.6420  137.3390 O   0  0  0  0  0  0  0  0  0  0  0  0
  190.0410  173.8330  140.5580 C   0  0  0  0  0  0  0  0  0  0  0  0
  189.0420  173.8130  138.5230 C   0  0  0  0  0  0  0  0  0  0  0  0
  189.9330  174.5760  142.6510 C   0  0  0  0  0  3  0  0  0  0  0  0
  191.4880  170.9520  142.0890 N   0  0  0  0  0  0  0  0  0  0  0  0
  194.7910  172.4500  142.6770 C   0  0  0  0  0  0  0  0  0  0  0  0
  192.4780  171.9320  141.6630 C   0  0  2  0  0  3  0  0  0  0  0  0
  192.0480  170.0870  142.8710 C   0  0  0  0  0  3  0  0  0  0  0  0
  193.0820  174.2080  142.4150 C   0  0  0  0  0  3  0  0  0  0  0  0
  193.4440  170.4210  143.1240 C   0  0  0  0  0  2  0  0  0  0  0  0
  193.6950  171.5030  142.4070 C   0  0  2  0  0  3  0  0  0  0  0  0
  194.4700  173.7530  142.6770 C   0  0  0  0  0  3  0  0  0  0  0  0
  192.1120  173.3630  142.0150 C   0  0  0  0  0  0  0  0  0  0  0  0
  197.0460  172.8980  145.7480 C   0  0  0  0  0  2  0  0  0  0  0  0
  196.3090  170.4210  145.5830 C   0  0  0  0  0  2  0  0  0  0  0  0
  197.9380  172.8400  144.5030 C   0  0  0  0  0  2  0  0  0  0  0  0
  197.1100  170.1260  144.3080 C   0  0  0  0  0  2  0  0  0  0  0  0
  196.1300  172.0100  142.9880 N   0  0  0  0  0  0  0  0  0  0  0  0
  195.8910  171.8880  145.7490 C   0  0  0  0  0  2  0  0  0  0  0  0
  197.1900  173.0090  143.1760 C   0  0  0  0  0  2  0  0  0  0  0  0
  196.4300  170.5710  143.0090 C   0  0  0  0  0  2  0  0  0  0  0  0
  187.6230  175.6780  142.4760 C   0  0  0  0  0  2  0  0  0  0  0  0
  187.5830  175.5880  143.9910 C   0  0  0  0  0  2  0  0  0  0  0  0
  187.8510  176.9550  144.6210 C   0  0  2  0  0  3  0  0  0  0  0  0
  190.1370  176.5380  145.4680 N   0  0  0  0  0  0  0  0  0  0  0  0
  191.0090  177.3650  144.6930 C   0  0  0  0  0  0  0  0  0  0  0  0
  189.3920  174.8150  146.9100 C   0  0  0  0  0  2  0  0  0  0  0  0
  188.3570  175.9320  146.9120 C   0  0  0  0  0  2  0  0  0  0  0  0
  190.5790  175.3160  146.1100 C   0  0  0  0  0  2  0  0  0  0  0  0
  192.1720  176.9740  144.4090 O   0  0  0  0  0  1  0  0  0  0  0  0
  190.5780  178.6090  144.2470 O   0  0  0  0  0  0  0  0  0  0  0  0
  188.7930  176.9300  145.8450 C   0  0  2  0  0  3  0  0  0  0  0  0
  184.1720  179.0280  145.4410 C   0  0  0  0  0  3  0  0  0  0  0  0
  185.0840  179.5430  144.5150 C   0  0  0  0  0  3  0  0  0  0  0  0
  184.4550  177.8320  146.1100 C   0  0  0  0  0  3  0  0  0  0  0  0
  186.5670  177.6680  144.9240 C   0  0  0  0  0  0  0  0  0  0  0  0
  185.6480  177.1530  145.8510 C   0  0  0  0  0  3  0  0  0  0  0  0
  186.2790  178.8640  144.2570 C   0  0  0  0  0  3  0  0  0  0  0  0
  1 27  1  0  0  0  0
  1  9  2  0  0  0  0
  2  7  1  0  0  0  0
  3  5  1  0  0  0  0
  4 18  1  0  0  0  0
  4  9  1  0  0  0  0
  5  1  1  0  0  0  0
  6  8  2  0  0  0  0
  7  5  1  0  0  0  0
  7  4  2  0  0  0  0
  8  2  1  0  0  0  0
  8  3  1  0  0  0  0
 10 13  2  0  0  0  0
 11 17  2  0  0  0  0
 11 23  1  0  0  0  0
 12 18  1  1  0  0  0
 12 10  1  0  0  0  0
 12 16  1  0  0  0  0
 13 15  1  0  0  0  0
 14 17  1  0  0  0  0
 16 11  1  0  0  0  0
 16 15  1  1  0  0  0
 18 14  2  0  0  0  0
 19 24  1  0  0  0  0
 20 24  1  0  0  0  0
 21 19  1  0  0  0  0
 22 20  1  0  0  0  0
 23 26  1  0  0  0  0
 23 25  1  0  0  0  0
 25 21  1  0  0  0  0
 26 22  1  0  0  0  0
 27 28  1  0  0  0  0
 29 28  1  1  0  0  0
 29 41  1  0  0  0  0
 30 37  1  0  0  0  0
 30 34  1  0  0  0  0
 31 30  1  0  0  0  0
 32 33  1  0  0  0  0
 34 32  1  0  0  0  0
 35 31  1  0  0  0  0
 36 31  2  0  0  0  0
 37 29  1  6  0  0  0
 37 33  1  0  0  0  0
 38 40  1  0  0  0  0
 39 38  2  0  0  0  0
 41 42  1  0  0  0  0
 42 40  2  0  0  0  0
 43 39  1  0  0  0  0
 43 41  2  0  0  0  0
M  END
>  <MODEL>
8

>  <REMARK>
 VINA RESULT:      -7.6      2.504      5.417
  Name = 
  7 active torsions:
  status: ('A' for Active; 'I' for Inactive)
    1  A    between atoms: C_5  and  N_25
    2  A    between atoms: C_11  and  C_37
    3  A    between atoms: C_15  and  C_16
    4  A    between atoms: C_15  and  C_37
    5  A    between atoms: C_16  and  C_27
    6  A    between atoms: C_16  and  C_35
    7  A    between atoms: C_19  and  C_31
                            x       y       z     vdW  Elec       q    Type
                         _______ _______ _______ _____ _____    ______ ____

>  <TORSDO>
F 7

$$$$
=
 OpenBabel11062422323D

 43 49  0  0  1  0  0  0  0  0999 V2000
  190.3310  177.1410  145.3400 C   0  0  0  0  0  0  0  0  0  0  0  0
  192.3570  176.3250  148.1030 C   0  0  0  0  0  2  0  0  0  0  0  0
  190.4670  177.9560  147.7950 C   0  0  0  0  0  2  0  0  0  0  0  0
  191.9980  175.6760  145.5560 C   0  0  0  0  0  0  0  0  0  0  0  0
  190.8150  177.2460  146.5860 N   0  0  0  0  0  0  0  0  0  0  0  0
  191.5450  177.6760  149.9250 O   0  0  0  0  0  0  0  0  0  0  0  0
  191.7980  176.3820  146.7300 C   0  0  0  0  0  0  0  0  0  0  0  0
  191.4670  177.3600  148.7480 C   0  0  0  0  0  0  0  0  0  0  0  0
  191.0490  176.1670  144.6470 C   0  0  0  0  0  3  0  0  0  0  0  0
  194.9180  176.0840  144.7910 N   0  0  0  0  0  0  0  0  0  0  0  0
  194.7990  172.4140  144.6850 C   0  0  0  0  0  0  0  0  0  0  0  0
  194.4730  174.8580  145.4390 C   0  0  2  0  0  3  0  0  0  0  0  0
  195.8320  175.8040  143.9210 C   0  0  0  0  0  3  0  0  0  0  0  0
  192.5520  173.3370  145.1090 C   0  0  0  0  0  3  0  0  0  0  0  0
  196.0540  174.3670  143.8220 C   0  0  0  0  0  2  0  0  0  0  0  0
  195.2570  173.8140  144.7220 C   0  0  2  0  0  3  0  0  0  0  0  0
  193.4870  172.2080  144.8740 C   0  0  0  0  0  3  0  0  0  0  0  0
  192.9830  174.5990  145.2990 C   0  0  0  0  0  0  0  0  0  0  0  0
  196.3940  169.7010  146.8810 C   0  0  0  0  0  2  0  0  0  0  0  0
  194.6300  168.6160  145.3270 C   0  0  0  0  0  2  0  0  0  0  0  0
  197.3670  170.0310  145.7430 C   0  0  0  0  0  2  0  0  0  0  0  0
  195.4180  168.8600  144.0340 C   0  0  0  0  0  2  0  0  0  0  0  0
  195.6940  171.3180  144.4010 N   0  0  0  0  0  0  0  0  0  0  0  0
  194.9230  169.6170  146.4520 C   0  0  0  0  0  2  0  0  0  0  0  0
  197.0430  171.3210  144.9820 C   0  0  0  0  0  2  0  0  0  0  0  0
  195.2770  170.2720  143.4570 C   0  0  0  0  0  2  0  0  0  0  0  0
  189.1770  177.9140  144.8020 C   0  0  0  0  0  2  0  0  0  0  0  0
  188.6400  177.2500  143.5460 C   0  0  0  0  0  2  0  0  0  0  0  0
  187.3200  176.5360  143.8340 C   0  0  2  0  0  3  0  0  0  0  0  0
  187.3550  175.8940  141.4460 N   0  0  0  0  0  0  0  0  0  0  0  0
  188.1880  174.7340  141.3550 C   0  0  0  0  0  0  0  0  0  0  0  0
  186.1260  177.8150  140.8110 C   0  0  0  0  0  2  0  0  0  0  0  0
  185.5670  177.2930  142.1290 C   0  0  0  0  0  2  0  0  0  0  0  0
  187.1480  176.8000  140.3340 C   0  0  0  0  0  2  0  0  0  0  0  0
  188.9020  174.5420  140.3360 O   0  0  0  0  0  0  0  0  0  0  0  0
  188.2120  173.8100  142.3920 O   0  0  0  0  0  1  0  0  0  0  0  0
  186.4960  176.1710  142.5800 C   0  0  2  0  0  3  0  0  0  0  0  0
  184.9820  178.6880  146.7340 C   0  0  0  0  0  3  0  0  0  0  0  0
  185.1670  177.3070  146.8560 C   0  0  0  0  0  3  0  0  0  0  0  0
  185.5570  179.3770  145.6610 C   0  0  0  0  0  3  0  0  0  0  0  0
  186.5020  177.3000  144.8320 C   0  0  0  0  0  0  0  0  0  0  0  0
  186.3160  178.6870  144.7140 C   0  0  0  0  0  3  0  0  0  0  0  0
  185.9260  176.6150  145.9070 C   0  0  0  0  0  3  0  0  0  0  0  0
  1  5  1  0  0  0  0
  2  8  1  0  0  0  0
  3  8  1  0  0  0  0
  4  7  2  0  0  0  0
  5  7  1  0  0  0  0
  5  3  1  0  0  0  0
  7  2  1  0  0  0  0
  8  6  2  0  0  0  0
  9  1  2  0  0  0  0
  9  4  1  0  0  0  0
 11 16  1  0  0  0  0
 11 17  2  0  0  0  0
 12 10  1  6  0  0  0
 13 10  2  0  0  0  0
 14 18  2  0  0  0  0
 15 13  1  0  0  0  0
 16 15  1  6  0  0  0
 16 12  1  0  0  0  0
 17 14  1  0  0  0  0
 18 12  1  0  0  0  0
 18  4  1  0  0  0  0
 20 24  1  0  0  0  0
 21 19  1  0  0  0  0
 22 20  1  0  0  0  0
 23 11  1  0  0  0  0
 23 25  1  0  0  0  0
 24 19  1  0  0  0  0
 25 21  1  0  0  0  0
 26 22  1  0  0  0  0
 26 23  1  0  0  0  0
 27  1  1  0  0  0  0
 28 27  1  0  0  0  0
 29 28  1  6  0  0  0
 29 41  1  0  0  0  0
 30 37  1  0  0  0  0
 31 30  1  0  0  0  0
 31 36  1  0  0  0  0
 32 33  1  0  0  0  0
 33 37  1  0  0  0  0
 34 32  1  0  0  0  0
 34 30  1  0  0  0  0
 35 31  2  0  0  0  0
 37 29  1  1  0  0  0
 38 39  1  0  0  0  0
 40 38  2  0  0  0  0
 41 43  1  0  0  0  0
 42 41  2  0  0  0  0
 42 40  1  0  0  0  0
 43 39  2  0  0  0  0
M  END
>  <MODEL>
9

>  <REMARK>
 VINA RESULT:      -7.6      3.469      5.144
  Name = 
  7 active torsions:
  status: ('A' for Active; 'I' for Inactive)
    1  A    between atoms: C_5  and  N_25
    2  A    between atoms: C_11  and  C_37
    3  A    between atoms: C_15  and  C_16
    4  A    between atoms: C_15  and  C_37
    5  A    between atoms: C_16  and  C_27
    6  A    between atoms: C_16  and  C_35
    7  A    between atoms: C_19  and  C_31
                            x       y       z     vdW  Elec       q    Type
                         _______ _______ _______ _____ _____    ______ ____

>  <TORSDO>
F 7

$$$$
