=
 OpenBabel11062419083D

 32 33  0  0  1  0  0  0  0  0999 V2000
  191.1360  175.9450  143.9960 C   0  0  2  0  0  3  0  0  0  0  0  0
  192.4350  175.2870  143.6730 C   0  0  0  0  0  3  0  0  0  0  0  0
  193.5020  175.9880  143.5660 N   0  0  0  0  0  0  0  0  0  0  0  0
  195.6020  175.9000  141.9790 O   0  0  0  0  0  0  0  0  0  0  0  0
  195.0010  175.2440  143.1900 S   0  0  0  0  0  0  0  0  0  0  0  0
  194.7860  173.7820  142.9200 O   0  0  0  0  0  0  0  0  0  0  0  0
  197.3980  174.8230  144.2520 N   0  0  0  0  0  2  0  0  0  0  0  0
  197.6490  173.8560  145.0330 N   0  0  0  0  0  0  0  0  0  0  0  0
  196.5850  173.6920  145.9560 C   0  0  0  0  0  3  0  0  0  0  0  0
  196.1140  175.4270  144.5710 C   0  0  2  0  0  3  0  0  0  0  0  0
  195.6480  174.5980  145.7240 C   0  0  0  0  0  2  0  0  0  0  0  0
  190.6030  176.5700  142.7980 N   0  0  0  0  0  2  0  0  0  0  0  0
  189.3160  175.9440  142.5250 C   0  0  0  0  0  2  0  0  0  0  0  0
  185.7510  177.4490  142.6860 C   0  0  0  0  0  0  0  0  0  0  0  0
  186.1030  177.2380  144.1180 C   0  0  1  0  0  3  0  0  0  0  0  0
  188.1690  176.9030  142.8150 C   0  0  1  0  0  3  0  0  0  0  0  0
  184.7310  178.0300  142.3540 O   0  0  0  0  0  0  0  0  0  0  0  0
  186.9350  176.8890  141.4790 S   0  0  0  0  0  0  0  0  0  0  0  0
  187.4630  176.5600  144.1220 C   0  0  0  0  0  2  0  0  0  0  0  0
  186.1990  178.4760  144.7650 O   0  0  0  0  0  0  0  0  0  0  0  0
  185.1590  178.3770  146.1030 P   0  0  0  0  0  0  0  0  0  0  0  0
  183.6140  178.8820  145.6380 O   0  0  0  0  0  0  0  0  0  0  0  0
  185.0740  176.7790  146.6570 O   0  0  0  0  0  1  0  0  0  0  0  0
  185.6600  179.2710  147.2140 O   0  0  0  0  0  1  0  0  0  0  0  0
  191.3420  176.9570  145.0220 N   0  0  0  0  0  2  0  0  0  0  0  0
  190.8740  176.4000  146.2840 C   0  0  2  0  0  3  0  0  0  0  0  0
  191.6800  176.8260  148.4800 F   0  0  0  0  0  0  0  0  0  0  0  0
  192.0290  176.2440  147.2750 C   0  0  0  0  0  0  0  0  0  0  0  0
  193.1730  176.8560  146.7950 F   0  0  0  0  0  0  0  0  0  0  0  0
  192.2870  174.9010  147.4900 F   0  0  0  0  0  0  0  0  0  0  0  0
  189.0610  174.8430  147.1500 C   0  0  0  0  0  1  0  0  0  0  0  0
  190.0880  175.1030  146.0590 C   0  0  0  0  0  2  0  0  0  0  0  0
  1  2  1  6  0  0  0
  1 25  1  0  0  0  0
  3  2  2  0  0  0  0
  4  5  2  0  0  0  0
  5  3  1  0  0  0  0
  6  5  2  0  0  0  0
  7 10  1  0  0  0  0
  7  8  1  0  0  0  0
  8  9  2  0  0  0  0
 10  5  1  6  0  0  0
 10 11  1  0  0  0  0
 11  9  1  0  0  0  0
 12  1  1  0  0  0  0
 13 12  1  0  0  0  0
 14 15  1  0  0  0  0
 15 19  1  0  0  0  0
 15 20  1  1  0  0  0
 16 13  1  6  0  0  0
 16 19  1  0  0  0  0
 17 14  2  0  0  0  0
 18 14  1  0  0  0  0
 18 16  1  0  0  0  0
 20 21  1  0  0  0  0
 21 23  1  0  0  0  0
 21 24  1  0  0  0  0
 22 21  2  0  0  0  0
 25 26  1  0  0  0  0
 26 32  1  6  0  0  0
 26 28  1  0  0  0  0
 28 30  1  0  0  0  0
 28 27  1  0  0  0  0
 29 28  1  0  0  0  0
 32 31  1  0  0  0  0
M  END
>  <MODEL>
1

>  <REMARK>
 VINA RESULT:      -6.4      0.000      0.000
  Name = 
  12 active torsions:
  status: ('A' for Active; 'I' for Inactive)
    1  A    between atoms: P_3  and  O_14
    2  A    between atoms: N_7  and  C_22
    3  A    between atoms: N_7  and  C_30
    4  A    between atoms: C_10  and  O_14
    5  A    between atoms: C_11  and  S_17
    6  A    between atoms: C_12  and  C_22
    7  A    between atoms: C_15  and  C_18
    8  A    between atoms: C_15  and  C_24
    9  A    between atoms: C_15  and  N_32
   10  A    between atoms: S_17  and  N_29
   11  A    between atoms: C_23  and  C_30
   12  A    between atoms: C_30  and  N_32
                            x       y       z     vdW  Elec       q    Type
                         _______ _______ _______ _____ _____    ______ ____

>  <TORSDO>
F 12

$$$$
=
 OpenBabel11062419083D

 32 33  0  0  1  0  0  0  0  0999 V2000
  191.7980  176.3380  143.8510 C   0  0  2  0  0  3  0  0  0  0  0  0
  193.1080  176.2410  143.1460 C   0  0  0  0  0  3  0  0  0  0  0  0
  194.1840  176.0410  143.8120 N   0  0  0  0  0  0  0  0  0  0  0  0
  196.6010  177.0360  143.4860 O   0  0  0  0  0  0  0  0  0  0  0  0
  195.6980  175.9320  143.0140 S   0  0  0  0  0  0  0  0  0  0  0  0
  195.4950  176.0440  141.5290 O   0  0  0  0  0  0  0  0  0  0  0  0
  195.4480  173.4420  143.9010 N   0  0  0  0  0  0  0  0  0  0  0  0
  195.7180  173.1010  145.0920 N   0  0  0  0  0  0  0  0  0  0  0  0
  196.9120  173.7350  145.5170 C   0  0  0  0  0  3  0  0  0  0  0  0
  196.4500  174.3590  143.3850 C   0  0  2  0  0  3  0  0  0  0  0  0
  197.3870  174.4940  144.5410 C   0  0  0  0  0  3  0  0  0  0  0  0
  190.9170  177.2240  143.1090 N   0  0  0  0  0  2  0  0  0  0  0  0
  189.7830  176.4250  142.6630 C   0  0  0  0  0  2  0  0  0  0  0  0
  185.9850  177.1310  142.9370 C   0  0  0  0  0  0  0  0  0  0  0  0
  186.4480  177.1720  144.3520 C   0  0  1  0  0  3  0  0  0  0  0  0
  188.4680  177.1400  142.9380 C   0  0  1  0  0  3  0  0  0  0  0  0
  184.8460  177.4340  142.6250 O   0  0  0  0  0  0  0  0  0  0  0  0
  187.2010  176.7020  141.7090 S   0  0  0  0  0  0  0  0  0  0  0  0
  187.9240  176.8100  144.3230 C   0  0  0  0  0  2  0  0  0  0  0  0
  186.2990  178.4690  144.8580 O   0  0  0  0  0  0  0  0  0  0  0  0
  185.2320  178.3300  146.1700 P   0  0  0  0  0  0  0  0  0  0  0  0
  185.8130  179.2630  147.4540 O   0  0  0  0  0  1  0  0  0  0  0  0
  183.6950  178.8880  145.7320 O   0  0  0  0  0  0  0  0  0  0  0  0
  185.1380  176.8860  146.6100 O   0  0  0  0  0  1  0  0  0  0  0  0
  192.0020  176.8680  145.1920 N   0  0  0  0  0  2  0  0  0  0  0  0
  191.1090  176.1420  146.0870 C   0  0  2  0  0  3  0  0  0  0  0  0
  192.7070  176.9450  147.6540 F   0  0  0  0  0  0  0  0  0  0  0  0
  191.4090  176.4800  147.5490 C   0  0  0  0  0  0  0  0  0  0  0  0
  191.2680  175.3600  148.3500 F   0  0  0  0  0  0  0  0  0  0  0  0
  190.5470  177.4680  147.9900 F   0  0  0  0  0  0  0  0  0  0  0  0
  189.7440  174.0200  145.7870 C   0  0  0  0  0  1  0  0  0  0  0  0
  191.1340  174.6380  145.7940 C   0  0  0  0  0  2  0  0  0  0  0  0
  1  2  1  6  0  0  0
  1 25  1  0  0  0  0
  2  3  2  0  0  0  0
  5  4  2  0  0  0  0
  5  3  1  0  0  0  0
  6  5  2  0  0  0  0
  7  8  2  0  0  0  0
  8  9  1  0  0  0  0
 10  5  1  1  0  0  0
 10  7  1  0  0  0  0
 10 11  1  0  0  0  0
 11  9  2  0  0  0  0
 12  1  1  0  0  0  0
 13 12  1  0  0  0  0
 14 15  1  0  0  0  0
 15 20  1  6  0  0  0
 16 13  1  6  0  0  0
 16 19  1  0  0  0  0
 17 14  2  0  0  0  0
 18 14  1  0  0  0  0
 18 16  1  0  0  0  0
 19 15  1  0  0  0  0
 20 21  1  0  0  0  0
 21 24  1  0  0  0  0
 21 22  1  0  0  0  0
 23 21  2  0  0  0  0
 25 26  1  0  0  0  0
 26 32  1  1  0  0  0
 26 28  1  0  0  0  0
 28 27  1  0  0  0  0
 28 30  1  0  0  0  0
 28 29  1  0  0  0  0
 31 32  1  0  0  0  0
M  END
>  <MODEL>
2

>  <REMARK>
 VINA RESULT:      -6.3      1.114      1.613
  Name = 
  12 active torsions:
  status: ('A' for Active; 'I' for Inactive)
    1  A    between atoms: P_3  and  O_14
    2  A    between atoms: N_7  and  C_22
    3  A    between atoms: N_7  and  C_30
    4  A    between atoms: C_10  and  O_14
    5  A    between atoms: C_11  and  S_17
    6  A    between atoms: C_12  and  C_22
    7  A    between atoms: C_15  and  C_18
    8  A    between atoms: C_15  and  C_24
    9  A    between atoms: C_15  and  N_32
   10  A    between atoms: S_17  and  N_29
   11  A    between atoms: C_23  and  C_30
   12  A    between atoms: C_30  and  N_32
                            x       y       z     vdW  Elec       q    Type
                         _______ _______ _______ _____ _____    ______ ____

>  <TORSDO>
F 12

$$$$
=
 OpenBabel11062419083D

 32 33  0  0  1  0  0  0  0  0999 V2000
  189.3190  176.9210  143.8300 C   0  0  2  0  0  3  0  0  0  0  0  0
  188.0760  177.7450  143.8610 C   0  0  0  0  0  3  0  0  0  0  0  0
  186.9310  177.1780  143.9610 N   0  0  0  0  0  0  0  0  0  0  0  0
  184.5490  177.6280  142.9300 O   0  0  0  0  0  0  0  0  0  0  0  0
  185.4940  178.1140  143.9930 S   0  0  0  0  0  0  0  0  0  0  0  0
  185.8260  179.5590  143.7520 O   0  0  0  0  0  0  0  0  0  0  0  0
  185.0430  179.1000  146.4170 N   0  0  0  0  0  0  0  0  0  0  0  0
  185.7010  178.7470  147.4410 N   0  0  0  0  0  0  0  0  0  0  0  0
  185.8960  177.3430  147.4300 C   0  0  0  0  0  3  0  0  0  0  0  0
  184.7160  177.9500  145.5890 C   0  0  2  0  0  3  0  0  0  0  0  0
  185.3320  176.8220  146.3510 C   0  0  0  0  0  3  0  0  0  0  0  0
  190.4070  177.6700  144.4330 N   0  0  0  0  0  2  0  0  0  0  0  0
  190.6970  177.0460  145.7170 C   0  0  0  0  0  2  0  0  0  0  0  0
  193.6670  174.5830  145.3770 C   0  0  0  0  0  0  0  0  0  0  0  0
  193.9700  175.6340  144.3660 C   0  0  1  0  0  3  0  0  0  0  0  0
  192.1110  176.4820  145.7450 C   0  0  1  0  0  3  0  0  0  0  0  0
  194.4600  173.6940  145.6370 O   0  0  0  0  0  0  0  0  0  0  0  0
  192.1230  174.7360  146.2520 S   0  0  0  0  0  0  0  0  0  0  0  0
  192.7890  176.5900  144.3840 C   0  0  0  0  0  2  0  0  0  0  0  0
  195.1300  176.3230  144.7390 O   0  0  0  0  0  0  0  0  0  0  0  0
  196.2890  175.9450  143.5570 P   0  0  0  0  0  0  0  0  0  0  0  0
  197.3400  174.7710  144.1700 O   0  0  0  0  0  1  0  0  0  0  0  0
  195.5300  175.3360  142.1710 O   0  0  0  0  0  0  0  0  0  0  0  0
  197.0820  177.1800  143.1970 O   0  0  0  0  0  1  0  0  0  0  0  0
  189.6570  176.5970  142.4510 N   0  0  0  0  0  2  0  0  0  0  0  0
  189.4460  175.1660  142.2760 C   0  0  2  0  0  3  0  0  0  0  0  0
  187.1680  174.4910  142.2180 F   0  0  0  0  0  0  0  0  0  0  0  0
  188.2140  174.8970  141.4100 C   0  0  0  0  0  0  0  0  0  0  0  0
  188.4740  173.9050  140.4810 F   0  0  0  0  0  0  0  0  0  0  0  0
  187.8420  176.0540  140.7500 F   0  0  0  0  0  0  0  0  0  0  0  0
  189.9040  173.0070  143.5380 C   0  0  0  0  0  1  0  0  0  0  0  0
  189.4090  174.4430  143.6270 C   0  0  0  0  0  2  0  0  0  0  0  0
  1  2  1  6  0  0  0
  1 12  1  0  0  0  0
  2  3  2  0  0  0  0
  3  5  1  0  0  0  0
  4  5  2  0  0  0  0
  6  5  2  0  0  0  0
  7  8  2  0  0  0  0
  9  8  1  0  0  0  0
 10  5  1  6  0  0  0
 10 11  1  0  0  0  0
 10  7  1  0  0  0  0
 11  9  2  0  0  0  0
 12 13  1  0  0  0  0
 14 17  2  0  0  0  0
 14 18  1  0  0  0  0
 15 19  1  0  0  0  0
 15 20  1  1  0  0  0
 15 14  1  0  0  0  0
 16 13  1  6  0  0  0
 16 18  1  0  0  0  0
 19 16  1  0  0  0  0
 21 22  1  0  0  0  0
 21 20  1  0  0  0  0
 23 21  2  0  0  0  0
 24 21  1  0  0  0  0
 25  1  1  0  0  0  0
 26 25  1  0  0  0  0
 26 32  1  1  0  0  0
 28 27  1  0  0  0  0
 28 26  1  0  0  0  0
 29 28  1  0  0  0  0
 30 28  1  0  0  0  0
 31 32  1  0  0  0  0
M  END
>  <MODEL>
3

>  <REMARK>
 VINA RESULT:      -6.2      4.277      8.924
  Name = 
  12 active torsions:
  status: ('A' for Active; 'I' for Inactive)
    1  A    between atoms: P_3  and  O_14
    2  A    between atoms: N_7  and  C_22
    3  A    between atoms: N_7  and  C_30
    4  A    between atoms: C_10  and  O_14
    5  A    between atoms: C_11  and  S_17
    6  A    between atoms: C_12  and  C_22
    7  A    between atoms: C_15  and  C_18
    8  A    between atoms: C_15  and  C_24
    9  A    between atoms: C_15  and  N_32
   10  A    between atoms: S_17  and  N_29
   11  A    between atoms: C_23  and  C_30
   12  A    between atoms: C_30  and  N_32
                            x       y       z     vdW  Elec       q    Type
                         _______ _______ _______ _____ _____    ______ ____

>  <TORSDO>
F 12

$$$$
=
 OpenBabel11062419083D

 32 33  0  0  1  0  0  0  0  0999 V2000
  191.4060  175.9740  144.0780 C   0  0  2  0  0  3  0  0  0  0  0  0
  192.8050  175.5070  143.8510 C   0  0  0  0  0  3  0  0  0  0  0  0
  193.7880  176.3060  144.0430 N   0  0  0  0  0  0  0  0  0  0  0  0
  195.8060  174.8260  144.8680 O   0  0  0  0  0  0  0  0  0  0  0  0
  195.4000  175.7830  143.7820 S   0  0  0  0  0  0  0  0  0  0  0  0
  196.3220  176.9690  143.7820 O   0  0  0  0  0  0  0  0  0  0  0  0
  196.8320  174.3860  142.0360 N   0  0  0  0  0  2  0  0  0  0  0  0
  197.4320  174.9150  141.0520 N   0  0  0  0  0  0  0  0  0  0  0  0
  196.6010  175.8910  140.4480 C   0  0  0  0  0  3  0  0  0  0  0  0
  195.5070  174.9590  142.2040 C   0  0  2  0  0  3  0  0  0  0  0  0
  195.4470  175.9580  141.0940 C   0  0  0  0  0  2  0  0  0  0  0  0
  190.8950  176.5680  142.8550 N   0  0  0  0  0  2  0  0  0  0  0  0
  189.5490  176.0470  142.6560 C   0  0  0  0  0  2  0  0  0  0  0  0
  186.2300  178.0430  142.6940 C   0  0  0  0  0  0  0  0  0  0  0  0
  186.2930  177.4500  144.0590 C   0  0  1  0  0  3  0  0  0  0  0  0
  188.4980  177.0890  143.0170 C   0  0  1  0  0  3  0  0  0  0  0  0
  185.3660  178.8450  142.3810 O   0  0  0  0  0  0  0  0  0  0  0  0
  187.5290  177.5890  141.5630 S   0  0  0  0  0  0  0  0  0  0  0  0
  187.5350  176.5740  144.0810 C   0  0  0  0  0  2  0  0  0  0  0  0
  186.4290  178.4700  145.0080 O   0  0  0  0  0  0  0  0  0  0  0  0
  185.1610  178.2410  146.1130 P   0  0  0  0  0  0  0  0  0  0  0  0
  185.5330  179.0460  147.5530 O   0  0  0  0  0  1  0  0  0  0  0  0
  183.7200  178.8700  145.4840 O   0  0  0  0  0  0  0  0  0  0  0  0
  184.9860  176.7670  146.4000 O   0  0  0  0  0  1  0  0  0  0  0  0
  191.3880  176.9650  145.1450 N   0  0  0  0  0  2  0  0  0  0  0  0
  190.8670  176.3090  146.3380 C   0  0  2  0  0  3  0  0  0  0  0  0
  191.4610  176.4420  148.6360 F   0  0  0  0  0  0  0  0  0  0  0  0
  191.9670  176.1320  147.3870 C   0  0  0  0  0  0  0  0  0  0  0  0
  193.0400  176.9630  147.1190 F   0  0  0  0  0  0  0  0  0  0  0  0
  192.3990  174.8170  147.3980 F   0  0  0  0  0  0  0  0  0  0  0  0
  189.1350  174.5850  147.0370 C   0  0  0  0  0  1  0  0  0  0  0  0
  190.1500  175.0020  145.9830 C   0  0  0  0  0  2  0  0  0  0  0  0
  1  2  1  6  0  0  0
  1 25  1  0  0  0  0
  2  3  2  0  0  0  0
  5  6  2  0  0  0  0
  5  3  1  0  0  0  0
  5  4  2  0  0  0  0
  7 10  1  0  0  0  0
  8  7  1  0  0  0  0
  9  8  2  0  0  0  0
  9 11  1  0  0  0  0
 10  5  1  1  0  0  0
 11 10  1  0  0  0  0
 12  1  1  0  0  0  0
 13 12  1  0  0  0  0
 14 15  1  0  0  0  0
 15 19  1  0  0  0  0
 15 20  1  1  0  0  0
 16 13  1  6  0  0  0
 16 19  1  0  0  0  0
 17 14  2  0  0  0  0
 18 14  1  0  0  0  0
 18 16  1  0  0  0  0
 20 21  1  0  0  0  0
 21 24  1  0  0  0  0
 21 22  1  0  0  0  0
 23 21  2  0  0  0  0
 25 26  1  0  0  0  0
 26 32  1  6  0  0  0
 26 28  1  0  0  0  0
 28 30  1  0  0  0  0
 28 27  1  0  0  0  0
 29 28  1  0  0  0  0
 32 31  1  0  0  0  0
M  END
>  <MODEL>
4

>  <REMARK>
 VINA RESULT:      -6.2      1.462      2.072
  Name = 
  12 active torsions:
  status: ('A' for Active; 'I' for Inactive)
    1  A    between atoms: P_3  and  O_14
    2  A    between atoms: N_7  and  C_22
    3  A    between atoms: N_7  and  C_30
    4  A    between atoms: C_10  and  O_14
    5  A    between atoms: C_11  and  S_17
    6  A    between atoms: C_12  and  C_22
    7  A    between atoms: C_15  and  C_18
    8  A    between atoms: C_15  and  C_24
    9  A    between atoms: C_15  and  N_32
   10  A    between atoms: S_17  and  N_29
   11  A    between atoms: C_23  and  C_30
   12  A    between atoms: C_30  and  N_32
                            x       y       z     vdW  Elec       q    Type
                         _______ _______ _______ _____ _____    ______ ____

>  <TORSDO>
F 12

$$$$
=
 OpenBabel11062419083D

 32 33  0  0  1  0  0  0  0  0999 V2000
  188.1100  177.3350  146.0000 C   0  0  2  0  0  3  0  0  0  0  0  0
  188.4650  177.2010  144.5580 C   0  0  0  0  0  3  0  0  0  0  0  0
  187.8300  176.3750  143.8130 N   0  0  0  0  0  0  0  0  0  0  0  0
  187.5280  175.0090  141.5800 O   0  0  0  0  0  0  0  0  0  0  0  0
  188.2310  176.2080  142.1540 S   0  0  0  0  0  0  0  0  0  0  0  0
  189.7170  176.0400  142.0080 O   0  0  0  0  0  0  0  0  0  0  0  0
  186.6770  178.3560  142.0170 N   0  0  0  0  0  0  0  0  0  0  0  0
  185.5930  178.3850  141.3600 N   0  0  0  0  0  0  0  0  0  0  0  0
  185.7670  177.7340  140.1130 C   0  0  0  0  0  3  0  0  0  0  0  0
  187.7170  177.6690  141.2710 C   0  0  2  0  0  3  0  0  0  0  0  0
  187.0090  177.2880  140.0100 C   0  0  0  0  0  3  0  0  0  0  0  0
  188.9150  176.4110  146.7800 N   0  0  0  0  0  2  0  0  0  0  0  0
  190.2410  177.0010  146.9090 C   0  0  0  0  0  2  0  0  0  0  0  0
  191.9840  174.3120  144.7340 C   0  0  0  0  0  0  0  0  0  0  0  0
  192.7080  175.5650  144.3820 C   0  0  1  0  0  3  0  0  0  0  0  0
  191.3100  176.0730  146.3480 C   0  0  1  0  0  3  0  0  0  0  0  0
  192.3480  173.2220  144.3240 O   0  0  0  0  0  0  0  0  0  0  0  0
  190.6090  174.4690  145.8550 S   0  0  0  0  0  0  0  0  0  0  0  0
  192.0080  176.6830  145.1380 C   0  0  0  0  0  2  0  0  0  0  0  0
  194.0370  175.4760  144.8120 O   0  0  0  0  0  0  0  0  0  0  0  0
  194.9860  175.6940  143.4220 P   0  0  0  0  0  0  0  0  0  0  0  0
  196.2250  176.7920  143.7660 O   0  0  0  0  0  1  0  0  0  0  0  0
  195.6700  174.2200  142.9460 O   0  0  0  0  0  1  0  0  0  0  0  0
  194.1370  176.2430  142.2980 O   0  0  0  0  0  0  0  0  0  0  0  0
  186.6990  177.0280  146.1870 N   0  0  0  0  0  2  0  0  0  0  0  0
  185.9750  178.2930  146.1900 C   0  0  2  0  0  3  0  0  0  0  0  0
  185.9170  179.9590  147.8850 F   0  0  0  0  0  0  0  0  0  0  0  0
  185.5270  178.6620  147.6060 C   0  0  0  0  0  0  0  0  0  0  0  0
  186.0960  177.8130  148.5380 F   0  0  0  0  0  0  0  0  0  0  0  0
  184.1490  178.5840  147.6980 F   0  0  0  0  0  0  0  0  0  0  0  0
  184.5930  179.6350  144.5330 C   0  0  0  0  0  1  0  0  0  0  0  0
  184.8280  178.2760  145.1750 C   0  0  0  0  0  2  0  0  0  0  0  0
  1  2  1  6  0  0  0
  1 25  1  0  0  0  0
  1 12  1  0  0  0  0
  3  2  2  0  0  0  0
  4  5  2  0  0  0  0
  5  3  1  0  0  0  0
  6  5  2  0  0  0  0
  8  7  2  0  0  0  0
  9  8  1  0  0  0  0
 10  7  1  0  0  0  0
 10  5  1  1  0  0  0
 11  9  2  0  0  0  0
 11 10  1  0  0  0  0
 12 13  1  0  0  0  0
 14 18  1  0  0  0  0
 15 14  1  0  0  0  0
 15 20  1  1  0  0  0
 15 19  1  0  0  0  0
 16 13  1  6  0  0  0
 17 14  2  0  0  0  0
 18 16  1  0  0  0  0
 19 16  1  0  0  0  0
 21 22  1  0  0  0  0
 21 20  1  0  0  0  0
 23 21  1  0  0  0  0
 24 21  2  0  0  0  0
 25 26  1  0  0  0  0
 26 32  1  6  0  0  0
 26 28  1  0  0  0  0
 28 30  1  0  0  0  0
 28 27  1  0  0  0  0
 28 29  1  0  0  0  0
 31 32  1  0  0  0  0
M  END
>  <MODEL>
5

>  <REMARK>
 VINA RESULT:      -6.2      4.840      8.200
  Name = 
  12 active torsions:
  status: ('A' for Active; 'I' for Inactive)
    1  A    between atoms: P_3  and  O_14
    2  A    between atoms: N_7  and  C_22
    3  A    between atoms: N_7  and  C_30
    4  A    between atoms: C_10  and  O_14
    5  A    between atoms: C_11  and  S_17
    6  A    between atoms: C_12  and  C_22
    7  A    between atoms: C_15  and  C_18
    8  A    between atoms: C_15  and  C_24
    9  A    between atoms: C_15  and  N_32
   10  A    between atoms: S_17  and  N_29
   11  A    between atoms: C_23  and  C_30
   12  A    between atoms: C_30  and  N_32
                            x       y       z     vdW  Elec       q    Type
                         _______ _______ _______ _____ _____    ______ ____

>  <TORSDO>
F 12

$$$$
=
 OpenBabel11062419083D

 32 33  0  0  1  0  0  0  0  0999 V2000
  191.6480  175.5510  143.6920 C   0  0  2  0  0  3  0  0  0  0  0  0
  192.8140  175.8720  142.8200 C   0  0  0  0  0  3  0  0  0  0  0  0
  193.7000  174.9790  142.5760 N   0  0  0  0  0  0  0  0  0  0  0  0
  195.0590  176.8010  141.2460 O   0  0  0  0  0  0  0  0  0  0  0  0
  195.0490  175.3360  141.5790 S   0  0  0  0  0  0  0  0  0  0  0  0
  194.9680  174.5300  140.3130 O   0  0  0  0  0  0  0  0  0  0  0  0
  196.5430  173.5080  142.7930 N   0  0  0  0  0  0  0  0  0  0  0  0
  196.5630  173.3550  144.0520 N   0  0  0  0  0  0  0  0  0  0  0  0
  196.5850  174.6190  144.6920 C   0  0  0  0  0  3  0  0  0  0  0  0
  196.5510  174.9190  142.4430 C   0  0  2  0  0  3  0  0  0  0  0  0
  196.5780  175.5810  143.7820 C   0  0  0  0  0  3  0  0  0  0  0  0
  190.4190  175.8890  142.9950 N   0  0  0  0  0  2  0  0  0  0  0  0
  190.2780  177.3380  143.0550 C   0  0  0  0  0  2  0  0  0  0  0  0
  186.4100  177.1420  143.1040 C   0  0  0  0  0  0  0  0  0  0  0  0
  186.7620  177.4000  144.5280 C   0  0  1  0  0  3  0  0  0  0  0  0
  188.8170  177.7390  143.2090 C   0  0  1  0  0  3  0  0  0  0  0  0
  185.2530  177.1410  142.7180 O   0  0  0  0  0  0  0  0  0  0  0  0
  187.7660  176.9210  141.9710 S   0  0  0  0  0  0  0  0  0  0  0  0
  188.2800  177.3960  144.5950 C   0  0  0  0  0  2  0  0  0  0  0  0
  186.2840  178.6590  144.9100 O   0  0  0  0  0  0  0  0  0  0  0  0
  185.2060  178.3730  146.1900 P   0  0  0  0  0  0  0  0  0  0  0  0
  183.6670  178.9120  145.7460 O   0  0  0  0  0  0  0  0  0  0  0  0
  185.1340  176.7160  146.5300 O   0  0  0  0  0  1  0  0  0  0  0  0
  185.6570  179.1220  147.4220 O   0  0  0  0  0  1  0  0  0  0  0  0
  191.7340  176.3200  144.9260 N   0  0  0  0  0  2  0  0  0  0  0  0
  191.9160  175.3720  146.0180 C   0  0  2  0  0  3  0  0  0  0  0  0
  191.3820  175.0780  148.3160 F   0  0  0  0  0  0  0  0  0  0  0  0
  190.9090  175.6320  147.1400 C   0  0  0  0  0  0  0  0  0  0  0  0
  189.6820  175.0670  146.8400 F   0  0  0  0  0  0  0  0  0  0  0  0
  190.7520  176.9940  147.3240 F   0  0  0  0  0  0  0  0  0  0  0  0
  194.0140  176.7330  146.4690 C   0  0  0  0  0  1  0  0  0  0  0  0
  193.3710  175.3550  146.4990 C   0  0  0  0  0  2  0  0  0  0  0  0
  1  2  1  6  0  0  0
  1 25  1  0  0  0  0
  3  2  2  0  0  0  0
  4  5  2  0  0  0  0
  5  3  1  0  0  0  0
  6  5  2  0  0  0  0
  7  8  2  0  0  0  0
  8  9  1  0  0  0  0
 10  5  1  1  0  0  0
 10  7  1  0  0  0  0
 10 11  1  0  0  0  0
 11  9  2  0  0  0  0
 12 13  1  0  0  0  0
 12  1  1  0  0  0  0
 14 15  1  0  0  0  0
 15 19  1  0  0  0  0
 15 20  1  6  0  0  0
 16 13  1  1  0  0  0
 16 19  1  0  0  0  0
 17 14  2  0  0  0  0
 18 14  1  0  0  0  0
 18 16  1  0  0  0  0
 20 21  1  0  0  0  0
 21 23  1  0  0  0  0
 21 24  1  0  0  0  0
 22 21  2  0  0  0  0
 25 26  1  0  0  0  0
 26 32  1  1  0  0  0
 26 28  1  0  0  0  0
 28 30  1  0  0  0  0
 28 27  1  0  0  0  0
 29 28  1  0  0  0  0
 31 32  1  0  0  0  0
M  END
>  <MODEL>
6

>  <REMARK>
 VINA RESULT:      -6.1      1.370      1.895
  Name = 
  12 active torsions:
  status: ('A' for Active; 'I' for Inactive)
    1  A    between atoms: P_3  and  O_14
    2  A    between atoms: N_7  and  C_22
    3  A    between atoms: N_7  and  C_30
    4  A    between atoms: C_10  and  O_14
    5  A    between atoms: C_11  and  S_17
    6  A    between atoms: C_12  and  C_22
    7  A    between atoms: C_15  and  C_18
    8  A    between atoms: C_15  and  C_24
    9  A    between atoms: C_15  and  N_32
   10  A    between atoms: S_17  and  N_29
   11  A    between atoms: C_23  and  C_30
   12  A    between atoms: C_30  and  N_32
                            x       y       z     vdW  Elec       q    Type
                         _______ _______ _______ _____ _____    ______ ____

>  <TORSDO>
F 12

$$$$
=
 OpenBabel11062419083D

 32 33  0  0  1  0  0  0  0  0999 V2000
  190.3340  177.7090  145.0160 C   0  0  2  0  0  3  0  0  0  0  0  0
  189.1760  177.7170  144.0760 C   0  0  0  0  0  3  0  0  0  0  0  0
  187.9780  177.7190  144.5320 N   0  0  0  0  0  0  0  0  0  0  0  0
  186.7900  176.6170  142.4550 O   0  0  0  0  0  0  0  0  0  0  0  0
  186.6380  177.7230  143.4620 S   0  0  0  0  0  0  0  0  0  0  0  0
  186.5600  179.0450  142.7540 O   0  0  0  0  0  0  0  0  0  0  0  0
  184.4440  178.7330  144.5660 N   0  0  0  0  0  2  0  0  0  0  0  0
  184.3660  179.0400  145.7930 N   0  0  0  0  0  0  0  0  0  0  0  0
  184.9860  178.0400  146.5830 C   0  0  0  0  0  3  0  0  0  0  0  0
  185.1380  177.4670  144.3920 C   0  0  2  0  0  3  0  0  0  0  0  0
  185.4620  177.0840  145.8000 C   0  0  0  0  0  2  0  0  0  0  0  0
  191.2590  176.6580  144.6290 N   0  0  0  0  0  2  0  0  0  0  0  0
  191.3740  176.7020  143.1770 C   0  0  0  0  0  2  0  0  0  0  0  0
  190.9020  172.8760  142.8050 C   0  0  0  0  0  0  0  0  0  0  0  0
  190.0090  173.4400  141.7530 C   0  0  1  0  0  3  0  0  0  0  0  0
  191.3970  175.2990  142.5870 C   0  0  1  0  0  3  0  0  0  0  0  0
  191.1030  171.6770  142.9020 O   0  0  0  0  0  0  0  0  0  0  0  0
  191.7320  174.0450  143.8610 S   0  0  0  0  0  0  0  0  0  0  0  0
  190.0770  174.9500  141.9080 C   0  0  0  0  0  2  0  0  0  0  0  0
  190.4880  173.0800  140.4890 O   0  0  0  0  0  0  0  0  0  0  0  0
  189.1090  172.8110  139.5350 P   0  0  0  0  0  0  0  0  0  0  0  0
  188.8910  174.1270  138.4970 O   0  0  0  0  0  0  0  0  0  0  0  0
  189.3060  171.4060  138.6110 O   0  0  0  0  0  1  0  0  0  0  0  0
  187.8900  172.6680  140.4180 O   0  0  0  0  0  1  0  0  0  0  0  0
  189.8630  177.4670  146.3720 N   0  0  0  0  0  2  0  0  0  0  0  0
  190.2810  176.1220  146.7440 C   0  0  2  0  0  3  0  0  0  0  0  0
  188.8370  174.6210  145.5990 F   0  0  0  0  0  0  0  0  0  0  0  0
  189.0780  175.1820  146.8390 C   0  0  0  0  0  0  0  0  0  0  0  0
  187.9490  175.8700  147.2480 F   0  0  0  0  0  0  0  0  0  0  0  0
  189.3440  174.1670  147.7410 F   0  0  0  0  0  0  0  0  0  0  0  0
  191.2590  177.5310  148.6200 C   0  0  0  0  0  1  0  0  0  0  0  0
  191.1390  176.1410  148.0150 C   0  0  0  0  0  2  0  0  0  0  0  0
  1  2  1  6  0  0  0
  1 25  1  0  0  0  0
  2  3  2  0  0  0  0
  4  5  2  0  0  0  0
  5  3  1  0  0  0  0
  6  5  2  0  0  0  0
  7  8  1  0  0  0  0
  8  9  2  0  0  0  0
 10  5  1  6  0  0  0
 10  7  1  0  0  0  0
 10 11  1  0  0  0  0
 11  9  1  0  0  0  0
 12  1  1  0  0  0  0
 13 12  1  0  0  0  0
 14 17  2  0  0  0  0
 14 18  1  0  0  0  0
 15 20  1  6  0  0  0
 15 19  1  0  0  0  0
 15 14  1  0  0  0  0
 16 13  1  1  0  0  0
 16 18  1  0  0  0  0
 19 16  1  0  0  0  0
 21 24  1  0  0  0  0
 21 20  1  0  0  0  0
 22 21  2  0  0  0  0
 23 21  1  0  0  0  0
 25 26  1  0  0  0  0
 26 28  1  0  0  0  0
 26 32  1  1  0  0  0
 27 28  1  0  0  0  0
 28 29  1  0  0  0  0
 28 30  1  0  0  0  0
 32 31  1  0  0  0  0
M  END
>  <MODEL>
7

>  <REMARK>
 VINA RESULT:      -6.1      3.985      7.657
  Name = 
  12 active torsions:
  status: ('A' for Active; 'I' for Inactive)
    1  A    between atoms: P_3  and  O_14
    2  A    between atoms: N_7  and  C_22
    3  A    between atoms: N_7  and  C_30
    4  A    between atoms: C_10  and  O_14
    5  A    between atoms: C_11  and  S_17
    6  A    between atoms: C_12  and  C_22
    7  A    between atoms: C_15  and  C_18
    8  A    between atoms: C_15  and  C_24
    9  A    between atoms: C_15  and  N_32
   10  A    between atoms: S_17  and  N_29
   11  A    between atoms: C_23  and  C_30
   12  A    between atoms: C_30  and  N_32
                            x       y       z     vdW  Elec       q    Type
                         _______ _______ _______ _____ _____    ______ ____

>  <TORSDO>
F 12

$$$$
=
 OpenBabel11062419083D

 32 33  0  0  1  0  0  0  0  0999 V2000
  189.0860  175.7990  145.0260 C   0  0  2  0  0  3  0  0  0  0  0  0
  187.8940  176.2830  145.7800 C   0  0  0  0  0  3  0  0  0  0  0  0
  187.6260  177.5350  145.8270 N   0  0  0  0  0  0  0  0  0  0  0  0
  186.7020  178.6800  148.0120 O   0  0  0  0  0  0  0  0  0  0  0  0
  186.2610  178.1040  146.6960 S   0  0  0  0  0  0  0  0  0  0  0  0
  185.3060  176.9690  146.9350 O   0  0  0  0  0  0  0  0  0  0  0  0
  184.0360  179.0330  145.5850 N   0  0  0  0  0  0  0  0  0  0  0  0
  183.7500  178.8620  144.3610 N   0  0  0  0  0  0  0  0  0  0  0  0
  184.9040  179.0580  143.5630 C   0  0  0  0  0  3  0  0  0  0  0  0
  185.4410  179.3700  145.7460 C   0  0  2  0  0  3  0  0  0  0  0  0
  185.9360  179.3600  144.3350 C   0  0  0  0  0  3  0  0  0  0  0  0
  190.2920  176.1550  145.7540 N   0  0  0  0  0  2  0  0  0  0  0  0
  191.0180  177.1170  144.9360 C   0  0  0  0  0  2  0  0  0  0  0  0
  194.4190  175.3770  145.5720 C   0  0  0  0  0  0  0  0  0  0  0  0
  194.3770  175.5250  144.0900 C   0  0  1  0  0  3  0  0  0  0  0  0
  192.5180  176.8670  144.9970 C   0  0  1  0  0  3  0  0  0  0  0  0
  195.4140  174.9720  146.1500 O   0  0  0  0  0  0  0  0  0  0  0  0
  192.9730  175.9030  146.4700 S   0  0  0  0  0  0  0  0  0  0  0  0
  193.0170  176.1220  143.7650 C   0  0  0  0  0  2  0  0  0  0  0  0
  195.3820  176.4070  143.6780 O   0  0  0  0  0  0  0  0  0  0  0  0
  196.4080  175.4980  142.6770 P   0  0  0  0  0  0  0  0  0  0  0  0
  195.6060  174.0890  142.1990 O   0  0  0  0  0  1  0  0  0  0  0  0
  196.8200  176.3940  141.3000 O   0  0  0  0  0  0  0  0  0  0  0  0
  197.6640  175.1230  143.4290 O   0  0  0  0  0  1  0  0  0  0  0  0
  189.1140  176.4180  143.7070 N   0  0  0  0  0  2  0  0  0  0  0  0
  188.1400  175.7190  142.8780 C   0  0  2  0  0  3  0  0  0  0  0  0
  188.5990  173.3990  142.6330 F   0  0  0  0  0  0  0  0  0  0  0  0
  188.8160  174.6300  142.0420 C   0  0  0  0  0  0  0  0  0  0  0  0
  190.1790  174.8530  141.9560 F   0  0  0  0  0  0  0  0  0  0  0  0
  188.2750  174.6120  140.7690 F   0  0  0  0  0  0  0  0  0  0  0  0
  188.1170  177.9300  141.6260 C   0  0  0  0  0  1  0  0  0  0  0  0
  187.3180  176.7050  142.0410 C   0  0  0  0  0  2  0  0  0  0  0  0
  1 12  1  0  0  0  0
  1  2  1  1  0  0  0
  2  3  2  0  0  0  0
  3  5  1  0  0  0  0
  5  6  2  0  0  0  0
  5  4  2  0  0  0  0
  7 10  1  0  0  0  0
  8  7  2  0  0  0  0
  9 11  2  0  0  0  0
  9  8  1  0  0  0  0
 10  5  1  1  0  0  0
 11 10  1  0  0  0  0
 13 12  1  0  0  0  0
 14 17  2  0  0  0  0
 14 18  1  0  0  0  0
 15 20  1  1  0  0  0
 15 14  1  0  0  0  0
 16 13  1  6  0  0  0
 16 18  1  0  0  0  0
 19 15  1  0  0  0  0
 19 16  1  0  0  0  0
 21 24  1  0  0  0  0
 21 20  1  0  0  0  0
 22 21  1  0  0  0  0
 23 21  2  0  0  0  0
 25  1  1  0  0  0  0
 26 32  1  6  0  0  0
 26 25  1  0  0  0  0
 28 27  1  0  0  0  0
 28 26  1  0  0  0  0
 29 28  1  0  0  0  0
 30 28  1  0  0  0  0
 31 32  1  0  0  0  0
M  END
>  <MODEL>
8

>  <REMARK>
 VINA RESULT:      -6.0      4.094      9.228
  Name = 
  12 active torsions:
  status: ('A' for Active; 'I' for Inactive)
    1  A    between atoms: P_3  and  O_14
    2  A    between atoms: N_7  and  C_22
    3  A    between atoms: N_7  and  C_30
    4  A    between atoms: C_10  and  O_14
    5  A    between atoms: C_11  and  S_17
    6  A    between atoms: C_12  and  C_22
    7  A    between atoms: C_15  and  C_18
    8  A    between atoms: C_15  and  C_24
    9  A    between atoms: C_15  and  N_32
   10  A    between atoms: S_17  and  N_29
   11  A    between atoms: C_23  and  C_30
   12  A    between atoms: C_30  and  N_32
                            x       y       z     vdW  Elec       q    Type
                         _______ _______ _______ _____ _____    ______ ____

>  <TORSDO>
F 12

$$$$
=
 OpenBabel11062419083D

 32 33  0  0  1  0  0  0  0  0999 V2000
  188.0300  177.2640  144.6220 C   0  0  2  0  0  3  0  0  0  0  0  0
  188.4110  176.5600  143.3630 C   0  0  0  0  0  3  0  0  0  0  0  0
  188.6950  175.3110  143.3850 N   0  0  0  0  0  0  0  0  0  0  0  0
  190.5790  174.7770  141.6230 O   0  0  0  0  0  0  0  0  0  0  0  0
  189.1390  174.4910  141.9460 S   0  0  0  0  0  0  0  0  0  0  0  0
  188.2660  174.9500  140.8130 O   0  0  0  0  0  0  0  0  0  0  0  0
  189.3710  172.3550  143.5060 N   0  0  0  0  0  0  0  0  0  0  0  0
  190.3530  171.5550  143.4430 N   0  0  0  0  0  0  0  0  0  0  0  0
  190.6840  171.3040  142.0880 C   0  0  0  0  0  3  0  0  0  0  0  0
  188.9270  172.7360  142.1760 C   0  0  2  0  0  3  0  0  0  0  0  0
  189.8690  171.9810  141.2950 C   0  0  0  0  0  3  0  0  0  0  0  0
  188.7400  176.6680  145.7390 N   0  0  0  0  0  2  0  0  0  0  0  0
  189.9170  177.4910  145.9880 C   0  0  0  0  0  2  0  0  0  0  0  0
  192.3460  174.5770  145.2060 C   0  0  0  0  0  0  0  0  0  0  0  0
  192.8500  175.6880  144.3500 C   0  0  1  0  0  3  0  0  0  0  0  0
  191.1930  176.6660  145.8920 C   0  0  1  0  0  3  0  0  0  0  0  0
  192.9490  173.5220  145.3110 O   0  0  0  0  0  0  0  0  0  0  0  0
  190.8620  174.8950  146.1380 S   0  0  0  0  0  0  0  0  0  0  0  0
  191.8790  176.8410  144.5420 C   0  0  0  0  0  2  0  0  0  0  0  0
  194.1220  176.0750  144.7860 O   0  0  0  0  0  0  0  0  0  0  0  0
  195.1380  175.9150  143.4350 P   0  0  0  0  0  0  0  0  0  0  0  0
  194.2390  176.1980  142.0320 O   0  0  0  0  0  0  0  0  0  0  0  0
  196.3990  177.0420  143.5200 O   0  0  0  0  0  1  0  0  0  0  0  0
  195.7120  174.5180  143.3830 O   0  0  0  0  0  1  0  0  0  0  0  0
  186.5950  177.1410  144.8360 N   0  0  0  0  0  2  0  0  0  0  0  0
  186.1990  178.2050  145.7500 C   0  0  2  0  0  3  0  0  0  0  0  0
  184.4110  178.5800  147.2720 F   0  0  0  0  0  0  0  0  0  0  0  0
  185.3670  177.6490  146.9070 C   0  0  0  0  0  0  0  0  0  0  0  0
  186.1680  177.3760  148.0020 F   0  0  0  0  0  0  0  0  0  0  0  0
  184.7260  176.4880  146.5100 F   0  0  0  0  0  0  0  0  0  0  0  0
  184.5690  178.8560  143.9130 C   0  0  0  0  0  1  0  0  0  0  0  0
  185.5090  179.3500  145.0010 C   0  0  0  0  0  2  0  0  0  0  0  0
  1  2  1  6  0  0  0
  1 25  1  0  0  0  0
  1 12  1  0  0  0  0
  2  3  2  0  0  0  0
  4  5  2  0  0  0  0
  5  3  1  0  0  0  0
  6  5  2  0  0  0  0
  8  7  2  0  0  0  0
  9  8  1  0  0  0  0
 10  5  1  1  0  0  0
 10  7  1  0  0  0  0
 11  9  2  0  0  0  0
 11 10  1  0  0  0  0
 12 13  1  0  0  0  0
 14 17  2  0  0  0  0
 14 18  1  0  0  0  0
 15 19  1  0  0  0  0
 15 20  1  1  0  0  0
 15 14  1  0  0  0  0
 16 13  1  6  0  0  0
 16 18  1  0  0  0  0
 19 16  1  0  0  0  0
 21 23  1  0  0  0  0
 21 20  1  0  0  0  0
 22 21  2  0  0  0  0
 24 21  1  0  0  0  0
 25 26  1  0  0  0  0
 26 32  1  6  0  0  0
 26 28  1  0  0  0  0
 28 27  1  0  0  0  0
 28 29  1  0  0  0  0
 30 28  1  0  0  0  0
 31 32  1  0  0  0  0
M  END
>  <MODEL>
9

>  <REMARK>
 VINA RESULT:      -6.0      4.808      7.346
  Name = 
  12 active torsions:
  status: ('A' for Active; 'I' for Inactive)
    1  A    between atoms: P_3  and  O_14
    2  A    between atoms: N_7  and  C_22
    3  A    between atoms: N_7  and  C_30
    4  A    between atoms: C_10  and  O_14
    5  A    between atoms: C_11  and  S_17
    6  A    between atoms: C_12  and  C_22
    7  A    between atoms: C_15  and  C_18
    8  A    between atoms: C_15  and  C_24
    9  A    between atoms: C_15  and  N_32
   10  A    between atoms: S_17  and  N_29
   11  A    between atoms: C_23  and  C_30
   12  A    between atoms: C_30  and  N_32
                            x       y       z     vdW  Elec       q    Type
                         _______ _______ _______ _____ _____    ______ ____

>  <TORSDO>
F 12

$$$$
