=
 OpenBabel11062418463D

 43 50  0  0  1  0  0  0  0  0999 V2000
  193.1560  173.1780  142.2090 C   0  0  2  0  0  0  0  0  0  0  0  0
  196.3790  176.1460  143.8460 O   0  0  0  0  0  1  0  0  0  0  0  0
  194.0380  174.3040  142.7390 C   0  0  1  0  0  3  0  0  0  0  0  0
  189.8650  174.6630  141.2970 O   0  0  0  0  0  1  0  0  0  0  0  0
  192.4320  172.4050  139.9040 C   0  0  0  0  0  2  0  0  0  0  0  0
  191.6520  173.4300  142.4150 C   0  0  1  0  0  3  0  0  0  0  0  0
  194.0630  172.9220  143.4010 C   0  0  1  0  0  3  0  0  0  0  0  0
  191.1980  174.2640  141.2020 C   0  0  1  0  0  3  0  0  0  0  0  0
  196.4730  174.8000  143.4830 C   0  0  1  0  0  3  0  0  0  0  0  0
  194.9970  174.0650  145.4710 C   0  0  0  0  0  2  0  0  0  0  0  0
  193.8400  173.2120  144.8980 C   0  0  1  0  0  3  0  0  0  0  0  0
  195.8430  174.5140  141.2160 O   0  0  0  0  0  0  0  0  0  0  0  0
  196.3380  173.8910  144.7280 C   0  0  2  0  0  3  0  0  0  0  0  0
  193.6170  172.6460  140.8440 C   0  0  0  0  0  2  0  0  0  0  0  0
  195.4820  174.4960  142.3810 C   0  0  0  0  0  0  0  0  0  0  0  0
  191.4810  173.6100  139.8360 C   0  0  0  0  0  2  0  0  0  0  0  0
  197.3920  174.1400  145.6070 O   0  0  0  0  0  0  0  0  0  0  0  0
  197.1140  173.4190  146.6730 O   0  0  0  0  0  1  0  0  0  0  0  0
  191.6690  170.9490  143.1040 C   0  0  0  0  0  1  0  0  0  0  0  0
  190.8510  172.1080  142.5490 C   0  0  1  0  0  3  0  0  0  0  0  0
  189.5420  172.2630  143.3310 C   0  0  0  0  0  2  0  0  0  0  0  0
  189.3690  172.5350  145.7250 N   0  0  0  0  0  2  0  0  0  0  0  0
  189.6300  171.7600  144.7380 C   0  0  0  0  0  3  0  0  0  0  0  0
  192.4960  173.8400  145.2500 C   0  0  0  0  0  2  0  0  0  0  0  0
  185.0330  179.5360  144.7520 C   0  0  0  0  0  3  0  0  0  0  0  0
  189.3720  177.9500  146.1830 C   0  0  0  0  0  2  0  0  0  0  0  0
  192.6720  175.0110  146.2070 C   0  0  1  0  0  3  0  0  0  0  0  0
  190.2830  177.7650  147.3640 C   0  0  0  0  0  0  0  0  0  0  0  0
  185.7710  179.4230  143.5650 C   0  0  0  0  0  3  0  0  0  0  0  0
  185.2820  178.6640  145.8210 C   0  0  0  0  0  3  0  0  0  0  0  0
  191.3000  176.8890  147.3290 C   0  0  0  0  0  0  0  0  0  0  0  0
  186.7590  178.4370  143.4430 C   0  0  0  0  0  3  0  0  0  0  0  0
  192.8450  176.3080  145.4320 C   0  0  0  0  0  2  0  0  0  0  0  0
  191.5270  176.0180  146.1160 C   0  0  1  0  0  0  0  0  0  0  0  0
  186.2680  177.6860  145.6800 C   0  0  0  0  0  0  0  0  0  0  0  0
  187.0010  177.5760  144.5170 C   0  0  0  0  0  0  0  0  0  0  0  0
  189.1490  176.6070  145.4740 C   0  0  2  0  0  0  0  0  0  0  0  0
  190.3910  175.8080  145.0980 C   0  0  0  0  0  2  0  0  0  0  0  0
  190.0650  178.5040  148.4830 F   0  0  0  0  0  0  0  0  0  0  0  0
  186.7300  176.5530  146.9610 S   0  0  0  0  0  0  0  0  0  0  0  0
  188.0060  176.4760  144.4710 C   0  0  1  0  0  3  0  0  0  0  0  0
  192.1100  176.7610  148.4150 F   0  0  0  0  0  0  0  0  0  0  0  0
  187.9420  175.7440  145.8280 C   0  0  1  0  0  3  0  0  0  0  0  0
  1 14  1  6  0  0  0
  1  6  1  0  0  0  0
  1  3  1  0  0  0  0
  1  7  1  0  0  0  0
  3 15  1  6  0  0  0
  3  7  1  0  0  0  0
  5 14  1  0  0  0  0
  6 20  1  6  0  0  0
  7 11  1  0  0  0  0
  8  4  1  0  0  0  0
  8  6  1  0  0  0  0
  9  2  1  0  0  0  0
  9 13  1  0  0  0  0
 11 24  1  0  0  0  0
 11 10  1  0  0  0  0
 12 15  2  0  0  0  0
 13 10  1  0  0  0  0
 13 17  1  0  0  0  0
 15  9  1  0  0  0  0
 16  5  1  0  0  0  0
 16  8  1  0  0  0  0
 17 18  1  0  0  0  0
 20 19  1  0  0  0  0
 20 21  1  0  0  0  0
 21 23  1  0  0  0  0
 23 22  2  0  0  0  0
 24 27  1  0  0  0  0
 25 30  1  0  0  0  0
 26 28  1  0  0  0  0
 28 39  1  0  0  0  0
 29 25  2  0  0  0  0
 31 28  2  0  0  0  0
 31 42  1  0  0  0  0
 32 29  1  0  0  0  0
 32 36  2  0  0  0  0
 33 34  1  0  0  0  0
 33 27  1  0  0  0  0
 34 27  1  0  0  0  0
 34 31  1  0  0  0  0
 35 30  2  0  0  0  0
 35 40  1  0  0  0  0
 36 35  1  0  0  0  0
 37 43  1  0  0  0  0
 37 26  1  0  0  0  0
 38 37  1  0  0  0  0
 38 34  1  0  0  0  0
 41 36  1  0  0  0  0
 41 37  1  0  0  0  0
 41 43  1  0  0  0  0
 43 40  1  0  0  0  0
M  END
>  <MODEL>
1

>  <REMARK>
 VINA RESULT:      -8.1      0.000      0.000
  Name = 
  6 active torsions:
  status: ('A' for Active; 'I' for Inactive)
    1  A    between atoms: C_4  and  C_21
    2  A    between atoms: O_5  and  C_33
    3  A    between atoms: C_13  and  C_14
    4  A    between atoms: C_13  and  C_42
    5  A    between atoms: C_19  and  C_42
    6  A    between atoms: C_21  and  C_31
                            x       y       z     vdW  Elec       q    Type
                         _______ _______ _______ _____ _____    ______ ____

>  <TORSDO>
F 6

$$$$
=
 OpenBabel11062418463D

 43 50  0  0  1  0  0  0  0  0999 V2000
  196.2730  174.3740  142.7040 C   0  0  2  0  0  0  0  0  0  0  0  0
  194.9220  172.0200  138.8940 O   0  0  0  0  0  1  0  0  0  0  0  0
  195.6660  173.5190  141.5960 C   0  0  1  0  0  3  0  0  0  0  0  0
  194.5140  173.5220  145.8730 O   0  0  0  0  0  1  0  0  0  0  0  0
  197.9400  173.9630  144.5700 C   0  0  0  0  0  2  0  0  0  0  0  0
  195.2990  174.6590  143.8590 C   0  0  1  0  0  3  0  0  0  0  0  0
  196.0370  174.9820  141.3310 C   0  0  1  0  0  3  0  0  0  0  0  0
  195.4210  173.4570  144.8150 C   0  0  1  0  0  3  0  0  0  0  0  0
  195.9920  172.8940  139.0990 C   0  0  1  0  0  3  0  0  0  0  0  0
  194.4080  174.9160  139.3790 C   0  0  0  0  0  2  0  0  0  0  0  0
  194.7600  175.5960  140.7240 C   0  0  1  0  0  3  0  0  0  0  0  0
  197.3940  172.0860  140.8320 O   0  0  0  0  0  0  0  0  0  0  0  0
  195.6230  174.3230  138.6340 C   0  0  2  0  0  3  0  0  0  0  0  0
  197.7110  173.9660  143.0570 C   0  0  0  0  0  2  0  0  0  0  0  0
  196.4560  172.8080  140.5360 C   0  0  0  0  0  0  0  0  0  0  0  0
  196.8490  173.1920  145.3300 C   0  0  0  0  0  2  0  0  0  0  0  0
  195.3700  174.3200  137.2620 O   0  0  0  0  0  0  0  0  0  0  0  0
  194.4820  175.2760  137.0850 O   0  0  0  0  0  1  0  0  0  0  0  0
  196.5280  176.9200  143.7680 C   0  0  0  0  0  1  0  0  0  0  0  0
  195.6120  176.0030  144.5680 C   0  0  1  0  0  3  0  0  0  0  0  0
  194.3590  176.7610  145.0220 C   0  0  0  0  0  2  0  0  0  0  0  0
  193.0710  176.4520  147.0420 N   0  0  0  0  0  2  0  0  0  0  0  0
  194.1880  176.7850  146.5090 C   0  0  0  0  0  3  0  0  0  0  0  0
  193.5420  175.6130  141.6420 C   0  0  0  0  0  2  0  0  0  0  0  0
  185.4120  177.1270  146.1120 C   0  0  0  0  0  3  0  0  0  0  0  0
  188.5670  174.9470  143.1650 C   0  0  0  0  0  2  0  0  0  0  0  0
  192.5080  174.5870  141.2000 C   0  0  1  0  0  3  0  0  0  0  0  0
  188.7450  174.3000  141.8210 C   0  0  0  0  0  0  0  0  0  0  0  0
  186.4910  176.7920  146.9440 C   0  0  0  0  0  3  0  0  0  0  0  0
  185.6330  177.4390  144.7640 C   0  0  0  0  0  3  0  0  0  0  0  0
  189.9610  174.1720  141.2650 C   0  0  0  0  0  0  0  0  0  0  0  0
  187.7940  176.7700  146.4290 C   0  0  0  0  0  3  0  0  0  0  0  0
  192.1680  173.6490  142.3490 C   0  0  0  0  0  2  0  0  0  0  0  0
  191.1860  174.7290  141.9510 C   0  0  1  0  0  0  0  0  0  0  0  0
  186.9380  177.4150  144.2700 C   0  0  0  0  0  0  0  0  0  0  0  0
  188.0020  177.0790  145.0830 C   0  0  0  0  0  0  0  0  0  0  0  0
  189.5660  176.1010  143.3310 C   0  0  2  0  0  0  0  0  0  0  0  0
  191.0320  175.7930  143.0530 C   0  0  0  0  0  2  0  0  0  0  0  0
  187.6490  173.8370  141.1660 F   0  0  0  0  0  0  0  0  0  0  0  0
  187.3640  177.7310  142.5800 S   0  0  0  0  0  0  0  0  0  0  0  0
  189.3510  177.1150  144.4520 C   0  0  1  0  0  3  0  0  0  0  0  0
  190.0800  173.5680  140.0510 F   0  0  0  0  0  0  0  0  0  0  0  0
  189.1550  177.5270  142.9780 C   0  0  1  0  0  3  0  0  0  0  0  0
  1 14  1  1  0  0  0
  1  6  1  0  0  0  0
  2  9  1  0  0  0  0
  3 15  1  6  0  0  0
  3  1  1  0  0  0  0
  5 16  1  0  0  0  0
  6 20  1  1  0  0  0
  6  8  1  0  0  0  0
  7  3  1  0  0  0  0
  7  1  1  0  0  0  0
  8 16  1  0  0  0  0
  8  4  1  0  0  0  0
  9 15  1  0  0  0  0
 10 11  1  0  0  0  0
 11  7  1  0  0  0  0
 11 24  1  0  0  0  0
 13  9  1  0  0  0  0
 13 10  1  0  0  0  0
 14  5  1  0  0  0  0
 15 12  2  0  0  0  0
 17 13  1  0  0  0  0
 18 17  1  0  0  0  0
 19 20  1  0  0  0  0
 20 21  1  0  0  0  0
 21 23  1  0  0  0  0
 23 22  2  0  0  0  0
 25 29  1  0  0  0  0
 26 37  1  0  0  0  0
 27 24  1  0  0  0  0
 27 34  1  0  0  0  0
 27 33  1  0  0  0  0
 28 26  1  0  0  0  0
 30 25  2  0  0  0  0
 31 28  2  0  0  0  0
 31 34  1  0  0  0  0
 32 29  2  0  0  0  0
 34 33  1  0  0  0  0
 34 38  1  0  0  0  0
 35 30  1  0  0  0  0
 35 36  2  0  0  0  0
 36 32  1  0  0  0  0
 37 41  1  0  0  0  0
 38 37  1  0  0  0  0
 39 28  1  0  0  0  0
 40 43  1  0  0  0  0
 40 35  1  0  0  0  0
 41 36  1  0  0  0  0
 42 31  1  0  0  0  0
 43 37  1  0  0  0  0
 43 41  1  0  0  0  0
M  END
>  <MODEL>
2

>  <REMARK>
 VINA RESULT:      -7.8      3.137      5.477
  Name = 
  6 active torsions:
  status: ('A' for Active; 'I' for Inactive)
    1  A    between atoms: C_4  and  C_21
    2  A    between atoms: O_5  and  C_33
    3  A    between atoms: C_13  and  C_14
    4  A    between atoms: C_13  and  C_42
    5  A    between atoms: C_19  and  C_42
    6  A    between atoms: C_21  and  C_31
                            x       y       z     vdW  Elec       q    Type
                         _______ _______ _______ _____ _____    ______ ____

>  <TORSDO>
F 6

$$$$
=
 OpenBabel11062418463D

 43 50  0  0  1  0  0  0  0  0999 V2000
  192.2710  171.4860  142.7540 C   0  0  2  0  0  0  0  0  0  0  0  0
  196.8450  172.0280  143.5720 O   0  0  0  0  0  1  0  0  0  0  0  0
  193.7480  171.8460  142.8810 C   0  0  1  0  0  3  0  0  0  0  0  0
  190.7820  173.7340  140.1860 O   0  0  0  0  0  1  0  0  0  0  0  0
  190.8890  170.1580  141.0930 C   0  0  0  0  0  2  0  0  0  0  0  0
  191.3920  172.6620  142.2930 C   0  0  1  0  0  3  0  0  0  0  0  0
  192.9240  171.5060  144.1260 C   0  0  1  0  0  3  0  0  0  0  0  0
  191.4550  172.6530  140.7540 C   0  0  1  0  0  3  0  0  0  0  0  0
  195.9440  171.0550  144.0120 C   0  0  1  0  0  3  0  0  0  0  0  0
  194.6740  172.7590  145.4800 C   0  0  0  0  0  2  0  0  0  0  0  0
  193.1790  172.6830  145.0870 C   0  0  1  0  0  3  0  0  0  0  0  0
  194.9660  169.9430  142.1600 O   0  0  0  0  0  0  0  0  0  0  0  0
  195.4110  171.4040  145.4210 C   0  0  2  0  0  3  0  0  0  0  0  0
  192.0410  170.1160  142.1010 C   0  0  0  0  0  2  0  0  0  0  0  0
  194.8650  170.8480  142.9720 C   0  0  0  0  0  0  0  0  0  0  0  0
  191.0140  171.3270  140.1050 C   0  0  0  0  0  2  0  0  0  0  0  0
  196.4660  171.4100  146.3340 O   0  0  0  0  0  0  0  0  0  0  0  0
  196.7960  170.1430  146.4720 O   0  0  0  0  0  1  0  0  0  0  0  0
  189.8440  172.0720  144.2650 C   0  0  0  0  0  1  0  0  0  0  0  0
  189.9370  172.5450  142.8190 C   0  0  1  0  0  3  0  0  0  0  0  0
  189.1090  173.8180  142.6180 C   0  0  0  0  0  2  0  0  0  0  0  0
  187.7110  172.6120  141.0600 N   0  0  0  0  0  2  0  0  0  0  0  0
  187.8200  173.5780  141.8960 C   0  0  0  0  0  3  0  0  0  0  0  0
  192.6910  174.0430  144.6000 C   0  0  0  0  0  2  0  0  0  0  0  0
  185.0180  179.4350  145.2590 C   0  0  0  0  0  3  0  0  0  0  0  0
  189.5060  177.8940  146.1940 C   0  0  0  0  0  2  0  0  0  0  0  0
  192.8990  175.1130  145.6630 C   0  0  1  0  0  3  0  0  0  0  0  0
  190.5090  177.6250  147.2800 C   0  0  0  0  0  0  0  0  0  0  0  0
  185.6670  179.4790  144.0160 C   0  0  0  0  0  3  0  0  0  0  0  0
  185.3770  178.4660  146.2060 C   0  0  0  0  0  3  0  0  0  0  0  0
  191.5510  176.8020  147.0770 C   0  0  0  0  0  0  0  0  0  0  0  0
  186.6770  178.5550  143.7180 C   0  0  0  0  0  3  0  0  0  0  0  0
  192.9670  176.4910  145.0230 C   0  0  0  0  0  2  0  0  0  0  0  0
  191.7160  176.0740  145.7630 C   0  0  1  0  0  0  0  0  0  0  0  0
  186.3830  177.5520  145.8890 C   0  0  0  0  0  0  0  0  0  0  0  0
  187.0300  177.5960  144.6710 C   0  0  0  0  0  0  0  0  0  0  0  0
  189.2770  176.6250  145.3610 C   0  0  2  0  0  0  0  0  0  0  0  0
  190.5140  175.9240  144.8130 C   0  0  0  0  0  2  0  0  0  0  0  0
  190.3510  178.2320  148.4850 F   0  0  0  0  0  0  0  0  0  0  0  0
  186.9800  176.3110  147.0040 S   0  0  0  0  0  0  0  0  0  0  0  0
  188.0660  176.5520  144.4350 C   0  0  1  0  0  3  0  0  0  0  0  0
  192.4450  176.5950  148.0820 F   0  0  0  0  0  0  0  0  0  0  0  0
  188.1310  175.6790  145.7060 C   0  0  1  0  0  3  0  0  0  0  0  0
  1 14  1  6  0  0  0
  1  3  1  0  0  0  0
  1  7  1  0  0  0  0
  2  9  1  0  0  0  0
  3 15  1  6  0  0  0
  3  7  1  0  0  0  0
  4  8  1  0  0  0  0
  5 14  1  0  0  0  0
  6  1  1  0  0  0  0
  6 20  1  6  0  0  0
  7 11  1  0  0  0  0
  8  6  1  0  0  0  0
  9 13  1  0  0  0  0
 11 10  1  0  0  0  0
 12 15  2  0  0  0  0
 13 10  1  0  0  0  0
 13 17  1  0  0  0  0
 15  9  1  0  0  0  0
 16  8  1  0  0  0  0
 16  5  1  0  0  0  0
 17 18  1  0  0  0  0
 20 19  1  0  0  0  0
 21 20  1  0  0  0  0
 22 23  2  0  0  0  0
 23 21  1  0  0  0  0
 24 11  1  0  0  0  0
 24 27  1  0  0  0  0
 25 30  1  0  0  0  0
 26 28  1  0  0  0  0
 27 34  1  0  0  0  0
 28 39  1  0  0  0  0
 29 25  2  0  0  0  0
 31 28  2  0  0  0  0
 31 42  1  0  0  0  0
 32 29  1  0  0  0  0
 32 36  2  0  0  0  0
 33 27  1  0  0  0  0
 33 34  1  0  0  0  0
 34 31  1  0  0  0  0
 35 30  2  0  0  0  0
 35 40  1  0  0  0  0
 36 35  1  0  0  0  0
 37 43  1  0  0  0  0
 37 26  1  0  0  0  0
 38 37  1  0  0  0  0
 38 34  1  0  0  0  0
 41 36  1  0  0  0  0
 41 37  1  0  0  0  0
 41 43  1  0  0  0  0
 43 40  1  0  0  0  0
M  END
>  <MODEL>
3

>  <REMARK>
 VINA RESULT:      -7.8      1.716      2.134
  Name = 
  6 active torsions:
  status: ('A' for Active; 'I' for Inactive)
    1  A    between atoms: C_4  and  C_21
    2  A    between atoms: O_5  and  C_33
    3  A    between atoms: C_13  and  C_14
    4  A    between atoms: C_13  and  C_42
    5  A    between atoms: C_19  and  C_42
    6  A    between atoms: C_21  and  C_31
                            x       y       z     vdW  Elec       q    Type
                         _______ _______ _______ _____ _____    ______ ____

>  <TORSDO>
F 6

$$$$
=
 OpenBabel11062418463D

 43 50  0  0  1  0  0  0  0  0999 V2000
  193.9800  173.3800  144.4290 C   0  0  2  0  0  0  0  0  0  0  0  0
  192.8910  168.9330  145.3930 O   0  0  0  0  0  1  0  0  0  0  0  0
  193.4680  172.0180  144.8880 C   0  0  1  0  0  3  0  0  0  0  0  0
  192.3050  175.9720  146.5120 O   0  0  0  0  0  1  0  0  0  0  0  0
  195.6730  175.0460  145.3170 C   0  0  0  0  0  2  0  0  0  0  0  0
  192.9770  174.5220  144.6660 C   0  0  1  0  0  3  0  0  0  0  0  0
  193.6880  172.3020  143.3990 C   0  0  1  0  0  3  0  0  0  0  0  0
  193.2180  174.9960  146.1110 C   0  0  1  0  0  3  0  0  0  0  0  0
  193.8660  169.4770  144.5520 C   0  0  1  0  0  3  0  0  0  0  0  0
  192.0830  170.3890  142.9200 C   0  0  0  0  0  2  0  0  0  0  0  0
  192.3590  171.9000  142.7320 C   0  0  1  0  0  3  0  0  0  0  0  0
  195.3360  170.8670  145.7870 O   0  0  0  0  0  0  0  0  0  0  0  0
  193.3550  169.5320  143.0930 C   0  0  2  0  0  3  0  0  0  0  0  0
  195.4510  173.6230  144.7990 C   0  0  0  0  0  2  0  0  0  0  0  0
  194.3300  170.8080  145.0990 C   0  0  0  0  0  0  0  0  0  0  0  0
  194.6630  175.4410  146.4060 C   0  0  0  0  0  2  0  0  0  0  0  0
  193.1090  168.2380  142.6320 O   0  0  0  0  0  0  0  0  0  0  0  0
  192.3110  168.3990  141.5970 O   0  0  0  0  0  1  0  0  0  0  0  0
  193.9520  175.2770  142.4050 C   0  0  0  0  0  1  0  0  0  0  0  0
  193.1490  175.6710  143.6380 C   0  0  1  0  0  3  0  0  0  0  0  0
  191.8260  176.3270  143.2280 C   0  0  0  0  0  2  0  0  0  0  0  0
  191.6740  178.6810  143.7500 N   0  0  0  0  0  2  0  0  0  0  0  0
  191.9650  177.7790  142.8880 C   0  0  0  0  0  3  0  0  0  0  0  0
  191.1410  172.7150  143.1560 C   0  0  0  0  0  2  0  0  0  0  0  0
  184.4610  178.8420  145.6500 C   0  0  0  0  0  3  0  0  0  0  0  0
  186.9200  175.8090  142.7960 C   0  0  0  0  0  2  0  0  0  0  0  0
  190.2390  173.0110  141.9660 C   0  0  1  0  0  3  0  0  0  0  0  0
  187.4800  175.6040  141.4170 C   0  0  0  0  0  0  0  0  0  0  0  0
  184.4240  177.6160  146.3310 C   0  0  0  0  0  3  0  0  0  0  0  0
  185.5670  179.1710  144.8540 C   0  0  0  0  0  3  0  0  0  0  0  0
  188.4650  174.7200  141.1890 C   0  0  0  0  0  0  0  0  0  0  0  0
  185.4920  176.7170  146.2180 C   0  0  0  0  0  3  0  0  0  0  0  0
  188.8450  172.4520  142.2060 C   0  0  0  0  0  2  0  0  0  0  0  0
  189.0820  173.9410  142.3270 C   0  0  1  0  0  0  0  0  0  0  0  0
  186.6240  178.2640  144.7570 C   0  0  0  0  0  0  0  0  0  0  0  0
  186.5880  177.0540  145.4180 C   0  0  0  0  0  0  0  0  0  0  0  0
  188.0360  175.6790  143.8430 C   0  0  2  0  0  0  0  0  0  0  0  0
  188.9060  174.4300  143.7770 C   0  0  0  0  0  2  0  0  0  0  0  0
  186.9720  176.3310  140.3870 F   0  0  0  0  0  0  0  0  0  0  0  0
  188.0570  178.5180  143.7470 S   0  0  0  0  0  0  0  0  0  0  0  0
  187.7850  176.1810  145.2620 C   0  0  1  0  0  3  0  0  0  0  0  0
  188.9360  174.5550  139.9230 F   0  0  0  0  0  0  0  0  0  0  0  0
  188.7710  176.9210  144.3350 C   0  0  1  0  0  3  0  0  0  0  0  0
  1  6  1  0  0  0  0
  1 14  1  1  0  0  0
  1  3  1  0  0  0  0
  3 15  1  1  0  0  0
  5 16  1  0  0  0  0
  6 20  1  6  0  0  0
  6  8  1  0  0  0  0
  7  1  1  0  0  0  0
  7  3  1  0  0  0  0
  8 16  1  0  0  0  0
  8  4  1  0  0  0  0
  9 15  1  0  0  0  0
  9  2  1  0  0  0  0
 10 13  1  0  0  0  0
 11 10  1  0  0  0  0
 11 24  1  0  0  0  0
 11  7  1  0  0  0  0
 13  9  1  0  0  0  0
 14  5  1  0  0  0  0
 15 12  2  0  0  0  0
 17 13  1  0  0  0  0
 18 17  1  0  0  0  0
 19 20  1  0  0  0  0
 21 20  1  0  0  0  0
 23 21  1  0  0  0  0
 23 22  2  0  0  0  0
 25 29  1  0  0  0  0
 26 37  1  0  0  0  0
 27 33  1  0  0  0  0
 27 34  1  0  0  0  0
 27 24  1  0  0  0  0
 28 26  1  0  0  0  0
 30 25  2  0  0  0  0
 31 28  2  0  0  0  0
 31 34  1  0  0  0  0
 32 29  2  0  0  0  0
 33 34  1  0  0  0  0
 34 38  1  0  0  0  0
 35 30  1  0  0  0  0
 35 36  2  0  0  0  0
 36 32  1  0  0  0  0
 37 43  1  0  0  0  0
 37 41  1  0  0  0  0
 38 37  1  0  0  0  0
 39 28  1  0  0  0  0
 40 43  1  0  0  0  0
 40 35  1  0  0  0  0
 41 36  1  0  0  0  0
 42 31  1  0  0  0  0
 43 41  1  0  0  0  0
M  END
>  <MODEL>
4

>  <REMARK>
 VINA RESULT:      -7.6      3.386      5.245
  Name = 
  6 active torsions:
  status: ('A' for Active; 'I' for Inactive)
    1  A    between atoms: C_4  and  C_21
    2  A    between atoms: O_5  and  C_33
    3  A    between atoms: C_13  and  C_14
    4  A    between atoms: C_13  and  C_42
    5  A    between atoms: C_19  and  C_42
    6  A    between atoms: C_21  and  C_31
                            x       y       z     vdW  Elec       q    Type
                         _______ _______ _______ _____ _____    ______ ____

>  <TORSDO>
F 6

$$$$
=
 OpenBabel11062418463D

 43 50  0  0  1  0  0  0  0  0999 V2000
  193.1430  171.1650  141.1840 C   0  0  2  0  0  0  0  0  0  0  0  0
  197.7660  171.1220  141.8950 O   0  0  0  0  0  1  0  0  0  0  0  0
  194.6540  171.3430  141.2870 C   0  0  1  0  0  3  0  0  0  0  0  0
  191.8700  173.7190  138.7920 O   0  0  0  0  0  1  0  0  0  0  0  0
  191.5760  170.1070  139.4940 C   0  0  0  0  0  2  0  0  0  0  0  0
  192.3980  172.4600  140.8170 C   0  0  1  0  0  3  0  0  0  0  0  0
  193.8240  171.0270  142.5360 C   0  0  1  0  0  3  0  0  0  0  0  0
  192.4240  172.5350  139.2790 C   0  0  1  0  0  3  0  0  0  0  0  0
  196.7670  170.2360  142.3060 C   0  0  1  0  0  3  0  0  0  0  0  0
  195.7410  171.9860  143.9050 C   0  0  0  0  0  2  0  0  0  0  0  0
  194.2380  172.1080  143.5530 C   0  0  1  0  0  3  0  0  0  0  0  0
  195.6220  169.3570  140.4250 O   0  0  0  0  0  0  0  0  0  0  0  0
  196.3120  170.5600  143.7480 C   0  0  2  0  0  3  0  0  0  0  0  0
  192.7380  169.8720  140.4630 C   0  0  0  0  0  2  0  0  0  0  0  0
  195.6470  170.2180  141.2890 C   0  0  0  0  0  0  0  0  0  0  0  0
  191.8150  171.3100  138.5690 C   0  0  0  0  0  2  0  0  0  0  0  0
  197.3810  170.3900  144.6280 O   0  0  0  0  0  0  0  0  0  0  0  0
  197.1890  171.2950  145.5650 O   0  0  0  0  0  1  0  0  0  0  0  0
  190.8240  171.8650  142.7660 C   0  0  0  0  0  1  0  0  0  0  0  0
  190.9520  172.4820  141.3790 C   0  0  1  0  0  3  0  0  0  0  0  0
  190.3040  173.8710  141.3480 C   0  0  0  0  0  2  0  0  0  0  0  0
  188.5560  174.4420  139.7810 N   0  0  0  0  0  2  0  0  0  0  0  0
  188.8850  173.8520  140.8700 C   0  0  0  0  0  3  0  0  0  0  0  0
  193.9030  173.5420  143.1570 C   0  0  0  0  0  2  0  0  0  0  0  0
  186.3050  177.9440  146.5140 C   0  0  0  0  0  3  0  0  0  0  0  0
  190.9860  176.8380  146.0120 C   0  0  0  0  0  2  0  0  0  0  0  0
  194.3110  174.5220  144.2490 C   0  0  1  0  0  3  0  0  0  0  0  0
  192.2720  176.5810  146.7460 C   0  0  0  0  0  0  0  0  0  0  0  0
  186.5750  178.1810  145.1580 C   0  0  0  0  0  3  0  0  0  0  0  0
  186.9930  176.9360  147.2030 C   0  0  0  0  0  3  0  0  0  0  0  0
  193.2790  175.9040  146.1700 C   0  0  0  0  0  0  0  0  0  0  0  0
  187.5330  177.4090  144.4870 C   0  0  0  0  0  3  0  0  0  0  0  0
  194.0850  175.9540  143.7890 C   0  0  0  0  0  2  0  0  0  0  0  0
  193.1290  175.3290  144.7820 C   0  0  1  0  0  0  0  0  0  0  0  0
  187.9420  176.1760  146.5170 C   0  0  0  0  0  0  0  0  0  0  0  0
  188.2160  176.4100  145.1850 C   0  0  0  0  0  0  0  0  0  0  0  0
  190.6380  175.6370  145.1210 C   0  0  2  0  0  0  0  0  0  0  0  0
  191.7260  175.1360  144.1780 C   0  0  0  0  0  2  0  0  0  0  0  0
  192.4080  177.0480  148.0150 F   0  0  0  0  0  0  0  0  0  0  0  0
  188.9270  174.9090  147.2690 S   0  0  0  0  0  0  0  0  0  0  0  0
  189.2270  175.5170  144.5530 C   0  0  1  0  0  3  0  0  0  0  0  0
  194.4320  175.7040  146.8650 F   0  0  0  0  0  0  0  0  0  0  0  0
  189.7160  174.5390  145.6410 C   0  0  1  0  0  3  0  0  0  0  0  0
  1 14  1  6  0  0  0
  1  3  1  0  0  0  0
  1  7  1  0  0  0  0
  2  9  1  0  0  0  0
  3 15  1  6  0  0  0
  3  7  1  0  0  0  0
  4  8  1  0  0  0  0
  5 14  1  0  0  0  0
  6  1  1  0  0  0  0
  6 20  1  6  0  0  0
  7 11  1  0  0  0  0
  8  6  1  0  0  0  0
  9 13  1  0  0  0  0
 11 10  1  0  0  0  0
 12 15  2  0  0  0  0
 13 10  1  0  0  0  0
 13 17  1  0  0  0  0
 15  9  1  0  0  0  0
 16  8  1  0  0  0  0
 16  5  1  0  0  0  0
 17 18  1  0  0  0  0
 20 19  1  0  0  0  0
 21 20  1  0  0  0  0
 22 23  2  0  0  0  0
 23 21  1  0  0  0  0
 24 11  1  0  0  0  0
 24 27  1  0  0  0  0
 25 30  1  0  0  0  0
 26 28  1  0  0  0  0
 27 34  1  0  0  0  0
 28 39  1  0  0  0  0
 29 25  2  0  0  0  0
 31 28  2  0  0  0  0
 31 42  1  0  0  0  0
 32 29  1  0  0  0  0
 32 36  2  0  0  0  0
 33 27  1  0  0  0  0
 33 34  1  0  0  0  0
 34 31  1  0  0  0  0
 35 30  2  0  0  0  0
 35 40  1  0  0  0  0
 36 35  1  0  0  0  0
 37 43  1  0  0  0  0
 37 26  1  0  0  0  0
 38 34  1  0  0  0  0
 38 37  1  0  0  0  0
 41 37  1  0  0  0  0
 41 36  1  0  0  0  0
 41 43  1  0  0  0  0
 43 40  1  0  0  0  0
M  END
>  <MODEL>
5

>  <REMARK>
 VINA RESULT:      -7.3      2.320      2.999
  Name = 
  6 active torsions:
  status: ('A' for Active; 'I' for Inactive)
    1  A    between atoms: C_4  and  C_21
    2  A    between atoms: O_5  and  C_33
    3  A    between atoms: C_13  and  C_14
    4  A    between atoms: C_13  and  C_42
    5  A    between atoms: C_19  and  C_42
    6  A    between atoms: C_21  and  C_31
                            x       y       z     vdW  Elec       q    Type
                         _______ _______ _______ _____ _____    ______ ____

>  <TORSDO>
F 6

$$$$
=
 OpenBabel11062418463D

 43 50  0  0  1  0  0  0  0  0999 V2000
  192.4190  172.6440  140.7010 C   0  0  2  0  0  0  0  0  0  0  0  0
  195.9460  175.6890  140.2870 O   0  0  0  0  0  1  0  0  0  0  0  0
  193.4050  173.7960  140.5360 C   0  0  1  0  0  3  0  0  0  0  0  0
  189.0110  173.9680  139.9970 O   0  0  0  0  0  1  0  0  0  0  0  0
  191.1740  171.1110  139.1100 C   0  0  0  0  0  2  0  0  0  0  0  0
  191.0060  173.1000  141.1050 C   0  0  1  0  0  3  0  0  0  0  0  0
  193.5790  172.7850  141.6730 C   0  0  1  0  0  3  0  0  0  0  0  0
  190.2830  173.4370  139.7870 C   0  0  1  0  0  3  0  0  0  0  0  0
  195.9470  174.3060  140.4820 C   0  0  1  0  0  3  0  0  0  0  0  0
  194.9750  174.5450  142.8630 C   0  0  0  0  0  2  0  0  0  0  0  0
  193.7140  173.6520  142.9390 C   0  0  1  0  0  3  0  0  0  0  0  0
  194.8040  173.2240  138.7090 O   0  0  0  0  0  0  0  0  0  0  0  0
  196.1050  173.9680  141.9830 C   0  0  2  0  0  3  0  0  0  0  0  0
  192.5460  171.5820  139.5990 C   0  0  0  0  0  2  0  0  0  0  0  0
  194.7260  173.6950  139.8320 C   0  0  0  0  0  0  0  0  0  0  0  0
  190.2370  172.2810  138.7700 C   0  0  0  0  0  2  0  0  0  0  0  0
  197.3360  174.4360  142.4430 O   0  0  0  0  0  0  0  0  0  0  0  0
  197.0380  175.2140  143.4620 O   0  0  0  0  0  1  0  0  0  0  0  0
  191.1750  170.9970  142.5810 C   0  0  0  0  0  1  0  0  0  0  0  0
  190.2550  172.0170  141.9240 C   0  0  1  0  0  3  0  0  0  0  0  0
  189.2760  172.5970  142.9510 C   0  0  0  0  0  2  0  0  0  0  0  0
  189.9730  172.9120  145.2420 N   0  0  0  0  0  2  0  0  0  0  0  0
  189.5270  172.1130  144.3460 C   0  0  0  0  0  3  0  0  0  0  0  0
  192.4910  174.4940  143.2880 C   0  0  0  0  0  2  0  0  0  0  0  0
  184.8130  179.5010  145.3770 C   0  0  0  0  0  3  0  0  0  0  0  0
  189.3670  177.9160  145.7480 C   0  0  0  0  0  2  0  0  0  0  0  0
  192.7520  175.3560  144.5160 C   0  0  1  0  0  3  0  0  0  0  0  0
  190.4390  177.4760  146.7050 C   0  0  0  0  0  0  0  0  0  0  0  0
  185.3830  179.7860  144.1280 C   0  0  0  0  0  3  0  0  0  0  0  0
  185.2410  178.3840  146.1070 C   0  0  0  0  0  3  0  0  0  0  0  0
  191.4760  176.7270  146.2930 C   0  0  0  0  0  0  0  0  0  0  0  0
  186.3830  178.9550  143.6060 C   0  0  0  0  0  3  0  0  0  0  0  0
  192.7650  176.8290  144.1370 C   0  0  0  0  0  2  0  0  0  0  0  0
  191.5670  176.2560  144.8610 C   0  0  1  0  0  0  0  0  0  0  0  0
  186.2360  177.5650  145.5690 C   0  0  0  0  0  0  0  0  0  0  0  0
  186.8050  177.8460  144.3450 C   0  0  0  0  0  0  0  0  0  0  0  0
  189.1010  176.8160  144.7110 C   0  0  2  0  0  0  0  0  0  0  0  0
  190.3100  176.2550  143.9710 C   0  0  0  0  0  2  0  0  0  0  0  0
  190.3490  177.8490  148.0080 F   0  0  0  0  0  0  0  0  0  0  0  0
  186.9150  176.1550  146.4000 S   0  0  0  0  0  0  0  0  0  0  0  0
  187.8360  176.8860  143.8600 C   0  0  1  0  0  3  0  0  0  0  0  0
  192.4320  176.3600  147.1890 F   0  0  0  0  0  0  0  0  0  0  0  0
  187.9900  175.7980  144.9420 C   0  0  1  0  0  3  0  0  0  0  0  0
  1 14  1  6  0  0  0
  1  6  1  0  0  0  0
  1  7  1  0  0  0  0
  2  9  1  0  0  0  0
  3 15  1  6  0  0  0
  3  1  1  0  0  0  0
  3  7  1  0  0  0  0
  5 14  1  0  0  0  0
  6 20  1  6  0  0  0
  7 11  1  0  0  0  0
  8  4  1  0  0  0  0
  8  6  1  0  0  0  0
  9 13  1  0  0  0  0
 10 11  1  0  0  0  0
 11 24  1  0  0  0  0
 12 15  2  0  0  0  0
 13 17  1  0  0  0  0
 13 10  1  0  0  0  0
 15  9  1  0  0  0  0
 16  5  1  0  0  0  0
 16  8  1  0  0  0  0
 17 18  1  0  0  0  0
 20 19  1  0  0  0  0
 20 21  1  0  0  0  0
 21 23  1  0  0  0  0
 23 22  2  0  0  0  0
 24 27  1  0  0  0  0
 25 30  1  0  0  0  0
 26 28  1  0  0  0  0
 27 34  1  0  0  0  0
 28 39  1  0  0  0  0
 29 25  2  0  0  0  0
 31 28  2  0  0  0  0
 31 42  1  0  0  0  0
 32 29  1  0  0  0  0
 32 36  2  0  0  0  0
 33 27  1  0  0  0  0
 33 34  1  0  0  0  0
 34 31  1  0  0  0  0
 35 30  2  0  0  0  0
 35 40  1  0  0  0  0
 36 35  1  0  0  0  0
 37 43  1  0  0  0  0
 37 26  1  0  0  0  0
 38 37  1  0  0  0  0
 38 34  1  0  0  0  0
 41 36  1  0  0  0  0
 41 37  1  0  0  0  0
 41 43  1  0  0  0  0
 43 40  1  0  0  0  0
M  END
>  <MODEL>
6

>  <REMARK>
 VINA RESULT:      -7.3      1.326      1.791
  Name = 
  6 active torsions:
  status: ('A' for Active; 'I' for Inactive)
    1  A    between atoms: C_4  and  C_21
    2  A    between atoms: O_5  and  C_33
    3  A    between atoms: C_13  and  C_14
    4  A    between atoms: C_13  and  C_42
    5  A    between atoms: C_19  and  C_42
    6  A    between atoms: C_21  and  C_31
                            x       y       z     vdW  Elec       q    Type
                         _______ _______ _______ _____ _____    ______ ____

>  <TORSDO>
F 6

$$$$
=
 OpenBabel11062418463D

 43 50  0  0  1  0  0  0  0  0999 V2000
  189.4470  175.4800  145.1400 C   0  0  2  0  0  0  0  0  0  0  0  0
  187.1860  178.9490  142.9630 O   0  0  0  0  0  1  0  0  0  0  0  0
  188.9180  176.6720  144.3490 C   0  0  1  0  0  3  0  0  0  0  0  0
  193.1640  175.5570  144.9370 O   0  0  0  0  0  1  0  0  0  0  0  0
  190.4760  175.1710  147.4370 C   0  0  0  0  0  2  0  0  0  0  0  0
  190.8120  174.9730  144.6420 C   0  0  1  0  0  3  0  0  0  0  0  0
  188.2060  175.3170  144.2790 C   0  0  1  0  0  3  0  0  0  0  0  0
  191.8660  175.8320  145.3660 C   0  0  1  0  0  3  0  0  0  0  0  0
  186.7230  177.9500  143.8240 C   0  0  1  0  0  3  0  0  0  0  0  0
  187.1910  176.1010  142.0820 C   0  0  0  0  0  2  0  0  0  0  0  0
  188.0760  175.0320  142.7700 C   0  0  1  0  0  3  0  0  0  0  0  0
  187.8330  178.0850  145.9140 O   0  0  0  0  0  0  0  0  0  0  0  0
  186.1540  176.7590  143.0180 C   0  0  2  0  0  3  0  0  0  0  0  0
  189.2410  175.6250  146.6550 C   0  0  0  0  0  2  0  0  0  0  0  0
  187.8100  177.5750  144.8060 C   0  0  0  0  0  0  0  0  0  0  0  0
  191.7740  175.7960  146.9030 C   0  0  0  0  0  2  0  0  0  0  0  0
  185.0550  177.1800  142.2680 O   0  0  0  0  0  0  0  0  0  0  0  0
  184.3310  177.8890  143.1090 O   0  0  0  0  0  1  0  0  0  0  0  0
  189.7030  172.6710  144.9620 C   0  0  0  0  0  1  0  0  0  0  0  0
  191.0070  173.4580  144.9140 C   0  0  1  0  0  3  0  0  0  0  0  0
  192.0010  172.7880  143.9600 C   0  0  0  0  0  2  0  0  0  0  0  0
  194.0890  172.2610  145.0560 N   0  0  0  0  0  2  0  0  0  0  0  0
  192.9440  171.8510  144.6500 C   0  0  0  0  0  3  0  0  0  0  0  0
  189.3930  174.8730  142.0170 C   0  0  0  0  0  2  0  0  0  0  0  0
  197.9400  173.6830  138.2900 C   0  0  0  0  0  3  0  0  0  0  0  0
  193.3580  172.6270  139.4200 C   0  0  0  0  0  2  0  0  0  0  0  0
  189.4840  173.5050  141.3560 C   0  0  1  0  0  3  0  0  0  0  0  0
  192.4310  171.5470  139.9020 C   0  0  0  0  0  0  0  0  0  0  0  0
  197.1940  174.7330  137.7350 C   0  0  0  0  0  3  0  0  0  0  0  0
  197.5040  173.0530  139.4630 C   0  0  0  0  0  3  0  0  0  0  0  0
  191.2430  171.8440  140.4540 C   0  0  0  0  0  0  0  0  0  0  0  0
  196.0100  175.1570  138.3530 C   0  0  0  0  0  3  0  0  0  0  0  0
  189.6050  173.6520  139.8470 C   0  0  0  0  0  2  0  0  0  0  0  0
  190.8250  173.2810  140.6600 C   0  0  1  0  0  0  0  0  0  0  0  0
  196.3240  173.4910  140.0670 C   0  0  0  0  0  0  0  0  0  0  0  0
  195.5830  174.5190  139.5210 C   0  0  0  0  0  0  0  0  0  0  0  0
  193.2740  173.8470  140.3490 C   0  0  2  0  0  0  0  0  0  0  0  0
  191.8840  174.3990  140.6430 C   0  0  0  0  0  2  0  0  0  0  0  0
  192.8100  170.2490  139.7690 F   0  0  0  0  0  0  0  0  0  0  0  0
  195.6220  172.7560  141.5180 S   0  0  0  0  0  0  0  0  0  0  0  0
  194.3580  174.9180  140.2680 C   0  0  1  0  0  3  0  0  0  0  0  0
  190.4260  170.8350  140.8650 F   0  0  0  0  0  0  0  0  0  0  0  0
  194.2570  174.0000  141.5040 C   0  0  1  0  0  3  0  0  0  0  0  0
  1 14  1  1  0  0  0
  2  9  1  0  0  0  0
  3 15  1  1  0  0  0
  3  1  1  0  0  0  0
  4  8  1  0  0  0  0
  6 20  1  1  0  0  0
  6  1  1  0  0  0  0
  6  8  1  0  0  0  0
  7  3  1  0  0  0  0
  7  1  1  0  0  0  0
  8 16  1  0  0  0  0
  9 15  1  0  0  0  0
 10 11  1  0  0  0  0
 10 13  1  0  0  0  0
 11  7  1  0  0  0  0
 13  9  1  0  0  0  0
 14  5  1  0  0  0  0
 15 12  2  0  0  0  0
 16  5  1  0  0  0  0
 17 13  1  0  0  0  0
 17 18  1  0  0  0  0
 20 19  1  0  0  0  0
 21 23  1  0  0  0  0
 21 20  1  0  0  0  0
 23 22  2  0  0  0  0
 24 11  1  0  0  0  0
 25 30  1  0  0  0  0
 26 28  1  0  0  0  0
 26 37  1  0  0  0  0
 27 24  1  0  0  0  0
 28 31  2  0  0  0  0
 29 25  2  0  0  0  0
 29 32  1  0  0  0  0
 30 35  2  0  0  0  0
 31 34  1  0  0  0  0
 31 42  1  0  0  0  0
 32 36  2  0  0  0  0
 33 34  1  0  0  0  0
 33 27  1  0  0  0  0
 34 27  1  0  0  0  0
 35 40  1  0  0  0  0
 36 35  1  0  0  0  0
 36 41  1  0  0  0  0
 37 38  1  0  0  0  0
 37 43  1  0  0  0  0
 38 34  1  0  0  0  0
 39 28  1  0  0  0  0
 41 37  1  0  0  0  0
 41 43  1  0  0  0  0
 43 40  1  0  0  0  0
M  END
>  <MODEL>
7

>  <REMARK>
 VINA RESULT:      -7.3      3.944      8.859
  Name = 
  6 active torsions:
  status: ('A' for Active; 'I' for Inactive)
    1  A    between atoms: C_4  and  C_21
    2  A    between atoms: O_5  and  C_33
    3  A    between atoms: C_13  and  C_14
    4  A    between atoms: C_13  and  C_42
    5  A    between atoms: C_19  and  C_42
    6  A    between atoms: C_21  and  C_31
                            x       y       z     vdW  Elec       q    Type
                         _______ _______ _______ _____ _____    ______ ____

>  <TORSDO>
F 6

$$$$
=
 OpenBabel11062418463D

 43 50  0  0  1  0  0  0  0  0999 V2000
  195.4210  174.1750  140.3110 C   0  0  2  0  0  0  0  0  0  0  0  0
  196.3590  177.0220  143.9030 O   0  0  0  0  0  1  0  0  0  0  0  0
  195.5970  175.2580  141.3710 C   0  0  1  0  0  3  0  0  0  0  0  0
  193.5820  175.6890  137.4490 O   0  0  0  0  0  1  0  0  0  0  0  0
  196.5640  173.6180  138.1170 C   0  0  0  0  0  2  0  0  0  0  0  0
  194.1820  174.3830  139.4230 C   0  0  1  0  0  3  0  0  0  0  0  0
  195.2630  173.8200  141.7800 C   0  0  1  0  0  3  0  0  0  0  0  0
  194.6340  175.3220  138.2890 C   0  0  1  0  0  3  0  0  0  0  0  0
  196.7830  175.7190  143.6310 C   0  0  1  0  0  3  0  0  0  0  0  0
  194.4050  174.7720  143.9760 C   0  0  0  0  0  2  0  0  0  0  0  0
  194.0420  173.9600  142.7090 C   0  0  1  0  0  3  0  0  0  0  0  0
  197.9290  175.6430  141.5570 O   0  0  0  0  0  0  0  0  0  0  0  0
  195.8950  174.6920  144.3720 C   0  0  2  0  0  3  0  0  0  0  0  0
  196.7400  173.7850  139.6280 C   0  0  0  0  0  2  0  0  0  0  0  0
  196.8630  175.5070  142.1350 C   0  0  0  0  0  0  0  0  0  0  0  0
  195.8350  174.8080  137.4740 C   0  0  0  0  0  2  0  0  0  0  0  0
  196.0190  174.8710  145.7500 O   0  0  0  0  0  0  0  0  0  0  0  0
  194.9010  175.4660  146.1110 O   0  0  0  0  0  1  0  0  0  0  0  0
  193.9640  171.8380  139.7510 C   0  0  0  0  0  1  0  0  0  0  0  0
  193.6200  173.0420  138.8820 C   0  0  1  0  0  3  0  0  0  0  0  0
  192.1160  173.0810  138.5930 C   0  0  0  0  0  2  0  0  0  0  0  0
  190.3090  171.5760  138.0410 N   0  0  0  0  0  2  0  0  0  0  0  0
  191.4930  171.7220  138.5080 C   0  0  0  0  0  3  0  0  0  0  0  0
  192.7860  174.5300  142.0580 C   0  0  0  0  0  2  0  0  0  0  0  0
  184.5060  178.5600  143.9480 C   0  0  0  0  0  3  0  0  0  0  0  0
  187.6350  175.0190  142.9190 C   0  0  0  0  0  2  0  0  0  0  0  0
  191.6780  173.4890  142.0010 C   0  0  1  0  0  3  0  0  0  0  0  0
  187.8650  173.7880  142.0890 C   0  0  0  0  0  0  0  0  0  0  0  0
  185.4380  178.6040  144.9960 C   0  0  0  0  0  3  0  0  0  0  0  0
  184.9070  178.1600  142.6670 C   0  0  0  0  0  3  0  0  0  0  0  0
  189.1050  173.3260  141.8570 C   0  0  0  0  0  0  0  0  0  0  0  0
  186.7730  178.2480  144.7630 C   0  0  0  0  0  3  0  0  0  0  0  0
  191.0970  173.2550  143.3880 C   0  0  0  0  0  2  0  0  0  0  0  0
  190.3150  174.0650  142.3780 C   0  0  1  0  0  0  0  0  0  0  0  0
  186.2420  177.8130  142.4530 C   0  0  0  0  0  0  0  0  0  0  0  0
  187.1600  177.8470  143.4820 C   0  0  0  0  0  0  0  0  0  0  0  0
  188.7550  176.0390  142.6710 C   0  0  2  0  0  0  0  0  0  0  0  0
  190.1890  175.5390  142.8050 C   0  0  0  0  0  2  0  0  0  0  0  0
  186.7920  173.1370  141.5690 F   0  0  0  0  0  0  0  0  0  0  0  0
  186.8800  177.2350  140.9040 S   0  0  0  0  0  0  0  0  0  0  0  0
  188.5610  177.4820  143.1290 C   0  0  1  0  0  3  0  0  0  0  0  0
  189.2690  172.2000  141.1100 F   0  0  0  0  0  0  0  0  0  0  0  0
  188.5760  177.1350  141.6260 C   0  0  1  0  0  3  0  0  0  0  0  0
  1 14  1  6  0  0  0
  1  3  1  0  0  0  0
  1  7  1  0  0  0  0
  3  7  1  0  0  0  0
  3 15  1  1  0  0  0
  4  8  1  0  0  0  0
  5 14  1  0  0  0  0
  6 20  1  6  0  0  0
  6  1  1  0  0  0  0
  7 11  1  0  0  0  0
  8  6  1  0  0  0  0
  9  2  1  0  0  0  0
  9 13  1  0  0  0  0
 10 13  1  0  0  0  0
 11 10  1  0  0  0  0
 12 15  2  0  0  0  0
 13 17  1  0  0  0  0
 15  9  1  0  0  0  0
 16  5  1  0  0  0  0
 16  8  1  0  0  0  0
 17 18  1  0  0  0  0
 20 19  1  0  0  0  0
 21 20  1  0  0  0  0
 22 23  2  0  0  0  0
 23 21  1  0  0  0  0
 24 11  1  0  0  0  0
 25 29  1  0  0  0  0
 27 24  1  0  0  0  0
 27 34  1  0  0  0  0
 27 33  1  0  0  0  0
 28 26  1  0  0  0  0
 30 25  2  0  0  0  0
 31 28  2  0  0  0  0
 31 34  1  0  0  0  0
 32 29  2  0  0  0  0
 34 38  1  0  0  0  0
 34 33  1  0  0  0  0
 35 30  1  0  0  0  0
 35 36  2  0  0  0  0
 36 32  1  0  0  0  0
 37 38  1  0  0  0  0
 37 26  1  0  0  0  0
 37 41  1  0  0  0  0
 39 28  1  0  0  0  0
 40 43  1  0  0  0  0
 40 35  1  0  0  0  0
 41 36  1  0  0  0  0
 42 31  1  0  0  0  0
 43 37  1  0  0  0  0
 43 41  1  0  0  0  0
M  END
>  <MODEL>
8

>  <REMARK>
 VINA RESULT:      -7.0      3.285      4.340
  Name = 
  6 active torsions:
  status: ('A' for Active; 'I' for Inactive)
    1  A    between atoms: C_4  and  C_21
    2  A    between atoms: O_5  and  C_33
    3  A    between atoms: C_13  and  C_14
    4  A    between atoms: C_13  and  C_42
    5  A    between atoms: C_19  and  C_42
    6  A    between atoms: C_21  and  C_31
                            x       y       z     vdW  Elec       q    Type
                         _______ _______ _______ _____ _____    ______ ____

>  <TORSDO>
F 6

$$$$
=
 OpenBabel11062418463D

 43 50  0  0  1  0  0  0  0  0999 V2000
  194.6540  171.5580  143.0590 C   0  0  2  0  0  0  0  0  0  0  0  0
  195.8730  175.9760  143.9990 O   0  0  0  0  0  1  0  0  0  0  0  0
  194.9660  173.0480  143.1570 C   0  0  1  0  0  3  0  0  0  0  0  0
  193.4120  170.8930  139.6130 O   0  0  0  0  0  1  0  0  0  0  0  0
  195.8280  169.5470  142.0570 C   0  0  0  0  0  2  0  0  0  0  0  0
  193.5620  171.2280  142.0270 C   0  0  1  0  0  3  0  0  0  0  0  0
  194.3070  172.3160  144.3300 C   0  0  1  0  0  3  0  0  0  0  0  0
  194.2910  171.0930  140.6760 C   0  0  1  0  0  3  0  0  0  0  0  0
  196.0350  174.8030  144.7400 C   0  0  1  0  0  3  0  0  0  0  0  0
  193.4910  174.5870  145.1320 C   0  0  0  0  0  2  0  0  0  0  0  0
  193.0710  173.1710  144.6680 C   0  0  1  0  0  3  0  0  0  0  0  0
  197.3040  173.2220  143.5100 O   0  0  0  0  0  0  0  0  0  0  0  0
  194.8940  174.6500  145.7730 C   0  0  2  0  0  3  0  0  0  0  0  0
  195.9130  170.6790  143.0830 C   0  0  0  0  0  2  0  0  0  0  0  0
  196.1900  173.6230  143.8050 C   0  0  0  0  0  0  0  0  0  0  0  0
  195.4210  170.0450  140.6620 C   0  0  0  0  0  2  0  0  0  0  0  0
  194.9410  175.7060  146.6840 O   0  0  0  0  0  0  0  0  0  0  0  0
  193.7800  176.3120  146.5520 O   0  0  0  0  0  1  0  0  0  0  0  0
  192.5870  169.7520  143.8980 C   0  0  0  0  0  1  0  0  0  0  0  0
  192.7770  169.9420  142.3980 C   0  0  1  0  0  3  0  0  0  0  0  0
  191.4370  169.8120  141.6670 C   0  0  0  0  0  2  0  0  0  0  0  0
  190.0660  171.5500  140.6990 N   0  0  0  0  0  2  0  0  0  0  0  0
  190.5930  171.0460  141.7530 C   0  0  0  0  0  3  0  0  0  0  0  0
  192.0190  173.2670  143.5680 C   0  0  0  0  0  2  0  0  0  0  0  0
  185.2580  178.6980  147.1980 C   0  0  0  0  0  3  0  0  0  0  0  0
  188.9350  177.4440  144.3160 C   0  0  0  0  0  2  0  0  0  0  0  0
  192.0430  174.6380  142.9050 C   0  0  1  0  0  3  0  0  0  0  0  0
  190.2240  177.9080  143.7010 C   0  0  0  0  0  0  0  0  0  0  0  0
  184.8020  177.5510  146.5300 C   0  0  0  0  0  3  0  0  0  0  0  0
  186.6210  178.8470  147.4860 C   0  0  0  0  0  3  0  0  0  0  0  0
  191.1350  177.0300  143.2470 C   0  0  0  0  0  0  0  0  0  0  0  0
  185.7070  176.5520  146.1500 C   0  0  0  0  0  3  0  0  0  0  0  0
  190.7940  174.8400  142.0610 C   0  0  0  0  0  2  0  0  0  0  0  0
  190.9150  175.5430  143.3950 C   0  0  1  0  0  0  0  0  0  0  0  0
  187.5080  177.8390  147.1040 C   0  0  0  0  0  0  0  0  0  0  0  0
  187.0650  176.7140  146.4400 C   0  0  0  0  0  0  0  0  0  0  0  0
  189.1670  176.1580  145.1220 C   0  0  2  0  0  0  0  0  0  0  0  0
  189.8860  175.0160  144.4120 C   0  0  0  0  0  2  0  0  0  0  0  0
  190.4630  179.2420  143.6040 F   0  0  0  0  0  0  0  0  0  0  0  0
  189.2610  177.9160  147.3510 S   0  0  0  0  0  0  0  0  0  0  0  0
  188.0980  175.6940  146.1080 C   0  0  1  0  0  3  0  0  0  0  0  0
  192.2850  177.4920  142.6840 F   0  0  0  0  0  0  0  0  0  0  0  0
  189.4510  176.2320  146.6180 C   0  0  1  0  0  3  0  0  0  0  0  0
  1 14  1  1  0  0  0
  1  3  1  0  0  0  0
  1  7  1  0  0  0  0
  2  9  1  0  0  0  0
  3 15  1  1  0  0  0
  3  7  1  0  0  0  0
  4  8  1  0  0  0  0
  5 14  1  0  0  0  0
  6 20  1  1  0  0  0
  6  1  1  0  0  0  0
  7 11  1  0  0  0  0
  8  6  1  0  0  0  0
  9 13  1  0  0  0  0
 10 13  1  0  0  0  0
 11 10  1  0  0  0  0
 12 15  2  0  0  0  0
 13 17  1  0  0  0  0
 15  9  1  0  0  0  0
 16  8  1  0  0  0  0
 16  5  1  0  0  0  0
 18 17  1  0  0  0  0
 20 19  1  0  0  0  0
 21 23  1  0  0  0  0
 21 20  1  0  0  0  0
 22 23  2  0  0  0  0
 24 11  1  0  0  0  0
 25 30  1  0  0  0  0
 26 37  1  0  0  0  0
 27 34  1  0  0  0  0
 27 24  1  0  0  0  0
 28 26  1  0  0  0  0
 29 25  2  0  0  0  0
 31 34  1  0  0  0  0
 31 28  2  0  0  0  0
 32 36  2  0  0  0  0
 32 29  1  0  0  0  0
 33 27  1  0  0  0  0
 33 34  1  0  0  0  0
 34 38  1  0  0  0  0
 35 40  1  0  0  0  0
 35 30  2  0  0  0  0
 36 35  1  0  0  0  0
 37 41  1  0  0  0  0
 37 43  1  0  0  0  0
 38 37  1  0  0  0  0
 39 28  1  0  0  0  0
 41 36  1  0  0  0  0
 41 43  1  0  0  0  0
 42 31  1  0  0  0  0
 43 40  1  0  0  0  0
M  END
>  <MODEL>
9

>  <REMARK>
 VINA RESULT:      -6.9      2.441      3.199
  Name = 
  6 active torsions:
  status: ('A' for Active; 'I' for Inactive)
    1  A    between atoms: C_4  and  C_21
    2  A    between atoms: O_5  and  C_33
    3  A    between atoms: C_13  and  C_14
    4  A    between atoms: C_13  and  C_42
    5  A    between atoms: C_19  and  C_42
    6  A    between atoms: C_21  and  C_31
                            x       y       z     vdW  Elec       q    Type
                         _______ _______ _______ _____ _____    ______ ____

>  <TORSDO>
F 6

$$$$
