=
 OpenBabel11062421583D

 35 40  0  0  1  0  0  0  0  0999 V2000
  190.4280  175.2580  147.7280 C   0  0  0  0  0  2  0  0  0  0  0  0
  190.3630  174.9200  146.2300 C   0  0  2  0  0  0  0  0  0  0  0  0
  189.7040  175.8120  145.1520 C   0  0  1  0  0  3  0  0  0  0  0  0
  188.5640  176.6170  145.7480 C   0  0  2  0  0  3  0  0  0  0  0  0
  189.1550  174.7510  147.1870 C   0  0  2  0  0  3  0  0  0  0  0  0
  190.9820  176.2440  145.7500 C   0  0  2  0  0  3  0  0  0  0  0  0
  188.1700  175.8900  147.0100 C   0  0  0  0  0  2  0  0  0  0  0  0
  187.3840  176.7590  144.7650 C   0  0  2  0  0  0  0  0  0  0  0  0
  186.2570  176.1660  145.3240 F   0  0  0  0  0  0  0  0  0  0  0  0
  186.7440  176.3910  142.3130 C   0  0  1  0  0  3  0  0  0  0  0  0
  188.0580  177.1350  142.3410 C   0  0  2  0  0  3  0  0  0  0  0  0
  187.4990  176.6370  141.0210 C   0  0  2  0  0  3  0  0  0  0  0  0
  187.7540  176.1040  143.4150 C   0  0  1  0  0  3  0  0  0  0  0  0
  186.4380  177.1250  139.1510 C   0  0  0  0  0  1  0  0  0  0  0  0
  186.9160  177.6980  140.3310 O   0  0  0  0  0  0  0  0  0  0  0  0
  187.0600  178.2420  144.5300 C   0  0  0  0  0  2  0  0  0  0  0  0
  186.0730  178.8030  145.5490 C   0  0  0  0  0  2  0  0  0  0  0  0
  184.7250  178.9390  144.9360 C   0  0  0  0  0  0  0  0  0  0  0  0
  183.6930  178.8360  145.6500 O   0  0  0  0  0  1  0  0  0  0  0  0
  184.6040  179.1660  143.5690 O   0  0  0  0  0  0  0  0  0  0  0  0
  192.1110  175.9600  144.7680 C   0  0  2  0  0  3  0  0  0  0  0  0
  193.2700  176.9540  144.9090 C   0  0  0  0  0  2  0  0  0  0  0  0
  194.5200  176.3550  145.5590 C   0  0  0  0  0  2  0  0  0  0  0  0
  194.3580  174.9820  145.7730 O   0  0  0  0  0  0  0  0  0  0  0  0
  195.3060  174.3690  144.9490 C   0  0  1  0  0  3  0  0  0  0  0  0
  197.1010  173.4690  146.5320 O   0  0  0  0  0  0  0  0  0  0  0  0
  196.3290  175.2420  144.6930 O   0  0  0  0  0  0  0  0  0  0  0  0
  196.4480  174.1220  145.6780 C   0  0  0  0  0  0  0  0  0  0  0  0
  191.5730  175.8940  143.3420 C   0  0  0  0  0  2  0  0  0  0  0  0
  192.2390  174.7630  142.5550 C   0  0  2  0  0  3  0  0  0  0  0  0
  194.1020  175.7070  141.5980 C   0  0  0  0  0  1  0  0  0  0  0  0
  192.8200  175.1890  141.3390 O   0  0  0  0  0  0  0  0  0  0  0  0
  191.3130  173.5570  142.3830 C   0  0  0  0  0  2  0  0  0  0  0  0
  189.8650  173.7800  140.8140 O   0  0  0  0  0  1  0  0  0  0  0  0
  190.0170  173.9900  142.1050 O   0  0  0  0  0  0  0  0  0  0  0  0
  2  5  1  0  0  0  0
  2  1  1  1  0  0  0
  3  4  1  0  0  0  0
  3  6  1  0  0  0  0
  3  2  1  0  0  0  0
  4  7  1  0  0  0  0
  5  1  1  0  0  0  0
  6  2  1  0  0  0  0
  7  5  1  0  0  0  0
  8  9  1  0  0  0  0
  8  4  1  0  0  0  0
 10 11  1  0  0  0  0
 10 13  1  0  0  0  0
 11 13  1  0  0  0  0
 12 10  1  0  0  0  0
 12 11  1  0  0  0  0
 13  8  1  0  0  0  0
 14 15  1  0  0  0  0
 15 12  1  0  0  0  0
 16  8  1  0  0  0  0
 16 17  1  0  0  0  0
 18 17  1  0  0  0  0
 18 19  1  0  0  0  0
 20 18  2  0  0  0  0
 21 22  1  0  0  0  0
 21  6  1  0  0  0  0
 22 23  1  0  0  0  0
 23 24  1  0  0  0  0
 25 28  1  0  0  0  0
 25 24  1  0  0  0  0
 27 25  1  0  0  0  0
 27 28  1  0  0  0  0
 28 26  2  0  0  0  0
 29 21  1  0  0  0  0
 30 29  1  0  0  0  0
 32 31  1  0  0  0  0
 32 30  1  0  0  0  0
 33 30  1  0  0  0  0
 34 35  1  0  0  0  0
 35 33  1  0  0  0  0
M  END
>  <MODEL>
1

>  <REMARK>
 VINA RESULT:      -6.1      0.000      0.000
  Name = 
  16 active torsions:
  status: ('A' for Active; 'I' for Inactive)
    1  A    between atoms: C_1  and  O_25
    2  A    between atoms: C_1  and  C_35
    3  A    between atoms: C_2  and  C_15
    4  A    between atoms: C_2  and  C_19
    5  A    between atoms: C_3  and  C_34
    6  A    between atoms: C_4  and  O_25
    7  A    between atoms: C_8  and  C_16
    8  A    between atoms: C_8  and  C_21
    9  A    between atoms: C_8  and  C_24
   10  A    between atoms: C_10  and  C_19
   11  A    between atoms: C_10  and  O_30
   12  A    between atoms: C_14  and  O_27
   13  A    between atoms: C_15  and  C_29
   14  A    between atoms: C_15  and  C_35
   15  A    between atoms: C_16  and  C_34
   16  A    between atoms: C_19  and  O_20
                            x       y       z     vdW  Elec       q    Type
                         _______ _______ _______ _____ _____    ______ ____

>  <TORSDO>
F 16

$$$$
=
 OpenBabel11062421583D

 35 40  0  0  1  0  0  0  0  0999 V2000
  190.5950  175.2530  147.3850 C   0  0  0  0  0  2  0  0  0  0  0  0
  190.2010  174.8100  145.9670 C   0  0  2  0  0  0  0  0  0  0  0  0
  189.4390  175.6870  144.9470 C   0  0  1  0  0  3  0  0  0  0  0  0
  188.5280  176.6690  145.6610 C   0  0  2  0  0  3  0  0  0  0  0  0
  189.1940  174.8640  147.1440 C   0  0  2  0  0  3  0  0  0  0  0  0
  190.8480  176.0070  145.2490 C   0  0  2  0  0  3  0  0  0  0  0  0
  188.3180  176.0970  147.0420 C   0  0  0  0  0  2  0  0  0  0  0  0
  187.2000  176.8760  144.9070 C   0  0  2  0  0  0  0  0  0  0  0  0
  186.1820  176.2320  145.6010 F   0  0  0  0  0  0  0  0  0  0  0  0
  186.2160  176.7960  142.5440 C   0  0  1  0  0  3  0  0  0  0  0  0
  187.5820  177.4330  142.4540 C   0  0  2  0  0  3  0  0  0  0  0  0
  186.8150  177.1080  141.1860 C   0  0  2  0  0  3  0  0  0  0  0  0
  187.3320  176.3290  143.4670 C   0  0  1  0  0  3  0  0  0  0  0  0
  184.8850  177.9650  140.5500 C   0  0  0  0  0  1  0  0  0  0  0  0
  186.2410  178.2720  140.6760 O   0  0  0  0  0  0  0  0  0  0  0  0
  186.8480  178.3690  144.8440 C   0  0  0  0  0  2  0  0  0  0  0  0
  185.8630  178.7940  145.9300 C   0  0  0  0  0  2  0  0  0  0  0  0
  184.5260  179.0600  145.3350 C   0  0  0  0  0  0  0  0  0  0  0  0
  183.4820  178.7770  145.9780 O   0  0  0  0  0  1  0  0  0  0  0  0
  184.4310  179.6100  144.0610 O   0  0  0  0  0  0  0  0  0  0  0  0
  191.7260  175.5120  144.1080 C   0  0  2  0  0  3  0  0  0  0  0  0
  191.8210  173.9820  144.0670 C   0  0  0  0  0  2  0  0  0  0  0  0
  191.6490  173.3900  142.6650 C   0  0  0  0  0  2  0  0  0  0  0  0
  190.4290  173.7860  142.1060 O   0  0  0  0  0  0  0  0  0  0  0  0
  190.6210  173.7170  140.7240 C   0  0  1  0  0  3  0  0  0  0  0  0
  188.3610  174.3280  139.6950 O   0  0  0  0  0  0  0  0  0  0  0  0
  190.2150  172.4940  140.2620 O   0  0  0  0  0  0  0  0  0  0  0  0
  189.3950  173.7340  140.0950 C   0  0  0  0  0  0  0  0  0  0  0  0
  193.0980  176.1770  144.1640 C   0  0  0  0  0  2  0  0  0  0  0  0
  194.1090  175.2890  144.8940 C   0  0  2  0  0  3  0  0  0  0  0  0
  194.2220  176.8110  146.6110 C   0  0  0  0  0  1  0  0  0  0  0  0
  194.0870  175.4470  146.2980 O   0  0  0  0  0  0  0  0  0  0  0  0
  195.5150  175.4100  144.3030 C   0  0  0  0  0  2  0  0  0  0  0  0
  196.7420  176.9270  143.4090 O   0  0  0  0  0  1  0  0  0  0  0  0
  195.5360  176.4060  143.3270 O   0  0  0  0  0  0  0  0  0  0  0  0
  2  5  1  0  0  0  0
  2  1  1  1  0  0  0
  3  6  1  0  0  0  0
  3  4  1  0  0  0  0
  3  2  1  0  0  0  0
  4  7  1  0  0  0  0
  5  1  1  0  0  0  0
  6  2  1  0  0  0  0
  7  5  1  0  0  0  0
  8  9  1  0  0  0  0
  8  4  1  0  0  0  0
 10 13  1  0  0  0  0
 11 10  1  0  0  0  0
 11 13  1  0  0  0  0
 12 11  1  0  0  0  0
 12 10  1  0  0  0  0
 13  8  1  0  0  0  0
 14 15  1  0  0  0  0
 15 12  1  0  0  0  0
 16  8  1  0  0  0  0
 16 17  1  0  0  0  0
 18 17  1  0  0  0  0
 18 19  1  0  0  0  0
 20 18  2  0  0  0  0
 21 29  1  0  0  0  0
 21  6  1  0  0  0  0
 22 21  1  0  0  0  0
 23 22  1  0  0  0  0
 24 23  1  0  0  0  0
 25 24  1  0  0  0  0
 26 28  2  0  0  0  0
 27 25  1  0  0  0  0
 28 27  1  0  0  0  0
 28 25  1  0  0  0  0
 29 30  1  0  0  0  0
 30 32  1  0  0  0  0
 32 31  1  0  0  0  0
 33 30  1  0  0  0  0
 35 34  1  0  0  0  0
 35 33  1  0  0  0  0
M  END
>  <MODEL>
2

>  <REMARK>
 VINA RESULT:      -6.1      1.281      4.068
  Name = 
  16 active torsions:
  status: ('A' for Active; 'I' for Inactive)
    1  A    between atoms: C_1  and  O_25
    2  A    between atoms: C_1  and  C_35
    3  A    between atoms: C_2  and  C_15
    4  A    between atoms: C_2  and  C_19
    5  A    between atoms: C_3  and  C_34
    6  A    between atoms: C_4  and  O_25
    7  A    between atoms: C_8  and  C_16
    8  A    between atoms: C_8  and  C_21
    9  A    between atoms: C_8  and  C_24
   10  A    between atoms: C_10  and  C_19
   11  A    between atoms: C_10  and  O_30
   12  A    between atoms: C_14  and  O_27
   13  A    between atoms: C_15  and  C_29
   14  A    between atoms: C_15  and  C_35
   15  A    between atoms: C_16  and  C_34
   16  A    between atoms: C_19  and  O_20
                            x       y       z     vdW  Elec       q    Type
                         _______ _______ _______ _____ _____    ______ ____

>  <TORSDO>
F 16

$$$$
=
 OpenBabel11062421583D

 35 40  0  0  1  0  0  0  0  0999 V2000
  190.0810  175.1950  147.2690 C   0  0  0  0  0  2  0  0  0  0  0  0
  189.3590  174.5390  146.0810 C   0  0  2  0  0  0  0  0  0  0  0  0
  188.7330  175.3070  144.8950 C   0  0  1  0  0  3  0  0  0  0  0  0
  188.2660  176.6830  145.3350 C   0  0  2  0  0  3  0  0  0  0  0  0
  188.6070  175.2270  147.2490 C   0  0  2  0  0  3  0  0  0  0  0  0
  190.2030  175.2260  144.9940 C   0  0  2  0  0  3  0  0  0  0  0  0
  188.1180  176.6000  146.8340 C   0  0  0  0  0  2  0  0  0  0  0  0
  186.9520  177.0940  144.6410 C   0  0  2  0  0  0  0  0  0  0  0  0
  185.9020  176.3730  145.1990 F   0  0  0  0  0  0  0  0  0  0  0  0
  185.7670  177.0900  142.3710 C   0  0  1  0  0  3  0  0  0  0  0  0
  186.8800  178.1080  142.3090 C   0  0  2  0  0  3  0  0  0  0  0  0
  186.0950  177.7680  141.0550 C   0  0  2  0  0  3  0  0  0  0  0  0
  187.0670  176.8370  143.1210 C   0  0  1  0  0  3  0  0  0  0  0  0
  184.0180  178.0920  140.3890 C   0  0  0  0  0  1  0  0  0  0  0  0
  185.1640  178.7740  140.8010 O   0  0  0  0  0  0  0  0  0  0  0  0
  186.6680  178.5850  144.8760 C   0  0  0  0  0  2  0  0  0  0  0  0
  185.2440  178.8510  145.3540 C   0  0  0  0  0  2  0  0  0  0  0  0
  185.2020  178.9000  146.8400 C   0  0  0  0  0  0  0  0  0  0  0  0
  184.3260  178.2500  147.4690 O   0  0  0  0  0  0  0  0  0  0  0  0
  186.1240  179.6760  147.5340 O   0  0  0  0  0  1  0  0  0  0  0  0
  190.7110  174.1880  144.0020 C   0  0  2  0  0  3  0  0  0  0  0  0
  191.9720  173.4730  144.5020 C   0  0  0  0  0  2  0  0  0  0  0  0
  193.2600  174.2710  144.2880 C   0  0  0  0  0  2  0  0  0  0  0  0
  193.8810  174.5470  145.5120 O   0  0  0  0  0  0  0  0  0  0  0  0
  194.7870  175.5760  145.2390 C   0  0  1  0  0  3  0  0  0  0  0  0
  194.3110  177.3800  146.9860 O   0  0  0  0  0  0  0  0  0  0  0  0
  194.1850  176.5270  144.4600 O   0  0  0  0  0  0  0  0  0  0  0  0
  194.4100  176.7060  145.9290 C   0  0  0  0  0  0  0  0  0  0  0  0
  190.9090  174.8180  142.6260 C   0  0  0  0  0  2  0  0  0  0  0  0
  190.3110  173.9360  141.5270 C   0  0  2  0  0  3  0  0  0  0  0  0
  190.4820  173.4180  139.2950 C   0  0  0  0  0  1  0  0  0  0  0  0
  191.2120  173.6630  140.4720 O   0  0  0  0  0  0  0  0  0  0  0  0
  188.9610  174.4600  141.0370 C   0  0  0  0  0  2  0  0  0  0  0  0
  188.4370  172.5990  141.9710 O   0  0  0  0  0  1  0  0  0  0  0  0
  187.9260  173.7760  141.6770 O   0  0  0  0  0  0  0  0  0  0  0  0
  2  5  1  0  0  0  0
  2  1  1  1  0  0  0
  3  6  1  0  0  0  0
  3  4  1  0  0  0  0
  3  2  1  0  0  0  0
  4  7  1  0  0  0  0
  5  1  1  0  0  0  0
  6  2  1  0  0  0  0
  7  5  1  0  0  0  0
  8 16  1  0  0  0  0
  8  9  1  0  0  0  0
  8  4  1  0  0  0  0
 10 13  1  0  0  0  0
 11 10  1  0  0  0  0
 11 13  1  0  0  0  0
 12 11  1  0  0  0  0
 12 10  1  0  0  0  0
 13  8  1  0  0  0  0
 14 15  1  0  0  0  0
 15 12  1  0  0  0  0
 16 17  1  0  0  0  0
 17 18  1  0  0  0  0
 18 19  2  0  0  0  0
 18 20  1  0  0  0  0
 21 22  1  0  0  0  0
 21  6  1  0  0  0  0
 23 22  1  0  0  0  0
 23 24  1  0  0  0  0
 25 24  1  0  0  0  0
 25 28  1  0  0  0  0
 27 25  1  0  0  0  0
 27 28  1  0  0  0  0
 28 26  2  0  0  0  0
 29 21  1  0  0  0  0
 30 29  1  0  0  0  0
 31 32  1  0  0  0  0
 32 30  1  0  0  0  0
 33 30  1  0  0  0  0
 33 35  1  0  0  0  0
 35 34  1  0  0  0  0
M  END
>  <MODEL>
3

>  <REMARK>
 VINA RESULT:      -6.0      1.696      2.264
  Name = 
  16 active torsions:
  status: ('A' for Active; 'I' for Inactive)
    1  A    between atoms: C_1  and  O_25
    2  A    between atoms: C_1  and  C_35
    3  A    between atoms: C_2  and  C_15
    4  A    between atoms: C_2  and  C_19
    5  A    between atoms: C_3  and  C_34
    6  A    between atoms: C_4  and  O_25
    7  A    between atoms: C_8  and  C_16
    8  A    between atoms: C_8  and  C_21
    9  A    between atoms: C_8  and  C_24
   10  A    between atoms: C_10  and  C_19
   11  A    between atoms: C_10  and  O_30
   12  A    between atoms: C_14  and  O_27
   13  A    between atoms: C_15  and  C_29
   14  A    between atoms: C_15  and  C_35
   15  A    between atoms: C_16  and  C_34
   16  A    between atoms: C_19  and  O_20
                            x       y       z     vdW  Elec       q    Type
                         _______ _______ _______ _____ _____    ______ ____

>  <TORSDO>
F 16

$$$$
=
 OpenBabel11062421583D

 35 40  0  0  1  0  0  0  0  0999 V2000
  191.5760  176.3840  147.9890 C   0  0  0  0  0  2  0  0  0  0  0  0
  191.4960  175.4500  146.7710 C   0  0  2  0  0  0  0  0  0  0  0  0
  191.1570  175.9030  145.3320 C   0  0  1  0  0  3  0  0  0  0  0  0
  190.2490  177.1180  145.3540 C   0  0  2  0  0  3  0  0  0  0  0  0
  190.2410  175.9900  147.5050 C   0  0  2  0  0  3  0  0  0  0  0  0
  192.4730  176.2560  145.8980 C   0  0  2  0  0  3  0  0  0  0  0  0
  189.6110  177.1240  146.7220 C   0  0  0  0  0  2  0  0  0  0  0  0
  189.2020  177.0750  144.2230 C   0  0  2  0  0  0  0  0  0  0  0  0
  189.6460  177.8630  143.1660 F   0  0  0  0  0  0  0  0  0  0  0  0
  186.9390  178.1390  143.6740 C   0  0  1  0  0  3  0  0  0  0  0  0
  186.6790  176.7540  144.2150 C   0  0  2  0  0  3  0  0  0  0  0  0
  185.5150  177.6900  143.9450 C   0  0  2  0  0  3  0  0  0  0  0  0
  187.8390  177.5690  144.7590 C   0  0  1  0  0  3  0  0  0  0  0  0
  183.8940  178.2880  142.5760 C   0  0  0  0  0  1  0  0  0  0  0  0
  184.8990  177.3340  142.7470 O   0  0  0  0  0  0  0  0  0  0  0  0
  189.0420  175.6410  143.6970 C   0  0  0  0  0  2  0  0  0  0  0  0
  189.5110  175.4810  142.2540 C   0  0  0  0  0  2  0  0  0  0  0  0
  188.6360  174.5180  141.5340 C   0  0  0  0  0  0  0  0  0  0  0  0
  188.1930  173.5010  142.1300 O   0  0  0  0  0  1  0  0  0  0  0  0
  188.3180  174.7340  140.1970 O   0  0  0  0  0  0  0  0  0  0  0  0
  193.5310  175.3280  145.3160 C   0  0  2  0  0  3  0  0  0  0  0  0
  193.4210  173.9010  145.8650 C   0  0  0  0  0  2  0  0  0  0  0  0
  193.1820  172.8410  144.7870 C   0  0  0  0  0  2  0  0  0  0  0  0
  192.4380  173.3720  143.7270 O   0  0  0  0  0  0  0  0  0  0  0  0
  191.5660  172.3490  143.3440 C   0  0  1  0  0  3  0  0  0  0  0  0
  189.6400  172.4360  145.0250 O   0  0  0  0  0  0  0  0  0  0  0  0
  191.8230  171.2230  144.0800 O   0  0  0  0  0  0  0  0  0  0  0  0
  190.6600  172.1240  144.3570 C   0  0  0  0  0  0  0  0  0  0  0  0
  194.9240  175.9190  145.5100 C   0  0  0  0  0  2  0  0  0  0  0  0
  195.7980  175.6850  144.2760 C   0  0  2  0  0  3  0  0  0  0  0  0
  195.5160  176.3000  142.0800 C   0  0  0  0  0  1  0  0  0  0  0  0
  195.0550  175.4450  143.0970 O   0  0  0  0  0  0  0  0  0  0  0  0
  196.8780  174.6310  144.5250 C   0  0  0  0  0  2  0  0  0  0  0  0
  196.7100  172.5070  144.7860 O   0  0  0  0  0  1  0  0  0  0  0  0
  196.5400  173.4430  143.8760 O   0  0  0  0  0  0  0  0  0  0  0  0
  2  5  1  0  0  0  0
  2  1  1  6  0  0  0
  3  4  1  0  0  0  0
  3  6  1  0  0  0  0
  3  2  1  0  0  0  0
  4  7  1  0  0  0  0
  5  1  1  0  0  0  0
  6  2  1  0  0  0  0
  7  5  1  0  0  0  0
  8 13  1  0  0  0  0
  8  4  1  0  0  0  0
  9  8  1  0  0  0  0
 10 12  1  0  0  0  0
 10 11  1  0  0  0  0
 10 13  1  0  0  0  0
 11 13  1  0  0  0  0
 12 11  1  0  0  0  0
 14 15  1  0  0  0  0
 15 12  1  0  0  0  0
 16  8  1  0  0  0  0
 17 16  1  0  0  0  0
 18 19  1  0  0  0  0
 18 17  1  0  0  0  0
 20 18  2  0  0  0  0
 21 29  1  0  0  0  0
 21 22  1  0  0  0  0
 21  6  1  0  0  0  0
 23 22  1  0  0  0  0
 24 23  1  0  0  0  0
 25 24  1  0  0  0  0
 25 27  1  0  0  0  0
 25 28  1  0  0  0  0
 27 28  1  0  0  0  0
 28 26  2  0  0  0  0
 30 33  1  0  0  0  0
 30 29  1  0  0  0  0
 31 32  1  0  0  0  0
 32 30  1  0  0  0  0
 35 33  1  0  0  0  0
 35 34  1  0  0  0  0
M  END
>  <MODEL>
4

>  <REMARK>
 VINA RESULT:      -5.9      2.113      4.409
  Name = 
  16 active torsions:
  status: ('A' for Active; 'I' for Inactive)
    1  A    between atoms: C_1  and  O_25
    2  A    between atoms: C_1  and  C_35
    3  A    between atoms: C_2  and  C_15
    4  A    between atoms: C_2  and  C_19
    5  A    between atoms: C_3  and  C_34
    6  A    between atoms: C_4  and  O_25
    7  A    between atoms: C_8  and  C_16
    8  A    between atoms: C_8  and  C_21
    9  A    between atoms: C_8  and  C_24
   10  A    between atoms: C_10  and  C_19
   11  A    between atoms: C_10  and  O_30
   12  A    between atoms: C_14  and  O_27
   13  A    between atoms: C_15  and  C_29
   14  A    between atoms: C_15  and  C_35
   15  A    between atoms: C_16  and  C_34
   16  A    between atoms: C_19  and  O_20
                            x       y       z     vdW  Elec       q    Type
                         _______ _______ _______ _____ _____    ______ ____

>  <TORSDO>
F 16

$$$$
=
 OpenBabel11062421583D

 35 40  0  0  1  0  0  0  0  0999 V2000
  192.6880  176.4430  147.1230 C   0  0  0  0  0  2  0  0  0  0  0  0
  191.9760  175.5690  146.0790 C   0  0  2  0  0  0  0  0  0  0  0  0
  190.8180  176.0450  145.1710 C   0  0  1  0  0  3  0  0  0  0  0  0
  190.0080  177.1270  145.8600 C   0  0  2  0  0  3  0  0  0  0  0  0
  191.3600  175.9010  147.4620 C   0  0  2  0  0  3  0  0  0  0  0  0
  192.1820  176.5400  144.9030 C   0  0  2  0  0  3  0  0  0  0  0  0
  190.3040  176.9800  147.3320 C   0  0  0  0  0  2  0  0  0  0  0  0
  188.5020  177.0030  145.5530 C   0  0  2  0  0  0  0  0  0  0  0  0
  188.2210  175.6890  145.1960 F   0  0  0  0  0  0  0  0  0  0  0  0
  188.5540  177.5120  143.0440 C   0  0  1  0  0  3  0  0  0  0  0  0
  187.1080  177.3900  143.4600 C   0  0  2  0  0  3  0  0  0  0  0  0
  187.4540  177.8430  142.0540 C   0  0  2  0  0  3  0  0  0  0  0  0
  188.1210  177.9870  144.4230 C   0  0  1  0  0  3  0  0  0  0  0  0
  186.7260  177.3640  140.0290 C   0  0  0  0  0  1  0  0  0  0  0  0
  187.2850  176.7810  141.1670 O   0  0  0  0  0  0  0  0  0  0  0  0
  187.6730  177.3330  146.8030 C   0  0  0  0  0  2  0  0  0  0  0  0
  186.2120  176.9120  146.6740 C   0  0  0  0  0  2  0  0  0  0  0  0
  185.3200  178.0820  146.8980 C   0  0  0  0  0  0  0  0  0  0  0  0
  185.7650  179.1150  147.4630 O   0  0  0  0  0  1  0  0  0  0  0  0
  183.9910  178.0270  146.4950 O   0  0  0  0  0  0  0  0  0  0  0  0
  192.7580  175.7900  143.7100 C   0  0  2  0  0  3  0  0  0  0  0  0
  191.6800  175.3960  142.6930 C   0  0  0  0  0  2  0  0  0  0  0  0
  191.9630  174.0740  141.9750 C   0  0  0  0  0  2  0  0  0  0  0  0
  190.8000  173.3000  141.8840 O   0  0  0  0  0  0  0  0  0  0  0  0
  189.7710  174.2150  141.6420 C   0  0  1  0  0  3  0  0  0  0  0  0
  187.6040  172.8840  141.9140 O   0  0  0  0  0  0  0  0  0  0  0  0
  189.3670  174.1210  140.3370 O   0  0  0  0  0  0  0  0  0  0  0  0
  188.5880  173.5300  141.4700 C   0  0  0  0  0  0  0  0  0  0  0  0
  193.5780  174.5920  144.1780 C   0  0  0  0  0  2  0  0  0  0  0  0
  195.0650  174.9440  144.2670 C   0  0  2  0  0  3  0  0  0  0  0  0
  196.5510  174.0150  145.7540 C   0  0  0  0  0  1  0  0  0  0  0  0
  195.5540  174.9940  145.5930 O   0  0  0  0  0  0  0  0  0  0  0  0
  195.4120  176.1940  143.4570 C   0  0  0  0  0  2  0  0  0  0  0  0
  197.4840  176.6190  143.0950 O   0  0  0  0  0  1  0  0  0  0  0  0
  196.4810  175.9240  142.6020 O   0  0  0  0  0  0  0  0  0  0  0  0
  1  5  1  0  0  0  0
  2  1  1  1  0  0  0
  2  5  1  0  0  0  0
  3  4  1  0  0  0  0
  3  2  1  0  0  0  0
  4  7  1  0  0  0  0
  6  3  1  0  0  0  0
  6  2  1  0  0  0  0
  7  5  1  0  0  0  0
  8  4  1  0  0  0  0
  8 16  1  0  0  0  0
  9  8  1  0  0  0  0
 10 11  1  0  0  0  0
 10 13  1  0  0  0  0
 11 13  1  0  0  0  0
 12 10  1  0  0  0  0
 12 11  1  0  0  0  0
 13  8  1  0  0  0  0
 14 15  1  0  0  0  0
 15 12  1  0  0  0  0
 17 16  1  0  0  0  0
 17 18  1  0  0  0  0
 18 19  1  0  0  0  0
 20 18  2  0  0  0  0
 21 29  1  0  0  0  0
 21  6  1  0  0  0  0
 22 21  1  0  0  0  0
 23 22  1  0  0  0  0
 24 23  1  0  0  0  0
 25 24  1  0  0  0  0
 27 28  1  0  0  0  0
 27 25  1  0  0  0  0
 28 25  1  0  0  0  0
 28 26  2  0  0  0  0
 29 30  1  0  0  0  0
 30 32  1  0  0  0  0
 32 31  1  0  0  0  0
 33 30  1  0  0  0  0
 35 34  1  0  0  0  0
 35 33  1  0  0  0  0
M  END
>  <MODEL>
5

>  <REMARK>
 VINA RESULT:      -5.9      1.602      4.358
  Name = 
  16 active torsions:
  status: ('A' for Active; 'I' for Inactive)
    1  A    between atoms: C_1  and  O_25
    2  A    between atoms: C_1  and  C_35
    3  A    between atoms: C_2  and  C_15
    4  A    between atoms: C_2  and  C_19
    5  A    between atoms: C_3  and  C_34
    6  A    between atoms: C_4  and  O_25
    7  A    between atoms: C_8  and  C_16
    8  A    between atoms: C_8  and  C_21
    9  A    between atoms: C_8  and  C_24
   10  A    between atoms: C_10  and  C_19
   11  A    between atoms: C_10  and  O_30
   12  A    between atoms: C_14  and  O_27
   13  A    between atoms: C_15  and  C_29
   14  A    between atoms: C_15  and  C_35
   15  A    between atoms: C_16  and  C_34
   16  A    between atoms: C_19  and  O_20
                            x       y       z     vdW  Elec       q    Type
                         _______ _______ _______ _____ _____    ______ ____

>  <TORSDO>
F 16

$$$$
=
 OpenBabel11062421583D

 35 40  0  0  1  0  0  0  0  0999 V2000
  190.8260  175.5550  147.7570 C   0  0  0  0  0  2  0  0  0  0  0  0
  190.8770  176.7060  146.7390 C   0  0  2  0  0  0  0  0  0  0  0  0
  191.1090  176.5320  145.2200 C   0  0  1  0  0  3  0  0  0  0  0  0
  191.9600  175.3060  144.9460 C   0  0  2  0  0  3  0  0  0  0  0  0
  192.1460  175.9910  147.2690 C   0  0  2  0  0  3  0  0  0  0  0  0
  189.8140  176.1190  145.7940 C   0  0  2  0  0  3  0  0  0  0  0  0
  192.6770  175.0110  146.2410 C   0  0  0  0  0  2  0  0  0  0  0  0
  192.9390  175.5340  143.7770 C   0  0  2  0  0  0  0  0  0  0  0  0
  192.3440  176.3810  142.8480 F   0  0  0  0  0  0  0  0  0  0  0  0
  192.1060  173.2940  142.8580 C   0  0  1  0  0  3  0  0  0  0  0  0
  192.7770  174.0360  141.7280 C   0  0  2  0  0  3  0  0  0  0  0  0
  192.3170  172.6040  141.5250 C   0  0  2  0  0  3  0  0  0  0  0  0
  193.3130  174.1750  143.1420 C   0  0  1  0  0  3  0  0  0  0  0  0
  190.4510  171.4590  141.2620 C   0  0  0  0  0  1  0  0  0  0  0  0
  191.1220  172.5950  140.8060 O   0  0  0  0  0  0  0  0  0  0  0  0
  194.2180  176.2210  144.2790 C   0  0  0  0  0  2  0  0  0  0  0  0
  195.4910  175.5450  143.7770 C   0  0  0  0  0  2  0  0  0  0  0  0
  196.2080  176.4400  142.8290 C   0  0  0  0  0  0  0  0  0  0  0  0
  195.6950  176.7190  141.7140 O   0  0  0  0  0  0  0  0  0  0  0  0
  197.4530  176.9570  143.1710 O   0  0  0  0  0  1  0  0  0  0  0  0
  188.7670  177.1780  145.4730 C   0  0  2  0  0  3  0  0  0  0  0  0
  187.3400  176.6200  145.5200 C   0  0  0  0  0  2  0  0  0  0  0  0
  186.4080  177.3860  146.4630 C   0  0  0  0  0  2  0  0  0  0  0  0
  185.0890  176.9370  146.3290 O   0  0  0  0  0  0  0  0  0  0  0  0
  184.2960  178.0690  146.5340 C   0  0  1  0  0  3  0  0  0  0  0  0
  183.7450  178.9450  144.1960 O   0  0  0  0  0  0  0  0  0  0  0  0
  185.0750  179.1940  146.4970 O   0  0  0  0  0  0  0  0  0  0  0  0
  184.2010  178.7760  145.3560 C   0  0  0  0  0  0  0  0  0  0  0  0
  189.0830  177.8520  144.1420 C   0  0  0  0  0  2  0  0  0  0  0  0
  188.3930  177.1300  142.9820 C   0  0  2  0  0  3  0  0  0  0  0  0
  188.8680  174.9630  142.3830 C   0  0  0  0  0  1  0  0  0  0  0  0
  189.2640  176.3050  142.2340 O   0  0  0  0  0  0  0  0  0  0  0  0
  187.5810  178.0860  142.1080 C   0  0  0  0  0  2  0  0  0  0  0  0
  185.6370  178.4230  141.2620 O   0  0  0  0  0  1  0  0  0  0  0  0
  186.2180  177.8670  142.3050 O   0  0  0  0  0  0  0  0  0  0  0  0
  2  5  1  0  0  0  0
  2  1  1  6  0  0  0
  3  6  1  0  0  0  0
  3  2  1  0  0  0  0
  4  3  1  0  0  0  0
  4  7  1  0  0  0  0
  5  1  1  0  0  0  0
  6  2  1  0  0  0  0
  7  5  1  0  0  0  0
  8 16  1  0  0  0  0
  8  4  1  0  0  0  0
  9  8  1  0  0  0  0
 10 13  1  0  0  0  0
 11 10  1  0  0  0  0
 11 13  1  0  0  0  0
 12 11  1  0  0  0  0
 12 10  1  0  0  0  0
 13  8  1  0  0  0  0
 15 14  1  0  0  0  0
 15 12  1  0  0  0  0
 17 16  1  0  0  0  0
 18 20  1  0  0  0  0
 18 17  1  0  0  0  0
 19 18  2  0  0  0  0
 21 22  1  0  0  0  0
 21  6  1  0  0  0  0
 22 23  1  0  0  0  0
 24 23  1  0  0  0  0
 24 25  1  0  0  0  0
 26 28  2  0  0  0  0
 27 25  1  0  0  0  0
 28 27  1  0  0  0  0
 28 25  1  0  0  0  0
 29 21  1  0  0  0  0
 30 29  1  0  0  0  0
 32 31  1  0  0  0  0
 32 30  1  0  0  0  0
 33 35  1  0  0  0  0
 33 30  1  0  0  0  0
 34 35  1  0  0  0  0
M  END
>  <MODEL>
6

>  <REMARK>
 VINA RESULT:      -5.9      2.260      7.672
  Name = 
  16 active torsions:
  status: ('A' for Active; 'I' for Inactive)
    1  A    between atoms: C_1  and  O_25
    2  A    between atoms: C_1  and  C_35
    3  A    between atoms: C_2  and  C_15
    4  A    between atoms: C_2  and  C_19
    5  A    between atoms: C_3  and  C_34
    6  A    between atoms: C_4  and  O_25
    7  A    between atoms: C_8  and  C_16
    8  A    between atoms: C_8  and  C_21
    9  A    between atoms: C_8  and  C_24
   10  A    between atoms: C_10  and  C_19
   11  A    between atoms: C_10  and  O_30
   12  A    between atoms: C_14  and  O_27
   13  A    between atoms: C_15  and  C_29
   14  A    between atoms: C_15  and  C_35
   15  A    between atoms: C_16  and  C_34
   16  A    between atoms: C_19  and  O_20
                            x       y       z     vdW  Elec       q    Type
                         _______ _______ _______ _____ _____    ______ ____

>  <TORSDO>
F 16

$$$$
=
 OpenBabel11062421583D

 35 40  0  0  1  0  0  0  0  0999 V2000
  191.1910  175.4270  147.9890 C   0  0  0  0  0  2  0  0  0  0  0  0
  191.3220  175.0410  146.5060 C   0  0  2  0  0  0  0  0  0  0  0  0
  190.9980  175.9770  145.3190 C   0  0  1  0  0  3  0  0  0  0  0  0
  189.9140  176.9690  145.7000 C   0  0  2  0  0  3  0  0  0  0  0  0
  189.9610  175.0960  147.2460 C   0  0  2  0  0  3  0  0  0  0  0  0
  192.2110  176.2360  146.1180 C   0  0  2  0  0  3  0  0  0  0  0  0
  189.2080  176.3620  146.8880 C   0  0  0  0  0  2  0  0  0  0  0  0
  188.9500  177.2460  144.5290 C   0  0  2  0  0  0  0  0  0  0  0  0
  189.4720  178.2710  143.7470 F   0  0  0  0  0  0  0  0  0  0  0  0
  186.6610  178.2930  144.0550 C   0  0  1  0  0  3  0  0  0  0  0  0
  186.4420  176.8400  144.4000 C   0  0  2  0  0  3  0  0  0  0  0  0
  185.2500  177.7620  144.2200 C   0  0  2  0  0  3  0  0  0  0  0  0
  187.5550  177.6160  145.0830 C   0  0  1  0  0  3  0  0  0  0  0  0
  183.7190  178.5520  142.8450 C   0  0  0  0  0  1  0  0  0  0  0  0
  184.6800  177.5470  142.9660 O   0  0  0  0  0  0  0  0  0  0  0  0
  188.8200  176.0020  143.6380 C   0  0  0  0  0  2  0  0  0  0  0  0
  189.2290  176.2620  142.1910 C   0  0  0  0  0  2  0  0  0  0  0  0
  188.1780  175.7650  141.2630 C   0  0  0  0  0  0  0  0  0  0  0  0
  187.2650  176.5380  140.8700 O   0  0  0  0  0  1  0  0  0  0  0  0
  188.1960  174.4400  140.8410 O   0  0  0  0  0  0  0  0  0  0  0  0
  193.4280  175.7450  145.3470 C   0  0  2  0  0  3  0  0  0  0  0  0
  194.7280  175.9050  146.1460 C   0  0  0  0  0  2  0  0  0  0  0  0
  195.6200  174.6610  146.1280 C   0  0  0  0  0  2  0  0  0  0  0  0
  196.5100  174.7050  145.0480 O   0  0  0  0  0  0  0  0  0  0  0  0
  197.5130  173.7850  145.3640 C   0  0  1  0  0  3  0  0  0  0  0  0
  196.6980  171.5470  144.4330 O   0  0  0  0  0  0  0  0  0  0  0  0
  197.1930  173.1310  146.5240 O   0  0  0  0  0  0  0  0  0  0  0  0
  197.0340  172.5080  145.1720 C   0  0  0  0  0  0  0  0  0  0  0  0
  193.5010  176.4190  143.9800 C   0  0  0  0  0  2  0  0  0  0  0  0
  193.8530  175.4080  142.8870 C   0  0  2  0  0  3  0  0  0  0  0  0
  194.7870  176.1230  140.9130 C   0  0  0  0  0  1  0  0  0  0  0  0
  195.0680  175.6950  142.2230 O   0  0  0  0  0  0  0  0  0  0  0  0
  192.6900  175.1710  141.9230 C   0  0  0  0  0  2  0  0  0  0  0  0
  191.4320  173.6670  141.0500 O   0  0  0  0  0  1  0  0  0  0  0  0
  192.1600  173.8960  142.1230 O   0  0  0  0  0  0  0  0  0  0  0  0
  2  5  1  0  0  0  0
  2  1  1  1  0  0  0
  3  4  1  0  0  0  0
  3  6  1  0  0  0  0
  3  2  1  0  0  0  0
  4  7  1  0  0  0  0
  5  1  1  0  0  0  0
  6  2  1  0  0  0  0
  7  5  1  0  0  0  0
  8 13  1  0  0  0  0
  8  4  1  0  0  0  0
  9  8  1  0  0  0  0
 10 12  1  0  0  0  0
 10 11  1  0  0  0  0
 10 13  1  0  0  0  0
 11 13  1  0  0  0  0
 12 11  1  0  0  0  0
 14 15  1  0  0  0  0
 15 12  1  0  0  0  0
 16  8  1  0  0  0  0
 17 16  1  0  0  0  0
 18 17  1  0  0  0  0
 19 18  1  0  0  0  0
 20 18  2  0  0  0  0
 21  6  1  0  0  0  0
 21 22  1  0  0  0  0
 23 22  1  0  0  0  0
 24 25  1  0  0  0  0
 24 23  1  0  0  0  0
 25 27  1  0  0  0  0
 26 28  2  0  0  0  0
 28 25  1  0  0  0  0
 28 27  1  0  0  0  0
 29 21  1  0  0  0  0
 30 29  1  0  0  0  0
 31 32  1  0  0  0  0
 32 30  1  0  0  0  0
 33 35  1  0  0  0  0
 33 30  1  0  0  0  0
 34 35  1  0  0  0  0
M  END
>  <MODEL>
7

>  <REMARK>
 VINA RESULT:      -5.9      1.636      3.040
  Name = 
  16 active torsions:
  status: ('A' for Active; 'I' for Inactive)
    1  A    between atoms: C_1  and  O_25
    2  A    between atoms: C_1  and  C_35
    3  A    between atoms: C_2  and  C_15
    4  A    between atoms: C_2  and  C_19
    5  A    between atoms: C_3  and  C_34
    6  A    between atoms: C_4  and  O_25
    7  A    between atoms: C_8  and  C_16
    8  A    between atoms: C_8  and  C_21
    9  A    between atoms: C_8  and  C_24
   10  A    between atoms: C_10  and  C_19
   11  A    between atoms: C_10  and  O_30
   12  A    between atoms: C_14  and  O_27
   13  A    between atoms: C_15  and  C_29
   14  A    between atoms: C_15  and  C_35
   15  A    between atoms: C_16  and  C_34
   16  A    between atoms: C_19  and  O_20
                            x       y       z     vdW  Elec       q    Type
                         _______ _______ _______ _____ _____    ______ ____

>  <TORSDO>
F 16

$$$$
=
 OpenBabel11062421583D

 35 40  0  0  1  0  0  0  0  0999 V2000
  190.1380  175.3530  147.5870 C   0  0  0  0  0  2  0  0  0  0  0  0
  189.8180  174.9250  146.1450 C   0  0  2  0  0  0  0  0  0  0  0  0
  189.1610  175.8330  145.0800 C   0  0  1  0  0  3  0  0  0  0  0  0
  188.2470  176.8520  145.7360 C   0  0  2  0  0  3  0  0  0  0  0  0
  188.7410  175.0230  147.2560 C   0  0  2  0  0  3  0  0  0  0  0  0
  190.5590  176.0940  145.4730 C   0  0  2  0  0  3  0  0  0  0  0  0
  187.9250  176.2900  147.0990 C   0  0  0  0  0  2  0  0  0  0  0  0
  186.9800  177.1130  144.8980 C   0  0  2  0  0  0  0  0  0  0  0  0
  185.9160  176.4170  145.4600 F   0  0  0  0  0  0  0  0  0  0  0  0
  186.0480  176.9630  142.5170 C   0  0  1  0  0  3  0  0  0  0  0  0
  187.2620  177.8600  142.4820 C   0  0  2  0  0  3  0  0  0  0  0  0
  186.5830  177.4560  141.1870 C   0  0  2  0  0  3  0  0  0  0  0  0
  187.2270  176.6770  143.4360 C   0  0  1  0  0  3  0  0  0  0  0  0
  184.5560  177.9260  140.4570 C   0  0  0  0  0  1  0  0  0  0  0  0
  185.7960  178.5100  140.7250 O   0  0  0  0  0  0  0  0  0  0  0  0
  186.6220  178.6070  144.9210 C   0  0  0  0  0  2  0  0  0  0  0  0
  185.2340  178.8760  145.4950 C   0  0  0  0  0  2  0  0  0  0  0  0
  185.2910  178.9110  146.9810 C   0  0  0  0  0  0  0  0  0  0  0  0
  184.4290  178.2940  147.6600 O   0  0  0  0  0  1  0  0  0  0  0  0
  186.2920  179.6360  147.6200 O   0  0  0  0  0  0  0  0  0  0  0  0
  191.4870  175.5610  144.3900 C   0  0  2  0  0  3  0  0  0  0  0  0
  190.7980  174.5320  143.4850 C   0  0  0  0  0  2  0  0  0  0  0  0
  190.6720  174.9790  142.0260 C   0  0  0  0  0  2  0  0  0  0  0  0
  189.3850  174.7220  141.5390 O   0  0  0  0  0  0  0  0  0  0  0  0
  189.1430  173.3780  141.8380 C   0  0  1  0  0  3  0  0  0  0  0  0
  189.1260  172.1750  139.5820 O   0  0  0  0  0  0  0  0  0  0  0  0
  187.8080  173.1090  141.7070 O   0  0  0  0  0  0  0  0  0  0  0  0
  188.8190  172.7080  140.6790 C   0  0  0  0  0  0  0  0  0  0  0  0
  192.7730  175.0210  145.0080 C   0  0  0  0  0  2  0  0  0  0  0  0
  193.8990  174.9650  143.9730 C   0  0  2  0  0  3  0  0  0  0  0  0
  195.2270  173.2310  144.6880 C   0  0  0  0  0  1  0  0  0  0  0  0
  194.3350  173.6510  143.6850 O   0  0  0  0  0  0  0  0  0  0  0  0
  195.0500  175.9110  144.3200 C   0  0  0  0  0  2  0  0  0  0  0  0
  196.7910  176.8700  143.5100 O   0  0  0  0  0  1  0  0  0  0  0  0
  195.6010  176.4370  143.1510 O   0  0  0  0  0  0  0  0  0  0  0  0
  2  5  1  0  0  0  0
  2  1  1  1  0  0  0
  3  6  1  0  0  0  0
  3  4  1  0  0  0  0
  3  2  1  0  0  0  0
  4  7  1  0  0  0  0
  5  1  1  0  0  0  0
  6  2  1  0  0  0  0
  7  5  1  0  0  0  0
  8 16  1  0  0  0  0
  8  9  1  0  0  0  0
  8  4  1  0  0  0  0
 10 13  1  0  0  0  0
 11 10  1  0  0  0  0
 11 13  1  0  0  0  0
 12 11  1  0  0  0  0
 12 10  1  0  0  0  0
 13  8  1  0  0  0  0
 14 15  1  0  0  0  0
 15 12  1  0  0  0  0
 16 17  1  0  0  0  0
 17 18  1  0  0  0  0
 18 20  2  0  0  0  0
 18 19  1  0  0  0  0
 21 29  1  0  0  0  0
 21  6  1  0  0  0  0
 22 21  1  0  0  0  0
 23 22  1  0  0  0  0
 24 25  1  0  0  0  0
 24 23  1  0  0  0  0
 26 28  2  0  0  0  0
 27 25  1  0  0  0  0
 28 27  1  0  0  0  0
 28 25  1  0  0  0  0
 30 33  1  0  0  0  0
 30 29  1  0  0  0  0
 32 30  1  0  0  0  0
 32 31  1  0  0  0  0
 35 34  1  0  0  0  0
 35 33  1  0  0  0  0
M  END
>  <MODEL>
8

>  <REMARK>
 VINA RESULT:      -5.8      1.625      4.235
  Name = 
  16 active torsions:
  status: ('A' for Active; 'I' for Inactive)
    1  A    between atoms: C_1  and  O_25
    2  A    between atoms: C_1  and  C_35
    3  A    between atoms: C_2  and  C_15
    4  A    between atoms: C_2  and  C_19
    5  A    between atoms: C_3  and  C_34
    6  A    between atoms: C_4  and  O_25
    7  A    between atoms: C_8  and  C_16
    8  A    between atoms: C_8  and  C_21
    9  A    between atoms: C_8  and  C_24
   10  A    between atoms: C_10  and  C_19
   11  A    between atoms: C_10  and  O_30
   12  A    between atoms: C_14  and  O_27
   13  A    between atoms: C_15  and  C_29
   14  A    between atoms: C_15  and  C_35
   15  A    between atoms: C_16  and  C_34
   16  A    between atoms: C_19  and  O_20
                            x       y       z     vdW  Elec       q    Type
                         _______ _______ _______ _____ _____    ______ ____

>  <TORSDO>
F 16

$$$$
=
 OpenBabel11062421583D

 35 40  0  0  1  0  0  0  0  0999 V2000
  189.4770  174.9650  147.3390 C   0  0  0  0  0  2  0  0  0  0  0  0
  189.7770  176.2970  146.6330 C   0  0  2  0  0  0  0  0  0  0  0  0
  190.7180  176.4590  145.4160 C   0  0  1  0  0  3  0  0  0  0  0  0
  191.8130  175.4080  145.4430 C   0  0  2  0  0  3  0  0  0  0  0  0
  190.7630  175.6250  147.6230 C   0  0  2  0  0  3  0  0  0  0  0  0
  189.4090  175.8070  145.2220 C   0  0  2  0  0  3  0  0  0  0  0  0
  191.8850  174.9330  146.8740 C   0  0  0  0  0  2  0  0  0  0  0  0
  193.1610  175.9680  144.9460 C   0  0  2  0  0  0  0  0  0  0  0  0
  193.0990  177.3580  144.9460 F   0  0  0  0  0  0  0  0  0  0  0  0
  192.5140  174.3050  143.1100 C   0  0  1  0  0  3  0  0  0  0  0  0
  192.3310  175.6970  142.5560 C   0  0  2  0  0  3  0  0  0  0  0  0
  192.1730  174.4940  141.6450 C   0  0  2  0  0  3  0  0  0  0  0  0
  193.4610  175.4180  143.5330 C   0  0  1  0  0  3  0  0  0  0  0  0
  190.7890  173.3650  140.3520 C   0  0  0  0  0  1  0  0  0  0  0  0
  190.8180  174.2390  141.4410 O   0  0  0  0  0  0  0  0  0  0  0  0
  194.2940  175.5530  145.8960 C   0  0  0  0  0  2  0  0  0  0  0  0
  195.5590  175.1240  145.1580 C   0  0  0  0  0  2  0  0  0  0  0  0
  196.0780  173.8510  145.7280 C   0  0  0  0  0  0  0  0  0  0  0  0
  197.0380  173.8690  146.5420 O   0  0  0  0  0  1  0  0  0  0  0  0
  195.5090  172.6400  145.3500 O   0  0  0  0  0  0  0  0  0  0  0  0
  188.4540  176.7940  144.5660 C   0  0  2  0  0  3  0  0  0  0  0  0
  189.1170  177.5780  143.4270 C   0  0  0  0  0  2  0  0  0  0  0  0
  188.5880  177.2150  142.0370 C   0  0  0  0  0  2  0  0  0  0  0  0
  187.6770  178.1780  141.5870 O   0  0  0  0  0  0  0  0  0  0  0  0
  186.5250  177.4610  141.2510 C   0  0  1  0  0  3  0  0  0  0  0  0
  186.7060  177.0280  138.7370 O   0  0  0  0  0  0  0  0  0  0  0  0
  185.5690  178.3190  140.7780 O   0  0  0  0  0  0  0  0  0  0  0  0
  186.3860  177.4440  139.8810 C   0  0  0  0  0  0  0  0  0  0  0  0
  187.8310  177.7110  145.6150 C   0  0  0  0  0  2  0  0  0  0  0  0
  186.3750  178.0310  145.2710 C   0  0  2  0  0  3  0  0  0  0  0  0
  185.3970  179.7150  144.0500 C   0  0  0  0  0  1  0  0  0  0  0  0
  186.0950  179.4160  145.2350 O   0  0  0  0  0  0  0  0  0  0  0  0
  185.3910  177.2470  146.1400 C   0  0  0  0  0  2  0  0  0  0  0  0
  185.5760  177.6360  148.2430 O   0  0  0  0  0  1  0  0  0  0  0  0
  184.9260  178.0550  147.1780 O   0  0  0  0  0  0  0  0  0  0  0  0
  1  5  1  0  0  0  0
  2  1  1  6  0  0  0
  2  5  1  0  0  0  0
  3  4  1  0  0  0  0
  3  2  1  0  0  0  0
  4  7  1  0  0  0  0
  6  3  1  0  0  0  0
  6  2  1  0  0  0  0
  7  5  1  0  0  0  0
  8  9  1  0  0  0  0
  8  4  1  0  0  0  0
  8 16  1  0  0  0  0
 10 13  1  0  0  0  0
 11 10  1  0  0  0  0
 11 13  1  0  0  0  0
 12 11  1  0  0  0  0
 12 10  1  0  0  0  0
 13  8  1  0  0  0  0
 14 15  1  0  0  0  0
 15 12  1  0  0  0  0
 17 18  1  0  0  0  0
 17 16  1  0  0  0  0
 18 19  1  0  0  0  0
 20 18  2  0  0  0  0
 21  6  1  0  0  0  0
 21 29  1  0  0  0  0
 22 21  1  0  0  0  0
 23 22  1  0  0  0  0
 24 23  1  0  0  0  0
 25 24  1  0  0  0  0
 26 28  2  0  0  0  0
 27 25  1  0  0  0  0
 28 27  1  0  0  0  0
 28 25  1  0  0  0  0
 30 29  1  0  0  0  0
 30 33  1  0  0  0  0
 31 32  1  0  0  0  0
 32 30  1  0  0  0  0
 33 35  1  0  0  0  0
 35 34  1  0  0  0  0
M  END
>  <MODEL>
9

>  <REMARK>
 VINA RESULT:      -5.8      1.823      7.900
  Name = 
  16 active torsions:
  status: ('A' for Active; 'I' for Inactive)
    1  A    between atoms: C_1  and  O_25
    2  A    between atoms: C_1  and  C_35
    3  A    between atoms: C_2  and  C_15
    4  A    between atoms: C_2  and  C_19
    5  A    between atoms: C_3  and  C_34
    6  A    between atoms: C_4  and  O_25
    7  A    between atoms: C_8  and  C_16
    8  A    between atoms: C_8  and  C_21
    9  A    between atoms: C_8  and  C_24
   10  A    between atoms: C_10  and  C_19
   11  A    between atoms: C_10  and  O_30
   12  A    between atoms: C_14  and  O_27
   13  A    between atoms: C_15  and  C_29
   14  A    between atoms: C_15  and  C_35
   15  A    between atoms: C_16  and  C_34
   16  A    between atoms: C_19  and  O_20
                            x       y       z     vdW  Elec       q    Type
                         _______ _______ _______ _____ _____    ______ ____

>  <TORSDO>
F 16

$$$$
