=
 OpenBabel11062422033D

 34 35  0  0  1  0  0  0  0  0999 V2000
  193.6420  176.3610  143.9090 C   0  0  0  0  0  1  0  0  0  0  0  0
  192.4680  175.6800  144.6450 C   0  0  1  0  0  3  0  0  0  0  0  0
  190.8290  174.4130  143.3550 C   0  0  1  0  0  3  0  0  0  0  0  0
  191.5490  172.3010  144.3910 O   0  0  0  0  0  1  0  0  0  0  0  0
  191.2290  173.6730  144.5090 C   0  0  1  0  0  3  0  0  0  0  0  0
  192.2470  174.4100  143.9000 N   0  0  0  0  0  0  0  0  0  0  0  0
  191.4100  174.1160  141.0100 O   0  0  0  0  0  0  0  0  0  0  0  0
  190.7030  173.7020  141.9730 C   0  0  0  0  0  0  0  0  0  0  0  0
  189.5470  172.8080  141.6240 C   0  0  2  0  0  3  0  0  0  0  0  0
  189.9640  171.7980  140.5440 C   0  0  0  0  0  0  0  0  0  0  0  0
  189.5170  171.8920  139.2510 O   0  0  0  0  0  0  0  0  0  0  0  0
  190.7090  170.8170  140.8590 O   0  0  0  0  0  1  0  0  0  0  0  0
  188.3360  173.5280  141.2620 C   0  0  0  0  0  2  0  0  0  0  0  0
  188.3960  174.9140  140.7960 N   0  0  0  0  0  2  0  0  0  0  0  0
  187.5510  175.7740  141.6630 C   0  0  0  0  0  2  0  0  0  0  0  0
  185.8630  177.3890  140.9180 O   0  0  0  0  0  1  0  0  0  0  0  0
  187.2190  177.1800  141.0920 C   0  0  1  0  0  3  0  0  0  0  0  0
  187.7520  178.2190  142.0270 C   0  0  0  0  0  2  0  0  0  0  0  0
  189.1790  178.2260  141.9960 O   0  0  0  0  0  1  0  0  0  0  0  0
  192.8220  175.3510  146.1110 C   0  0  1  0  0  3  0  0  0  0  0  0
  194.2950  175.1530  146.1590 C   0  0  0  0  0  1  0  0  0  0  0  0
  192.4510  176.5980  147.0090 C   0  0  0  0  0  2  0  0  0  0  0  0
  189.0320  176.3220  146.3860 C   0  0  0  0  0  0  0  0  0  0  0  0
  190.0250  177.0430  146.5810 N   0  0  0  0  0  0  0  0  0  0  0  0
  190.9600  176.5030  147.5980 C   0  0  1  0  0  3  0  0  0  0  0  0
  190.3900  175.0400  147.7070 C   0  0  0  0  0  2  0  0  0  0  0  0
  189.0100  175.1320  147.0900 N   0  0  0  0  0  2  0  0  0  0  0  0
  187.9530  176.8050  145.4180 C   0  0  0  0  0  2  0  0  0  0  0  0
  186.6510  177.5190  147.2980 O   0  0  0  0  0  0  0  0  0  0  0  0
  184.0290  179.0400  144.0450 C   0  0  0  0  0  1  0  0  0  0  0  0
  186.8750  177.6330  146.0510 C   0  0  0  0  0  0  0  0  0  0  0  0
  186.1280  178.5270  145.1940 N   0  0  0  0  0  2  0  0  0  0  0  0
  184.0480  178.5970  146.3230 O   0  0  0  0  0  0  0  0  0  0  0  0
  184.7140  178.7680  145.2860 C   0  0  0  0  0  0  0  0  0  0  0  0
  2  1  1  6  0  0  0
  2 20  1  0  0  0  0
  3  8  1  6  0  0  0
  3  6  1  0  0  0  0
  3  5  1  0  0  0  0
  5  4  1  6  0  0  0
  6  5  1  0  0  0  0
  6  2  1  0  0  0  0
  7  8  2  0  0  0  0
  9 13  1  6  0  0  0
  9  8  1  0  0  0  0
 10 12  1  0  0  0  0
 10  9  1  0  0  0  0
 11 10  2  0  0  0  0
 14 13  1  0  0  0  0
 14 15  1  0  0  0  0
 17 16  1  1  0  0  0
 17 15  1  0  0  0  0
 17 18  1  0  0  0  0
 19 18  1  0  0  0  0
 20 21  1  6  0  0  0
 20 22  1  0  0  0  0
 23 24  2  0  0  0  0
 23 27  1  0  0  0  0
 24 25  1  0  0  0  0
 25 22  1  6  0  0  0
 25 26  1  0  0  0  0
 27 26  1  0  0  0  0
 28 31  1  0  0  0  0
 28 23  1  0  0  0  0
 30 34  1  0  0  0  0
 31 29  2  0  0  0  0
 32 34  1  0  0  0  0
 32 31  1  0  0  0  0
 34 33  2  0  0  0  0
M  END
>  <MODEL>
1

>  <REMARK>
 VINA RESULT:      -5.9      0.000      0.000
  Name = 
  14 active torsions:
  status: ('A' for Active; 'I' for Inactive)
    1  A    between atoms: C_2  and  C_30
    2  A    between atoms: C_3  and  C_9
    3  A    between atoms: C_3  and  N_20
    4  A    between atoms: C_4  and  C_9
    5  A    between atoms: C_8  and  C_12
    6  A    between atoms: C_8  and  C_16
    7  A    between atoms: C_9  and  C_30
    8  A    between atoms: C_10  and  C_18
    9  A    between atoms: C_10  and  C_24
   10  A    between atoms: C_14  and  C_23
   11  A    between atoms: C_18  and  N_31
   12  A    between atoms: N_20  and  C_27
   13  A    between atoms: C_23  and  C_27
   14  A    between atoms: C_24  and  C_25
                            x       y       z     vdW  Elec       q    Type
                         _______ _______ _______ _____ _____    ______ ____

>  <TORSDO>
F 14

$$$$
=
 OpenBabel11062422033D

 34 35  0  0  1  0  0  0  0  0999 V2000
  190.5180  175.3560  146.9890 C   0  0  0  0  0  1  0  0  0  0  0  0
  190.3820  176.5330  145.9980 C   0  0  1  0  0  3  0  0  0  0  0  0
  192.6540  176.6860  145.1230 C   0  0  1  0  0  3  0  0  0  0  0  0
  191.8200  177.0510  142.8380 O   0  0  0  0  0  1  0  0  0  0  0  0
  191.7360  177.3090  144.2260 C   0  0  1  0  0  3  0  0  0  0  0  0
  191.2550  176.1580  144.8530 N   0  0  0  0  0  0  0  0  0  0  0  0
  194.7640  176.2750  143.9800 O   0  0  0  0  0  0  0  0  0  0  0  0
  193.7760  175.7530  144.5730 C   0  0  0  0  0  0  0  0  0  0  0  0
  193.5820  174.2750  144.3820 C   0  0  2  0  0  3  0  0  0  0  0  0
  194.4820  173.4920  145.3510 C   0  0  0  0  0  0  0  0  0  0  0  0
  194.1340  172.2520  145.8220 O   0  0  0  0  0  1  0  0  0  0  0  0
  195.5600  174.0200  145.7680 O   0  0  0  0  0  0  0  0  0  0  0  0
  193.7440  173.8340  143.0060 C   0  0  0  0  0  2  0  0  0  0  0  0
  192.8430  172.8360  142.4260 N   0  0  0  0  0  2  0  0  0  0  0  0
  191.4850  172.9850  143.0080 C   0  0  0  0  0  2  0  0  0  0  0  0
  189.1980  172.1020  142.9680 O   0  0  0  0  0  1  0  0  0  0  0  0
  190.3380  172.3050  142.2110 C   0  0  1  0  0  3  0  0  0  0  0  0
  189.9910  173.1640  141.0370 C   0  0  0  0  0  2  0  0  0  0  0  0
  189.9190  174.5350  141.4320 O   0  0  0  0  0  1  0  0  0  0  0  0
  188.9310  176.6960  145.4960 C   0  0  1  0  0  3  0  0  0  0  0  0
  188.6800  175.5790  144.5470 C   0  0  0  0  0  1  0  0  0  0  0  0
  187.9530  176.5410  146.7270 C   0  0  0  0  0  2  0  0  0  0  0  0
  185.4730  178.7800  145.7310 C   0  0  0  0  0  0  0  0  0  0  0  0
  186.6690  178.4460  145.7310 N   0  0  0  0  0  0  0  0  0  0  0  0
  187.1300  177.8890  147.0250 C   0  0  1  0  0  3  0  0  0  0  0  0
  185.7310  177.6650  147.7120 C   0  0  0  0  0  2  0  0  0  0  0  0
  184.7780  178.5150  146.8970 N   0  0  0  0  0  2  0  0  0  0  0  0
  184.8940  179.4420  144.4810 C   0  0  0  0  0  2  0  0  0  0  0  0
  184.2530  177.8540  142.8060 O   0  0  0  0  0  0  0  0  0  0  0  0
  188.5850  178.1300  141.8490 C   0  0  0  0  0  1  0  0  0  0  0  0
  185.1290  178.6810  143.2100 C   0  0  0  0  0  0  0  0  0  0  0  0
  186.3660  178.9280  142.5020 N   0  0  0  0  0  2  0  0  0  0  0  0
  186.7020  176.8370  141.4430 O   0  0  0  0  0  0  0  0  0  0  0  0
  187.1570  177.9220  141.8500 C   0  0  0  0  0  0  0  0  0  0  0  0
  2  1  1  1  0  0  0
  3  8  1  6  0  0  0
  5  4  1  6  0  0  0
  5  6  1  0  0  0  0
  5  3  1  0  0  0  0
  6  3  1  0  0  0  0
  6  2  1  0  0  0  0
  7  8  2  0  0  0  0
  9 13  1  6  0  0  0
  9  8  1  0  0  0  0
  9 10  1  0  0  0  0
 10 12  2  0  0  0  0
 10 11  1  0  0  0  0
 14 13  1  0  0  0  0
 14 15  1  0  0  0  0
 17 16  1  1  0  0  0
 17 15  1  0  0  0  0
 18 19  1  0  0  0  0
 18 17  1  0  0  0  0
 20 21  1  6  0  0  0
 20  2  1  0  0  0  0
 20 22  1  0  0  0  0
 23 27  1  0  0  0  0
 24 23  2  0  0  0  0
 24 25  1  0  0  0  0
 25 22  1  6  0  0  0
 25 26  1  0  0  0  0
 27 26  1  0  0  0  0
 28 23  1  0  0  0  0
 29 31  2  0  0  0  0
 30 34  1  0  0  0  0
 31 28  1  0  0  0  0
 32 31  1  0  0  0  0
 33 34  2  0  0  0  0
 34 32  1  0  0  0  0
M  END
>  <MODEL>
2

>  <REMARK>
 VINA RESULT:      -5.7      2.185      5.007
  Name = 
  14 active torsions:
  status: ('A' for Active; 'I' for Inactive)
    1  A    between atoms: C_2  and  C_30
    2  A    between atoms: C_3  and  C_9
    3  A    between atoms: C_3  and  N_20
    4  A    between atoms: C_4  and  C_9
    5  A    between atoms: C_8  and  C_12
    6  A    between atoms: C_8  and  C_16
    7  A    between atoms: C_9  and  C_30
    8  A    between atoms: C_10  and  C_18
    9  A    between atoms: C_10  and  C_24
   10  A    between atoms: C_14  and  C_23
   11  A    between atoms: C_18  and  N_31
   12  A    between atoms: N_20  and  C_27
   13  A    between atoms: C_23  and  C_27
   14  A    between atoms: C_24  and  C_25
                            x       y       z     vdW  Elec       q    Type
                         _______ _______ _______ _____ _____    ______ ____

>  <TORSDO>
F 14

$$$$
=
 OpenBabel11062422033D

 34 35  0  0  1  0  0  0  0  0999 V2000
  193.8720  172.4250  142.9050 C   0  0  0  0  0  1  0  0  0  0  0  0
  192.8770  173.4460  143.4970 C   0  0  1  0  0  3  0  0  0  0  0  0
  190.5110  173.6280  142.9290 C   0  0  1  0  0  3  0  0  0  0  0  0
  189.8580  172.4650  144.9960 O   0  0  0  0  0  1  0  0  0  0  0  0
  190.6680  173.4150  144.3320 C   0  0  1  0  0  3  0  0  0  0  0  0
  191.5760  172.7240  143.5270 N   0  0  0  0  0  0  0  0  0  0  0  0
  189.6010  171.6170  141.9030 O   0  0  0  0  0  0  0  0  0  0  0  0
  189.4210  172.8470  142.1350 C   0  0  0  0  0  0  0  0  0  0  0  0
  188.3580  173.5350  141.3240 C   0  0  2  0  0  3  0  0  0  0  0  0
  188.8440  173.7460  139.8820 C   0  0  0  0  0  0  0  0  0  0  0  0
  187.9720  173.8090  138.8250 O   0  0  0  0  0  0  0  0  0  0  0  0
  190.0910  173.8200  139.6460 O   0  0  0  0  0  1  0  0  0  0  0  0
  187.8680  174.7660  141.9230 C   0  0  0  0  0  2  0  0  0  0  0  0
  188.2260  176.0700  141.3630 N   0  0  0  0  0  2  0  0  0  0  0  0
  186.9950  176.8220  141.0090 C   0  0  0  0  0  2  0  0  0  0  0  0
  186.9440  178.6210  142.6750 O   0  0  0  0  0  1  0  0  0  0  0  0
  186.2690  177.5130  142.1970 C   0  0  1  0  0  3  0  0  0  0  0  0
  184.9060  177.9340  141.7490 C   0  0  0  0  0  2  0  0  0  0  0  0
  184.0790  178.2140  142.8790 O   0  0  0  0  0  1  0  0  0  0  0  0
  193.2620  173.8550  144.9350 C   0  0  1  0  0  3  0  0  0  0  0  0
  194.2670  172.8650  145.4060 C   0  0  0  0  0  1  0  0  0  0  0  0
  193.9420  175.2810  144.8870 C   0  0  0  0  0  2  0  0  0  0  0  0
  190.9490  176.9000  145.6450 C   0  0  0  0  0  0  0  0  0  0  0  0
  192.0140  176.8730  145.0060 N   0  0  0  0  0  0  0  0  0  0  0  0
  193.1630  176.3580  145.7890 C   0  0  1  0  0  3  0  0  0  0  0  0
  192.3780  175.7480  147.0100 C   0  0  0  0  0  2  0  0  0  0  0  0
  191.0100  176.3900  146.9290 N   0  0  0  0  0  2  0  0  0  0  0  0
  189.7050  177.4830  144.9760 C   0  0  0  0  0  2  0  0  0  0  0  0
  188.1670  175.6660  145.2420 O   0  0  0  0  0  0  0  0  0  0  0  0
  185.3840  179.0310  146.0750 C   0  0  0  0  0  1  0  0  0  0  0  0
  188.4100  176.8960  145.4520 C   0  0  0  0  0  0  0  0  0  0  0  0
  187.4850  177.7780  146.1300 N   0  0  0  0  0  2  0  0  0  0  0  0
  185.4160  176.7640  145.5830 O   0  0  0  0  0  0  0  0  0  0  0  0
  186.0580  177.7600  145.9650 C   0  0  0  0  0  0  0  0  0  0  0  0
  2  1  1  1  0  0  0
  2  6  1  0  0  0  0
  2 20  1  0  0  0  0
  3  8  1  6  0  0  0
  3  6  1  0  0  0  0
  3  5  1  0  0  0  0
  5  4  1  6  0  0  0
  6  5  1  0  0  0  0
  7  8  2  0  0  0  0
  9 13  1  1  0  0  0
  9  8  1  0  0  0  0
 10  9  1  0  0  0  0
 11 10  2  0  0  0  0
 12 10  1  0  0  0  0
 14 13  1  0  0  0  0
 15 14  1  0  0  0  0
 15 17  1  0  0  0  0
 17 16  1  6  0  0  0
 18 17  1  0  0  0  0
 18 19  1  0  0  0  0
 20 21  1  6  0  0  0
 22 20  1  0  0  0  0
 23 27  1  0  0  0  0
 24 23  2  0  0  0  0
 24 25  1  0  0  0  0
 25 22  1  6  0  0  0
 25 26  1  0  0  0  0
 27 26  1  0  0  0  0
 28 31  1  0  0  0  0
 28 23  1  0  0  0  0
 29 31  2  0  0  0  0
 31 32  1  0  0  0  0
 33 34  2  0  0  0  0
 34 30  1  0  0  0  0
 34 32  1  0  0  0  0
M  END
>  <MODEL>
3

>  <REMARK>
 VINA RESULT:      -5.6      1.820      2.426
  Name = 
  14 active torsions:
  status: ('A' for Active; 'I' for Inactive)
    1  A    between atoms: C_2  and  C_30
    2  A    between atoms: C_3  and  C_9
    3  A    between atoms: C_3  and  N_20
    4  A    between atoms: C_4  and  C_9
    5  A    between atoms: C_8  and  C_12
    6  A    between atoms: C_8  and  C_16
    7  A    between atoms: C_9  and  C_30
    8  A    between atoms: C_10  and  C_18
    9  A    between atoms: C_10  and  C_24
   10  A    between atoms: C_14  and  C_23
   11  A    between atoms: C_18  and  N_31
   12  A    between atoms: N_20  and  C_27
   13  A    between atoms: C_23  and  C_27
   14  A    between atoms: C_24  and  C_25
                            x       y       z     vdW  Elec       q    Type
                         _______ _______ _______ _____ _____    ______ ____

>  <TORSDO>
F 14

$$$$
=
 OpenBabel11062422033D

 34 35  0  0  1  0  0  0  0  0999 V2000
  187.8450  172.9280  142.0480 C   0  0  0  0  0  1  0  0  0  0  0  0
  189.0550  173.8720  142.2190 C   0  0  1  0  0  3  0  0  0  0  0  0
  188.9380  176.2910  141.9180 C   0  0  1  0  0  3  0  0  0  0  0  0
  189.0510  176.6640  144.3470 O   0  0  0  0  0  1  0  0  0  0  0  0
  189.4960  175.9780  143.1940 C   0  0  1  0  0  3  0  0  0  0  0  0
  188.4740  175.1250  142.7750 N   0  0  0  0  0  0  0  0  0  0  0  0
  188.1970  178.6050  142.0720 O   0  0  0  0  0  0  0  0  0  0  0  0
  187.8680  177.4180  141.7860 C   0  0  0  0  0  0  0  0  0  0  0  0
  186.3960  177.1310  141.6950 C   0  0  2  0  0  3  0  0  0  0  0  0
  185.8710  177.4870  140.2960 C   0  0  0  0  0  0  0  0  0  0  0  0
  186.6180  177.2730  139.1650 O   0  0  0  0  0  0  0  0  0  0  0  0
  184.7330  178.0390  140.1760 O   0  0  0  0  0  1  0  0  0  0  0  0
  185.6100  177.7520  142.7500 C   0  0  0  0  0  2  0  0  0  0  0  0
  185.8530  177.4300  144.1570 N   0  0  0  0  0  2  0  0  0  0  0  0
  186.1490  178.6730  144.9140 C   0  0  0  0  0  2  0  0  0  0  0  0
  183.9580  178.6170  146.0150 O   0  0  0  0  0  1  0  0  0  0  0  0
  185.3010  178.8930  146.1970 C   0  0  1  0  0  3  0  0  0  0  0  0
  185.8310  178.0120  147.2830 C   0  0  0  0  0  2  0  0  0  0  0  0
  186.6680  178.7620  148.1640 O   0  0  0  0  0  1  0  0  0  0  0  0
  190.0880  173.3080  143.2170 C   0  0  1  0  0  3  0  0  0  0  0  0
  189.3510  172.3780  144.1140 C   0  0  0  0  0  1  0  0  0  0  0  0
  191.1670  172.4810  142.4100 C   0  0  0  0  0  2  0  0  0  0  0  0
  193.3180  174.4150  144.3550 C   0  0  0  0  0  0  0  0  0  0  0  0
  192.7860  174.1930  143.2550 N   0  0  0  0  0  0  0  0  0  0  0  0
  192.6600  172.7510  142.9360 C   0  0  1  0  0  3  0  0  0  0  0  0
  192.9730  172.1540  144.3590 C   0  0  0  0  0  2  0  0  0  0  0  0
  193.6330  173.2950  145.1030 N   0  0  0  0  0  2  0  0  0  0  0  0
  193.5770  175.8630  144.7680 C   0  0  0  0  0  2  0  0  0  0  0  0
  193.6440  176.7650  146.9870 O   0  0  0  0  0  0  0  0  0  0  0  0
  189.6700  174.7810  147.1840 C   0  0  0  0  0  1  0  0  0  0  0  0
  192.9310  176.2670  146.0600 C   0  0  0  0  0  0  0  0  0  0  0  0
  191.5050  176.0570  146.1880 N   0  0  0  0  0  2  0  0  0  0  0  0
  191.3070  175.7320  148.5250 O   0  0  0  0  0  0  0  0  0  0  0  0
  190.8430  175.5990  147.3770 C   0  0  0  0  0  0  0  0  0  0  0  0
  2  1  1  1  0  0  0
  2  6  1  0  0  0  0
  2 20  1  0  0  0  0
  3  8  1  1  0  0  0
  3  6  1  0  0  0  0
  3  5  1  0  0  0  0
  5  4  1  1  0  0  0
  6  5  1  0  0  0  0
  8  7  2  0  0  0  0
  9  8  1  0  0  0  0
  9 13  1  1  0  0  0
 10  9  1  0  0  0  0
 11 10  2  0  0  0  0
 12 10  1  0  0  0  0
 13 14  1  0  0  0  0
 14 15  1  0  0  0  0
 15 17  1  0  0  0  0
 17 16  1  6  0  0  0
 17 18  1  0  0  0  0
 18 19  1  0  0  0  0
 20 21  1  1  0  0  0
 22 20  1  0  0  0  0
 23 28  1  0  0  0  0
 23 27  1  0  0  0  0
 24 23  2  0  0  0  0
 25 22  1  1  0  0  0
 25 24  1  0  0  0  0
 25 26  1  0  0  0  0
 26 27  1  0  0  0  0
 28 31  1  0  0  0  0
 30 34  1  0  0  0  0
 31 32  1  0  0  0  0
 31 29  2  0  0  0  0
 32 34  1  0  0  0  0
 34 33  2  0  0  0  0
M  END
>  <MODEL>
4

>  <REMARK>
 VINA RESULT:      -5.6      2.465      5.883
  Name = 
  14 active torsions:
  status: ('A' for Active; 'I' for Inactive)
    1  A    between atoms: C_2  and  C_30
    2  A    between atoms: C_3  and  C_9
    3  A    between atoms: C_3  and  N_20
    4  A    between atoms: C_4  and  C_9
    5  A    between atoms: C_8  and  C_12
    6  A    between atoms: C_8  and  C_16
    7  A    between atoms: C_9  and  C_30
    8  A    between atoms: C_10  and  C_18
    9  A    between atoms: C_10  and  C_24
   10  A    between atoms: C_14  and  C_23
   11  A    between atoms: C_18  and  N_31
   12  A    between atoms: N_20  and  C_27
   13  A    between atoms: C_23  and  C_27
   14  A    between atoms: C_24  and  C_25
                            x       y       z     vdW  Elec       q    Type
                         _______ _______ _______ _____ _____    ______ ____

>  <TORSDO>
F 14

$$$$
=
 OpenBabel11062422033D

 34 35  0  0  1  0  0  0  0  0999 V2000
  189.4090  174.6330  146.4200 C   0  0  0  0  0  1  0  0  0  0  0  0
  189.6160  176.1190  146.0550 C   0  0  1  0  0  3  0  0  0  0  0  0
  191.8690  176.3860  145.1570 C   0  0  1  0  0  3  0  0  0  0  0  0
  191.0100  177.5590  143.1720 O   0  0  0  0  0  1  0  0  0  0  0  0
  190.9870  177.3420  144.5690 C   0  0  1  0  0  3  0  0  0  0  0  0
  190.4230  176.0870  144.8030 N   0  0  0  0  0  0  0  0  0  0  0  0
  193.7770  176.2660  143.6490 O   0  0  0  0  0  0  0  0  0  0  0  0
  192.8890  175.6110  144.2670 C   0  0  0  0  0  0  0  0  0  0  0  0
  192.6610  174.1960  143.8160 C   0  0  2  0  0  3  0  0  0  0  0  0
  193.6280  173.2460  144.5390 C   0  0  0  0  0  0  0  0  0  0  0  0
  194.4360  172.3740  143.8540 O   0  0  0  0  0  0  0  0  0  0  0  0
  193.6540  173.2270  145.8090 O   0  0  0  0  0  1  0  0  0  0  0  0
  192.7020  174.0260  142.3720 C   0  0  0  0  0  2  0  0  0  0  0  0
  191.5000  174.2150  141.5590 N   0  0  0  0  0  2  0  0  0  0  0  0
  190.2980  173.8230  142.3380 C   0  0  0  0  0  2  0  0  0  0  0  0
  189.7360  171.4460  142.5540 O   0  0  0  0  0  1  0  0  0  0  0  0
  189.5250  172.5860  141.8010 C   0  0  1  0  0  3  0  0  0  0  0  0
  188.0620  172.8970  141.7950 C   0  0  0  0  0  2  0  0  0  0  0  0
  187.8560  174.3030  141.6540 O   0  0  0  0  0  1  0  0  0  0  0  0
  188.2780  176.8340  145.7750 C   0  0  1  0  0  3  0  0  0  0  0  0
  187.6070  176.0740  144.6870 C   0  0  0  0  0  1  0  0  0  0  0  0
  187.3820  176.7510  147.0750 C   0  0  0  0  0  2  0  0  0  0  0  0
  185.2360  178.9320  145.4060 C   0  0  0  0  0  0  0  0  0  0  0  0
  186.3590  178.6990  145.8810 N   0  0  0  0  0  0  0  0  0  0  0  0
  186.3190  177.9520  147.1610 C   0  0  1  0  0  3  0  0  0  0  0  0
  184.8120  177.4960  147.1350 C   0  0  0  0  0  2  0  0  0  0  0  0
  184.1680  178.4040  146.1080 N   0  0  0  0  0  2  0  0  0  0  0  0
  185.1370  179.7650  144.1280 C   0  0  0  0  0  2  0  0  0  0  0  0
  186.3750  178.9390  142.2510 O   0  0  0  0  0  0  0  0  0  0  0  0
  182.2660  178.1570  140.7450 C   0  0  0  0  0  1  0  0  0  0  0  0
  185.2590  178.9740  142.8600 C   0  0  0  0  0  0  0  0  0  0  0  0
  184.0790  178.2870  142.3830 N   0  0  0  0  0  2  0  0  0  0  0  0
  184.4760  178.2800  140.0490 O   0  0  0  0  0  0  0  0  0  0  0  0
  183.6850  178.1850  141.0050 C   0  0  0  0  0  0  0  0  0  0  0  0
  2  1  1  6  0  0  0
  3  8  1  6  0  0  0
  5  4  1  6  0  0  0
  5  6  1  0  0  0  0
  5  3  1  0  0  0  0
  6  3  1  0  0  0  0
  6  2  1  0  0  0  0
  7  8  2  0  0  0  0
  9 13  1  6  0  0  0
  9  8  1  0  0  0  0
  9 10  1  0  0  0  0
 10 12  1  0  0  0  0
 11 10  2  0  0  0  0
 14 15  1  0  0  0  0
 14 13  1  0  0  0  0
 17 15  1  0  0  0  0
 17 16  1  1  0  0  0
 18 17  1  0  0  0  0
 19 18  1  0  0  0  0
 20 21  1  6  0  0  0
 20  2  1  0  0  0  0
 20 22  1  0  0  0  0
 23 24  2  0  0  0  0
 23 27  1  0  0  0  0
 24 25  1  0  0  0  0
 25 22  1  6  0  0  0
 26 25  1  0  0  0  0
 27 26  1  0  0  0  0
 28 23  1  0  0  0  0
 29 31  2  0  0  0  0
 30 34  1  0  0  0  0
 31 28  1  0  0  0  0
 32 31  1  0  0  0  0
 33 34  2  0  0  0  0
 34 32  1  0  0  0  0
M  END
>  <MODEL>
5

>  <REMARK>
 VINA RESULT:      -5.6      2.319      4.870
  Name = 
  14 active torsions:
  status: ('A' for Active; 'I' for Inactive)
    1  A    between atoms: C_2  and  C_30
    2  A    between atoms: C_3  and  C_9
    3  A    between atoms: C_3  and  N_20
    4  A    between atoms: C_4  and  C_9
    5  A    between atoms: C_8  and  C_12
    6  A    between atoms: C_8  and  C_16
    7  A    between atoms: C_9  and  C_30
    8  A    between atoms: C_10  and  C_18
    9  A    between atoms: C_10  and  C_24
   10  A    between atoms: C_14  and  C_23
   11  A    between atoms: C_18  and  N_31
   12  A    between atoms: N_20  and  C_27
   13  A    between atoms: C_23  and  C_27
   14  A    between atoms: C_24  and  C_25
                            x       y       z     vdW  Elec       q    Type
                         _______ _______ _______ _____ _____    ______ ____

>  <TORSDO>
F 14

$$$$
=
 OpenBabel11062422033D

 34 35  0  0  1  0  0  0  0  0999 V2000
  190.6840  175.5610  142.9770 C   0  0  0  0  0  1  0  0  0  0  0  0
  189.4460  175.5850  143.8990 C   0  0  1  0  0  3  0  0  0  0  0  0
  190.3080  174.9350  146.0870 C   0  0  1  0  0  3  0  0  0  0  0  0
  189.0670  176.7520  147.1890 O   0  0  0  0  0  1  0  0  0  0  0  0
  189.1180  175.7090  146.2350 C   0  0  1  0  0  3  0  0  0  0  0  0
  189.9560  176.1130  145.1940 N   0  0  0  0  0  0  0  0  0  0  0  0
  191.3630  175.8380  148.0870 O   0  0  0  0  0  0  0  0  0  0  0  0
  191.5390  175.2100  147.0040 C   0  0  0  0  0  0  0  0  0  0  0  0
  192.9560  175.0980  146.5140 C   0  0  2  0  0  3  0  0  0  0  0  0
  193.4990  176.4850  146.1390 C   0  0  0  0  0  0  0  0  0  0  0  0
  192.9390  177.2370  145.1380 O   0  0  0  0  0  0  0  0  0  0  0  0
  194.5250  176.9380  146.7380 O   0  0  0  0  0  1  0  0  0  0  0  0
  193.1320  174.1320  145.4410 C   0  0  0  0  0  2  0  0  0  0  0  0
  194.1200  174.3540  144.3840 N   0  0  0  0  0  2  0  0  0  0  0  0
  195.4330  173.7940  144.7960 C   0  0  0  0  0  2  0  0  0  0  0  0
  197.8590  174.1320  144.8960 O   0  0  0  0  0  1  0  0  0  0  0  0
  196.6490  174.7460  144.6290 C   0  0  1  0  0  3  0  0  0  0  0  0
  196.6680  175.2620  143.2250 C   0  0  0  0  0  2  0  0  0  0  0  0
  197.4490  176.4560  143.1480 O   0  0  0  0  0  1  0  0  0  0  0  0
  188.3490  176.5310  143.3640 C   0  0  1  0  0  3  0  0  0  0  0  0
  188.7490  177.9100  143.7520 C   0  0  0  0  0  1  0  0  0  0  0  0
  188.3300  176.4370  141.7870 C   0  0  0  0  0  2  0  0  0  0  0  0
  185.1910  177.9530  141.7760 C   0  0  0  0  0  0  0  0  0  0  0  0
  185.9480  177.0730  142.2190 N   0  0  0  0  0  0  0  0  0  0  0  0
  186.8390  176.4840  141.1910 C   0  0  1  0  0  3  0  0  0  0  0  0
  186.6250  177.5400  140.0430 C   0  0  0  0  0  2  0  0  0  0  0  0
  185.3580  178.2680  140.4400 N   0  0  0  0  0  2  0  0  0  0  0  0
  184.1670  178.5840  142.7190 C   0  0  0  0  0  2  0  0  0  0  0  0
  185.4110  180.1660  144.0190 O   0  0  0  0  0  0  0  0  0  0  0  0
  185.3860  176.7890  146.9110 C   0  0  0  0  0  1  0  0  0  0  0  0
  184.7390  179.0870  144.0110 C   0  0  0  0  0  0  0  0  0  0  0  0
  184.5000  178.2980  145.2000 N   0  0  0  0  0  2  0  0  0  0  0  0
  186.4230  178.8200  146.4790 O   0  0  0  0  0  0  0  0  0  0  0  0
  185.4610  178.0660  146.2430 C   0  0  0  0  0  0  0  0  0  0  0  0
  2  1  1  6  0  0  0
  2  6  1  0  0  0  0
  3  5  1  0  0  0  0
  3  8  1  1  0  0  0
  5  4  1  1  0  0  0
  6  3  1  0  0  0  0
  6  5  1  0  0  0  0
  8  7  2  0  0  0  0
  9 13  1  6  0  0  0
  9  8  1  0  0  0  0
 10  9  1  0  0  0  0
 10 12  1  0  0  0  0
 11 10  2  0  0  0  0
 14 15  1  0  0  0  0
 14 13  1  0  0  0  0
 17 15  1  0  0  0  0
 17 16  1  6  0  0  0
 18 17  1  0  0  0  0
 19 18  1  0  0  0  0
 20 21  1  6  0  0  0
 20  2  1  0  0  0  0
 22 20  1  0  0  0  0
 23 24  2  0  0  0  0
 23 28  1  0  0  0  0
 25 22  1  1  0  0  0
 25 24  1  0  0  0  0
 26 27  1  0  0  0  0
 26 25  1  0  0  0  0
 27 23  1  0  0  0  0
 28 31  1  0  0  0  0
 31 29  2  0  0  0  0
 31 32  1  0  0  0  0
 32 34  1  0  0  0  0
 34 33  2  0  0  0  0
 34 30  1  0  0  0  0
M  END
>  <MODEL>
6

>  <REMARK>
 VINA RESULT:      -5.6      3.211      6.669
  Name = 
  14 active torsions:
  status: ('A' for Active; 'I' for Inactive)
    1  A    between atoms: C_2  and  C_30
    2  A    between atoms: C_3  and  C_9
    3  A    between atoms: C_3  and  N_20
    4  A    between atoms: C_4  and  C_9
    5  A    between atoms: C_8  and  C_12
    6  A    between atoms: C_8  and  C_16
    7  A    between atoms: C_9  and  C_30
    8  A    between atoms: C_10  and  C_18
    9  A    between atoms: C_10  and  C_24
   10  A    between atoms: C_14  and  C_23
   11  A    between atoms: C_18  and  N_31
   12  A    between atoms: N_20  and  C_27
   13  A    between atoms: C_23  and  C_27
   14  A    between atoms: C_24  and  C_25
                            x       y       z     vdW  Elec       q    Type
                         _______ _______ _______ _____ _____    ______ ____

>  <TORSDO>
F 14

$$$$
=
 OpenBabel11062422033D

 34 35  0  0  1  0  0  0  0  0999 V2000
  184.2830  178.2280  142.0730 C   0  0  0  0  0  1  0  0  0  0  0  0
  185.2080  177.6040  143.1400 C   0  0  1  0  0  3  0  0  0  0  0  0
  187.0700  176.0420  142.9320 C   0  0  1  0  0  3  0  0  0  0  0  0
  188.6790  177.8890  142.7010 O   0  0  0  0  0  1  0  0  0  0  0  0
  187.5450  177.3270  143.3330 C   0  0  1  0  0  3  0  0  0  0  0  0
  186.4870  177.3490  142.4230 N   0  0  0  0  0  0  0  0  0  0  0  0
  187.8360  175.6910  140.6470 O   0  0  0  0  0  0  0  0  0  0  0  0
  187.8230  175.2380  141.8280 C   0  0  0  0  0  0  0  0  0  0  0  0
  188.2180  173.7980  142.0010 C   0  0  2  0  0  3  0  0  0  0  0  0
  189.3280  173.6740  143.0560 C   0  0  0  0  0  0  0  0  0  0  0  0
  190.2130  174.6930  143.3000 O   0  0  0  0  0  0  0  0  0  0  0  0
  189.4660  172.5840  143.6930 O   0  0  0  0  0  1  0  0  0  0  0  0
  188.5670  173.1310  140.7560 C   0  0  0  0  0  2  0  0  0  0  0  0
  189.9630  173.0100  140.3350 N   0  0  0  0  0  2  0  0  0  0  0  0
  190.2410  171.6140  139.9090 C   0  0  0  0  0  2  0  0  0  0  0  0
  189.7270  172.1210  137.5660 O   0  0  0  0  0  1  0  0  0  0  0  0
  190.5800  171.4280  138.4050 C   0  0  1  0  0  3  0  0  0  0  0  0
  191.9800  171.8980  138.1640 C   0  0  0  0  0  2  0  0  0  0  0  0
  192.8500  171.3980  139.1800 O   0  0  0  0  0  1  0  0  0  0  0  0
  185.4700  178.5750  144.3120 C   0  0  1  0  0  3  0  0  0  0  0  0
  185.2540  179.9480  143.7840 C   0  0  0  0  0  1  0  0  0  0  0  0
  184.4020  178.2960  145.4430 C   0  0  0  0  0  2  0  0  0  0  0  0
  187.2100  176.9550  147.0150 C   0  0  0  0  0  0  0  0  0  0  0  0
  186.1430  176.7760  146.4050 N   0  0  0  0  0  0  0  0  0  0  0  0
  185.0730  177.7280  146.7880 C   0  0  1  0  0  3  0  0  0  0  0  0
  185.9440  178.7740  147.5790 C   0  0  0  0  0  2  0  0  0  0  0  0
  187.2310  178.0350  147.8790 N   0  0  0  0  0  2  0  0  0  0  0  0
  188.3680  175.9890  146.7680 C   0  0  0  0  0  2  0  0  0  0  0  0
  189.7190  177.7490  145.8650 O   0  0  0  0  0  0  0  0  0  0  0  0
  192.9080  174.7220  146.5190 C   0  0  0  0  0  1  0  0  0  0  0  0
  189.6870  176.6530  146.5090 C   0  0  0  0  0  0  0  0  0  0  0  0
  190.8770  175.9970  147.0060 N   0  0  0  0  0  2  0  0  0  0  0  0
  192.4840  176.7250  145.4280 O   0  0  0  0  0  0  0  0  0  0  0  0
  192.1280  175.9170  146.3050 C   0  0  0  0  0  0  0  0  0  0  0  0
  2  1  1  6  0  0  0
  2 20  1  0  0  0  0
  3  8  1  6  0  0  0
  3  5  1  0  0  0  0
  5  4  1  6  0  0  0
  6  3  1  0  0  0  0
  6  2  1  0  0  0  0
  6  5  1  0  0  0  0
  7  8  2  0  0  0  0
  8  9  1  0  0  0  0
  9 13  1  6  0  0  0
  9 10  1  0  0  0  0
 10 11  2  0  0  0  0
 10 12  1  0  0  0  0
 14 13  1  0  0  0  0
 15 14  1  0  0  0  0
 17 16  1  6  0  0  0
 17 15  1  0  0  0  0
 18 17  1  0  0  0  0
 18 19  1  0  0  0  0
 20 21  1  6  0  0  0
 20 22  1  0  0  0  0
 23 27  1  0  0  0  0
 24 25  1  0  0  0  0
 24 23  2  0  0  0  0
 25 22  1  6  0  0  0
 25 26  1  0  0  0  0
 26 27  1  0  0  0  0
 28 23  1  0  0  0  0
 29 31  2  0  0  0  0
 31 28  1  0  0  0  0
 31 32  1  0  0  0  0
 33 34  2  0  0  0  0
 34 30  1  0  0  0  0
 34 32  1  0  0  0  0
M  END
>  <MODEL>
7

>  <REMARK>
 VINA RESULT:      -5.6      2.155      6.162
  Name = 
  14 active torsions:
  status: ('A' for Active; 'I' for Inactive)
    1  A    between atoms: C_2  and  C_30
    2  A    between atoms: C_3  and  C_9
    3  A    between atoms: C_3  and  N_20
    4  A    between atoms: C_4  and  C_9
    5  A    between atoms: C_8  and  C_12
    6  A    between atoms: C_8  and  C_16
    7  A    between atoms: C_9  and  C_30
    8  A    between atoms: C_10  and  C_18
    9  A    between atoms: C_10  and  C_24
   10  A    between atoms: C_14  and  C_23
   11  A    between atoms: C_18  and  N_31
   12  A    between atoms: N_20  and  C_27
   13  A    between atoms: C_23  and  C_27
   14  A    between atoms: C_24  and  C_25
                            x       y       z     vdW  Elec       q    Type
                         _______ _______ _______ _____ _____    ______ ____

>  <TORSDO>
F 14

$$$$
=
 OpenBabel11062422033D

 34 35  0  0  1  0  0  0  0  0999 V2000
  189.9940  172.3030  141.3470 C   0  0  0  0  0  1  0  0  0  0  0  0
  189.6410  173.5570  142.1760 C   0  0  1  0  0  3  0  0  0  0  0  0
  190.7660  174.6810  144.0260 C   0  0  1  0  0  3  0  0  0  0  0  0
  192.1280  176.0170  142.4730 O   0  0  0  0  0  1  0  0  0  0  0  0
  190.8810  175.4570  142.8340 C   0  0  1  0  0  3  0  0  0  0  0  0
  190.9550  174.0760  142.6460 N   0  0  0  0  0  0  0  0  0  0  0  0
  192.5170  173.3320  145.0480 O   0  0  0  0  0  0  0  0  0  0  0  0
  192.0040  174.4840  144.9550 C   0  0  0  0  0  0  0  0  0  0  0  0
  192.3930  175.4810  146.0100 C   0  0  2  0  0  3  0  0  0  0  0  0
  191.1420  176.0050  146.7310 C   0  0  0  0  0  0  0  0  0  0  0  0
  190.5640  175.3220  147.7710 O   0  0  0  0  0  1  0  0  0  0  0  0
  190.5940  177.0790  146.3320 O   0  0  0  0  0  0  0  0  0  0  0  0
  193.2350  176.5600  145.5170 C   0  0  0  0  0  2  0  0  0  0  0  0
  194.6410  176.6550  145.9110 N   0  0  0  0  0  2  0  0  0  0  0  0
  195.4600  175.7360  145.0800 C   0  0  0  0  0  2  0  0  0  0  0  0
  196.7440  177.2090  143.5990 O   0  0  0  0  0  1  0  0  0  0  0  0
  195.7680  176.2310  143.6390 C   0  0  1  0  0  3  0  0  0  0  0  0
  196.2160  175.0660  142.8140 C   0  0  0  0  0  2  0  0  0  0  0  0
  195.1510  174.1270  142.6650 O   0  0  0  0  0  1  0  0  0  0  0  0
  188.9490  174.6370  141.3170 C   0  0  1  0  0  3  0  0  0  0  0  0
  188.6310  174.0040  140.0100 C   0  0  0  0  0  1  0  0  0  0  0  0
  187.5950  175.0480  142.0210 C   0  0  0  0  0  2  0  0  0  0  0  0
  185.9070  177.9420  142.9840 C   0  0  0  0  0  0  0  0  0  0  0  0
  185.8970  176.8490  142.3940 N   0  0  0  0  0  0  0  0  0  0  0  0
  187.1570  176.5530  141.6710 C   0  0  1  0  0  3  0  0  0  0  0  0
  188.0740  177.6670  142.3030 C   0  0  0  0  0  2  0  0  0  0  0  0
  187.0960  178.6460  142.9190 N   0  0  0  0  0  2  0  0  0  0  0  0
  184.6390  178.4010  143.7030 C   0  0  0  0  0  2  0  0  0  0  0  0
  184.0400  179.0450  145.9310 O   0  0  0  0  0  0  0  0  0  0  0  0
  187.4300  176.3370  146.9000 C   0  0  0  0  0  1  0  0  0  0  0  0
  184.6690  178.2240  145.1920 C   0  0  0  0  0  0  0  0  0  0  0  0
  185.4340  177.1150  145.7180 N   0  0  0  0  0  2  0  0  0  0  0  0
  186.0710  177.9710  147.8310 O   0  0  0  0  0  0  0  0  0  0  0  0
  186.2450  177.1610  146.9030 C   0  0  0  0  0  0  0  0  0  0  0  0
  2  1  1  6  0  0  0
  2  6  1  0  0  0  0
  3  8  1  1  0  0  0
  5  4  1  1  0  0  0
  5  3  1  0  0  0  0
  6  5  1  0  0  0  0
  6  3  1  0  0  0  0
  8  7  2  0  0  0  0
  8  9  1  0  0  0  0
  9 13  1  6  0  0  0
  9 10  1  0  0  0  0
 10 11  1  0  0  0  0
 12 10  2  0  0  0  0
 13 14  1  0  0  0  0
 15 14  1  0  0  0  0
 17 16  1  1  0  0  0
 17 15  1  0  0  0  0
 18 17  1  0  0  0  0
 19 18  1  0  0  0  0
 20 21  1  6  0  0  0
 20 22  1  0  0  0  0
 20  2  1  0  0  0  0
 23 28  1  0  0  0  0
 24 23  2  0  0  0  0
 25 22  1  1  0  0  0
 25 26  1  0  0  0  0
 25 24  1  0  0  0  0
 26 27  1  0  0  0  0
 27 23  1  0  0  0  0
 28 31  1  0  0  0  0
 30 34  1  0  0  0  0
 31 32  1  0  0  0  0
 31 29  2  0  0  0  0
 32 34  1  0  0  0  0
 34 33  2  0  0  0  0
M  END
>  <MODEL>
8

>  <REMARK>
 VINA RESULT:      -5.5      2.443      6.218
  Name = 
  14 active torsions:
  status: ('A' for Active; 'I' for Inactive)
    1  A    between atoms: C_2  and  C_30
    2  A    between atoms: C_3  and  C_9
    3  A    between atoms: C_3  and  N_20
    4  A    between atoms: C_4  and  C_9
    5  A    between atoms: C_8  and  C_12
    6  A    between atoms: C_8  and  C_16
    7  A    between atoms: C_9  and  C_30
    8  A    between atoms: C_10  and  C_18
    9  A    between atoms: C_10  and  C_24
   10  A    between atoms: C_14  and  C_23
   11  A    between atoms: C_18  and  N_31
   12  A    between atoms: N_20  and  C_27
   13  A    between atoms: C_23  and  C_27
   14  A    between atoms: C_24  and  C_25
                            x       y       z     vdW  Elec       q    Type
                         _______ _______ _______ _____ _____    ______ ____

>  <TORSDO>
F 14

$$$$
=
 OpenBabel11062422033D

 34 35  0  0  1  0  0  0  0  0999 V2000
  191.2740  177.5140  143.3300 C   0  0  0  0  0  1  0  0  0  0  0  0
  190.3470  176.3830  142.8340 C   0  0  1  0  0  3  0  0  0  0  0  0
  191.3610  174.1640  142.8720 C   0  0  1  0  0  3  0  0  0  0  0  0
  189.6240  173.3240  144.3980 O   0  0  0  0  0  1  0  0  0  0  0  0
  189.9920  174.0890  143.2660 C   0  0  1  0  0  3  0  0  0  0  0  0
  190.6690  175.2250  143.7110 N   0  0  0  0  0  0  0  0  0  0  0  0
  192.2560  172.1460  143.8980 O   0  0  0  0  0  0  0  0  0  0  0  0
  192.4490  173.3730  143.6610 C   0  0  0  0  0  0  0  0  0  0  0  0
  193.5240  174.0510  144.4620 C   0  0  2  0  0  3  0  0  0  0  0  0
  194.8820  173.3810  144.2030 C   0  0  0  0  0  0  0  0  0  0  0  0
  195.3290  172.3310  144.9630 O   0  0  0  0  0  1  0  0  0  0  0  0
  195.6390  173.8350  143.2890 O   0  0  0  0  0  0  0  0  0  0  0  0
  193.2240  174.1510  145.8820 C   0  0  0  0  0  2  0  0  0  0  0  0
  192.6910  175.3890  146.4530 N   0  0  0  0  0  2  0  0  0  0  0  0
  191.6140  175.0730  147.4240 C   0  0  0  0  0  2  0  0  0  0  0  0
  190.7550  177.2950  146.8450 O   0  0  0  0  0  1  0  0  0  0  0  0
  190.4790  176.1280  147.5330 C   0  0  1  0  0  3  0  0  0  0  0  0
  189.2160  175.5360  146.9910 C   0  0  0  0  0  2  0  0  0  0  0  0
  188.8520  174.3760  147.7420 O   0  0  0  0  0  1  0  0  0  0  0  0
  188.8560  176.7460  143.0020 C   0  0  1  0  0  3  0  0  0  0  0  0
  188.7820  177.7470  144.0990 C   0  0  0  0  0  1  0  0  0  0  0  0
  188.3500  177.4230  141.6670 C   0  0  0  0  0  2  0  0  0  0  0  0
  184.9090  177.9310  141.9080 C   0  0  0  0  0  0  0  0  0  0  0  0
  185.9380  177.3810  142.3360 N   0  0  0  0  0  0  0  0  0  0  0  0
  186.8680  176.9480  141.2660 C   0  0  1  0  0  3  0  0  0  0  0  0
  186.2350  177.7290  140.0540 C   0  0  0  0  0  2  0  0  0  0  0  0
  184.8480  178.0980  140.5360 N   0  0  0  0  0  2  0  0  0  0  0  0
  183.8320  178.3530  142.9060 C   0  0  0  0  0  2  0  0  0  0  0  0
  184.7820  180.1370  144.1920 O   0  0  0  0  0  0  0  0  0  0  0  0
  185.6720  176.7670  146.9530 C   0  0  0  0  0  1  0  0  0  0  0  0
  184.3620  178.9370  144.1820 C   0  0  0  0  0  0  0  0  0  0  0  0
  184.3740  178.0870  145.3520 N   0  0  0  0  0  2  0  0  0  0  0  0
  186.2150  178.9850  146.5400 O   0  0  0  0  0  0  0  0  0  0  0  0
  185.4260  178.0460  146.3300 C   0  0  0  0  0  0  0  0  0  0  0  0
  2 20  1  0  0  0  0
  2  1  1  1  0  0  0
  2  6  1  0  0  0  0
  3  5  1  0  0  0  0
  3  8  1  1  0  0  0
  3  6  1  0  0  0  0
  5  6  1  0  0  0  0
  5  4  1  1  0  0  0
  8  7  2  0  0  0  0
  8  9  1  0  0  0  0
  9 13  1  1  0  0  0
 10  9  1  0  0  0  0
 10 11  1  0  0  0  0
 12 10  2  0  0  0  0
 13 14  1  0  0  0  0
 14 15  1  0  0  0  0
 15 17  1  0  0  0  0
 17 16  1  6  0  0  0
 18 17  1  0  0  0  0
 18 19  1  0  0  0  0
 20 21  1  1  0  0  0
 22 20  1  0  0  0  0
 23 24  2  0  0  0  0
 23 28  1  0  0  0  0
 25 22  1  1  0  0  0
 25 24  1  0  0  0  0
 26 27  1  0  0  0  0
 26 25  1  0  0  0  0
 27 23  1  0  0  0  0
 28 31  1  0  0  0  0
 31 29  2  0  0  0  0
 31 32  1  0  0  0  0
 32 34  1  0  0  0  0
 34 33  2  0  0  0  0
 34 30  1  0  0  0  0
M  END
>  <MODEL>
9

>  <REMARK>
 VINA RESULT:      -5.5      2.498      5.532
  Name = 
  14 active torsions:
  status: ('A' for Active; 'I' for Inactive)
    1  A    between atoms: C_2  and  C_30
    2  A    between atoms: C_3  and  C_9
    3  A    between atoms: C_3  and  N_20
    4  A    between atoms: C_4  and  C_9
    5  A    between atoms: C_8  and  C_12
    6  A    between atoms: C_8  and  C_16
    7  A    between atoms: C_9  and  C_30
    8  A    between atoms: C_10  and  C_18
    9  A    between atoms: C_10  and  C_24
   10  A    between atoms: C_14  and  C_23
   11  A    between atoms: C_18  and  N_31
   12  A    between atoms: N_20  and  C_27
   13  A    between atoms: C_23  and  C_27
   14  A    between atoms: C_24  and  C_25
                            x       y       z     vdW  Elec       q    Type
                         _______ _______ _______ _____ _____    ______ ____

>  <TORSDO>
F 14

$$$$
