=
 OpenBabel11062420093D

 35 36  0  0  1  0  0  0  0  0999 V2000
  191.8130  175.5750  145.9360 N   0  0  0  0  0  0  0  0  0  0  0  0
  190.6940  175.9920  146.7230 C   0  0  0  0  0  0  0  0  0  0  0  0
  189.4410  175.2280  146.6530 C   0  0  0  0  0  0  0  0  0  0  0  0
  189.4160  174.0780  145.9790 C   0  0  0  0  0  3  0  0  0  0  0  0
  190.6550  173.4730  145.3590 C   0  0  2  0  0  3  0  0  0  0  0  0
  191.8060  174.4540  145.2770 C   0  0  0  0  0  3  0  0  0  0  0  0
  190.7760  177.0340  147.4260 O   0  0  0  0  0  0  0  0  0  0  0  0
  188.8540  172.8530  141.9690 C   0  0  0  0  0  2  0  0  0  0  0  0
  191.3860  172.9260  141.6200 C   0  0  1  0  0  3  0  0  0  0  0  0
  190.0560  172.2780  141.1980 C   0  0  2  0  0  3  0  0  0  0  0  0
  192.3480  171.4130  143.3390 C   0  0  0  0  0  1  0  0  0  0  0  0
  191.4000  174.2870  141.2990 O   0  0  0  0  0  1  0  0  0  0  0  0
  189.2390  173.5510  143.2750 C   0  0  0  0  0  2  0  0  0  0  0  0
  190.3710  172.8100  144.0000 C   0  0  1  0  0  3  0  0  0  0  0  0
  191.6440  172.7400  143.1210 C   0  0  2  0  0  3  0  0  0  0  0  0
  189.8340  172.3480  139.6830 C   0  0  1  0  0  3  0  0  0  0  0  0
  191.6050  171.4250  138.3690 O   0  0  0  0  0  1  0  0  0  0  0  0
  190.4070  171.1080  139.0100 C   0  0  0  0  0  2  0  0  0  0  0  0
  188.4680  172.4370  139.3950 O   0  0  0  0  0  0  0  0  0  0  0  0
  188.3920  173.2360  138.2540 C   0  0  0  0  0  2  0  0  0  0  0  0
  188.0400  174.5350  138.6190 O   0  0  0  0  0  1  0  0  0  0  0  0
  188.1980  175.7250  147.3110 C   0  0  0  0  0  2  0  0  0  0  0  0
  187.2430  176.0450  146.3430 O   0  0  0  0  0  0  0  0  0  0  0  0
  187.2260  177.4420  146.2970 C   0  0  2  0  0  3  0  0  0  0  0  0
  186.4490  178.0020  147.4740 C   0  0  0  0  0  1  0  0  0  0  0  0
  186.7030  177.9770  144.9500 C   0  0  2  0  0  3  0  0  0  0  0  0
  189.1120  177.9350  144.1020 C   0  0  0  0  0  1  0  0  0  0  0  0
  187.6410  177.8260  143.7360 C   0  0  1  0  0  3  0  0  0  0  0  0
  186.0770  176.1230  143.1330 O   0  0  0  0  0  1  0  0  0  0  0  0
  187.3860  176.5640  142.9290 C   0  0  0  0  0  2  0  0  0  0  0  0
  186.3070  179.3120  145.0870 O   0  0  0  0  0  0  0  0  0  0  0  0
  185.5460  179.5850  143.9490 C   0  0  0  0  0  2  0  0  0  0  0  0
  184.1910  178.9940  144.1020 C   0  0  0  0  0  0  0  0  0  0  0  0
  183.5570  178.3690  142.9920 N   0  0  0  0  0  1  0  0  0  0  0  0
  183.6170  179.0230  145.2200 O   0  0  0  0  0  0  0  0  0  0  0  0
  1  2  1  0  0  0  0
  2  7  2  0  0  0  0
  3  2  1  0  0  0  0
  3 22  1  0  0  0  0
  4  3  2  0  0  0  0
  5  6  1  6  0  0  0
  5  4  1  0  0  0  0
  6  1  2  0  0  0  0
  8 13  1  0  0  0  0
  9 12  1  1  0  0  0
  9 15  1  0  0  0  0
 10 16  1  6  0  0  0
 10  9  1  0  0  0  0
 10  8  1  0  0  0  0
 14 13  1  6  0  0  0
 14  5  1  0  0  0  0
 15 11  1  6  0  0  0
 15 14  1  0  0  0  0
 16 18  1  6  0  0  0
 17 18  1  0  0  0  0
 19 16  1  0  0  0  0
 20 21  1  0  0  0  0
 20 19  1  0  0  0  0
 23 22  1  0  0  0  0
 24 23  1  0  0  0  0
 24 25  1  1  0  0  0
 26 31  1  1  0  0  0
 26 24  1  0  0  0  0
 28 27  1  1  0  0  0
 28 26  1  0  0  0  0
 30 29  1  0  0  0  0
 30 28  1  0  0  0  0
 32 33  1  0  0  0  0
 32 31  1  0  0  0  0
 33 35  2  0  0  0  0
 34 33  1  0  0  0  0
M  END
>  <MODEL>
1

>  <REMARK>
 VINA RESULT:      -5.8      0.000      0.000
  Name = 
  14 active torsions:
  status: ('A' for Active; 'I' for Inactive)
    1  A    between atoms: C_5  and  O_33
    2  A    between atoms: C_7  and  C_32
    3  A    between atoms: C_8  and  C_24
    4  A    between atoms: C_9  and  O_14
    5  A    between atoms: C_9  and  C_24
    6  A    between atoms: C_9  and  C_25
    7  A    between atoms: C_10  and  C_32
    8  A    between atoms: O_14  and  C_29
    9  A    between atoms: C_15  and  C_35
   10  A    between atoms: C_18  and  C_29
   11  A    between atoms: C_19  and  C_30
   12  A    between atoms: O_23  and  C_25
   13  A    between atoms: O_23  and  C_35
   14  A    between atoms: C_32  and  O_33
                            x       y       z     vdW  Elec       q    Type
                         _______ _______ _______ _____ _____    ______ ____

>  <TORSDO>
F 14

$$$$
=
 OpenBabel11062420093D

 35 36  0  0  1  0  0  0  0  0999 V2000
  192.2830  174.9890  146.4380 N   0  0  0  0  0  0  0  0  0  0  0  0
  191.0570  175.4040  147.0450 C   0  0  0  0  0  0  0  0  0  0  0  0
  189.7820  174.9520  146.4700 C   0  0  0  0  0  0  0  0  0  0  0  0
  189.7930  174.0460  145.4920 C   0  0  0  0  0  3  0  0  0  0  0  0
  191.0660  173.3870  145.0100 C   0  0  2  0  0  3  0  0  0  0  0  0
  192.3120  174.1040  145.4870 C   0  0  0  0  0  3  0  0  0  0  0  0
  191.0780  176.1880  148.0290 O   0  0  0  0  0  0  0  0  0  0  0  0
  190.7380  171.4550  141.6510 C   0  0  0  0  0  2  0  0  0  0  0  0
  189.4650  173.6690  141.5210 C   0  0  1  0  0  3  0  0  0  0  0  0
  190.3320  172.6480  140.7660 C   0  0  2  0  0  3  0  0  0  0  0  0
  191.0420  175.4040  142.3410 C   0  0  0  0  0  1  0  0  0  0  0  0
  188.2440  173.1010  141.9020 O   0  0  0  0  0  1  0  0  0  0  0  0
  190.6340  171.7420  143.1510 C   0  0  0  0  0  2  0  0  0  0  0  0
  191.0770  173.1710  143.4860 C   0  0  1  0  0  3  0  0  0  0  0  0
  190.1950  174.2140  142.7560 C   0  0  2  0  0  3  0  0  0  0  0  0
  189.6710  172.1780  139.4650 C   0  0  1  0  0  3  0  0  0  0  0  0
  188.0420  173.5470  138.3740 O   0  0  0  0  0  1  0  0  0  0  0  0
  189.4140  173.3660  138.5460 C   0  0  0  0  0  2  0  0  0  0  0  0
  190.4920  171.2580  138.8050 O   0  0  0  0  0  0  0  0  0  0  0  0
  189.6150  170.4250  138.1110 C   0  0  0  0  0  2  0  0  0  0  0  0
  190.2360  169.9540  136.9550 O   0  0  0  0  0  1  0  0  0  0  0  0
  188.4820  175.5000  146.9540 C   0  0  0  0  0  2  0  0  0  0  0  0
  187.7210  175.9440  145.8700 O   0  0  0  0  0  0  0  0  0  0  0  0
  188.0110  177.3070  145.7550 C   0  0  2  0  0  3  0  0  0  0  0  0
  187.8660  177.9950  147.1000 C   0  0  0  0  0  1  0  0  0  0  0  0
  187.1750  177.9940  144.6590 C   0  0  2  0  0  3  0  0  0  0  0  0
  185.5860  179.9330  144.1720 C   0  0  0  0  0  1  0  0  0  0  0  0
  185.9600  178.8160  145.1320 C   0  0  1  0  0  3  0  0  0  0  0  0
  183.6330  178.7810  145.6700 O   0  0  0  0  0  1  0  0  0  0  0  0
  184.7440  177.9650  145.4560 C   0  0  0  0  0  2  0  0  0  0  0  0
  186.7760  177.0540  143.7030 O   0  0  0  0  0  0  0  0  0  0  0  0
  187.7390  177.1270  142.6950 C   0  0  0  0  0  2  0  0  0  0  0  0
  187.0740  177.0920  141.3670 C   0  0  0  0  0  0  0  0  0  0  0  0
  186.0000  177.9810  141.0840 N   0  0  0  0  0  1  0  0  0  0  0  0
  187.4780  176.2920  140.4840 O   0  0  0  0  0  0  0  0  0  0  0  0
  1  2  1  0  0  0  0
  2  7  2  0  0  0  0
  3 22  1  0  0  0  0
  3  2  1  0  0  0  0
  4  3  2  0  0  0  0
  5  6  1  6  0  0  0
  5  4  1  0  0  0  0
  6  1  2  0  0  0  0
  8 13  1  0  0  0  0
  9 12  1  1  0  0  0
  9 15  1  0  0  0  0
 10 16  1  6  0  0  0
 10  9  1  0  0  0  0
 10  8  1  0  0  0  0
 14 13  1  1  0  0  0
 14  5  1  0  0  0  0
 15 11  1  6  0  0  0
 15 14  1  0  0  0  0
 16 18  1  6  0  0  0
 17 18  1  0  0  0  0
 19 16  1  0  0  0  0
 20 19  1  0  0  0  0
 21 20  1  0  0  0  0
 23 22  1  0  0  0  0
 24 23  1  0  0  0  0
 24 25  1  1  0  0  0
 26 31  1  6  0  0  0
 26 28  1  0  0  0  0
 26 24  1  0  0  0  0
 28 27  1  6  0  0  0
 28 30  1  0  0  0  0
 30 29  1  0  0  0  0
 32 31  1  0  0  0  0
 33 32  1  0  0  0  0
 34 33  1  0  0  0  0
 35 33  2  0  0  0  0
M  END
>  <MODEL>
2

>  <REMARK>
 VINA RESULT:      -5.7      1.375      2.814
  Name = 
  14 active torsions:
  status: ('A' for Active; 'I' for Inactive)
    1  A    between atoms: C_5  and  O_33
    2  A    between atoms: C_7  and  C_32
    3  A    between atoms: C_8  and  C_24
    4  A    between atoms: C_9  and  O_14
    5  A    between atoms: C_9  and  C_24
    6  A    between atoms: C_9  and  C_25
    7  A    between atoms: C_10  and  C_32
    8  A    between atoms: O_14  and  C_29
    9  A    between atoms: C_15  and  C_35
   10  A    between atoms: C_18  and  C_29
   11  A    between atoms: C_19  and  C_30
   12  A    between atoms: O_23  and  C_25
   13  A    between atoms: O_23  and  C_35
   14  A    between atoms: C_32  and  O_33
                            x       y       z     vdW  Elec       q    Type
                         _______ _______ _______ _____ _____    ______ ____

>  <TORSDO>
F 14

$$$$
=
 OpenBabel11062420093D

 35 36  0  0  1  0  0  0  0  0999 V2000
  188.5470  175.2850  147.1990 N   0  0  0  0  0  0  0  0  0  0  0  0
  189.9570  175.5140  147.2450 C   0  0  0  0  0  0  0  0  0  0  0  0
  190.5230  176.6660  146.5280 C   0  0  0  0  0  0  0  0  0  0  0  0
  189.6990  177.5560  145.9750 C   0  0  0  0  0  3  0  0  0  0  0  0
  188.1980  177.4850  146.1380 C   0  0  2  0  0  3  0  0  0  0  0  0
  187.7300  176.1450  146.6680 C   0  0  0  0  0  3  0  0  0  0  0  0
  190.7050  174.7050  147.8560 O   0  0  0  0  0  0  0  0  0  0  0  0
  187.6760  178.2060  142.3520 C   0  0  0  0  0  2  0  0  0  0  0  0
  185.7730  176.7490  143.2410 C   0  0  1  0  0  3  0  0  0  0  0  0
  186.1720  177.8870  142.2870 C   0  0  2  0  0  3  0  0  0  0  0  0
  184.9780  177.8660  145.3130 C   0  0  0  0  0  1  0  0  0  0  0  0
  186.3880  175.5480  142.8700 O   0  0  0  0  0  1  0  0  0  0  0  0
  188.3530  177.7110  143.6330 C   0  0  0  0  0  2  0  0  0  0  0  0
  187.4460  177.8880  144.8570 C   0  0  1  0  0  3  0  0  0  0  0  0
  186.1280  177.0910  144.6940 C   0  0  2  0  0  3  0  0  0  0  0  0
  185.7200  177.6180  140.8470 C   0  0  1  0  0  3  0  0  0  0  0  0
  183.3630  178.0040  140.9540 O   0  0  0  0  0  1  0  0  0  0  0  0
  184.5620  178.5370  140.4790 C   0  0  0  0  0  2  0  0  0  0  0  0
  186.7770  177.8340  139.9560 O   0  0  0  0  0  0  0  0  0  0  0  0
  186.7460  176.7420  139.0890 C   0  0  0  0  0  2  0  0  0  0  0  0
  187.5430  175.7190  139.5990 O   0  0  0  0  0  1  0  0  0  0  0  0
  191.9980  176.8430  146.3970 C   0  0  0  0  0  2  0  0  0  0  0  0
  192.5000  175.9560  145.4430 O   0  0  0  0  0  0  0  0  0  0  0  0
  193.7820  175.6260  145.8920 C   0  0  2  0  0  3  0  0  0  0  0  0
  194.3880  176.7830  146.6640 C   0  0  0  0  0  1  0  0  0  0  0  0
  194.6990  175.1490  144.7490 C   0  0  2  0  0  3  0  0  0  0  0  0
  196.2520  176.5290  143.2630 C   0  0  0  0  0  1  0  0  0  0  0  0
  194.8230  176.0820  143.5290 C   0  0  1  0  0  3  0  0  0  0  0  0
  192.9000  175.9940  142.1140 O   0  0  0  0  0  1  0  0  0  0  0  0
  194.2010  175.5110  142.2660 C   0  0  0  0  0  2  0  0  0  0  0  0
  194.3210  173.8670  144.3360 O   0  0  0  0  0  0  0  0  0  0  0  0
  194.6050  173.0350  145.4210 C   0  0  0  0  0  2  0  0  0  0  0  0
  195.9050  172.3520  145.1970 C   0  0  0  0  0  0  0  0  0  0  0  0
  196.3220  172.0300  143.8760 N   0  0  0  0  0  1  0  0  0  0  0  0
  196.6480  172.0820  146.1760 O   0  0  0  0  0  0  0  0  0  0  0  0
  1  2  1  0  0  0  0
  2  7  2  0  0  0  0
  3  2  1  0  0  0  0
  4  3  2  0  0  0  0
  5  4  1  6  0  0  0
  5  6  1  0  0  0  0
  6  1  2  0  0  0  0
  8 13  1  0  0  0  0
  9 12  1  6  0  0  0
  9 15  1  0  0  0  0
 10 16  1  6  0  0  0
 10  8  1  0  0  0  0
 10  9  1  0  0  0  0
 14 13  1  6  0  0  0
 14  5  1  0  0  0  0
 15 14  1  0  0  0  0
 15 11  1  6  0  0  0
 16 18  1  6  0  0  0
 18 17  1  0  0  0  0
 19 16  1  0  0  0  0
 20 21  1  0  0  0  0
 20 19  1  0  0  0  0
 22  3  1  0  0  0  0
 23 24  1  0  0  0  0
 23 22  1  0  0  0  0
 24 25  1  6  0  0  0
 26 31  1  6  0  0  0
 26 24  1  0  0  0  0
 28 27  1  6  0  0  0
 28 26  1  0  0  0  0
 29 30  1  0  0  0  0
 30 28  1  0  0  0  0
 31 32  1  0  0  0  0
 33 32  1  0  0  0  0
 33 35  2  0  0  0  0
 34 33  1  0  0  0  0
M  END
>  <MODEL>
3

>  <REMARK>
 VINA RESULT:      -5.6      3.544      7.569
  Name = 
  14 active torsions:
  status: ('A' for Active; 'I' for Inactive)
    1  A    between atoms: C_5  and  O_33
    2  A    between atoms: C_7  and  C_32
    3  A    between atoms: C_8  and  C_24
    4  A    between atoms: C_9  and  O_14
    5  A    between atoms: C_9  and  C_24
    6  A    between atoms: C_9  and  C_25
    7  A    between atoms: C_10  and  C_32
    8  A    between atoms: O_14  and  C_29
    9  A    between atoms: C_15  and  C_35
   10  A    between atoms: C_18  and  C_29
   11  A    between atoms: C_19  and  C_30
   12  A    between atoms: O_23  and  C_25
   13  A    between atoms: O_23  and  C_35
   14  A    between atoms: C_32  and  O_33
                            x       y       z     vdW  Elec       q    Type
                         _______ _______ _______ _____ _____    ______ ____

>  <TORSDO>
F 14

$$$$
=
 OpenBabel11062420093D

 35 36  0  0  1  0  0  0  0  0999 V2000
  192.2260  174.9980  146.5190 N   0  0  0  0  0  0  0  0  0  0  0  0
  191.0540  175.3500  147.2570 C   0  0  0  0  0  0  0  0  0  0  0  0
  189.7300  175.0650  146.6850 C   0  0  0  0  0  0  0  0  0  0  0  0
  189.6470  174.3510  145.5630 C   0  0  0  0  0  3  0  0  0  0  0  0
  190.8580  173.7330  144.9010 C   0  0  2  0  0  3  0  0  0  0  0  0
  192.1620  174.2970  145.4260 C   0  0  0  0  0  3  0  0  0  0  0  0
  191.1640  175.9440  148.3630 O   0  0  0  0  0  0  0  0  0  0  0  0
  191.9880  174.5910  141.2790 C   0  0  0  0  0  2  0  0  0  0  0  0
  191.2310  172.1520  141.4120 C   0  0  1  0  0  3  0  0  0  0  0  0
  191.2730  173.4330  140.5610 C   0  0  2  0  0  3  0  0  0  0  0  0
  189.0300  172.1900  142.5630 C   0  0  0  0  0  1  0  0  0  0  0  0
  192.5210  171.6620  141.6370 O   0  0  0  0  0  1  0  0  0  0  0  0
  192.0690  174.4140  142.7980 C   0  0  0  0  0  2  0  0  0  0  0  0
  190.7860  173.7940  143.3650 C   0  0  1  0  0  3  0  0  0  0  0  0
  190.5230  172.3970  142.7510 C   0  0  2  0  0  3  0  0  0  0  0  0
  191.8700  173.1840  139.1710 C   0  0  1  0  0  3  0  0  0  0  0  0
  189.6000  173.7570  138.6880 O   0  0  0  0  0  1  0  0  0  0  0  0
  190.8180  173.4240  138.0960 C   0  0  0  0  0  2  0  0  0  0  0  0
  192.9570  174.0360  138.9480 O   0  0  0  0  0  0  0  0  0  0  0  0
  192.8300  174.4410  137.6190 C   0  0  0  0  0  2  0  0  0  0  0  0
  193.6500  175.5450  137.3880 O   0  0  0  0  0  1  0  0  0  0  0  0
  188.4860  175.5740  147.3310 C   0  0  0  0  0  2  0  0  0  0  0  0
  187.5250  175.8510  146.3560 O   0  0  0  0  0  0  0  0  0  0  0  0
  187.5840  177.2360  146.1700 C   0  0  2  0  0  3  0  0  0  0  0  0
  186.8030  177.9510  147.2580 C   0  0  0  0  0  1  0  0  0  0  0  0
  187.1300  177.6570  144.7590 C   0  0  2  0  0  3  0  0  0  0  0  0
  189.6030  177.7460  144.1260 C   0  0  0  0  0  1  0  0  0  0  0  0
  188.1790  177.5450  143.6350 C   0  0  1  0  0  3  0  0  0  0  0  0
  186.7500  175.8050  142.8360 O   0  0  0  0  0  1  0  0  0  0  0  0
  188.0700  176.2590  142.8340 C   0  0  0  0  0  2  0  0  0  0  0  0
  186.6000  178.9510  144.7940 O   0  0  0  0  0  0  0  0  0  0  0  0
  185.8640  179.0760  143.6140 C   0  0  0  0  0  2  0  0  0  0  0  0
  184.4590  178.6600  143.8580 C   0  0  0  0  0  0  0  0  0  0  0  0
  183.8610  178.8800  145.1300 N   0  0  0  0  0  1  0  0  0  0  0  0
  183.7890  178.1370  142.9310 O   0  0  0  0  0  0  0  0  0  0  0  0
  1  2  1  0  0  0  0
  2  7  2  0  0  0  0
  3  2  1  0  0  0  0
  3 22  1  0  0  0  0
  4  3  2  0  0  0  0
  5  6  1  1  0  0  0
  5  4  1  0  0  0  0
  6  1  2  0  0  0  0
  8 13  1  0  0  0  0
  9 12  1  1  0  0  0
  9 15  1  0  0  0  0
 10 16  1  6  0  0  0
 10  8  1  0  0  0  0
 10  9  1  0  0  0  0
 14 13  1  6  0  0  0
 14  5  1  0  0  0  0
 15 11  1  6  0  0  0
 15 14  1  0  0  0  0
 16 18  1  6  0  0  0
 18 17  1  0  0  0  0
 19 16  1  0  0  0  0
 20 19  1  0  0  0  0
 21 20  1  0  0  0  0
 23 22  1  0  0  0  0
 24 23  1  0  0  0  0
 24 25  1  1  0  0  0
 26 31  1  1  0  0  0
 26 24  1  0  0  0  0
 28 27  1  1  0  0  0
 28 26  1  0  0  0  0
 30 29  1  0  0  0  0
 30 28  1  0  0  0  0
 32 33  1  0  0  0  0
 32 31  1  0  0  0  0
 33 34  1  0  0  0  0
 35 33  2  0  0  0  0
M  END
>  <MODEL>
4

>  <REMARK>
 VINA RESULT:      -5.6      1.694      2.196
  Name = 
  14 active torsions:
  status: ('A' for Active; 'I' for Inactive)
    1  A    between atoms: C_5  and  O_33
    2  A    between atoms: C_7  and  C_32
    3  A    between atoms: C_8  and  C_24
    4  A    between atoms: C_9  and  O_14
    5  A    between atoms: C_9  and  C_24
    6  A    between atoms: C_9  and  C_25
    7  A    between atoms: C_10  and  C_32
    8  A    between atoms: O_14  and  C_29
    9  A    between atoms: C_15  and  C_35
   10  A    between atoms: C_18  and  C_29
   11  A    between atoms: C_19  and  C_30
   12  A    between atoms: O_23  and  C_25
   13  A    between atoms: O_23  and  C_35
   14  A    between atoms: C_32  and  O_33
                            x       y       z     vdW  Elec       q    Type
                         _______ _______ _______ _____ _____    ______ ____

>  <TORSDO>
F 14

$$$$
=
 OpenBabel11062420093D

 35 36  0  0  1  0  0  0  0  0999 V2000
  188.7900  175.3650  147.2080 N   0  0  0  0  0  0  0  0  0  0  0  0
  190.2030  175.5710  147.1360 C   0  0  0  0  0  0  0  0  0  0  0  0
  190.7280  176.6770  146.3230 C   0  0  0  0  0  0  0  0  0  0  0  0
  189.8770  177.5550  145.7930 C   0  0  0  0  0  3  0  0  0  0  0  0
  188.3920  177.5190  146.0730 C   0  0  2  0  0  3  0  0  0  0  0  0
  187.9480  176.2140  146.7010 C   0  0  0  0  0  3  0  0  0  0  0  0
  190.9830  174.7770  147.7260 O   0  0  0  0  0  0  0  0  0  0  0  0
  187.6450  178.3040  142.3380 C   0  0  0  0  0  2  0  0  0  0  0  0
  185.9580  176.6050  143.2350 C   0  0  1  0  0  3  0  0  0  0  0  0
  186.1860  177.8140  142.3120 C   0  0  2  0  0  3  0  0  0  0  0  0
  185.1200  177.5490  145.3750 C   0  0  0  0  0  1  0  0  0  0  0  0
  186.6920  175.4980  142.7970 O   0  0  0  0  0  1  0  0  0  0  0  0
  188.4230  177.8480  143.5740 C   0  0  0  0  0  2  0  0  0  0  0  0
  187.5500  177.8750  144.8360 C   0  0  1  0  0  3  0  0  0  0  0  0
  186.3280  176.9360  144.6870 C   0  0  2  0  0  3  0  0  0  0  0  0
  185.7120  177.5440  140.8800 C   0  0  1  0  0  3  0  0  0  0  0  0
  183.4690  178.1370  141.4560 O   0  0  0  0  0  1  0  0  0  0  0  0
  184.5000  178.4070  140.5550 C   0  0  0  0  0  2  0  0  0  0  0  0
  186.7340  177.8280  139.9670 O   0  0  0  0  0  0  0  0  0  0  0  0
  186.6860  176.7890  139.0380 C   0  0  0  0  0  2  0  0  0  0  0  0
  187.4540  175.7190  139.4950 O   0  0  0  0  0  1  0  0  0  0  0  0
  192.1910  176.8210  146.0720 C   0  0  0  0  0  2  0  0  0  0  0  0
  192.5330  176.1830  144.8780 O   0  0  0  0  0  0  0  0  0  0  0  0
  193.3970  175.1490  145.2520 C   0  0  2  0  0  3  0  0  0  0  0  0
  194.5100  175.6820  146.1370 C   0  0  0  0  0  1  0  0  0  0  0  0
  193.9430  174.3730  144.0390 C   0  0  2  0  0  3  0  0  0  0  0  0
  193.6060  172.1520  142.8230 C   0  0  0  0  0  1  0  0  0  0  0  0
  193.9330  172.8350  144.1410 C   0  0  1  0  0  3  0  0  0  0  0  0
  194.8970  171.3470  145.7420 O   0  0  0  0  0  1  0  0  0  0  0  0
  195.2080  172.2610  144.7350 C   0  0  0  0  0  2  0  0  0  0  0  0
  195.2290  174.8240  143.7220 O   0  0  0  0  0  0  0  0  0  0  0  0
  195.1290  175.3310  142.4250 C   0  0  0  0  0  2  0  0  0  0  0  0
  196.2870  176.2200  142.1470 C   0  0  0  0  0  0  0  0  0  0  0  0
  196.9280  176.9100  143.2130 N   0  0  0  0  0  1  0  0  0  0  0  0
  196.7160  176.3410  140.9710 O   0  0  0  0  0  0  0  0  0  0  0  0
  2  1  1  0  0  0  0
  2  7  2  0  0  0  0
  3  2  1  0  0  0  0
  4  3  2  0  0  0  0
  5  4  1  6  0  0  0
  5  6  1  0  0  0  0
  6  1  2  0  0  0  0
  8 13  1  0  0  0  0
  9 12  1  6  0  0  0
  9 15  1  0  0  0  0
 10 16  1  6  0  0  0
 10  8  1  0  0  0  0
 10  9  1  0  0  0  0
 14 13  1  6  0  0  0
 14  5  1  0  0  0  0
 15 14  1  0  0  0  0
 15 11  1  6  0  0  0
 16 18  1  6  0  0  0
 18 17  1  0  0  0  0
 19 16  1  0  0  0  0
 20 21  1  0  0  0  0
 20 19  1  0  0  0  0
 22  3  1  0  0  0  0
 23 24  1  0  0  0  0
 23 22  1  0  0  0  0
 24 25  1  6  0  0  0
 26 31  1  1  0  0  0
 26 28  1  0  0  0  0
 26 24  1  0  0  0  0
 28 27  1  6  0  0  0
 28 30  1  0  0  0  0
 30 29  1  0  0  0  0
 32 31  1  0  0  0  0
 33 32  1  0  0  0  0
 33 34  1  0  0  0  0
 35 33  2  0  0  0  0
M  END
>  <MODEL>
5

>  <REMARK>
 VINA RESULT:      -5.5      3.287      7.596
  Name = 
  14 active torsions:
  status: ('A' for Active; 'I' for Inactive)
    1  A    between atoms: C_5  and  O_33
    2  A    between atoms: C_7  and  C_32
    3  A    between atoms: C_8  and  C_24
    4  A    between atoms: C_9  and  O_14
    5  A    between atoms: C_9  and  C_24
    6  A    between atoms: C_9  and  C_25
    7  A    between atoms: C_10  and  C_32
    8  A    between atoms: O_14  and  C_29
    9  A    between atoms: C_15  and  C_35
   10  A    between atoms: C_18  and  C_29
   11  A    between atoms: C_19  and  C_30
   12  A    between atoms: O_23  and  C_25
   13  A    between atoms: O_23  and  C_35
   14  A    between atoms: C_32  and  O_33
                            x       y       z     vdW  Elec       q    Type
                         _______ _______ _______ _____ _____    ______ ____

>  <TORSDO>
F 14

$$$$
=
 OpenBabel11062420093D

 35 36  0  0  1  0  0  0  0  0999 V2000
  189.9670  174.8190  146.4560 N   0  0  0  0  0  0  0  0  0  0  0  0
  191.2740  175.2000  146.0200 C   0  0  0  0  0  0  0  0  0  0  0  0
  191.4600  176.4960  145.3510 C   0  0  0  0  0  0  0  0  0  0  0  0
  190.4400  177.3530  145.2990 C   0  0  0  0  0  3  0  0  0  0  0  0
  189.1200  177.0890  145.9870 C   0  0  2  0  0  3  0  0  0  0  0  0
  188.9640  175.6450  146.4170 C   0  0  0  0  0  3  0  0  0  0  0  0
  192.2400  174.4060  146.1660 O   0  0  0  0  0  0  0  0  0  0  0  0
  187.2040  178.4710  142.8980 C   0  0  0  0  0  2  0  0  0  0  0  0
  185.9680  176.4560  143.8730 C   0  0  1  0  0  3  0  0  0  0  0  0
  185.8360  177.8340  143.2030 C   0  0  2  0  0  3  0  0  0  0  0  0
  185.7970  176.8840  146.3140 C   0  0  0  0  0  1  0  0  0  0  0  0
  186.5810  175.5400  143.0110 O   0  0  0  0  0  1  0  0  0  0  0  0
  188.3520  177.8810  143.7220 C   0  0  0  0  0  2  0  0  0  0  0  0
  187.9170  177.5740  145.1610 C   0  0  1  0  0  3  0  0  0  0  0  0
  186.7570  176.5490  145.1850 C   0  0  2  0  0  3  0  0  0  0  0  0
  184.9520  177.7860  141.9510 C   0  0  1  0  0  3  0  0  0  0  0  0
  183.5480  178.8640  143.5590 O   0  0  0  0  0  1  0  0  0  0  0  0
  183.5740  178.3580  142.2590 C   0  0  0  0  0  2  0  0  0  0  0  0
  185.5340  178.5240  140.9150 O   0  0  0  0  0  0  0  0  0  0  0  0
  185.4950  177.6780  139.8060 C   0  0  0  0  0  2  0  0  0  0  0  0
  186.7550  177.1160  139.6050 O   0  0  0  0  0  1  0  0  0  0  0  0
  192.7620  176.8570  144.7200 C   0  0  0  0  0  2  0  0  0  0  0  0
  192.8520  176.2780  143.4520 O   0  0  0  0  0  0  0  0  0  0  0  0
  194.2200  176.0840  143.2380 C   0  0  2  0  0  3  0  0  0  0  0  0
  194.5490  176.2160  141.7620 C   0  0  0  0  0  1  0  0  0  0  0  0
  194.7220  174.7520  143.8260 C   0  0  2  0  0  3  0  0  0  0  0  0
  196.1460  174.2550  145.8870 C   0  0  0  0  0  1  0  0  0  0  0  0
  196.1290  174.7610  144.4540 C   0  0  1  0  0  3  0  0  0  0  0  0
  197.8340  174.9330  142.7900 O   0  0  0  0  0  1  0  0  0  0  0  0
  197.1680  174.0310  143.6200 C   0  0  0  0  0  2  0  0  0  0  0  0
  194.6330  173.7400  142.8640 O   0  0  0  0  0  0  0  0  0  0  0  0
  193.6650  172.8580  143.3500 C   0  0  0  0  0  2  0  0  0  0  0  0
  192.7180  172.5080  142.2600 C   0  0  0  0  0  0  0  0  0  0  0  0
  192.2250  173.5220  141.3920 N   0  0  0  0  0  1  0  0  0  0  0  0
  192.3730  171.3110  142.0890 O   0  0  0  0  0  0  0  0  0  0  0  0
  2  7  2  0  0  0  0
  2  1  1  0  0  0  0
  3  2  1  0  0  0  0
  4  3  2  0  0  0  0
  5  4  1  6  0  0  0
  5  6  1  0  0  0  0
  6  1  2  0  0  0  0
  8 10  1  0  0  0  0
  8 13  1  0  0  0  0
  9 12  1  6  0  0  0
  9 15  1  0  0  0  0
 10 16  1  6  0  0  0
 10  9  1  0  0  0  0
 14 13  1  6  0  0  0
 14 15  1  0  0  0  0
 14  5  1  0  0  0  0
 15 11  1  1  0  0  0
 16 18  1  1  0  0  0
 18 17  1  0  0  0  0
 19 16  1  0  0  0  0
 20 19  1  0  0  0  0
 21 20  1  0  0  0  0
 22  3  1  0  0  0  0
 23 22  1  0  0  0  0
 24 25  1  6  0  0  0
 24 23  1  0  0  0  0
 24 26  1  0  0  0  0
 26 31  1  6  0  0  0
 26 28  1  0  0  0  0
 28 27  1  1  0  0  0
 29 30  1  0  0  0  0
 30 28  1  0  0  0  0
 31 32  1  0  0  0  0
 33 32  1  0  0  0  0
 34 33  1  0  0  0  0
 35 33  2  0  0  0  0
M  END
>  <MODEL>
6

>  <REMARK>
 VINA RESULT:      -5.5      3.021      7.712
  Name = 
  14 active torsions:
  status: ('A' for Active; 'I' for Inactive)
    1  A    between atoms: C_5  and  O_33
    2  A    between atoms: C_7  and  C_32
    3  A    between atoms: C_8  and  C_24
    4  A    between atoms: C_9  and  O_14
    5  A    between atoms: C_9  and  C_24
    6  A    between atoms: C_9  and  C_25
    7  A    between atoms: C_10  and  C_32
    8  A    between atoms: O_14  and  C_29
    9  A    between atoms: C_15  and  C_35
   10  A    between atoms: C_18  and  C_29
   11  A    between atoms: C_19  and  C_30
   12  A    between atoms: O_23  and  C_25
   13  A    between atoms: O_23  and  C_35
   14  A    between atoms: C_32  and  O_33
                            x       y       z     vdW  Elec       q    Type
                         _______ _______ _______ _____ _____    ______ ____

>  <TORSDO>
F 14

$$$$
=
 OpenBabel11062420093D

 35 36  0  0  1  0  0  0  0  0999 V2000
  188.8090  175.3910  147.1200 N   0  0  0  0  0  0  0  0  0  0  0  0
  190.2250  175.5640  147.0240 C   0  0  0  0  0  0  0  0  0  0  0  0
  190.7630  176.6470  146.1890 C   0  0  0  0  0  0  0  0  0  0  0  0
  189.9250  177.5380  145.6600 C   0  0  0  0  0  3  0  0  0  0  0  0
  188.4430  177.5390  145.9620 C   0  0  2  0  0  3  0  0  0  0  0  0
  187.9790  176.2530  146.6140 C   0  0  0  0  0  3  0  0  0  0  0  0
  190.9960  174.7610  147.6130 O   0  0  0  0  0  0  0  0  0  0  0  0
  187.6570  178.2890  142.2280 C   0  0  0  0  0  2  0  0  0  0  0  0
  185.9430  176.6460  143.1760 C   0  0  1  0  0  3  0  0  0  0  0  0
  186.1860  177.8350  142.2320 C   0  0  2  0  0  3  0  0  0  0  0  0
  185.1630  177.6420  145.3140 C   0  0  0  0  0  1  0  0  0  0  0  0
  186.6430  175.5150  142.7420 O   0  0  0  0  0  1  0  0  0  0  0  0
  188.4430  177.8310  143.4590 C   0  0  0  0  0  2  0  0  0  0  0  0
  187.5910  177.8990  144.7320 C   0  0  1  0  0  3  0  0  0  0  0  0
  186.3440  176.9890  144.6170 C   0  0  2  0  0  3  0  0  0  0  0  0
  185.6840  177.5570  140.8100 C   0  0  1  0  0  3  0  0  0  0  0  0
  183.4460  178.1270  141.4290 O   0  0  0  0  0  1  0  0  0  0  0  0
  184.4570  178.4080  140.5100 C   0  0  0  0  0  2  0  0  0  0  0  0
  186.6830  177.8470  139.8750 O   0  0  0  0  0  0  0  0  0  0  0  0
  186.6760  176.7650  138.9940 C   0  0  0  0  0  2  0  0  0  0  0  0
  187.4820  175.7470  139.5000 O   0  0  0  0  0  1  0  0  0  0  0  0
  192.2250  176.7550  145.9150 C   0  0  0  0  0  2  0  0  0  0  0  0
  192.5120  176.2280  144.6530 O   0  0  0  0  0  0  0  0  0  0  0  0
  193.0520  174.9620  144.9020 C   0  0  2  0  0  3  0  0  0  0  0  0
  194.1190  175.0430  145.9780 C   0  0  0  0  0  1  0  0  0  0  0  0
  193.5730  174.2850  143.6200 C   0  0  2  0  0  3  0  0  0  0  0  0
  195.9710  174.1950  142.7470 C   0  0  0  0  0  1  0  0  0  0  0  0
  194.6980  175.0170  142.8610 C   0  0  1  0  0  3  0  0  0  0  0  0
  194.8310  176.7870  141.2620 O   0  0  0  0  0  1  0  0  0  0  0  0
  194.2710  175.5300  141.4960 C   0  0  0  0  0  2  0  0  0  0  0  0
  192.5070  174.0170  142.7540 O   0  0  0  0  0  0  0  0  0  0  0  0
  191.5460  173.3830  143.5450 C   0  0  0  0  0  2  0  0  0  0  0  0
  190.2220  173.4600  142.8760 C   0  0  0  0  0  0  0  0  0  0  0  0
  189.8860  174.5960  142.0890 N   0  0  0  0  0  1  0  0  0  0  0  0
  189.4070  172.5070  142.9850 O   0  0  0  0  0  0  0  0  0  0  0  0
  2  1  1  0  0  0  0
  2  7  2  0  0  0  0
  3  2  1  0  0  0  0
  4  3  2  0  0  0  0
  5  4  1  6  0  0  0
  5  6  1  0  0  0  0
  6  1  2  0  0  0  0
  8 10  1  0  0  0  0
  8 13  1  0  0  0  0
  9 12  1  6  0  0  0
  9 15  1  0  0  0  0
 10 16  1  6  0  0  0
 10  9  1  0  0  0  0
 14 13  1  6  0  0  0
 14  5  1  0  0  0  0
 15 14  1  0  0  0  0
 15 11  1  6  0  0  0
 16 18  1  6  0  0  0
 18 17  1  0  0  0  0
 19 16  1  0  0  0  0
 20 21  1  0  0  0  0
 20 19  1  0  0  0  0
 22  3  1  0  0  0  0
 23 24  1  0  0  0  0
 23 22  1  0  0  0  0
 24 25  1  1  0  0  0
 26 31  1  6  0  0  0
 26 24  1  0  0  0  0
 28 27  1  6  0  0  0
 28 26  1  0  0  0  0
 29 30  1  0  0  0  0
 30 28  1  0  0  0  0
 31 32  1  0  0  0  0
 33 35  2  0  0  0  0
 33 32  1  0  0  0  0
 34 33  1  0  0  0  0
M  END
>  <MODEL>
7

>  <REMARK>
 VINA RESULT:      -5.5      2.750      6.668
  Name = 
  14 active torsions:
  status: ('A' for Active; 'I' for Inactive)
    1  A    between atoms: C_5  and  O_33
    2  A    between atoms: C_7  and  C_32
    3  A    between atoms: C_8  and  C_24
    4  A    between atoms: C_9  and  O_14
    5  A    between atoms: C_9  and  C_24
    6  A    between atoms: C_9  and  C_25
    7  A    between atoms: C_10  and  C_32
    8  A    between atoms: O_14  and  C_29
    9  A    between atoms: C_15  and  C_35
   10  A    between atoms: C_18  and  C_29
   11  A    between atoms: C_19  and  C_30
   12  A    between atoms: O_23  and  C_25
   13  A    between atoms: O_23  and  C_35
   14  A    between atoms: C_32  and  O_33
                            x       y       z     vdW  Elec       q    Type
                         _______ _______ _______ _____ _____    ______ ____

>  <TORSDO>
F 14

$$$$
=
 OpenBabel11062420093D

 35 36  0  0  1  0  0  0  0  0999 V2000
  194.9890  176.0760  146.3080 N   0  0  0  0  0  0  0  0  0  0  0  0
  195.1690  174.7300  145.8630 C   0  0  0  0  0  0  0  0  0  0  0  0
  194.0640  174.0440  145.1790 C   0  0  0  0  0  0  0  0  0  0  0  0
  192.9720  174.7360  144.8520 C   0  0  0  0  0  3  0  0  0  0  0  0
  192.8600  176.2280  145.0690 C   0  0  2  0  0  3  0  0  0  0  0  0
  193.9330  176.7660  145.9930 C   0  0  0  0  0  3  0  0  0  0  0  0
  196.2490  174.1280  146.1040 O   0  0  0  0  0  0  0  0  0  0  0  0
  189.2910  177.7400  144.7530 C   0  0  0  0  0  2  0  0  0  0  0  0
  189.1850  175.4680  145.9200 C   0  0  1  0  0  3  0  0  0  0  0  0
  188.6110  176.8920  145.8430 C   0  0  2  0  0  3  0  0  0  0  0  0
  190.9140  175.5410  147.7020 C   0  0  0  0  0  1  0  0  0  0  0  0
  188.9290  174.7640  144.7380 O   0  0  0  0  0  1  0  0  0  0  0  0
  190.6600  177.2050  144.3240 C   0  0  0  0  0  2  0  0  0  0  0  0
  191.4510  176.6540  145.5180 C   0  0  1  0  0  3  0  0  0  0  0  0
  190.6930  175.4900  146.2000 C   0  0  2  0  0  3  0  0  0  0  0  0
  187.0870  176.8940  145.6810 C   0  0  1  0  0  3  0  0  0  0  0  0
  186.7980  178.2070  147.6580 O   0  0  0  0  0  1  0  0  0  0  0  0
  186.4130  177.0170  147.0420 C   0  0  0  0  0  2  0  0  0  0  0  0
  186.6830  177.9620  144.8720 O   0  0  0  0  0  0  0  0  0  0  0  0
  185.5510  177.4990  144.2020 C   0  0  0  0  0  2  0  0  0  0  0  0
  185.9160  176.4830  143.3190 O   0  0  0  0  0  1  0  0  0  0  0  0
  194.1390  172.5890  144.8590 C   0  0  0  0  0  2  0  0  0  0  0  0
  192.8520  172.0510  144.7910 O   0  0  0  0  0  0  0  0  0  0  0  0
  192.9050  171.1140  143.7540 C   0  0  2  0  0  3  0  0  0  0  0  0
  194.3450  170.7590  143.4320 C   0  0  0  0  0  1  0  0  0  0  0  0
  192.1300  171.5790  142.5060 C   0  0  2  0  0  3  0  0  0  0  0  0
  192.4930  171.5610  139.9780 C   0  0  0  0  0  1  0  0  0  0  0  0
  192.9730  172.0880  141.3200 C   0  0  1  0  0  3  0  0  0  0  0  0
  194.4020  173.9760  141.6380 O   0  0  0  0  0  1  0  0  0  0  0  0
  193.1060  173.6010  141.2800 C   0  0  0  0  0  2  0  0  0  0  0  0
  191.1770  172.5380  142.8640 O   0  0  0  0  0  0  0  0  0  0  0  0
  189.9420  171.9190  142.6610 C   0  0  0  0  0  2  0  0  0  0  0  0
  189.0920  172.7750  141.7940 C   0  0  0  0  0  0  0  0  0  0  0  0
  187.6770  172.7520  141.9380 N   0  0  0  0  0  1  0  0  0  0  0  0
  189.6260  173.5400  140.9510 O   0  0  0  0  0  0  0  0  0  0  0  0
  2  7  2  0  0  0  0
  2  1  1  0  0  0  0
  3  2  1  0  0  0  0
  4  3  2  0  0  0  0
  5  4  1  1  0  0  0
  5 14  1  0  0  0  0
  5  6  1  0  0  0  0
  6  1  2  0  0  0  0
  8 10  1  0  0  0  0
  9 12  1  6  0  0  0
  9 15  1  0  0  0  0
 10 16  1  6  0  0  0
 10  9  1  0  0  0  0
 13  8  1  0  0  0  0
 14 13  1  6  0  0  0
 14 15  1  0  0  0  0
 15 11  1  1  0  0  0
 16 18  1  1  0  0  0
 18 17  1  0  0  0  0
 19 16  1  0  0  0  0
 20 19  1  0  0  0  0
 21 20  1  0  0  0  0
 22  3  1  0  0  0  0
 23 22  1  0  0  0  0
 24 25  1  6  0  0  0
 24 23  1  0  0  0  0
 26 31  1  1  0  0  0
 26 24  1  0  0  0  0
 28 27  1  6  0  0  0
 28 26  1  0  0  0  0
 30 28  1  0  0  0  0
 30 29  1  0  0  0  0
 32 31  1  0  0  0  0
 33 34  1  0  0  0  0
 33 32  1  0  0  0  0
 35 33  2  0  0  0  0
M  END
>  <MODEL>
8

>  <REMARK>
 VINA RESULT:      -5.4      2.512      7.254
  Name = 
  14 active torsions:
  status: ('A' for Active; 'I' for Inactive)
    1  A    between atoms: C_5  and  O_33
    2  A    between atoms: C_7  and  C_32
    3  A    between atoms: C_8  and  C_24
    4  A    between atoms: C_9  and  O_14
    5  A    between atoms: C_9  and  C_24
    6  A    between atoms: C_9  and  C_25
    7  A    between atoms: C_10  and  C_32
    8  A    between atoms: O_14  and  C_29
    9  A    between atoms: C_15  and  C_35
   10  A    between atoms: C_18  and  C_29
   11  A    between atoms: C_19  and  C_30
   12  A    between atoms: O_23  and  C_25
   13  A    between atoms: O_23  and  C_35
   14  A    between atoms: C_32  and  O_33
                            x       y       z     vdW  Elec       q    Type
                         _______ _______ _______ _____ _____    ______ ____

>  <TORSDO>
F 14

$$$$
=
 OpenBabel11062420093D

 35 36  0  0  1  0  0  0  0  0999 V2000
  194.9450  176.2540  146.0170 N   0  0  0  0  0  0  0  0  0  0  0  0
  195.0230  174.8420  145.8080 C   0  0  0  0  0  0  0  0  0  0  0  0
  193.8380  174.1200  145.3240 C   0  0  0  0  0  0  0  0  0  0  0  0
  192.7630  174.8130  144.9460 C   0  0  0  0  0  3  0  0  0  0  0  0
  192.7450  176.3240  144.9020 C   0  0  2  0  0  3  0  0  0  0  0  0
  193.9070  176.9440  145.6490 C   0  0  0  0  0  3  0  0  0  0  0  0
  196.0840  174.2250  146.0870 O   0  0  0  0  0  0  0  0  0  0  0  0
  189.2110  177.9060  144.5340 C   0  0  0  0  0  2  0  0  0  0  0  0
  189.1360  175.9590  146.1890 C   0  0  1  0  0  3  0  0  0  0  0  0
  188.6030  177.3580  145.8370 C   0  0  2  0  0  3  0  0  0  0  0  0
  191.0170  176.3410  147.7670 C   0  0  0  0  0  1  0  0  0  0  0  0
  188.7560  175.0240  145.2220 O   0  0  0  0  0  1  0  0  0  0  0  0
  190.5190  177.2200  144.1310 C   0  0  0  0  0  2  0  0  0  0  0  0
  191.3950  176.9100  145.3520 C   0  0  1  0  0  3  0  0  0  0  0  0
  190.6640  175.9670  146.3380 C   0  0  2  0  0  3  0  0  0  0  0  0
  187.0720  177.4010  145.8000 C   0  0  1  0  0  3  0  0  0  0  0  0
  185.9950  177.1300  147.9170 O   0  0  0  0  0  1  0  0  0  0  0  0
  186.5340  178.0820  147.0520 C   0  0  0  0  0  2  0  0  0  0  0  0
  186.6310  178.1010  144.6720 O   0  0  0  0  0  0  0  0  0  0  0  0
  185.6970  179.0170  145.1590 C   0  0  0  0  0  2  0  0  0  0  0  0
  185.5150  180.0370  144.2260 O   0  0  0  0  0  1  0  0  0  0  0  0
  193.8150  172.6300  145.2640 C   0  0  0  0  0  2  0  0  0  0  0  0
  193.7150  172.2100  143.9350 O   0  0  0  0  0  0  0  0  0  0  0  0
  192.4680  171.5850  143.8450 C   0  0  2  0  0  3  0  0  0  0  0  0
  192.6300  170.0760  143.8380 C   0  0  0  0  0  1  0  0  0  0  0  0
  191.6480  172.0840  142.6390 C   0  0  2  0  0  3  0  0  0  0  0  0
  190.3080  174.1980  142.1280 C   0  0  0  0  0  1  0  0  0  0  0  0
  190.3970  172.9270  142.9570 C   0  0  1  0  0  3  0  0  0  0  0  0
  188.2600  172.7150  141.9110 O   0  0  0  0  0  1  0  0  0  0  0  0
  189.1010  172.1410  142.8650 C   0  0  0  0  0  2  0  0  0  0  0  0
  191.3050  171.0070  141.8150 O   0  0  0  0  0  0  0  0  0  0  0  0
  191.8480  171.3160  140.5660 C   0  0  0  0  0  2  0  0  0  0  0  0
  190.7800  171.2670  139.5340 C   0  0  0  0  0  0  0  0  0  0  0  0
  190.3650  170.0170  138.9970 N   0  0  0  0  0  1  0  0  0  0  0  0
  190.2250  172.3310  139.1550 O   0  0  0  0  0  0  0  0  0  0  0  0
  2  1  1  0  0  0  0
  2  7  2  0  0  0  0
  3  2  1  0  0  0  0
  4  3  2  0  0  0  0
  5  4  1  1  0  0  0
  5 14  1  0  0  0  0
  5  6  1  0  0  0  0
  6  1  2  0  0  0  0
  8 10  1  0  0  0  0
  9 12  1  6  0  0  0
  9 15  1  0  0  0  0
 10 16  1  6  0  0  0
 10  9  1  0  0  0  0
 13  8  1  0  0  0  0
 14 13  1  6  0  0  0
 14 15  1  0  0  0  0
 15 11  1  1  0  0  0
 16 18  1  1  0  0  0
 18 17  1  0  0  0  0
 19 20  1  0  0  0  0
 19 16  1  0  0  0  0
 21 20  1  0  0  0  0
 22  3  1  0  0  0  0
 23 22  1  0  0  0  0
 24 25  1  6  0  0  0
 24 23  1  0  0  0  0
 26 31  1  1  0  0  0
 26 28  1  0  0  0  0
 26 24  1  0  0  0  0
 28 27  1  6  0  0  0
 29 30  1  0  0  0  0
 30 28  1  0  0  0  0
 32 31  1  0  0  0  0
 33 32  1  0  0  0  0
 34 33  1  0  0  0  0
 35 33  2  0  0  0  0
M  END
>  <MODEL>
9

>  <REMARK>
 VINA RESULT:      -5.4      2.707      7.551
  Name = 
  14 active torsions:
  status: ('A' for Active; 'I' for Inactive)
    1  A    between atoms: C_5  and  O_33
    2  A    between atoms: C_7  and  C_32
    3  A    between atoms: C_8  and  C_24
    4  A    between atoms: C_9  and  O_14
    5  A    between atoms: C_9  and  C_24
    6  A    between atoms: C_9  and  C_25
    7  A    between atoms: C_10  and  C_32
    8  A    between atoms: O_14  and  C_29
    9  A    between atoms: C_15  and  C_35
   10  A    between atoms: C_18  and  C_29
   11  A    between atoms: C_19  and  C_30
   12  A    between atoms: O_23  and  C_25
   13  A    between atoms: O_23  and  C_35
   14  A    between atoms: C_32  and  O_33
                            x       y       z     vdW  Elec       q    Type
                         _______ _______ _______ _____ _____    ______ ____

>  <TORSDO>
F 14

$$$$
