=
 OpenBabel11072409403D

 25 29  0  0  1  0  0  0  0  0999 V2000
  185.2500  179.1590  143.7510 C   0  0  0  0  0  2  0  0  0  0  0  0
  187.0340  176.7190  144.7200 C   0  0  0  0  0  0  0  0  0  0  0  0
  188.8440  174.9680  144.1300 C   0  0  0  0  0  0  0  0  0  0  0  0
  190.0010  174.2180  144.7290 C   0  0  0  0  0  2  0  0  0  0  0  0
  186.6870  177.2920  145.9330 C   0  0  1  0  0  3  0  0  0  0  0  0
  189.7700  173.9200  146.2260 C   0  0  0  0  0  2  0  0  0  0  0  0
  189.3760  175.1660  147.0460 C   0  0  2  0  0  3  0  0  0  0  0  0
  187.4630  176.8260  146.9390 N   0  0  0  0  0  0  0  0  0  0  0  0
  185.5800  179.5490  145.1900 C   0  0  0  0  0  2  0  0  0  0  0  0
  186.4100  176.9850  143.3870 C   0  0  0  0  0  2  0  0  0  0  0  0
  184.3610  177.7720  146.3270 O   0  0  0  0  0  0  0  0  0  0  0  0
  188.2920  175.9380  146.3520 C   0  0  0  0  0  0  0  0  0  0  0  0
  185.6310  178.3340  146.1080 C   0  0  1  0  0  0  0  0  0  0  0  0
  188.5920  174.8750  142.9000 O   0  0  0  0  0  0  0  0  0  0  0  0
  186.4380  178.4800  143.0590 C   0  0  1  0  0  3  0  0  0  0  0  0
  188.0660  175.8540  145.0010 C   0  0  0  0  0  0  0  0  0  0  0  0
  184.9580  178.4400  147.4180 C   0  0  0  0  0  2  0  0  0  0  0  0
  187.1860  177.7110  140.9910 N   0  0  0  0  0  2  0  0  0  0  0  0
  186.3690  178.6810  141.6070 N   0  0  1  0  0  0  0  0  0  0  0  0
  185.0090  178.3900  141.1640 C   0  0  0  0  0  2  0  0  0  0  0  0
  185.1200  177.7250  139.8200 C   0  0  0  0  0  2  0  0  0  0  0  0
  186.5850  177.4180  139.7000 C   0  0  0  0  0  2  0  0  0  0  0  0
  190.8600  177.0880  146.4830 O   0  0  0  0  0  0  0  0  0  0  0  0
  191.2890  175.8180  148.3410 O   0  0  0  0  0  1  0  0  0  0  0  0
  190.5630  176.0310  147.3320 C   0  0  0  0  0  0  0  0  0  0  0  0
  1  9  1  0  0  0  0
  2 16  2  0  0  0  0
  3  4  1  0  0  0  0
  3 16  1  0  0  0  0
  4  6  1  0  0  0  0
  5  2  1  6  0  0  0
  5 13  1  0  0  0  0
  5  8  1  0  0  0  0
  6  7  1  0  0  0  0
  7 25  1  6  0  0  0
 10  2  1  0  0  0  0
 11 17  1  0  0  0  0
 12  8  2  0  0  0  0
 12  7  1  0  0  0  0
 13  9  1  6  0  0  0
 13 11  1  0  0  0  0
 13 17  1  0  0  0  0
 14  3  2  0  0  0  0
 15 10  1  6  0  0  0
 15  1  1  0  0  0  0
 16 12  1  0  0  0  0
 18 19  1  0  0  0  0
 19 20  1  6  0  0  0
 19 15  1  0  0  0  0
 21 20  1  0  0  0  0
 22 21  1  0  0  0  0
 22 18  1  0  0  0  0
 23 25  2  0  0  0  0
 25 24  1  0  0  0  0
M  END
>  <MODEL>
1

>  <REMARK>
 VINA RESULT:      -8.1      0.000      0.000
  Name = 
  2 active torsions:
  status: ('A' for Active; 'I' for Inactive)
    1  A    between atoms: N_7  and  C_23
    2  A    between atoms: C_12  and  C_16
                            x       y       z     vdW  Elec       q    Type
                         _______ _______ _______ _____ _____    ______ ____

>  <TORSDO>
F 2

$$$$
=
 OpenBabel11072409403D

 25 29  0  0  1  0  0  0  0  0999 V2000
  190.3190  174.0330  144.3940 C   0  0  0  0  0  2  0  0  0  0  0  0
  188.4290  176.5470  143.9650 C   0  0  0  0  0  0  0  0  0  0  0  0
  186.6190  177.6950  142.5180 C   0  0  0  0  0  0  0  0  0  0  0  0
  185.4130  178.5860  142.6240 C   0  0  0  0  0  2  0  0  0  0  0  0
  188.7170  176.6590  145.3160 C   0  0  1  0  0  3  0  0  0  0  0  0
  185.5500  179.5910  143.7880 C   0  0  0  0  0  2  0  0  0  0  0  0
  185.9230  178.9280  145.1300 C   0  0  2  0  0  3  0  0  0  0  0  0
  187.8740  177.5210  145.9300 N   0  0  0  0  0  0  0  0  0  0  0  0
  189.9150  174.3840  145.8240 C   0  0  0  0  0  2  0  0  0  0  0  0
  189.1350  175.6920  142.9620 C   0  0  0  0  0  2  0  0  0  0  0  0
  191.0270  176.5460  145.9870 O   0  0  0  0  0  0  0  0  0  0  0  0
  187.0620  177.9670  144.9500 C   0  0  0  0  0  0  0  0  0  0  0  0
  189.7850  175.8890  146.0230 C   0  0  1  0  0  0  0  0  0  0  0  0
  186.9400  177.1860  141.4120 O   0  0  0  0  0  0  0  0  0  0  0  0
  189.1590  174.2290  143.4110 C   0  0  1  0  0  3  0  0  0  0  0  0
  187.3640  177.3890  143.7430 C   0  0  0  0  0  0  0  0  0  0  0  0
  190.3820  176.4710  147.2410 C   0  0  0  0  0  2  0  0  0  0  0  0
  188.0540  173.1860  141.6450 N   0  0  0  0  0  2  0  0  0  0  0  0
  189.3170  173.3450  142.2500 N   0  0  1  0  0  0  0  0  0  0  0  0
  190.1460  174.0260  141.2600 C   0  0  0  0  0  2  0  0  0  0  0  0
  189.6020  173.6580  139.9070 C   0  0  0  0  0  2  0  0  0  0  0  0
  188.2920  172.9940  140.2230 C   0  0  0  0  0  2  0  0  0  0  0  0
  184.8500  176.9470  146.1980 O   0  0  0  0  0  1  0  0  0  0  0  0
  183.6500  178.8760  145.9000 O   0  0  0  0  0  0  0  0  0  0  0  0
  184.7400  178.2580  145.7570 C   0  0  0  0  0  0  0  0  0  0  0  0
  1  9  1  0  0  0  0
  3  4  1  0  0  0  0
  3 16  1  0  0  0  0
  4  6  1  0  0  0  0
  5  2  1  1  0  0  0
  5  8  1  0  0  0  0
  5 13  1  0  0  0  0
  6  7  1  0  0  0  0
  7 25  1  6  0  0  0
 10  2  1  0  0  0  0
 11 13  1  0  0  0  0
 11 17  1  0  0  0  0
 12  7  1  0  0  0  0
 12  8  2  0  0  0  0
 13  9  1  6  0  0  0
 13 17  1  0  0  0  0
 14  3  2  0  0  0  0
 15 10  1  6  0  0  0
 15  1  1  0  0  0  0
 16  2  2  0  0  0  0
 16 12  1  0  0  0  0
 18 19  1  0  0  0  0
 19 20  1  6  0  0  0
 19 15  1  0  0  0  0
 21 22  1  0  0  0  0
 21 20  1  0  0  0  0
 22 18  1  0  0  0  0
 25 24  2  0  0  0  0
 25 23  1  0  0  0  0
M  END
>  <MODEL>
2

>  <REMARK>
 VINA RESULT:      -7.7      2.262      5.395
  Name = 
  2 active torsions:
  status: ('A' for Active; 'I' for Inactive)
    1  A    between atoms: N_7  and  C_23
    2  A    between atoms: C_12  and  C_16
                            x       y       z     vdW  Elec       q    Type
                         _______ _______ _______ _____ _____    ______ ____

>  <TORSDO>
F 2

$$$$
=
 OpenBabel11072409403D

 25 29  0  0  1  0  0  0  0  0999 V2000
  185.2480  178.0560  143.4810 C   0  0  0  0  0  2  0  0  0  0  0  0
  187.8940  176.3070  143.6210 C   0  0  0  0  0  0  0  0  0  0  0  0
  189.4970  174.8860  145.0700 C   0  0  0  0  0  0  0  0  0  0  0  0
  190.3970  173.6840  145.0020 C   0  0  0  0  0  2  0  0  0  0  0  0
  187.6200  176.2650  142.2630 C   0  0  0  0  0  0  0  0  0  0  0  0
  191.0410  173.5340  143.6070 C   0  0  0  0  0  2  0  0  0  0  0  0
  190.0180  173.5820  142.4510 C   0  0  2  0  0  3  0  0  0  0  0  0
  188.3330  175.2960  141.6450 N   0  0  0  0  0  0  0  0  0  0  0  0
  185.2240  177.3220  142.1430 C   0  0  0  0  0  2  0  0  0  0  0  0
  187.3000  177.2360  144.6310 C   0  0  0  0  0  2  0  0  0  0  0  0
  187.1910  178.3500  141.1380 O   0  0  0  0  0  0  0  0  0  0  0  0
  189.0750  174.7370  142.6240 C   0  0  0  0  0  0  0  0  0  0  0  0
  186.6240  177.1390  141.5710 C   0  0  1  0  0  0  0  0  0  0  0  0
  189.2860  175.4630  146.1690 O   0  0  0  0  0  0  0  0  0  0  0  0
  185.7710  177.1610  144.6110 C   0  0  1  0  0  3  0  0  0  0  0  0
  188.8270  175.3200  143.8400 C   0  0  2  0  0  3  0  0  0  0  0  0
  186.8190  177.4270  140.1360 C   0  0  0  0  0  2  0  0  0  0  0  0
  185.9510  176.9490  146.9240 N   0  0  0  0  0  2  0  0  0  0  0  0
  185.2260  177.5960  145.9030 N   0  0  1  0  0  0  0  0  0  0  0  0
  185.5000  179.0200  146.0650 C   0  0  0  0  0  2  0  0  0  0  0  0
  185.8050  179.2430  147.5200 C   0  0  0  0  0  2  0  0  0  0  0  0
  185.9630  177.8520  148.0640 C   0  0  0  0  0  2  0  0  0  0  0  0
  189.9860  171.1050  142.1710 O   0  0  0  0  0  0  0  0  0  0  0  0
  188.0160  172.2600  142.3640 O   0  0  0  0  0  1  0  0  0  0  0  0
  189.2770  172.2880  142.3230 C   0  0  0  0  0  0  0  0  0  0  0  0
  2 16  1  0  0  0  0
  2 10  1  0  0  0  0
  3 14  2  0  0  0  0
  4  3  1  0  0  0  0
  5  2  2  0  0  0  0
  6  4  1  0  0  0  0
  7 25  1  1  0  0  0
  7 12  1  0  0  0  0
  7  6  1  0  0  0  0
  8  5  1  0  0  0  0
  8 12  2  0  0  0  0
  9  1  1  0  0  0  0
 11 13  1  0  0  0  0
 13 17  1  6  0  0  0
 13  9  1  0  0  0  0
 13  5  1  0  0  0  0
 15  1  1  6  0  0  0
 15 10  1  0  0  0  0
 15 19  1  0  0  0  0
 16 12  1  6  0  0  0
 16  3  1  0  0  0  0
 17 11  1  0  0  0  0
 18 22  1  0  0  0  0
 19 20  1  1  0  0  0
 19 18  1  0  0  0  0
 20 21  1  0  0  0  0
 21 22  1  0  0  0  0
 23 25  2  0  0  0  0
 25 24  1  0  0  0  0
M  END
>  <MODEL>
3

>  <REMARK>
 VINA RESULT:      -7.3      2.123      4.987
  Name = 
  2 active torsions:
  status: ('A' for Active; 'I' for Inactive)
    1  A    between atoms: N_7  and  C_23
    2  A    between atoms: C_12  and  C_16
                            x       y       z     vdW  Elec       q    Type
                         _______ _______ _______ _____ _____    ______ ____

>  <TORSDO>
F 2

$$$$
=
 OpenBabel11072409403D

 25 29  0  0  1  0  0  0  0  0999 V2000
  190.9270  175.7500  143.3070 C   0  0  0  0  0  2  0  0  0  0  0  0
  188.2660  176.4870  144.8730 C   0  0  0  0  0  0  0  0  0  0  0  0
  187.1640  177.8160  146.7990 C   0  0  0  0  0  0  0  0  0  0  0  0
  185.8940  178.5370  147.1600 C   0  0  0  0  0  2  0  0  0  0  0  0
  187.7490  176.0370  143.6690 C   0  0  0  0  0  0  0  0  0  0  0  0
  184.6620  177.8800  146.5030 C   0  0  0  0  0  2  0  0  0  0  0  0
  184.8160  177.6690  144.9820 C   0  0  2  0  0  3  0  0  0  0  0  0
  186.4490  176.3850  143.5280 N   0  0  0  0  0  0  0  0  0  0  0  0
  189.8980  175.8220  142.1820 C   0  0  0  0  0  2  0  0  0  0  0  0
  189.6610  176.3010  145.3800 C   0  0  0  0  0  2  0  0  0  0  0  0
  188.5260  173.9160  142.8340 O   0  0  0  0  0  0  0  0  0  0  0  0
  186.1450  177.0450  144.6650 C   0  0  0  0  0  0  0  0  0  0  0  0
  188.5350  175.3070  142.6280 C   0  0  1  0  0  0  0  0  0  0  0  0
  188.1580  177.8500  147.5700 O   0  0  0  0  0  0  0  0  0  0  0  0
  190.6840  176.8270  144.3700 C   0  0  1  0  0  3  0  0  0  0  0  0
  187.2280  177.1350  145.5010 C   0  0  2  0  0  3  0  0  0  0  0  0
  187.8150  174.3980  141.7130 C   0  0  0  0  0  2  0  0  0  0  0  0
  191.9000  176.6070  146.3450 N   0  0  0  0  0  2  0  0  0  0  0  0
  191.9390  177.1670  145.0520 N   0  0  1  0  0  0  0  0  0  0  0  0
  193.0360  176.4940  144.3630 C   0  0  0  0  0  2  0  0  0  0  0  0
  194.0200  176.0710  145.4180 C   0  0  0  0  0  2  0  0  0  0  0  0
  193.2730  176.2870  146.7030 C   0  0  0  0  0  2  0  0  0  0  0  0
  185.6850  179.8280  144.0890 O   0  0  0  0  0  1  0  0  0  0  0  0
  183.5060  179.2280  143.7110 O   0  0  0  0  0  0  0  0  0  0  0  0
  184.6220  178.9480  144.2290 C   0  0  0  0  0  0  0  0  0  0  0  0
  2 10  1  0  0  0  0
  2 16  1  0  0  0  0
  3  4  1  0  0  0  0
  3 14  2  0  0  0  0
  5  2  2  0  0  0  0
  6  4  1  0  0  0  0
  7 25  1  6  0  0  0
  7  6  1  0  0  0  0
  8  5  1  0  0  0  0
  8 12  2  0  0  0  0
  9 13  1  0  0  0  0
  9  1  1  0  0  0  0
 12  7  1  0  0  0  0
 13 17  1  6  0  0  0
 13 11  1  0  0  0  0
 13  5  1  0  0  0  0
 15  1  1  6  0  0  0
 15 19  1  0  0  0  0
 15 10  1  0  0  0  0
 16 12  1  1  0  0  0
 16  3  1  0  0  0  0
 17 11  1  0  0  0  0
 18 22  1  0  0  0  0
 19 20  1  6  0  0  0
 19 18  1  0  0  0  0
 20 21  1  0  0  0  0
 21 22  1  0  0  0  0
 23 25  1  0  0  0  0
 24 25  2  0  0  0  0
M  END
>  <MODEL>
4

>  <REMARK>
 VINA RESULT:      -7.2      2.544      6.395
  Name = 
  2 active torsions:
  status: ('A' for Active; 'I' for Inactive)
    1  A    between atoms: N_7  and  C_23
    2  A    between atoms: C_12  and  C_16
                            x       y       z     vdW  Elec       q    Type
                         _______ _______ _______ _____ _____    ______ ____

>  <TORSDO>
F 2

$$$$
=
 OpenBabel11072409403D

 25 29  0  0  1  0  0  0  0  0999 V2000
  186.1960  176.7900  144.2020 C   0  0  0  0  0  2  0  0  0  0  0  0
  189.2810  176.3090  144.7800 C   0  0  0  0  0  0  0  0  0  0  0  0
  191.1590  176.0630  146.5410 C   0  0  0  0  0  0  0  0  0  0  0  0
  192.4480  175.3330  146.7970 C   0  0  0  0  0  2  0  0  0  0  0  0
  189.1690  175.8040  143.4940 C   0  0  0  0  0  0  0  0  0  0  0  0
  193.2270  175.0780  145.4890 C   0  0  0  0  0  2  0  0  0  0  0  0
  192.3740  174.4160  144.3860 C   0  0  2  0  0  3  0  0  0  0  0  0
  190.2500  175.0600  143.1620 N   0  0  0  0  0  0  0  0  0  0  0  0
  186.5740  175.7760  143.1260 C   0  0  0  0  0  2  0  0  0  0  0  0
  188.2890  177.1690  145.4980 C   0  0  0  0  0  2  0  0  0  0  0  0
  188.0930  177.1770  141.8350 O   0  0  0  0  0  0  0  0  0  0  0  0
  191.0530  175.1150  144.2440 C   0  0  0  0  0  0  0  0  0  0  0  0
  187.9870  176.0040  142.6030 C   0  0  1  0  0  0  0  0  0  0  0  0
  190.6450  176.7840  147.4360 O   0  0  0  0  0  0  0  0  0  0  0  0
  186.9110  176.5050  145.5280 C   0  0  1  0  0  3  0  0  0  0  0  0
  190.4910  175.8590  145.2510 C   0  0  2  0  0  3  0  0  0  0  0  0
  188.1910  175.9510  141.1420 C   0  0  0  0  0  2  0  0  0  0  0  0
  186.7450  178.2000  147.1180 N   0  0  0  0  0  2  0  0  0  0  0  0
  186.1250  177.0220  146.6550 N   0  0  1  0  0  0  0  0  0  0  0  0
  184.8160  177.4340  146.1560 C   0  0  0  0  0  2  0  0  0  0  0  0
  184.4240  178.6660  146.9240 C   0  0  0  0  0  2  0  0  0  0  0  0
  185.6870  179.0520  147.6390 C   0  0  0  0  0  2  0  0  0  0  0  0
  193.2970  172.1590  144.9060 O   0  0  0  0  0  1  0  0  0  0  0  0
  191.0390  172.4360  144.6320 O   0  0  0  0  0  0  0  0  0  0  0  0
  192.1890  172.9520  144.6420 C   0  0  0  0  0  0  0  0  0  0  0  0
  2 16  1  0  0  0  0
  2 10  1  0  0  0  0
  3  4  1  0  0  0  0
  3 14  2  0  0  0  0
  5  2  2  0  0  0  0
  6  4  1  0  0  0  0
  7 25  1  1  0  0  0
  7  6  1  0  0  0  0
  8  5  1  0  0  0  0
  8 12  2  0  0  0  0
  9  1  1  0  0  0  0
 10 15  1  0  0  0  0
 11 13  1  0  0  0  0
 12  7  1  0  0  0  0
 13 17  1  6  0  0  0
 13  9  1  0  0  0  0
 13  5  1  0  0  0  0
 15  1  1  6  0  0  0
 15 19  1  0  0  0  0
 16 12  1  6  0  0  0
 16  3  1  0  0  0  0
 17 11  1  0  0  0  0
 18 22  1  0  0  0  0
 19 20  1  6  0  0  0
 19 18  1  0  0  0  0
 20 21  1  0  0  0  0
 21 22  1  0  0  0  0
 24 25  2  0  0  0  0
 25 23  1  0  0  0  0
M  END
>  <MODEL>
5

>  <REMARK>
 VINA RESULT:      -7.1      2.593      4.867
  Name = 
  2 active torsions:
  status: ('A' for Active; 'I' for Inactive)
    1  A    between atoms: N_7  and  C_23
    2  A    between atoms: C_12  and  C_16
                            x       y       z     vdW  Elec       q    Type
                         _______ _______ _______ _____ _____    ______ ____

>  <TORSDO>
F 2

$$$$
=
 OpenBabel11072409403D

 25 29  0  0  1  0  0  0  0  0999 V2000
  191.5090  174.2710  142.7800 C   0  0  0  0  0  2  0  0  0  0  0  0
  188.8330  175.5910  143.8640 C   0  0  0  0  0  0  0  0  0  0  0  0
  187.7400  177.4150  145.3360 C   0  0  0  0  0  0  0  0  0  0  0  0
  186.5380  178.3160  145.4000 C   0  0  0  0  0  2  0  0  0  0  0  0
  188.3670  174.9350  142.7350 C   0  0  0  0  0  0  0  0  0  0  0  0
  185.2950  177.6510  144.7720 C   0  0  0  0  0  2  0  0  0  0  0  0
  185.5480  177.0930  143.3550 C   0  0  2  0  0  3  0  0  0  0  0  0
  187.1330  175.3670  142.3880 N   0  0  0  0  0  0  0  0  0  0  0  0
  190.5900  174.1890  141.5630 C   0  0  0  0  0  2  0  0  0  0  0  0
  190.1500  175.3890  144.5420 C   0  0  0  0  0  2  0  0  0  0  0  0
  188.9570  172.6180  142.4570 O   0  0  0  0  0  0  0  0  0  0  0  0
  186.8150  176.2900  143.3190 C   0  0  0  0  0  0  0  0  0  0  0  0
  189.1450  173.9200  141.9620 C   0  0  1  0  0  0  0  0  0  0  0  0
  188.6650  177.5240  146.1820 O   0  0  0  0  0  0  0  0  0  0  0  0
  191.3070  175.5770  143.5580 C   0  0  1  0  0  3  0  0  0  0  0  0
  187.8300  176.4590  144.2270 C   0  0  2  0  0  3  0  0  0  0  0  0
  188.4010  172.9040  141.1900 C   0  0  0  0  0  2  0  0  0  0  0  0
  192.1680  176.6900  145.4150 N   0  0  0  0  0  2  0  0  0  0  0  0
  192.5330  175.9370  144.2800 N   0  0  1  0  0  0  0  0  0  0  0  0
  193.1430  174.7160  144.7960 C   0  0  0  0  0  2  0  0  0  0  0  0
  193.7290  175.0530  146.1380 C   0  0  0  0  0  2  0  0  0  0  0  0
  193.1620  176.4110  146.4390 C   0  0  0  0  0  2  0  0  0  0  0  0
  186.7810  178.6680  141.8670 O   0  0  0  0  0  0  0  0  0  0  0  0
  184.4900  178.6610  141.8780 O   0  0  0  0  0  1  0  0  0  0  0  0
  185.5660  178.1850  142.3310 C   0  0  0  0  0  0  0  0  0  0  0  0
  2 16  1  0  0  0  0
  2 10  1  0  0  0  0
  3  4  1  0  0  0  0
  3 14  2  0  0  0  0
  5  2  2  0  0  0  0
  6  4  1  0  0  0  0
  7 25  1  6  0  0  0
  7  6  1  0  0  0  0
  8  5  1  0  0  0  0
  8 12  2  0  0  0  0
  9 13  1  0  0  0  0
  9  1  1  0  0  0  0
 12  7  1  0  0  0  0
 13 17  1  6  0  0  0
 13 11  1  0  0  0  0
 13  5  1  0  0  0  0
 15  1  1  1  0  0  0
 15 19  1  0  0  0  0
 15 10  1  0  0  0  0
 16 12  1  1  0  0  0
 16  3  1  0  0  0  0
 17 11  1  0  0  0  0
 18 22  1  0  0  0  0
 19 20  1  1  0  0  0
 19 18  1  0  0  0  0
 20 21  1  0  0  0  0
 21 22  1  0  0  0  0
 23 25  2  0  0  0  0
 24 25  1  0  0  0  0
M  END
>  <MODEL>
6

>  <REMARK>
 VINA RESULT:      -7.0      2.819      6.783
  Name = 
  2 active torsions:
  status: ('A' for Active; 'I' for Inactive)
    1  A    between atoms: N_7  and  C_23
    2  A    between atoms: C_12  and  C_16
                            x       y       z     vdW  Elec       q    Type
                         _______ _______ _______ _____ _____    ______ ____

>  <TORSDO>
F 2

$$$$
=
 OpenBabel11072409403D

 25 29  0  0  1  0  0  0  0  0999 V2000
  187.6470  177.6870  146.5050 C   0  0  0  0  0  2  0  0  0  0  0  0
  188.5040  175.7070  144.1750 C   0  0  0  0  0  0  0  0  0  0  0  0
  188.3720  175.1070  141.6630 C   0  0  0  0  0  0  0  0  0  0  0  0
  189.1860  174.5100  140.5480 C   0  0  0  0  0  2  0  0  0  0  0  0
  189.4780  175.4390  145.1230 C   0  0  1  0  0  3  0  0  0  0  0  0
  190.1500  173.4230  141.0680 C   0  0  0  0  0  2  0  0  0  0  0  0
  191.0170  173.8880  142.2570 C   0  0  2  0  0  3  0  0  0  0  0  0
  190.5130  174.7520  144.5860 N   0  0  0  0  0  0  0  0  0  0  0  0
  189.0840  177.3390  146.8860 C   0  0  0  0  0  2  0  0  0  0  0  0
  187.2210  176.4460  144.3870 C   0  0  0  0  0  2  0  0  0  0  0  0
  188.7610  174.9740  147.3740 O   0  0  0  0  0  0  0  0  0  0  0  0
  190.1740  174.5730  143.2930 C   0  0  0  0  0  0  0  0  0  0  0  0
  189.4270  175.8940  146.5460 C   0  0  1  0  0  0  0  0  0  0  0  0
  187.2400  175.6050  141.4300 O   0  0  0  0  0  0  0  0  0  0  0  0
  187.4790  177.8300  144.9880 C   0  0  1  0  0  3  0  0  0  0  0  0
  188.9620  175.1490  143.0050 C   0  0  0  0  0  0  0  0  0  0  0  0
  190.1540  175.1080  147.5620 C   0  0  0  0  0  2  0  0  0  0  0  0
  185.5650  178.1200  143.6920 N   0  0  0  0  0  2  0  0  0  0  0  0
  186.3630  178.7320  144.6790 N   0  0  1  0  0  0  0  0  0  0  0  0
  185.5150  178.8410  145.8620 C   0  0  0  0  0  2  0  0  0  0  0  0
  184.0950  178.9250  145.3750 C   0  0  0  0  0  2  0  0  0  0  0  0
  184.2010  178.5700  143.9190 C   0  0  0  0  0  2  0  0  0  0  0  0
  192.3050  176.0200  142.3750 O   0  0  0  0  0  1  0  0  0  0  0  0
  192.9490  174.3730  140.9170 O   0  0  0  0  0  0  0  0  0  0  0  0
  192.1420  174.7660  141.8030 C   0  0  0  0  0  0  0  0  0  0  0  0
  1  9  1  0  0  0  0
  2 10  1  0  0  0  0
  3 16  1  0  0  0  0
  4  6  1  0  0  0  0
  4  3  1  0  0  0  0
  5  2  1  6  0  0  0
  5 13  1  0  0  0  0
  6  7  1  0  0  0  0
  7 25  1  6  0  0  0
  7 12  1  0  0  0  0
  8  5  1  0  0  0  0
 11 17  1  0  0  0  0
 12  8  2  0  0  0  0
 13  9  1  1  0  0  0
 13 11  1  0  0  0  0
 13 17  1  0  0  0  0
 14  3  2  0  0  0  0
 15 10  1  6  0  0  0
 15  1  1  0  0  0  0
 16 12  1  0  0  0  0
 16  2  2  0  0  0  0
 18 22  1  0  0  0  0
 18 19  1  0  0  0  0
 19 15  1  0  0  0  0
 19 20  1  1  0  0  0
 21 20  1  0  0  0  0
 22 21  1  0  0  0  0
 24 25  2  0  0  0  0
 25 23  1  0  0  0  0
M  END
>  <MODEL>
7

>  <REMARK>
 VINA RESULT:      -6.8      2.502      4.393
  Name = 
  2 active torsions:
  status: ('A' for Active; 'I' for Inactive)
    1  A    between atoms: N_7  and  C_23
    2  A    between atoms: C_12  and  C_16
                            x       y       z     vdW  Elec       q    Type
                         _______ _______ _______ _____ _____    ______ ____

>  <TORSDO>
F 2

$$$$
=
 OpenBabel11072409403D

 25 29  0  0  1  0  0  0  0  0999 V2000
  187.2700  177.4120  145.7250 C   0  0  0  0  0  2  0  0  0  0  0  0
  188.8410  176.1080  143.2940 C   0  0  0  0  0  0  0  0  0  0  0  0
  190.7570  174.5560  142.5140 C   0  0  0  0  0  0  0  0  0  0  0  0
  191.1170  173.5770  141.4310 C   0  0  0  0  0  2  0  0  0  0  0  0
  187.6440  176.4490  142.6840 C   0  0  1  0  0  3  0  0  0  0  0  0
  190.4730  173.9620  140.0820 C   0  0  0  0  0  2  0  0  0  0  0  0
  188.9540  174.2160  140.1770 C   0  0  2  0  0  3  0  0  0  0  0  0
  187.5060  175.8320  141.4880 N   0  0  0  0  0  0  0  0  0  0  0  0
  186.1500  177.1330  144.7260 C   0  0  0  0  0  2  0  0  0  0  0  0
  189.3430  176.5830  144.6200 C   0  0  0  0  0  2  0  0  0  0  0  0
  186.8290  178.6950  142.9840 O   0  0  0  0  0  0  0  0  0  0  0  0
  188.6370  175.1120  141.3390 C   0  0  0  0  0  0  0  0  0  0  0  0
  186.6080  177.3400  143.2880 C   0  0  1  0  0  0  0  0  0  0  0  0
  191.5230  174.7280  143.4980 O   0  0  0  0  0  0  0  0  0  0  0  0
  188.3230  176.2970  145.7250 C   0  0  1  0  0  3  0  0  0  0  0  0
  189.4670  175.2480  142.4230 C   0  0  0  0  0  0  0  0  0  0  0  0
  185.7060  178.0830  142.3850 C   0  0  0  0  0  2  0  0  0  0  0  0
  189.7420  175.0330  147.0720 N   0  0  0  0  0  2  0  0  0  0  0  0
  188.9940  176.2270  147.0280 N   0  0  1  0  0  0  0  0  0  0  0  0
  189.9730  177.3080  147.1040 C   0  0  0  0  0  2  0  0  0  0  0  0
  191.1610  176.7700  147.8510 C   0  0  0  0  0  2  0  0  0  0  0  0
  190.8970  175.2930  147.9170 C   0  0  0  0  0  2  0  0  0  0  0  0
  187.7000  172.4990  141.4800 O   0  0  0  0  0  1  0  0  0  0  0  0
  187.9710  172.2470  139.2180 O   0  0  0  0  0  0  0  0  0  0  0  0
  188.1880  172.9320  140.2550 C   0  0  0  0  0  0  0  0  0  0  0  0
  2 10  1  0  0  0  0
  3 14  2  0  0  0  0
  4  3  1  0  0  0  0
  5  8  1  1  0  0  0
  5 13  1  0  0  0  0
  5  2  1  0  0  0  0
  6  7  1  0  0  0  0
  6  4  1  0  0  0  0
  7 25  1  1  0  0  0
  7 12  1  0  0  0  0
  9  1  1  0  0  0  0
 11 13  1  0  0  0  0
 12  8  2  0  0  0  0
 12 16  1  0  0  0  0
 13 17  1  6  0  0  0
 13  9  1  0  0  0  0
 15 10  1  6  0  0  0
 15  1  1  0  0  0  0
 15 19  1  0  0  0  0
 16  3  1  0  0  0  0
 16  2  2  0  0  0  0
 17 11  1  0  0  0  0
 18 22  1  0  0  0  0
 19 18  1  0  0  0  0
 19 20  1  6  0  0  0
 20 21  1  0  0  0  0
 21 22  1  0  0  0  0
 24 25  2  0  0  0  0
 25 23  1  0  0  0  0
M  END
>  <MODEL>
8

>  <REMARK>
 VINA RESULT:      -6.4      2.608      5.899
  Name = 
  2 active torsions:
  status: ('A' for Active; 'I' for Inactive)
    1  A    between atoms: N_7  and  C_23
    2  A    between atoms: C_12  and  C_16
                            x       y       z     vdW  Elec       q    Type
                         _______ _______ _______ _____ _____    ______ ____

>  <TORSDO>
F 2

$$$$
=
 OpenBabel11072409403D

 25 29  0  0  1  0  0  0  0  0999 V2000
  191.1870  173.7840  143.7940 C   0  0  0  0  0  2  0  0  0  0  0  0
  188.9250  176.0120  143.7410 C   0  0  0  0  0  0  0  0  0  0  0  0
  186.6330  176.7730  142.8180 C   0  0  0  0  0  0  0  0  0  0  0  0
  185.3980  177.5380  143.2070 C   0  0  0  0  0  2  0  0  0  0  0  0
  189.5760  176.3220  144.9240 C   0  0  1  0  0  3  0  0  0  0  0  0
  185.7280  178.6900  144.1800 C   0  0  0  0  0  2  0  0  0  0  0  0
  186.5640  178.2430  145.3990 C   0  0  2  0  0  3  0  0  0  0  0  0
  188.8380  177.1610  145.6870 N   0  0  0  0  0  0  0  0  0  0  0  0
  191.1720  174.2670  145.2420 C   0  0  0  0  0  2  0  0  0  0  0  0
  189.4200  175.1160  142.6500 C   0  0  0  0  0  2  0  0  0  0  0  0
  191.9730  176.5370  144.8670 O   0  0  0  0  0  0  0  0  0  0  0  0
  187.7220  177.3920  144.9660 C   0  0  0  0  0  0  0  0  0  0  0  0
  190.8990  175.7630  145.3380 C   0  0  1  0  0  0  0  0  0  0  0  0
  186.6850  176.1640  141.7160 O   0  0  0  0  0  0  0  0  0  0  0  0
  189.7750  173.7320  143.1980 C   0  0  1  0  0  3  0  0  0  0  0  0
  187.7370  176.7020  143.7800 C   0  0  0  0  0  0  0  0  0  0  0  0
  191.7390  176.5530  146.2600 C   0  0  0  0  0  2  0  0  0  0  0  0
  190.6780  173.0610  141.1580 N   0  0  0  0  0  2  0  0  0  0  0  0
  189.7090  172.7310  142.1260 N   0  0  1  0  0  0  0  0  0  0  0  0
  190.1190  171.4410  142.6720 C   0  0  0  0  0  2  0  0  0  0  0  0
  190.8930  170.7360  141.5930 C   0  0  0  0  0  2  0  0  0  0  0  0
  191.1210  171.8080  140.5660 C   0  0  0  0  0  2  0  0  0  0  0  0
  184.3710  177.8500  146.5180 O   0  0  0  0  0  0  0  0  0  0  0  0
  186.2160  176.6530  147.1630 O   0  0  0  0  0  1  0  0  0  0  0  0
  185.7190  177.5370  146.4130 C   0  0  0  0  0  0  0  0  0  0  0  0
  1  9  1  0  0  0  0
  2 16  2  0  0  0  0
  3  4  1  0  0  0  0
  3 16  1  0  0  0  0
  4  6  1  0  0  0  0
  5  2  1  1  0  0  0
  5 13  1  0  0  0  0
  5  8  1  0  0  0  0
  6  7  1  0  0  0  0
  7 25  1  1  0  0  0
 10  2  1  0  0  0  0
 11 13  1  0  0  0  0
 11 17  1  0  0  0  0
 12  7  1  0  0  0  0
 12  8  2  0  0  0  0
 13  9  1  1  0  0  0
 13 17  1  0  0  0  0
 14  3  2  0  0  0  0
 15 10  1  6  0  0  0
 15  1  1  0  0  0  0
 16 12  1  0  0  0  0
 18 19  1  0  0  0  0
 19 20  1  1  0  0  0
 19 15  1  0  0  0  0
 21 20  1  0  0  0  0
 22 18  1  0  0  0  0
 22 21  1  0  0  0  0
 25 23  2  0  0  0  0
 25 24  1  0  0  0  0
M  END
>  <MODEL>
9

>  <REMARK>
 VINA RESULT:      -6.4      2.618      5.832
  Name = 
  2 active torsions:
  status: ('A' for Active; 'I' for Inactive)
    1  A    between atoms: N_7  and  C_23
    2  A    between atoms: C_12  and  C_16
                            x       y       z     vdW  Elec       q    Type
                         _______ _______ _______ _____ _____    ______ ____

>  <TORSDO>
F 2

$$$$
