=
 OpenBabel11062419513D

 30 34  0  0  1  0  0  0  0  0999 V2000
  186.0250  177.3190  144.8200 C   0  0  0  0  0  0  0  0  0  0  0  0
  187.2040  176.6700  146.7790 C   0  0  0  0  0  3  0  0  0  0  0  0
  186.0280  177.1040  146.1840 C   0  0  0  0  0  0  0  0  0  0  0  0
  183.1810  178.3450  140.9910 C   0  0  0  0  0  3  0  0  0  0  0  0
  185.5980  178.1400  140.6250 C   0  0  0  0  0  3  0  0  0  0  0  0
  189.5570  177.2950  142.6030 C   0  0  0  0  0  3  0  0  0  0  0  0
  184.2870  178.3460  140.1360 C   0  0  0  0  0  3  0  0  0  0  0  0
  183.3820  178.1600  142.3470 C   0  0  0  0  0  3  0  0  0  0  0  0
  188.3900  176.8360  144.6480 C   0  0  0  0  0  0  0  0  0  0  0  0
  188.3570  176.5740  146.0360 C   0  0  0  0  0  3  0  0  0  0  0  0
  188.3680  177.6590  141.9740 C   0  0  0  0  0  3  0  0  0  0  0  0
  184.7920  177.7450  144.2040 O   0  0  0  0  0  0  0  0  0  0  0  0
  189.5970  176.7880  143.9290 C   0  0  0  0  0  0  0  0  0  0  0  0
  187.1330  177.5720  142.6480 C   0  0  0  0  0  0  0  0  0  0  0  0
  187.1530  177.1910  144.0190 C   0  0  0  0  0  0  0  0  0  0  0  0
  185.7770  177.9260  142.0210 C   0  0  0  0  0  0  0  0  0  0  0  0
  184.6710  177.9500  142.8560 C   0  0  0  0  0  0  0  0  0  0  0  0
  184.8830  177.4000  146.9190 O   0  0  0  0  0  0  0  0  0  0  0  0
  184.7710  178.5900  147.6150 O   0  0  0  0  0  1  0  0  0  0  0  0
  191.7910  177.6240  144.3820 O   0  0  0  0  0  1  0  0  0  0  0  0
  190.9230  176.6170  144.4560 C   0  0  2  0  0  3  0  0  0  0  0  0
  191.5180  175.3730  145.0750 C   0  0  0  0  0  0  0  0  0  0  0  0
  190.8340  174.1110  144.7160 C   0  0  0  0  0  2  0  0  0  0  0  0
  192.1490  174.3500  144.0710 C   0  0  0  0  0  2  0  0  0  0  0  0
  191.5830  175.3120  147.5850 C   0  0  0  0  0  1  0  0  0  0  0  0
  192.4300  175.2460  146.3400 C   0  0  2  0  0  3  0  0  0  0  0  0
  193.4790  176.3160  146.4560 N   0  0  0  0  0  2  0  0  0  0  0  0
  194.8910  176.1080  145.9570 C   0  0  0  0  0  3  0  0  0  0  0  0
  195.1870  174.6100  146.0430 C   0  0  0  0  0  1  0  0  0  0  0  0
  195.1070  176.5720  144.5200 C   0  0  0  0  0  1  0  0  0  0  0  0
  1  3  1  0  0  0  0
  3  2  2  0  0  0  0
  3 18  1  0  0  0  0
  4  8  1  0  0  0  0
  5 16  2  0  0  0  0
  6 13  2  0  0  0  0
  7  5  1  0  0  0  0
  7  4  2  0  0  0  0
  8 17  2  0  0  0  0
  9 10  2  0  0  0  0
 10  2  1  0  0  0  0
 11  6  1  0  0  0  0
 11 14  2  0  0  0  0
 12  1  1  0  0  0  0
 13 21  1  0  0  0  0
 13  9  1  0  0  0  0
 14 15  1  0  0  0  0
 15  9  1  0  0  0  0
 15  1  2  0  0  0  0
 16 14  1  0  0  0  0
 16 17  1  0  0  0  0
 17 12  1  0  0  0  0
 18 19  1  0  0  0  0
 21 20  1  6  0  0  0
 21 22  1  0  0  0  0
 22 26  1  0  0  0  0
 23 22  1  0  0  0  0
 24 23  1  0  0  0  0
 24 22  1  0  0  0  0
 26 27  1  0  0  0  0
 26 25  1  1  0  0  0
 28 29  1  0  0  0  0
 28 27  1  0  0  0  0
 30 28  1  0  0  0  0
M  END
>  <MODEL>
1

>  <REMARK>
 VINA RESULT:      -8.0      0.000      0.000
  Name = 
  6 active torsions:
  status: ('A' for Active; 'I' for Inactive)
    1  A    between atoms: C_3  and  C_15
    2  A    between atoms: C_3  and  C_29
    3  A    between atoms: C_5  and  O_11
    4  A    between atoms: C_9  and  N_24
    5  A    between atoms: C_15  and  N_24
    6  A    between atoms: C_22  and  C_29
                            x       y       z     vdW  Elec       q    Type
                         _______ _______ _______ _____ _____    ______ ____

>  <TORSDO>
F 6

$$$$
=
 OpenBabel11062419513D

 30 34  0  0  1  0  0  0  0  0999 V2000
  186.1430  177.4600  144.8740 C   0  0  0  0  0  0  0  0  0  0  0  0
  187.3060  176.8940  146.8670 C   0  0  0  0  0  3  0  0  0  0  0  0
  186.1230  177.2540  146.2390 C   0  0  0  0  0  0  0  0  0  0  0  0
  183.3460  178.2910  140.9640 C   0  0  0  0  0  3  0  0  0  0  0  0
  185.7790  178.2270  140.6620 C   0  0  0  0  0  3  0  0  0  0  0  0
  189.7270  177.6310  142.7490 C   0  0  0  0  0  3  0  0  0  0  0  0
  184.4710  178.3510  140.1380 C   0  0  0  0  0  3  0  0  0  0  0  0
  183.5210  178.1260  142.3270 C   0  0  0  0  0  3  0  0  0  0  0  0
  188.5370  177.1170  144.7670 C   0  0  0  0  0  0  0  0  0  0  0  0
  188.4820  176.8620  146.1550 C   0  0  0  0  0  3  0  0  0  0  0  0
  188.5360  177.9190  142.0860 C   0  0  0  0  0  3  0  0  0  0  0  0
  184.9040  177.8080  144.2220 O   0  0  0  0  0  0  0  0  0  0  0  0
  189.7620  177.1360  144.0800 C   0  0  0  0  0  0  0  0  0  0  0  0
  187.2910  177.7640  142.7300 C   0  0  0  0  0  0  0  0  0  0  0  0
  187.2970  177.3940  144.1030 C   0  0  0  0  0  0  0  0  0  0  0  0
  185.9330  178.0330  142.0650 C   0  0  0  0  0  0  0  0  0  0  0  0
  184.8070  177.9970  142.8700 C   0  0  0  0  0  0  0  0  0  0  0  0
  184.9430  177.4870  146.9420 O   0  0  0  0  0  0  0  0  0  0  0  0
  184.7500  178.6660  147.6380 O   0  0  0  0  0  1  0  0  0  0  0  0
  191.9010  178.0920  144.5560 O   0  0  0  0  0  1  0  0  0  0  0  0
  191.0820  177.0470  144.6430 C   0  0  2  0  0  3  0  0  0  0  0  0
  191.7220  175.8530  145.3150 C   0  0  0  0  0  0  0  0  0  0  0  0
  192.9600  176.1530  146.0680 C   0  0  0  0  0  2  0  0  0  0  0  0
  191.7470  175.8890  146.8800 C   0  0  0  0  0  2  0  0  0  0  0  0
  192.4410  173.9530  143.8410 C   0  0  0  0  0  1  0  0  0  0  0  0
  191.5450  174.3340  144.9910 C   0  0  2  0  0  3  0  0  0  0  0  0
  190.1450  173.9390  144.6170 N   0  0  0  0  0  2  0  0  0  0  0  0
  189.8180  173.3400  143.2680 C   0  0  0  0  0  3  0  0  0  0  0  0
  189.3160  171.9160  143.5130 C   0  0  0  0  0  1  0  0  0  0  0  0
  188.7520  174.1120  142.4960 C   0  0  0  0  0  1  0  0  0  0  0  0
  1  3  1  0  0  0  0
  3  2  2  0  0  0  0
  3 18  1  0  0  0  0
  4  8  1  0  0  0  0
  5 16  2  0  0  0  0
  6 13  2  0  0  0  0
  7  5  1  0  0  0  0
  7  4  2  0  0  0  0
  8 17  2  0  0  0  0
  9 10  2  0  0  0  0
 10  2  1  0  0  0  0
 11 14  2  0  0  0  0
 11  6  1  0  0  0  0
 12  1  1  0  0  0  0
 13 21  1  0  0  0  0
 13  9  1  0  0  0  0
 14 15  1  0  0  0  0
 15  9  1  0  0  0  0
 15  1  2  0  0  0  0
 16 14  1  0  0  0  0
 16 17  1  0  0  0  0
 17 12  1  0  0  0  0
 18 19  1  0  0  0  0
 21 20  1  6  0  0  0
 21 22  1  0  0  0  0
 22 23  1  0  0  0  0
 22 24  1  0  0  0  0
 23 24  1  0  0  0  0
 26 25  1  6  0  0  0
 26 22  1  0  0  0  0
 27 26  1  0  0  0  0
 28 29  1  0  0  0  0
 28 27  1  0  0  0  0
 30 28  1  0  0  0  0
M  END
>  <MODEL>
2

>  <REMARK>
 VINA RESULT:      -8.0      1.247      2.598
  Name = 
  6 active torsions:
  status: ('A' for Active; 'I' for Inactive)
    1  A    between atoms: C_3  and  C_15
    2  A    between atoms: C_3  and  C_29
    3  A    between atoms: C_5  and  O_11
    4  A    between atoms: C_9  and  N_24
    5  A    between atoms: C_15  and  N_24
    6  A    between atoms: C_22  and  C_29
                            x       y       z     vdW  Elec       q    Type
                         _______ _______ _______ _____ _____    ______ ____

>  <TORSDO>
F 6

$$$$
=
 OpenBabel11062419513D

 30 34  0  0  1  0  0  0  0  0999 V2000
  187.6820  177.9320  143.4730 C   0  0  0  0  0  0  0  0  0  0  0  0
  189.4420  177.8180  141.8800 C   0  0  0  0  0  3  0  0  0  0  0  0
  188.0930  177.9860  142.1550 C   0  0  0  0  0  0  0  0  0  0  0  0
  183.8780  178.6020  146.4530 C   0  0  0  0  0  3  0  0  0  0  0  0
  185.9860  177.8010  147.4180 C   0  0  0  0  0  3  0  0  0  0  0  0
  190.2550  176.6830  146.5070 C   0  0  0  0  0  3  0  0  0  0  0  0
  184.6430  178.2210  147.5590 C   0  0  0  0  0  3  0  0  0  0  0  0
  184.4460  178.5470  145.1920 C   0  0  0  0  0  3  0  0  0  0  0  0
  189.9110  177.3820  144.2390 C   0  0  0  0  0  0  0  0  0  0  0  0
  190.3160  177.4910  142.8900 C   0  0  0  0  0  3  0  0  0  0  0  0
  188.9170  176.9240  146.8140 C   0  0  0  0  0  3  0  0  0  0  0  0
  186.2820  178.1330  143.7550 O   0  0  0  0  0  0  0  0  0  0  0  0
  190.8160  176.9880  145.2380 C   0  0  0  0  0  0  0  0  0  0  0  0
  188.0350  177.4560  145.8510 C   0  0  0  0  0  0  0  0  0  0  0  0
  188.5340  177.6510  144.5330 C   0  0  0  0  0  0  0  0  0  0  0  0
  186.5570  177.7760  146.1130 C   0  0  0  0  0  0  0  0  0  0  0  0
  185.7760  178.1370  145.0270 C   0  0  0  0  0  0  0  0  0  0  0  0
  187.1370  178.1290  141.1530 O   0  0  0  0  0  0  0  0  0  0  0  0
  186.8240  177.0780  140.3110 O   0  0  0  0  0  1  0  0  0  0  0  0
  193.1620  177.4090  145.0470 O   0  0  0  0  0  1  0  0  0  0  0  0
  192.1660  176.5260  145.0640 C   0  0  2  0  0  3  0  0  0  0  0  0
  192.6350  175.1070  144.8380 C   0  0  0  0  0  0  0  0  0  0  0  0
  194.0490  174.8550  145.1960 C   0  0  0  0  0  2  0  0  0  0  0  0
  193.0310  174.3100  146.1260 C   0  0  0  0  0  2  0  0  0  0  0  0
  192.3450  174.3280  142.4690 C   0  0  0  0  0  1  0  0  0  0  0  0
  192.0260  174.0080  143.9070 C   0  0  2  0  0  3  0  0  0  0  0  0
  190.5340  173.8660  144.0120 N   0  0  0  0  0  2  0  0  0  0  0  0
  189.6920  173.4030  142.8440 C   0  0  0  0  0  3  0  0  0  0  0  0
  189.1990  171.9920  143.1700 C   0  0  0  0  0  1  0  0  0  0  0  0
  188.4860  174.2950  142.5670 C   0  0  0  0  0  1  0  0  0  0  0  0
  1 12  1  0  0  0  0
  1 15  1  0  0  0  0
  2  3  1  0  0  0  0
  2 10  2  0  0  0  0
  3  1  2  0  0  0  0
  4  7  1  0  0  0  0
  5  7  2  0  0  0  0
  6 11  1  0  0  0  0
  8  4  2  0  0  0  0
  9 15  2  0  0  0  0
  9 13  1  0  0  0  0
 10  9  1  0  0  0  0
 12 17  1  0  0  0  0
 13  6  2  0  0  0  0
 14 16  1  0  0  0  0
 14 11  2  0  0  0  0
 15 14  1  0  0  0  0
 16  5  1  0  0  0  0
 17  8  1  0  0  0  0
 17 16  2  0  0  0  0
 18  3  1  0  0  0  0
 19 18  1  0  0  0  0
 21 20  1  6  0  0  0
 21 13  1  0  0  0  0
 22 21  1  0  0  0  0
 22 23  1  0  0  0  0
 22 24  1  0  0  0  0
 23 24  1  0  0  0  0
 26 25  1  6  0  0  0
 26 27  1  0  0  0  0
 26 22  1  0  0  0  0
 28 29  1  0  0  0  0
 28 27  1  0  0  0  0
 30 28  1  0  0  0  0
M  END
>  <MODEL>
3

>  <REMARK>
 VINA RESULT:      -7.9      2.247      4.556
  Name = 
  6 active torsions:
  status: ('A' for Active; 'I' for Inactive)
    1  A    between atoms: C_3  and  C_15
    2  A    between atoms: C_3  and  C_29
    3  A    between atoms: C_5  and  O_11
    4  A    between atoms: C_9  and  N_24
    5  A    between atoms: C_15  and  N_24
    6  A    between atoms: C_22  and  C_29
                            x       y       z     vdW  Elec       q    Type
                         _______ _______ _______ _____ _____    ______ ____

>  <TORSDO>
F 6

$$$$
=
 OpenBabel11062419513D

 30 34  0  0  1  0  0  0  0  0999 V2000
  187.5220  176.5020  143.3030 C   0  0  0  0  0  0  0  0  0  0  0  0
  188.5400  175.3030  141.5210 C   0  0  0  0  0  3  0  0  0  0  0  0
  187.5720  176.1970  141.9570 C   0  0  0  0  0  0  0  0  0  0  0  0
  185.4270  179.4040  146.6190 C   0  0  0  0  0  3  0  0  0  0  0  0
  187.0020  177.6930  147.3980 C   0  0  0  0  0  3  0  0  0  0  0  0
  189.7560  174.3700  146.1050 C   0  0  0  0  0  3  0  0  0  0  0  0
  186.1350  178.7810  147.6500 C   0  0  0  0  0  3  0  0  0  0  0  0
  185.5650  178.9280  145.3270 C   0  0  0  0  0  3  0  0  0  0  0  0
  189.2770  174.9180  143.8190 C   0  0  0  0  0  0  0  0  0  0  0  0
  189.3430  174.6580  142.4320 C   0  0  0  0  0  3  0  0  0  0  0  0
  188.8430  175.3210  146.5540 C   0  0  0  0  0  3  0  0  0  0  0  0
  186.5320  177.4520  143.7460 O   0  0  0  0  0  0  0  0  0  0  0  0
  190.0690  174.1980  144.7300 C   0  0  0  0  0  0  0  0  0  0  0  0
  188.1490  176.1470  145.6460 C   0  0  0  0  0  0  0  0  0  0  0  0
  188.3430  175.9130  144.2560 C   0  0  0  0  0  0  0  0  0  0  0  0
  187.1480  177.2360  146.0570 C   0  0  0  0  0  0  0  0  0  0  0  0
  186.4220  177.8530  145.0510 C   0  0  0  0  0  0  0  0  0  0  0  0
  186.6110  176.7330  141.1050 O   0  0  0  0  0  0  0  0  0  0  0  0
  186.8290  177.9320  140.4490 O   0  0  0  0  0  1  0  0  0  0  0  0
  190.4070  171.8390  144.5320 O   0  0  0  0  0  1  0  0  0  0  0  0
  190.9130  173.0680  144.4530 C   0  0  2  0  0  3  0  0  0  0  0  0
  192.3860  173.0760  144.1120 C   0  0  0  0  0  0  0  0  0  0  0  0
  192.7550  172.2670  142.9290 C   0  0  0  0  0  2  0  0  0  0  0  0
  192.7630  173.7390  142.7440 C   0  0  0  0  0  2  0  0  0  0  0  0
  194.1360  172.1660  145.6670 C   0  0  0  0  0  1  0  0  0  0  0  0
  193.6040  173.4250  145.0300 C   0  0  2  0  0  3  0  0  0  0  0  0
  193.2880  174.3880  146.1380 N   0  0  0  0  0  2  0  0  0  0  0  0
  193.6150  175.8600  146.0350 C   0  0  0  0  0  3  0  0  0  0  0  0
  195.0050  175.9740  145.4070 C   0  0  0  0  0  1  0  0  0  0  0  0
  192.6240  176.6500  145.1860 C   0  0  0  0  0  1  0  0  0  0  0  0
  1 12  1  0  0  0  0
  1 15  1  0  0  0  0
  2  3  1  0  0  0  0
  2 10  2  0  0  0  0
  3  1  2  0  0  0  0
  4  7  1  0  0  0  0
  5  7  2  0  0  0  0
  6 11  1  0  0  0  0
  8  4  2  0  0  0  0
  9 15  2  0  0  0  0
  9 13  1  0  0  0  0
 10  9  1  0  0  0  0
 12 17  1  0  0  0  0
 13  6  2  0  0  0  0
 14 16  1  0  0  0  0
 14 11  2  0  0  0  0
 15 14  1  0  0  0  0
 16  5  1  0  0  0  0
 17  8  1  0  0  0  0
 17 16  2  0  0  0  0
 18  3  1  0  0  0  0
 19 18  1  0  0  0  0
 21 20  1  1  0  0  0
 21 13  1  0  0  0  0
 22 21  1  0  0  0  0
 22 26  1  0  0  0  0
 23 22  1  0  0  0  0
 24 23  1  0  0  0  0
 24 22  1  0  0  0  0
 26 25  1  1  0  0  0
 26 27  1  0  0  0  0
 28 27  1  0  0  0  0
 29 28  1  0  0  0  0
 30 28  1  0  0  0  0
M  END
>  <MODEL>
4

>  <REMARK>
 VINA RESULT:      -7.7      2.495      4.253
  Name = 
  6 active torsions:
  status: ('A' for Active; 'I' for Inactive)
    1  A    between atoms: C_3  and  C_15
    2  A    between atoms: C_3  and  C_29
    3  A    between atoms: C_5  and  O_11
    4  A    between atoms: C_9  and  N_24
    5  A    between atoms: C_15  and  N_24
    6  A    between atoms: C_22  and  C_29
                            x       y       z     vdW  Elec       q    Type
                         _______ _______ _______ _____ _____    ______ ____

>  <TORSDO>
F 6

$$$$
=
 OpenBabel11062419513D

 30 34  0  0  1  0  0  0  0  0999 V2000
  191.0340  174.1460  143.5510 C   0  0  0  0  0  0  0  0  0  0  0  0
  189.0130  173.5740  142.4380 C   0  0  0  0  0  3  0  0  0  0  0  0
  190.2600  173.1960  142.9130 C   0  0  0  0  0  0  0  0  0  0  0  0
  195.1310  174.8340  146.1080 C   0  0  0  0  0  3  0  0  0  0  0  0
  193.7600  176.7920  145.5570 C   0  0  0  0  0  3  0  0  0  0  0  0
  189.9870  178.1820  143.5250 C   0  0  0  0  0  3  0  0  0  0  0  0
  194.8830  176.2070  146.1870 C   0  0  0  0  0  3  0  0  0  0  0  0
  194.2680  174.0360  145.3780 C   0  0  0  0  0  3  0  0  0  0  0  0
  189.4160  175.8900  143.1080 C   0  0  0  0  0  0  0  0  0  0  0  0
  188.6210  174.8900  142.5030 C   0  0  0  0  0  3  0  0  0  0  0  0
  191.2100  177.8060  144.0760 C   0  0  0  0  0  3  0  0  0  0  0  0
  192.3180  173.7390  144.0670 O   0  0  0  0  0  0  0  0  0  0  0  0
  189.0140  177.2360  143.1050 C   0  0  0  0  0  0  0  0  0  0  0  0
  191.5580  176.4470  144.2120 C   0  0  0  0  0  0  0  0  0  0  0  0
  190.6610  175.4770  143.6840 C   0  0  0  0  0  0  0  0  0  0  0  0
  192.8710  175.9470  144.8330 C   0  0  0  0  0  0  0  0  0  0  0  0
  193.1450  174.5920  144.7480 C   0  0  0  0  0  0  0  0  0  0  0  0
  190.7860  171.9230  142.7050 O   0  0  0  0  0  0  0  0  0  0  0  0
  190.0060  170.9080  142.1820 O   0  0  0  0  0  1  0  0  0  0  0  0
  188.0560  178.3360  141.2100 O   0  0  0  0  0  1  0  0  0  0  0  0
  187.8880  177.8120  142.4220 C   0  0  2  0  0  3  0  0  0  0  0  0
  186.4710  177.9550  142.9320 C   0  0  0  0  0  0  0  0  0  0  0  0
  185.4300  177.9670  141.8810 C   0  0  0  0  0  2  0  0  0  0  0  0
  185.5340  176.7250  142.6870 C   0  0  0  0  0  2  0  0  0  0  0  0
  185.6230  179.9780  144.1550 C   0  0  0  0  0  1  0  0  0  0  0  0
  185.9750  178.5190  144.3040 C   0  0  2  0  0  3  0  0  0  0  0  0
  186.9790  178.4140  145.4160 N   0  0  0  0  0  2  0  0  0  0  0  0
  186.8220  177.4170  146.5420 C   0  0  0  0  0  3  0  0  0  0  0  0
  185.4150  176.8270  146.4340 C   0  0  0  0  0  1  0  0  0  0  0  0
  187.8390  176.2800  146.5000 C   0  0  0  0  0  1  0  0  0  0  0  0
  1 15  1  0  0  0  0
  1 12  1  0  0  0  0
  2 10  2  0  0  0  0
  2  3  1  0  0  0  0
  3  1  2  0  0  0  0
  4  7  1  0  0  0  0
  5  7  2  0  0  0  0
  6 11  1  0  0  0  0
  8  4  2  0  0  0  0
  9 15  2  0  0  0  0
 10  9  1  0  0  0  0
 11 14  2  0  0  0  0
 12 17  1  0  0  0  0
 13  9  1  0  0  0  0
 13  6  2  0  0  0  0
 14 16  1  0  0  0  0
 15 14  1  0  0  0  0
 16  5  1  0  0  0  0
 17 16  2  0  0  0  0
 17  8  1  0  0  0  0
 18  3  1  0  0  0  0
 19 18  1  0  0  0  0
 21 20  1  1  0  0  0
 21 22  1  0  0  0  0
 21 13  1  0  0  0  0
 22 26  1  0  0  0  0
 23 24  1  0  0  0  0
 23 22  1  0  0  0  0
 24 22  1  0  0  0  0
 26 25  1  6  0  0  0
 26 27  1  0  0  0  0
 27 28  1  0  0  0  0
 29 28  1  0  0  0  0
 30 28  1  0  0  0  0
M  END
>  <MODEL>
5

>  <REMARK>
 VINA RESULT:      -7.5      2.764      7.650
  Name = 
  6 active torsions:
  status: ('A' for Active; 'I' for Inactive)
    1  A    between atoms: C_3  and  C_15
    2  A    between atoms: C_3  and  C_29
    3  A    between atoms: C_5  and  O_11
    4  A    between atoms: C_9  and  N_24
    5  A    between atoms: C_15  and  N_24
    6  A    between atoms: C_22  and  C_29
                            x       y       z     vdW  Elec       q    Type
                         _______ _______ _______ _____ _____    ______ ____

>  <TORSDO>
F 6

$$$$
=
 OpenBabel11062419513D

 30 34  0  0  1  0  0  0  0  0999 V2000
  188.4580  175.4210  142.1420 C   0  0  0  0  0  0  0  0  0  0  0  0
  190.2070  173.9840  141.4160 C   0  0  0  0  0  3  0  0  0  0  0  0
  188.8520  174.2760  141.4780 C   0  0  0  0  0  0  0  0  0  0  0  0
  184.6470  178.3030  143.1250 C   0  0  0  0  0  3  0  0  0  0  0  0
  186.8130  178.8530  144.1340 C   0  0  0  0  0  3  0  0  0  0  0  0
  191.1390  177.6330  144.4460 C   0  0  0  0  0  3  0  0  0  0  0  0
  185.4460  179.1380  143.9100 C   0  0  0  0  0  3  0  0  0  0  0  0
  185.2040  177.1630  142.5740 C   0  0  0  0  0  3  0  0  0  0  0  0
  190.7270  175.9090  142.8300 C   0  0  0  0  0  0  0  0  0  0  0  0
  191.1110  174.7600  142.1020 C   0  0  0  0  0  3  0  0  0  0  0  0
  189.7910  177.9850  144.4560 C   0  0  0  0  0  3  0  0  0  0  0  0
  187.0510  175.7330  142.1790 O   0  0  0  0  0  0  0  0  0  0  0  0
  191.6660  176.6460  143.5700 C   0  0  0  0  0  0  0  0  0  0  0  0
  188.8660  177.3420  143.6080 C   0  0  0  0  0  0  0  0  0  0  0  0
  189.3380  176.2620  142.8110 C   0  0  0  0  0  0  0  0  0  0  0  0
  187.3720  177.6880  143.5360 C   0  0  0  0  0  0  0  0  0  0  0  0
  186.5580  176.8610  142.7780 C   0  0  0  0  0  0  0  0  0  0  0  0
  187.8790  173.4230  140.9630 O   0  0  0  0  0  0  0  0  0  0  0  0
  188.0900  172.7310  139.7840 O   0  0  0  0  0  1  0  0  0  0  0  0
  193.9340  176.4510  142.8360 O   0  0  0  0  0  1  0  0  0  0  0  0
  193.0420  176.3130  143.8160 C   0  0  2  0  0  3  0  0  0  0  0  0
  193.6460  175.7550  145.0850 C   0  0  0  0  0  0  0  0  0  0  0  0
  195.1170  175.8810  145.1820 C   0  0  0  0  0  2  0  0  0  0  0  0
  194.3230  176.8010  146.0320 C   0  0  0  0  0  2  0  0  0  0  0  0
  193.5750  173.3330  145.7440 C   0  0  0  0  0  1  0  0  0  0  0  0
  193.0460  174.7050  146.0770 C   0  0  2  0  0  3  0  0  0  0  0  0
  191.5470  174.6220  146.0580 N   0  0  0  0  0  2  0  0  0  0  0  0
  190.7120  174.9830  147.2660 C   0  0  0  0  0  3  0  0  0  0  0  0
  191.2740  176.2880  147.8340 C   0  0  0  0  0  1  0  0  0  0  0  0
  189.2320  175.1780  146.9530 C   0  0  0  0  0  1  0  0  0  0  0  0
  1 12  1  0  0  0  0
  1 15  1  0  0  0  0
  2  3  1  0  0  0  0
  2 10  2  0  0  0  0
  3  1  2  0  0  0  0
  4  7  1  0  0  0  0
  6 11  1  0  0  0  0
  7  5  2  0  0  0  0
  8 17  1  0  0  0  0
  8  4  2  0  0  0  0
  9 13  1  0  0  0  0
 10  9  1  0  0  0  0
 12 17  1  0  0  0  0
 13 21  1  0  0  0  0
 13  6  2  0  0  0  0
 14 11  2  0  0  0  0
 15  9  2  0  0  0  0
 15 14  1  0  0  0  0
 16 14  1  0  0  0  0
 16  5  1  0  0  0  0
 17 16  2  0  0  0  0
 18  3  1  0  0  0  0
 19 18  1  0  0  0  0
 21 20  1  6  0  0  0
 21 22  1  0  0  0  0
 22 23  1  0  0  0  0
 22 24  1  0  0  0  0
 22 26  1  0  0  0  0
 23 24  1  0  0  0  0
 26 25  1  6  0  0  0
 27 26  1  0  0  0  0
 27 28  1  0  0  0  0
 28 29  1  0  0  0  0
 30 28  1  0  0  0  0
M  END
>  <MODEL>
6

>  <REMARK>
 VINA RESULT:      -7.5      2.529      4.298
  Name = 
  6 active torsions:
  status: ('A' for Active; 'I' for Inactive)
    1  A    between atoms: C_3  and  C_15
    2  A    between atoms: C_3  and  C_29
    3  A    between atoms: C_5  and  O_11
    4  A    between atoms: C_9  and  N_24
    5  A    between atoms: C_15  and  N_24
    6  A    between atoms: C_22  and  C_29
                            x       y       z     vdW  Elec       q    Type
                         _______ _______ _______ _____ _____    ______ ____

>  <TORSDO>
F 6

$$$$
=
 OpenBabel11062419513D

 30 34  0  0  1  0  0  0  0  0999 V2000
  187.5300  176.5880  143.3240 C   0  0  0  0  0  0  0  0  0  0  0  0
  189.1680  175.8130  141.7860 C   0  0  0  0  0  3  0  0  0  0  0  0
  187.9020  176.3280  142.0190 C   0  0  0  0  0  0  0  0  0  0  0  0
  184.0730  178.5930  146.1210 C   0  0  0  0  0  3  0  0  0  0  0  0
  185.9730  177.5010  147.2220 C   0  0  0  0  0  3  0  0  0  0  0  0
  189.8460  175.3010  146.5440 C   0  0  0  0  0  3  0  0  0  0  0  0
  184.7650  178.2350  147.2810 C   0  0  0  0  0  3  0  0  0  0  0  0
  184.5730  178.2020  144.8920 C   0  0  0  0  0  3  0  0  0  0  0  0
  189.5990  175.6760  144.1880 C   0  0  0  0  0  0  0  0  0  0  0  0
  189.9760  175.4660  142.8430 C   0  0  0  0  0  3  0  0  0  0  0  0
  188.6070  175.8880  146.7960 C   0  0  0  0  0  3  0  0  0  0  0  0
  186.2220  177.1480  143.5580 O   0  0  0  0  0  0  0  0  0  0  0  0
  190.4220  175.2550  145.2460 C   0  0  0  0  0  0  0  0  0  0  0  0
  187.8400  176.4420  145.7510 C   0  0  0  0  0  0  0  0  0  0  0  0
  188.3290  176.2980  144.4220 C   0  0  0  0  0  0  0  0  0  0  0  0
  186.4820  177.1310  145.9440 C   0  0  0  0  0  0  0  0  0  0  0  0
  185.7710  177.4780  144.8070 C   0  0  0  0  0  0  0  0  0  0  0  0
  186.9720  176.5200  141.0000 O   0  0  0  0  0  0  0  0  0  0  0  0
  186.9130  177.7140  140.3060 O   0  0  0  0  0  1  0  0  0  0  0  0
  191.5450  173.1460  145.1590 O   0  0  0  0  0  1  0  0  0  0  0  0
  191.6250  174.4750  145.1620 C   0  0  2  0  0  3  0  0  0  0  0  0
  193.0510  174.9760  145.1190 C   0  0  0  0  0  0  0  0  0  0  0  0
  193.2040  176.4340  145.3210 C   0  0  0  0  0  2  0  0  0  0  0  0
  193.6020  175.5700  146.4590 C   0  0  0  0  0  2  0  0  0  0  0  0
  194.0650  174.0630  143.0110 C   0  0  0  0  0  1  0  0  0  0  0  0
  194.3090  174.3030  144.4790 C   0  0  2  0  0  3  0  0  0  0  0  0
  194.6840  172.9830  145.0910 N   0  0  0  0  0  2  0  0  0  0  0  0
  196.1250  172.5510  145.2390 C   0  0  0  0  0  3  0  0  0  0  0  0
  196.8310  173.6080  146.0900 C   0  0  0  0  0  1  0  0  0  0  0  0
  196.2920  171.1890  145.9040 C   0  0  0  0  0  1  0  0  0  0  0  0
  1 12  1  0  0  0  0
  1 15  1  0  0  0  0
  2  3  1  0  0  0  0
  2 10  2  0  0  0  0
  3  1  2  0  0  0  0
  4  7  1  0  0  0  0
  5  7  2  0  0  0  0
  6 11  1  0  0  0  0
  8  4  2  0  0  0  0
  9 15  2  0  0  0  0
  9 13  1  0  0  0  0
 10  9  1  0  0  0  0
 12 17  1  0  0  0  0
 13  6  2  0  0  0  0
 14 16  1  0  0  0  0
 14 11  2  0  0  0  0
 15 14  1  0  0  0  0
 16  5  1  0  0  0  0
 17  8  1  0  0  0  0
 17 16  2  0  0  0  0
 18  3  1  0  0  0  0
 19 18  1  0  0  0  0
 21 20  1  1  0  0  0
 21 13  1  0  0  0  0
 22 21  1  0  0  0  0
 22 23  1  0  0  0  0
 22 24  1  0  0  0  0
 23 24  1  0  0  0  0
 26 25  1  6  0  0  0
 26 27  1  0  0  0  0
 26 22  1  0  0  0  0
 27 28  1  0  0  0  0
 28 30  1  0  0  0  0
 28 29  1  0  0  0  0
M  END
>  <MODEL>
7

>  <REMARK>
 VINA RESULT:      -7.4      2.391      4.253
  Name = 
  6 active torsions:
  status: ('A' for Active; 'I' for Inactive)
    1  A    between atoms: C_3  and  C_15
    2  A    between atoms: C_3  and  C_29
    3  A    between atoms: C_5  and  O_11
    4  A    between atoms: C_9  and  N_24
    5  A    between atoms: C_15  and  N_24
    6  A    between atoms: C_22  and  C_29
                            x       y       z     vdW  Elec       q    Type
                         _______ _______ _______ _____ _____    ______ ____

>  <TORSDO>
F 6

$$$$
=
 OpenBabel11062419513D

 30 34  0  0  1  0  0  0  0  0999 V2000
  188.5770  177.8080  143.8140 C   0  0  0  0  0  0  0  0  0  0  0  0
  190.5040  177.5870  142.4400 C   0  0  0  0  0  3  0  0  0  0  0  0
  189.1460  177.8450  142.5560 C   0  0  0  0  0  0  0  0  0  0  0  0
  184.4980  178.7140  146.3310 C   0  0  0  0  0  3  0  0  0  0  0  0
  186.4160  177.7590  147.5260 C   0  0  0  0  0  3  0  0  0  0  0  0
  190.6770  176.3570  147.1110 C   0  0  0  0  0  3  0  0  0  0  0  0
  185.0960  178.2700  147.5130 C   0  0  0  0  0  3  0  0  0  0  0  0
  185.2070  178.6300  145.1460 C   0  0  0  0  0  3  0  0  0  0  0  0
  190.6560  177.0980  144.8300 C   0  0  0  0  0  0  0  0  0  0  0  0
  191.2260  177.1910  143.5410 C   0  0  0  0  0  3  0  0  0  0  0  0
  189.3310  176.6870  147.2600 C   0  0  0  0  0  3  0  0  0  0  0  0
  187.1700  178.1030  143.9300 O   0  0  0  0  0  0  0  0  0  0  0  0
  191.4060  176.6330  145.9230 C   0  0  0  0  0  0  0  0  0  0  0  0
  188.6100  177.2870  146.2080 C   0  0  0  0  0  0  0  0  0  0  0  0
  189.2750  177.4590  144.9630 C   0  0  0  0  0  0  0  0  0  0  0  0
  187.1350  177.7060  146.2980 C   0  0  0  0  0  0  0  0  0  0  0  0
  186.5170  178.1310  145.1340 C   0  0  0  0  0  0  0  0  0  0  0  0
  188.3290  178.0630  141.4490 O   0  0  0  0  0  0  0  0  0  0  0  0
  187.6170  177.0260  140.8730 O   0  0  0  0  0  1  0  0  0  0  0  0
  193.7060  176.6910  146.5750 O   0  0  0  0  0  1  0  0  0  0  0  0
  192.7320  176.0810  145.9030 C   0  0  2  0  0  3  0  0  0  0  0  0
  193.2150  174.8640  145.1460 C   0  0  0  0  0  0  0  0  0  0  0  0
  193.2240  173.6080  145.9290 C   0  0  0  0  0  2  0  0  0  0  0  0
  192.1490  173.7410  144.9150 C   0  0  0  0  0  2  0  0  0  0  0  0
  195.4370  174.1940  144.1870 C   0  0  0  0  0  1  0  0  0  0  0  0
  194.0960  174.7970  143.8560 C   0  0  2  0  0  3  0  0  0  0  0  0
  194.3520  176.1290  143.2110 N   0  0  0  0  0  2  0  0  0  0  0  0
  194.4110  176.2910  141.7090 C   0  0  0  0  0  3  0  0  0  0  0  0
  195.8550  176.6390  141.3450 C   0  0  0  0  0  1  0  0  0  0  0  0
  193.9960  175.0410  140.9400 C   0  0  0  0  0  1  0  0  0  0  0  0
  1 12  1  0  0  0  0
  1 15  1  0  0  0  0
  2  3  1  0  0  0  0
  2 10  2  0  0  0  0
  3  1  2  0  0  0  0
  4  7  1  0  0  0  0
  6 11  1  0  0  0  0
  7  5  2  0  0  0  0
  8  4  2  0  0  0  0
  9 15  2  0  0  0  0
  9 13  1  0  0  0  0
 10  9  1  0  0  0  0
 12 17  1  0  0  0  0
 13  6  2  0  0  0  0
 14 16  1  0  0  0  0
 14 11  2  0  0  0  0
 15 14  1  0  0  0  0
 16  5  1  0  0  0  0
 17  8  1  0  0  0  0
 17 16  2  0  0  0  0
 18  3  1  0  0  0  0
 19 18  1  0  0  0  0
 21 13  1  0  0  0  0
 21 20  1  6  0  0  0
 22 21  1  0  0  0  0
 22 23  1  0  0  0  0
 24 22  1  0  0  0  0
 24 23  1  0  0  0  0
 26 25  1  1  0  0  0
 26 22  1  0  0  0  0
 27 26  1  0  0  0  0
 28 27  1  0  0  0  0
 29 28  1  0  0  0  0
 30 28  1  0  0  0  0
M  END
>  <MODEL>
8

>  <REMARK>
 VINA RESULT:      -7.3      2.510      4.382
  Name = 
  6 active torsions:
  status: ('A' for Active; 'I' for Inactive)
    1  A    between atoms: C_3  and  C_15
    2  A    between atoms: C_3  and  C_29
    3  A    between atoms: C_5  and  O_11
    4  A    between atoms: C_9  and  N_24
    5  A    between atoms: C_15  and  N_24
    6  A    between atoms: C_22  and  C_29
                            x       y       z     vdW  Elec       q    Type
                         _______ _______ _______ _____ _____    ______ ____

>  <TORSDO>
F 6

$$$$
=
 OpenBabel11062419513D

 30 34  0  0  1  0  0  0  0  0999 V2000
  186.6470  176.9110  145.1010 C   0  0  0  0  0  0  0  0  0  0  0  0
  187.8190  176.0870  146.9970 C   0  0  0  0  0  3  0  0  0  0  0  0
  186.7450  176.7910  146.4730 C   0  0  0  0  0  0  0  0  0  0  0  0
  183.7740  178.4360  141.4650 C   0  0  0  0  0  3  0  0  0  0  0  0
  185.9900  177.5480  140.9030 C   0  0  0  0  0  3  0  0  0  0  0  0
  189.7710  175.7700  142.5870 C   0  0  0  0  0  3  0  0  0  0  0  0
  184.7350  178.0760  140.5180 C   0  0  0  0  0  3  0  0  0  0  0  0
  184.0670  178.2900  142.8090 C   0  0  0  0  0  3  0  0  0  0  0  0
  188.7610  175.7830  144.7620 C   0  0  0  0  0  0  0  0  0  0  0  0
  188.8140  175.6290  146.1650 C   0  0  0  0  0  3  0  0  0  0  0  0
  188.6610  176.4070  142.0360 C   0  0  0  0  0  3  0  0  0  0  0  0
  185.5130  177.6210  144.5610 O   0  0  0  0  0  0  0  0  0  0  0  0
  189.8220  175.3570  143.9450 C   0  0  0  0  0  0  0  0  0  0  0  0
  187.5320  176.7080  142.8240 C   0  0  0  0  0  0  0  0  0  0  0  0
  187.6020  176.4250  144.2170 C   0  0  0  0  0  0  0  0  0  0  0  0
  186.2590  177.3820  142.2920 C   0  0  0  0  0  0  0  0  0  0  0  0
  185.3010  177.7640  143.2160 C   0  0  0  0  0  0  0  0  0  0  0  0
  185.8100  177.4380  147.2780 O   0  0  0  0  0  0  0  0  0  0  0  0
  186.1560  178.5610  148.0070 O   0  0  0  0  0  1  0  0  0  0  0  0
  191.2340  173.5760  144.6870 O   0  0  0  0  0  1  0  0  0  0  0  0
  191.1040  174.8610  144.3640 C   0  0  2  0  0  3  0  0  0  0  0  0
  192.3850  175.6440  144.5450 C   0  0  0  0  0  0  0  0  0  0  0  0
  192.2040  177.0250  145.0430 C   0  0  0  0  0  2  0  0  0  0  0  0
  192.7350  176.0410  146.0180 C   0  0  0  0  0  2  0  0  0  0  0  0
  193.8310  176.0370  142.5300 C   0  0  0  0  0  1  0  0  0  0  0  0
  193.7850  175.3970  143.8940 C   0  0  2  0  0  3  0  0  0  0  0  0
  194.1400  173.9480  143.7200 N   0  0  0  0  0  2  0  0  0  0  0  0
  195.1570  173.2620  144.6040 C   0  0  0  0  0  3  0  0  0  0  0  0
  195.8770  174.3530  145.3990 C   0  0  0  0  0  1  0  0  0  0  0  0
  194.5450  172.2620  145.5800 C   0  0  0  0  0  1  0  0  0  0  0  0
  1  3  1  0  0  0  0
  3  2  2  0  0  0  0
  3 18  1  0  0  0  0
  4  8  1  0  0  0  0
  5 16  2  0  0  0  0
  6 13  2  0  0  0  0
  7  5  1  0  0  0  0
  7  4  2  0  0  0  0
  8 17  2  0  0  0  0
  9 10  2  0  0  0  0
 10  2  1  0  0  0  0
 11  6  1  0  0  0  0
 11 14  2  0  0  0  0
 12  1  1  0  0  0  0
 13 21  1  0  0  0  0
 13  9  1  0  0  0  0
 14 15  1  0  0  0  0
 15  9  1  0  0  0  0
 15  1  2  0  0  0  0
 16 14  1  0  0  0  0
 16 17  1  0  0  0  0
 17 12  1  0  0  0  0
 18 19  1  0  0  0  0
 21 22  1  0  0  0  0
 21 20  1  1  0  0  0
 22 23  1  0  0  0  0
 22 24  1  0  0  0  0
 23 24  1  0  0  0  0
 26 25  1  6  0  0  0
 26 22  1  0  0  0  0
 27 26  1  0  0  0  0
 27 28  1  0  0  0  0
 28 29  1  0  0  0  0
 28 30  1  0  0  0  0
M  END
>  <MODEL>
9

>  <REMARK>
 VINA RESULT:      -7.3      1.576      2.172
  Name = 
  6 active torsions:
  status: ('A' for Active; 'I' for Inactive)
    1  A    between atoms: C_3  and  C_15
    2  A    between atoms: C_3  and  C_29
    3  A    between atoms: C_5  and  O_11
    4  A    between atoms: C_9  and  N_24
    5  A    between atoms: C_15  and  N_24
    6  A    between atoms: C_22  and  C_29
                            x       y       z     vdW  Elec       q    Type
                         _______ _______ _______ _____ _____    ______ ____

>  <TORSDO>
F 6

$$$$
