=
 OpenBabel11062422083D

 27 30  0  0  1  0  0  0  0  0999 V2000
  188.0060  177.6740  144.8670 C   0  0  1  0  0  3  0  0  0  0  0  0
  187.5390  177.3040  146.2730 C   0  0  2  0  0  0  0  0  0  0  0  0
  188.5590  176.9620  147.1770 O   0  0  0  0  0  0  0  0  0  0  0  0
  188.2620  176.0030  146.1900 C   0  0  2  0  0  3  0  0  0  0  0  0
  188.8010  176.3830  144.8120 C   0  0  2  0  0  3  0  0  0  0  0  0
  183.6730  179.0960  143.9720 O   0  0  0  0  0  0  0  0  0  0  0  0
  185.4950  177.6610  141.1610 C   0  0  0  0  0  0  0  0  0  0  0  0
  186.0380  178.9200  143.9790 C   0  0  0  0  0  2  0  0  0  0  0  0
  187.4200  177.6290  142.5470 O   0  0  0  0  0  0  0  0  0  0  0  0
  184.7010  178.7830  143.3170 C   0  0  0  0  0  0  0  0  0  0  0  0
  186.5490  176.8230  141.8100 C   0  0  0  0  0  2  0  0  0  0  0  0
  184.5580  178.4170  141.9370 N   0  0  0  0  0  2  0  0  0  0  0  0
  186.8780  177.6620  143.8360 C   0  0  1  0  0  3  0  0  0  0  0  0
  185.3900  177.6480  139.9080 O   0  0  0  0  0  0  0  0  0  0  0  0
  192.5350  175.9080  145.4300 C   0  0  0  0  0  0  0  0  0  0  0  0
  192.2300  177.8420  143.9980 C   0  0  0  0  0  3  0  0  0  0  0  0
  193.0730  176.9700  144.6880 C   0  0  0  0  0  3  0  0  0  0  0  0
  190.2920  176.6220  144.8130 C   0  0  0  0  0  0  0  0  0  0  0  0
  190.8450  177.6640  144.0530 C   0  0  0  0  0  3  0  0  0  0  0  0
  191.1480  175.7340  145.4790 C   0  0  0  0  0  3  0  0  0  0  0  0
  193.4160  174.9500  146.1690 C   0  0  0  0  0  3  0  0  0  0  0  0
  193.3190  173.5530  145.5810 C   0  0  0  0  0  1  0  0  0  0  0  0
  194.8580  175.4180  146.1670 C   0  0  0  0  0  1  0  0  0  0  0  0
  186.1000  176.9870  146.6580 C   0  0  0  0  0  2  0  0  0  0  0  0
  185.4570  178.1840  147.2670 C   0  0  0  0  0  0  0  0  0  0  0  0
  184.2100  178.3330  147.1960 O   0  0  0  0  0  0  0  0  0  0  0  0
  186.2370  179.1510  147.8850 O   0  0  0  0  0  1  0  0  0  0  0  0
  1 13  1  6  0  0  0
  1  2  1  0  0  0  0
  2 24  1  1  0  0  0
  2  3  1  0  0  0  0
  4  2  1  0  0  0  0
  4  3  1  1  0  0  0
  5 18  1  1  0  0  0
  5  1  1  0  0  0  0
  5  4  1  0  0  0  0
  7 11  1  0  0  0  0
  7 12  1  0  0  0  0
  9 13  1  0  0  0  0
 10  6  2  0  0  0  0
 10  8  1  0  0  0  0
 11  9  1  0  0  0  0
 12 10  1  0  0  0  0
 13  8  1  6  0  0  0
 14  7  2  0  0  0  0
 15 20  1  0  0  0  0
 15 21  1  0  0  0  0
 16 19  2  0  0  0  0
 16 17  1  0  0  0  0
 17 15  2  0  0  0  0
 18 20  2  0  0  0  0
 19 18  1  0  0  0  0
 22 21  1  0  0  0  0
 23 21  1  0  0  0  0
 24 25  1  0  0  0  0
 25 27  1  0  0  0  0
 26 25  2  0  0  0  0
M  END
>  <MODEL>
1

>  <REMARK>
 VINA RESULT:      -7.7      0.000      0.000
  Name = 
  5 active torsions:
  status: ('A' for Active; 'I' for Inactive)
    1  A    between atoms: C_1  and  C_17
    2  A    between atoms: C_4  and  C_7
    3  A    between atoms: C_9  and  C_24
    4  A    between atoms: C_10  and  C_17
    5  A    between atoms: C_21  and  C_27
                            x       y       z     vdW  Elec       q    Type
                         _______ _______ _______ _____ _____    ______ ____

>  <TORSDO>
F 5

$$$$
=
 OpenBabel11062422083D

 27 30  0  0  1  0  0  0  0  0999 V2000
  188.3190  176.8450  144.2030 C   0  0  1  0  0  3  0  0  0  0  0  0
  189.0160  177.0860  142.8660 C   0  0  2  0  0  0  0  0  0  0  0  0
  190.3700  176.7150  142.8160 O   0  0  0  0  0  0  0  0  0  0  0  0
  190.0770  177.8850  143.5420 C   0  0  2  0  0  3  0  0  0  0  0  0
  189.4370  177.5970  144.9000 C   0  0  2  0  0  3  0  0  0  0  0  0
  184.3000  177.8450  142.0930 O   0  0  0  0  0  0  0  0  0  0  0  0
  184.5410  178.7950  145.6040 C   0  0  0  0  0  0  0  0  0  0  0  0
  185.9170  176.8820  143.5370 C   0  0  0  0  0  2  0  0  0  0  0  0
  186.6080  177.6350  145.6790 O   0  0  0  0  0  0  0  0  0  0  0  0
  184.7360  177.7650  143.2720 C   0  0  0  0  0  0  0  0  0  0  0  0
  186.0120  178.8870  145.8480 C   0  0  0  0  0  2  0  0  0  0  0  0
  184.0170  178.4280  144.3220 N   0  0  0  0  0  2  0  0  0  0  0  0
  186.9950  177.5970  144.3350 C   0  0  1  0  0  3  0  0  0  0  0  0
  183.7470  179.1130  146.5260 O   0  0  0  0  0  0  0  0  0  0  0  0
  192.4810  175.9890  146.5450 C   0  0  0  0  0  0  0  0  0  0  0  0
  190.4790  175.0870  147.5760 C   0  0  0  0  0  3  0  0  0  0  0  0
  191.8700  175.1440  147.4830 C   0  0  0  0  0  3  0  0  0  0  0  0
  190.2860  176.6980  145.7660 C   0  0  0  0  0  0  0  0  0  0  0  0
  189.6900  175.8670  146.7280 C   0  0  0  0  0  3  0  0  0  0  0  0
  191.6850  176.7690  145.6990 C   0  0  0  0  0  3  0  0  0  0  0  0
  193.9700  176.0790  146.4310 C   0  0  0  0  0  3  0  0  0  0  0  0
  194.5440  174.8390  145.7680 C   0  0  0  0  0  1  0  0  0  0  0  0
  194.3880  177.3200  145.6650 C   0  0  0  0  0  1  0  0  0  0  0  0
  188.4630  177.9470  141.7380 C   0  0  0  0  0  2  0  0  0  0  0  0
  187.6960  177.1050  140.7790 C   0  0  0  0  0  0  0  0  0  0  0  0
  186.8750  177.6380  139.9890 O   0  0  0  0  0  0  0  0  0  0  0  0
  187.8640  175.7270  140.7770 O   0  0  0  0  0  1  0  0  0  0  0  0
  1 13  1  6  0  0  0
  1  5  1  0  0  0  0
  2 24  1  6  0  0  0
  2  4  1  0  0  0  0
  2  1  1  0  0  0  0
  3  2  1  0  0  0  0
  4  3  1  1  0  0  0
  4  5  1  0  0  0  0
  5 18  1  1  0  0  0
  6 10  2  0  0  0  0
  7 11  1  0  0  0  0
  7 14  2  0  0  0  0
  9 11  1  0  0  0  0
 10  8  1  0  0  0  0
 10 12  1  0  0  0  0
 12  7  1  0  0  0  0
 13  8  1  6  0  0  0
 13  9  1  0  0  0  0
 15 17  1  0  0  0  0
 17 16  2  0  0  0  0
 18 19  2  0  0  0  0
 19 16  1  0  0  0  0
 20 18  1  0  0  0  0
 20 15  2  0  0  0  0
 21 15  1  0  0  0  0
 22 21  1  0  0  0  0
 23 21  1  0  0  0  0
 25 24  1  0  0  0  0
 26 25  2  0  0  0  0
 27 25  1  0  0  0  0
M  END
>  <MODEL>
2

>  <REMARK>
 VINA RESULT:      -7.5      1.752      4.018
  Name = 
  5 active torsions:
  status: ('A' for Active; 'I' for Inactive)
    1  A    between atoms: C_1  and  C_17
    2  A    between atoms: C_4  and  C_7
    3  A    between atoms: C_9  and  C_24
    4  A    between atoms: C_10  and  C_17
    5  A    between atoms: C_21  and  C_27
                            x       y       z     vdW  Elec       q    Type
                         _______ _______ _______ _____ _____    ______ ____

>  <TORSDO>
F 5

$$$$
=
 OpenBabel11062422083D

 27 30  0  0  1  0  0  0  0  0999 V2000
  189.4900  175.9360  143.6890 C   0  0  1  0  0  3  0  0  0  0  0  0
  190.6330  176.9320  143.8690 C   0  0  2  0  0  0  0  0  0  0  0  0
  190.2450  178.2490  144.1670 O   0  0  0  0  0  0  0  0  0  0  0  0
  190.0380  177.8300  142.8390 C   0  0  2  0  0  3  0  0  0  0  0  0
  188.8460  176.8830  142.6950 C   0  0  2  0  0  3  0  0  0  0  0  0
  191.1600  171.6540  144.3800 O   0  0  0  0  0  0  0  0  0  0  0  0
  189.9910  172.3870  141.0070 C   0  0  0  0  0  0  0  0  0  0  0  0
  189.6930  173.4630  143.9350 C   0  0  0  0  0  2  0  0  0  0  0  0
  189.1670  174.4490  141.8420 O   0  0  0  0  0  0  0  0  0  0  0  0
  190.4690  172.2530  143.5150 C   0  0  0  0  0  0  0  0  0  0  0  0
  190.0530  173.8780  140.9250 C   0  0  0  0  0  2  0  0  0  0  0  0
  190.3650  171.6880  142.2000 N   0  0  0  0  0  2  0  0  0  0  0  0
  189.9240  174.6410  143.0030 C   0  0  1  0  0  3  0  0  0  0  0  0
  189.6670  171.7320  139.9830 O   0  0  0  0  0  0  0  0  0  0  0  0
  185.8810  177.6550  144.9680 C   0  0  0  0  0  0  0  0  0  0  0  0
  185.7880  179.1340  143.0470 C   0  0  0  0  0  3  0  0  0  0  0  0
  185.2560  178.6930  144.2610 C   0  0  0  0  0  3  0  0  0  0  0  0
  187.5600  177.4790  143.2140 C   0  0  0  0  0  0  0  0  0  0  0  0
  186.9400  178.5360  142.5310 C   0  0  0  0  0  3  0  0  0  0  0  0
  187.0350  177.0620  144.4460 C   0  0  0  0  0  3  0  0  0  0  0  0
  185.3410  177.1700  146.2760 C   0  0  0  0  0  3  0  0  0  0  0  0
  186.4650  176.7950  147.2270 C   0  0  0  0  0  1  0  0  0  0  0  0
  184.4400  178.2080  146.9170 C   0  0  0  0  0  1  0  0  0  0  0  0
  192.0790  176.6840  143.4560 C   0  0  0  0  0  2  0  0  0  0  0  0
  192.8790  176.2460  144.6330 C   0  0  0  0  0  0  0  0  0  0  0  0
  192.7540  175.0760  145.0790 O   0  0  0  0  0  0  0  0  0  0  0  0
  193.7390  177.1370  145.2590 O   0  0  0  0  0  1  0  0  0  0  0  0
  1 13  1  6  0  0  0
  1  2  1  0  0  0  0
  2 24  1  6  0  0  0
  2  3  1  0  0  0  0
  4  2  1  0  0  0  0
  4  3  1  1  0  0  0
  5  4  1  0  0  0  0
  5 18  1  1  0  0  0
  5  1  1  0  0  0  0
  7 12  1  0  0  0  0
  9 13  1  0  0  0  0
 10  8  1  0  0  0  0
 10  6  2  0  0  0  0
 11  7  1  0  0  0  0
 11  9  1  0  0  0  0
 12 10  1  0  0  0  0
 13  8  1  1  0  0  0
 14  7  2  0  0  0  0
 15 21  1  0  0  0  0
 16 17  1  0  0  0  0
 17 15  2  0  0  0  0
 18 20  2  0  0  0  0
 19 16  2  0  0  0  0
 19 18  1  0  0  0  0
 20 15  1  0  0  0  0
 21 23  1  0  0  0  0
 21 22  1  0  0  0  0
 24 25  1  0  0  0  0
 25 26  2  0  0  0  0
 25 27  1  0  0  0  0
M  END
>  <MODEL>
3

>  <REMARK>
 VINA RESULT:      -7.4      3.630      6.785
  Name = 
  5 active torsions:
  status: ('A' for Active; 'I' for Inactive)
    1  A    between atoms: C_1  and  C_17
    2  A    between atoms: C_4  and  C_7
    3  A    between atoms: C_9  and  C_24
    4  A    between atoms: C_10  and  C_17
    5  A    between atoms: C_21  and  C_27
                            x       y       z     vdW  Elec       q    Type
                         _______ _______ _______ _____ _____    ______ ____

>  <TORSDO>
F 5

$$$$
=
 OpenBabel11062422083D

 27 30  0  0  1  0  0  0  0  0999 V2000
  190.1460  175.0800  145.1090 C   0  0  1  0  0  3  0  0  0  0  0  0
  191.3760  175.9110  145.4660 C   0  0  2  0  0  0  0  0  0  0  0  0
  191.1230  177.0710  146.2190 O   0  0  0  0  0  0  0  0  0  0  0  0
  190.7550  177.1230  144.8610 C   0  0  2  0  0  3  0  0  0  0  0  0
  189.4850  176.3290  144.5580 C   0  0  2  0  0  3  0  0  0  0  0  0
  191.9550  170.9160  144.1170 O   0  0  0  0  0  0  0  0  0  0  0  0
  190.0020  172.4800  141.4670 C   0  0  0  0  0  0  0  0  0  0  0  0
  190.4150  172.6610  144.5690 C   0  0  0  0  0  2  0  0  0  0  0  0
  189.3940  174.1540  143.0340 O   0  0  0  0  0  0  0  0  0  0  0  0
  191.0730  171.6800  143.6470 C   0  0  0  0  0  0  0  0  0  0  0  0
  190.0350  173.9350  141.8120 C   0  0  0  0  0  2  0  0  0  0  0  0
  190.6570  171.5040  142.2850 N   0  0  0  0  0  2  0  0  0  0  0  0
  190.4080  174.0680  143.9940 C   0  0  1  0  0  3  0  0  0  0  0  0
  189.4440  172.1180  140.4000 O   0  0  0  0  0  0  0  0  0  0  0  0
  186.3250  178.1630  145.6570 C   0  0  0  0  0  0  0  0  0  0  0  0
  186.8470  176.4660  147.3090 C   0  0  0  0  0  3  0  0  0  0  0  0
  186.0240  177.4980  146.8540 C   0  0  0  0  0  3  0  0  0  0  0  0
  188.3060  176.7740  145.3900 C   0  0  0  0  0  0  0  0  0  0  0  0
  187.9780  176.0990  146.5760 C   0  0  0  0  0  3  0  0  0  0  0  0
  187.4580  177.7900  144.9260 C   0  0  0  0  0  3  0  0  0  0  0  0
  185.4550  179.2650  145.1390 C   0  0  0  0  0  3  0  0  0  0  0  0
  185.6740  179.4810  143.6510 C   0  0  0  0  0  1  0  0  0  0  0  0
  183.9910  178.9830  145.4150 C   0  0  0  0  0  1  0  0  0  0  0  0
  192.7500  175.7520  144.8290 C   0  0  0  0  0  2  0  0  0  0  0  0
  193.6520  174.9950  145.7400 C   0  0  0  0  0  0  0  0  0  0  0  0
  193.5690  173.7410  145.8090 O   0  0  0  0  0  0  0  0  0  0  0  0
  194.5640  175.6740  146.5360 O   0  0  0  0  0  1  0  0  0  0  0  0
  1 13  1  6  0  0  0
  1  2  1  0  0  0  0
  2 24  1  6  0  0  0
  2  3  1  0  0  0  0
  4  2  1  0  0  0  0
  4  3  1  1  0  0  0
  5  4  1  0  0  0  0
  5  1  1  0  0  0  0
  5 18  1  1  0  0  0
  7 11  1  0  0  0  0
  7 12  1  0  0  0  0
  9 13  1  0  0  0  0
 10  6  2  0  0  0  0
 10  8  1  0  0  0  0
 11  9  1  0  0  0  0
 12 10  1  0  0  0  0
 13  8  1  1  0  0  0
 14  7  2  0  0  0  0
 15 17  1  0  0  0  0
 17 16  2  0  0  0  0
 18 19  2  0  0  0  0
 19 16  1  0  0  0  0
 20 18  1  0  0  0  0
 20 15  2  0  0  0  0
 21 23  1  0  0  0  0
 21 15  1  0  0  0  0
 22 21  1  0  0  0  0
 24 25  1  0  0  0  0
 25 26  2  0  0  0  0
 25 27  1  0  0  0  0
M  END
>  <MODEL>
4

>  <REMARK>
 VINA RESULT:      -7.3      3.697      7.168
  Name = 
  5 active torsions:
  status: ('A' for Active; 'I' for Inactive)
    1  A    between atoms: C_1  and  C_17
    2  A    between atoms: C_4  and  C_7
    3  A    between atoms: C_9  and  C_24
    4  A    between atoms: C_10  and  C_17
    5  A    between atoms: C_21  and  C_27
                            x       y       z     vdW  Elec       q    Type
                         _______ _______ _______ _____ _____    ______ ____

>  <TORSDO>
F 5

$$$$
=
 OpenBabel11062422083D

 27 30  0  0  1  0  0  0  0  0999 V2000
  188.8940  175.8260  144.6280 C   0  0  1  0  0  3  0  0  0  0  0  0
  189.0520  174.9660  143.3770 C   0  0  2  0  0  0  0  0  0  0  0  0
  190.3320  174.4210  143.1770 O   0  0  0  0  0  0  0  0  0  0  0  0
  190.2010  175.8000  142.9260 C   0  0  2  0  0  3  0  0  0  0  0  0
  190.1080  176.6310  144.2050 C   0  0  2  0  0  3  0  0  0  0  0  0
  184.8430  176.6810  146.7400 O   0  0  0  0  0  0  0  0  0  0  0  0
  185.8680  179.1000  144.2140 C   0  0  0  0  0  0  0  0  0  0  0  0
  187.0960  176.8500  146.0190 C   0  0  0  0  0  2  0  0  0  0  0  0
  187.9450  177.9600  144.1010 O   0  0  0  0  0  0  0  0  0  0  0  0
  185.6690  177.3090  146.0280 C   0  0  0  0  0  0  0  0  0  0  0  0
  186.8250  178.3360  143.3560 C   0  0  0  0  0  2  0  0  0  0  0  0
  185.2370  178.4970  145.3500 N   0  0  0  0  0  2  0  0  0  0  0  0
  187.6350  176.6930  144.6060 C   0  0  1  0  0  3  0  0  0  0  0  0
  185.5620  180.2760  143.8900 O   0  0  0  0  0  0  0  0  0  0  0  0
  193.6920  176.2210  145.4470 C   0  0  0  0  0  0  0  0  0  0  0  0
  192.2130  176.2970  147.3680 C   0  0  0  0  0  3  0  0  0  0  0  0
  193.5000  176.1930  146.8360 C   0  0  0  0  0  3  0  0  0  0  0  0
  191.2880  176.4220  145.1240 C   0  0  0  0  0  0  0  0  0  0  0  0
  191.1130  176.4200  146.5170 C   0  0  0  0  0  3  0  0  0  0  0  0
  192.5870  176.3460  144.6000 C   0  0  0  0  0  3  0  0  0  0  0  0
  195.0610  176.1240  144.8490 C   0  0  0  0  0  3  0  0  0  0  0  0
  195.8120  174.9220  145.3950 C   0  0  0  0  0  1  0  0  0  0  0  0
  194.9940  176.0540  143.3350 C   0  0  0  0  0  1  0  0  0  0  0  0
  188.0600  174.9160  142.2220 C   0  0  0  0  0  2  0  0  0  0  0  0
  188.1810  173.6210  141.4990 C   0  0  0  0  0  0  0  0  0  0  0  0
  187.7320  172.5660  142.0170 O   0  0  0  0  0  1  0  0  0  0  0  0
  188.8170  173.5700  140.2660 O   0  0  0  0  0  0  0  0  0  0  0  0
  1 13  1  6  0  0  0
  2 24  1  6  0  0  0
  2  1  1  0  0  0  0
  3  2  1  0  0  0  0
  4  3  1  1  0  0  0
  4  2  1  0  0  0  0
  4  5  1  0  0  0  0
  5  1  1  0  0  0  0
  5 18  1  1  0  0  0
  7 12  1  0  0  0  0
  8 10  1  0  0  0  0
  9 13  1  0  0  0  0
 10  6  2  0  0  0  0
 11  9  1  0  0  0  0
 11  7  1  0  0  0  0
 12 10  1  0  0  0  0
 13  8  1  1  0  0  0
 14  7  2  0  0  0  0
 15 17  1  0  0  0  0
 17 16  2  0  0  0  0
 18 19  2  0  0  0  0
 19 16  1  0  0  0  0
 20 18  1  0  0  0  0
 20 15  2  0  0  0  0
 21 22  1  0  0  0  0
 21 15  1  0  0  0  0
 23 21  1  0  0  0  0
 25 26  1  0  0  0  0
 25 24  1  0  0  0  0
 27 25  2  0  0  0  0
M  END
>  <MODEL>
5

>  <REMARK>
 VINA RESULT:      -7.1      2.310      4.156
  Name = 
  5 active torsions:
  status: ('A' for Active; 'I' for Inactive)
    1  A    between atoms: C_1  and  C_17
    2  A    between atoms: C_4  and  C_7
    3  A    between atoms: C_9  and  C_24
    4  A    between atoms: C_10  and  C_17
    5  A    between atoms: C_21  and  C_27
                            x       y       z     vdW  Elec       q    Type
                         _______ _______ _______ _____ _____    ______ ____

>  <TORSDO>
F 5

$$$$
=
 OpenBabel11062422083D

 27 30  0  0  1  0  0  0  0  0999 V2000
  188.5090  176.9900  144.3130 C   0  0  1  0  0  3  0  0  0  0  0  0
  187.4260  177.4710  145.2760 C   0  0  2  0  0  0  0  0  0  0  0  0
  187.8080  177.5430  146.6260 O   0  0  0  0  0  0  0  0  0  0  0  0
  187.6010  176.2490  146.1120 C   0  0  2  0  0  3  0  0  0  0  0  0
  188.7370  175.7830  145.2020 C   0  0  2  0  0  3  0  0  0  0  0  0
  185.8650  178.2920  140.7200 O   0  0  0  0  0  0  0  0  0  0  0  0
  187.8160  175.2510  140.2470 C   0  0  0  0  0  0  0  0  0  0  0  0
  187.7410  177.7910  142.0810 C   0  0  0  0  0  2  0  0  0  0  0  0
  188.8740  175.7200  142.3170 O   0  0  0  0  0  0  0  0  0  0  0  0
  186.8260  177.5070  140.9280 C   0  0  0  0  0  0  0  0  0  0  0  0
  188.0900  174.7830  141.6400 C   0  0  0  0  0  2  0  0  0  0  0  0
  187.0710  176.4470  139.9930 N   0  0  0  0  0  2  0  0  0  0  0  0
  187.9580  176.5650  142.9520 C   0  0  1  0  0  3  0  0  0  0  0  0
  188.1920  174.5410  139.2790 O   0  0  0  0  0  0  0  0  0  0  0  0
  192.4580  176.3450  145.8300 C   0  0  0  0  0  0  0  0  0  0  0  0
  191.4260  175.6240  147.9030 C   0  0  0  0  0  3  0  0  0  0  0  0
  192.5580  176.0280  147.1930 C   0  0  0  0  0  3  0  0  0  0  0  0
  190.0830  175.8150  145.8860 C   0  0  0  0  0  0  0  0  0  0  0  0
  190.1920  175.5270  147.2550 C   0  0  0  0  0  3  0  0  0  0  0  0
  191.2200  176.2470  145.1870 C   0  0  0  0  0  3  0  0  0  0  0  0
  193.6520  176.7920  145.0460 C   0  0  0  0  0  3  0  0  0  0  0  0
  194.9410  176.4680  145.7810 C   0  0  0  0  0  1  0  0  0  0  0  0
  193.6680  176.1650  143.6650 C   0  0  0  0  0  1  0  0  0  0  0  0
  185.9440  177.5700  144.9410 C   0  0  0  0  0  2  0  0  0  0  0  0
  185.4810  178.9780  145.0770 C   0  0  0  0  0  0  0  0  0  0  0  0
  185.1130  179.4160  146.1980 O   0  0  0  0  0  1  0  0  0  0  0  0
  185.4250  179.8010  143.9600 O   0  0  0  0  0  0  0  0  0  0  0  0
  1 13  1  6  0  0  0
  1  5  1  0  0  0  0
  1  2  1  0  0  0  0
  2 24  1  6  0  0  0
  2  4  1  0  0  0  0
  2  3  1  0  0  0  0
  4  3  1  1  0  0  0
  5 18  1  1  0  0  0
  5  4  1  0  0  0  0
  6 10  2  0  0  0  0
  7 11  1  0  0  0  0
  9 13  1  0  0  0  0
 10  8  1  0  0  0  0
 11  9  1  0  0  0  0
 12  7  1  0  0  0  0
 12 10  1  0  0  0  0
 13  8  1  6  0  0  0
 14  7  2  0  0  0  0
 15 17  1  0  0  0  0
 17 16  2  0  0  0  0
 18 19  2  0  0  0  0
 19 16  1  0  0  0  0
 20 15  2  0  0  0  0
 20 18  1  0  0  0  0
 21 22  1  0  0  0  0
 21 15  1  0  0  0  0
 23 21  1  0  0  0  0
 24 25  1  0  0  0  0
 25 26  1  0  0  0  0
 27 25  2  0  0  0  0
M  END
>  <MODEL>
6

>  <REMARK>
 VINA RESULT:      -7.1      1.841      2.706
  Name = 
  5 active torsions:
  status: ('A' for Active; 'I' for Inactive)
    1  A    between atoms: C_1  and  C_17
    2  A    between atoms: C_4  and  C_7
    3  A    between atoms: C_9  and  C_24
    4  A    between atoms: C_10  and  C_17
    5  A    between atoms: C_21  and  C_27
                            x       y       z     vdW  Elec       q    Type
                         _______ _______ _______ _____ _____    ______ ____

>  <TORSDO>
F 5

$$$$
=
 OpenBabel11062422083D

 27 30  0  0  1  0  0  0  0  0999 V2000
  190.0020  176.5070  145.1400 C   0  0  1  0  0  3  0  0  0  0  0  0
  189.2230  176.4670  146.4530 C   0  0  2  0  0  0  0  0  0  0  0  0
  189.9950  176.2440  147.6060 O   0  0  0  0  0  0  0  0  0  0  0  0
  189.7940  175.1270  146.7720 C   0  0  2  0  0  3  0  0  0  0  0  0
  190.6380  175.1780  145.4990 C   0  0  2  0  0  3  0  0  0  0  0  0
  186.9420  178.6890  142.4060 O   0  0  0  0  0  0  0  0  0  0  0  0
  188.1670  175.4800  141.1880 C   0  0  0  0  0  0  0  0  0  0  0  0
  188.9400  177.7210  143.2390 C   0  0  0  0  0  2  0  0  0  0  0  0
  189.7030  175.4870  142.9950 O   0  0  0  0  0  0  0  0  0  0  0  0
  187.7670  177.7450  142.3060 C   0  0  0  0  0  0  0  0  0  0  0  0
  188.6380  174.7860  142.4250 C   0  0  0  0  0  2  0  0  0  0  0  0
  187.6140  176.8010  141.2370 N   0  0  0  0  0  2  0  0  0  0  0  0
  189.1090  176.3660  143.9070 C   0  0  1  0  0  3  0  0  0  0  0  0
  188.1960  174.8640  140.0920 O   0  0  0  0  0  0  0  0  0  0  0  0
  194.3640  174.3760  145.6700 C   0  0  0  0  0  0  0  0  0  0  0  0
  194.0270  176.6500  146.4420 C   0  0  0  0  0  3  0  0  0  0  0  0
  194.8820  175.5840  146.1590 C   0  0  0  0  0  3  0  0  0  0  0  0
  192.1160  175.3020  145.7820 C   0  0  0  0  0  0  0  0  0  0  0  0
  192.6510  176.5140  146.2460 C   0  0  0  0  0  3  0  0  0  0  0  0
  192.9850  174.2460  145.4740 C   0  0  0  0  0  3  0  0  0  0  0  0
  195.2570  173.2200  145.3460 C   0  0  0  0  0  3  0  0  0  0  0  0
  196.6100  173.3690  146.0190 C   0  0  0  0  0  1  0  0  0  0  0  0
  194.6180  171.9040  145.7460 C   0  0  0  0  0  1  0  0  0  0  0  0
  187.7090  176.3410  146.5650 C   0  0  0  0  0  2  0  0  0  0  0  0
  187.0920  177.6890  146.6920 C   0  0  0  0  0  0  0  0  0  0  0  0
  186.4610  178.1880  145.7240 O   0  0  0  0  0  0  0  0  0  0  0  0
  187.2380  178.4120  147.8680 O   0  0  0  0  0  1  0  0  0  0  0  0
  1 13  1  6  0  0  0
  1  5  1  0  0  0  0
  1  2  1  0  0  0  0
  2 24  1  1  0  0  0
  2  4  1  0  0  0  0
  2  3  1  0  0  0  0
  4  3  1  1  0  0  0
  5 18  1  1  0  0  0
  5  4  1  0  0  0  0
  7 12  1  0  0  0  0
  7 11  1  0  0  0  0
  9 13  1  0  0  0  0
 10  6  2  0  0  0  0
 10  8  1  0  0  0  0
 11  9  1  0  0  0  0
 12 10  1  0  0  0  0
 13  8  1  6  0  0  0
 14  7  2  0  0  0  0
 15 17  1  0  0  0  0
 17 16  2  0  0  0  0
 18 19  2  0  0  0  0
 19 16  1  0  0  0  0
 20 15  2  0  0  0  0
 20 18  1  0  0  0  0
 21 15  1  0  0  0  0
 21 23  1  0  0  0  0
 21 22  1  0  0  0  0
 24 25  1  0  0  0  0
 25 27  1  0  0  0  0
 26 25  2  0  0  0  0
M  END
>  <MODEL>
7

>  <REMARK>
 VINA RESULT:      -7.0      1.964      2.801
  Name = 
  5 active torsions:
  status: ('A' for Active; 'I' for Inactive)
    1  A    between atoms: C_1  and  C_17
    2  A    between atoms: C_4  and  C_7
    3  A    between atoms: C_9  and  C_24
    4  A    between atoms: C_10  and  C_17
    5  A    between atoms: C_21  and  C_27
                            x       y       z     vdW  Elec       q    Type
                         _______ _______ _______ _____ _____    ______ ____

>  <TORSDO>
F 5

$$$$
=
 OpenBabel11062422083D

 27 30  0  0  1  0  0  0  0  0999 V2000
  190.4830  175.9490  142.9960 C   0  0  1  0  0  3  0  0  0  0  0  0
  190.0950  174.5670  142.4750 C   0  0  2  0  0  0  0  0  0  0  0  0
  188.7300  174.3890  142.1950 O   0  0  0  0  0  0  0  0  0  0  0  0
  189.0820  174.4220  143.5580 C   0  0  2  0  0  3  0  0  0  0  0  0
  189.4020  175.8320  144.0540 C   0  0  2  0  0  3  0  0  0  0  0  0
  195.0340  175.4070  142.2220 O   0  0  0  0  0  0  0  0  0  0  0  0
  194.1200  176.8070  145.4610 C   0  0  0  0  0  0  0  0  0  0  0  0
  192.9060  176.3830  142.6020 C   0  0  0  0  0  2  0  0  0  0  0  0
  191.8850  176.9190  144.6760 O   0  0  0  0  0  0  0  0  0  0  0  0
  194.2970  176.0290  143.0320 C   0  0  0  0  0  0  0  0  0  0  0  0
  192.7070  176.3600  145.6560 C   0  0  0  0  0  2  0  0  0  0  0  0
  194.8550  176.4680  144.2790 N   0  0  0  0  0  2  0  0  0  0  0  0
  191.8700  175.9810  143.6390 C   0  0  1  0  0  3  0  0  0  0  0  0
  194.6950  177.4380  146.3850 O   0  0  0  0  0  0  0  0  0  0  0  0
  186.3270  178.0010  144.6800 C   0  0  0  0  0  0  0  0  0  0  0  0
  187.1820  178.4940  142.4640 C   0  0  0  0  0  3  0  0  0  0  0  0
  186.2490  178.7190  143.4770 C   0  0  0  0  0  3  0  0  0  0  0  0
  188.2670  176.8020  143.8300 C   0  0  0  0  0  0  0  0  0  0  0  0
  188.1920  177.5460  142.6420 C   0  0  0  0  0  3  0  0  0  0  0  0
  187.3420  177.0550  144.8530 C   0  0  0  0  0  3  0  0  0  0  0  0
  185.3480  178.2300  145.7880 C   0  0  0  0  0  3  0  0  0  0  0  0
  184.0810  178.8880  145.2710 C   0  0  0  0  0  1  0  0  0  0  0  0
  185.0100  176.9320  146.4980 C   0  0  0  0  0  1  0  0  0  0  0  0
  190.9850  173.3320  142.5330 C   0  0  0  0  0  2  0  0  0  0  0  0
  191.4480  172.9690  141.1650 C   0  0  0  0  0  0  0  0  0  0  0  0
  191.9450  173.8480  140.4140 O   0  0  0  0  0  0  0  0  0  0  0  0
  191.3010  171.6680  140.7050 O   0  0  0  0  0  1  0  0  0  0  0  0
  1 13  1  1  0  0  0
  1  5  1  0  0  0  0
  2 24  1  6  0  0  0
  2  1  1  0  0  0  0
  2  4  1  0  0  0  0
  3  2  1  0  0  0  0
  4  3  1  6  0  0  0
  4  5  1  0  0  0  0
  5 18  1  6  0  0  0
  6 10  2  0  0  0  0
  7 11  1  0  0  0  0
  7 14  2  0  0  0  0
  8 10  1  0  0  0  0
  9 11  1  0  0  0  0
 10 12  1  0  0  0  0
 12  7  1  0  0  0  0
 13  8  1  6  0  0  0
 13  9  1  0  0  0  0
 15 20  1  0  0  0  0
 15 21  1  0  0  0  0
 16 19  2  0  0  0  0
 16 17  1  0  0  0  0
 17 15  2  0  0  0  0
 18 20  2  0  0  0  0
 19 18  1  0  0  0  0
 21 23  1  0  0  0  0
 22 21  1  0  0  0  0
 25 24  1  0  0  0  0
 26 25  2  0  0  0  0
 27 25  1  0  0  0  0
M  END
>  <MODEL>
8

>  <REMARK>
 VINA RESULT:      -6.7      3.992      7.899
  Name = 
  5 active torsions:
  status: ('A' for Active; 'I' for Inactive)
    1  A    between atoms: C_1  and  C_17
    2  A    between atoms: C_4  and  C_7
    3  A    between atoms: C_9  and  C_24
    4  A    between atoms: C_10  and  C_17
    5  A    between atoms: C_21  and  C_27
                            x       y       z     vdW  Elec       q    Type
                         _______ _______ _______ _____ _____    ______ ____

>  <TORSDO>
F 5

$$$$
=
 OpenBabel11062422083D

 27 30  0  0  1  0  0  0  0  0999 V2000
  190.3500  175.1840  143.5930 C   0  0  1  0  0  3  0  0  0  0  0  0
  191.5320  176.1520  143.5730 C   0  0  2  0  0  0  0  0  0  0  0  0
  191.4930  177.1710  144.5390 O   0  0  0  0  0  0  0  0  0  0  0  0
  190.6040  177.3120  143.4570 C   0  0  2  0  0  3  0  0  0  0  0  0
  189.4040  176.3690  143.5470 C   0  0  2  0  0  3  0  0  0  0  0  0
  192.2230  171.6900  141.1680 O   0  0  0  0  0  0  0  0  0  0  0  0
  188.9850  172.8870  140.0010 C   0  0  0  0  0  0  0  0  0  0  0  0
  190.7850  172.9550  142.5660 C   0  0  0  0  0  2  0  0  0  0  0  0
  188.8910  174.2430  141.9450 O   0  0  0  0  0  0  0  0  0  0  0  0
  191.0960  172.2370  141.2890 C   0  0  0  0  0  0  0  0  0  0  0  0
  188.9000  174.2750  140.5490 C   0  0  0  0  0  2  0  0  0  0  0  0
  190.1230  172.0540  140.2500 N   0  0  0  0  0  2  0  0  0  0  0  0
  190.2360  174.3500  142.3170 C   0  0  1  0  0  3  0  0  0  0  0  0
  188.0660  172.4690  139.2510 O   0  0  0  0  0  0  0  0  0  0  0  0
  186.8590  177.6410  146.0890 C   0  0  0  0  0  0  0  0  0  0  0  0
  188.0340  175.7490  147.0520 C   0  0  0  0  0  3  0  0  0  0  0  0
  187.0670  176.7510  147.1540 C   0  0  0  0  0  3  0  0  0  0  0  0
  188.6260  176.5370  144.8300 C   0  0  0  0  0  0  0  0  0  0  0  0
  188.8040  175.6370  145.8920 C   0  0  0  0  0  3  0  0  0  0  0  0
  187.6320  177.5220  144.9300 C   0  0  0  0  0  3  0  0  0  0  0  0
  185.8220  178.7160  146.1650 C   0  0  0  0  0  3  0  0  0  0  0  0
  184.4370  178.1610  145.8810 C   0  0  0  0  0  1  0  0  0  0  0  0
  185.8410  179.4030  147.5170 C   0  0  0  0  0  1  0  0  0  0  0  0
  192.5390  176.2740  142.4370 C   0  0  0  0  0  2  0  0  0  0  0  0
  193.8270  175.6370  142.8240 C   0  0  0  0  0  0  0  0  0  0  0  0
  194.9110  176.0770  142.3620 O   0  0  0  0  0  0  0  0  0  0  0  0
  193.8320  174.5370  143.6700 O   0  0  0  0  0  1  0  0  0  0  0  0
  1 13  1  6  0  0  0
  2 24  1  6  0  0  0
  2  1  1  0  0  0  0
  2  3  1  0  0  0  0
  4  5  1  0  0  0  0
  4  2  1  0  0  0  0
  4  3  1  1  0  0  0
  5  1  1  0  0  0  0
  5 18  1  1  0  0  0
  6 10  2  0  0  0  0
  7 12  1  0  0  0  0
  7 11  1  0  0  0  0
  9 13  1  0  0  0  0
 10  8  1  0  0  0  0
 11  9  1  0  0  0  0
 12 10  1  0  0  0  0
 13  8  1  1  0  0  0
 14  7  2  0  0  0  0
 15 21  1  0  0  0  0
 15 17  1  0  0  0  0
 16 17  2  0  0  0  0
 18 20  1  0  0  0  0
 18 19  2  0  0  0  0
 19 16  1  0  0  0  0
 20 15  2  0  0  0  0
 21 23  1  0  0  0  0
 22 21  1  0  0  0  0
 24 25  1  0  0  0  0
 25 27  1  0  0  0  0
 26 25  2  0  0  0  0
M  END
>  <MODEL>
9

>  <REMARK>
 VINA RESULT:      -6.7      3.960      7.091
  Name = 
  5 active torsions:
  status: ('A' for Active; 'I' for Inactive)
    1  A    between atoms: C_1  and  C_17
    2  A    between atoms: C_4  and  C_7
    3  A    between atoms: C_9  and  C_24
    4  A    between atoms: C_10  and  C_17
    5  A    between atoms: C_21  and  C_27
                            x       y       z     vdW  Elec       q    Type
                         _______ _______ _______ _____ _____    ______ ____

>  <TORSDO>
F 5

$$$$
