=
 OpenBabel11062420103D

 35 37  0  0  1  0  0  0  0  0999 V2000
  185.9580  177.5870  148.0670 N   0  0  0  0  0  1  0  0  0  0  0  0
  188.6840  176.2870  146.1410 C   0  0  0  0  0  3  0  0  0  0  0  0
  187.6020  176.8960  146.5350 C   0  0  0  0  0  0  0  0  0  0  0  0
  187.2300  177.6040  143.7830 C   0  0  2  0  0  3  0  0  0  0  0  0
  186.0310  178.5210  145.7790 N   0  0  0  0  0  0  0  0  0  0  0  0
  186.5240  177.5900  146.7620 C   0  0  0  0  0  0  0  0  0  0  0  0
  186.3230  178.5730  144.5060 C   0  0  0  0  0  3  0  0  0  0  0  0
  188.6900  177.8830  144.1540 C   0  0  0  0  0  2  0  0  0  0  0  0
  189.3410  176.6570  144.8300 C   0  0  1  0  0  3  0  0  0  0  0  0
  191.5390  175.6620  145.0050 O   0  0  0  0  0  0  0  0  0  0  0  0
  190.8410  176.8910  145.0440 C   0  0  1  0  0  3  0  0  0  0  0  0
  191.4320  177.6900  143.9700 C   0  0  0  0  0  0  0  0  0  0  0  0
  192.0670  175.5150  143.7420 N   0  0  0  0  0  0  0  0  0  0  0  0
  191.2850  178.8900  143.8100 O   0  0  0  0  0  0  0  0  0  0  0  0
  192.3030  176.8460  143.1840 C   0  0  0  0  0  2  0  0  0  0  0  0
  193.3620  174.8170  143.8250 C   0  0  1  0  0  3  0  0  0  0  0  0
  195.9510  174.5090  146.0670 O   0  0  0  0  0  0  0  0  0  0  0  0
  193.7010  174.3840  145.2770 C   0  0  2  0  0  3  0  0  0  0  0  0
  194.7090  176.4550  146.0480 O   0  0  0  0  0  0  0  0  0  0  0  0
  194.8020  175.2210  145.8140 C   0  0  0  0  0  0  0  0  0  0  0  0
  194.3100  172.9740  145.3850 C   0  0  0  0  0  3  0  0  0  0  0  0
  195.7900  173.1440  145.7440 C   0  0  0  0  0  3  0  0  0  0  0  0
  193.3760  173.6670  142.8530 C   0  0  0  0  0  0  0  0  0  0  0  0
  192.3360  172.9840  142.6550 O   0  0  0  0  0  1  0  0  0  0  0  0
  194.5490  173.3470  142.1820 O   0  0  0  0  0  0  0  0  0  0  0  0
  187.0310  177.6780  142.2640 C   0  0  2  0  0  3  0  0  0  0  0  0
  183.0310  178.2060  141.3350 C   0  0  0  0  0  1  0  0  0  0  0  0
  184.4440  178.0200  141.6630 C   0  0  0  0  0  0  0  0  0  0  0  0
  185.6090  177.8670  141.9330 C   0  0  0  0  0  0  0  0  0  0  0  0
  187.5240  176.3990  141.5950 C   0  0  0  0  0  2  0  0  0  0  0  0
  187.1530  175.2380  142.3880 N   0  0  0  0  0  2  0  0  0  0  0  0
  188.3070  173.9680  142.0330 P   0  0  0  0  0  0  0  0  0  0  0  0
  189.2280  173.6320  143.4110 O   0  0  0  0  0  1  0  0  0  0  0  0
  187.5630  172.7210  141.6140 O   0  0  0  0  0  1  0  0  0  0  0  0
  189.3270  174.4580  140.7760 O   0  0  0  0  0  0  0  0  0  0  0  0
  2  3  2  0  0  0  0
  3  6  2  0  0  0  0
  4 26  1  6  0  0  0
  4  8  1  0  0  0  0
  4  7  1  0  0  0  0
  5  6  1  0  0  0  0
  6  1  1  0  0  0  0
  7  5  2  0  0  0  0
  9  8  1  1  0  0  0
  9 11  1  0  0  0  0
  9  2  1  0  0  0  0
 10 11  1  0  0  0  0
 11 12  1  6  0  0  0
 13 16  1  0  0  0  0
 13 10  1  0  0  0  0
 14 12  2  0  0  0  0
 15 13  1  0  0  0  0
 15 12  1  0  0  0  0
 16 23  1  6  0  0  0
 18 16  1  6  0  0  0
 18 21  1  0  0  0  0
 18 20  1  0  0  0  0
 20 19  2  0  0  0  0
 20 17  1  0  0  0  0
 21 22  2  0  0  0  0
 22 17  1  0  0  0  0
 24 23  1  0  0  0  0
 25 23  2  0  0  0  0
 26 30  1  6  0  0  0
 27 28  1  0  0  0  0
 28 29  3  0  0  0  0
 29 26  1  0  0  0  0
 30 31  1  0  0  0  0
 32 31  1  0  0  0  0
 32 33  1  0  0  0  0
 34 32  1  0  0  0  0
 35 32  2  0  0  0  0
M  END
>  <MODEL>
1

>  <REMARK>
 VINA RESULT:      -7.2      0.000      0.000
  Name = 
  9 active torsions:
  status: ('A' for Active; 'I' for Inactive)
    1  A    between atoms: C_3  and  C_5
    2  A    between atoms: C_3  and  C_6
    3  A    between atoms: C_3  and  N_23
    4  A    between atoms: P_7  and  N_25
    5  A    between atoms: C_11  and  C_12
    6  A    between atoms: C_11  and  C_24
    7  A    between atoms: C_11  and  C_26
    8  A    between atoms: C_15  and  C_31
    9  A    between atoms: C_24  and  N_25
                            x       y       z     vdW  Elec       q    Type
                         _______ _______ _______ _____ _____    ______ ____

>  <TORSDO>
F 9

$$$$
=
 OpenBabel11062420103D

 35 37  0  0  1  0  0  0  0  0999 V2000
  186.3960  176.7190  147.7590 N   0  0  0  0  0  1  0  0  0  0  0  0
  189.3220  174.8530  146.8720 C   0  0  0  0  0  3  0  0  0  0  0  0
  188.3150  175.6800  146.8860 C   0  0  0  0  0  0  0  0  0  0  0  0
  189.1350  176.4190  144.2410 C   0  0  2  0  0  3  0  0  0  0  0  0
  187.4920  177.5900  145.7220 N   0  0  0  0  0  0  0  0  0  0  0  0
  187.3920  176.5880  146.7520 C   0  0  0  0  0  0  0  0  0  0  0  0
  188.2380  177.5650  144.6480 C   0  0  0  0  0  3  0  0  0  0  0  0
  190.3790  176.3900  145.1350 C   0  0  0  0  0  2  0  0  0  0  0  0
  190.4760  175.0620  145.9170 C   0  0  1  0  0  3  0  0  0  0  0  0
  192.8200  174.4660  145.8350 O   0  0  0  0  0  0  0  0  0  0  0  0
  191.8060  174.9790  146.6770 C   0  0  1  0  0  3  0  0  0  0  0  0
  192.2900  176.2980  147.0840 C   0  0  0  0  0  0  0  0  0  0  0  0
  193.5370  175.5320  145.3390 N   0  0  0  0  0  0  0  0  0  0  0  0
  191.8350  176.9770  147.9900 O   0  0  0  0  0  0  0  0  0  0  0  0
  193.4640  176.6270  146.3060 C   0  0  0  0  0  2  0  0  0  0  0  0
  194.9510  175.1500  145.1870 C   0  0  1  0  0  3  0  0  0  0  0  0
  197.2500  172.6540  144.6280 O   0  0  0  0  0  0  0  0  0  0  0  0
  195.1500  173.6100  145.2410 C   0  0  2  0  0  3  0  0  0  0  0  0
  197.0530  173.5430  146.7490 O   0  0  0  0  0  0  0  0  0  0  0  0
  196.5470  173.2920  145.6240 C   0  0  0  0  0  0  0  0  0  0  0  0
  195.0420  172.9160  143.8720 C   0  0  0  0  0  3  0  0  0  0  0  0
  196.4520  172.4670  143.4770 C   0  0  0  0  0  3  0  0  0  0  0  0
  195.5060  175.7670  143.9300 C   0  0  0  0  0  0  0  0  0  0  0  0
  196.7350  176.0300  143.8350 O   0  0  0  0  0  1  0  0  0  0  0  0
  194.6540  176.0620  142.8740 O   0  0  0  0  0  0  0  0  0  0  0  0
  189.5300  176.5160  142.7620 C   0  0  2  0  0  3  0  0  0  0  0  0
  186.3180  177.7480  140.4590 C   0  0  0  0  0  1  0  0  0  0  0  0
  187.4520  177.3130  141.2730 C   0  0  0  0  0  0  0  0  0  0  0  0
  188.3870  176.9550  141.9440 C   0  0  0  0  0  0  0  0  0  0  0  0
  190.0110  175.1640  142.2460 C   0  0  0  0  0  2  0  0  0  0  0  0
  189.0720  174.1170  142.6190 N   0  0  0  0  0  2  0  0  0  0  0  0
  190.0060  172.6770  142.9770 P   0  0  0  0  0  0  0  0  0  0  0  0
  189.8190  171.5510  141.7280 O   0  0  0  0  0  0  0  0  0  0  0  0
  191.4650  173.0470  143.1020 O   0  0  0  0  0  1  0  0  0  0  0  0
  189.4760  172.0000  144.4340 O   0  0  0  0  0  1  0  0  0  0  0  0
  2  3  2  0  0  0  0
  4 26  1  6  0  0  0
  4  7  1  0  0  0  0
  4  8  1  0  0  0  0
  5  6  1  0  0  0  0
  6  3  2  0  0  0  0
  6  1  1  0  0  0  0
  7  5  2  0  0  0  0
  9  8  1  1  0  0  0
  9 11  1  0  0  0  0
  9  2  1  0  0  0  0
 11 10  1  6  0  0  0
 11 12  1  0  0  0  0
 12 14  2  0  0  0  0
 13 10  1  0  0  0  0
 13 15  1  0  0  0  0
 15 12  1  0  0  0  0
 16 23  1  6  0  0  0
 16 13  1  0  0  0  0
 17 20  1  0  0  0  0
 18 16  1  6  0  0  0
 18 20  1  0  0  0  0
 20 19  2  0  0  0  0
 21 18  1  0  0  0  0
 22 21  2  0  0  0  0
 22 17  1  0  0  0  0
 24 23  1  0  0  0  0
 25 23  2  0  0  0  0
 26 29  1  6  0  0  0
 27 28  1  0  0  0  0
 28 29  3  0  0  0  0
 30 31  1  0  0  0  0
 30 26  1  0  0  0  0
 31 32  1  0  0  0  0
 32 34  1  0  0  0  0
 32 35  1  0  0  0  0
 33 32  2  0  0  0  0
M  END
>  <MODEL>
2

>  <REMARK>
 VINA RESULT:      -6.9      1.998      2.859
  Name = 
  9 active torsions:
  status: ('A' for Active; 'I' for Inactive)
    1  A    between atoms: C_3  and  C_5
    2  A    between atoms: C_3  and  C_6
    3  A    between atoms: C_3  and  N_23
    4  A    between atoms: P_7  and  N_25
    5  A    between atoms: C_11  and  C_12
    6  A    between atoms: C_11  and  C_24
    7  A    between atoms: C_11  and  C_26
    8  A    between atoms: C_15  and  C_31
    9  A    between atoms: C_24  and  N_25
                            x       y       z     vdW  Elec       q    Type
                         _______ _______ _______ _____ _____    ______ ____

>  <TORSDO>
F 9

$$$$
=
 OpenBabel11062420103D

 35 37  0  0  1  0  0  0  0  0999 V2000
  190.5800  170.2610  141.7500 N   0  0  0  0  0  1  0  0  0  0  0  0
  189.5060  173.2050  143.4850 C   0  0  0  0  0  3  0  0  0  0  0  0
  190.1990  172.2110  143.0060 C   0  0  0  0  0  0  0  0  0  0  0  0
  192.3560  173.1890  144.6200 C   0  0  2  0  0  3  0  0  0  0  0  0
  192.4590  171.4820  142.7920 N   0  0  0  0  0  0  0  0  0  0  0  0
  191.0430  171.3100  142.5910 C   0  0  0  0  0  0  0  0  0  0  0  0
  193.0580  172.2860  143.6310 C   0  0  0  0  0  3  0  0  0  0  0  0
  191.7330  174.3800  143.8860 C   0  0  0  0  0  2  0  0  0  0  0  0
  190.2000  174.4140  144.0720 C   0  0  1  0  0  3  0  0  0  0  0  0
  188.1990  175.6520  143.5130 O   0  0  0  0  0  0  0  0  0  0  0  0
  189.6110  175.6970  143.4740 C   0  0  1  0  0  3  0  0  0  0  0  0
  189.9680  176.8820  144.2560 C   0  0  0  0  0  0  0  0  0  0  0  0
  187.7820  176.3570  144.6200 N   0  0  0  0  0  0  0  0  0  0  0  0
  191.0650  177.4160  144.2800 O   0  0  0  0  0  0  0  0  0  0  0  0
  188.7840  177.3810  144.9180 C   0  0  0  0  0  2  0  0  0  0  0  0
  186.5090  177.0350  144.3260 C   0  0  1  0  0  3  0  0  0  0  0  0
  184.2420  178.0550  146.7010 O   0  0  0  0  0  0  0  0  0  0  0  0
  186.2010  178.1690  145.3420 C   0  0  2  0  0  3  0  0  0  0  0  0
  186.0790  176.8230  147.3600 O   0  0  0  0  0  0  0  0  0  0  0  0
  185.5320  177.6080  146.5410 C   0  0  0  0  0  0  0  0  0  0  0  0
  185.1500  179.1820  144.8520 C   0  0  0  0  0  3  0  0  0  0  0  0
  183.8750  178.9440  145.6660 C   0  0  0  0  0  3  0  0  0  0  0  0
  186.5140  177.5160  142.8980 C   0  0  0  0  0  0  0  0  0  0  0  0
  185.7410  177.0000  142.0470 O   0  0  0  0  0  0  0  0  0  0  0  0
  187.3880  178.5240  142.5150 O   0  0  0  0  0  1  0  0  0  0  0  0
  193.3140  173.6670  145.7180 C   0  0  2  0  0  3  0  0  0  0  0  0
  191.6300  176.7600  147.8960 C   0  0  0  0  0  1  0  0  0  0  0  0
  192.2250  175.6670  147.1260 C   0  0  0  0  0  0  0  0  0  0  0  0
  192.7140  174.7670  146.4930 C   0  0  0  0  0  0  0  0  0  0  0  0
  194.6250  174.1570  145.1100 C   0  0  0  0  0  2  0  0  0  0  0  0
  194.5420  175.5760  144.8050 N   0  0  0  0  0  2  0  0  0  0  0  0
  195.3140  175.8260  143.2510 P   0  0  0  0  0  0  0  0  0  0  0  0
  194.1710  176.3660  142.1270 O   0  0  0  0  0  0  0  0  0  0  0  0
  196.4020  176.8640  143.3950 O   0  0  0  0  0  1  0  0  0  0  0  0
  195.9960  174.3750  142.7120 O   0  0  0  0  0  1  0  0  0  0  0  0
  1  6  1  0  0  0  0
  3  2  2  0  0  0  0
  4 26  1  1  0  0  0
  5  7  2  0  0  0  0
  6  5  1  0  0  0  0
  6  3  2  0  0  0  0
  7  4  1  0  0  0  0
  8  9  1  0  0  0  0
  8  4  1  0  0  0  0
  9  2  1  6  0  0  0
 10 13  1  0  0  0  0
 11 10  1  1  0  0  0
 11  9  1  0  0  0  0
 11 12  1  0  0  0  0
 12 14  2  0  0  0  0
 12 15  1  0  0  0  0
 13 15  1  0  0  0  0
 16 23  1  6  0  0  0
 16 13  1  0  0  0  0
 18 16  1  6  0  0  0
 18 20  1  0  0  0  0
 20 17  1  0  0  0  0
 20 19  2  0  0  0  0
 21 18  1  0  0  0  0
 21 22  2  0  0  0  0
 22 17  1  0  0  0  0
 24 23  2  0  0  0  0
 25 23  1  0  0  0  0
 26 30  1  6  0  0  0
 26 29  1  0  0  0  0
 28 27  1  0  0  0  0
 29 28  3  0  0  0  0
 31 30  1  0  0  0  0
 32 34  1  0  0  0  0
 32 31  1  0  0  0  0
 33 32  2  0  0  0  0
 35 32  1  0  0  0  0
M  END
>  <MODEL>
3

>  <REMARK>
 VINA RESULT:      -6.9      3.246      7.992
  Name = 
  9 active torsions:
  status: ('A' for Active; 'I' for Inactive)
    1  A    between atoms: C_3  and  C_5
    2  A    between atoms: C_3  and  C_6
    3  A    between atoms: C_3  and  N_23
    4  A    between atoms: P_7  and  N_25
    5  A    between atoms: C_11  and  C_12
    6  A    between atoms: C_11  and  C_24
    7  A    between atoms: C_11  and  C_26
    8  A    between atoms: C_15  and  C_31
    9  A    between atoms: C_24  and  N_25
                            x       y       z     vdW  Elec       q    Type
                         _______ _______ _______ _____ _____    ______ ____

>  <TORSDO>
F 9

$$$$
=
 OpenBabel11062420103D

 35 37  0  0  1  0  0  0  0  0999 V2000
  185.8360  176.8360  148.0070 N   0  0  0  0  0  1  0  0  0  0  0  0
  188.7240  176.1040  146.0180 C   0  0  0  0  0  3  0  0  0  0  0  0
  187.5770  176.5420  146.4550 C   0  0  0  0  0  0  0  0  0  0  0  0
  187.2040  177.6170  143.8250 C   0  0  2  0  0  3  0  0  0  0  0  0
  185.8710  178.1050  145.8860 N   0  0  0  0  0  0  0  0  0  0  0  0
  186.4310  177.0890  146.7390 C   0  0  0  0  0  0  0  0  0  0  0  0
  186.1870  178.3760  144.6470 C   0  0  0  0  0  3  0  0  0  0  0  0
  188.6190  177.9750  144.2890 C   0  0  0  0  0  2  0  0  0  0  0  0
  189.3720  176.7280  144.8020 C   0  0  1  0  0  3  0  0  0  0  0  0
  191.4580  175.9970  145.7880 O   0  0  0  0  0  0  0  0  0  0  0  0
  190.8370  177.0690  145.1070 C   0  0  1  0  0  3  0  0  0  0  0  0
  191.6260  177.2430  143.8870 C   0  0  0  0  0  0  0  0  0  0  0  0
  192.1560  175.2550  144.8620 N   0  0  0  0  0  0  0  0  0  0  0  0
  191.5760  178.2040  143.1360 O   0  0  0  0  0  0  0  0  0  0  0  0
  192.5510  176.1390  143.7660 C   0  0  0  0  0  2  0  0  0  0  0  0
  193.3810  174.7180  145.4800 C   0  0  1  0  0  3  0  0  0  0  0  0
  193.3360  171.3160  144.9840 O   0  0  0  0  0  0  0  0  0  0  0  0
  194.0110  173.5780  144.6330 C   0  0  2  0  0  3  0  0  0  0  0  0
  191.9720  172.6560  143.6910 O   0  0  0  0  0  0  0  0  0  0  0  0
  193.0090  172.5120  144.3900 C   0  0  0  0  0  0  0  0  0  0  0  0
  195.1190  172.7960  145.3620 C   0  0  0  0  0  3  0  0  0  0  0  0
  194.5570  171.4080  145.6880 C   0  0  0  0  0  3  0  0  0  0  0  0
  194.3420  175.8440  145.7530 C   0  0  0  0  0  0  0  0  0  0  0  0
  195.3180  176.0530  144.9840 O   0  0  0  0  0  0  0  0  0  0  0  0
  194.1600  176.6490  146.8700 O   0  0  0  0  0  1  0  0  0  0  0  0
  187.0360  177.8990  142.3270 C   0  0  2  0  0  3  0  0  0  0  0  0
  183.0270  178.2010  141.3350 C   0  0  0  0  0  1  0  0  0  0  0  0
  184.4430  178.0950  141.6850 C   0  0  0  0  0  0  0  0  0  0  0  0
  185.6100  178.0070  141.9730 C   0  0  0  0  0  0  0  0  0  0  0  0
  187.6630  176.7840  141.4970 C   0  0  0  0  0  2  0  0  0  0  0  0
  187.3020  175.4840  142.0410 N   0  0  0  0  0  2  0  0  0  0  0  0
  188.5040  174.3320  141.4920 P   0  0  0  0  0  0  0  0  0  0  0  0
  188.5140  174.2810  139.8020 O   0  0  0  0  0  0  0  0  0  0  0  0
  189.8660  174.7590  141.9870 O   0  0  0  0  0  1  0  0  0  0  0  0
  188.1450  172.7970  142.1040 O   0  0  0  0  0  1  0  0  0  0  0  0
  2  3  2  0  0  0  0
  3  6  2  0  0  0  0
  4 26  1  6  0  0  0
  4  8  1  0  0  0  0
  4  7  1  0  0  0  0
  5  6  1  0  0  0  0
  6  1  1  0  0  0  0
  7  5  2  0  0  0  0
  9  8  1  1  0  0  0
  9 11  1  0  0  0  0
  9  2  1  0  0  0  0
 11 12  1  6  0  0  0
 11 10  1  0  0  0  0
 13 16  1  0  0  0  0
 13 10  1  0  0  0  0
 14 12  2  0  0  0  0
 15 12  1  0  0  0  0
 15 13  1  0  0  0  0
 16 23  1  6  0  0  0
 17 22  1  0  0  0  0
 18 21  1  0  0  0  0
 18 16  1  1  0  0  0
 19 20  2  0  0  0  0
 20 18  1  0  0  0  0
 20 17  1  0  0  0  0
 21 22  2  0  0  0  0
 23 25  1  0  0  0  0
 24 23  2  0  0  0  0
 26 30  1  6  0  0  0
 27 28  1  0  0  0  0
 28 29  3  0  0  0  0
 29 26  1  0  0  0  0
 30 31  1  0  0  0  0
 32 34  1  0  0  0  0
 32 31  1  0  0  0  0
 32 35  1  0  0  0  0
 33 32  2  0  0  0  0
M  END
>  <MODEL>
4

>  <REMARK>
 VINA RESULT:      -6.9      1.018      2.231
  Name = 
  9 active torsions:
  status: ('A' for Active; 'I' for Inactive)
    1  A    between atoms: C_3  and  C_5
    2  A    between atoms: C_3  and  C_6
    3  A    between atoms: C_3  and  N_23
    4  A    between atoms: P_7  and  N_25
    5  A    between atoms: C_11  and  C_12
    6  A    between atoms: C_11  and  C_24
    7  A    between atoms: C_11  and  C_26
    8  A    between atoms: C_15  and  C_31
    9  A    between atoms: C_24  and  N_25
                            x       y       z     vdW  Elec       q    Type
                         _______ _______ _______ _____ _____    ______ ____

>  <TORSDO>
F 9

$$$$
=
 OpenBabel11062420103D

 35 37  0  0  1  0  0  0  0  0999 V2000
  191.1670  175.3530  148.3960 N   0  0  0  0  0  1  0  0  0  0  0  0
  190.3910  174.2300  145.0850 C   0  0  0  0  0  3  0  0  0  0  0  0
  190.4600  174.8990  146.2010 C   0  0  0  0  0  0  0  0  0  0  0  0
  188.5210  176.6620  145.0420 C   0  0  2  0  0  3  0  0  0  0  0  0
  189.8900  177.0300  147.1040 N   0  0  0  0  0  0  0  0  0  0  0  0
  190.4440  175.7050  147.2230 C   0  0  0  0  0  0  0  0  0  0  0  0
  189.0850  177.4820  146.1790 C   0  0  0  0  0  3  0  0  0  0  0  0
  189.6110  176.4010  143.9980 C   0  0  0  0  0  2  0  0  0  0  0  0
  189.8710  174.8890  143.8260 C   0  0  1  0  0  3  0  0  0  0  0  0
  192.1010  175.2130  142.9450 O   0  0  0  0  0  0  0  0  0  0  0  0
  190.8410  174.6360  142.6650 C   0  0  1  0  0  3  0  0  0  0  0  0
  191.1170  173.2110  142.4790 C   0  0  0  0  0  0  0  0  0  0  0  0
  192.9240  174.2200  143.4280 N   0  0  0  0  0  0  0  0  0  0  0  0
  190.3510  172.3940  141.9940 O   0  0  0  0  0  0  0  0  0  0  0  0
  192.4830  172.9440  142.8680 C   0  0  0  0  0  2  0  0  0  0  0  0
  194.3070  174.4620  142.9840 C   0  0  1  0  0  3  0  0  0  0  0  0
  196.6100  176.7110  141.7740 O   0  0  0  0  0  0  0  0  0  0  0  0
  194.6390  175.9780  142.9030 C   0  0  2  0  0  3  0  0  0  0  0  0
  194.7650  176.1940  140.4870 O   0  0  0  0  0  0  0  0  0  0  0  0
  195.3130  176.2830  141.6180 C   0  0  0  0  0  0  0  0  0  0  0  0
  195.6960  176.4430  143.9200 C   0  0  0  0  0  3  0  0  0  0  0  0
  196.9770  176.7480  143.1370 C   0  0  0  0  0  3  0  0  0  0  0  0
  195.2600  173.7020  143.8680 C   0  0  0  0  0  0  0  0  0  0  0  0
  196.3180  173.2100  143.3940 O   0  0  0  0  0  0  0  0  0  0  0  0
  194.9600  173.5270  145.2120 O   0  0  0  0  0  1  0  0  0  0  0  0
  187.3090  177.3510  144.4020 C   0  0  2  0  0  3  0  0  0  0  0  0
  184.5850  178.5180  147.2940 C   0  0  0  0  0  1  0  0  0  0  0  0
  185.5480  178.1060  146.2720 C   0  0  0  0  0  0  0  0  0  0  0  0
  186.3410  177.7670  145.4310 C   0  0  0  0  0  0  0  0  0  0  0  0
  186.6110  176.4110  143.4250 C   0  0  0  0  0  2  0  0  0  0  0  0
  186.0050  177.1670  142.3400 N   0  0  0  0  0  2  0  0  0  0  0  0
  187.1470  177.1850  141.0100 P   0  0  0  0  0  0  0  0  0  0  0  0
  186.3370  177.5310  139.5670 O   0  0  0  0  0  0  0  0  0  0  0  0
  188.1910  178.2470  141.2640 O   0  0  0  0  0  1  0  0  0  0  0  0
  187.9040  175.6770  140.8870 O   0  0  0  0  0  1  0  0  0  0  0  0
  2  3  2  0  0  0  0
  3  6  2  0  0  0  0
  4 26  1  6  0  0  0
  4  7  1  0  0  0  0
  5  6  1  0  0  0  0
  6  1  1  0  0  0  0
  7  5  2  0  0  0  0
  8  4  1  0  0  0  0
  9  8  1  1  0  0  0
  9  2  1  0  0  0  0
 10 13  1  0  0  0  0
 11 12  1  1  0  0  0
 11 10  1  0  0  0  0
 11  9  1  0  0  0  0
 12 15  1  0  0  0  0
 14 12  2  0  0  0  0
 15 13  1  0  0  0  0
 16 13  1  0  0  0  0
 16 23  1  1  0  0  0
 17 22  1  0  0  0  0
 18 16  1  6  0  0  0
 18 21  1  0  0  0  0
 19 20  2  0  0  0  0
 20 17  1  0  0  0  0
 20 18  1  0  0  0  0
 22 21  2  0  0  0  0
 23 25  1  0  0  0  0
 24 23  2  0  0  0  0
 26 30  1  6  0  0  0
 26 29  1  0  0  0  0
 28 27  1  0  0  0  0
 29 28  3  0  0  0  0
 31 30  1  0  0  0  0
 32 34  1  0  0  0  0
 32 31  1  0  0  0  0
 33 32  2  0  0  0  0
 35 32  1  0  0  0  0
M  END
>  <MODEL>
5

>  <REMARK>
 VINA RESULT:      -6.8      2.568      3.932
  Name = 
  9 active torsions:
  status: ('A' for Active; 'I' for Inactive)
    1  A    between atoms: C_3  and  C_5
    2  A    between atoms: C_3  and  C_6
    3  A    between atoms: C_3  and  N_23
    4  A    between atoms: P_7  and  N_25
    5  A    between atoms: C_11  and  C_12
    6  A    between atoms: C_11  and  C_24
    7  A    between atoms: C_11  and  C_26
    8  A    between atoms: C_15  and  C_31
    9  A    between atoms: C_24  and  N_25
                            x       y       z     vdW  Elec       q    Type
                         _______ _______ _______ _____ _____    ______ ____

>  <TORSDO>
F 9

$$$$
=
 OpenBabel11062420103D

 35 37  0  0  1  0  0  0  0  0999 V2000
  190.4450  170.1310  141.6540 N   0  0  0  0  0  1  0  0  0  0  0  0
  189.3740  173.0240  143.4750 C   0  0  0  0  0  3  0  0  0  0  0  0
  190.0710  172.0570  142.9490 C   0  0  0  0  0  0  0  0  0  0  0  0
  192.2800  173.0900  144.4550 C   0  0  2  0  0  3  0  0  0  0  0  0
  192.3380  171.4040  142.6060 N   0  0  0  0  0  0  0  0  0  0  0  0
  190.9190  171.1870  142.4800 C   0  0  0  0  0  0  0  0  0  0  0  0
  192.9560  172.2190  143.4200 C   0  0  0  0  0  3  0  0  0  0  0  0
  191.5800  174.2670  143.7680 C   0  0  0  0  0  2  0  0  0  0  0  0
  190.0600  174.2490  144.0370 C   0  0  1  0  0  3  0  0  0  0  0  0
  188.2350  175.8260  144.2270 O   0  0  0  0  0  0  0  0  0  0  0  0
  189.3990  175.5180  143.4850 C   0  0  1  0  0  3  0  0  0  0  0  0
  190.2570  176.6940  143.6330 C   0  0  0  0  0  0  0  0  0  0  0  0
  188.5660  176.7870  145.1550 N   0  0  0  0  0  0  0  0  0  0  0  0
  191.2490  176.9410  142.9670 O   0  0  0  0  0  0  0  0  0  0  0  0
  189.6830  177.5700  144.6290 C   0  0  0  0  0  2  0  0  0  0  0  0
  187.4250  177.6960  145.3570 C   0  0  1  0  0  3  0  0  0  0  0  0
  185.3230  179.3790  143.2180 O   0  0  0  0  0  0  0  0  0  0  0  0
  186.3180  177.4900  144.2870 C   0  0  2  0  0  3  0  0  0  0  0  0
  187.3750  178.6620  142.4410 O   0  0  0  0  0  0  0  0  0  0  0  0
  186.4150  178.5430  143.2460 C   0  0  0  0  0  0  0  0  0  0  0  0
  184.8880  177.7120  144.8130 C   0  0  0  0  0  3  0  0  0  0  0  0
  184.3760  179.0210  144.2030 C   0  0  0  0  0  3  0  0  0  0  0  0
  186.9100  177.5520  146.7650 C   0  0  0  0  0  0  0  0  0  0  0  0
  186.8040  176.4140  147.2950 O   0  0  0  0  0  0  0  0  0  0  0  0
  186.5350  178.6830  147.4780 O   0  0  0  0  0  1  0  0  0  0  0  0
  193.2810  173.5900  145.5040 C   0  0  2  0  0  3  0  0  0  0  0  0
  191.6720  176.7050  147.7070 C   0  0  0  0  0  1  0  0  0  0  0  0
  192.2400  175.6050  146.9280 C   0  0  0  0  0  0  0  0  0  0  0  0
  192.7080  174.6980  146.2870 C   0  0  0  0  0  0  0  0  0  0  0  0
  194.5620  174.0760  144.8340 C   0  0  0  0  0  2  0  0  0  0  0  0
  194.4810  175.5030  144.5620 N   0  0  0  0  0  2  0  0  0  0  0  0
  195.4400  175.8200  143.1290 P   0  0  0  0  0  0  0  0  0  0  0  0
  196.6640  176.9280  143.4970 O   0  0  0  0  0  1  0  0  0  0  0  0
  196.0620  174.5300  142.6490 O   0  0  0  0  0  1  0  0  0  0  0  0
  194.4530  176.4520  141.9090 O   0  0  0  0  0  0  0  0  0  0  0  0
  1  6  1  0  0  0  0
  3  2  2  0  0  0  0
  4 26  1  1  0  0  0
  5  7  2  0  0  0  0
  6  5  1  0  0  0  0
  6  3  2  0  0  0  0
  7  4  1  0  0  0  0
  8  9  1  0  0  0  0
  8  4  1  0  0  0  0
  9  2  1  6  0  0  0
 10 13  1  0  0  0  0
 11 12  1  1  0  0  0
 11  9  1  0  0  0  0
 11 10  1  0  0  0  0
 12 15  1  0  0  0  0
 13 16  1  0  0  0  0
 14 12  2  0  0  0  0
 15 13  1  0  0  0  0
 16 23  1  1  0  0  0
 17 20  1  0  0  0  0
 17 22  1  0  0  0  0
 18 21  1  0  0  0  0
 18 16  1  1  0  0  0
 19 20  2  0  0  0  0
 20 18  1  0  0  0  0
 22 21  2  0  0  0  0
 23 24  2  0  0  0  0
 23 25  1  0  0  0  0
 26 30  1  6  0  0  0
 26 29  1  0  0  0  0
 28 27  1  0  0  0  0
 29 28  3  0  0  0  0
 31 30  1  0  0  0  0
 32 33  1  0  0  0  0
 32 31  1  0  0  0  0
 34 32  1  0  0  0  0
 35 32  2  0  0  0  0
M  END
>  <MODEL>
6

>  <REMARK>
 VINA RESULT:      -6.7      3.266      7.981
  Name = 
  9 active torsions:
  status: ('A' for Active; 'I' for Inactive)
    1  A    between atoms: C_3  and  C_5
    2  A    between atoms: C_3  and  C_6
    3  A    between atoms: C_3  and  N_23
    4  A    between atoms: P_7  and  N_25
    5  A    between atoms: C_11  and  C_12
    6  A    between atoms: C_11  and  C_24
    7  A    between atoms: C_11  and  C_26
    8  A    between atoms: C_15  and  C_31
    9  A    between atoms: C_24  and  N_25
                            x       y       z     vdW  Elec       q    Type
                         _______ _______ _______ _____ _____    ______ ____

>  <TORSDO>
F 9

$$$$
=
 OpenBabel11062420103D

 35 37  0  0  1  0  0  0  0  0999 V2000
  188.3880  172.4030  139.2210 N   0  0  0  0  0  1  0  0  0  0  0  0
  188.7370  174.3860  142.1830 C   0  0  0  0  0  3  0  0  0  0  0  0
  188.9550  173.6360  141.1400 C   0  0  0  0  0  0  0  0  0  0  0  0
  191.6910  173.5820  141.9900 C   0  0  2  0  0  3  0  0  0  0  0  0
  190.7530  172.8450  139.7900 N   0  0  0  0  0  0  0  0  0  0  0  0
  189.3540  172.9250  140.1250 C   0  0  0  0  0  0  0  0  0  0  0  0
  191.7770  173.1350  140.5480 C   0  0  0  0  0  3  0  0  0  0  0  0
  191.2000  175.0320  142.0570 C   0  0  0  0  0  2  0  0  0  0  0  0
  189.8740  175.1380  142.8390 C   0  0  1  0  0  3  0  0  0  0  0  0
  188.2220  176.6950  143.6760 O   0  0  0  0  0  0  0  0  0  0  0  0
  189.4820  176.6070  143.0410 C   0  0  1  0  0  3  0  0  0  0  0  0
  190.4030  177.3040  143.9400 C   0  0  0  0  0  0  0  0  0  0  0  0
  188.4390  176.9010  145.0200 N   0  0  0  0  0  0  0  0  0  0  0  0
  191.5360  177.6610  143.6630 O   0  0  0  0  0  0  0  0  0  0  0  0
  189.7180  177.5920  145.1800 C   0  0  0  0  0  2  0  0  0  0  0  0
  187.3800  177.7670  145.5660 C   0  0  1  0  0  3  0  0  0  0  0  0
  184.5230  179.4260  144.6140 O   0  0  0  0  0  0  0  0  0  0  0  0
  186.0320  177.5870  144.8160 C   0  0  2  0  0  3  0  0  0  0  0  0
  186.3070  179.3360  143.1520 O   0  0  0  0  0  0  0  0  0  0  0  0
  185.6670  178.8450  144.1190 C   0  0  0  0  0  0  0  0  0  0  0  0
  184.8200  177.3890  145.7430 C   0  0  0  0  0  3  0  0  0  0  0  0
  183.9810  178.6690  145.6770 C   0  0  0  0  0  3  0  0  0  0  0  0
  187.2590  177.5380  147.0500 C   0  0  0  0  0  0  0  0  0  0  0  0
  187.0520  178.5030  147.8320 O   0  0  0  0  0  1  0  0  0  0  0  0
  187.3910  176.2530  147.5600 O   0  0  0  0  0  0  0  0  0  0  0  0
  193.0410  173.4310  142.7030 C   0  0  2  0  0  3  0  0  0  0  0  0
  192.9150  175.1650  146.4610 C   0  0  0  0  0  1  0  0  0  0  0  0
  192.9590  174.5520  145.1340 C   0  0  0  0  0  0  0  0  0  0  0  0
  192.9960  174.0470  144.0400 C   0  0  0  0  0  0  0  0  0  0  0  0
  194.1510  174.0950  141.8960 C   0  0  0  0  0  2  0  0  0  0  0  0
  195.3260  174.3030  142.7270 N   0  0  0  0  0  2  0  0  0  0  0  0
  195.9300  175.9140  142.3920 P   0  0  0  0  0  0  0  0  0  0  0  0
  196.0650  176.7840  143.8360 O   0  0  0  0  0  1  0  0  0  0  0  0
  197.2900  175.8120  141.7420 O   0  0  0  0  0  1  0  0  0  0  0  0
  194.8700  176.7150  141.3450 O   0  0  0  0  0  0  0  0  0  0  0  0
  1  6  1  0  0  0  0
  2  9  1  0  0  0  0
  3  2  2  0  0  0  0
  4  8  1  0  0  0  0
  4 26  1  6  0  0  0
  5  6  1  0  0  0  0
  5  7  2  0  0  0  0
  6  3  2  0  0  0  0
  7  4  1  0  0  0  0
  9  8  1  6  0  0  0
  9 11  1  0  0  0  0
 10 13  1  0  0  0  0
 11 10  1  1  0  0  0
 11 12  1  0  0  0  0
 12 15  1  0  0  0  0
 13 15  1  0  0  0  0
 13 16  1  0  0  0  0
 14 12  2  0  0  0  0
 16 23  1  1  0  0  0
 17 22  1  0  0  0  0
 18 16  1  1  0  0  0
 18 21  1  0  0  0  0
 19 20  2  0  0  0  0
 20 17  1  0  0  0  0
 20 18  1  0  0  0  0
 22 21  2  0  0  0  0
 23 25  2  0  0  0  0
 23 24  1  0  0  0  0
 26 30  1  6  0  0  0
 26 29  1  0  0  0  0
 28 27  1  0  0  0  0
 29 28  3  0  0  0  0
 30 31  1  0  0  0  0
 32 31  1  0  0  0  0
 32 33  1  0  0  0  0
 34 32  1  0  0  0  0
 35 32  2  0  0  0  0
M  END
>  <MODEL>
7

>  <REMARK>
 VINA RESULT:      -6.6      3.327      8.008
  Name = 
  9 active torsions:
  status: ('A' for Active; 'I' for Inactive)
    1  A    between atoms: C_3  and  C_5
    2  A    between atoms: C_3  and  C_6
    3  A    between atoms: C_3  and  N_23
    4  A    between atoms: P_7  and  N_25
    5  A    between atoms: C_11  and  C_12
    6  A    between atoms: C_11  and  C_24
    7  A    between atoms: C_11  and  C_26
    8  A    between atoms: C_15  and  C_31
    9  A    between atoms: C_24  and  N_25
                            x       y       z     vdW  Elec       q    Type
                         _______ _______ _______ _____ _____    ______ ____

>  <TORSDO>
F 9

$$$$
=
 OpenBabel11062420103D

 35 37  0  0  1  0  0  0  0  0999 V2000
  185.7530  179.4130  143.6990 N   0  0  0  0  0  1  0  0  0  0  0  0
  188.3980  177.4250  145.0710 C   0  0  0  0  0  3  0  0  0  0  0  0
  187.4460  177.9060  144.3230 C   0  0  0  0  0  0  0  0  0  0  0  0
  187.8280  175.5890  142.6810 C   0  0  2  0  0  3  0  0  0  0  0  0
  186.5180  177.6520  142.1420 N   0  0  0  0  0  0  0  0  0  0  0  0
  186.5540  178.2650  143.4460 C   0  0  0  0  0  0  0  0  0  0  0  0
  187.0650  176.5240  141.7710 C   0  0  0  0  0  3  0  0  0  0  0  0
  189.2050  176.1800  142.9990 C   0  0  0  0  0  2  0  0  0  0  0  0
  189.3770  176.4160  144.5150 C   0  0  1  0  0  3  0  0  0  0  0  0
  191.6740  175.7270  144.8420 O   0  0  0  0  0  0  0  0  0  0  0  0
  190.8140  176.8500  144.8340 C   0  0  1  0  0  3  0  0  0  0  0  0
  191.3630  177.7330  143.8050 C   0  0  0  0  0  0  0  0  0  0  0  0
  192.3030  175.6680  143.6190 N   0  0  0  0  0  0  0  0  0  0  0  0
  191.0640  178.9040  143.6370 O   0  0  0  0  0  0  0  0  0  0  0  0
  192.3940  177.0240  143.0800 C   0  0  0  0  0  2  0  0  0  0  0  0
  193.6720  175.1520  143.7910 C   0  0  1  0  0  3  0  0  0  0  0  0
  196.0000  174.5570  146.2510 O   0  0  0  0  0  0  0  0  0  0  0  0
  193.8720  174.4720  145.1730 C   0  0  2  0  0  3  0  0  0  0  0  0
  194.6340  176.4090  146.4250 O   0  0  0  0  0  0  0  0  0  0  0  0
  194.8400  175.2470  145.9860 C   0  0  0  0  0  0  0  0  0  0  0  0
  194.5630  173.0980  145.1020 C   0  0  0  0  0  3  0  0  0  0  0  0
  195.9750  173.2690  145.6700 C   0  0  0  0  0  3  0  0  0  0  0  0
  194.0170  174.2460  142.6390 C   0  0  0  0  0  0  0  0  0  0  0  0
  193.1760  173.4150  142.2050 O   0  0  0  0  0  1  0  0  0  0  0  0
  195.2770  174.3180  142.0600 O   0  0  0  0  0  0  0  0  0  0  0  0
  187.9650  174.1930  142.0600 C   0  0  2  0  0  3  0  0  0  0  0  0
  190.7160  171.9190  144.1590 C   0  0  0  0  0  1  0  0  0  0  0  0
  189.7440  172.7220  143.4170 C   0  0  0  0  0  0  0  0  0  0  0  0
  188.9440  173.3830  142.8050 C   0  0  0  0  0  0  0  0  0  0  0  0
  188.4210  174.2950  140.6070 C   0  0  0  0  0  2  0  0  0  0  0  0
  188.1670  173.0450  139.9090 N   0  0  0  0  0  2  0  0  0  0  0  0
  189.5690  172.7050  138.9140 P   0  0  0  0  0  0  0  0  0  0  0  0
  190.9680  172.7610  139.8630 O   0  0  0  0  0  1  0  0  0  0  0  0
  189.4300  171.3270  138.3100 O   0  0  0  0  0  1  0  0  0  0  0  0
  189.6800  173.8480  137.6730 O   0  0  0  0  0  0  0  0  0  0  0  0
  3  2  2  0  0  0  0
  4 26  1  6  0  0  0
  4  8  1  0  0  0  0
  5  6  1  0  0  0  0
  6  1  1  0  0  0  0
  6  3  2  0  0  0  0
  7  5  2  0  0  0  0
  7  4  1  0  0  0  0
  9  8  1  6  0  0  0
  9 11  1  0  0  0  0
  9  2  1  0  0  0  0
 11 12  1  6  0  0  0
 11 10  1  0  0  0  0
 13 16  1  0  0  0  0
 13 10  1  0  0  0  0
 14 12  2  0  0  0  0
 15 13  1  0  0  0  0
 15 12  1  0  0  0  0
 16 23  1  6  0  0  0
 18 16  1  6  0  0  0
 18 20  1  0  0  0  0
 20 17  1  0  0  0  0
 20 19  2  0  0  0  0
 21 18  1  0  0  0  0
 21 22  2  0  0  0  0
 22 17  1  0  0  0  0
 24 23  1  0  0  0  0
 25 23  2  0  0  0  0
 26 30  1  6  0  0  0
 26 29  1  0  0  0  0
 28 27  1  0  0  0  0
 29 28  3  0  0  0  0
 31 30  1  0  0  0  0
 32 33  1  0  0  0  0
 32 31  1  0  0  0  0
 34 32  1  0  0  0  0
 35 32  2  0  0  0  0
M  END
>  <MODEL>
8

>  <REMARK>
 VINA RESULT:      -6.6      1.942      3.244
  Name = 
  9 active torsions:
  status: ('A' for Active; 'I' for Inactive)
    1  A    between atoms: C_3  and  C_5
    2  A    between atoms: C_3  and  C_6
    3  A    between atoms: C_3  and  N_23
    4  A    between atoms: P_7  and  N_25
    5  A    between atoms: C_11  and  C_12
    6  A    between atoms: C_11  and  C_24
    7  A    between atoms: C_11  and  C_26
    8  A    between atoms: C_15  and  C_31
    9  A    between atoms: C_24  and  N_25
                            x       y       z     vdW  Elec       q    Type
                         _______ _______ _______ _____ _____    ______ ____

>  <TORSDO>
F 9

$$$$
=
 OpenBabel11062420103D

 35 37  0  0  1  0  0  0  0  0999 V2000
  188.3150  173.5130  140.8500 N   0  0  0  0  0  1  0  0  0  0  0  0
  189.1200  175.0400  143.9890 C   0  0  0  0  0  3  0  0  0  0  0  0
  189.1730  174.4640  142.8210 C   0  0  0  0  0  0  0  0  0  0  0  0
  192.0120  174.3820  143.2050 C   0  0  2  0  0  3  0  0  0  0  0  0
  190.7360  173.9510  141.0960 N   0  0  0  0  0  0  0  0  0  0  0  0
  189.4100  173.9280  141.6580 C   0  0  0  0  0  0  0  0  0  0  0  0
  191.8670  174.1610  141.7160 C   0  0  0  0  0  3  0  0  0  0  0  0
  191.5220  175.7860  143.5720 C   0  0  0  0  0  2  0  0  0  0  0  0
  190.3400  175.7250  144.5640 C   0  0  1  0  0  3  0  0  0  0  0  0
  188.6900  177.4960  144.5660 O   0  0  0  0  0  0  0  0  0  0  0  0
  189.9690  177.1320  145.0490 C   0  0  1  0  0  3  0  0  0  0  0  0
  189.8490  177.1970  146.5060 C   0  0  0  0  0  0  0  0  0  0  0  0
  187.7750  177.2560  145.5670 N   0  0  0  0  0  0  0  0  0  0  0  0
  190.7760  177.1860  147.2990 O   0  0  0  0  0  0  0  0  0  0  0  0
  188.4580  177.3790  146.8540 C   0  0  0  0  0  2  0  0  0  0  0  0
  186.7080  178.2690  145.5160 C   0  0  1  0  0  3  0  0  0  0  0  0
  184.1340  179.3230  143.4940 O   0  0  0  0  0  0  0  0  0  0  0  0
  186.3630  178.6830  144.0590 C   0  0  2  0  0  3  0  0  0  0  0  0
  185.4790  180.8990  144.5100 O   0  0  0  0  0  0  0  0  0  0  0  0
  185.3170  179.7330  144.0630 C   0  0  0  0  0  0  0  0  0  0  0  0
  185.6800  177.5740  143.2380 C   0  0  0  0  0  3  0  0  0  0  0  0
  184.2160  177.9850  143.0490 C   0  0  0  0  0  3  0  0  0  0  0  0
  185.5100  177.7760  146.2830 C   0  0  0  0  0  0  0  0  0  0  0  0
  185.1020  176.5930  146.1410 O   0  0  0  0  0  0  0  0  0  0  0  0
  184.8400  178.6390  147.1410 O   0  0  0  0  0  1  0  0  0  0  0  0
  193.4610  174.1750  143.6620 C   0  0  2  0  0  3  0  0  0  0  0  0
  194.5170  176.9810  146.5180 C   0  0  0  0  0  1  0  0  0  0  0  0
  194.1440  175.9900  145.5090 C   0  0  0  0  0  0  0  0  0  0  0  0
  193.8370  175.1740  144.6770 C   0  0  0  0  0  0  0  0  0  0  0  0
  194.4190  174.2960  142.4800 C   0  0  0  0  0  2  0  0  0  0  0  0
  195.7700  174.5590  142.9490 N   0  0  0  0  0  2  0  0  0  0  0  0
  196.3070  176.0490  142.1960 P   0  0  0  0  0  0  0  0  0  0  0  0
  197.5410  175.7150  141.0890 O   0  0  0  0  0  0  0  0  0  0  0  0
  195.1450  176.6870  141.4710 O   0  0  0  0  0  1  0  0  0  0  0  0
  196.8790  177.1130  143.3790 O   0  0  0  0  0  1  0  0  0  0  0  0
  1  6  1  0  0  0  0
  2  9  1  0  0  0  0
  3  2  2  0  0  0  0
  4  8  1  0  0  0  0
  4 26  1  6  0  0  0
  5  6  1  0  0  0  0
  5  7  2  0  0  0  0
  6  3  2  0  0  0  0
  7  4  1  0  0  0  0
  9  8  1  6  0  0  0
  9 11  1  0  0  0  0
 10 13  1  0  0  0  0
 11 10  1  6  0  0  0
 11 12  1  0  0  0  0
 12 15  1  0  0  0  0
 12 14  2  0  0  0  0
 13 15  1  0  0  0  0
 16 13  1  0  0  0  0
 16 23  1  6  0  0  0
 17 20  1  0  0  0  0
 18 20  1  0  0  0  0
 18 16  1  1  0  0  0
 20 19  2  0  0  0  0
 21 18  1  0  0  0  0
 22 21  2  0  0  0  0
 22 17  1  0  0  0  0
 23 25  1  0  0  0  0
 24 23  2  0  0  0  0
 26 30  1  6  0  0  0
 26 29  1  0  0  0  0
 28 27  1  0  0  0  0
 29 28  3  0  0  0  0
 30 31  1  0  0  0  0
 32 31  1  0  0  0  0
 32 35  1  0  0  0  0
 33 32  2  0  0  0  0
 34 32  1  0  0  0  0
M  END
>  <MODEL>
9

>  <REMARK>
 VINA RESULT:      -6.6      3.343      8.186
  Name = 
  9 active torsions:
  status: ('A' for Active; 'I' for Inactive)
    1  A    between atoms: C_3  and  C_5
    2  A    between atoms: C_3  and  C_6
    3  A    between atoms: C_3  and  N_23
    4  A    between atoms: P_7  and  N_25
    5  A    between atoms: C_11  and  C_12
    6  A    between atoms: C_11  and  C_24
    7  A    between atoms: C_11  and  C_26
    8  A    between atoms: C_15  and  C_31
    9  A    between atoms: C_24  and  N_25
                            x       y       z     vdW  Elec       q    Type
                         _______ _______ _______ _____ _____    ______ ____

>  <TORSDO>
F 9

$$$$
