=
 OpenBabel11072409463D

 59 64  0  0  1  0  0  0  0  0999 V2000
  188.0520  175.6190  143.2730 C   0  0  1  0  0  3  0  0  0  0  0  0
  190.0780  175.2950  142.1190 O   0  0  0  0  0  0  0  0  0  0  0  0
  189.2980  174.8380  142.9370 C   0  0  0  0  0  0  0  0  0  0  0  0
  189.5750  173.4980  143.5480 C   0  0  0  0  0  2  0  0  0  0  0  0
  189.6600  172.0350  140.4640 N   0  0  0  0  0  0  0  0  0  0  0  0
  191.1750  170.2170  140.7850 N   0  0  0  0  0  2  0  0  0  0  0  0
  188.9650  172.3880  142.7030 C   0  0  1  0  0  3  0  0  0  0  0  0
  190.2440  171.1940  141.2450 C   0  0  0  0  0  0  0  0  0  0  0  0
  188.7830  172.8810  141.2640 C   0  0  0  0  0  2  0  0  0  0  0  0
  189.8920  171.3180  142.5710 O   0  0  0  0  0  0  0  0  0  0  0  0
  191.5590  170.1190  139.3820 C   0  0  0  0  0  3  0  0  0  0  0  0
  190.7310  169.0490  138.6730 C   0  0  0  0  0  2  0  0  0  0  0  0
  189.7900  169.6390  137.6290 C   0  0  0  0  0  1  0  0  0  0  0  0
  193.0490  169.8360  139.2440 C   0  0  0  0  0  2  0  0  0  0  0  0
  193.8730  170.9450  139.8870 C   0  0  0  0  0  1  0  0  0  0  0  0
  188.3370  177.0000  143.8760 C   0  0  0  0  0  2  0  0  0  0  0  0
  189.4050  176.9780  144.9760 C   0  0  1  0  0  3  0  0  0  0  0  0
  190.1300  178.1700  144.9600 O   0  0  0  0  0  0  0  0  0  0  0  0
  191.0980  177.9720  143.9740 C   0  0  0  0  0  1  0  0  0  0  0  0
  189.0000  177.7280  147.2720 O   0  0  0  0  0  1  0  0  0  0  0  0
  188.8040  176.6830  146.3570 C   0  0  2  0  0  3  0  0  0  0  0  0
  189.2590  175.3310  146.8990 C   0  0  0  0  0  2  0  0  0  0  0  0
  191.6590  174.9380  146.1570 N   0  0  0  0  0  2  0  0  0  0  0  0
  191.1340  175.5860  148.3400 O   0  0  0  0  0  0  0  0  0  0  0  0
  190.7270  175.2830  147.1840 C   0  0  0  0  0  0  0  0  0  0  0  0
  193.0890  174.9250  146.4420 C   0  0  0  0  0  2  0  0  0  0  0  0
  193.8700  175.6890  145.3810 C   0  0  0  0  0  2  0  0  0  0  0  0
  193.5690  175.9490  142.6330 O   0  0  0  0  0  0  0  0  0  0  0  0
  194.5250  174.7880  144.4250 N   0  0  0  0  0  0  0  0  0  0  0  0
  194.3980  175.0830  143.0200 C   0  0  0  0  0  0  0  0  0  0  0  0
  195.2120  174.4300  142.0480 N   0  0  0  0  0  0  0  0  0  0  0  0
  195.6220  174.1920  140.6320 C   0  0  0  0  0  2  0  0  0  0  0  0
  196.2970  173.4980  141.6140 C   0  0  0  0  0  2  0  0  0  0  0  0
  197.0320  172.4650  145.9840 C   0  0  0  0  0  3  0  0  0  0  0  0
  195.1610  173.5830  144.8950 C   0  0  0  0  0  0  0  0  0  0  0  0
  196.4290  173.6300  145.5020 C   0  0  0  0  0  3  0  0  0  0  0  0
  196.3640  171.2410  145.8810 C   0  0  0  0  0  3  0  0  0  0  0  0
  194.4890  172.3520  144.8300 C   0  0  0  0  0  3  0  0  0  0  0  0
  195.0900  171.1860  145.3120 C   0  0  0  0  0  3  0  0  0  0  0  0
  187.1760  175.6870  142.1850 O   0  0  0  0  0  0  0  0  0  0  0  0
  186.8280  177.0420  142.1130 C   0  0  2  0  0  3  0  0  0  0  0  0
  185.3580  177.3060  142.4680 C   0  0  0  0  0  2  0  0  0  0  0  0
  185.0640  178.7590  142.8240 C   0  0  0  0  0  2  0  0  0  0  0  0
  184.1140  178.8530  144.0090 C   0  0  0  0  0  2  0  0  0  0  0  0
  184.8000  179.5500  145.1790 C   0  0  0  0  0  2  0  0  0  0  0  0
  185.8580  177.2750  148.0960 O   0  0  0  0  0  1  0  0  0  0  0  0
  185.0910  178.2280  147.4290 C   0  0  2  0  0  0  0  0  0  0  0  0
  185.5570  178.5440  146.0220 C   0  0  2  0  0  0  0  0  0  0  0  0
  185.9600  179.2790  147.1400 O   0  0  0  0  0  0  0  0  0  0  0  0
  184.5810  177.5870  146.3040 O   0  0  0  0  0  0  0  0  0  0  0  0
  187.3250  177.7030  140.8230 C   0  0  0  0  0  2  0  0  0  0  0  0
  186.4150  177.5160  139.6150 C   0  0  0  0  0  2  0  0  0  0  0  0
  186.7050  176.3230  138.9410 O   0  0  0  0  0  0  0  0  0  0  0  0
  186.2450  175.7560  136.7540 C   0  0  0  0  0  2  0  0  0  0  0  0
  186.9790  176.6770  137.6520 N   0  0  0  0  0  0  0  0  0  0  0  0
  187.6800  175.5680  136.9430 C   0  0  1  0  0  3  0  0  0  0  0  0
  187.9620  174.3430  137.8190 C   0  0  0  0  0  2  0  0  0  0  0  0
  188.9950  173.4280  137.1740 C   0  0  0  0  0  2  0  0  0  0  0  0
  190.2050  174.2220  136.7110 C   0  0  0  0  0  1  0  0  0  0  0  0
  1 16  1  6  0  0  0
  2  3  2  0  0  0  0
  3  1  1  0  0  0  0
  3  4  1  0  0  0  0
  5  8  2  0  0  0  0
  5  9  1  0  0  0  0
  6  8  1  0  0  0  0
  7  4  1  1  0  0  0
  8 10  1  0  0  0  0
  9  7  1  0  0  0  0
 10  7  1  0  0  0  0
 11  6  1  0  0  0  0
 12 11  1  0  0  0  0
 13 12  1  0  0  0  0
 14 11  1  0  0  0  0
 14 15  1  0  0  0  0
 17 16  1  6  0  0  0
 17 21  1  0  0  0  0
 18 17  1  0  0  0  0
 19 18  1  0  0  0  0
 21 22  1  0  0  0  0
 21 20  1  1  0  0  0
 22 25  1  0  0  0  0
 23 26  1  0  0  0  0
 23 25  1  0  0  0  0
 25 24  2  0  0  0  0
 27 26  1  0  0  0  0
 28 30  2  0  0  0  0
 29 35  1  0  0  0  0
 29 27  1  0  0  0  0
 30 29  1  0  0  0  0
 31 30  1  0  0  0  0
 32 33  1  0  0  0  0
 32 31  1  0  0  0  0
 33 31  1  0  0  0  0
 35 36  1  0  0  0  0
 36 34  2  0  0  0  0
 37 34  1  0  0  0  0
 38 35  2  0  0  0  0
 38 39  1  0  0  0  0
 39 37  2  0  0  0  0
 40  1  1  0  0  0  0
 41 51  1  6  0  0  0
 41 40  1  0  0  0  0
 41 42  1  0  0  0  0
 42 43  1  0  0  0  0
 43 44  1  0  0  0  0
 44 45  1  0  0  0  0
 47 46  1  1  0  0  0
 48 45  1  1  0  0  0
 48 50  1  0  0  0  0
 48 49  1  0  0  0  0
 48 47  1  0  0  0  0
 49 47  1  0  0  0  0
 50 47  1  0  0  0  0
 52 51  1  0  0  0  0
 53 52  1  0  0  0  0
 54 56  1  0  0  0  0
 54 55  1  0  0  0  0
 55 53  1  0  0  0  0
 56 55  1  0  0  0  0
 56 57  1  1  0  0  0
 58 57  1  0  0  0  0
 59 58  1  0  0  0  0
M  END
>  <MODEL>
1

>  <REMARK>
 VINA RESULT:      -6.1      0.000      0.000
  Name = 
  29 active torsions:
  status: ('A' for Active; 'I' for Inactive)
    1  A    between atoms: O_1  and  C_14
    2  A    between atoms: C_3  and  C_59
    3  A    between atoms: C_4  and  C_43
    4  A    between atoms: C_4  and  C_50
    5  A    between atoms: N_5  and  C_25
    6  A    between atoms: N_5  and  C_41
    7  A    between atoms: N_6  and  C_15
    8  A    between atoms: C_10  and  C_21
    9  A    between atoms: C_10  and  C_34
   10  A    between atoms: C_12  and  C_46
   11  A    between atoms: C_14  and  C_57
   12  A    between atoms: C_14  and  C_58
   13  A    between atoms: C_15  and  C_41
   14  A    between atoms: C_17  and  C_45
   15  A    between atoms: C_17  and  C_57
   16  A    between atoms: N_19  and  C_46
   17  A    between atoms: C_28  and  C_39
   18  A    between atoms: C_28  and  C_56
   19  A    between atoms: O_31  and  C_43
   20  A    between atoms: O_31  and  C_51
   21  A    between atoms: C_32  and  C_53
   22  A    between atoms: C_33  and  C_46
   23  A    between atoms: C_34  and  C_51
   24  A    between atoms: O_36  and  N_44
   25  A    between atoms: O_36  and  C_50
   26  A    between atoms: C_39  and  C_53
   27  A    between atoms: C_43  and  C_56
   28  A    between atoms: C_47  and  C_59
   29  A    between atoms: C_51  and  C_58
                            x       y       z     vdW  Elec       q    Type
                         _______ _______ _______ _____ _____    ______ ____

>  <TORSDO>
F 29

$$$$
=
 OpenBabel11072409463D

 59 64  0  0  1  0  0  0  0  0999 V2000
  188.3410  175.2320  143.0420 C   0  0  1  0  0  3  0  0  0  0  0  0
  190.3100  174.9050  141.7930 O   0  0  0  0  0  0  0  0  0  0  0  0
  189.5760  174.4560  142.6570 C   0  0  0  0  0  0  0  0  0  0  0  0
  189.8970  173.1300  143.2770 C   0  0  0  0  0  2  0  0  0  0  0  0
  192.5000  170.9580  143.6780 N   0  0  0  0  0  0  0  0  0  0  0  0
  193.5590  171.0030  141.5380 N   0  0  0  0  0  2  0  0  0  0  0  0
  191.3770  173.0450  143.6230 C   0  0  1  0  0  3  0  0  0  0  0  0
  192.7390  171.5580  142.5640 C   0  0  0  0  0  0  0  0  0  0  0  0
  191.6310  171.8040  144.4860 C   0  0  0  0  0  2  0  0  0  0  0  0
  192.1330  172.7890  142.4460 O   0  0  0  0  0  0  0  0  0  0  0  0
  194.1690  169.6850  141.6680 C   0  0  0  0  0  3  0  0  0  0  0  0
  195.6530  169.8120  142.0050 C   0  0  0  0  0  2  0  0  0  0  0  0
  196.3850  168.4780  141.9130 C   0  0  0  0  0  1  0  0  0  0  0  0
  193.9660  168.8650  140.4000 C   0  0  0  0  0  2  0  0  0  0  0  0
  192.8300  169.4360  139.5610 C   0  0  0  0  0  1  0  0  0  0  0  0
  188.6380  176.6510  143.5390 C   0  0  0  0  0  2  0  0  0  0  0  0
  189.7140  176.7050  144.6310 C   0  0  1  0  0  3  0  0  0  0  0  0
  190.3960  177.9200  144.5700 O   0  0  0  0  0  0  0  0  0  0  0  0
  190.3380  178.2810  143.2230 C   0  0  0  0  0  1  0  0  0  0  0  0
  188.9200  177.6090  146.7640 O   0  0  0  0  0  1  0  0  0  0  0  0
  189.1330  176.4350  146.0260 C   0  0  2  0  0  3  0  0  0  0  0  0
  189.9480  175.3950  146.7910 C   0  0  0  0  0  2  0  0  0  0  0  0
  192.4360  175.2970  146.2800 N   0  0  0  0  0  2  0  0  0  0  0  0
  191.5700  176.7110  147.9280 O   0  0  0  0  0  0  0  0  0  0  0  0
  191.3560  175.8330  147.0460 C   0  0  0  0  0  0  0  0  0  0  0  0
  193.8000  175.7560  146.5200 C   0  0  0  0  0  2  0  0  0  0  0  0
  194.3740  176.4470  145.2900 C   0  0  0  0  0  2  0  0  0  0  0  0
  193.0540  176.3220  142.8510 O   0  0  0  0  0  0  0  0  0  0  0  0
  194.7410  175.4880  144.2410 N   0  0  0  0  0  0  0  0  0  0  0  0
  194.0700  175.5860  142.9690 C   0  0  0  0  0  0  0  0  0  0  0  0
  194.5450  174.8830  141.8230 N   0  0  0  0  0  0  0  0  0  0  0  0
  194.4330  174.4980  140.3850 C   0  0  0  0  0  2  0  0  0  0  0  0
  195.5030  173.9970  141.0950 C   0  0  0  0  0  2  0  0  0  0  0  0
  196.0550  172.0730  145.0890 C   0  0  0  0  0  3  0  0  0  0  0  0
  195.6510  174.4120  144.5400 C   0  0  0  0  0  0  0  0  0  0  0  0
  195.1700  173.1220  144.8280 C   0  0  0  0  0  3  0  0  0  0  0  0
  197.4340  172.2980  145.0480 C   0  0  0  0  0  3  0  0  0  0  0  0
  197.0390  174.6140  144.4690 C   0  0  0  0  0  3  0  0  0  0  0  0
  197.9260  173.5660  144.7290 C   0  0  0  0  0  3  0  0  0  0  0  0
  187.3840  175.2170  142.0220 O   0  0  0  0  0  0  0  0  0  0  0  0
  187.0060  176.5610  141.8920 C   0  0  2  0  0  3  0  0  0  0  0  0
  185.6680  176.8790  142.5750 C   0  0  0  0  0  2  0  0  0  0  0  0
  185.5560  178.3180  143.0640 C   0  0  0  0  0  2  0  0  0  0  0  0
  184.2150  178.5660  143.7410 C   0  0  0  0  0  2  0  0  0  0  0  0
  184.4220  179.2900  145.0670 C   0  0  0  0  0  2  0  0  0  0  0  0
  185.9390  177.6230  148.1840 O   0  0  0  0  0  1  0  0  0  0  0  0
  185.0450  178.4100  147.4600 C   0  0  2  0  0  0  0  0  0  0  0  0
  185.3280  178.4830  145.9730 C   0  0  2  0  0  0  0  0  0  0  0  0
  185.8110  179.4230  146.8870 O   0  0  0  0  0  0  0  0  0  0  0  0
  184.4490  177.5560  146.5360 O   0  0  0  0  0  0  0  0  0  0  0  0
  187.1510  177.0700  140.4540 C   0  0  0  0  0  2  0  0  0  0  0  0
  187.3210  175.9790  139.4030 C   0  0  0  0  0  2  0  0  0  0  0  0
  186.6030  176.2800  138.2390 O   0  0  0  0  0  0  0  0  0  0  0  0
  187.3760  177.0370  136.2020 C   0  0  0  0  0  2  0  0  0  0  0  0
  187.4180  175.9410  137.1980 N   0  0  0  0  0  0  0  0  0  0  0  0
  186.6290  175.8110  135.9380 C   0  0  1  0  0  3  0  0  0  0  0  0
  185.1240  176.0360  136.1150 C   0  0  0  0  0  2  0  0  0  0  0  0
  184.3870  175.9170  134.7870 C   0  0  0  0  0  2  0  0  0  0  0  0
  182.9230  176.2910  134.9470 C   0  0  0  0  0  1  0  0  0  0  0  0
  1 16  1  6  0  0  0
  2  3  2  0  0  0  0
  3  1  1  0  0  0  0
  3  4  1  0  0  0  0
  5  9  1  0  0  0  0
  6 11  1  0  0  0  0
  6  8  1  0  0  0  0
  7  4  1  6  0  0  0
  7  9  1  0  0  0  0
  8  5  2  0  0  0  0
 10  8  1  0  0  0  0
 10  7  1  0  0  0  0
 11 12  1  0  0  0  0
 13 12  1  0  0  0  0
 14 11  1  0  0  0  0
 15 14  1  0  0  0  0
 17 16  1  6  0  0  0
 17 21  1  0  0  0  0
 18 17  1  0  0  0  0
 19 18  1  0  0  0  0
 21 20  1  1  0  0  0
 21 22  1  0  0  0  0
 22 25  1  0  0  0  0
 23 26  1  0  0  0  0
 23 25  1  0  0  0  0
 25 24  2  0  0  0  0
 27 26  1  0  0  0  0
 28 30  2  0  0  0  0
 29 35  1  0  0  0  0
 29 27  1  0  0  0  0
 30 29  1  0  0  0  0
 31 30  1  0  0  0  0
 32 33  1  0  0  0  0
 32 31  1  0  0  0  0
 33 31  1  0  0  0  0
 35 36  1  0  0  0  0
 36 34  2  0  0  0  0
 37 34  1  0  0  0  0
 38 35  2  0  0  0  0
 38 39  1  0  0  0  0
 39 37  2  0  0  0  0
 40  1  1  0  0  0  0
 41 51  1  6  0  0  0
 41 40  1  0  0  0  0
 41 42  1  0  0  0  0
 42 43  1  0  0  0  0
 43 44  1  0  0  0  0
 44 45  1  0  0  0  0
 47 46  1  1  0  0  0
 48 45  1  6  0  0  0
 48 50  1  0  0  0  0
 48 49  1  0  0  0  0
 48 47  1  0  0  0  0
 49 47  1  0  0  0  0
 50 47  1  0  0  0  0
 52 51  1  0  0  0  0
 53 52  1  0  0  0  0
 54 55  1  0  0  0  0
 55 53  1  0  0  0  0
 56 57  1  1  0  0  0
 56 54  1  0  0  0  0
 56 55  1  0  0  0  0
 58 59  1  0  0  0  0
 58 57  1  0  0  0  0
M  END
>  <MODEL>
2

>  <REMARK>
 VINA RESULT:      -5.3      1.513      2.453
  Name = 
  29 active torsions:
  status: ('A' for Active; 'I' for Inactive)
    1  A    between atoms: O_1  and  C_14
    2  A    between atoms: C_3  and  C_59
    3  A    between atoms: C_4  and  C_43
    4  A    between atoms: C_4  and  C_50
    5  A    between atoms: N_5  and  C_25
    6  A    between atoms: N_5  and  C_41
    7  A    between atoms: N_6  and  C_15
    8  A    between atoms: C_10  and  C_21
    9  A    between atoms: C_10  and  C_34
   10  A    between atoms: C_12  and  C_46
   11  A    between atoms: C_14  and  C_57
   12  A    between atoms: C_14  and  C_58
   13  A    between atoms: C_15  and  C_41
   14  A    between atoms: C_17  and  C_45
   15  A    between atoms: C_17  and  C_57
   16  A    between atoms: N_19  and  C_46
   17  A    between atoms: C_28  and  C_39
   18  A    between atoms: C_28  and  C_56
   19  A    between atoms: O_31  and  C_43
   20  A    between atoms: O_31  and  C_51
   21  A    between atoms: C_32  and  C_53
   22  A    between atoms: C_33  and  C_46
   23  A    between atoms: C_34  and  C_51
   24  A    between atoms: O_36  and  N_44
   25  A    between atoms: O_36  and  C_50
   26  A    between atoms: C_39  and  C_53
   27  A    between atoms: C_43  and  C_56
   28  A    between atoms: C_47  and  C_59
   29  A    between atoms: C_51  and  C_58
                            x       y       z     vdW  Elec       q    Type
                         _______ _______ _______ _____ _____    ______ ____

>  <TORSDO>
F 29

$$$$
=
 OpenBabel11072409463D

 59 64  0  0  1  0  0  0  0  0999 V2000
  189.4080  174.9260  142.9890 C   0  0  1  0  0  3  0  0  0  0  0  0
  187.1630  174.7590  142.3000 O   0  0  0  0  0  0  0  0  0  0  0  0
  188.2020  175.3890  142.2090 C   0  0  0  0  0  0  0  0  0  0  0  0
  188.2650  176.5750  141.2950 C   0  0  0  0  0  2  0  0  0  0  0  0
  185.6930  177.3080  143.4180 N   0  0  0  0  0  0  0  0  0  0  0  0
  186.8270  177.9180  145.4290 N   0  0  0  0  0  2  0  0  0  0  0  0
  187.4130  177.7150  141.8380 C   0  0  1  0  0  3  0  0  0  0  0  0
  186.7490  177.7380  144.0160 C   0  0  0  0  0  0  0  0  0  0  0  0
  185.9630  177.2440  141.9870 C   0  0  0  0  0  2  0  0  0  0  0  0
  187.8020  178.0130  143.1730 O   0  0  0  0  0  0  0  0  0  0  0  0
  185.7110  177.5940  146.3100 C   0  0  0  0  0  3  0  0  0  0  0  0
  185.1390  178.8630  146.9390 C   0  0  0  0  0  2  0  0  0  0  0  0
  186.1920  179.6570  147.7030 C   0  0  0  0  0  1  0  0  0  0  0  0
  186.1350  176.5980  147.3810 C   0  0  0  0  0  2  0  0  0  0  0  0
  187.6270  176.3020  147.2850 C   0  0  0  0  0  1  0  0  0  0  0  0
  189.4700  175.4870  144.4140 C   0  0  0  0  0  2  0  0  0  0  0  0
  190.8700  175.9650  144.8230 C   0  0  1  0  0  3  0  0  0  0  0  0
  190.8650  177.3470  145.0160 O   0  0  0  0  0  0  0  0  0  0  0  0
  191.3040  177.8660  143.7970 C   0  0  0  0  0  1  0  0  0  0  0  0
  191.3160  175.9620  147.2310 O   0  0  0  0  0  1  0  0  0  0  0  0
  191.4000  175.2100  146.0500 C   0  0  2  0  0  3  0  0  0  0  0  0
  192.7960  174.6420  145.8090 C   0  0  0  0  0  2  0  0  0  0  0  0
  194.3340  175.4320  143.9460 N   0  0  0  0  0  2  0  0  0  0  0  0
  193.9770  176.7050  145.8730 O   0  0  0  0  0  0  0  0  0  0  0  0
  193.7400  175.6470  145.2270 C   0  0  0  0  0  0  0  0  0  0  0  0
  195.2290  176.4350  143.3780 C   0  0  0  0  0  2  0  0  0  0  0  0
  196.6860  176.0100  143.5080 C   0  0  0  0  0  2  0  0  0  0  0  0
  197.9080  173.7630  144.5870 O   0  0  0  0  0  0  0  0  0  0  0  0
  196.9840  174.8130  142.7120 N   0  0  0  0  0  0  0  0  0  0  0  0
  197.5100  173.6600  143.3960 C   0  0  0  0  0  0  0  0  0  0  0  0
  197.5730  172.3840  142.7610 N   0  0  0  0  0  0  0  0  0  0  0  0
  197.9350  170.9360  142.7680 C   0  0  0  0  0  2  0  0  0  0  0  0
  197.3380  171.4360  141.6300 C   0  0  0  0  0  2  0  0  0  0  0  0
  195.5530  174.5240  139.2510 C   0  0  0  0  0  3  0  0  0  0  0  0
  196.8650  174.8580  141.2770 C   0  0  0  0  0  0  0  0  0  0  0  0
  195.6780  174.4520  140.6410 C   0  0  0  0  0  3  0  0  0  0  0  0
  196.6090  175.0210  138.4810 C   0  0  0  0  0  3  0  0  0  0  0  0
  197.9040  175.3860  140.4930 C   0  0  0  0  0  3  0  0  0  0  0  0
  197.7800  175.4590  139.1030 C   0  0  0  0  0  3  0  0  0  0  0  0
  189.5360  173.5340  142.9620 O   0  0  0  0  0  0  0  0  0  0  0  0
  190.8450  173.3220  142.5080 C   0  0  2  0  0  3  0  0  0  0  0  0
  191.1240  173.9730  141.1460 C   0  0  0  0  0  2  0  0  0  0  0  0
  190.7340  173.1020  139.9580 C   0  0  0  0  0  2  0  0  0  0  0  0
  191.9250  172.8570  139.0420 C   0  0  0  0  0  2  0  0  0  0  0  0
  192.0960  174.0240  138.0770 C   0  0  0  0  0  2  0  0  0  0  0  0
  190.3740  173.7610  134.6470 O   0  0  0  0  0  1  0  0  0  0  0  0
  191.4390  173.8100  135.5440 C   0  0  2  0  0  0  0  0  0  0  0  0
  191.0360  173.9740  136.9960 C   0  0  2  0  0  0  0  0  0  0  0  0
  191.3510  175.0540  136.1670 O   0  0  0  0  0  0  0  0  0  0  0  0
  191.2620  172.7300  136.4040 O   0  0  0  0  0  0  0  0  0  0  0  0
  191.2780  171.8580  142.6420 C   0  0  0  0  0  2  0  0  0  0  0  0
  191.8780  171.4890  143.9930 C   0  0  0  0  0  2  0  0  0  0  0  0
  193.2670  171.6700  143.9990 O   0  0  0  0  0  0  0  0  0  0  0  0
  193.5760  169.4940  144.6970 C   0  0  0  0  0  2  0  0  0  0  0  0
  193.8030  170.4760  143.6120 N   0  0  0  0  0  0  0  0  0  0  0  0
  194.9040  170.0750  144.5340 C   0  0  1  0  0  3  0  0  0  0  0  0
  195.1980  171.0930  145.6410 C   0  0  0  0  0  2  0  0  0  0  0  0
  196.6180  170.9400  146.1700 C   0  0  0  0  0  2  0  0  0  0  0  0
  196.9540  169.4760  146.3990 C   0  0  0  0  0  1  0  0  0  0  0  0
  1 16  1  1  0  0  0
  3  2  2  0  0  0  0
  3  1  1  0  0  0  0
  4  3  1  0  0  0  0
  5  8  2  0  0  0  0
  6 11  1  0  0  0  0
  7  4  1  1  0  0  0
  7  9  1  0  0  0  0
  7 10  1  0  0  0  0
  8  6  1  0  0  0  0
  9  5  1  0  0  0  0
 10  8  1  0  0  0  0
 11 12  1  0  0  0  0
 11 14  1  0  0  0  0
 12 13  1  0  0  0  0
 15 14  1  0  0  0  0
 17 16  1  1  0  0  0
 17 18  1  0  0  0  0
 17 21  1  0  0  0  0
 19 18  1  0  0  0  0
 21 20  1  1  0  0  0
 22 21  1  0  0  0  0
 23 25  1  0  0  0  0
 25 22  1  0  0  0  0
 25 24  2  0  0  0  0
 26 27  1  0  0  0  0
 26 23  1  0  0  0  0
 29 30  1  0  0  0  0
 29 27  1  0  0  0  0
 30 28  2  0  0  0  0
 31 32  1  0  0  0  0
 31 30  1  0  0  0  0
 33 31  1  0  0  0  0
 33 32  1  0  0  0  0
 34 36  1  0  0  0  0
 35 29  1  0  0  0  0
 36 35  2  0  0  0  0
 37 39  1  0  0  0  0
 37 34  2  0  0  0  0
 38 35  1  0  0  0  0
 39 38  2  0  0  0  0
 40  1  1  0  0  0  0
 41 42  1  6  0  0  0
 41 51  1  0  0  0  0
 41 40  1  0  0  0  0
 43 42  1  0  0  0  0
 44 43  1  0  0  0  0
 45 44  1  0  0  0  0
 47 46  1  6  0  0  0
 47 49  1  0  0  0  0
 47 50  1  0  0  0  0
 47 48  1  0  0  0  0
 48 45  1  1  0  0  0
 49 48  1  0  0  0  0
 50 48  1  0  0  0  0
 51 52  1  0  0  0  0
 52 53  1  0  0  0  0
 55 53  1  0  0  0  0
 55 56  1  0  0  0  0
 55 54  1  0  0  0  0
 56 54  1  0  0  0  0
 56 57  1  1  0  0  0
 57 58  1  0  0  0  0
 58 59  1  0  0  0  0
M  END
>  <MODEL>
3

>  <REMARK>
 VINA RESULT:      -5.2      2.643      8.251
  Name = 
  29 active torsions:
  status: ('A' for Active; 'I' for Inactive)
    1  A    between atoms: O_1  and  C_14
    2  A    between atoms: C_3  and  C_59
    3  A    between atoms: C_4  and  C_43
    4  A    between atoms: C_4  and  C_50
    5  A    between atoms: N_5  and  C_25
    6  A    between atoms: N_5  and  C_41
    7  A    between atoms: N_6  and  C_15
    8  A    between atoms: C_10  and  C_21
    9  A    between atoms: C_10  and  C_34
   10  A    between atoms: C_12  and  C_46
   11  A    between atoms: C_14  and  C_57
   12  A    between atoms: C_14  and  C_58
   13  A    between atoms: C_15  and  C_41
   14  A    between atoms: C_17  and  C_45
   15  A    between atoms: C_17  and  C_57
   16  A    between atoms: N_19  and  C_46
   17  A    between atoms: C_28  and  C_39
   18  A    between atoms: C_28  and  C_56
   19  A    between atoms: O_31  and  C_43
   20  A    between atoms: O_31  and  C_51
   21  A    between atoms: C_32  and  C_53
   22  A    between atoms: C_33  and  C_46
   23  A    between atoms: C_34  and  C_51
   24  A    between atoms: O_36  and  N_44
   25  A    between atoms: O_36  and  C_50
   26  A    between atoms: C_39  and  C_53
   27  A    between atoms: C_43  and  C_56
   28  A    between atoms: C_47  and  C_59
   29  A    between atoms: C_51  and  C_58
                            x       y       z     vdW  Elec       q    Type
                         _______ _______ _______ _____ _____    ______ ____

>  <TORSDO>
F 29

$$$$
=
 OpenBabel11072409463D

 59 64  0  0  1  0  0  0  0  0999 V2000
  187.0550  177.6570  142.9250 C   0  0  1  0  0  3  0  0  0  0  0  0
  189.3400  177.3370  142.4610 O   0  0  0  0  0  0  0  0  0  0  0  0
  188.2140  176.8860  142.3430 C   0  0  0  0  0  0  0  0  0  0  0  0
  188.0090  175.6080  141.5880 C   0  0  0  0  0  2  0  0  0  0  0  0
  189.0420  172.3960  141.0730 N   0  0  0  0  0  0  0  0  0  0  0  0
  191.0290  172.6820  139.7800 N   0  0  0  0  0  2  0  0  0  0  0  0
  188.9270  174.5180  142.1230 C   0  0  1  0  0  3  0  0  0  0  0  0
  190.0350  173.1260  140.7010 C   0  0  0  0  0  0  0  0  0  0  0  0
  188.2280  173.1590  142.0100 C   0  0  0  0  0  2  0  0  0  0  0  0
  190.0570  174.3790  141.2710 O   0  0  0  0  0  0  0  0  0  0  0  0
  190.9740  171.3620  139.1630 C   0  0  0  0  0  3  0  0  0  0  0  0
  189.6890  171.2020  138.3530 C   0  0  0  0  0  2  0  0  0  0  0  0
  189.7590  170.0320  137.3780 C   0  0  0  0  0  1  0  0  0  0  0  0
  191.0940  170.2650  140.2140 C   0  0  0  0  0  2  0  0  0  0  0  0
  192.5350  169.7830  140.3320 C   0  0  0  0  0  1  0  0  0  0  0  0
  187.3850  178.3560  144.2490 C   0  0  0  0  0  2  0  0  0  0  0  0
  186.5450  177.8570  145.4310 C   0  0  1  0  0  3  0  0  0  0  0  0
  185.2890  177.4470  144.9850 O   0  0  0  0  0  0  0  0  0  0  0  0
  184.4000  178.3290  145.6010 C   0  0  0  0  0  1  0  0  0  0  0  0
  186.6370  176.4670  147.4450 O   0  0  0  0  0  1  0  0  0  0  0  0
  187.2660  176.7590  146.2260 C   0  0  2  0  0  3  0  0  0  0  0  0
  188.7550  177.0550  146.3850 C   0  0  0  0  0  2  0  0  0  0  0  0
  189.3760  174.7080  145.6330 N   0  0  0  0  0  2  0  0  0  0  0  0
  190.4950  175.7790  147.3840 O   0  0  0  0  0  0  0  0  0  0  0  0
  189.5840  175.8160  146.5110 C   0  0  0  0  0  0  0  0  0  0  0  0
  190.2130  173.5190  145.7480 C   0  0  0  0  0  2  0  0  0  0  0  0
  190.9370  173.2240  144.4410 C   0  0  0  0  0  2  0  0  0  0  0  0
  192.5380  170.9590  144.5350 O   0  0  0  0  0  0  0  0  0  0  0  0
  192.3950  173.2930  144.5910 N   0  0  0  0  0  0  0  0  0  0  0  0
  193.1420  172.0640  144.5090 C   0  0  0  0  0  0  0  0  0  0  0  0
  194.5620  172.0660  144.3750 N   0  0  0  0  0  0  0  0  0  0  0  0
  195.8660  171.3480  144.2630 C   0  0  0  0  0  2  0  0  0  0  0  0
  195.8940  172.7260  144.2230 C   0  0  0  0  0  2  0  0  0  0  0  0
  194.1810  175.9540  146.5500 C   0  0  0  0  0  3  0  0  0  0  0  0
  193.0220  174.5430  144.9370 C   0  0  0  0  0  0  0  0  0  0  0  0
  193.5480  174.7510  146.2250 C   0  0  0  0  0  3  0  0  0  0  0  0
  194.3130  176.9560  145.5840 C   0  0  0  0  0  3  0  0  0  0  0  0
  193.1910  175.5460  143.9680 C   0  0  0  0  0  3  0  0  0  0  0  0
  193.8250  176.7490  144.2920 C   0  0  0  0  0  3  0  0  0  0  0  0
  186.4950  178.5320  141.9890 O   0  0  0  0  0  0  0  0  0  0  0  0
  185.5160  177.7620  141.3470 C   0  0  2  0  0  3  0  0  0  0  0  0
  185.5640  177.8810  139.8170 C   0  0  0  0  0  2  0  0  0  0  0  0
  186.4670  176.8510  139.1490 C   0  0  0  0  0  2  0  0  0  0  0  0
  186.2750  176.8470  137.6390 C   0  0  0  0  0  2  0  0  0  0  0  0
  186.8550  175.5720  137.0380 C   0  0  0  0  0  2  0  0  0  0  0  0
  189.7580  175.5730  134.5130 O   0  0  0  0  0  1  0  0  0  0  0  0
  188.5180  175.2150  135.0380 C   0  0  2  0  0  0  0  0  0  0  0  0
  188.1810  175.8620  136.3660 C   0  0  2  0  0  0  0  0  0  0  0  0
  188.7870  174.6080  136.2630 O   0  0  0  0  0  0  0  0  0  0  0  0
  187.7910  176.3970  135.1370 O   0  0  0  0  0  0  0  0  0  0  0  0
  184.1320  177.9340  141.9800 C   0  0  0  0  0  2  0  0  0  0  0  0
  183.0430  178.4050  141.0230 C   0  0  0  0  0  2  0  0  0  0  0  0
  181.7880  178.4120  141.6440 O   0  0  0  0  0  0  0  0  0  0  0  0
  180.2500  179.4890  140.3050 C   0  0  0  0  0  2  0  0  0  0  0  0
  180.8770  178.1930  140.6520 N   0  0  0  0  0  0  0  0  0  0  0  0
  179.5030  178.5360  141.1190 C   0  0  1  0  0  3  0  0  0  0  0  0
  179.4340  178.9970  142.5790 C   0  0  0  0  0  2  0  0  0  0  0  0
  178.3340  178.2660  143.3380 C   0  0  0  0  0  2  0  0  0  0  0  0
  178.4100  178.5710  144.8250 C   0  0  0  0  0  1  0  0  0  0  0  0
  1 16  1  1  0  0  0
  3  2  2  0  0  0  0
  3  1  1  0  0  0  0
  4  3  1  0  0  0  0
  5  9  1  0  0  0  0
  6  8  1  0  0  0  0
  7  4  1  6  0  0  0
  8  5  2  0  0  0  0
  8 10  1  0  0  0  0
  9  7  1  0  0  0  0
 10  7  1  0  0  0  0
 11  6  1  0  0  0  0
 11 14  1  0  0  0  0
 12 11  1  0  0  0  0
 13 12  1  0  0  0  0
 14 15  1  0  0  0  0
 17 16  1  6  0  0  0
 17 21  1  0  0  0  0
 18 17  1  0  0  0  0
 18 19  1  0  0  0  0
 21 22  1  0  0  0  0
 21 20  1  1  0  0  0
 22 25  1  0  0  0  0
 23 26  1  0  0  0  0
 23 25  1  0  0  0  0
 25 24  2  0  0  0  0
 27 29  1  0  0  0  0
 27 26  1  0  0  0  0
 29 35  1  0  0  0  0
 30 28  2  0  0  0  0
 30 29  1  0  0  0  0
 31 30  1  0  0  0  0
 32 31  1  0  0  0  0
 33 32  1  0  0  0  0
 33 31  1  0  0  0  0
 35 36  2  0  0  0  0
 36 34  1  0  0  0  0
 37 34  2  0  0  0  0
 38 39  2  0  0  0  0
 38 35  1  0  0  0  0
 39 37  1  0  0  0  0
 40  1  1  0  0  0  0
 41 42  1  6  0  0  0
 41 51  1  0  0  0  0
 41 40  1  0  0  0  0
 43 42  1  0  0  0  0
 44 43  1  0  0  0  0
 45 44  1  0  0  0  0
 47 46  1  6  0  0  0
 47 50  1  0  0  0  0
 47 49  1  0  0  0  0
 47 48  1  0  0  0  0
 48 45  1  6  0  0  0
 49 48  1  0  0  0  0
 50 48  1  0  0  0  0
 52 53  1  0  0  0  0
 52 51  1  0  0  0  0
 54 55  1  0  0  0  0
 54 56  1  0  0  0  0
 55 56  1  0  0  0  0
 55 53  1  0  0  0  0
 56 57  1  1  0  0  0
 57 58  1  0  0  0  0
 58 59  1  0  0  0  0
M  END
>  <MODEL>
4

>  <REMARK>
 VINA RESULT:      -5.2      2.646      6.018
  Name = 
  29 active torsions:
  status: ('A' for Active; 'I' for Inactive)
    1  A    between atoms: O_1  and  C_14
    2  A    between atoms: C_3  and  C_59
    3  A    between atoms: C_4  and  C_43
    4  A    between atoms: C_4  and  C_50
    5  A    between atoms: N_5  and  C_25
    6  A    between atoms: N_5  and  C_41
    7  A    between atoms: N_6  and  C_15
    8  A    between atoms: C_10  and  C_21
    9  A    between atoms: C_10  and  C_34
   10  A    between atoms: C_12  and  C_46
   11  A    between atoms: C_14  and  C_57
   12  A    between atoms: C_14  and  C_58
   13  A    between atoms: C_15  and  C_41
   14  A    between atoms: C_17  and  C_45
   15  A    between atoms: C_17  and  C_57
   16  A    between atoms: N_19  and  C_46
   17  A    between atoms: C_28  and  C_39
   18  A    between atoms: C_28  and  C_56
   19  A    between atoms: O_31  and  C_43
   20  A    between atoms: O_31  and  C_51
   21  A    between atoms: C_32  and  C_53
   22  A    between atoms: C_33  and  C_46
   23  A    between atoms: C_34  and  C_51
   24  A    between atoms: O_36  and  N_44
   25  A    between atoms: O_36  and  C_50
   26  A    between atoms: C_39  and  C_53
   27  A    between atoms: C_43  and  C_56
   28  A    between atoms: C_47  and  C_59
   29  A    between atoms: C_51  and  C_58
                            x       y       z     vdW  Elec       q    Type
                         _______ _______ _______ _____ _____    ______ ____

>  <TORSDO>
F 29

$$$$
=
 OpenBabel11072409463D

 59 64  0  0  1  0  0  0  0  0999 V2000
  188.4680  174.9720  142.9930 C   0  0  1  0  0  3  0  0  0  0  0  0
  190.5410  174.8180  141.8880 O   0  0  0  0  0  0  0  0  0  0  0  0
  189.7300  174.2470  142.5970 C   0  0  0  0  0  0  0  0  0  0  0  0
  189.9880  172.8310  143.0140 C   0  0  0  0  0  2  0  0  0  0  0  0
  192.4950  170.5320  143.3090 N   0  0  0  0  0  0  0  0  0  0  0  0
  193.6770  170.7730  141.2480 N   0  0  0  0  0  2  0  0  0  0  0  0
  191.4430  172.6530  143.4290 C   0  0  1  0  0  3  0  0  0  0  0  0
  192.8160  171.2420  142.2850 C   0  0  0  0  0  0  0  0  0  0  0  0
  191.6070  171.3160  144.1590 C   0  0  0  0  0  2  0  0  0  0  0  0
  192.2580  172.5010  142.2730 O   0  0  0  0  0  0  0  0  0  0  0  0
  194.2360  169.4270  141.2620 C   0  0  0  0  0  3  0  0  0  0  0  0
  195.7620  169.4800  141.2960 C   0  0  0  0  0  2  0  0  0  0  0  0
  196.3100  169.5200  142.7180 C   0  0  0  0  0  1  0  0  0  0  0  0
  193.7460  168.6230  140.0640 C   0  0  0  0  0  2  0  0  0  0  0  0
  193.7420  169.4770  138.8030 C   0  0  0  0  0  1  0  0  0  0  0  0
  188.7230  176.3310  143.6550 C   0  0  0  0  0  2  0  0  0  0  0  0
  189.6980  176.2640  144.8370 C   0  0  1  0  0  3  0  0  0  0  0  0
  190.4670  177.4270  144.8880 O   0  0  0  0  0  0  0  0  0  0  0  0
  190.1990  178.0710  143.6790 C   0  0  0  0  0  1  0  0  0  0  0  0
  188.5400  177.1560  146.8010 O   0  0  0  0  0  1  0  0  0  0  0  0
  188.9770  175.9860  146.1630 C   0  0  2  0  0  3  0  0  0  0  0  0
  189.7980  175.0840  147.0800 C   0  0  0  0  0  2  0  0  0  0  0  0
  192.2900  175.1010  146.5750 N   0  0  0  0  0  2  0  0  0  0  0  0
  191.3460  176.5230  148.1720 O   0  0  0  0  0  0  0  0  0  0  0  0
  191.1810  175.6050  147.3210 C   0  0  0  0  0  0  0  0  0  0  0  0
  193.6270  175.6400  146.8000 C   0  0  0  0  0  2  0  0  0  0  0  0
  194.1720  176.3060  145.5430 C   0  0  0  0  0  2  0  0  0  0  0  0
  193.2670  176.3320  142.9190 O   0  0  0  0  0  0  0  0  0  0  0  0
  194.6110  175.3240  144.5460 N   0  0  0  0  0  0  0  0  0  0  0  0
  194.1730  175.4980  143.1840 C   0  0  0  0  0  0  0  0  0  0  0  0
  194.7610  174.7600  142.1150 N   0  0  0  0  0  0  0  0  0  0  0  0
  194.8510  174.4000  140.6690 C   0  0  0  0  0  2  0  0  0  0  0  0
  195.7350  173.7890  141.5320 C   0  0  0  0  0  2  0  0  0  0  0  0
  197.4090  173.1420  145.7800 C   0  0  0  0  0  3  0  0  0  0  0  0
  195.3510  174.1600  144.9640 C   0  0  0  0  0  0  0  0  0  0  0  0
  196.7010  174.2660  145.3470 C   0  0  0  0  0  3  0  0  0  0  0  0
  196.7700  171.9000  145.8520 C   0  0  0  0  0  3  0  0  0  0  0  0
  194.7140  172.9130  145.0740 C   0  0  0  0  0  3  0  0  0  0  0  0
  195.4210  171.7880  145.5080 C   0  0  0  0  0  3  0  0  0  0  0  0
  187.5680  175.0620  141.9270 O   0  0  0  0  0  0  0  0  0  0  0  0
  187.2370  176.4230  141.8760 C   0  0  2  0  0  3  0  0  0  0  0  0
  186.0030  176.7750  142.7190 C   0  0  0  0  0  2  0  0  0  0  0  0
  185.2160  177.9670  142.1870 C   0  0  0  0  0  2  0  0  0  0  0  0
  184.1410  178.4010  143.1730 C   0  0  0  0  0  2  0  0  0  0  0  0
  184.7350  179.3370  144.2200 C   0  0  0  0  0  2  0  0  0  0  0  0
  185.4700  177.8820  147.7050 O   0  0  0  0  0  1  0  0  0  0  0  0
  184.8260  178.6790  146.7600 C   0  0  2  0  0  0  0  0  0  0  0  0
  185.3570  178.5400  145.3470 C   0  0  2  0  0  0  0  0  0  0  0  0
  185.8110  179.5160  146.2380 O   0  0  0  0  0  0  0  0  0  0  0  0
  184.2770  177.8000  145.8320 O   0  0  0  0  0  0  0  0  0  0  0  0
  187.2370  176.9680  140.4440 C   0  0  0  0  0  2  0  0  0  0  0  0
  186.8090  175.9670  139.3770 C   0  0  0  0  0  2  0  0  0  0  0  0
  187.8990  175.5580  138.5990 O   0  0  0  0  0  0  0  0  0  0  0  0
  189.3410  173.7710  138.8060 C   0  0  0  0  0  2  0  0  0  0  0  0
  187.9280  174.1960  138.6790 N   0  0  0  0  0  0  0  0  0  0  0  0
  188.6680  173.6200  137.5200 C   0  0  1  0  0  3  0  0  0  0  0  0
  189.1680  174.6620  136.5140 C   0  0  0  0  0  2  0  0  0  0  0  0
  190.6430  174.4610  136.1950 C   0  0  0  0  0  2  0  0  0  0  0  0
  191.2360  175.7130  135.5700 C   0  0  0  0  0  1  0  0  0  0  0  0
  1 16  1  6  0  0  0
  2  3  2  0  0  0  0
  3  1  1  0  0  0  0
  3  4  1  0  0  0  0
  5  9  1  0  0  0  0
  6 11  1  0  0  0  0
  6  8  1  0  0  0  0
  7  4  1  6  0  0  0
  7  9  1  0  0  0  0
  8  5  2  0  0  0  0
 10  8  1  0  0  0  0
 10  7  1  0  0  0  0
 11 12  1  0  0  0  0
 12 13  1  0  0  0  0
 14 11  1  0  0  0  0
 15 14  1  0  0  0  0
 17 16  1  6  0  0  0
 17 18  1  0  0  0  0
 17 21  1  0  0  0  0
 19 18  1  0  0  0  0
 21 20  1  1  0  0  0
 21 22  1  0  0  0  0
 22 25  1  0  0  0  0
 23 26  1  0  0  0  0
 23 25  1  0  0  0  0
 25 24  2  0  0  0  0
 27 26  1  0  0  0  0
 28 30  2  0  0  0  0
 29 35  1  0  0  0  0
 29 27  1  0  0  0  0
 30 29  1  0  0  0  0
 31 30  1  0  0  0  0
 32 33  1  0  0  0  0
 32 31  1  0  0  0  0
 33 31  1  0  0  0  0
 34 37  1  0  0  0  0
 35 38  2  0  0  0  0
 35 36  1  0  0  0  0
 36 34  2  0  0  0  0
 38 39  1  0  0  0  0
 39 37  2  0  0  0  0
 40  1  1  0  0  0  0
 41 51  1  6  0  0  0
 41 40  1  0  0  0  0
 41 42  1  0  0  0  0
 43 42  1  0  0  0  0
 43 44  1  0  0  0  0
 44 45  1  0  0  0  0
 47 46  1  1  0  0  0
 48 45  1  6  0  0  0
 48 50  1  0  0  0  0
 48 49  1  0  0  0  0
 48 47  1  0  0  0  0
 49 47  1  0  0  0  0
 50 47  1  0  0  0  0
 52 51  1  0  0  0  0
 53 55  1  0  0  0  0
 53 52  1  0  0  0  0
 55 54  1  0  0  0  0
 56 57  1  6  0  0  0
 56 55  1  0  0  0  0
 56 54  1  0  0  0  0
 58 57  1  0  0  0  0
 59 58  1  0  0  0  0
M  END
>  <MODEL>
5

>  <REMARK>
 VINA RESULT:      -5.1      1.429      2.084
  Name = 
  29 active torsions:
  status: ('A' for Active; 'I' for Inactive)
    1  A    between atoms: O_1  and  C_14
    2  A    between atoms: C_3  and  C_59
    3  A    between atoms: C_4  and  C_43
    4  A    between atoms: C_4  and  C_50
    5  A    between atoms: N_5  and  C_25
    6  A    between atoms: N_5  and  C_41
    7  A    between atoms: N_6  and  C_15
    8  A    between atoms: C_10  and  C_21
    9  A    between atoms: C_10  and  C_34
   10  A    between atoms: C_12  and  C_46
   11  A    between atoms: C_14  and  C_57
   12  A    between atoms: C_14  and  C_58
   13  A    between atoms: C_15  and  C_41
   14  A    between atoms: C_17  and  C_45
   15  A    between atoms: C_17  and  C_57
   16  A    between atoms: N_19  and  C_46
   17  A    between atoms: C_28  and  C_39
   18  A    between atoms: C_28  and  C_56
   19  A    between atoms: O_31  and  C_43
   20  A    between atoms: O_31  and  C_51
   21  A    between atoms: C_32  and  C_53
   22  A    between atoms: C_33  and  C_46
   23  A    between atoms: C_34  and  C_51
   24  A    between atoms: O_36  and  N_44
   25  A    between atoms: O_36  and  C_50
   26  A    between atoms: C_39  and  C_53
   27  A    between atoms: C_43  and  C_56
   28  A    between atoms: C_47  and  C_59
   29  A    between atoms: C_51  and  C_58
                            x       y       z     vdW  Elec       q    Type
                         _______ _______ _______ _____ _____    ______ ____

>  <TORSDO>
F 29

$$$$
=
 OpenBabel11072409463D

 59 64  0  0  1  0  0  0  0  0999 V2000
  190.3630  172.7660  141.9680 C   0  0  1  0  0  3  0  0  0  0  0  0
  189.4600  173.5400  144.0000 O   0  0  0  0  0  0  0  0  0  0  0  0
  190.0970  173.8320  143.0020 C   0  0  0  0  0  0  0  0  0  0  0  0
  190.5560  175.2450  142.8110 C   0  0  0  0  0  2  0  0  0  0  0  0
  187.1890  175.7810  142.9730 N   0  0  0  0  0  0  0  0  0  0  0  0
  187.0110  177.5340  144.5850 N   0  0  0  0  0  2  0  0  0  0  0  0
  189.4260  176.1050  142.2610 C   0  0  1  0  0  3  0  0  0  0  0  0
  187.7120  176.7750  143.6020 C   0  0  0  0  0  0  0  0  0  0  0  0
  188.1790  175.2390  142.0520 C   0  0  0  0  0  2  0  0  0  0  0  0
  189.0140  177.0450  143.2450 O   0  0  0  0  0  0  0  0  0  0  0  0
  185.6420  177.2150  144.9720 C   0  0  0  0  0  3  0  0  0  0  0  0
  184.7080  178.3790  144.6470 C   0  0  0  0  0  2  0  0  0  0  0  0
  183.8870  178.8190  145.8550 C   0  0  0  0  0  1  0  0  0  0  0  0
  185.5660  176.8520  146.4490 C   0  0  0  0  0  2  0  0  0  0  0  0
  186.9610  176.7170  147.0470 C   0  0  0  0  0  1  0  0  0  0  0  0
  190.1010  171.3420  142.4730 C   0  0  0  0  0  2  0  0  0  0  0  0
  191.3680  170.4800  142.5570 C   0  0  1  0  0  3  0  0  0  0  0  0
  191.8580  170.2250  141.2760 O   0  0  0  0  0  0  0  0  0  0  0  0
  191.1710  169.0820  140.8650 C   0  0  0  0  0  1  0  0  0  0  0  0
  193.3370  171.9200  142.7760 O   0  0  0  0  0  1  0  0  0  0  0  0
  192.4300  171.1060  143.4720 C   0  0  2  0  0  3  0  0  0  0  0  0
  193.1210  170.0600  144.3410 C   0  0  0  0  0  2  0  0  0  0  0  0
  195.3950  171.1660  144.0760 N   0  0  0  0  0  2  0  0  0  0  0  0
  194.6210  170.4210  146.1520 O   0  0  0  0  0  0  0  0  0  0  0  0
  194.4180  170.5420  144.9120 C   0  0  0  0  0  0  0  0  0  0  0  0
  196.6410  171.6580  144.6520 C   0  0  0  0  0  2  0  0  0  0  0  0
  196.4040  172.9050  145.4950 C   0  0  0  0  0  2  0  0  0  0  0  0
  197.2950  173.9250  143.0720 O   0  0  0  0  0  0  0  0  0  0  0  0
  195.6710  173.9380  144.7550 N   0  0  0  0  0  0  0  0  0  0  0  0
  196.1570  174.3120  143.4520 C   0  0  0  0  0  0  0  0  0  0  0  0
  195.3680  175.0980  142.5620 N   0  0  0  0  0  0  0  0  0  0  0  0
  195.1780  175.8110  141.2640 C   0  0  0  0  0  2  0  0  0  0  0  0
  194.1300  175.8320  142.1600 C   0  0  0  0  0  2  0  0  0  0  0  0
  192.2550  174.6980  146.1210 C   0  0  0  0  0  3  0  0  0  0  0  0
  194.5770  174.6320  145.3880 C   0  0  0  0  0  0  0  0  0  0  0  0
  193.3070  174.0360  145.4810 C   0  0  0  0  0  3  0  0  0  0  0  0
  192.4670  175.9570  146.6900 C   0  0  0  0  0  3  0  0  0  0  0  0
  194.7830  175.8820  145.9930 C   0  0  0  0  0  3  0  0  0  0  0  0
  193.7330  176.5450  146.6330 C   0  0  0  0  0  3  0  0  0  0  0  0
  189.6970  173.0330  140.7680 O   0  0  0  0  0  0  0  0  0  0  0  0
  190.6280  172.6900  139.7790 C   0  0  2  0  0  3  0  0  0  0  0  0
  191.8400  173.6310  139.7400 C   0  0  0  0  0  2  0  0  0  0  0  0
  193.1420  172.9400  139.3550 C   0  0  0  0  0  2  0  0  0  0  0  0
  193.7600  173.5780  138.1190 C   0  0  0  0  0  2  0  0  0  0  0  0
  195.2760  173.6450  138.2640 C   0  0  0  0  0  2  0  0  0  0  0  0
  197.5500  170.9110  139.7300 O   0  0  0  0  0  1  0  0  0  0  0  0
  197.2010  171.9800  138.9070 C   0  0  2  0  0  0  0  0  0  0  0  0
  195.7800  172.4760  139.0840 C   0  0  2  0  0  0  0  0  0  0  0  0
  196.1410  171.5250  138.1260 O   0  0  0  0  0  0  0  0  0  0  0  0
  196.8680  173.0250  139.7630 O   0  0  0  0  0  0  0  0  0  0  0  0
  189.9640  172.4110  138.4260 C   0  0  0  0  0  2  0  0  0  0  0  0
  190.1740  171.0000  137.8890 C   0  0  0  0  0  2  0  0  0  0  0  0
  191.1750  170.9720  136.9110 O   0  0  0  0  0  0  0  0  0  0  0  0
  191.4670  169.8390  134.9240 C   0  0  0  0  0  2  0  0  0  0  0  0
  190.5480  170.6670  135.7380 N   0  0  0  0  0  0  0  0  0  0  0  0
  191.2900  171.2460  134.5820 C   0  0  1  0  0  3  0  0  0  0  0  0
  192.5230  172.0660  134.9750 C   0  0  0  0  0  2  0  0  0  0  0  0
  193.8080  171.3900  134.5130 C   0  0  0  0  0  2  0  0  0  0  0  0
  195.0180  172.2440  134.8500 C   0  0  0  0  0  1  0  0  0  0  0  0
  1 16  1  1  0  0  0
  1  3  1  0  0  0  0
  3  2  2  0  0  0  0
  4  3  1  0  0  0  0
  5  8  2  0  0  0  0
  6 11  1  0  0  0  0
  7  4  1  1  0  0  0
  7 10  1  0  0  0  0
  8  6  1  0  0  0  0
  9  7  1  0  0  0  0
  9  5  1  0  0  0  0
 10  8  1  0  0  0  0
 11 14  1  0  0  0  0
 12 11  1  0  0  0  0
 12 13  1  0  0  0  0
 14 15  1  0  0  0  0
 17 16  1  6  0  0  0
 17 21  1  0  0  0  0
 18 17  1  0  0  0  0
 19 18  1  0  0  0  0
 21 20  1  6  0  0  0
 21 22  1  0  0  0  0
 22 25  1  0  0  0  0
 23 26  1  0  0  0  0
 23 25  1  0  0  0  0
 25 24  2  0  0  0  0
 26 27  1  0  0  0  0
 28 30  2  0  0  0  0
 29 35  1  0  0  0  0
 29 27  1  0  0  0  0
 30 29  1  0  0  0  0
 31 30  1  0  0  0  0
 32 33  1  0  0  0  0
 32 31  1  0  0  0  0
 33 31  1  0  0  0  0
 34 37  1  0  0  0  0
 35 36  1  0  0  0  0
 35 38  2  0  0  0  0
 36 34  2  0  0  0  0
 38 39  1  0  0  0  0
 39 37  2  0  0  0  0
 40  1  1  0  0  0  0
 41 51  1  6  0  0  0
 41 40  1  0  0  0  0
 42 41  1  0  0  0  0
 43 42  1  0  0  0  0
 44 45  1  0  0  0  0
 44 43  1  0  0  0  0
 47 48  1  0  0  0  0
 47 46  1  1  0  0  0
 47 50  1  0  0  0  0
 48 45  1  6  0  0  0
 48 50  1  0  0  0  0
 49 47  1  0  0  0  0
 49 48  1  0  0  0  0
 52 51  1  0  0  0  0
 53 52  1  0  0  0  0
 54 55  1  0  0  0  0
 55 53  1  0  0  0  0
 56 54  1  0  0  0  0
 56 57  1  1  0  0  0
 56 55  1  0  0  0  0
 58 59  1  0  0  0  0
 58 57  1  0  0  0  0
M  END
>  <MODEL>
6

>  <REMARK>
 VINA RESULT:      -4.6      3.087      8.110
  Name = 
  29 active torsions:
  status: ('A' for Active; 'I' for Inactive)
    1  A    between atoms: O_1  and  C_14
    2  A    between atoms: C_3  and  C_59
    3  A    between atoms: C_4  and  C_43
    4  A    between atoms: C_4  and  C_50
    5  A    between atoms: N_5  and  C_25
    6  A    between atoms: N_5  and  C_41
    7  A    between atoms: N_6  and  C_15
    8  A    between atoms: C_10  and  C_21
    9  A    between atoms: C_10  and  C_34
   10  A    between atoms: C_12  and  C_46
   11  A    between atoms: C_14  and  C_57
   12  A    between atoms: C_14  and  C_58
   13  A    between atoms: C_15  and  C_41
   14  A    between atoms: C_17  and  C_45
   15  A    between atoms: C_17  and  C_57
   16  A    between atoms: N_19  and  C_46
   17  A    between atoms: C_28  and  C_39
   18  A    between atoms: C_28  and  C_56
   19  A    between atoms: O_31  and  C_43
   20  A    between atoms: O_31  and  C_51
   21  A    between atoms: C_32  and  C_53
   22  A    between atoms: C_33  and  C_46
   23  A    between atoms: C_34  and  C_51
   24  A    between atoms: O_36  and  N_44
   25  A    between atoms: O_36  and  C_50
   26  A    between atoms: C_39  and  C_53
   27  A    between atoms: C_43  and  C_56
   28  A    between atoms: C_47  and  C_59
   29  A    between atoms: C_51  and  C_58
                            x       y       z     vdW  Elec       q    Type
                         _______ _______ _______ _____ _____    ______ ____

>  <TORSDO>
F 29

$$$$
=
 OpenBabel11072409463D

 59 64  0  0  1  0  0  0  0  0999 V2000
  189.6880  173.3510  141.0980 C   0  0  1  0  0  3  0  0  0  0  0  0
  188.2170  172.9560  139.3030 O   0  0  0  0  0  0  0  0  0  0  0  0
  189.3480  173.2750  139.6310 C   0  0  0  0  0  0  0  0  0  0  0  0
  190.3730  173.5370  138.5710 C   0  0  0  0  0  2  0  0  0  0  0  0
  193.0250  172.1230  136.9500 N   0  0  0  0  0  0  0  0  0  0  0  0
  194.7930  173.6690  137.3820 N   0  0  0  0  0  2  0  0  0  0  0  0
  191.5830  172.6320  138.7610 C   0  0  1  0  0  3  0  0  0  0  0  0
  193.5390  173.0550  137.6740 C   0  0  0  0  0  0  0  0  0  0  0  0
  191.7480  171.7310  137.5330 C   0  0  0  0  0  2  0  0  0  0  0  0
  192.7730  173.4110  138.7610 O   0  0  0  0  0  0  0  0  0  0  0  0
  195.5770  173.3000  136.2100 C   0  0  0  0  0  3  0  0  0  0  0  0
  196.8600  172.5830  136.6270 C   0  0  0  0  0  2  0  0  0  0  0  0
  197.7580  173.4580  137.4950 C   0  0  0  0  0  1  0  0  0  0  0  0
  195.8890  174.5230  135.3570 C   0  0  0  0  0  2  0  0  0  0  0  0
  195.3320  175.7870  135.9990 C   0  0  0  0  0  1  0  0  0  0  0  0
  190.0040  171.9890  141.7270 C   0  0  0  0  0  2  0  0  0  0  0  0
  190.4050  172.0740  143.2050 C   0  0  1  0  0  3  0  0  0  0  0  0
  189.2820  171.9020  144.0150 O   0  0  0  0  0  0  0  0  0  0  0  0
  189.6840  172.3680  145.2670 C   0  0  0  0  0  1  0  0  0  0  0  0
  192.6250  171.7120  144.1720 O   0  0  0  0  0  1  0  0  0  0  0  0
  191.5290  171.0900  143.5550 C   0  0  2  0  0  3  0  0  0  0  0  0
  191.9320  170.2370  142.3550 C   0  0  0  0  0  2  0  0  0  0  0  0
  194.3550  169.4700  142.2830 N   0  0  0  0  0  2  0  0  0  0  0  0
  192.6950  168.2140  143.3470 O   0  0  0  0  0  0  0  0  0  0  0  0
  193.0020  169.2420  142.6820 C   0  0  0  0  0  0  0  0  0  0  0  0
  195.3920  168.5060  142.6350 C   0  0  0  0  0  2  0  0  0  0  0  0
  196.7560  169.1770  142.7410 C   0  0  0  0  0  2  0  0  0  0  0  0
  197.9150  171.6980  142.6670 O   0  0  0  0  0  0  0  0  0  0  0  0
  196.8570  170.0350  143.9270 N   0  0  0  0  0  0  0  0  0  0  0  0
  197.3680  171.3710  143.7540 C   0  0  0  0  0  0  0  0  0  0  0  0
  197.2500  172.3500  144.7850 N   0  0  0  0  0  0  0  0  0  0  0  0
  197.4930  173.7230  145.3180 C   0  0  0  0  0  2  0  0  0  0  0  0
  196.8040  172.8410  146.1240 C   0  0  0  0  0  2  0  0  0  0  0  0
  197.3220  168.4770  147.3130 C   0  0  0  0  0  3  0  0  0  0  0  0
  196.5690  169.4930  145.2300 C   0  0  0  0  0  0  0  0  0  0  0  0
  197.5980  168.9760  146.0370 C   0  0  0  0  0  3  0  0  0  0  0  0
  196.0130  168.5060  147.8040 C   0  0  0  0  0  3  0  0  0  0  0  0
  195.2650  169.5450  145.7510 C   0  0  0  0  0  3  0  0  0  0  0  0
  194.9870  169.0480  147.0260 C   0  0  0  0  0  3  0  0  0  0  0  0
  190.6890  174.2940  141.3480 O   0  0  0  0  0  0  0  0  0  0  0  0
  190.0190  175.3370  142.0010 C   0  0  2  0  0  3  0  0  0  0  0  0
  190.7920  175.8890  143.2070 C   0  0  0  0  0  2  0  0  0  0  0  0
  192.3060  175.8280  143.0450 C   0  0  0  0  0  2  0  0  0  0  0  0
  193.0110  176.0280  144.3790 C   0  0  0  0  0  2  0  0  0  0  0  0
  192.5810  174.9510  145.3680 C   0  0  0  0  0  2  0  0  0  0  0  0
  191.3510  176.7620  148.5320 O   0  0  0  0  0  1  0  0  0  0  0  0
  191.3000  176.3070  147.2160 C   0  0  2  0  0  0  0  0  0  0  0  0
  192.5160  175.5190  146.7710 C   0  0  2  0  0  0  0  0  0  0  0  0
  192.3850  176.8960  146.5700 O   0  0  0  0  0  0  0  0  0  0  0  0
  191.3670  174.9190  147.2900 O   0  0  0  0  0  0  0  0  0  0  0  0
  188.5430  175.0110  142.2560 C   0  0  0  0  0  2  0  0  0  0  0  0
  187.6900  176.1980  142.6870 C   0  0  0  0  0  2  0  0  0  0  0  0
  186.3810  175.8010  142.9870 O   0  0  0  0  0  0  0  0  0  0  0  0
  186.3020  178.0780  143.3380 C   0  0  0  0  0  2  0  0  0  0  0  0
  185.5990  176.9000  142.7820 N   0  0  0  0  0  0  0  0  0  0  0  0
  185.1900  177.5000  144.0840 C   0  0  1  0  0  3  0  0  0  0  0  0
  185.6920  176.7340  145.3130 C   0  0  0  0  0  2  0  0  0  0  0  0
  186.2560  177.6830  146.3630 C   0  0  0  0  0  2  0  0  0  0  0  0
  185.1610  178.1630  147.3000 C   0  0  0  0  0  1  0  0  0  0  0  0
  1 40  1  0  0  0  0
  1 16  1  6  0  0  0
  2  3  2  0  0  0  0
  3  1  1  0  0  0  0
  4  3  1  0  0  0  0
  5  9  1  0  0  0  0
  5  8  2  0  0  0  0
  6  8  1  0  0  0  0
  7  4  1  6  0  0  0
  7 10  1  0  0  0  0
  8 10  1  0  0  0  0
  9  7  1  0  0  0  0
 11 12  1  0  0  0  0
 11  6  1  0  0  0  0
 12 13  1  0  0  0  0
 14 15  1  0  0  0  0
 14 11  1  0  0  0  0
 17 16  1  6  0  0  0
 17 21  1  0  0  0  0
 17 18  1  0  0  0  0
 18 19  1  0  0  0  0
 21 20  1  6  0  0  0
 22 25  1  0  0  0  0
 22 21  1  0  0  0  0
 23 26  1  0  0  0  0
 23 25  1  0  0  0  0
 25 24  2  0  0  0  0
 26 27  1  0  0  0  0
 27 29  1  0  0  0  0
 28 30  2  0  0  0  0
 29 35  1  0  0  0  0
 30 29  1  0  0  0  0
 30 31  1  0  0  0  0
 31 32  1  0  0  0  0
 31 33  1  0  0  0  0
 32 33  1  0  0  0  0
 34 37  1  0  0  0  0
 35 38  2  0  0  0  0
 35 36  1  0  0  0  0
 36 34  2  0  0  0  0
 38 39  1  0  0  0  0
 39 37  2  0  0  0  0
 40 41  1  0  0  0  0
 41 51  1  1  0  0  0
 41 42  1  0  0  0  0
 43 42  1  0  0  0  0
 43 44  1  0  0  0  0
 44 45  1  0  0  0  0
 47 50  1  0  0  0  0
 47 46  1  1  0  0  0
 48 45  1  6  0  0  0
 48 47  1  0  0  0  0
 48 50  1  0  0  0  0
 49 48  1  0  0  0  0
 49 47  1  0  0  0  0
 51 52  1  0  0  0  0
 52 53  1  0  0  0  0
 54 56  1  0  0  0  0
 55 53  1  0  0  0  0
 55 54  1  0  0  0  0
 55 56  1  0  0  0  0
 56 57  1  1  0  0  0
 57 58  1  0  0  0  0
 58 59  1  0  0  0  0
M  END
>  <MODEL>
7

>  <REMARK>
 VINA RESULT:      -4.5      2.954      6.331
  Name = 
  29 active torsions:
  status: ('A' for Active; 'I' for Inactive)
    1  A    between atoms: O_1  and  C_14
    2  A    between atoms: C_3  and  C_59
    3  A    between atoms: C_4  and  C_43
    4  A    between atoms: C_4  and  C_50
    5  A    between atoms: N_5  and  C_25
    6  A    between atoms: N_5  and  C_41
    7  A    between atoms: N_6  and  C_15
    8  A    between atoms: C_10  and  C_21
    9  A    between atoms: C_10  and  C_34
   10  A    between atoms: C_12  and  C_46
   11  A    between atoms: C_14  and  C_57
   12  A    between atoms: C_14  and  C_58
   13  A    between atoms: C_15  and  C_41
   14  A    between atoms: C_17  and  C_45
   15  A    between atoms: C_17  and  C_57
   16  A    between atoms: N_19  and  C_46
   17  A    between atoms: C_28  and  C_39
   18  A    between atoms: C_28  and  C_56
   19  A    between atoms: O_31  and  C_43
   20  A    between atoms: O_31  and  C_51
   21  A    between atoms: C_32  and  C_53
   22  A    between atoms: C_33  and  C_46
   23  A    between atoms: C_34  and  C_51
   24  A    between atoms: O_36  and  N_44
   25  A    between atoms: O_36  and  C_50
   26  A    between atoms: C_39  and  C_53
   27  A    between atoms: C_43  and  C_56
   28  A    between atoms: C_47  and  C_59
   29  A    between atoms: C_51  and  C_58
                            x       y       z     vdW  Elec       q    Type
                         _______ _______ _______ _____ _____    ______ ____

>  <TORSDO>
F 29

$$$$
=
 OpenBabel11072409463D

 59 64  0  0  1  0  0  0  0  0999 V2000
  188.6840  176.1990  142.9740 C   0  0  1  0  0  3  0  0  0  0  0  0
  190.3590  177.7990  142.5530 O   0  0  0  0  0  0  0  0  0  0  0  0
  189.9560  176.9360  143.3140 C   0  0  0  0  0  0  0  0  0  0  0  0
  190.7550  176.6030  144.5360 C   0  0  0  0  0  2  0  0  0  0  0  0
  194.0470  176.0990  145.2910 N   0  0  0  0  0  0  0  0  0  0  0  0
  194.9270  175.2220  143.2520 N   0  0  0  0  0  2  0  0  0  0  0  0
  192.1390  177.2340  144.4590 C   0  0  1  0  0  3  0  0  0  0  0  0
  193.9760  175.9650  144.0130 C   0  0  0  0  0  0  0  0  0  0  0  0
  192.9210  176.9120  145.7360 C   0  0  0  0  0  2  0  0  0  0  0  0
  192.9000  176.6030  143.4370 O   0  0  0  0  0  0  0  0  0  0  0  0
  196.0450  174.5290  143.8820 C   0  0  0  0  0  3  0  0  0  0  0  0
  195.9060  174.5580  145.4020 C   0  0  0  0  0  2  0  0  0  0  0  0
  196.7580  173.4930  146.0840 C   0  0  0  0  0  1  0  0  0  0  0  0
  197.3740  175.1300  143.4440 C   0  0  0  0  0  2  0  0  0  0  0  0
  197.7500  174.6560  142.0460 C   0  0  0  0  0  1  0  0  0  0  0  0
  188.7950  174.6780  143.1330 C   0  0  0  0  0  2  0  0  0  0  0  0
  190.2350  174.1860  143.3220 C   0  0  1  0  0  3  0  0  0  0  0  0
  190.2960  173.2890  144.3890 O   0  0  0  0  0  0  0  0  0  0  0  0
  191.6520  172.9760  144.5000 C   0  0  0  0  0  1  0  0  0  0  0  0
  191.5010  174.5400  141.2570 O   0  0  0  0  0  1  0  0  0  0  0  0
  190.8160  173.5920  142.0310 C   0  0  2  0  0  3  0  0  0  0  0  0
  189.7640  172.8260  141.2340 C   0  0  0  0  0  2  0  0  0  0  0  0
  190.6970  171.7500  139.1280 N   0  0  0  0  0  2  0  0  0  0  0  0
  190.5130  170.5710  141.1380 O   0  0  0  0  0  0  0  0  0  0  0  0
  190.3310  171.6480  140.5060 C   0  0  0  0  0  0  0  0  0  0  0  0
  191.2770  170.6020  138.4400 C   0  0  0  0  0  2  0  0  0  0  0  0
  191.6170  170.9400  136.9940 C   0  0  0  0  0  2  0  0  0  0  0  0
  190.7180  173.1390  135.5580 O   0  0  0  0  0  0  0  0  0  0  0  0
  192.3900  172.1830  136.8860 N   0  0  0  0  0  0  0  0  0  0  0  0
  191.7790  173.3030  136.2180 C   0  0  0  0  0  0  0  0  0  0  0  0
  192.3370  174.6130  136.3020 N   0  0  0  0  0  0  0  0  0  0  0  0
  192.3300  176.0630  135.9480 C   0  0  0  0  0  2  0  0  0  0  0  0
  193.3280  175.6190  136.7890 C   0  0  0  0  0  2  0  0  0  0  0  0
  196.1420  172.0090  136.8590 C   0  0  0  0  0  3  0  0  0  0  0  0
  193.7600  172.2160  137.3300 C   0  0  0  0  0  0  0  0  0  0  0  0
  194.8110  171.9480  136.4350 C   0  0  0  0  0  3  0  0  0  0  0  0
  196.4370  172.3570  138.1810 C   0  0  0  0  0  3  0  0  0  0  0  0
  194.0740  172.5960  138.6450 C   0  0  0  0  0  3  0  0  0  0  0  0
  195.4030  172.6590  139.0710 C   0  0  0  0  0  3  0  0  0  0  0  0
  187.5840  176.7240  143.6590 O   0  0  0  0  0  0  0  0  0  0  0  0
  186.7460  177.2000  142.6410 C   0  0  2  0  0  3  0  0  0  0  0  0
  187.2000  176.7740  141.2380 C   0  0  0  0  0  2  0  0  0  0  0  0
  186.8370  177.7740  140.1460 C   0  0  0  0  0  2  0  0  0  0  0  0
  186.2710  177.0680  138.9220 C   0  0  0  0  0  2  0  0  0  0  0  0
  187.2090  175.9520  138.4770 C   0  0  0  0  0  2  0  0  0  0  0  0
  187.7890  175.6790  134.6840 O   0  0  0  0  0  1  0  0  0  0  0  0
  188.0820  176.0240  136.0020 C   0  0  2  0  0  0  0  0  0  0  0  0
  187.0100  175.6500  137.0060 C   0  0  2  0  0  0  0  0  0  0  0  0
  187.0750  176.9050  136.3940 O   0  0  0  0  0  0  0  0  0  0  0  0
  188.0990  174.8280  136.7130 O   0  0  0  0  0  0  0  0  0  0  0  0
  186.4160  178.6870  142.8060 C   0  0  0  0  0  2  0  0  0  0  0  0
  185.1150  178.9760  143.5460 C   0  0  0  0  0  2  0  0  0  0  0  0
  184.7930  177.9400  144.4310 O   0  0  0  0  0  0  0  0  0  0  0  0
  185.5650  179.1800  146.2150 C   0  0  0  0  0  2  0  0  0  0  0  0
  184.3850  178.5440  145.5850 N   0  0  0  0  0  0  0  0  0  0  0  0
  185.0580  177.9270  146.7640 C   0  0  1  0  0  3  0  0  0  0  0  0
  185.9880  176.7600  146.4150 C   0  0  0  0  0  2  0  0  0  0  0  0
  187.4100  177.0230  146.8930 C   0  0  0  0  0  2  0  0  0  0  0  0
  188.1940  175.7260  146.9950 C   0  0  0  0  0  1  0  0  0  0  0  0
  1 16  1  1  0  0  0
  1  3  1  0  0  0  0
  1 40  1  0  0  0  0
  2  3  2  0  0  0  0
  3  4  1  0  0  0  0
  5  9  1  0  0  0  0
  6 11  1  0  0  0  0
  6  8  1  0  0  0  0
  7  4  1  1  0  0  0
  7  9  1  0  0  0  0
  8  5  2  0  0  0  0
 10  8  1  0  0  0  0
 10  7  1  0  0  0  0
 11 12  1  0  0  0  0
 12 13  1  0  0  0  0
 14 11  1  0  0  0  0
 15 14  1  0  0  0  0
 17 16  1  6  0  0  0
 17 18  1  0  0  0  0
 18 19  1  0  0  0  0
 21 20  1  6  0  0  0
 21 17  1  0  0  0  0
 22 21  1  0  0  0  0
 23 25  1  0  0  0  0
 25 24  2  0  0  0  0
 25 22  1  0  0  0  0
 26 23  1  0  0  0  0
 27 26  1  0  0  0  0
 28 30  2  0  0  0  0
 29 27  1  0  0  0  0
 29 35  1  0  0  0  0
 30 31  1  0  0  0  0
 30 29  1  0  0  0  0
 31 33  1  0  0  0  0
 32 31  1  0  0  0  0
 32 33  1  0  0  0  0
 34 37  1  0  0  0  0
 35 38  2  0  0  0  0
 36 34  2  0  0  0  0
 36 35  1  0  0  0  0
 37 39  2  0  0  0  0
 38 39  1  0  0  0  0
 41 42  1  6  0  0  0
 41 51  1  0  0  0  0
 41 40  1  0  0  0  0
 43 42  1  0  0  0  0
 44 43  1  0  0  0  0
 45 44  1  0  0  0  0
 47 46  1  6  0  0  0
 47 49  1  0  0  0  0
 47 50  1  0  0  0  0
 47 48  1  0  0  0  0
 48 45  1  1  0  0  0
 49 48  1  0  0  0  0
 50 48  1  0  0  0  0
 51 52  1  0  0  0  0
 52 53  1  0  0  0  0
 53 55  1  0  0  0  0
 54 56  1  0  0  0  0
 55 54  1  0  0  0  0
 55 56  1  0  0  0  0
 56 57  1  6  0  0  0
 57 58  1  0  0  0  0
 58 59  1  0  0  0  0
M  END
>  <MODEL>
8

>  <REMARK>
 VINA RESULT:      -4.5      2.507      7.557
  Name = 
  29 active torsions:
  status: ('A' for Active; 'I' for Inactive)
    1  A    between atoms: O_1  and  C_14
    2  A    between atoms: C_3  and  C_59
    3  A    between atoms: C_4  and  C_43
    4  A    between atoms: C_4  and  C_50
    5  A    between atoms: N_5  and  C_25
    6  A    between atoms: N_5  and  C_41
    7  A    between atoms: N_6  and  C_15
    8  A    between atoms: C_10  and  C_21
    9  A    between atoms: C_10  and  C_34
   10  A    between atoms: C_12  and  C_46
   11  A    between atoms: C_14  and  C_57
   12  A    between atoms: C_14  and  C_58
   13  A    between atoms: C_15  and  C_41
   14  A    between atoms: C_17  and  C_45
   15  A    between atoms: C_17  and  C_57
   16  A    between atoms: N_19  and  C_46
   17  A    between atoms: C_28  and  C_39
   18  A    between atoms: C_28  and  C_56
   19  A    between atoms: O_31  and  C_43
   20  A    between atoms: O_31  and  C_51
   21  A    between atoms: C_32  and  C_53
   22  A    between atoms: C_33  and  C_46
   23  A    between atoms: C_34  and  C_51
   24  A    between atoms: O_36  and  N_44
   25  A    between atoms: O_36  and  C_50
   26  A    between atoms: C_39  and  C_53
   27  A    between atoms: C_43  and  C_56
   28  A    between atoms: C_47  and  C_59
   29  A    between atoms: C_51  and  C_58
                            x       y       z     vdW  Elec       q    Type
                         _______ _______ _______ _____ _____    ______ ____

>  <TORSDO>
F 29

$$$$
=
 OpenBabel11072409463D

 59 64  0  0  1  0  0  0  0  0999 V2000
  188.0610  176.6420  142.7130 C   0  0  1  0  0  3  0  0  0  0  0  0
  187.2180  177.5400  140.7060 O   0  0  0  0  0  0  0  0  0  0  0  0
  186.9440  177.1210  141.8180 C   0  0  0  0  0  0  0  0  0  0  0  0
  185.5190  177.1350  142.2780 C   0  0  0  0  0  2  0  0  0  0  0  0
  182.8750  178.3460  140.4890 N   0  0  0  0  0  0  0  0  0  0  0  0
  181.2060  178.6670  142.1660 N   0  0  0  0  0  2  0  0  0  0  0  0
  184.8260  178.4170  141.8340 C   0  0  1  0  0  3  0  0  0  0  0  0
  182.5540  178.5350  141.7210 C   0  0  0  0  0  0  0  0  0  0  0  0
  184.3270  178.2560  140.3940 C   0  0  0  0  0  2  0  0  0  0  0  0
  183.6290  178.6010  142.5800 O   0  0  0  0  0  0  0  0  0  0  0  0
  180.0780  178.5660  141.2470 C   0  0  0  0  0  3  0  0  0  0  0  0
  179.9150  179.8610  140.4540 C   0  0  0  0  0  2  0  0  0  0  0  0
  178.4590  180.3020  140.3560 C   0  0  0  0  0  1  0  0  0  0  0  0
  178.7970  178.2200  141.9940 C   0  0  0  0  0  2  0  0  0  0  0  0
  178.9530  178.4810  143.4870 C   0  0  0  0  0  1  0  0  0  0  0  0
  188.1700  177.4220  144.0290 C   0  0  0  0  0  2  0  0  0  0  0  0
  189.3020  176.9300  144.9400 C   0  0  1  0  0  3  0  0  0  0  0  0
  190.2660  177.9280  145.0840 O   0  0  0  0  0  0  0  0  0  0  0  0
  191.0840  177.7820  143.9630 C   0  0  0  0  0  1  0  0  0  0  0  0
  188.8190  177.4140  147.2910 O   0  0  0  0  0  1  0  0  0  0  0  0
  188.7760  176.4300  146.2920 C   0  0  2  0  0  3  0  0  0  0  0  0
  189.4470  175.1270  146.7170 C   0  0  0  0  0  2  0  0  0  0  0  0
  191.6570  174.3440  145.7320 N   0  0  0  0  0  2  0  0  0  0  0  0
  191.5560  176.0230  147.3550 O   0  0  0  0  0  0  0  0  0  0  0  0
  190.9410  175.1880  146.6360 C   0  0  0  0  0  0  0  0  0  0  0  0
  193.1090  174.4370  145.6420 C   0  0  0  0  0  2  0  0  0  0  0  0
  193.5890  174.2130  144.2130 C   0  0  0  0  0  2  0  0  0  0  0  0
  194.5010  172.2680  145.9720 O   0  0  0  0  0  0  0  0  0  0  0  0
  194.9580  173.6870  144.1690 N   0  0  0  0  0  0  0  0  0  0  0  0
  195.2930  172.5960  145.0480 C   0  0  0  0  0  0  0  0  0  0  0  0
  196.5000  171.8540  144.8850 N   0  0  0  0  0  0  0  0  0  0  0  0
  197.4400  170.7750  145.3100 C   0  0  0  0  0  2  0  0  0  0  0  0
  197.7800  171.5110  144.1950 C   0  0  0  0  0  2  0  0  0  0  0  0
  197.7690  175.9480  143.1200 C   0  0  0  0  0  3  0  0  0  0  0  0
  195.9520  174.3420  143.3560 C   0  0  0  0  0  0  0  0  0  0  0  0
  196.7860  175.3340  143.9010 C   0  0  0  0  0  3  0  0  0  0  0  0
  197.9400  175.5620  141.7870 C   0  0  0  0  0  3  0  0  0  0  0  0
  196.1590  173.9420  142.0260 C   0  0  0  0  0  3  0  0  0  0  0  0
  197.1410  174.5540  141.2430 C   0  0  0  0  0  3  0  0  0  0  0  0
  188.0010  175.2610  142.9190 O   0  0  0  0  0  0  0  0  0  0  0  0
  188.6790  174.7230  141.8170 C   0  0  2  0  0  3  0  0  0  0  0  0
  188.2990  173.2640  141.5290 C   0  0  0  0  0  2  0  0  0  0  0  0
  187.7760  173.0320  140.1170 C   0  0  0  0  0  2  0  0  0  0  0  0
  188.7330  173.5990  139.0770 C   0  0  0  0  0  2  0  0  0  0  0  0
  188.1590  174.8770  138.4750 C   0  0  0  0  0  2  0  0  0  0  0  0
  187.7450  175.4660  134.6960 O   0  0  0  0  0  1  0  0  0  0  0  0
  188.0700  175.7850  136.0130 C   0  0  2  0  0  0  0  0  0  0  0  0
  187.8310  174.6690  137.0110 C   0  0  2  0  0  0  0  0  0  0  0  0
  186.8850  175.6600  136.7360 O   0  0  0  0  0  0  0  0  0  0  0  0
  189.0620  174.8830  136.3890 O   0  0  0  0  0  0  0  0  0  0  0  0
  190.1810  175.0200  141.8550 C   0  0  0  0  0  2  0  0  0  0  0  0
  191.0530  173.8560  142.3130 C   0  0  0  0  0  2  0  0  0  0  0  0
  192.0750  173.5940  141.3930 O   0  0  0  0  0  0  0  0  0  0  0  0
  193.0410  171.8570  140.2250 C   0  0  0  0  0  2  0  0  0  0  0  0
  191.8110  172.3580  140.8780 N   0  0  0  0  0  0  0  0  0  0  0  0
  191.9560  172.3680  139.3940 C   0  0  1  0  0  3  0  0  0  0  0  0
  192.3120  173.7380  138.8080 C   0  0  0  0  0  2  0  0  0  0  0  0
  192.2940  173.7100  137.2850 C   0  0  0  0  0  2  0  0  0  0  0  0
  192.5820  175.0890  136.7160 C   0  0  0  0  0  1  0  0  0  0  0  0
  1 40  1  0  0  0  0
  1 16  1  1  0  0  0
  2  3  2  0  0  0  0
  3  4  1  0  0  0  0
  3  1  1  0  0  0  0
  5  8  2  0  0  0  0
  7  4  1  1  0  0  0
  7 10  1  0  0  0  0
  8  6  1  0  0  0  0
  8 10  1  0  0  0  0
  9  5  1  0  0  0  0
  9  7  1  0  0  0  0
 11 14  1  0  0  0  0
 11  6  1  0  0  0  0
 12 11  1  0  0  0  0
 13 12  1  0  0  0  0
 14 15  1  0  0  0  0
 17 16  1  6  0  0  0
 17 18  1  0  0  0  0
 17 21  1  0  0  0  0
 19 18  1  0  0  0  0
 21 22  1  0  0  0  0
 21 20  1  1  0  0  0
 23 25  1  0  0  0  0
 25 22  1  0  0  0  0
 25 24  2  0  0  0  0
 26 23  1  0  0  0  0
 27 26  1  0  0  0  0
 29 27  1  0  0  0  0
 29 30  1  0  0  0  0
 30 28  2  0  0  0  0
 31 30  1  0  0  0  0
 31 32  1  0  0  0  0
 33 31  1  0  0  0  0
 33 32  1  0  0  0  0
 34 36  1  0  0  0  0
 35 36  2  0  0  0  0
 35 29  1  0  0  0  0
 37 34  2  0  0  0  0
 38 35  1  0  0  0  0
 39 37  1  0  0  0  0
 39 38  2  0  0  0  0
 41 42  1  1  0  0  0
 41 51  1  0  0  0  0
 41 40  1  0  0  0  0
 43 42  1  0  0  0  0
 44 43  1  0  0  0  0
 45 44  1  0  0  0  0
 47 46  1  6  0  0  0
 47 50  1  0  0  0  0
 47 49  1  0  0  0  0
 47 48  1  0  0  0  0
 48 45  1  1  0  0  0
 49 48  1  0  0  0  0
 50 48  1  0  0  0  0
 51 52  1  0  0  0  0
 53 52  1  0  0  0  0
 54 55  1  0  0  0  0
 55 53  1  0  0  0  0
 56 57  1  1  0  0  0
 56 54  1  0  0  0  0
 56 55  1  0  0  0  0
 58 57  1  0  0  0  0
 59 58  1  0  0  0  0
M  END
>  <MODEL>
9

>  <REMARK>
 VINA RESULT:      -4.5      2.799      7.517
  Name = 
  29 active torsions:
  status: ('A' for Active; 'I' for Inactive)
    1  A    between atoms: O_1  and  C_14
    2  A    between atoms: C_3  and  C_59
    3  A    between atoms: C_4  and  C_43
    4  A    between atoms: C_4  and  C_50
    5  A    between atoms: N_5  and  C_25
    6  A    between atoms: N_5  and  C_41
    7  A    between atoms: N_6  and  C_15
    8  A    between atoms: C_10  and  C_21
    9  A    between atoms: C_10  and  C_34
   10  A    between atoms: C_12  and  C_46
   11  A    between atoms: C_14  and  C_57
   12  A    between atoms: C_14  and  C_58
   13  A    between atoms: C_15  and  C_41
   14  A    between atoms: C_17  and  C_45
   15  A    between atoms: C_17  and  C_57
   16  A    between atoms: N_19  and  C_46
   17  A    between atoms: C_28  and  C_39
   18  A    between atoms: C_28  and  C_56
   19  A    between atoms: O_31  and  C_43
   20  A    between atoms: O_31  and  C_51
   21  A    between atoms: C_32  and  C_53
   22  A    between atoms: C_33  and  C_46
   23  A    between atoms: C_34  and  C_51
   24  A    between atoms: O_36  and  N_44
   25  A    between atoms: O_36  and  C_50
   26  A    between atoms: C_39  and  C_53
   27  A    between atoms: C_43  and  C_56
   28  A    between atoms: C_47  and  C_59
   29  A    between atoms: C_51  and  C_58
                            x       y       z     vdW  Elec       q    Type
                         _______ _______ _______ _____ _____    ______ ____

>  <TORSDO>
F 29

$$$$
