=
 OpenBabel11062419263D

 38 40  0  0  1  0  0  0  0  0999 V2000
  187.2290  177.4470  145.6840 C   0  0  1  0  0  3  0  0  0  0  0  0
  189.8860  176.0870  146.0480 C   0  0  2  0  0  3  0  0  0  0  0  0
  187.6540  176.8260  147.0290 C   0  0  0  0  0  2  0  0  0  0  0  0
  188.3100  177.3820  144.5950 C   0  0  0  0  0  2  0  0  0  0  0  0
  189.7080  177.3500  145.2000 C   0  0  0  0  0  2  0  0  0  0  0  0
  188.6400  175.6720  146.8460 C   0  0  0  0  0  2  0  0  0  0  0  0
  191.1100  176.1540  146.9110 C   0  0  0  0  0  0  0  0  0  0  0  0
  190.9930  175.8800  148.1340 O   0  0  0  0  0  0  0  0  0  0  0  0
  192.3680  176.5260  146.4230 O   0  0  0  0  0  0  0  0  0  0  0  0
  193.4910  175.6560  146.4060 C   0  0  0  0  0  2  0  0  0  0  0  0
  193.6140  174.9790  145.0500 C   0  0  0  0  0  2  0  0  0  0  0  0
  193.4680  175.9820  143.9120 C   0  0  1  0  0  3  0  0  0  0  0  0
  194.7250  176.2610  143.3720 O   0  0  0  0  0  1  0  0  0  0  0  0
  192.5300  175.4500  142.8320 C   0  0  2  0  0  3  0  0  0  0  0  0
  191.4870  176.3510  142.5940 O   0  0  0  0  0  1  0  0  0  0  0  0
  191.9710  174.0920  143.2310 C   0  0  0  0  0  2  0  0  0  0  0  0
  189.3050  172.9040  141.0500 C   0  0  0  0  0  0  0  0  0  0  0  0
  191.0970  172.7970  138.9780 C   0  0  0  0  0  3  0  0  0  0  0  0
  191.5050  173.3400  140.2070 C   0  0  0  0  0  3  0  0  0  0  0  0
  189.7790  172.3140  138.8280 C   0  0  0  0  0  3  0  0  0  0  0  0
  188.8970  172.3690  139.8710 N   0  0  0  0  0  0  0  0  0  0  0  0
  188.5340  172.9990  142.2360 N   0  0  0  0  0  0  0  0  0  0  0  0
  189.4320  173.5860  143.2460 C   0  0  0  0  0  3  0  0  0  0  0  0
  190.7050  173.8460  142.5580 N   0  0  0  0  0  0  0  0  0  0  0  0
  190.5600  173.3790  141.2310 C   0  0  0  0  0  0  0  0  0  0  0  0
  185.2250  176.2230  146.1950 O   0  0  0  0  0  1  0  0  0  0  0  0
  185.9090  176.8720  145.1640 C   0  0  1  0  0  3  0  0  0  0  0  0
  185.0310  177.9610  144.5120 C   0  0  1  0  0  3  0  0  0  0  0  0
  185.7200  180.3400  144.2150 O   0  0  0  0  0  0  0  0  0  0  0  0
  185.3330  179.3180  145.0710 C   0  0  0  0  0  0  0  0  0  0  0  0
  185.2540  179.5370  146.3090 O   0  0  0  0  0  1  0  0  0  0  0  0
  183.7250  178.2130  142.3720 C   0  0  0  0  0  1  0  0  0  0  0  0
  185.1010  178.0020  142.9790 C   0  0  2  0  0  3  0  0  0  0  0  0
  185.7160  176.7960  142.4360 N   0  0  0  0  0  2  0  0  0  0  0  0
  186.8250  177.2850  141.1670 P   0  0  0  0  0  0  0  0  0  0  0  0
  185.9630  177.4860  139.7250 O   0  0  0  0  0  0  0  0  0  0  0  0
  188.0080  176.0960  140.9490 O   0  0  0  0  0  1  0  0  0  0  0  0
  187.4840  178.5930  141.5410 O   0  0  0  0  0  1  0  0  0  0  0  0
  1 27  1  6  0  0  0
  1  3  1  0  0  0  0
  2  6  1  0  0  0  0
  2  7  1  1  0  0  0
  4  5  1  0  0  0  0
  4  1  1  0  0  0  0
  5  2  1  0  0  0  0
  6  3  1  0  0  0  0
  7  8  2  0  0  0  0
  9  7  1  0  0  0  0
 10  9  1  0  0  0  0
 11 10  1  0  0  0  0
 12 13  1  6  0  0  0
 12 11  1  0  0  0  0
 14 15  1  1  0  0  0
 14 16  1  0  0  0  0
 14 12  1  0  0  0  0
 17 25  1  0  0  0  0
 17 22  1  0  0  0  0
 18 19  1  0  0  0  0
 19 25  2  0  0  0  0
 20 18  2  0  0  0  0
 20 21  1  0  0  0  0
 21 17  2  0  0  0  0
 22 23  2  0  0  0  0
 24 16  1  0  0  0  0
 24 23  1  0  0  0  0
 25 24  1  0  0  0  0
 27 26  1  1  0  0  0
 28 30  1  1  0  0  0
 28 27  1  0  0  0  0
 29 30  2  0  0  0  0
 30 31  1  0  0  0  0
 33 32  1  6  0  0  0
 33 28  1  0  0  0  0
 34 33  1  0  0  0  0
 35 38  1  0  0  0  0
 35 34  1  0  0  0  0
 36 35  2  0  0  0  0
 37 35  1  0  0  0  0
M  END
>  <MODEL>
1

>  <REMARK>
 VINA RESULT:      -6.5      0.000      0.000
  Name = 
  14 active torsions:
  status: ('A' for Active; 'I' for Inactive)
    1  A    between atoms: C_1  and  C_3
    2  A    between atoms: C_1  and  C_37
    3  A    between atoms: C_3  and  C_32
    4  A    between atoms: C_4  and  C_29
    5  A    between atoms: C_5  and  C_15
    6  A    between atoms: P_8  and  N_21
    7  A    between atoms: C_13  and  C_24
    8  A    between atoms: C_15  and  O_19
    9  A    between atoms: C_16  and  N_30
   10  A    between atoms: C_16  and  C_32
   11  A    between atoms: O_19  and  C_37
   12  A    between atoms: N_21  and  C_27
   13  A    between atoms: C_24  and  C_27
   14  A    between atoms: C_24  and  C_29
                            x       y       z     vdW  Elec       q    Type
                         _______ _______ _______ _____ _____    ______ ____

>  <TORSDO>
F 14

$$$$
=
 OpenBabel11062419263D

 38 40  0  0  1  0  0  0  0  0999 V2000
  192.3630  174.8470  143.6400 C   0  0  1  0  0  3  0  0  0  0  0  0
  189.8180  173.6500  142.5770 C   0  0  2  0  0  3  0  0  0  0  0  0
  191.6620  175.3960  142.3810 C   0  0  0  0  0  2  0  0  0  0  0  0
  191.6020  173.7090  144.3340 C   0  0  0  0  0  2  0  0  0  0  0  0
  190.1030  173.8020  144.0750 C   0  0  0  0  0  2  0  0  0  0  0  0
  190.8500  174.3210  141.6580 C   0  0  0  0  0  2  0  0  0  0  0  0
  188.4140  174.0420  142.2270 C   0  0  0  0  0  0  0  0  0  0  0  0
  187.6000  173.1350  141.9170 O   0  0  0  0  0  0  0  0  0  0  0  0
  187.9750  175.3710  142.2110 O   0  0  0  0  0  0  0  0  0  0  0  0
  187.6940  176.0900  141.0180 C   0  0  0  0  0  2  0  0  0  0  0  0
  187.6710  177.5860  141.2960 C   0  0  0  0  0  2  0  0  0  0  0  0
  186.2460  178.1190  141.3580 C   0  0  1  0  0  3  0  0  0  0  0  0
  185.5220  177.6460  140.2620 O   0  0  0  0  0  1  0  0  0  0  0  0
  185.5650  177.7100  142.6620 C   0  0  2  0  0  3  0  0  0  0  0  0
  184.1880  177.9400  142.5950 O   0  0  0  0  0  1  0  0  0  0  0  0
  186.1690  178.4640  143.8380 C   0  0  0  0  0  2  0  0  0  0  0  0
  188.0670  176.7090  146.4060 C   0  0  0  0  0  0  0  0  0  0  0  0
  190.3860  177.4360  145.1360 C   0  0  0  0  0  3  0  0  0  0  0  0
  189.1540  177.7330  144.5320 C   0  0  0  0  0  3  0  0  0  0  0  0
  190.4140  176.7730  146.3830 C   0  0  0  0  0  3  0  0  0  0  0  0
  189.2500  176.4200  147.0070 N   0  0  0  0  0  0  0  0  0  0  0  0
  186.7760  176.4510  146.9330 N   0  0  0  0  0  0  0  0  0  0  0  0
  185.8290  177.0020  145.9480 C   0  0  0  0  0  3  0  0  0  0  0  0
  186.6470  177.5310  144.8480 N   0  0  0  0  0  0  0  0  0  0  0  0
  188.0010  177.3410  145.2100 C   0  0  0  0  0  0  0  0  0  0  0  0
  194.0330  174.3080  141.9970 O   0  0  0  0  0  1  0  0  0  0  0  0
  193.8130  174.4370  143.3720 C   0  0  1  0  0  3  0  0  0  0  0  0
  194.8110  175.4280  144.0050 C   0  0  1  0  0  3  0  0  0  0  0  0
  193.9010  177.3220  145.3490 O   0  0  0  0  0  0  0  0  0  0  0  0
  194.2880  175.9900  145.2910 C   0  0  0  0  0  0  0  0  0  0  0  0
  194.2090  175.2720  146.3230 O   0  0  0  0  0  1  0  0  0  0  0  0
  197.2550  175.6390  143.4270 C   0  0  0  0  0  1  0  0  0  0  0  0
  196.2220  174.8600  144.2210 C   0  0  2  0  0  3  0  0  0  0  0  0
  196.2870  173.4420  143.8870 N   0  0  0  0  0  2  0  0  0  0  0  0
  196.5730  172.5530  145.3730 P   0  0  0  0  0  0  0  0  0  0  0  0
  197.7320  171.3550  145.0890 O   0  0  0  0  0  0  0  0  0  0  0  0
  195.1370  171.8280  145.8950 O   0  0  0  0  0  1  0  0  0  0  0  0
  197.0820  173.4960  146.4410 O   0  0  0  0  0  1  0  0  0  0  0  0
  1 27  1  6  0  0  0
  1  4  1  0  0  0  0
  2  7  1  1  0  0  0
  2  5  1  0  0  0  0
  3  1  1  0  0  0  0
  5  4  1  0  0  0  0
  6  3  1  0  0  0  0
  6  2  1  0  0  0  0
  8  7  2  0  0  0  0
  9  7  1  0  0  0  0
 10 11  1  0  0  0  0
 10  9  1  0  0  0  0
 11 12  1  0  0  0  0
 12 13  1  6  0  0  0
 12 14  1  0  0  0  0
 14 15  1  6  0  0  0
 14 16  1  0  0  0  0
 16 24  1  0  0  0  0
 17 22  1  0  0  0  0
 17 21  2  0  0  0  0
 18 20  2  0  0  0  0
 19 18  1  0  0  0  0
 19 25  2  0  0  0  0
 20 21  1  0  0  0  0
 23 22  2  0  0  0  0
 24 25  1  0  0  0  0
 24 23  1  0  0  0  0
 25 17  1  0  0  0  0
 27 26  1  6  0  0  0
 27 28  1  0  0  0  0
 28 33  1  0  0  0  0
 28 30  1  1  0  0  0
 30 29  2  0  0  0  0
 30 31  1  0  0  0  0
 33 32  1  6  0  0  0
 34 33  1  0  0  0  0
 34 35  1  0  0  0  0
 35 37  1  0  0  0  0
 35 38  1  0  0  0  0
 36 35  2  0  0  0  0
M  END
>  <MODEL>
2

>  <REMARK>
 VINA RESULT:      -6.5      3.319      8.491
  Name = 
  14 active torsions:
  status: ('A' for Active; 'I' for Inactive)
    1  A    between atoms: C_1  and  C_3
    2  A    between atoms: C_1  and  C_37
    3  A    between atoms: C_3  and  C_32
    4  A    between atoms: C_4  and  C_29
    5  A    between atoms: C_5  and  C_15
    6  A    between atoms: P_8  and  N_21
    7  A    between atoms: C_13  and  C_24
    8  A    between atoms: C_15  and  O_19
    9  A    between atoms: C_16  and  N_30
   10  A    between atoms: C_16  and  C_32
   11  A    between atoms: O_19  and  C_37
   12  A    between atoms: N_21  and  C_27
   13  A    between atoms: C_24  and  C_27
   14  A    between atoms: C_24  and  C_29
                            x       y       z     vdW  Elec       q    Type
                         _______ _______ _______ _____ _____    ______ ____

>  <TORSDO>
F 14

$$$$
=
 OpenBabel11062419263D

 38 40  0  0  1  0  0  0  0  0999 V2000
  191.1110  174.9020  145.7140 C   0  0  1  0  0  3  0  0  0  0  0  0
  188.6450  176.5560  146.1860 C   0  0  2  0  0  3  0  0  0  0  0  0
  191.1690  176.4350  145.8620 C   0  0  0  0  0  2  0  0  0  0  0  0
  189.7110  174.3050  145.9160 C   0  0  0  0  0  2  0  0  0  0  0  0
  188.8590  175.1800  146.8270 C   0  0  0  0  0  2  0  0  0  0  0  0
  189.8650  177.1050  145.4300 C   0  0  0  0  0  2  0  0  0  0  0  0
  188.0900  177.5520  147.1590 C   0  0  0  0  0  0  0  0  0  0  0  0
  188.8910  178.3380  147.7290 O   0  0  0  0  0  0  0  0  0  0  0  0
  186.7290  177.6340  147.4750 O   0  0  0  0  0  0  0  0  0  0  0  0
  185.8870  178.6950  147.0490 C   0  0  0  0  0  2  0  0  0  0  0  0
  184.6810  178.1450  146.3030 C   0  0  0  0  0  2  0  0  0  0  0  0
  184.6730  178.5970  144.8480 C   0  0  1  0  0  3  0  0  0  0  0  0
  185.2690  179.8550  144.7470 O   0  0  0  0  0  1  0  0  0  0  0  0
  185.3990  177.5900  143.9590 C   0  0  2  0  0  3  0  0  0  0  0  0
  185.5880  176.3800  144.6330 O   0  0  0  0  0  1  0  0  0  0  0  0
  186.7360  178.1520  143.4990 C   0  0  0  0  0  2  0  0  0  0  0  0
  187.4640  176.2380  140.4840 C   0  0  0  0  0  0  0  0  0  0  0  0
  188.9720  174.5120  141.9890 C   0  0  0  0  0  3  0  0  0  0  0  0
  188.4440  175.6640  142.5940 C   0  0  0  0  0  3  0  0  0  0  0  0
  188.7180  174.2580  140.6230 C   0  0  0  0  0  3  0  0  0  0  0  0
  187.9600  175.1260  139.8860 N   0  0  0  0  0  0  0  0  0  0  0  0
  186.6310  177.2130  139.8790 N   0  0  0  0  0  0  0  0  0  0  0  0
  186.3100  178.1770  140.9450 C   0  0  0  0  0  3  0  0  0  0  0  0
  187.0290  177.7170  142.1410 N   0  0  0  0  0  0  0  0  0  0  0  0
  187.6880  176.5160  141.7910 C   0  0  0  0  0  0  0  0  0  0  0  0
  192.4360  175.4480  143.7850 O   0  0  0  0  0  1  0  0  0  0  0  0
  191.7150  174.4160  144.3940 C   0  0  1  0  0  3  0  0  0  0  0  0
  192.5960  173.1660  144.5970 C   0  0  1  0  0  3  0  0  0  0  0  0
  192.4100  170.6900  144.3590 O   0  0  0  0  0  1  0  0  0  0  0  0
  191.9780  171.9510  143.9740 C   0  0  0  0  0  0  0  0  0  0  0  0
  191.0810  172.0640  143.0960 O   0  0  0  0  0  0  0  0  0  0  0  0
  194.2510  172.6270  142.7740 C   0  0  0  0  0  1  0  0  0  0  0  0
  194.0440  173.3210  144.1090 C   0  0  2  0  0  3  0  0  0  0  0  0
  194.9980  172.8230  145.0930 N   0  0  0  0  0  2  0  0  0  0  0  0
  196.0250  174.1650  145.5680 P   0  0  0  0  0  0  0  0  0  0  0  0
  197.1720  173.6170  146.6850 O   0  0  0  0  0  1  0  0  0  0  0  0
  195.0890  175.3800  146.2810 O   0  0  0  0  0  1  0  0  0  0  0  0
  196.7360  174.7180  144.3540 O   0  0  0  0  0  0  0  0  0  0  0  0
  1 27  1  6  0  0  0
  1  3  1  0  0  0  0
  1  4  1  0  0  0  0
  2  5  1  0  0  0  0
  2  7  1  1  0  0  0
  4  5  1  0  0  0  0
  6  3  1  0  0  0  0
  6  2  1  0  0  0  0
  7  9  1  0  0  0  0
  7  8  2  0  0  0  0
 10  9  1  0  0  0  0
 11 10  1  0  0  0  0
 12 13  1  1  0  0  0
 12 11  1  0  0  0  0
 14 15  1  1  0  0  0
 14 12  1  0  0  0  0
 16 14  1  0  0  0  0
 17 25  1  0  0  0  0
 18 19  1  0  0  0  0
 20 18  2  0  0  0  0
 21 17  2  0  0  0  0
 21 20  1  0  0  0  0
 22 17  1  0  0  0  0
 22 23  2  0  0  0  0
 23 24  1  0  0  0  0
 24 16  1  0  0  0  0
 25 24  1  0  0  0  0
 25 19  2  0  0  0  0
 27 26  1  1  0  0  0
 27 28  1  0  0  0  0
 28 30  1  6  0  0  0
 30 29  1  0  0  0  0
 31 30  2  0  0  0  0
 33 32  1  6  0  0  0
 33 28  1  0  0  0  0
 33 34  1  0  0  0  0
 34 35  1  0  0  0  0
 35 37  1  0  0  0  0
 35 36  1  0  0  0  0
 38 35  2  0  0  0  0
M  END
>  <MODEL>
3

>  <REMARK>
 VINA RESULT:      -6.4      3.075      7.518
  Name = 
  14 active torsions:
  status: ('A' for Active; 'I' for Inactive)
    1  A    between atoms: C_1  and  C_3
    2  A    between atoms: C_1  and  C_37
    3  A    between atoms: C_3  and  C_32
    4  A    between atoms: C_4  and  C_29
    5  A    between atoms: C_5  and  C_15
    6  A    between atoms: P_8  and  N_21
    7  A    between atoms: C_13  and  C_24
    8  A    between atoms: C_15  and  O_19
    9  A    between atoms: C_16  and  N_30
   10  A    between atoms: C_16  and  C_32
   11  A    between atoms: O_19  and  C_37
   12  A    between atoms: N_21  and  C_27
   13  A    between atoms: C_24  and  C_27
   14  A    between atoms: C_24  and  C_29
                            x       y       z     vdW  Elec       q    Type
                         _______ _______ _______ _____ _____    ______ ____

>  <TORSDO>
F 14

$$$$
=
 OpenBabel11062419263D

 38 40  0  0  1  0  0  0  0  0999 V2000
  188.1760  177.0210  145.3320 C   0  0  1  0  0  3  0  0  0  0  0  0
  190.9420  175.9910  145.9090 C   0  0  2  0  0  3  0  0  0  0  0  0
  189.0060  177.5260  146.5290 C   0  0  0  0  0  2  0  0  0  0  0  0
  188.9200  176.0250  144.4300 C   0  0  0  0  0  2  0  0  0  0  0  0
  190.4270  176.2420  144.4870 C   0  0  0  0  0  2  0  0  0  0  0  0
  190.0030  176.4780  147.0240 C   0  0  0  0  0  2  0  0  0  0  0  0
  192.3440  176.4880  146.0980 C   0  0  0  0  0  0  0  0  0  0  0  0
  192.7530  176.6860  147.2700 O   0  0  0  0  0  0  0  0  0  0  0  0
  193.2070  176.7580  145.0300 O   0  0  0  0  0  0  0  0  0  0  0  0
  194.6160  176.8720  145.1700 C   0  0  0  0  0  2  0  0  0  0  0  0
  195.3200  176.0790  144.0790 C   0  0  0  0  0  2  0  0  0  0  0  0
  195.8890  174.7740  144.6180 C   0  0  1  0  0  3  0  0  0  0  0  0
  195.7270  174.7310  146.0050 O   0  0  0  0  0  1  0  0  0  0  0  0
  195.2110  173.5710  143.9660 C   0  0  2  0  0  3  0  0  0  0  0  0
  196.1540  172.7530  143.3350 O   0  0  0  0  0  1  0  0  0  0  0  0
  194.1580  174.0290  142.9670 C   0  0  0  0  0  2  0  0  0  0  0  0
  190.7520  172.7640  143.2390 C   0  0  0  0  0  0  0  0  0  0  0  0
  190.2810  173.5850  140.6650 C   0  0  0  0  0  3  0  0  0  0  0  0
  191.5040  173.9110  141.2740 C   0  0  0  0  0  3  0  0  0  0  0  0
  189.3180  172.8410  141.3820 C   0  0  0  0  0  3  0  0  0  0  0  0
  189.5680  172.4340  142.6630 N   0  0  0  0  0  0  0  0  0  0  0  0
  191.1850  172.3880  144.5350 N   0  0  0  0  0  0  0  0  0  0  0  0
  192.5490  172.9270  144.6690 C   0  0  0  0  0  3  0  0  0  0  0  0
  192.8300  173.6430  143.4180 N   0  0  0  0  0  0  0  0  0  0  0  0
  191.6990  173.4770  142.5840 C   0  0  0  0  0  0  0  0  0  0  0  0
  186.7240  176.4220  147.1510 O   0  0  0  0  0  1  0  0  0  0  0  0
  186.8210  176.4500  145.7570 C   0  0  1  0  0  3  0  0  0  0  0  0
  185.6500  177.2370  145.1330 C   0  0  1  0  0  3  0  0  0  0  0  0
  183.9700  178.2620  146.6650 O   0  0  0  0  0  1  0  0  0  0  0  0
  185.1990  178.3520  146.0260 C   0  0  0  0  0  0  0  0  0  0  0  0
  185.9150  179.3750  146.1910 O   0  0  0  0  0  0  0  0  0  0  0  0
  184.9220  178.8510  143.3390 C   0  0  0  0  0  1  0  0  0  0  0  0
  185.9270  177.7800  143.7230 C   0  0  2  0  0  3  0  0  0  0  0  0
  185.9370  176.7130  142.7290 N   0  0  0  0  0  2  0  0  0  0  0  0
  186.9480  177.2350  141.3930 P   0  0  0  0  0  0  0  0  0  0  0  0
  188.0480  178.3920  141.9500 O   0  0  0  0  0  1  0  0  0  0  0  0
  185.9870  177.9160  140.1780 O   0  0  0  0  0  0  0  0  0  0  0  0
  187.7070  176.0520  140.8350 O   0  0  0  0  0  1  0  0  0  0  0  0
  1 27  1  1  0  0  0
  1  3  1  0  0  0  0
  2  7  1  6  0  0  0
  2  6  1  0  0  0  0
  3  6  1  0  0  0  0
  4  5  1  0  0  0  0
  4  1  1  0  0  0  0
  5  2  1  0  0  0  0
  7  8  2  0  0  0  0
  9 10  1  0  0  0  0
  9  7  1  0  0  0  0
 11 12  1  0  0  0  0
 11 10  1  0  0  0  0
 12 13  1  1  0  0  0
 14 15  1  6  0  0  0
 14 12  1  0  0  0  0
 16 24  1  0  0  0  0
 16 14  1  0  0  0  0
 17 22  1  0  0  0  0
 18 19  1  0  0  0  0
 18 20  2  0  0  0  0
 19 25  2  0  0  0  0
 20 21  1  0  0  0  0
 21 17  2  0  0  0  0
 22 23  2  0  0  0  0
 24 23  1  0  0  0  0
 25 17  1  0  0  0  0
 25 24  1  0  0  0  0
 27 26  1  1  0  0  0
 28 27  1  0  0  0  0
 28 30  1  1  0  0  0
 30 31  2  0  0  0  0
 30 29  1  0  0  0  0
 33 32  1  6  0  0  0
 33 28  1  0  0  0  0
 34 33  1  0  0  0  0
 35 36  1  0  0  0  0
 35 34  1  0  0  0  0
 37 35  2  0  0  0  0
 38 35  1  0  0  0  0
M  END
>  <MODEL>
4

>  <REMARK>
 VINA RESULT:      -6.4      1.610      2.368
  Name = 
  14 active torsions:
  status: ('A' for Active; 'I' for Inactive)
    1  A    between atoms: C_1  and  C_3
    2  A    between atoms: C_1  and  C_37
    3  A    between atoms: C_3  and  C_32
    4  A    between atoms: C_4  and  C_29
    5  A    between atoms: C_5  and  C_15
    6  A    between atoms: P_8  and  N_21
    7  A    between atoms: C_13  and  C_24
    8  A    between atoms: C_15  and  O_19
    9  A    between atoms: C_16  and  N_30
   10  A    between atoms: C_16  and  C_32
   11  A    between atoms: O_19  and  C_37
   12  A    between atoms: N_21  and  C_27
   13  A    between atoms: C_24  and  C_27
   14  A    between atoms: C_24  and  C_29
                            x       y       z     vdW  Elec       q    Type
                         _______ _______ _______ _____ _____    ______ ____

>  <TORSDO>
F 14

$$$$
=
 OpenBabel11062419263D

 38 40  0  0  1  0  0  0  0  0999 V2000
  189.7890  177.2390  144.8180 C   0  0  1  0  0  3  0  0  0  0  0  0
  192.6860  176.4350  144.8060 C   0  0  2  0  0  3  0  0  0  0  0  0
  190.5250  176.8050  146.1020 C   0  0  0  0  0  2  0  0  0  0  0  0
  190.6860  177.3050  143.5740 C   0  0  0  0  0  2  0  0  0  0  0  0
  192.1370  177.5800  143.9480 C   0  0  0  0  0  2  0  0  0  0  0  0
  191.6800  175.8480  145.8090 C   0  0  0  0  0  2  0  0  0  0  0  0
  193.9880  176.7930  145.4590 C   0  0  0  0  0  0  0  0  0  0  0  0
  194.0040  176.9530  146.7070 O   0  0  0  0  0  0  0  0  0  0  0  0
  195.1760  176.9740  144.7420 O   0  0  0  0  0  0  0  0  0  0  0  0
  195.5350  176.1960  143.6090 C   0  0  0  0  0  2  0  0  0  0  0  0
  196.9140  175.5850  143.8050 C   0  0  0  0  0  2  0  0  0  0  0  0
  196.8290  174.0810  144.0330 C   0  0  1  0  0  3  0  0  0  0  0  0
  197.6510  173.7240  145.1030 O   0  0  0  0  0  1  0  0  0  0  0  0
  195.3890  173.6500  144.3010 C   0  0  2  0  0  3  0  0  0  0  0  0
  195.2390  173.2170  145.6220 O   0  0  0  0  0  1  0  0  0  0  0  0
  194.9740  172.5490  143.3360 C   0  0  0  0  0  2  0  0  0  0  0  0
  191.6440  173.6660  142.3640 C   0  0  0  0  0  0  0  0  0  0  0  0
  190.6170  172.4060  144.5730 C   0  0  0  0  0  3  0  0  0  0  0  0
  191.9790  172.2490  144.2670 C   0  0  0  0  0  3  0  0  0  0  0  0
  189.8010  173.2080  143.7440 C   0  0  0  0  0  3  0  0  0  0  0  0
  190.3270  173.8340  142.6490 N   0  0  0  0  0  0  0  0  0  0  0  0
  192.3530  174.2720  141.2970 N   0  0  0  0  0  0  0  0  0  0  0  0
  193.7510  173.8340  141.4500 C   0  0  0  0  0  3  0  0  0  0  0  0
  193.7720  172.9350  142.6130 N   0  0  0  0  0  0  0  0  0  0  0  0
  192.4570  172.9030  143.1340 C   0  0  0  0  0  0  0  0  0  0  0  0
  187.8840  176.0950  145.7340 O   0  0  0  0  0  1  0  0  0  0  0  0
  188.5460  176.3910  144.5390 C   0  0  1  0  0  3  0  0  0  0  0  0
  187.6000  177.0800  143.5340 C   0  0  1  0  0  3  0  0  0  0  0  0
  187.7030  176.9360  141.0460 O   0  0  0  0  0  0  0  0  0  0  0  0
  187.4870  176.3000  142.2610 C   0  0  0  0  0  0  0  0  0  0  0  0
  187.1820  175.0770  142.2800 O   0  0  0  0  0  1  0  0  0  0  0  0
  185.1690  177.4300  142.9700 C   0  0  0  0  0  1  0  0  0  0  0  0
  186.1990  177.3840  144.0850 C   0  0  2  0  0  3  0  0  0  0  0  0
  186.1790  178.6280  144.8470 N   0  0  0  0  0  2  0  0  0  0  0  0
  185.0300  178.4330  146.1590 P   0  0  0  0  0  0  0  0  0  0  0  0
  185.6050  179.2490  147.5240 O   0  0  0  0  0  1  0  0  0  0  0  0
  184.8480  176.7920  146.5250 O   0  0  0  0  0  1  0  0  0  0  0  0
  183.6930  179.0140  145.7570 O   0  0  0  0  0  0  0  0  0  0  0  0
  1 27  1  6  0  0  0
  1  3  1  0  0  0  0
  2  7  1  1  0  0  0
  2  6  1  0  0  0  0
  4  5  1  0  0  0  0
  4  1  1  0  0  0  0
  5  2  1  0  0  0  0
  6  3  1  0  0  0  0
  7  8  2  0  0  0  0
  9  7  1  0  0  0  0
 10 11  1  0  0  0  0
 10  9  1  0  0  0  0
 11 12  1  0  0  0  0
 12 14  1  0  0  0  0
 12 13  1  1  0  0  0
 14 15  1  1  0  0  0
 16 14  1  0  0  0  0
 17 21  2  0  0  0  0
 17 25  1  0  0  0  0
 19 18  1  0  0  0  0
 20 18  2  0  0  0  0
 21 20  1  0  0  0  0
 22 23  2  0  0  0  0
 22 17  1  0  0  0  0
 23 24  1  0  0  0  0
 24 25  1  0  0  0  0
 24 16  1  0  0  0  0
 25 19  2  0  0  0  0
 27 26  1  1  0  0  0
 28 30  1  6  0  0  0
 28 33  1  0  0  0  0
 28 27  1  0  0  0  0
 29 30  2  0  0  0  0
 30 31  1  0  0  0  0
 33 32  1  6  0  0  0
 33 34  1  0  0  0  0
 34 35  1  0  0  0  0
 35 37  1  0  0  0  0
 35 36  1  0  0  0  0
 38 35  2  0  0  0  0
M  END
>  <MODEL>
5

>  <REMARK>
 VINA RESULT:      -6.3      2.290      4.118
  Name = 
  14 active torsions:
  status: ('A' for Active; 'I' for Inactive)
    1  A    between atoms: C_1  and  C_3
    2  A    between atoms: C_1  and  C_37
    3  A    between atoms: C_3  and  C_32
    4  A    between atoms: C_4  and  C_29
    5  A    between atoms: C_5  and  C_15
    6  A    between atoms: P_8  and  N_21
    7  A    between atoms: C_13  and  C_24
    8  A    between atoms: C_15  and  O_19
    9  A    between atoms: C_16  and  N_30
   10  A    between atoms: C_16  and  C_32
   11  A    between atoms: O_19  and  C_37
   12  A    between atoms: N_21  and  C_27
   13  A    between atoms: C_24  and  C_27
   14  A    between atoms: C_24  and  C_29
                            x       y       z     vdW  Elec       q    Type
                         _______ _______ _______ _____ _____    ______ ____

>  <TORSDO>
F 14

$$$$
=
 OpenBabel11062419263D

 38 40  0  0  1  0  0  0  0  0999 V2000
  192.9570  175.4950  144.6830 C   0  0  1  0  0  3  0  0  0  0  0  0
  190.5650  176.8220  145.9310 C   0  0  2  0  0  3  0  0  0  0  0  0
  192.3310  174.9890  145.9980 C   0  0  0  0  0  2  0  0  0  0  0  0
  192.2000  176.6660  144.0400 C   0  0  0  0  0  2  0  0  0  0  0  0
  190.7240  176.6480  144.4170 C   0  0  0  0  0  2  0  0  0  0  0  0
  191.6320  176.1060  146.7720 C   0  0  0  0  0  2  0  0  0  0  0  0
  189.1750  176.5010  146.3930 C   0  0  0  0  0  0  0  0  0  0  0  0
  188.9230  175.3220  146.7500 O   0  0  0  0  0  0  0  0  0  0  0  0
  188.1450  177.4480  146.4270 O   0  0  0  0  0  0  0  0  0  0  0  0
  186.8310  177.1620  146.8860 C   0  0  0  0  0  2  0  0  0  0  0  0
  185.9310  178.3740  146.6990 C   0  0  0  0  0  2  0  0  0  0  0  0
  184.9210  178.1500  145.5820 C   0  0  1  0  0  3  0  0  0  0  0  0
  183.6890  178.6920  145.9510 O   0  0  0  0  0  1  0  0  0  0  0  0
  185.4060  178.7710  144.2740 C   0  0  2  0  0  3  0  0  0  0  0  0
  185.1710  180.1490  144.2630 O   0  0  0  0  0  1  0  0  0  0  0  0
  184.7240  178.1110  143.0850 C   0  0  0  0  0  2  0  0  0  0  0  0
  187.1060  176.6120  140.7700 C   0  0  0  0  0  0  0  0  0  0  0  0
  188.0270  175.0220  142.8050 C   0  0  0  0  0  3  0  0  0  0  0  0
  187.0780  176.0170  143.0910 C   0  0  0  0  0  3  0  0  0  0  0  0
  188.4890  174.8530  141.4810 C   0  0  0  0  0  3  0  0  0  0  0  0
  188.0170  175.6500  140.4750 N   0  0  0  0  0  0  0  0  0  0  0  0
  186.4880  177.4910  139.8440 N   0  0  0  0  0  0  0  0  0  0  0  0
  185.5380  178.2930  140.6340 C   0  0  0  0  0  3  0  0  0  0  0  0
  185.6890  177.8500  142.0270 N   0  0  0  0  0  0  0  0  0  0  0  0
  186.6420  176.8050  142.0280 C   0  0  0  0  0  0  0  0  0  0  0  0
  194.8830  175.5170  146.1210 O   0  0  0  0  0  1  0  0  0  0  0  0
  194.4420  175.8350  144.8330 C   0  0  1  0  0  3  0  0  0  0  0  0
  195.2980  175.1290  143.7610 C   0  0  1  0  0  3  0  0  0  0  0  0
  196.3810  175.9220  141.6590 O   0  0  0  0  0  0  0  0  0  0  0  0
  196.1600  176.1030  143.0170 C   0  0  0  0  0  0  0  0  0  0  0  0
  196.6990  177.0730  143.6140 O   0  0  0  0  0  1  0  0  0  0  0  0
  197.6210  174.3710  144.3800 C   0  0  0  0  0  1  0  0  0  0  0  0
  196.1580  173.9730  144.2930 C   0  0  2  0  0  3  0  0  0  0  0  0
  196.0070  172.7720  143.4790 N   0  0  0  0  0  2  0  0  0  0  0  0
  194.6490  171.8610  144.1170 P   0  0  0  0  0  0  0  0  0  0  0  0
  193.2420  172.3130  143.2940 O   0  0  0  0  0  0  0  0  0  0  0  0
  194.4620  172.1890  145.7660 O   0  0  0  0  0  1  0  0  0  0  0  0
  194.8900  170.3810  143.9190 O   0  0  0  0  0  1  0  0  0  0  0  0
  1 27  1  1  0  0  0
  1  3  1  0  0  0  0
  2  7  1  1  0  0  0
  2  6  1  0  0  0  0
  3  6  1  0  0  0  0
  4  5  1  0  0  0  0
  4  1  1  0  0  0  0
  5  2  1  0  0  0  0
  7  9  1  0  0  0  0
  7  8  2  0  0  0  0
  9 10  1  0  0  0  0
 11 10  1  0  0  0  0
 12 13  1  1  0  0  0
 12 11  1  0  0  0  0
 14 15  1  1  0  0  0
 14 12  1  0  0  0  0
 16 14  1  0  0  0  0
 17 25  1  0  0  0  0
 18 19  1  0  0  0  0
 20 18  2  0  0  0  0
 21 17  2  0  0  0  0
 21 20  1  0  0  0  0
 22 23  2  0  0  0  0
 22 17  1  0  0  0  0
 23 24  1  0  0  0  0
 24 25  1  0  0  0  0
 24 16  1  0  0  0  0
 25 19  2  0  0  0  0
 27 26  1  1  0  0  0
 28 30  1  1  0  0  0
 28 33  1  0  0  0  0
 28 27  1  0  0  0  0
 29 30  2  0  0  0  0
 30 31  1  0  0  0  0
 33 32  1  6  0  0  0
 34 35  1  0  0  0  0
 34 33  1  0  0  0  0
 35 37  1  0  0  0  0
 36 35  2  0  0  0  0
 38 35  1  0  0  0  0
M  END
>  <MODEL>
6

>  <REMARK>
 VINA RESULT:      -6.3      3.051      8.066
  Name = 
  14 active torsions:
  status: ('A' for Active; 'I' for Inactive)
    1  A    between atoms: C_1  and  C_3
    2  A    between atoms: C_1  and  C_37
    3  A    between atoms: C_3  and  C_32
    4  A    between atoms: C_4  and  C_29
    5  A    between atoms: C_5  and  C_15
    6  A    between atoms: P_8  and  N_21
    7  A    between atoms: C_13  and  C_24
    8  A    between atoms: C_15  and  O_19
    9  A    between atoms: C_16  and  N_30
   10  A    between atoms: C_16  and  C_32
   11  A    between atoms: O_19  and  C_37
   12  A    between atoms: N_21  and  C_27
   13  A    between atoms: C_24  and  C_27
   14  A    between atoms: C_24  and  C_29
                            x       y       z     vdW  Elec       q    Type
                         _______ _______ _______ _____ _____    ______ ____

>  <TORSDO>
F 14

$$$$
=
 OpenBabel11062419263D

 38 40  0  0  1  0  0  0  0  0999 V2000
  191.6510  173.3290  144.1240 C   0  0  1  0  0  3  0  0  0  0  0  0
  190.1830  171.9390  141.8980 C   0  0  2  0  0  3  0  0  0  0  0  0
  191.9420  173.6260  142.6390 C   0  0  0  0  0  2  0  0  0  0  0  0
  190.5000  172.3390  144.3510 C   0  0  0  0  0  2  0  0  0  0  0  0
  189.5010  172.3730  143.2000 C   0  0  0  0  0  2  0  0  0  0  0  0
  191.6310  172.4300  141.7400 C   0  0  0  0  0  2  0  0  0  0  0  0
  189.3480  172.2510  140.6920 C   0  0  0  0  0  0  0  0  0  0  0  0
  189.6080  171.6530  139.6160 O   0  0  0  0  0  0  0  0  0  0  0  0
  188.3100  173.1900  140.7050 O   0  0  0  0  0  0  0  0  0  0  0  0
  188.4770  174.5490  140.3290 C   0  0  0  0  0  2  0  0  0  0  0  0
  188.3450  175.4530  141.5460 C   0  0  0  0  0  2  0  0  0  0  0  0
  187.8410  176.8380  141.1580 C   0  0  1  0  0  3  0  0  0  0  0  0
  186.9570  176.7290  140.0830 O   0  0  0  0  0  1  0  0  0  0  0  0
  187.1610  177.5220  142.3410 C   0  0  2  0  0  3  0  0  0  0  0  0
  188.1080  177.9770  143.2630 O   0  0  0  0  0  1  0  0  0  0  0  0
  186.1820  176.5730  143.0160 C   0  0  0  0  0  2  0  0  0  0  0  0
  184.7780  178.4780  145.7870 C   0  0  0  0  0  0  0  0  0  0  0  0
  186.4300  177.1250  147.5060 C   0  0  0  0  0  3  0  0  0  0  0  0
  186.3910  176.7450  146.1550 C   0  0  0  0  0  3  0  0  0  0  0  0
  185.6260  178.1940  147.9570 C   0  0  0  0  0  3  0  0  0  0  0  0
  184.8100  178.8630  147.0880 N   0  0  0  0  0  0  0  0  0  0  0  0
  184.0230  179.0870  144.7530 N   0  0  0  0  0  0  0  0  0  0  0  0
  184.3750  178.3570  143.5230 C   0  0  0  0  0  3  0  0  0  0  0  0
  185.3150  177.3020  143.9290 N   0  0  0  0  0  0  0  0  0  0  0  0
  185.5340  177.4570  145.3180 C   0  0  0  0  0  0  0  0  0  0  0  0
  193.8710  172.4180  143.9970 O   0  0  0  0  0  1  0  0  0  0  0  0
  192.9000  172.8830  144.8880 C   0  0  1  0  0  3  0  0  0  0  0  0
  193.4560  174.0130  145.7790 C   0  0  1  0  0  3  0  0  0  0  0  0
  194.7320  175.3070  144.0700 O   0  0  0  0  0  0  0  0  0  0  0  0
  194.7430  174.5570  145.2380 C   0  0  0  0  0  0  0  0  0  0  0  0
  195.8350  174.3280  145.8230 O   0  0  0  0  0  1  0  0  0  0  0  0
  193.1920  176.5000  146.0960 C   0  0  0  0  0  1  0  0  0  0  0  0
  192.4720  175.1640  146.0360 C   0  0  2  0  0  3  0  0  0  0  0  0
  191.6990  174.9490  147.2540 N   0  0  0  0  0  2  0  0  0  0  0  0
  190.1150  175.6640  147.0170 P   0  0  0  0  0  0  0  0  0  0  0  0
  188.9300  174.5660  147.5170 O   0  0  0  0  0  1  0  0  0  0  0  0
  189.8860  176.0240  145.3800 O   0  0  0  0  0  0  0  0  0  0  0  0
  189.9990  176.9300  147.8350 O   0  0  0  0  0  1  0  0  0  0  0  0
  1  4  1  0  0  0  0
  1 27  1  6  0  0  0
  2  7  1  6  0  0  0
  2  5  1  0  0  0  0
  3  1  1  0  0  0  0
  5  4  1  0  0  0  0
  6  2  1  0  0  0  0
  6  3  1  0  0  0  0
  7  9  1  0  0  0  0
  8  7  2  0  0  0  0
 10  9  1  0  0  0  0
 10 11  1  0  0  0  0
 12 13  1  6  0  0  0
 12 11  1  0  0  0  0
 12 14  1  0  0  0  0
 14 16  1  0  0  0  0
 14 15  1  1  0  0  0
 16 24  1  0  0  0  0
 17 21  2  0  0  0  0
 18 20  2  0  0  0  0
 19 18  1  0  0  0  0
 21 20  1  0  0  0  0
 22 17  1  0  0  0  0
 23 24  1  0  0  0  0
 23 22  2  0  0  0  0
 24 25  1  0  0  0  0
 25 17  1  0  0  0  0
 25 19  2  0  0  0  0
 27 26  1  6  0  0  0
 27 28  1  0  0  0  0
 28 30  1  6  0  0  0
 28 33  1  0  0  0  0
 29 30  2  0  0  0  0
 30 31  1  0  0  0  0
 33 32  1  1  0  0  0
 33 34  1  0  0  0  0
 35 34  1  0  0  0  0
 35 36  1  0  0  0  0
 35 38  1  0  0  0  0
 37 35  2  0  0  0  0
M  END
>  <MODEL>
7

>  <REMARK>
 VINA RESULT:      -6.2      2.876      8.112
  Name = 
  14 active torsions:
  status: ('A' for Active; 'I' for Inactive)
    1  A    between atoms: C_1  and  C_3
    2  A    between atoms: C_1  and  C_37
    3  A    between atoms: C_3  and  C_32
    4  A    between atoms: C_4  and  C_29
    5  A    between atoms: C_5  and  C_15
    6  A    between atoms: P_8  and  N_21
    7  A    between atoms: C_13  and  C_24
    8  A    between atoms: C_15  and  O_19
    9  A    between atoms: C_16  and  N_30
   10  A    between atoms: C_16  and  C_32
   11  A    between atoms: O_19  and  C_37
   12  A    between atoms: N_21  and  C_27
   13  A    between atoms: C_24  and  C_27
   14  A    between atoms: C_24  and  C_29
                            x       y       z     vdW  Elec       q    Type
                         _______ _______ _______ _____ _____    ______ ____

>  <TORSDO>
F 14

$$$$
=
 OpenBabel11062419263D

 38 40  0  0  1  0  0  0  0  0999 V2000
  194.3220  176.6150  144.7700 C   0  0  1  0  0  3  0  0  0  0  0  0
  192.0890  175.2800  146.2760 C   0  0  2  0  0  3  0  0  0  0  0  0
  193.0140  176.1790  144.0800 C   0  0  0  0  0  2  0  0  0  0  0  0
  194.3360  176.3860  146.2880 C   0  0  0  0  0  2  0  0  0  0  0  0
  192.9280  176.4180  146.8680 C   0  0  0  0  0  2  0  0  0  0  0  0
  192.3550  174.9960  144.7890 C   0  0  0  0  0  2  0  0  0  0  0  0
  190.6270  175.4480  146.5640 C   0  0  0  0  0  0  0  0  0  0  0  0
  190.2200  175.2250  147.7330 O   0  0  0  0  0  0  0  0  0  0  0  0
  189.6960  175.8220  145.5880 O   0  0  0  0  0  0  0  0  0  0  0  0
  189.3130  177.1680  145.3430 C   0  0  0  0  0  2  0  0  0  0  0  0
  189.6450  177.5580  143.9110 C   0  0  0  0  0  2  0  0  0  0  0  0
  188.3880  177.6590  143.0560 C   0  0  1  0  0  3  0  0  0  0  0  0
  188.7290  178.0950  141.7750 O   0  0  0  0  0  1  0  0  0  0  0  0
  187.6640  176.3170  142.9880 C   0  0  2  0  0  3  0  0  0  0  0  0
  188.1800  175.5280  141.9550 O   0  0  0  0  0  1  0  0  0  0  0  0
  186.1690  176.5260  142.7940 C   0  0  0  0  0  2  0  0  0  0  0  0
  185.5830  179.0390  145.3680 C   0  0  0  0  0  0  0  0  0  0  0  0
  185.7840  177.0790  147.2750 C   0  0  0  0  0  3  0  0  0  0  0  0
  185.8060  176.7180  145.9180 C   0  0  0  0  0  3  0  0  0  0  0  0
  185.6630  178.4390  147.6360 C   0  0  0  0  0  3  0  0  0  0  0  0
  185.5680  179.4060  146.6750 N   0  0  0  0  0  0  0  0  0  0  0  0
  185.5360  179.9130  144.2530 N   0  0  0  0  0  0  0  0  0  0  0  0
  185.6450  179.0470  143.0660 C   0  0  0  0  0  3  0  0  0  0  0  0
  185.7120  177.6690  143.5710 N   0  0  0  0  0  0  0  0  0  0  0  0
  185.6960  177.7450  144.9830 C   0  0  0  0  0  0  0  0  0  0  0  0
  196.1940  175.1280  145.0210 O   0  0  0  0  0  1  0  0  0  0  0  0
  195.5630  175.9930  144.1230 C   0  0  1  0  0  3  0  0  0  0  0  0
  195.2160  175.2710  142.8040 C   0  0  1  0  0  3  0  0  0  0  0  0
  196.4310  177.1570  141.7140 O   0  0  0  0  0  1  0  0  0  0  0  0
  195.4980  176.1350  141.6130 C   0  0  0  0  0  0  0  0  0  0  0  0
  194.8860  175.9530  140.5270 O   0  0  0  0  0  0  0  0  0  0  0  0
  197.1190  174.0100  141.7370 C   0  0  0  0  0  1  0  0  0  0  0  0
  195.8950  173.9050  142.6290 C   0  0  2  0  0  3  0  0  0  0  0  0
  194.9690  172.9080  142.1040 N   0  0  0  0  0  2  0  0  0  0  0  0
  194.8590  171.6080  143.2780 P   0  0  0  0  0  0  0  0  0  0  0  0
  193.6220  170.5500  142.8200 O   0  0  0  0  0  0  0  0  0  0  0  0
  194.5130  172.2430  144.8070 O   0  0  0  0  0  1  0  0  0  0  0  0
  196.1680  170.8530  143.3270 O   0  0  0  0  0  1  0  0  0  0  0  0
  1 27  1  6  0  0  0
  1  4  1  0  0  0  0
  2  7  1  6  0  0  0
  2  5  1  0  0  0  0
  3  1  1  0  0  0  0
  3  6  1  0  0  0  0
  4  5  1  0  0  0  0
  6  2  1  0  0  0  0
  7  8  2  0  0  0  0
  9  7  1  0  0  0  0
 10  9  1  0  0  0  0
 11 10  1  0  0  0  0
 12 13  1  6  0  0  0
 12 11  1  0  0  0  0
 14 15  1  6  0  0  0
 14 12  1  0  0  0  0
 16 14  1  0  0  0  0
 16 24  1  0  0  0  0
 17 21  2  0  0  0  0
 18 20  2  0  0  0  0
 19 18  1  0  0  0  0
 21 20  1  0  0  0  0
 22 17  1  0  0  0  0
 23 24  1  0  0  0  0
 23 22  2  0  0  0  0
 24 25  1  0  0  0  0
 25 17  1  0  0  0  0
 25 19  2  0  0  0  0
 27 26  1  1  0  0  0
 28 30  1  6  0  0  0
 28 27  1  0  0  0  0
 30 29  1  0  0  0  0
 31 30  2  0  0  0  0
 33 32  1  6  0  0  0
 33 28  1  0  0  0  0
 34 33  1  0  0  0  0
 34 35  1  0  0  0  0
 35 38  1  0  0  0  0
 35 37  1  0  0  0  0
 36 35  2  0  0  0  0
M  END
>  <MODEL>
8

>  <REMARK>
 VINA RESULT:      -6.1      3.593      8.368
  Name = 
  14 active torsions:
  status: ('A' for Active; 'I' for Inactive)
    1  A    between atoms: C_1  and  C_3
    2  A    between atoms: C_1  and  C_37
    3  A    between atoms: C_3  and  C_32
    4  A    between atoms: C_4  and  C_29
    5  A    between atoms: C_5  and  C_15
    6  A    between atoms: P_8  and  N_21
    7  A    between atoms: C_13  and  C_24
    8  A    between atoms: C_15  and  O_19
    9  A    between atoms: C_16  and  N_30
   10  A    between atoms: C_16  and  C_32
   11  A    between atoms: O_19  and  C_37
   12  A    between atoms: N_21  and  C_27
   13  A    between atoms: C_24  and  C_27
   14  A    between atoms: C_24  and  C_29
                            x       y       z     vdW  Elec       q    Type
                         _______ _______ _______ _____ _____    ______ ____

>  <TORSDO>
F 14

$$$$
=
 OpenBabel11062419263D

 38 40  0  0  1  0  0  0  0  0999 V2000
  190.9120  175.2990  146.9300 C   0  0  1  0  0  3  0  0  0  0  0  0
  188.5890  177.1700  146.5520 C   0  0  2  0  0  3  0  0  0  0  0  0
  190.8390  176.6680  147.6360 C   0  0  0  0  0  2  0  0  0  0  0  0
  189.6660  174.9540  146.1020 C   0  0  0  0  0  2  0  0  0  0  0  0
  188.4250  175.6490  146.6480 C   0  0  0  0  0  2  0  0  0  0  0  0
  190.0080  177.6800  146.8470 C   0  0  0  0  0  2  0  0  0  0  0  0
  187.5520  177.9010  147.3510 C   0  0  0  0  0  0  0  0  0  0  0  0
  187.9310  178.5910  148.3310 O   0  0  0  0  0  0  0  0  0  0  0  0
  186.1830  177.8330  147.0670 O   0  0  0  0  0  0  0  0  0  0  0  0
  185.4220  178.9390  146.6020 C   0  0  0  0  0  2  0  0  0  0  0  0
  184.2670  178.4580  145.7370 C   0  0  0  0  0  2  0  0  0  0  0  0
  184.5160  178.7490  144.2630 C   0  0  1  0  0  3  0  0  0  0  0  0
  185.2210  179.9480  144.1370 O   0  0  0  0  0  1  0  0  0  0  0  0
  185.2840  177.6070  143.6020 C   0  0  2  0  0  3  0  0  0  0  0  0
  185.2910  176.4750  144.4220 O   0  0  0  0  0  1  0  0  0  0  0  0
  186.7090  178.0360  143.2850 C   0  0  0  0  0  2  0  0  0  0  0  0
  187.6150  175.8430  140.5190 C   0  0  0  0  0  0  0  0  0  0  0  0
  188.6660  174.0640  142.3210 C   0  0  0  0  0  3  0  0  0  0  0  0
  188.2050  175.3100  142.7790 C   0  0  0  0  0  3  0  0  0  0  0  0
  188.5790  173.7460  140.9480 C   0  0  0  0  0  3  0  0  0  0  0  0
  188.0490  174.6410  140.0610 N   0  0  0  0  0  0  0  0  0  0  0  0
  187.0050  176.8620  139.7450 N   0  0  0  0  0  0  0  0  0  0  0  0
  186.6580  177.9300  140.6980 C   0  0  0  0  0  3  0  0  0  0  0  0
  187.1360  177.4760  142.0110 N   0  0  0  0  0  0  0  0  0  0  0  0
  187.6840  176.1840  141.8280 C   0  0  0  0  0  0  0  0  0  0  0  0
  192.8430  173.9600  146.4240 O   0  0  0  0  0  1  0  0  0  0  0  0
  192.1780  175.1420  146.0840 C   0  0  1  0  0  3  0  0  0  0  0  0
  191.8640  175.1910  144.5750 C   0  0  1  0  0  3  0  0  0  0  0  0
  191.3080  176.9550  142.9010 O   0  0  0  0  0  0  0  0  0  0  0  0
  192.0330  176.5730  144.0220 C   0  0  0  0  0  0  0  0  0  0  0  0
  192.8350  177.3850  144.5530 O   0  0  0  0  0  1  0  0  0  0  0  0
  193.9140  174.8310  143.1530 C   0  0  0  0  0  1  0  0  0  0  0  0
  192.6620  174.1900  143.7260 C   0  0  2  0  0  3  0  0  0  0  0  0
  191.8480  173.6220  142.6570 N   0  0  0  0  0  2  0  0  0  0  0  0
  192.0910  171.8840  142.6650 P   0  0  0  0  0  0  0  0  0  0  0  0
  190.6820  171.1250  142.1170 O   0  0  0  0  0  1  0  0  0  0  0  0
  192.4340  171.3590  144.2360 O   0  0  0  0  0  1  0  0  0  0  0  0
  193.2390  171.5260  141.7490 O   0  0  0  0  0  0  0  0  0  0  0  0
  1 27  1  6  0  0  0
  1  3  1  0  0  0  0
  2  5  1  0  0  0  0
  2  6  1  0  0  0  0
  2  7  1  1  0  0  0
  4  5  1  0  0  0  0
  4  1  1  0  0  0  0
  6  3  1  0  0  0  0
  7  8  2  0  0  0  0
  9  7  1  0  0  0  0
 10  9  1  0  0  0  0
 11 10  1  0  0  0  0
 12 13  1  1  0  0  0
 12 11  1  0  0  0  0
 14 12  1  0  0  0  0
 14 15  1  1  0  0  0
 16 14  1  0  0  0  0
 17 25  1  0  0  0  0
 18 19  1  0  0  0  0
 20 18  2  0  0  0  0
 21 17  2  0  0  0  0
 21 20  1  0  0  0  0
 22 17  1  0  0  0  0
 22 23  2  0  0  0  0
 23 24  1  0  0  0  0
 24 16  1  0  0  0  0
 25 24  1  0  0  0  0
 25 19  2  0  0  0  0
 27 26  1  6  0  0  0
 28 30  1  6  0  0  0
 28 27  1  0  0  0  0
 29 30  2  0  0  0  0
 30 31  1  0  0  0  0
 33 32  1  6  0  0  0
 33 28  1  0  0  0  0
 34 35  1  0  0  0  0
 34 33  1  0  0  0  0
 35 37  1  0  0  0  0
 36 35  1  0  0  0  0
 38 35  2  0  0  0  0
M  END
>  <MODEL>
9

>  <REMARK>
 VINA RESULT:      -6.1      2.605      6.546
  Name = 
  14 active torsions:
  status: ('A' for Active; 'I' for Inactive)
    1  A    between atoms: C_1  and  C_3
    2  A    between atoms: C_1  and  C_37
    3  A    between atoms: C_3  and  C_32
    4  A    between atoms: C_4  and  C_29
    5  A    between atoms: C_5  and  C_15
    6  A    between atoms: P_8  and  N_21
    7  A    between atoms: C_13  and  C_24
    8  A    between atoms: C_15  and  O_19
    9  A    between atoms: C_16  and  N_30
   10  A    between atoms: C_16  and  C_32
   11  A    between atoms: O_19  and  C_37
   12  A    between atoms: N_21  and  C_27
   13  A    between atoms: C_24  and  C_27
   14  A    between atoms: C_24  and  C_29
                            x       y       z     vdW  Elec       q    Type
                         _______ _______ _______ _____ _____    ______ ____

>  <TORSDO>
F 14

$$$$
