=
 OpenBabel11062422193D

 41 43  0  0  1  0  0  0  0  0999 V2000
  190.0700  171.4930  141.7240 O   0  0  0  0  0  0  0  0  0  0  0  0
  189.6800  174.0340  141.7600 C   0  0  2  0  0  0  0  0  0  0  0  0
  191.4120  171.8090  141.3900 C   0  0  2  0  0  3  0  0  0  0  0  0
  189.1720  172.6000  141.7090 C   0  0  2  0  0  0  0  0  0  0  0  0
  187.9060  172.3630  142.2520 O   0  0  0  0  0  1  0  0  0  0  0  0
  191.9550  173.0570  142.1030 C   0  0  2  0  0  3  0  0  0  0  0  0
  189.1390  173.4500  140.4520 C   0  0  0  0  0  2  0  0  0  0  0  0
  191.1780  174.2880  141.6720 C   0  0  0  0  0  2  0  0  0  0  0  0
  191.5740  171.8850  140.0000 O   0  0  0  0  0  1  0  0  0  0  0  0
  193.4230  173.2710  141.7720 C   0  0  0  0  0  2  0  0  0  0  0  0
  194.2850  172.1350  142.2990 C   0  0  0  0  0  2  0  0  0  0  0  0
  195.9270  172.7450  142.8150 S   0  0  0  0  0  0  0  0  0  0  0  0
  195.2510  174.1670  143.7490 C   0  0  2  0  0  3  0  0  0  0  0  0
  196.0710  175.4370  143.5490 C   0  0  0  0  0  2  0  0  0  0  0  0
  195.4850  176.2780  142.5960 O   0  0  0  0  0  1  0  0  0  0  0  0
  196.0220  173.9450  145.9820 O   0  0  0  0  0  0  0  0  0  0  0  0
  195.0530  173.8210  145.1870 C   0  0  0  0  0  0  0  0  0  0  0  0
  193.8130  173.3620  145.6420 O   0  0  0  0  0  0  0  0  0  0  0  0
  192.6090  174.0630  145.3700 C   0  0  0  0  0  2  0  0  0  0  0  0
  191.2210  175.2740  148.3610 O   0  0  0  0  0  0  0  0  0  0  0  0
  191.8660  175.2880  147.3070 C   0  0  0  0  0  0  0  0  0  0  0  0
  192.5480  175.3020  146.1960 C   0  0  0  0  0  0  0  0  0  0  0  0
  194.2750  177.0730  146.4670 O   0  0  0  0  0  1  0  0  0  0  0  0
  192.8180  177.1260  144.7050 O   0  0  0  0  0  0  0  0  0  0  0  0
  193.2110  176.5400  145.7470 C   0  0  0  0  0  0  0  0  0  0  0  0
  188.7800  175.1450  142.2750 C   0  0  0  0  0  2  0  0  0  0  0  0
  189.5190  176.0050  143.2830 C   0  0  0  0  0  2  0  0  0  0  0  0
  188.9910  175.7020  144.6720 C   0  0  0  0  0  2  0  0  0  0  0  0
  185.3040  177.6080  146.2080 C   0  0  2  0  0  3  0  0  0  0  0  0
  187.7440  177.7710  144.0230 C   0  0  0  0  0  2  0  0  0  0  0  0
  184.9270  176.3020  146.5150 O   0  0  0  0  0  1  0  0  0  0  0  0
  187.8250  176.6160  145.0230 C   0  0  2  0  0  3  0  0  0  0  0  0
  189.1190  177.7100  146.9230 C   0  0  0  0  0  1  0  0  0  0  0  0
  187.8160  177.0460  146.5060 C   0  0  1  0  0  3  0  0  0  0  0  0
  185.2750  177.8230  144.6800 C   0  0  0  0  0  2  0  0  0  0  0  0
  186.4710  178.6220  144.1490 C   0  0  2  0  0  3  0  0  0  0  0  0
  186.6390  177.9550  146.8870 C   0  0  0  0  0  2  0  0  0  0  0  0
  186.1550  179.1720  142.9030 O   0  0  0  0  0  0  0  0  0  0  0  0
  185.1320  178.4640  142.4660 O   0  0  0  0  0  0  0  0  0  0  0  0
  186.3220  177.4430  140.6800 C   0  0  0  0  0  1  0  0  0  0  0  0
  185.2690  178.4550  141.0760 C   0  0  0  0  0  2  0  0  0  0  0  0
  2 26  1  1  0  0  0
  3  9  1  6  0  0  0
  3  1  1  0  0  0  0
  3  6  1  0  0  0  0
  4  1  1  0  0  0  0
  4  2  1  0  0  0  0
  4  5  1  1  0  0  0
  6 10  1  6  0  0  0
  7  4  1  0  0  0  0
  7  2  1  0  0  0  0
  8  2  1  0  0  0  0
  8  6  1  0  0  0  0
 10 11  1  0  0  0  0
 11 12  1  0  0  0  0
 12 13  1  0  0  0  0
 13 14  1  1  0  0  0
 13 17  1  0  0  0  0
 15 14  1  0  0  0  0
 17 18  1  0  0  0  0
 17 16  2  0  0  0  0
 19 18  1  0  0  0  0
 19 22  1  0  0  0  0
 21 20  2  0  0  0  0
 22 21  2  0  0  0  0
 24 25  2  0  0  0  0
 25 22  1  0  0  0  0
 25 23  1  0  0  0  0
 26 27  1  0  0  0  0
 27 28  1  0  0  0  0
 29 31  1  6  0  0  0
 29 37  1  0  0  0  0
 30 36  1  0  0  0  0
 30 32  1  0  0  0  0
 32 28  1  6  0  0  0
 32 34  1  0  0  0  0
 34 37  1  0  0  0  0
 34 33  1  6  0  0  0
 35 29  1  0  0  0  0
 36 38  1  6  0  0  0
 36 35  1  0  0  0  0
 39 38  1  0  0  0  0
 40 41  1  0  0  0  0
 41 39  1  0  0  0  0
M  END
>  <MODEL>
1

>  <REMARK>
 VINA RESULT:      -6.1      0.000      0.000
  Name = 
  17 active torsions:
  status: ('A' for Active; 'I' for Inactive)
    1  A    between atoms: O_2  and  C_27
    2  A    between atoms: O_2  and  C_38
    3  A    between atoms: C_5  and  C_9
    4  A    between atoms: C_5  and  C_11
    5  A    between atoms: C_6  and  C_11
    6  A    between atoms: C_6  and  C_20
    7  A    between atoms: C_12  and  C_21
    8  A    between atoms: S_14  and  C_21
    9  A    between atoms: S_14  and  C_37
   10  A    between atoms: C_16  and  C_23
   11  A    between atoms: C_16  and  C_37
   12  A    between atoms: C_21  and  C_27
   13  A    between atoms: O_24  and  O_31
   14  A    between atoms: O_24  and  C_33
   15  A    between atoms: C_25  and  C_38
   16  A    between atoms: C_25  and  C_40
   17  A    between atoms: O_31  and  C_35
                            x       y       z     vdW  Elec       q    Type
                         _______ _______ _______ _____ _____    ______ ____

>  <TORSDO>
F 17

$$$$
=
 OpenBabel11062422193D

 41 43  0  0  1  0  0  0  0  0999 V2000
  189.7830  172.0480  140.6600 O   0  0  0  0  0  0  0  0  0  0  0  0
  191.6160  173.3580  141.8980 C   0  0  2  0  0  0  0  0  0  0  0  0
  188.8750  172.9610  141.2550 C   0  0  2  0  0  3  0  0  0  0  0  0
  191.1210  172.1310  141.1440 C   0  0  2  0  0  0  0  0  0  0  0  0
  192.0750  171.4100  140.4210 O   0  0  0  0  0  1  0  0  0  0  0  0
  189.4090  174.3970  141.3530 C   0  0  2  0  0  3  0  0  0  0  0  0
  191.3200  172.0560  142.6480 C   0  0  0  0  0  2  0  0  0  0  0  0
  190.6190  174.4460  142.2690 C   0  0  0  0  0  2  0  0  0  0  0  0
  188.4260  172.4810  142.4920 O   0  0  0  0  0  1  0  0  0  0  0  0
  188.3460  175.3320  141.9060 C   0  0  0  0  0  2  0  0  0  0  0  0
  188.9650  176.5490  142.5730 C   0  0  0  0  0  2  0  0  0  0  0  0
  188.3640  178.0920  141.8040 S   0  0  0  0  0  0  0  0  0  0  0  0
  186.6620  177.4660  141.5630 C   0  0  2  0  0  3  0  0  0  0  0  0
  186.0950  177.8340  140.1960 C   0  0  0  0  0  2  0  0  0  0  0  0
  186.6220  177.0190  139.1880 O   0  0  0  0  0  1  0  0  0  0  0  0
  184.5620  177.5280  142.6650 O   0  0  0  0  0  0  0  0  0  0  0  0
  185.7740  177.8710  142.6910 C   0  0  0  0  0  0  0  0  0  0  0  0
  186.2780  178.6230  143.7570 O   0  0  0  0  0  0  0  0  0  0  0  0
  186.8260  178.0090  144.9130 C   0  0  0  0  0  2  0  0  0  0  0  0
  183.5570  179.0680  145.6450 O   0  0  0  0  0  0  0  0  0  0  0  0
  184.6990  178.6430  145.8510 C   0  0  0  0  0  0  0  0  0  0  0  0
  185.9030  178.1940  146.0690 C   0  0  0  0  0  0  0  0  0  0  0  0
  186.3270  176.6190  147.9480 O   0  0  0  0  0  0  0  0  0  0  0  0
  186.7710  178.8500  148.1770 O   0  0  0  0  0  1  0  0  0  0  0  0
  186.3550  177.9150  147.4450 C   0  0  0  0  0  0  0  0  0  0  0  0
  193.1000  173.6830  141.9340 C   0  0  0  0  0  2  0  0  0  0  0  0
  193.4090  174.8650  141.0350 C   0  0  0  0  0  2  0  0  0  0  0  0
  193.8960  176.0200  141.8880 C   0  0  0  0  0  2  0  0  0  0  0  0
  194.7980  173.9200  145.6780 C   0  0  2  0  0  3  0  0  0  0  0  0
  193.3370  176.5020  144.2790 C   0  0  0  0  0  2  0  0  0  0  0  0
  194.7680  172.7740  144.8840 O   0  0  0  0  0  1  0  0  0  0  0  0
  194.1070  175.5800  143.3300 C   0  0  2  0  0  3  0  0  0  0  0  0
  196.4270  176.6240  143.4180 C   0  0  0  0  0  1  0  0  0  0  0  0
  195.5950  175.3810  143.6930 C   0  0  1  0  0  3  0  0  0  0  0  0
  193.3710  174.4840  145.8470 C   0  0  0  0  0  2  0  0  0  0  0  0
  193.2970  176.0110  145.7340 C   0  0  2  0  0  3  0  0  0  0  0  0
  195.8320  174.9200  145.1380 C   0  0  0  0  0  2  0  0  0  0  0  0
  192.1290  176.4740  146.3470 O   0  0  0  0  0  0  0  0  0  0  0  0
  191.1550  176.1440  145.5210 O   0  0  0  0  0  0  0  0  0  0  0  0
  189.0540  175.1980  146.1060 C   0  0  0  0  0  1  0  0  0  0  0  0
  189.9800  176.3890  146.2340 C   0  0  0  0  0  2  0  0  0  0  0  0
  1  4  1  0  0  0  0
  1  3  1  0  0  0  0
  2 26  1  6  0  0  0
  2  8  1  0  0  0  0
  2  7  1  0  0  0  0
  3  6  1  0  0  0  0
  3  9  1  1  0  0  0
  4  5  1  6  0  0  0
  4  2  1  0  0  0  0
  4  7  1  0  0  0  0
  6 10  1  1  0  0  0
  6  8  1  0  0  0  0
 10 11  1  0  0  0  0
 12 11  1  0  0  0  0
 13 14  1  6  0  0  0
 13 12  1  0  0  0  0
 13 17  1  0  0  0  0
 15 14  1  0  0  0  0
 16 17  2  0  0  0  0
 17 18  1  0  0  0  0
 18 19  1  0  0  0  0
 19 22  1  0  0  0  0
 20 21  2  0  0  0  0
 21 22  2  0  0  0  0
 22 25  1  0  0  0  0
 25 23  2  0  0  0  0
 25 24  1  0  0  0  0
 27 28  1  0  0  0  0
 27 26  1  0  0  0  0
 29 31  1  6  0  0  0
 29 35  1  0  0  0  0
 30 36  1  0  0  0  0
 32 28  1  6  0  0  0
 32 34  1  0  0  0  0
 32 30  1  0  0  0  0
 34 33  1  1  0  0  0
 34 37  1  0  0  0  0
 36 35  1  0  0  0  0
 36 38  1  6  0  0  0
 37 29  1  0  0  0  0
 39 41  1  0  0  0  0
 39 38  1  0  0  0  0
 40 41  1  0  0  0  0
M  END
>  <MODEL>
2

>  <REMARK>
 VINA RESULT:      -6.0      2.120      7.396
  Name = 
  17 active torsions:
  status: ('A' for Active; 'I' for Inactive)
    1  A    between atoms: O_2  and  C_27
    2  A    between atoms: O_2  and  C_38
    3  A    between atoms: C_5  and  C_9
    4  A    between atoms: C_5  and  C_11
    5  A    between atoms: C_6  and  C_11
    6  A    between atoms: C_6  and  C_20
    7  A    between atoms: C_12  and  C_21
    8  A    between atoms: S_14  and  C_21
    9  A    between atoms: S_14  and  C_37
   10  A    between atoms: C_16  and  C_23
   11  A    between atoms: C_16  and  C_37
   12  A    between atoms: C_21  and  C_27
   13  A    between atoms: O_24  and  O_31
   14  A    between atoms: O_24  and  C_33
   15  A    between atoms: C_25  and  C_38
   16  A    between atoms: C_25  and  C_40
   17  A    between atoms: O_31  and  C_35
                            x       y       z     vdW  Elec       q    Type
                         _______ _______ _______ _____ _____    ______ ____

>  <TORSDO>
F 17

$$$$
=
 OpenBabel11062422193D

 41 43  0  0  1  0  0  0  0  0999 V2000
  184.5220  177.2320  146.5420 O   0  0  0  0  0  0  0  0  0  0  0  0
  187.0060  177.8790  146.4130 C   0  0  2  0  0  0  0  0  0  0  0  0
  184.3630  178.0220  145.3740 C   0  0  2  0  0  3  0  0  0  0  0  0
  185.8000  177.3300  147.1630 C   0  0  2  0  0  0  0  0  0  0  0  0
  186.0590  176.3980  148.1720 O   0  0  0  0  0  1  0  0  0  0  0  0
  185.5390  177.9240  144.3900 C   0  0  2  0  0  3  0  0  0  0  0  0
  186.3110  178.7240  147.4840 C   0  0  0  0  0  2  0  0  0  0  0  0
  186.8040  178.4720  145.0260 C   0  0  0  0  0  2  0  0  0  0  0  0
  184.0670  179.3500  145.7080 O   0  0  0  0  0  1  0  0  0  0  0  0
  185.2520  178.7150  143.1240 C   0  0  0  0  0  2  0  0  0  0  0  0
  184.9260  177.7990  141.9560 C   0  0  0  0  0  2  0  0  0  0  0  0
  186.2630  177.8240  140.7130 S   0  0  0  0  0  0  0  0  0  0  0  0
  187.5320  177.1970  141.8730 C   0  0  2  0  0  3  0  0  0  0  0  0
  188.8090  178.0300  141.8440 C   0  0  0  0  0  2  0  0  0  0  0  0
  189.9060  177.2980  142.3130 O   0  0  0  0  0  1  0  0  0  0  0  0
  187.5920  174.9460  142.6220 O   0  0  0  0  0  0  0  0  0  0  0  0
  187.7810  175.7410  141.6630 C   0  0  0  0  0  0  0  0  0  0  0  0
  188.2230  175.2680  140.4230 O   0  0  0  0  0  0  0  0  0  0  0  0
  188.5030  173.8940  140.2030 C   0  0  0  0  0  2  0  0  0  0  0  0
  191.7570  173.0310  139.1980 O   0  0  0  0  0  0  0  0  0  0  0  0
  190.5750  173.3760  139.0880 C   0  0  0  0  0  0  0  0  0  0  0  0
  189.3290  173.7380  138.9710 C   0  0  0  0  0  0  0  0  0  0  0  0
  189.3770  173.5510  136.4900 O   0  0  0  0  0  0  0  0  0  0  0  0
  187.7100  174.7130  137.5390 O   0  0  0  0  0  1  0  0  0  0  0  0
  188.7600  174.0290  137.6420 C   0  0  0  0  0  0  0  0  0  0  0  0
  188.4120  177.4980  146.8470 C   0  0  0  0  0  2  0  0  0  0  0  0
  189.2940  177.2510  145.6370 C   0  0  0  0  0  2  0  0  0  0  0  0
  189.5610  175.7640  145.5160 C   0  0  0  0  0  2  0  0  0  0  0  0
  193.9800  175.8980  145.3040 C   0  0  2  0  0  3  0  0  0  0  0  0
  191.3010  174.0190  145.0820 C   0  0  0  0  0  2  0  0  0  0  0  0
  193.7760  177.2010  144.8540 O   0  0  0  0  0  1  0  0  0  0  0  0
  191.0560  175.4820  145.4600 C   0  0  2  0  0  3  0  0  0  0  0  0
  191.2350  175.3620  147.9970 C   0  0  0  0  0  1  0  0  0  0  0  0
  191.8120  175.9560  146.7210 C   0  0  1  0  0  3  0  0  0  0  0  0
  193.5440  174.8890  144.2200 C   0  0  0  0  0  2  0  0  0  0  0  0
  192.7690  173.6880  144.7760 C   0  0  2  0  0  3  0  0  0  0  0  0
  193.3240  175.6970  146.6800 C   0  0  0  0  0  2  0  0  0  0  0  0
  192.8250  172.6280  143.8650 O   0  0  0  0  0  0  0  0  0  0  0  0
  191.7110  172.7200  143.1650 O   0  0  0  0  0  0  0  0  0  0  0  0
  190.0480  171.2700  142.2810 C   0  0  0  0  0  1  0  0  0  0  0  0
  191.5080  171.4400  142.6430 C   0  0  0  0  0  2  0  0  0  0  0  0
  1  4  1  0  0  0  0
  2 26  1  1  0  0  0
  2  4  1  0  0  0  0
  2  7  1  0  0  0  0
  3  9  1  1  0  0  0
  3  1  1  0  0  0  0
  4  7  1  0  0  0  0
  4  5  1  1  0  0  0
  6 10  1  6  0  0  0
  6  8  1  0  0  0  0
  6  3  1  0  0  0  0
  8  2  1  0  0  0  0
 11 10  1  0  0  0  0
 12 13  1  0  0  0  0
 12 11  1  0  0  0  0
 13 14  1  6  0  0  0
 14 15  1  0  0  0  0
 17 13  1  0  0  0  0
 17 16  2  0  0  0  0
 18 17  1  0  0  0  0
 19 18  1  0  0  0  0
 21 20  2  0  0  0  0
 22 21  2  0  0  0  0
 22 19  1  0  0  0  0
 23 25  2  0  0  0  0
 24 25  1  0  0  0  0
 25 22  1  0  0  0  0
 27 26  1  0  0  0  0
 28 27  1  0  0  0  0
 29 31  1  6  0  0  0
 29 37  1  0  0  0  0
 30 32  1  0  0  0  0
 32 28  1  1  0  0  0
 32 34  1  0  0  0  0
 34 33  1  1  0  0  0
 35 36  1  0  0  0  0
 35 29  1  0  0  0  0
 36 38  1  6  0  0  0
 36 30  1  0  0  0  0
 37 34  1  0  0  0  0
 39 38  1  0  0  0  0
 40 41  1  0  0  0  0
 41 39  1  0  0  0  0
M  END
>  <MODEL>
3

>  <REMARK>
 VINA RESULT:      -6.0      2.691      8.221
  Name = 
  17 active torsions:
  status: ('A' for Active; 'I' for Inactive)
    1  A    between atoms: O_2  and  C_27
    2  A    between atoms: O_2  and  C_38
    3  A    between atoms: C_5  and  C_9
    4  A    between atoms: C_5  and  C_11
    5  A    between atoms: C_6  and  C_11
    6  A    between atoms: C_6  and  C_20
    7  A    between atoms: C_12  and  C_21
    8  A    between atoms: S_14  and  C_21
    9  A    between atoms: S_14  and  C_37
   10  A    between atoms: C_16  and  C_23
   11  A    between atoms: C_16  and  C_37
   12  A    between atoms: C_21  and  C_27
   13  A    between atoms: O_24  and  O_31
   14  A    between atoms: O_24  and  C_33
   15  A    between atoms: C_25  and  C_38
   16  A    between atoms: C_25  and  C_40
   17  A    between atoms: O_31  and  C_35
                            x       y       z     vdW  Elec       q    Type
                         _______ _______ _______ _____ _____    ______ ____

>  <TORSDO>
F 17

$$$$
=
 OpenBabel11062422193D

 41 43  0  0  1  0  0  0  0  0999 V2000
  184.3220  178.1510  144.7110 O   0  0  0  0  0  0  0  0  0  0  0  0
  186.5750  177.5350  145.7850 C   0  0  2  0  0  0  0  0  0  0  0  0
  185.0940  178.7760  143.6990 C   0  0  2  0  0  3  0  0  0  0  0  0
  185.0630  177.7110  145.8460 C   0  0  2  0  0  0  0  0  0  0  0  0
  184.3710  176.8960  146.7460 O   0  0  0  0  0  1  0  0  0  0  0  0
  186.3830  178.0200  143.3410 C   0  0  2  0  0  3  0  0  0  0  0  0
  185.9630  178.7290  146.5240 C   0  0  0  0  0  2  0  0  0  0  0  0
  187.3190  177.9830  144.5350 C   0  0  0  0  0  2  0  0  0  0  0  0
  185.3430  180.1170  144.0190 O   0  0  0  0  0  1  0  0  0  0  0  0
  187.1010  178.6950  142.1840 C   0  0  0  0  0  2  0  0  0  0  0  0
  188.0820  177.7500  141.5090 C   0  0  0  0  0  2  0  0  0  0  0  0
  187.2330  176.6860  140.2930 S   0  0  0  0  0  0  0  0  0  0  0  0
  187.9810  175.1410  140.9260 C   0  0  2  0  0  3  0  0  0  0  0  0
  189.1810  175.4030  141.8300 C   0  0  0  0  0  2  0  0  0  0  0  0
  189.3180  174.4010  142.7980 O   0  0  0  0  0  1  0  0  0  0  0  0
  188.0890  174.5670  138.6260 O   0  0  0  0  0  0  0  0  0  0  0  0
  188.2850  174.1940  139.8130 C   0  0  0  0  0  0  0  0  0  0  0  0
  188.7760  172.9130  140.0850 O   0  0  0  0  0  0  0  0  0  0  0  0
  189.9980  172.4470  139.5340 C   0  0  0  0  0  2  0  0  0  0  0  0
  193.2050  173.1270  140.7980 O   0  0  0  0  0  0  0  0  0  0  0  0
  192.0930  172.5940  140.7160 C   0  0  0  0  0  0  0  0  0  0  0  0
  190.9200  172.0320  140.6300 C   0  0  0  0  0  0  0  0  0  0  0  0
  189.9490  171.2960  142.8000 O   0  0  0  0  0  1  0  0  0  0  0  0
  190.7260  169.7630  141.2920 O   0  0  0  0  0  0  0  0  0  0  0  0
  190.5320  170.9720  141.5800 C   0  0  0  0  0  0  0  0  0  0  0  0
  187.2720  176.5940  146.7540 C   0  0  0  0  0  2  0  0  0  0  0  0
  188.7750  176.6340  146.5460 C   0  0  0  0  0  2  0  0  0  0  0  0
  189.2690  175.2320  146.2520 C   0  0  0  0  0  2  0  0  0  0  0  0
  193.4030  176.2060  145.0070 C   0  0  2  0  0  3  0  0  0  0  0  0
  191.2070  173.8260  145.5260 C   0  0  0  0  0  2  0  0  0  0  0  0
  192.8320  177.3900  144.5430 O   0  0  0  0  0  1  0  0  0  0  0  0
  190.7420  175.2440  145.8650 C   0  0  2  0  0  3  0  0  0  0  0  0
  191.4860  175.4290  148.2930 C   0  0  0  0  0  1  0  0  0  0  0  0
  191.6320  175.9870  146.8850 C   0  0  1  0  0  3  0  0  0  0  0  0
  192.9700  175.0230  144.1150 C   0  0  0  0  0  2  0  0  0  0  0  0
  192.6110  173.7590  144.9050 C   0  0  2  0  0  3  0  0  0  0  0  0
  193.1200  176.0260  146.5070 C   0  0  0  0  0  2  0  0  0  0  0  0
  192.6950  172.6410  144.0690 O   0  0  0  0  0  0  0  0  0  0  0  0
  192.8980  171.6210  144.8810 O   0  0  0  0  0  0  0  0  0  0  0  0
  194.7320  170.4560  145.8440 C   0  0  0  0  0  1  0  0  0  0  0  0
  194.2060  171.7840  145.3430 C   0  0  0  0  0  2  0  0  0  0  0  0
  1  4  1  0  0  0  0
  2  4  1  0  0  0  0
  2  7  1  0  0  0  0
  2 26  1  1  0  0  0
  3  9  1  1  0  0  0
  3  1  1  0  0  0  0
  4  7  1  0  0  0  0
  4  5  1  1  0  0  0
  6 10  1  6  0  0  0
  6  3  1  0  0  0  0
  6  8  1  0  0  0  0
  8  2  1  0  0  0  0
 11 10  1  0  0  0  0
 12 13  1  0  0  0  0
 12 11  1  0  0  0  0
 13 14  1  6  0  0  0
 14 15  1  0  0  0  0
 16 17  2  0  0  0  0
 17 18  1  0  0  0  0
 17 13  1  0  0  0  0
 19 18  1  0  0  0  0
 19 22  1  0  0  0  0
 21 20  2  0  0  0  0
 22 21  2  0  0  0  0
 22 25  1  0  0  0  0
 24 25  2  0  0  0  0
 25 23  1  0  0  0  0
 27 26  1  0  0  0  0
 28 27  1  0  0  0  0
 29 31  1  6  0  0  0
 29 37  1  0  0  0  0
 30 32  1  0  0  0  0
 32 28  1  1  0  0  0
 32 34  1  0  0  0  0
 34 33  1  1  0  0  0
 35 36  1  0  0  0  0
 35 29  1  0  0  0  0
 36 38  1  6  0  0  0
 36 30  1  0  0  0  0
 37 34  1  0  0  0  0
 38 39  1  0  0  0  0
 39 41  1  0  0  0  0
 41 40  1  0  0  0  0
M  END
>  <MODEL>
4

>  <REMARK>
 VINA RESULT:      -5.9      2.477      7.913
  Name = 
  17 active torsions:
  status: ('A' for Active; 'I' for Inactive)
    1  A    between atoms: O_2  and  C_27
    2  A    between atoms: O_2  and  C_38
    3  A    between atoms: C_5  and  C_9
    4  A    between atoms: C_5  and  C_11
    5  A    between atoms: C_6  and  C_11
    6  A    between atoms: C_6  and  C_20
    7  A    between atoms: C_12  and  C_21
    8  A    between atoms: S_14  and  C_21
    9  A    between atoms: S_14  and  C_37
   10  A    between atoms: C_16  and  C_23
   11  A    between atoms: C_16  and  C_37
   12  A    between atoms: C_21  and  C_27
   13  A    between atoms: O_24  and  O_31
   14  A    between atoms: O_24  and  C_33
   15  A    between atoms: C_25  and  C_38
   16  A    between atoms: C_25  and  C_40
   17  A    between atoms: O_31  and  C_35
                            x       y       z     vdW  Elec       q    Type
                         _______ _______ _______ _____ _____    ______ ____

>  <TORSDO>
F 17

$$$$
=
 OpenBabel11062422193D

 41 43  0  0  1  0  0  0  0  0999 V2000
  188.5520  172.9620  142.6600 O   0  0  0  0  0  0  0  0  0  0  0  0
  189.8180  175.1870  142.4320 C   0  0  2  0  0  0  0  0  0  0  0  0
  189.7420  172.4660  143.2500 C   0  0  2  0  0  3  0  0  0  0  0  0
  188.6670  174.2570  142.0750 C   0  0  2  0  0  0  0  0  0  0  0  0
  187.4660  174.8610  141.6940 O   0  0  0  0  0  1  0  0  0  0  0  0
  190.4680  173.4840  144.1410 C   0  0  2  0  0  3  0  0  0  0  0  0
  189.7920  174.4710  141.0790 C   0  0  0  0  0  2  0  0  0  0  0  0
  190.9440  174.6630  143.3110 C   0  0  0  0  0  2  0  0  0  0  0  0
  190.5900  171.9190  142.2780 O   0  0  0  0  0  1  0  0  0  0  0  0
  191.6740  172.8490  144.8160 C   0  0  0  0  0  2  0  0  0  0  0  0
  192.8350  173.8250  144.9160 C   0  0  0  0  0  2  0  0  0  0  0  0
  194.3730  172.9630  145.3900 S   0  0  0  0  0  0  0  0  0  0  0  0
  195.2740  174.5070  145.7810 C   0  0  2  0  0  3  0  0  0  0  0  0
  194.4240  175.7520  145.5460 C   0  0  0  0  0  2  0  0  0  0  0  0
  194.3850  176.5650  146.6840 O   0  0  0  0  0  1  0  0  0  0  0  0
  197.6050  174.0830  145.6510 O   0  0  0  0  0  0  0  0  0  0  0  0
  196.5880  174.5570  145.0770 C   0  0  0  0  0  0  0  0  0  0  0  0
  196.6900  175.1250  143.8030 O   0  0  0  0  0  0  0  0  0  0  0  0
  196.8010  174.3270  142.6350 C   0  0  0  0  0  2  0  0  0  0  0  0
  194.9510  173.0380  139.9400 O   0  0  0  0  0  0  0  0  0  0  0  0
  195.3480  173.8650  140.7690 C   0  0  0  0  0  0  0  0  0  0  0  0
  195.7650  174.7370  141.6430 C   0  0  0  0  0  0  0  0  0  0  0  0
  193.9360  176.3870  141.9940 O   0  0  0  0  0  1  0  0  0  0  0  0
  195.9930  177.0670  141.2640 O   0  0  0  0  0  0  0  0  0  0  0  0
  195.2480  176.1180  141.6210 C   0  0  0  0  0  0  0  0  0  0  0  0
  189.6670  176.6900  142.2550 C   0  0  0  0  0  2  0  0  0  0  0  0
  189.5480  177.3750  143.6040 C   0  0  0  0  0  2  0  0  0  0  0  0
  188.2540  178.1630  143.6450 C   0  0  0  0  0  2  0  0  0  0  0  0
  185.5980  178.0260  147.1830 C   0  0  2  0  0  3  0  0  0  0  0  0
  187.9620  176.5040  145.4950 C   0  0  0  0  0  2  0  0  0  0  0  0
  185.6910  179.4160  147.1290 O   0  0  0  0  0  1  0  0  0  0  0  0
  187.4350  177.8000  144.8760 C   0  0  2  0  0  3  0  0  0  0  0  0
  185.5110  176.9150  143.4640 C   0  0  0  0  0  1  0  0  0  0  0  0
  185.9120  177.8180  144.6200 C   0  0  1  0  0  3  0  0  0  0  0  0
  186.9400  177.4230  147.6490 C   0  0  0  0  0  2  0  0  0  0  0  0
  187.3550  176.1720  146.8660 C   0  0  2  0  0  3  0  0  0  0  0  0
  185.0640  177.4720  145.8520 C   0  0  0  0  0  2  0  0  0  0  0  0
  188.2760  175.4310  147.6140 O   0  0  0  0  0  0  0  0  0  0  0  0
  189.2930  175.2260  146.7980 O   0  0  0  0  0  0  0  0  0  0  0  0
  190.9580  176.7080  147.6240 C   0  0  0  0  0  1  0  0  0  0  0  0
  190.4260  175.2910  147.6120 C   0  0  0  0  0  2  0  0  0  0  0  0
  1  3  1  0  0  0  0
  2 26  1  1  0  0  0
  2  8  1  0  0  0  0
  3  9  1  6  0  0  0
  3  6  1  0  0  0  0
  4  5  1  6  0  0  0
  4  2  1  0  0  0  0
  4  1  1  0  0  0  0
  6 10  1  6  0  0  0
  7  4  1  0  0  0  0
  7  2  1  0  0  0  0
  8  6  1  0  0  0  0
 10 11  1  0  0  0  0
 11 12  1  0  0  0  0
 12 13  1  0  0  0  0
 13 14  1  6  0  0  0
 14 15  1  0  0  0  0
 17 16  2  0  0  0  0
 17 13  1  0  0  0  0
 18 17  1  0  0  0  0
 19 18  1  0  0  0  0
 20 21  2  0  0  0  0
 21 22  2  0  0  0  0
 22 19  1  0  0  0  0
 24 25  2  0  0  0  0
 25 22  1  0  0  0  0
 25 23  1  0  0  0  0
 26 27  1  0  0  0  0
 27 28  1  0  0  0  0
 29 31  1  6  0  0  0
 29 35  1  0  0  0  0
 30 36  1  0  0  0  0
 32 28  1  6  0  0  0
 32 30  1  0  0  0  0
 34 33  1  6  0  0  0
 34 32  1  0  0  0  0
 34 37  1  0  0  0  0
 36 38  1  1  0  0  0
 36 35  1  0  0  0  0
 37 29  1  0  0  0  0
 39 41  1  0  0  0  0
 39 38  1  0  0  0  0
 41 40  1  0  0  0  0
M  END
>  <MODEL>
5

>  <REMARK>
 VINA RESULT:      -5.7      2.051      4.194
  Name = 
  17 active torsions:
  status: ('A' for Active; 'I' for Inactive)
    1  A    between atoms: O_2  and  C_27
    2  A    between atoms: O_2  and  C_38
    3  A    between atoms: C_5  and  C_9
    4  A    between atoms: C_5  and  C_11
    5  A    between atoms: C_6  and  C_11
    6  A    between atoms: C_6  and  C_20
    7  A    between atoms: C_12  and  C_21
    8  A    between atoms: S_14  and  C_21
    9  A    between atoms: S_14  and  C_37
   10  A    between atoms: C_16  and  C_23
   11  A    between atoms: C_16  and  C_37
   12  A    between atoms: C_21  and  C_27
   13  A    between atoms: O_24  and  O_31
   14  A    between atoms: O_24  and  C_33
   15  A    between atoms: C_25  and  C_38
   16  A    between atoms: C_25  and  C_40
   17  A    between atoms: O_31  and  C_35
                            x       y       z     vdW  Elec       q    Type
                         _______ _______ _______ _____ _____    ______ ____

>  <TORSDO>
F 17

$$$$
=
 OpenBabel11062422193D

 41 43  0  0  1  0  0  0  0  0999 V2000
  191.4800  171.8710  143.4300 O   0  0  0  0  0  0  0  0  0  0  0  0
  189.8020  173.3560  142.1700 C   0  0  2  0  0  0  0  0  0  0  0  0
  192.4490  172.3840  142.5290 C   0  0  2  0  0  3  0  0  0  0  0  0
  190.1320  172.2090  143.1140 C   0  0  2  0  0  0  0  0  0  0  0  0
  189.1850  171.9150  144.1000 O   0  0  0  0  0  1  0  0  0  0  0  0
  192.2490  173.8640  142.1730 C   0  0  2  0  0  3  0  0  0  0  0  0
  189.6510  171.9040  141.7070 C   0  0  0  0  0  2  0  0  0  0  0  0
  190.9370  174.0540  141.4330 C   0  0  0  0  0  2  0  0  0  0  0  0
  192.5450  171.5760  141.3880 O   0  0  0  0  0  1  0  0  0  0  0  0
  193.3790  174.3650  141.2890 C   0  0  0  0  0  2  0  0  0  0  0  0
  194.7090  174.3580  142.0250 C   0  0  0  0  0  2  0  0  0  0  0  0
  195.4170  176.0380  142.1110 S   0  0  0  0  0  0  0  0  0  0  0  0
  197.1500  175.4510  142.1060 C   0  0  2  0  0  3  0  0  0  0  0  0
  197.5620  174.8660  140.7590 C   0  0  0  0  0  2  0  0  0  0  0  0
  197.2220  175.7230  139.7050 O   0  0  0  0  0  1  0  0  0  0  0  0
  197.8060  173.3550  143.0040 O   0  0  0  0  0  0  0  0  0  0  0  0
  197.4090  174.5250  143.2470 C   0  0  0  0  0  0  0  0  0  0  0  0
  197.2070  174.9490  144.5640 O   0  0  0  0  0  0  0  0  0  0  0  0
  196.5640  174.1260  145.5250 C   0  0  0  0  0  2  0  0  0  0  0  0
  194.6600  177.0120  146.1490 O   0  0  0  0  0  0  0  0  0  0  0  0
  194.8980  175.8190  145.9300 C   0  0  0  0  0  0  0  0  0  0  0  0
  195.1490  174.5610  145.6980 C   0  0  0  0  0  0  0  0  0  0  0  0
  192.7250  174.0000  145.7270 O   0  0  0  0  0  1  0  0  0  0  0  0
  194.2990  172.3520  145.5410 O   0  0  0  0  0  0  0  0  0  0  0  0
  194.0480  173.5800  145.6510 C   0  0  0  0  0  0  0  0  0  0  0  0
  188.4500  174.0460  142.2500 C   0  0  0  0  0  2  0  0  0  0  0  0
  188.4130  175.2540  141.3320 C   0  0  0  0  0  2  0  0  0  0  0  0
  187.6950  176.3870  142.0380 C   0  0  0  0  0  2  0  0  0  0  0  0
  189.4920  175.9350  146.0570 C   0  0  2  0  0  3  0  0  0  0  0  0
  187.3870  177.6210  144.1930 C   0  0  0  0  0  2  0  0  0  0  0  0
  189.5750  174.5870  145.7120 O   0  0  0  0  0  1  0  0  0  0  0  0
  188.1820  176.5290  143.4740 C   0  0  2  0  0  3  0  0  0  0  0  0
  190.2490  177.8310  142.7550 C   0  0  0  0  0  1  0  0  0  0  0  0
  189.7160  176.6720  143.5840 C   0  0  1  0  0  3  0  0  0  0  0  0
  188.0200  176.3290  146.3040 C   0  0  0  0  0  2  0  0  0  0  0  0
  187.6410  177.6880  145.7060 C   0  0  2  0  0  3  0  0  0  0  0  0
  190.2320  176.8000  145.0240 C   0  0  0  0  0  2  0  0  0  0  0  0
  186.5000  178.1830  146.3460 O   0  0  0  0  0  0  0  0  0  0  0  0
  185.9670  177.1390  146.9510 O   0  0  0  0  0  0  0  0  0  0  0  0
  184.1880  178.5890  146.3310 C   0  0  0  0  0  1  0  0  0  0  0  0
  184.6200  177.1600  146.5830 C   0  0  0  0  0  2  0  0  0  0  0  0
  2 26  1  1  0  0  0
  2  4  1  0  0  0  0
  3  9  1  6  0  0  0
  3  1  1  0  0  0  0
  4  1  1  0  0  0  0
  4  5  1  1  0  0  0
  6 10  1  6  0  0  0
  6  3  1  0  0  0  0
  7  2  1  0  0  0  0
  7  4  1  0  0  0  0
  8  2  1  0  0  0  0
  8  6  1  0  0  0  0
 10 11  1  0  0  0  0
 11 12  1  0  0  0  0
 13 14  1  6  0  0  0
 13 12  1  0  0  0  0
 13 17  1  0  0  0  0
 15 14  1  0  0  0  0
 16 17  2  0  0  0  0
 17 18  1  0  0  0  0
 18 19  1  0  0  0  0
 19 22  1  0  0  0  0
 21 20  2  0  0  0  0
 22 21  2  0  0  0  0
 24 25  2  0  0  0  0
 25 22  1  0  0  0  0
 25 23  1  0  0  0  0
 27 28  1  0  0  0  0
 27 26  1  0  0  0  0
 29 31  1  6  0  0  0
 29 35  1  0  0  0  0
 30 36  1  0  0  0  0
 32 28  1  6  0  0  0
 32 34  1  0  0  0  0
 32 30  1  0  0  0  0
 34 33  1  6  0  0  0
 34 37  1  0  0  0  0
 36 35  1  0  0  0  0
 36 38  1  1  0  0  0
 37 29  1  0  0  0  0
 38 39  1  0  0  0  0
 40 41  1  0  0  0  0
 41 39  1  0  0  0  0
M  END
>  <MODEL>
6

>  <REMARK>
 VINA RESULT:      -5.7      1.984      3.306
  Name = 
  17 active torsions:
  status: ('A' for Active; 'I' for Inactive)
    1  A    between atoms: O_2  and  C_27
    2  A    between atoms: O_2  and  C_38
    3  A    between atoms: C_5  and  C_9
    4  A    between atoms: C_5  and  C_11
    5  A    between atoms: C_6  and  C_11
    6  A    between atoms: C_6  and  C_20
    7  A    between atoms: C_12  and  C_21
    8  A    between atoms: S_14  and  C_21
    9  A    between atoms: S_14  and  C_37
   10  A    between atoms: C_16  and  C_23
   11  A    between atoms: C_16  and  C_37
   12  A    between atoms: C_21  and  C_27
   13  A    between atoms: O_24  and  O_31
   14  A    between atoms: O_24  and  C_33
   15  A    between atoms: C_25  and  C_38
   16  A    between atoms: C_25  and  C_40
   17  A    between atoms: O_31  and  C_35
                            x       y       z     vdW  Elec       q    Type
                         _______ _______ _______ _____ _____    ______ ____

>  <TORSDO>
F 17

$$$$
=
 OpenBabel11062422193D

 41 43  0  0  1  0  0  0  0  0999 V2000
  193.2790  176.2200  144.1100 O   0  0  0  0  0  0  0  0  0  0  0  0
  191.9590  175.7080  146.2560 C   0  0  2  0  0  0  0  0  0  0  0  0
  194.0350  175.0600  144.4230 C   0  0  2  0  0  3  0  0  0  0  0  0
  192.3810  176.6450  145.1320 C   0  0  2  0  0  0  0  0  0  0  0  0
  191.4680  177.6370  144.7650 O   0  0  0  0  0  1  0  0  0  0  0  0
  193.2050  173.9200  145.0320 C   0  0  2  0  0  3  0  0  0  0  0  0
  192.9560  176.8390  146.5240 C   0  0  0  0  0  2  0  0  0  0  0  0
  192.6280  174.3460  146.3700 C   0  0  0  0  0  2  0  0  0  0  0  0
  195.1410  175.3880  145.2190 O   0  0  0  0  0  1  0  0  0  0  0  0
  194.0620  172.6830  145.2450 C   0  0  0  0  0  2  0  0  0  0  0  0
  194.5070  172.0780  143.9240 C   0  0  0  0  0  2  0  0  0  0  0  0
  193.1120  171.2620  143.0760 S   0  0  0  0  0  0  0  0  0  0  0  0
  193.3470  172.1880  141.5160 C   0  0  2  0  0  3  0  0  0  0  0  0
  194.6720  172.9440  141.4810 C   0  0  0  0  0  2  0  0  0  0  0  0
  195.3360  172.7530  140.2640 O   0  0  0  0  0  1  0  0  0  0  0  0
  192.2480  174.2920  141.4780 O   0  0  0  0  0  0  0  0  0  0  0  0
  192.1710  173.0600  141.2240 C   0  0  0  0  0  0  0  0  0  0  0  0
  191.0010  172.5170  140.6840 O   0  0  0  0  0  0  0  0  0  0  0  0
  190.0710  171.8010  141.4820 C   0  0  0  0  0  2  0  0  0  0  0  0
  189.6870  172.2710  144.9420 O   0  0  0  0  0  0  0  0  0  0  0  0
  189.5590  172.4920  143.7330 C   0  0  0  0  0  0  0  0  0  0  0  0
  189.4260  172.7260  142.4580 C   0  0  0  0  0  0  0  0  0  0  0  0
  188.1960  173.9400  140.6670 O   0  0  0  0  0  0  0  0  0  0  0  0
  188.2870  174.7790  142.7920 O   0  0  0  0  0  1  0  0  0  0  0  0
  188.6120  173.8640  141.9920 C   0  0  0  0  0  0  0  0  0  0  0  0
  190.6540  175.9460  146.9960 C   0  0  0  0  0  2  0  0  0  0  0  0
  189.4690  175.7010  146.0800 C   0  0  0  0  0  2  0  0  0  0  0  0
  188.1930  175.7660  146.8950 C   0  0  0  0  0  2  0  0  0  0  0  0
  184.8390  178.4890  145.9300 C   0  0  2  0  0  3  0  0  0  0  0  0
  187.7890  177.3790  145.0250 C   0  0  0  0  0  2  0  0  0  0  0  0
  184.0600  177.5240  146.5670 O   0  0  0  0  0  1  0  0  0  0  0  0
  187.2550  176.8360  146.3520 C   0  0  2  0  0  3  0  0  0  0  0  0
  188.1350  178.5840  147.9800 C   0  0  0  0  0  1  0  0  0  0  0  0
  186.8990  177.9190  147.3940 C   0  0  1  0  0  3  0  0  0  0  0  0
  185.3400  177.9530  144.5720 C   0  0  0  0  0  2  0  0  0  0  0  0
  186.8060  178.2950  144.2810 C   0  0  2  0  0  3  0  0  0  0  0  0
  185.9400  178.9980  146.8740 C   0  0  0  0  0  2  0  0  0  0  0  0
  187.0460  178.2130  142.9050 O   0  0  0  0  0  0  0  0  0  0  0  0
  186.0290  178.8380  142.3440 O   0  0  0  0  0  0  0  0  0  0  0  0
  187.1710  177.5020  140.7430 C   0  0  0  0  0  1  0  0  0  0  0  0
  185.9020  178.2560  141.0800 C   0  0  0  0  0  2  0  0  0  0  0  0
  1  3  1  0  0  0  0
  1  4  1  0  0  0  0
  2  8  1  0  0  0  0
  2  7  1  0  0  0  0
  2 26  1  1  0  0  0
  3  6  1  0  0  0  0
  3  9  1  1  0  0  0
  4  5  1  6  0  0  0
  4  2  1  0  0  0  0
  4  7  1  0  0  0  0
  6 10  1  1  0  0  0
  6  8  1  0  0  0  0
 11 10  1  0  0  0  0
 12 11  1  0  0  0  0
 13 14  1  1  0  0  0
 13 12  1  0  0  0  0
 15 14  1  0  0  0  0
 17 16  2  0  0  0  0
 17 13  1  0  0  0  0
 18 17  1  0  0  0  0
 18 19  1  0  0  0  0
 19 22  1  0  0  0  0
 21 20  2  0  0  0  0
 22 21  2  0  0  0  0
 23 25  2  0  0  0  0
 25 22  1  0  0  0  0
 25 24  1  0  0  0  0
 27 28  1  0  0  0  0
 27 26  1  0  0  0  0
 29 31  1  1  0  0  0
 29 37  1  0  0  0  0
 30 32  1  0  0  0  0
 32 28  1  1  0  0  0
 32 34  1  0  0  0  0
 34 33  1  6  0  0  0
 35 29  1  0  0  0  0
 36 38  1  6  0  0  0
 36 35  1  0  0  0  0
 36 30  1  0  0  0  0
 37 34  1  0  0  0  0
 39 38  1  0  0  0  0
 40 41  1  0  0  0  0
 41 39  1  0  0  0  0
M  END
>  <MODEL>
7

>  <REMARK>
 VINA RESULT:      -5.6      1.635      4.433
  Name = 
  17 active torsions:
  status: ('A' for Active; 'I' for Inactive)
    1  A    between atoms: O_2  and  C_27
    2  A    between atoms: O_2  and  C_38
    3  A    between atoms: C_5  and  C_9
    4  A    between atoms: C_5  and  C_11
    5  A    between atoms: C_6  and  C_11
    6  A    between atoms: C_6  and  C_20
    7  A    between atoms: C_12  and  C_21
    8  A    between atoms: S_14  and  C_21
    9  A    between atoms: S_14  and  C_37
   10  A    between atoms: C_16  and  C_23
   11  A    between atoms: C_16  and  C_37
   12  A    between atoms: C_21  and  C_27
   13  A    between atoms: O_24  and  O_31
   14  A    between atoms: O_24  and  C_33
   15  A    between atoms: C_25  and  C_38
   16  A    between atoms: C_25  and  C_40
   17  A    between atoms: O_31  and  C_35
                            x       y       z     vdW  Elec       q    Type
                         _______ _______ _______ _____ _____    ______ ____

>  <TORSDO>
F 17

$$$$
=
 OpenBabel11062422193D

 41 43  0  0  1  0  0  0  0  0999 V2000
  192.7780  176.9560  146.3400 O   0  0  0  0  0  0  0  0  0  0  0  0
  190.9790  175.1290  146.5200 C   0  0  2  0  0  0  0  0  0  0  0  0
  193.3190  176.1730  145.2870 C   0  0  2  0  0  3  0  0  0  0  0  0
  191.7330  176.3290  147.0780 C   0  0  2  0  0  0  0  0  0  0  0  0
  191.0330  177.1540  147.9620 O   0  0  0  0  0  1  0  0  0  0  0  0
  192.2580  175.4980  144.4050 C   0  0  2  0  0  3  0  0  0  0  0  0
  192.0110  174.9450  147.6360 C   0  0  0  0  0  2  0  0  0  0  0  0
  191.4560  174.4990  145.2190 C   0  0  0  0  0  2  0  0  0  0  0  0
  194.2560  175.2550  145.7790 O   0  0  0  0  0  1  0  0  0  0  0  0
  192.9100  174.7630  143.2440 C   0  0  0  0  0  2  0  0  0  0  0  0
  193.2690  175.7130  142.1140 C   0  0  0  0  0  2  0  0  0  0  0  0
  194.6540  175.0560  141.1220 S   0  0  0  0  0  0  0  0  0  0  0  0
  195.8930  175.3090  142.4440 C   0  0  2  0  0  3  0  0  0  0  0  0
  196.3370  176.7640  142.5550 C   0  0  0  0  0  2  0  0  0  0  0  0
  196.4540  177.1610  143.8920 O   0  0  0  0  0  1  0  0  0  0  0  0
  197.8360  174.5130  141.3380 O   0  0  0  0  0  0  0  0  0  0  0  0
  197.0360  174.3600  142.2990 C   0  0  0  0  0  0  0  0  0  0  0  0
  197.2130  173.3170  143.2130 O   0  0  0  0  0  0  0  0  0  0  0  0
  196.2520  172.2840  143.3640 C   0  0  0  0  0  2  0  0  0  0  0  0
  197.1920  173.4150  146.5540 O   0  0  0  0  0  0  0  0  0  0  0  0
  196.5370  172.8120  145.6970 C   0  0  0  0  0  0  0  0  0  0  0  0
  195.8450  172.1770  144.7940 C   0  0  0  0  0  0  0  0  0  0  0  0
  194.8620  169.9610  145.3540 O   0  0  0  0  0  0  0  0  0  0  0  0
  193.5720  171.8480  145.3860 O   0  0  0  0  0  1  0  0  0  0  0  0
  194.7030  171.3320  145.1910 C   0  0  0  0  0  0  0  0  0  0  0  0
  189.5780  174.8110  147.0160 C   0  0  0  0  0  2  0  0  0  0  0  0
  188.5410  175.5570  146.1960 C   0  0  0  0  0  2  0  0  0  0  0  0
  187.4390  176.0420  147.1170 C   0  0  0  0  0  2  0  0  0  0  0  0
  184.4450  179.0430  145.8460 C   0  0  2  0  0  3  0  0  0  0  0  0
  187.2850  177.5640  145.1380 C   0  0  0  0  0  2  0  0  0  0  0  0
  183.5410  178.2110  146.5070 O   0  0  0  0  0  1  0  0  0  0  0  0
  186.6450  177.1690  146.4710 C   0  0  2  0  0  3  0  0  0  0  0  0
  187.6540  178.9140  148.0260 C   0  0  0  0  0  1  0  0  0  0  0  0
  186.3740  178.3490  147.4300 C   0  0  1  0  0  3  0  0  0  0  0  0
  184.9320  178.3680  144.5460 C   0  0  0  0  0  2  0  0  0  0  0  0
  186.4360  178.5310  144.2980 C   0  0  2  0  0  3  0  0  0  0  0  0
  185.5600  179.4910  146.8040 C   0  0  0  0  0  2  0  0  0  0  0  0
  186.7140  178.3340  142.9420 O   0  0  0  0  0  0  0  0  0  0  0  0
  188.0110  178.0960  142.8900 O   0  0  0  0  0  0  0  0  0  0  0  0
  189.0870  176.0480  142.3420 C   0  0  0  0  0  1  0  0  0  0  0  0
  188.1630  177.1510  141.8720 C   0  0  0  0  0  2  0  0  0  0  0  0
  1  4  1  0  0  0  0
  2 26  1  1  0  0  0
  2  4  1  0  0  0  0
  2  7  1  0  0  0  0
  3  9  1  1  0  0  0
  3  1  1  0  0  0  0
  4  7  1  0  0  0  0
  4  5  1  1  0  0  0
  6 10  1  6  0  0  0
  6  8  1  0  0  0  0
  6  3  1  0  0  0  0
  8  2  1  0  0  0  0
 11 10  1  0  0  0  0
 12 11  1  0  0  0  0
 12 13  1  0  0  0  0
 13 14  1  6  0  0  0
 14 15  1  0  0  0  0
 16 17  2  0  0  0  0
 17 13  1  0  0  0  0
 17 18  1  0  0  0  0
 18 19  1  0  0  0  0
 19 22  1  0  0  0  0
 21 20  2  0  0  0  0
 22 25  1  0  0  0  0
 22 21  2  0  0  0  0
 25 23  2  0  0  0  0
 25 24  1  0  0  0  0
 27 26  1  0  0  0  0
 27 28  1  0  0  0  0
 29 31  1  1  0  0  0
 29 37  1  0  0  0  0
 30 32  1  0  0  0  0
 32 28  1  1  0  0  0
 32 34  1  0  0  0  0
 34 33  1  6  0  0  0
 35 29  1  0  0  0  0
 36 38  1  6  0  0  0
 36 35  1  0  0  0  0
 36 30  1  0  0  0  0
 37 34  1  0  0  0  0
 39 38  1  0  0  0  0
 41 40  1  0  0  0  0
 41 39  1  0  0  0  0
M  END
>  <MODEL>
8

>  <REMARK>
 VINA RESULT:      -5.6      2.392      4.406
  Name = 
  17 active torsions:
  status: ('A' for Active; 'I' for Inactive)
    1  A    between atoms: O_2  and  C_27
    2  A    between atoms: O_2  and  C_38
    3  A    between atoms: C_5  and  C_9
    4  A    between atoms: C_5  and  C_11
    5  A    between atoms: C_6  and  C_11
    6  A    between atoms: C_6  and  C_20
    7  A    between atoms: C_12  and  C_21
    8  A    between atoms: S_14  and  C_21
    9  A    between atoms: S_14  and  C_37
   10  A    between atoms: C_16  and  C_23
   11  A    between atoms: C_16  and  C_37
   12  A    between atoms: C_21  and  C_27
   13  A    between atoms: O_24  and  O_31
   14  A    between atoms: O_24  and  C_33
   15  A    between atoms: C_25  and  C_38
   16  A    between atoms: C_25  and  C_40
   17  A    between atoms: O_31  and  C_35
                            x       y       z     vdW  Elec       q    Type
                         _______ _______ _______ _____ _____    ______ ____

>  <TORSDO>
F 17

$$$$
=
 OpenBabel11062422193D

 41 43  0  0  1  0  0  0  0  0999 V2000
  196.6150  172.9100  143.6700 O   0  0  0  0  0  0  0  0  0  0  0  0
  194.9550  174.6250  144.6250 C   0  0  2  0  0  0  0  0  0  0  0  0
  195.7630  171.9260  144.2350 C   0  0  2  0  0  3  0  0  0  0  0  0
  196.3110  174.2520  144.0410 C   0  0  2  0  0  0  0  0  0  0  0  0
  196.9830  175.2470  143.3260 O   0  0  0  0  0  1  0  0  0  0  0  0
  194.2690  172.2700  144.1450 C   0  0  2  0  0  3  0  0  0  0  0  0
  196.1920  174.5520  145.5250 C   0  0  0  0  0  2  0  0  0  0  0  0
  193.9660  173.5160  144.9570 C   0  0  0  0  0  2  0  0  0  0  0  0
  196.1540  171.6220  145.5460 O   0  0  0  0  0  1  0  0  0  0  0  0
  193.4190  171.1270  144.6780 C   0  0  0  0  0  2  0  0  0  0  0  0
  192.3910  170.6720  143.6550 C   0  0  0  0  0  2  0  0  0  0  0  0
  192.7510  171.3750  142.0090 S   0  0  0  0  0  0  0  0  0  0  0  0
  191.1940  172.3330  141.9320 C   0  0  2  0  0  3  0  0  0  0  0  0
  190.0780  171.5740  141.2230 C   0  0  0  0  0  2  0  0  0  0  0  0
  190.4700  171.1720  139.9410 O   0  0  0  0  0  1  0  0  0  0  0  0
  192.2860  173.8350  140.4540 O   0  0  0  0  0  0  0  0  0  0  0  0
  191.4260  173.6940  141.3630 C   0  0  0  0  0  0  0  0  0  0  0  0
  190.7040  174.7930  141.8370 O   0  0  0  0  0  0  0  0  0  0  0  0
  189.3640  174.6710  142.2870 C   0  0  0  0  0  2  0  0  0  0  0  0
  188.1910  173.9710  139.0500 O   0  0  0  0  0  0  0  0  0  0  0  0
  188.3090  174.5740  140.1230 C   0  0  0  0  0  0  0  0  0  0  0  0
  188.4330  175.2090  141.2540 C   0  0  0  0  0  0  0  0  0  0  0  0
  187.0400  177.1030  140.4390 O   0  0  0  0  0  0  0  0  0  0  0  0
  187.6460  176.9660  142.6390 O   0  0  0  0  0  1  0  0  0  0  0  0
  187.6930  176.4630  141.4870 C   0  0  0  0  0  0  0  0  0  0  0  0
  194.4440  176.0520  144.5150 C   0  0  0  0  0  2  0  0  0  0  0  0
  193.0570  176.0750  143.9010 C   0  0  0  0  0  2  0  0  0  0  0  0
  192.2410  177.1660  144.5660 C   0  0  0  0  0  2  0  0  0  0  0  0
  189.3150  174.6030  146.6770 C   0  0  2  0  0  3  0  0  0  0  0  0
  190.0080  177.6210  145.5970 C   0  0  0  0  0  2  0  0  0  0  0  0
  189.8200  173.5960  145.8560 O   0  0  0  0  0  1  0  0  0  0  0  0
  191.1010  176.5720  145.3810 C   0  0  2  0  0  3  0  0  0  0  0  0
  192.4070  176.7800  147.5560 C   0  0  0  0  0  1  0  0  0  0  0  0
  191.5770  175.8650  146.6680 C   0  0  1  0  0  3  0  0  0  0  0  0
  188.4730  175.5930  145.8430 C   0  0  0  0  0  2  0  0  0  0  0  0
  188.7140  177.0620  146.2090 C   0  0  2  0  0  3  0  0  0  0  0  0
  190.4450  175.2430  147.4980 C   0  0  0  0  0  2  0  0  0  0  0  0
  187.6290  177.8370  145.7870 O   0  0  0  0  0  0  0  0  0  0  0  0
  186.9330  178.0750  146.8830 O   0  0  0  0  0  0  0  0  0  0  0  0
  185.8020  179.0660  145.0420 C   0  0  0  0  0  1  0  0  0  0  0  0
  185.6740  178.4750  146.4300 C   0  0  0  0  0  2  0  0  0  0  0  0
  1  4  1  0  0  0  0
  1  3  1  0  0  0  0
  2 26  1  6  0  0  0
  2  8  1  0  0  0  0
  2  7  1  0  0  0  0
  3  9  1  1  0  0  0
  4  5  1  6  0  0  0
  4  2  1  0  0  0  0
  4  7  1  0  0  0  0
  6  3  1  0  0  0  0
  6 10  1  1  0  0  0
  6  8  1  0  0  0  0
 11 10  1  0  0  0  0
 12 11  1  0  0  0  0
 13 14  1  6  0  0  0
 13 12  1  0  0  0  0
 15 14  1  0  0  0  0
 16 17  2  0  0  0  0
 17 18  1  0  0  0  0
 17 13  1  0  0  0  0
 18 19  1  0  0  0  0
 20 21  2  0  0  0  0
 21 22  2  0  0  0  0
 22 25  1  0  0  0  0
 22 19  1  0  0  0  0
 23 25  2  0  0  0  0
 25 24  1  0  0  0  0
 27 26  1  0  0  0  0
 27 28  1  0  0  0  0
 29 31  1  6  0  0  0
 29 37  1  0  0  0  0
 30 36  1  0  0  0  0
 32 28  1  1  0  0  0
 32 30  1  0  0  0  0
 32 34  1  0  0  0  0
 34 37  1  0  0  0  0
 34 33  1  1  0  0  0
 35 36  1  0  0  0  0
 35 29  1  0  0  0  0
 36 38  1  6  0  0  0
 38 39  1  0  0  0  0
 40 41  1  0  0  0  0
 41 39  1  0  0  0  0
M  END
>  <MODEL>
9

>  <REMARK>
 VINA RESULT:      -5.6      2.108      5.814
  Name = 
  17 active torsions:
  status: ('A' for Active; 'I' for Inactive)
    1  A    between atoms: O_2  and  C_27
    2  A    between atoms: O_2  and  C_38
    3  A    between atoms: C_5  and  C_9
    4  A    between atoms: C_5  and  C_11
    5  A    between atoms: C_6  and  C_11
    6  A    between atoms: C_6  and  C_20
    7  A    between atoms: C_12  and  C_21
    8  A    between atoms: S_14  and  C_21
    9  A    between atoms: S_14  and  C_37
   10  A    between atoms: C_16  and  C_23
   11  A    between atoms: C_16  and  C_37
   12  A    between atoms: C_21  and  C_27
   13  A    between atoms: O_24  and  O_31
   14  A    between atoms: O_24  and  C_33
   15  A    between atoms: C_25  and  C_38
   16  A    between atoms: C_25  and  C_40
   17  A    between atoms: O_31  and  C_35
                            x       y       z     vdW  Elec       q    Type
                         _______ _______ _______ _____ _____    ______ ____

>  <TORSDO>
F 17

$$$$
