=
 OpenBabel11062418183D

 49 54  0  0  1  0  0  0  0  0999 V2000
  188.5820  175.5800  147.1930 C   0  0  0  0  0  2  0  0  0  0  0  0
  190.2900  175.2760  145.3980 C   0  0  1  0  0  0  0  0  0  0  0  0
  190.5890  175.5680  143.9480 C   0  0  1  0  0  0  0  0  0  0  0  0
  192.1910  176.8410  145.2740 C   0  0  1  0  0  3  0  0  0  0  0  0
  189.3460  176.1660  144.5270 C   0  0  2  0  0  3  0  0  0  0  0  0
  191.8570  176.4030  143.8610 C   0  0  0  0  0  2  0  0  0  0  0  0
  189.2130  174.5630  146.2040 C   0  0  0  0  0  2  0  0  0  0  0  0
  188.1900  176.9440  146.5450 C   0  0  1  0  0  3  0  0  0  0  0  0
  189.1270  177.3940  145.3980 C   0  0  0  0  0  2  0  0  0  0  0  0
  191.4050  175.9440  146.2190 C   0  0  0  0  0  2  0  0  0  0  0  0
  190.4210  174.3610  143.0470 C   0  0  0  0  0  2  0  0  0  0  0  0
  190.4750  174.7570  141.7100 O   0  0  0  0  0  1  0  0  0  0  0  0
  186.2460  176.1180  145.5160 O   0  0  0  0  0  0  0  0  0  0  0  0
  186.7430  177.0450  146.1360 C   0  0  0  0  0  0  0  0  0  0  0  0
  184.3360  178.0250  146.8130 O   0  0  0  0  0  0  0  0  0  0  0  0
  186.3190  179.1830  147.6800 O   0  0  0  0  0  0  0  0  0  0  0  0
  185.7420  178.4550  146.5010 S   0  0  0  0  0  0  0  0  0  0  0  0
  185.7310  179.5230  145.1380 N   0  0  0  0  0  2  0  0  0  0  0  0
  184.7010  179.0610  144.2200 C   0  0  0  0  0  2  0  0  0  0  0  0
  184.4990  178.2630  141.6770 C   0  0  2  0  0  3  0  0  0  0  0  0
  186.5260  176.8710  142.0200 C   0  0  0  0  0  2  0  0  0  0  0  0
  187.4820  177.8150  142.4310 O   0  0  0  0  0  0  0  0  0  0  0  0
  185.1780  177.2500  142.5860 C   0  0  1  0  0  3  0  0  0  0  0  0
  185.3260  178.7090  142.8780 C   0  0  2  0  0  0  0  0  0  0  0  0
  186.7860  179.0170  142.6430 C   0  0  0  0  0  2  0  0  0  0  0  0
  183.0000  178.2820  141.9640 C   0  0  0  0  0  2  0  0  0  0  0  0
  182.1640  178.5250  140.7060 C   0  0  1  0  0  3  0  0  0  0  0  0
  182.3380  177.4980  139.7750 O   0  0  0  0  0  1  0  0  0  0  0  0
  180.3400  178.7910  141.0510 P   0  0  0  0  0  0  0  0  0  0  0  0
  180.4730  179.3200  142.6990 O   0  0  0  0  0  1  0  0  0  0  0  0
  180.2170  180.3830  140.3680 O   0  0  0  0  0  1  0  0  0  0  0  0
  193.6870  176.7530  145.5320 C   0  0  0  0  0  2  0  0  0  0  0  0
  194.0300  175.4920  146.3090 C   0  0  0  0  0  2  0  0  0  0  0  0
  195.4550  175.0450  146.0070 C   0  0  0  0  0  2  0  0  0  0  0  0
  195.5230  173.9790  144.9120 C   0  0  1  0  0  3  0  0  0  0  0  0
  194.6240  172.7750  145.2380 C   0  0  2  0  0  3  0  0  0  0  0  0
  195.4570  171.5080  145.4330 C   0  0  0  0  0  3  0  0  0  0  0  0
  196.6120  171.8060  146.1550 O   0  0  0  0  0  1  0  0  0  0  0  0
  194.7250  170.5420  146.1260 O   0  0  0  0  0  1  0  0  0  0  0  0
  193.5270  172.5750  144.1920 C   0  0  0  0  0  2  0  0  0  0  0  0
  192.2990  172.3660  144.8190 O   0  0  0  0  0  1  0  0  0  0  0  0
  195.3000  174.5470  143.4990 C   0  0  0  0  0  2  0  0  0  0  0  0
  196.5500  174.5750  142.5970 C   0  0  2  0  0  3  0  0  0  0  0  0
  197.3140  175.8940  142.5540 C   0  0  2  0  0  3  0  0  0  0  0  0
  196.6090  176.9390  143.1590 O   0  0  0  0  0  1  0  0  0  0  0  0
  196.9880  175.8610  141.0760 C   0  0  0  0  0  2  0  0  0  0  0  0
  196.2280  174.6180  141.1750 N   0  0  0  0  0  0  0  0  0  0  0  0
  196.1610  172.7720  139.7600 O   0  0  0  0  0  1  0  0  0  0  0  0
  197.0070  173.5820  140.5170 C   0  0  0  0  0  2  0  0  0  0  0  0
  2  7  1  1  0  0  0
  2 10  1  0  0  0  0
  3 11  1  6  0  0  0
  3  5  1  0  0  0  0
  3  2  1  0  0  0  0
  4 32  1  1  0  0  0
  4 10  1  0  0  0  0
  5  2  1  0  0  0  0
  5  9  1  1  0  0  0
  6  3  1  0  0  0  0
  6  4  1  0  0  0  0
  7  1  1  0  0  0  0
  8 14  1  6  0  0  0
  8  1  1  0  0  0  0
  9  8  1  0  0  0  0
 12 11  1  0  0  0  0
 13 14  2  0  0  0  0
 14 17  1  0  0  0  0
 17 15  2  0  0  0  0
 17 16  2  0  0  0  0
 18 17  1  0  0  0  0
 19 18  1  0  0  0  0
 20 26  1  1  0  0  0
 20 23  1  0  0  0  0
 20 24  1  0  0  0  0
 21 22  1  0  0  0  0
 22 25  1  0  0  0  0
 23 21  1  6  0  0  0
 23 24  1  0  0  0  0
 24 19  1  1  0  0  0
 25 24  1  0  0  0  0
 27 28  1  6  0  0  0
 27 29  1  0  0  0  0
 27 26  1  0  0  0  0
 29 30  1  0  0  0  0
 31 29  1  0  0  0  0
 32 33  1  0  0  0  0
 34 33  1  0  0  0  0
 35 42  1  6  0  0  0
 35 36  1  0  0  0  0
 35 34  1  0  0  0  0
 36 40  1  6  0  0  0
 36 37  1  0  0  0  0
 37 39  1  0  0  0  0
 37 38  1  0  0  0  0
 40 41  1  0  0  0  0
 43 42  1  1  0  0  0
 44 43  1  0  0  0  0
 44 45  1  1  0  0  0
 46 47  1  0  0  0  0
 46 44  1  0  0  0  0
 47 43  1  0  0  0  0
 48 49  1  0  0  0  0
 49 47  1  0  0  0  0
M  END
>  <MODEL>
1

>  <REMARK>
 VINA RESULT:      -7.2      0.000      0.000
  Name = 
  19 active torsions:
  status: ('A' for Active; 'I' for Inactive)
    1  A    between atoms: C_3  and  C_43
    2  A    between atoms: C_4  and  C_8
    3  A    between atoms: P_5  and  C_25
    4  A    between atoms: C_6  and  C_21
    5  A    between atoms: C_9  and  C_27
    6  A    between atoms: C_14  and  C_43
    7  A    between atoms: C_17  and  C_30
    8  A    between atoms: C_17  and  C_39
    9  A    between atoms: C_17  and  C_43
   10  A    between atoms: N_20  and  C_33
   11  A    between atoms: N_20  and  S_45
   12  A    between atoms: C_21  and  C_25
   13  A    between atoms: C_23  and  C_27
   14  A    between atoms: C_23  and  C_30
   15  A    between atoms: C_24  and  C_39
   16  A    between atoms: C_28  and  C_40
   17  A    between atoms: C_33  and  C_46
   18  A    between atoms: C_40  and  S_45
   19  A    between atoms: C_41  and  N_47
                            x       y       z     vdW  Elec       q    Type
                         _______ _______ _______ _____ _____    ______ ____

>  <TORSDO>
F 19

$$$$
=
 OpenBabel11062418183D

 49 54  0  0  1  0  0  0  0  0999 V2000
  193.9210  176.5500  145.2360 C   0  0  0  0  0  2  0  0  0  0  0  0
  191.7130  175.5270  144.6750 C   0  0  1  0  0  0  0  0  0  0  0  0
  191.0560  174.2670  144.1670 C   0  0  1  0  0  0  0  0  0  0  0  0
  190.3480  174.5550  146.4820 C   0  0  1  0  0  3  0  0  0  0  0  0
  192.5290  174.2170  144.4250 C   0  0  2  0  0  3  0  0  0  0  0  0
  190.0900  173.7520  145.2220 C   0  0  0  0  0  2  0  0  0  0  0  0
  192.7660  176.5180  144.1970 C   0  0  0  0  0  2  0  0  0  0  0  0
  194.4260  175.1410  145.6740 C   0  0  1  0  0  3  0  0  0  0  0  0
  193.3240  174.0550  145.7110 C   0  0  0  0  0  2  0  0  0  0  0  0
  191.1320  175.7930  146.0720 C   0  0  0  0  0  2  0  0  0  0  0  0
  190.6090  174.3650  142.7220 C   0  0  0  0  0  2  0  0  0  0  0  0
  189.2800  173.9550  142.6090 O   0  0  0  0  0  1  0  0  0  0  0  0
  195.9160  175.1780  143.8570 O   0  0  0  0  0  0  0  0  0  0  0  0
  195.6430  174.6570  144.9270 C   0  0  0  0  0  0  0  0  0  0  0  0
  197.8660  173.1830  144.6210 O   0  0  0  0  0  0  0  0  0  0  0  0
  197.1450  173.6890  146.9120 O   0  0  0  0  0  0  0  0  0  0  0  0
  196.6780  173.3560  145.5250 S   0  0  0  0  0  0  0  0  0  0  0  0
  195.7750  171.8790  145.5810 N   0  0  0  0  0  2  0  0  0  0  0  0
  195.3890  171.5430  144.2190 C   0  0  0  0  0  2  0  0  0  0  0  0
  193.7630  169.4870  143.7000 C   0  0  2  0  0  3  0  0  0  0  0  0
  194.7420  168.3030  145.6510 C   0  0  0  0  0  2  0  0  0  0  0  0
  196.1100  168.2690  145.3340 O   0  0  0  0  0  0  0  0  0  0  0  0
  194.1520  169.6060  145.1650 C   0  0  1  0  0  3  0  0  0  0  0  0
  195.1180  170.0490  144.1130 C   0  0  2  0  0  0  0  0  0  0  0  0
  196.2760  169.0830  144.2020 C   0  0  0  0  0  2  0  0  0  0  0  0
  192.7610  170.5830  143.3470 C   0  0  0  0  0  2  0  0  0  0  0  0
  191.6130  170.0710  142.4740 C   0  0  1  0  0  3  0  0  0  0  0  0
  190.4900  170.8960  142.5770 O   0  0  0  0  0  1  0  0  0  0  0  0
  192.0830  169.8290  140.6750 P   0  0  0  0  0  0  0  0  0  0  0  0
  190.6950  168.9150  140.1760 O   0  0  0  0  0  1  0  0  0  0  0  0
  191.5030  171.3570  140.0890 O   0  0  0  0  0  1  0  0  0  0  0  0
  189.0420  174.9200  147.1720 C   0  0  0  0  0  2  0  0  0  0  0  0
  188.6570  176.3610  146.8750 C   0  0  0  0  0  2  0  0  0  0  0  0
  187.1570  176.4770  146.6310 C   0  0  0  0  0  2  0  0  0  0  0  0
  186.8160  177.3910  145.4520 C   0  0  1  0  0  3  0  0  0  0  0  0
  185.9500  178.5820  145.8920 C   0  0  2  0  0  3  0  0  0  0  0  0
  184.6210  178.1050  146.4770 C   0  0  0  0  0  3  0  0  0  0  0  0
  184.5580  176.7120  146.4360 O   0  0  0  0  0  1  0  0  0  0  0  0
  184.4880  178.5260  147.8010 O   0  0  0  0  0  1  0  0  0  0  0  0
  185.7400  179.5910  144.7630 C   0  0  0  0  0  2  0  0  0  0  0  0
  184.6980  179.1760  143.9360 O   0  0  0  0  0  1  0  0  0  0  0  0
  188.0490  177.8010  144.6270 C   0  0  0  0  0  2  0  0  0  0  0  0
  188.0970  177.2360  143.1930 C   0  0  2  0  0  3  0  0  0  0  0  0
  189.3940  177.4690  142.4250 C   0  0  2  0  0  3  0  0  0  0  0  0
  190.2400  178.3750  143.0700 O   0  0  0  0  0  1  0  0  0  0  0  0
  188.5060  178.2200  141.4540 C   0  0  0  0  0  2  0  0  0  0  0  0
  187.2990  178.0070  142.2470 N   0  0  0  0  0  0  0  0  0  0  0  0
  185.7330  177.7600  140.5440 O   0  0  0  0  0  1  0  0  0  0  0  0
  186.4610  177.0720  141.5140 C   0  0  0  0  0  2  0  0  0  0  0  0
  1  8  1  0  0  0  0
  2  7  1  6  0  0  0
  2 10  1  0  0  0  0
  3 11  1  6  0  0  0
  3  5  1  0  0  0  0
  3  2  1  0  0  0  0
  3  6  1  0  0  0  0
  4 32  1  6  0  0  0
  5  2  1  0  0  0  0
  5  9  1  1  0  0  0
  6  4  1  0  0  0  0
  7  1  1  0  0  0  0
  8 14  1  6  0  0  0
  8  9  1  0  0  0  0
 10  4  1  0  0  0  0
 12 11  1  0  0  0  0
 13 14  2  0  0  0  0
 14 17  1  0  0  0  0
 15 17  2  0  0  0  0
 17 18  1  0  0  0  0
 17 16  2  0  0  0  0
 19 18  1  0  0  0  0
 20 26  1  1  0  0  0
 20 24  1  0  0  0  0
 20 23  1  0  0  0  0
 22 21  1  0  0  0  0
 23 21  1  6  0  0  0
 24 25  1  0  0  0  0
 24 19  1  6  0  0  0
 24 23  1  0  0  0  0
 25 22  1  0  0  0  0
 27 28  1  6  0  0  0
 27 26  1  0  0  0  0
 29 27  1  0  0  0  0
 30 29  1  0  0  0  0
 31 29  1  0  0  0  0
 33 32  1  0  0  0  0
 34 33  1  0  0  0  0
 35 42  1  1  0  0  0
 35 36  1  0  0  0  0
 35 34  1  0  0  0  0
 36 40  1  6  0  0  0
 36 37  1  0  0  0  0
 37 39  1  0  0  0  0
 38 37  1  0  0  0  0
 41 40  1  0  0  0  0
 43 42  1  1  0  0  0
 44 45  1  1  0  0  0
 44 43  1  0  0  0  0
 46 47  1  0  0  0  0
 46 44  1  0  0  0  0
 47 43  1  0  0  0  0
 48 49  1  0  0  0  0
 49 47  1  0  0  0  0
M  END
>  <MODEL>
2

>  <REMARK>
 VINA RESULT:      -6.4      3.716     10.103
  Name = 
  19 active torsions:
  status: ('A' for Active; 'I' for Inactive)
    1  A    between atoms: C_3  and  C_43
    2  A    between atoms: C_4  and  C_8
    3  A    between atoms: P_5  and  C_25
    4  A    between atoms: C_6  and  C_21
    5  A    between atoms: C_9  and  C_27
    6  A    between atoms: C_14  and  C_43
    7  A    between atoms: C_17  and  C_30
    8  A    between atoms: C_17  and  C_39
    9  A    between atoms: C_17  and  C_43
   10  A    between atoms: N_20  and  C_33
   11  A    between atoms: N_20  and  S_45
   12  A    between atoms: C_21  and  C_25
   13  A    between atoms: C_23  and  C_27
   14  A    between atoms: C_23  and  C_30
   15  A    between atoms: C_24  and  C_39
   16  A    between atoms: C_28  and  C_40
   17  A    between atoms: C_33  and  C_46
   18  A    between atoms: C_40  and  S_45
   19  A    between atoms: C_41  and  N_47
                            x       y       z     vdW  Elec       q    Type
                         _______ _______ _______ _____ _____    ______ ____

>  <TORSDO>
F 19

$$$$
=
 OpenBabel11062418183D

 49 54  0  0  1  0  0  0  0  0999 V2000
  189.9700  175.9710  142.1920 C   0  0  0  0  0  2  0  0  0  0  0  0
  190.7460  173.6320  142.5990 C   0  0  1  0  0  0  0  0  0  0  0  0
  190.2670  172.2290  142.8790 C   0  0  1  0  0  0  0  0  0  0  0  0
  191.2970  172.1990  140.6700 C   0  0  1  0  0  3  0  0  0  0  0  0
  189.2270  173.2640  142.5890 C   0  0  2  0  0  3  0  0  0  0  0  0
  190.7450  171.3100  141.7660 C   0  0  0  0  0  2  0  0  0  0  0  0
  190.6180  175.0120  143.2290 C   0  0  0  0  0  2  0  0  0  0  0  0
  188.7000  175.3940  141.4940 C   0  0  1  0  0  3  0  0  0  0  0  0
  188.7340  173.8620  141.2800 C   0  0  0  0  0  2  0  0  0  0  0  0
  191.5400  173.5700  141.2840 C   0  0  0  0  0  2  0  0  0  0  0  0
  190.4460  171.8140  144.3260 C   0  0  0  0  0  2  0  0  0  0  0  0
  189.4190  172.3510  145.1030 O   0  0  0  0  0  1  0  0  0  0  0  0
  186.7850  175.0260  142.8050 O   0  0  0  0  0  0  0  0  0  0  0  0
  187.3980  175.8270  142.1180 C   0  0  0  0  0  0  0  0  0  0  0  0
  187.8120  178.4400  141.6600 O   0  0  0  0  0  0  0  0  0  0  0  0
  185.8010  177.4230  140.6890 O   0  0  0  0  0  0  0  0  0  0  0  0
  186.7140  177.4390  141.8800 S   0  0  0  0  0  0  0  0  0  0  0  0
  185.7950  177.8880  143.2790 N   0  0  0  0  0  2  0  0  0  0  0  0
  186.6760  178.6270  144.1700 C   0  0  0  0  0  2  0  0  0  0  0  0
  187.2260  177.2700  146.4060 C   0  0  2  0  0  3  0  0  0  0  0  0
  184.7900  176.8920  146.6990 C   0  0  0  0  0  2  0  0  0  0  0  0
  184.2770  178.2000  146.7290 O   0  0  0  0  0  0  0  0  0  0  0  0
  185.9400  176.8310  145.7220 C   0  0  1  0  0  3  0  0  0  0  0  0
  186.3750  178.2580  145.6160 C   0  0  2  0  0  0  0  0  0  0  0  0
  185.3380  179.0500  146.3770 C   0  0  0  0  0  2  0  0  0  0  0  0
  188.4260  176.7670  145.6070 C   0  0  0  0  0  2  0  0  0  0  0  0
  189.7500  176.9750  146.3430 C   0  0  1  0  0  3  0  0  0  0  0  0
  189.5980  177.8470  147.4250 O   0  0  0  0  0  1  0  0  0  0  0  0
  190.5630  175.3790  146.9010 P   0  0  0  0  0  0  0  0  0  0  0  0
  191.2410  175.9530  148.3910 O   0  0  0  0  0  1  0  0  0  0  0  0
  189.1570  174.6550  147.6170 O   0  0  0  0  0  1  0  0  0  0  0  0
  192.5730  171.6140  140.0830 C   0  0  0  0  0  2  0  0  0  0  0  0
  193.7790  172.4630  140.4510 C   0  0  0  0  0  2  0  0  0  0  0  0
  194.6990  171.7070  141.4020 C   0  0  0  0  0  2  0  0  0  0  0  0
  194.8180  172.3790  142.7720 C   0  0  1  0  0  3  0  0  0  0  0  0
  194.1810  171.5220  143.8790 C   0  0  2  0  0  3  0  0  0  0  0  0
  194.0030  172.3320  145.1630 C   0  0  0  0  0  3  0  0  0  0  0  0
  195.2440  172.5550  145.7580 O   0  0  0  0  0  1  0  0  0  0  0  0
  193.4040  173.5620  144.8870 O   0  0  0  0  0  1  0  0  0  0  0  0
  194.9620  170.2310  144.1280 C   0  0  0  0  0  2  0  0  0  0  0  0
  194.3790  169.5120  145.1710 O   0  0  0  0  0  1  0  0  0  0  0  0
  196.2510  172.8380  143.0990 C   0  0  0  0  0  2  0  0  0  0  0  0
  196.5890  174.2830  142.6810 C   0  0  2  0  0  3  0  0  0  0  0  0
  197.6230  175.0030  143.5390 C   0  0  2  0  0  3  0  0  0  0  0  0
  197.9160  174.3090  144.7160 O   0  0  0  0  0  1  0  0  0  0  0  0
  196.4990  175.9820  143.8030 C   0  0  0  0  0  2  0  0  0  0  0  0
  195.5330  175.2340  143.0050 N   0  0  0  0  0  0  0  0  0  0  0  0
  193.8850  176.1710  141.6550 O   0  0  0  0  0  1  0  0  0  0  0  0
  195.2630  176.0160  141.8090 C   0  0  0  0  0  2  0  0  0  0  0  0
  1  7  1  0  0  0  0
  2 10  1  6  0  0  0
  2  3  1  0  0  0  0
  2  7  1  0  0  0  0
  3 11  1  1  0  0  0
  4 32  1  1  0  0  0
  4 10  1  0  0  0  0
  4  6  1  0  0  0  0
  5  9  1  6  0  0  0
  5  2  1  0  0  0  0
  5  3  1  0  0  0  0
  6  3  1  0  0  0  0
  8 14  1  1  0  0  0
  8  1  1  0  0  0  0
  9  8  1  0  0  0  0
 11 12  1  0  0  0  0
 14 13  2  0  0  0  0
 15 17  2  0  0  0  0
 16 17  2  0  0  0  0
 17 14  1  0  0  0  0
 17 18  1  0  0  0  0
 18 19  1  0  0  0  0
 20 26  1  6  0  0  0
 21 22  1  0  0  0  0
 23 20  1  0  0  0  0
 23 21  1  1  0  0  0
 24 19  1  6  0  0  0
 24 23  1  0  0  0  0
 24 25  1  0  0  0  0
 24 20  1  0  0  0  0
 25 22  1  0  0  0  0
 26 27  1  0  0  0  0
 27 29  1  0  0  0  0
 27 28  1  1  0  0  0
 29 31  1  0  0  0  0
 29 30  1  0  0  0  0
 32 33  1  0  0  0  0
 33 34  1  0  0  0  0
 35 34  1  6  0  0  0
 35 42  1  0  0  0  0
 35 36  1  0  0  0  0
 36 40  1  1  0  0  0
 36 37  1  0  0  0  0
 37 38  1  0  0  0  0
 39 37  1  0  0  0  0
 40 41  1  0  0  0  0
 43 47  1  0  0  0  0
 43 42  1  1  0  0  0
 43 44  1  0  0  0  0
 44 46  1  0  0  0  0
 44 45  1  1  0  0  0
 47 46  1  0  0  0  0
 48 49  1  0  0  0  0
 49 47  1  0  0  0  0
M  END
>  <MODEL>
3

>  <REMARK>
 VINA RESULT:      -6.3      3.208      5.534
  Name = 
  19 active torsions:
  status: ('A' for Active; 'I' for Inactive)
    1  A    between atoms: C_3  and  C_43
    2  A    between atoms: C_4  and  C_8
    3  A    between atoms: P_5  and  C_25
    4  A    between atoms: C_6  and  C_21
    5  A    between atoms: C_9  and  C_27
    6  A    between atoms: C_14  and  C_43
    7  A    between atoms: C_17  and  C_30
    8  A    between atoms: C_17  and  C_39
    9  A    between atoms: C_17  and  C_43
   10  A    between atoms: N_20  and  C_33
   11  A    between atoms: N_20  and  S_45
   12  A    between atoms: C_21  and  C_25
   13  A    between atoms: C_23  and  C_27
   14  A    between atoms: C_23  and  C_30
   15  A    between atoms: C_24  and  C_39
   16  A    between atoms: C_28  and  C_40
   17  A    between atoms: C_33  and  C_46
   18  A    between atoms: C_40  and  S_45
   19  A    between atoms: C_41  and  N_47
                            x       y       z     vdW  Elec       q    Type
                         _______ _______ _______ _____ _____    ______ ____

>  <TORSDO>
F 19

$$$$
=
 OpenBabel11062418183D

 49 54  0  0  1  0  0  0  0  0999 V2000
  193.9080  176.5790  145.7040 C   0  0  0  0  0  2  0  0  0  0  0  0
  194.7740  174.4190  144.7970 C   0  0  1  0  0  0  0  0  0  0  0  0
  194.4520  172.9520  144.6490 C   0  0  1  0  0  0  0  0  0  0  0  0
  194.4550  173.9090  142.4060 C   0  0  1  0  0  3  0  0  0  0  0  0
  193.3910  173.8320  145.2290 C   0  0  2  0  0  3  0  0  0  0  0  0
  194.4130  172.6000  143.1700 C   0  0  0  0  0  2  0  0  0  0  0  0
  194.9290  175.4290  145.9260 C   0  0  0  0  0  2  0  0  0  0  0  0
  192.4600  176.0950  145.3840 C   0  0  1  0  0  3  0  0  0  0  0  0
  192.3950  174.7780  144.5750 C   0  0  0  0  0  2  0  0  0  0  0  0
  194.9400  174.9780  143.3750 C   0  0  0  0  0  2  0  0  0  0  0  0
  195.2230  172.0700  145.6110 C   0  0  0  0  0  2  0  0  0  0  0  0
  196.5640  172.4560  145.6370 O   0  0  0  0  0  1  0  0  0  0  0  0
  192.0300  176.1630  147.6930 O   0  0  0  0  0  0  0  0  0  0  0  0
  191.5430  176.0460  146.5800 C   0  0  0  0  0  0  0  0  0  0  0  0
  189.4480  175.3650  145.0450 O   0  0  0  0  0  0  0  0  0  0  0  0
  189.3560  174.7660  147.4240 O   0  0  0  0  0  0  0  0  0  0  0  0
  189.7980  175.8080  146.4380 S   0  0  0  0  0  0  0  0  0  0  0  0
  188.9820  177.2940  146.7940 N   0  0  0  0  0  2  0  0  0  0  0  0
  188.1840  177.6510  145.6310 C   0  0  0  0  0  2  0  0  0  0  0  0
  185.6050  177.8940  144.9720 C   0  0  2  0  0  3  0  0  0  0  0  0
  185.1770  178.8050  147.2410 C   0  0  0  0  0  2  0  0  0  0  0  0
  185.6370  177.7740  148.0780 O   0  0  0  0  0  0  0  0  0  0  0  0
  186.0660  178.8910  146.0240 C   0  0  1  0  0  3  0  0  0  0  0  0
  186.7040  177.5400  145.9680 C   0  0  2  0  0  0  0  0  0  0  0  0
  186.2900  176.8500  147.2460 C   0  0  0  0  0  2  0  0  0  0  0  0
  186.1630  178.2950  143.6090 C   0  0  0  0  0  2  0  0  0  0  0  0
  185.7520  177.3280  142.4980 C   0  0  1  0  0  3  0  0  0  0  0  0
  184.6420  177.8050  141.7950 O   0  0  0  0  0  1  0  0  0  0  0  0
  187.1420  176.9040  141.3120 P   0  0  0  0  0  0  0  0  0  0  0  0
  186.5460  177.7480  139.9180 O   0  0  0  0  0  1  0  0  0  0  0  0
  188.2430  178.1510  141.8110 O   0  0  0  0  0  1  0  0  0  0  0  0
  195.3620  173.8010  141.1900 C   0  0  0  0  0  2  0  0  0  0  0  0
  194.6330  173.1470  140.0270 C   0  0  0  0  0  2  0  0  0  0  0  0
  193.2540  173.7670  139.8390 C   0  0  0  0  0  2  0  0  0  0  0  0
  192.1280  172.7300  139.8640 C   0  0  1  0  0  3  0  0  0  0  0  0
  192.6550  171.3180  139.5630 C   0  0  2  0  0  3  0  0  0  0  0  0
  192.2000  170.8480  138.1810 C   0  0  0  0  0  3  0  0  0  0  0  0
  192.7410  169.5930  137.9040 O   0  0  0  0  0  1  0  0  0  0  0  0
  190.8080  170.7640  138.1250 O   0  0  0  0  0  1  0  0  0  0  0  0
  192.2730  170.3160  140.6530 C   0  0  0  0  0  2  0  0  0  0  0  0
  193.4130  169.6760  141.1370 O   0  0  0  0  0  1  0  0  0  0  0  0
  191.2650  172.8050  141.1360 C   0  0  0  0  0  2  0  0  0  0  0  0
  189.9410  173.5810  140.9860 C   0  0  2  0  0  3  0  0  0  0  0  0
  189.0060  173.5490  142.1900 C   0  0  2  0  0  3  0  0  0  0  0  0
  189.4030  172.6120  143.1490 O   0  0  0  0  0  1  0  0  0  0  0  0
  188.0350  172.8970  141.2280 C   0  0  0  0  0  2  0  0  0  0  0  0
  188.9810  172.9110  140.1160 N   0  0  0  0  0  0  0  0  0  0  0  0
  188.5780  173.3570  137.8680 O   0  0  0  0  0  1  0  0  0  0  0  0
  188.5010  173.8910  139.1540 C   0  0  0  0  0  2  0  0  0  0  0  0
  1  7  1  0  0  0  0
  2 10  1  6  0  0  0
  2  5  1  0  0  0  0
  2  7  1  0  0  0  0
  3  2  1  0  0  0  0
  3  5  1  0  0  0  0
  3 11  1  1  0  0  0
  4 32  1  6  0  0  0
  4  6  1  0  0  0  0
  4 10  1  0  0  0  0
  5  9  1  6  0  0  0
  6  3  1  0  0  0  0
  8  1  1  0  0  0  0
  8 14  1  1  0  0  0
  9  8  1  0  0  0  0
 11 12  1  0  0  0  0
 14 13  2  0  0  0  0
 15 17  2  0  0  0  0
 17 14  1  0  0  0  0
 17 18  1  0  0  0  0
 17 16  2  0  0  0  0
 19 18  1  0  0  0  0
 20 26  1  6  0  0  0
 20 24  1  0  0  0  0
 20 23  1  0  0  0  0
 21 22  1  0  0  0  0
 23 21  1  1  0  0  0
 24 19  1  6  0  0  0
 24 23  1  0  0  0  0
 24 25  1  0  0  0  0
 25 22  1  0  0  0  0
 27 28  1  6  0  0  0
 27 26  1  0  0  0  0
 29 31  1  0  0  0  0
 29 27  1  0  0  0  0
 30 29  1  0  0  0  0
 33 32  1  0  0  0  0
 34 33  1  0  0  0  0
 35 34  1  1  0  0  0
 35 42  1  0  0  0  0
 36 35  1  0  0  0  0
 36 40  1  1  0  0  0
 37 36  1  0  0  0  0
 38 37  1  0  0  0  0
 39 37  1  0  0  0  0
 40 41  1  0  0  0  0
 43 42  1  1  0  0  0
 43 44  1  0  0  0  0
 44 45  1  1  0  0  0
 46 44  1  0  0  0  0
 47 43  1  0  0  0  0
 47 46  1  0  0  0  0
 48 49  1  0  0  0  0
 49 47  1  0  0  0  0
M  END
>  <MODEL>
4

>  <REMARK>
 VINA RESULT:      -6.3      3.239      6.100
  Name = 
  19 active torsions:
  status: ('A' for Active; 'I' for Inactive)
    1  A    between atoms: C_3  and  C_43
    2  A    between atoms: C_4  and  C_8
    3  A    between atoms: P_5  and  C_25
    4  A    between atoms: C_6  and  C_21
    5  A    between atoms: C_9  and  C_27
    6  A    between atoms: C_14  and  C_43
    7  A    between atoms: C_17  and  C_30
    8  A    between atoms: C_17  and  C_39
    9  A    between atoms: C_17  and  C_43
   10  A    between atoms: N_20  and  C_33
   11  A    between atoms: N_20  and  S_45
   12  A    between atoms: C_21  and  C_25
   13  A    between atoms: C_23  and  C_27
   14  A    between atoms: C_23  and  C_30
   15  A    between atoms: C_24  and  C_39
   16  A    between atoms: C_28  and  C_40
   17  A    between atoms: C_33  and  C_46
   18  A    between atoms: C_40  and  S_45
   19  A    between atoms: C_41  and  N_47
                            x       y       z     vdW  Elec       q    Type
                         _______ _______ _______ _____ _____    ______ ____

>  <TORSDO>
F 19

$$$$
=
 OpenBabel11062418183D

 49 54  0  0  1  0  0  0  0  0999 V2000
  185.9430  178.6990  142.5530 C   0  0  0  0  0  2  0  0  0  0  0  0
  188.1550  177.6520  142.0560 C   0  0  1  0  0  0  0  0  0  0  0  0
  189.3580  177.0010  142.6960 C   0  0  1  0  0  0  0  0  0  0  0  0
  188.2350  175.2830  141.3800 C   0  0  1  0  0  3  0  0  0  0  0  0
  188.2060  177.3400  143.5870 C   0  0  2  0  0  3  0  0  0  0  0  0
  189.5020  175.5870  142.1550 C   0  0  0  0  0  2  0  0  0  0  0  0
  187.4150  178.9790  142.1430 C   0  0  0  0  0  2  0  0  0  0  0  0
  185.7910  177.7270  143.7630 C   0  0  1  0  0  3  0  0  0  0  0  0
  186.8830  176.6330  143.8400 C   0  0  0  0  0  2  0  0  0  0  0  0
  187.5510  176.6120  141.0990 C   0  0  0  0  0  2  0  0  0  0  0  0
  190.5690  177.9100  142.7550 C   0  0  0  0  0  2  0  0  0  0  0  0
  191.6230  177.2540  143.3920 O   0  0  0  0  0  1  0  0  0  0  0  0
  185.4370  179.6210  145.1070 O   0  0  0  0  0  0  0  0  0  0  0  0
  185.6140  178.4140  145.0930 C   0  0  0  0  0  0  0  0  0  0  0  0
  184.8120  178.2450  147.6500 O   0  0  0  0  0  0  0  0  0  0  0  0
  185.1720  176.1450  146.4320 O   0  0  0  0  0  0  0  0  0  0  0  0
  185.6690  177.5470  146.6320 S   0  0  0  0  0  0  0  0  0  0  0  0
  187.3040  177.4820  147.2000 N   0  0  0  0  0  2  0  0  0  0  0  0
  187.8340  176.1650  146.8780 C   0  0  0  0  0  2  0  0  0  0  0  0
  190.1330  175.1880  145.9280 C   0  0  2  0  0  3  0  0  0  0  0  0
  191.2250  175.8700  148.0510 C   0  0  0  0  0  2  0  0  0  0  0  0
  190.9660  177.2500  148.1000 O   0  0  0  0  0  0  0  0  0  0  0  0
  190.0360  175.1630  147.4460 C   0  0  1  0  0  3  0  0  0  0  0  0
  189.3410  176.2480  146.6860 C   0  0  2  0  0  0  0  0  0  0  0  0
  190.0620  177.5220  147.0610 C   0  0  0  0  0  2  0  0  0  0  0  0
  189.2360  174.1010  145.3410 C   0  0  0  0  0  2  0  0  0  0  0  0
  190.0230  172.8640  144.9040 C   0  0  1  0  0  3  0  0  0  0  0  0
  189.3290  172.1410  143.9300 O   0  0  0  0  0  1  0  0  0  0  0  0
  191.7640  173.2440  144.3190 P   0  0  0  0  0  0  0  0  0  0  0  0
  192.4770  171.6960  144.6400 O   0  0  0  0  0  1  0  0  0  0  0  0
  191.4930  172.9620  142.6260 O   0  0  0  0  0  1  0  0  0  0  0  0
  188.5500  174.5310  140.0950 C   0  0  0  0  0  2  0  0  0  0  0  0
  188.5220  173.0280  140.3260 C   0  0  0  0  0  2  0  0  0  0  0  0
  188.4070  172.2830  139.0020 C   0  0  0  0  0  2  0  0  0  0  0  0
  189.7680  171.9610  138.3800 C   0  0  1  0  0  3  0  0  0  0  0  0
  190.8010  171.5750  139.4510 C   0  0  2  0  0  3  0  0  0  0  0  0
  192.1320  172.2850  139.2080 C   0  0  0  0  0  3  0  0  0  0  0  0
  192.7660  171.7360  138.0940 O   0  0  0  0  0  1  0  0  0  0  0  0
  191.9280  173.6490  138.9870 O   0  0  0  0  0  1  0  0  0  0  0  0
  190.9790  170.0600  139.5590 C   0  0  0  0  0  2  0  0  0  0  0  0
  190.7910  169.6470  140.8770 O   0  0  0  0  0  1  0  0  0  0  0  0
  189.6800  170.9540  137.2200 C   0  0  0  0  0  2  0  0  0  0  0  0
  189.7430  171.5710  135.8080 C   0  0  2  0  0  3  0  0  0  0  0  0
  190.6810  170.8880  134.8200 C   0  0  2  0  0  3  0  0  0  0  0  0
  191.5170  169.9530  135.4380 O   0  0  0  0  0  1  0  0  0  0  0  0
  191.3770  172.2320  134.7840 C   0  0  0  0  0  2  0  0  0  0  0  0
  190.4780  172.8300  135.7660 N   0  0  0  0  0  0  0  0  0  0  0  0
  189.1500  174.7290  135.9710 O   0  0  0  0  0  1  0  0  0  0  0  0
  189.6530  173.7980  135.0630 C   0  0  0  0  0  2  0  0  0  0  0  0
  1  8  1  0  0  0  0
  2 10  1  6  0  0  0
  2  7  1  0  0  0  0
  2  3  1  0  0  0  0
  2  5  1  0  0  0  0
  3 11  1  1  0  0  0
  3  5  1  0  0  0  0
  4 32  1  6  0  0  0
  4  6  1  0  0  0  0
  5  9  1  6  0  0  0
  6  3  1  0  0  0  0
  7  1  1  0  0  0  0
  8  9  1  0  0  0  0
  8 14  1  1  0  0  0
 10  4  1  0  0  0  0
 11 12  1  0  0  0  0
 14 13  2  0  0  0  0
 14 17  1  0  0  0  0
 16 17  2  0  0  0  0
 17 18  1  0  0  0  0
 17 15  2  0  0  0  0
 19 18  1  0  0  0  0
 20 26  1  6  0  0  0
 20 24  1  0  0  0  0
 20 23  1  0  0  0  0
 21 22  1  0  0  0  0
 23 21  1  1  0  0  0
 24 19  1  6  0  0  0
 24 25  1  0  0  0  0
 24 23  1  0  0  0  0
 25 22  1  0  0  0  0
 27 28  1  6  0  0  0
 27 26  1  0  0  0  0
 29 30  1  0  0  0  0
 29 27  1  0  0  0  0
 31 29  1  0  0  0  0
 32 33  1  0  0  0  0
 34 33  1  0  0  0  0
 35 42  1  6  0  0  0
 35 34  1  0  0  0  0
 35 36  1  0  0  0  0
 36 40  1  6  0  0  0
 37 36  1  0  0  0  0
 38 37  1  0  0  0  0
 39 37  1  0  0  0  0
 40 41  1  0  0  0  0
 43 42  1  1  0  0  0
 44 45  1  1  0  0  0
 44 43  1  0  0  0  0
 46 44  1  0  0  0  0
 46 47  1  0  0  0  0
 47 43  1  0  0  0  0
 49 47  1  0  0  0  0
 49 48  1  0  0  0  0
M  END
>  <MODEL>
5

>  <REMARK>
 VINA RESULT:      -6.2      4.442      7.565
  Name = 
  19 active torsions:
  status: ('A' for Active; 'I' for Inactive)
    1  A    between atoms: C_3  and  C_43
    2  A    between atoms: C_4  and  C_8
    3  A    between atoms: P_5  and  C_25
    4  A    between atoms: C_6  and  C_21
    5  A    between atoms: C_9  and  C_27
    6  A    between atoms: C_14  and  C_43
    7  A    between atoms: C_17  and  C_30
    8  A    between atoms: C_17  and  C_39
    9  A    between atoms: C_17  and  C_43
   10  A    between atoms: N_20  and  C_33
   11  A    between atoms: N_20  and  S_45
   12  A    between atoms: C_21  and  C_25
   13  A    between atoms: C_23  and  C_27
   14  A    between atoms: C_23  and  C_30
   15  A    between atoms: C_24  and  C_39
   16  A    between atoms: C_28  and  C_40
   17  A    between atoms: C_33  and  C_46
   18  A    between atoms: C_40  and  S_45
   19  A    between atoms: C_41  and  N_47
                            x       y       z     vdW  Elec       q    Type
                         _______ _______ _______ _____ _____    ______ ____

>  <TORSDO>
F 19

$$$$
=
 OpenBabel11062418183D

 49 54  0  0  1  0  0  0  0  0999 V2000
  195.8740  174.5600  145.6660 C   0  0  0  0  0  2  0  0  0  0  0  0
  194.9340  175.8040  143.7150 C   0  0  1  0  0  0  0  0  0  0  0  0
  194.3440  175.6280  142.3370 C   0  0  1  0  0  0  0  0  0  0  0  0
  192.5710  176.5010  143.7640 C   0  0  1  0  0  3  0  0  0  0  0  0
  194.6280  174.3890  143.1260 C   0  0  2  0  0  3  0  0  0  0  0  0
  192.9370  176.2060  142.3230 C   0  0  0  0  0  2  0  0  0  0  0  0
  196.2250  175.4470  144.4410 C   0  0  0  0  0  2  0  0  0  0  0  0
  194.8980  173.3860  145.3470 C   0  0  1  0  0  3  0  0  0  0  0  0
  193.8580  173.7060  144.2460 C   0  0  0  0  0  2  0  0  0  0  0  0
  193.8650  176.5100  144.5640 C   0  0  0  0  0  2  0  0  0  0  0  0
  195.3110  175.9770  141.2230 C   0  0  0  0  0  2  0  0  0  0  0  0
  196.0300  174.8410  140.8480 O   0  0  0  0  0  1  0  0  0  0  0  0
  196.7410  171.9310  145.4300 O   0  0  0  0  0  0  0  0  0  0  0  0
  195.5780  172.0660  145.0850 C   0  0  0  0  0  0  0  0  0  0  0  0
  195.3840  169.4130  144.7180 O   0  0  0  0  0  0  0  0  0  0  0  0
  193.3100  170.7250  144.6460 O   0  0  0  0  0  0  0  0  0  0  0  0
  194.7680  170.7140  144.2860 S   0  0  0  0  0  0  0  0  0  0  0  0
  194.9190  170.8840  142.5690 N   0  0  0  0  0  2  0  0  0  0  0  0
  193.5780  170.8820  142.0030 C   0  0  0  0  0  2  0  0  0  0  0  0
  192.4410  172.7710  140.4940 C   0  0  2  0  0  3  0  0  0  0  0  0
  192.9860  171.4100  138.4910 C   0  0  0  0  0  2  0  0  0  0  0  0
  194.3810  171.2710  138.5840 O   0  0  0  0  0  0  0  0  0  0  0  0
  192.3900  171.3810  139.8780 C   0  0  1  0  0  3  0  0  0  0  0  0
  193.5440  171.7520  140.7550 C   0  0  2  0  0  0  0  0  0  0  0  0
  194.7470  171.7770  139.8420 C   0  0  0  0  0  2  0  0  0  0  0  0
  191.4420  172.8560  141.6460 C   0  0  0  0  0  2  0  0  0  0  0  0
  190.1150  172.1670  141.3240 C   0  0  1  0  0  3  0  0  0  0  0  0
  189.6690  171.3970  142.4010 O   0  0  0  0  0  1  0  0  0  0  0  0
  188.7690  173.3460  140.7630 P   0  0  0  0  0  0  0  0  0  0  0  0
  189.3820  174.7920  141.5000 O   0  0  0  0  0  1  0  0  0  0  0  0
  189.4080  173.6730  139.1820 O   0  0  0  0  0  1  0  0  0  0  0  0
  191.8330  177.8270  143.8770 C   0  0  0  0  0  2  0  0  0  0  0  0
  190.3350  177.6030  144.0190 C   0  0  0  0  0  2  0  0  0  0  0  0
  190.0490  176.2180  144.5840 C   0  0  0  0  0  2  0  0  0  0  0  0
  188.8090  176.1860  145.4790 C   0  0  1  0  0  3  0  0  0  0  0  0
  189.1830  175.9680  146.9550 C   0  0  2  0  0  3  0  0  0  0  0  0
  190.6060  176.4490  147.2350 C   0  0  0  0  0  3  0  0  0  0  0  0
  190.5710  177.6820  147.8850 O   0  0  0  0  0  1  0  0  0  0  0  0
  191.2850  175.5320  148.0400 O   0  0  0  0  0  1  0  0  0  0  0  0
  188.9800  174.5170  147.3920 C   0  0  0  0  0  2  0  0  0  0  0  0
  189.3750  173.6490  146.3750 O   0  0  0  0  0  1  0  0  0  0  0  0
  187.8690  177.3830  145.2540 C   0  0  0  0  0  2  0  0  0  0  0  0
  186.3740  177.0280  145.1170 C   0  0  2  0  0  3  0  0  0  0  0  0
  185.8560  176.8540  143.6940 C   0  0  2  0  0  3  0  0  0  0  0  0
  186.7760  177.2870  142.7340 O   0  0  0  0  0  1  0  0  0  0  0  0
  184.9320  177.9990  144.0520 C   0  0  0  0  0  2  0  0  0  0  0  0
  185.4920  178.1550  145.3920 N   0  0  0  0  0  0  0  0  0  0  0  0
  184.4170  178.5920  147.4090 O   0  0  0  0  0  1  0  0  0  0  0  0
  184.4820  177.7040  146.3360 C   0  0  0  0  0  2  0  0  0  0  0  0
  2  7  1  1  0  0  0
  2 10  1  0  0  0  0
  3 11  1  6  0  0  0
  3  5  1  0  0  0  0
  3  2  1  0  0  0  0
  4 32  1  6  0  0  0
  4 10  1  0  0  0  0
  5  2  1  0  0  0  0
  5  9  1  1  0  0  0
  6  3  1  0  0  0  0
  6  4  1  0  0  0  0
  7  1  1  0  0  0  0
  8 14  1  6  0  0  0
  8  1  1  0  0  0  0
  9  8  1  0  0  0  0
 12 11  1  0  0  0  0
 14 13  2  0  0  0  0
 17 16  2  0  0  0  0
 17 15  2  0  0  0  0
 17 14  1  0  0  0  0
 18 17  1  0  0  0  0
 19 18  1  0  0  0  0
 20 24  1  0  0  0  0
 20 26  1  1  0  0  0
 21 22  1  0  0  0  0
 22 25  1  0  0  0  0
 23 21  1  6  0  0  0
 23 20  1  0  0  0  0
 23 24  1  0  0  0  0
 24 19  1  1  0  0  0
 25 24  1  0  0  0  0
 27 26  1  0  0  0  0
 27 28  1  1  0  0  0
 29 27  1  0  0  0  0
 29 30  1  0  0  0  0
 31 29  1  0  0  0  0
 32 33  1  0  0  0  0
 33 34  1  0  0  0  0
 35 34  1  6  0  0  0
 35 36  1  0  0  0  0
 36 37  1  0  0  0  0
 36 40  1  6  0  0  0
 37 38  1  0  0  0  0
 37 39  1  0  0  0  0
 41 40  1  0  0  0  0
 42 35  1  0  0  0  0
 43 42  1  6  0  0  0
 43 47  1  0  0  0  0
 44 45  1  6  0  0  0
 44 46  1  0  0  0  0
 44 43  1  0  0  0  0
 46 47  1  0  0  0  0
 47 49  1  0  0  0  0
 49 48  1  0  0  0  0
M  END
>  <MODEL>
6

>  <REMARK>
 VINA RESULT:      -6.2      3.288      9.218
  Name = 
  19 active torsions:
  status: ('A' for Active; 'I' for Inactive)
    1  A    between atoms: C_3  and  C_43
    2  A    between atoms: C_4  and  C_8
    3  A    between atoms: P_5  and  C_25
    4  A    between atoms: C_6  and  C_21
    5  A    between atoms: C_9  and  C_27
    6  A    between atoms: C_14  and  C_43
    7  A    between atoms: C_17  and  C_30
    8  A    between atoms: C_17  and  C_39
    9  A    between atoms: C_17  and  C_43
   10  A    between atoms: N_20  and  C_33
   11  A    between atoms: N_20  and  S_45
   12  A    between atoms: C_21  and  C_25
   13  A    between atoms: C_23  and  C_27
   14  A    between atoms: C_23  and  C_30
   15  A    between atoms: C_24  and  C_39
   16  A    between atoms: C_28  and  C_40
   17  A    between atoms: C_33  and  C_46
   18  A    between atoms: C_40  and  S_45
   19  A    between atoms: C_41  and  N_47
                            x       y       z     vdW  Elec       q    Type
                         _______ _______ _______ _____ _____    ______ ____

>  <TORSDO>
F 19

$$$$
=
 OpenBabel11062418183D

 49 54  0  0  1  0  0  0  0  0999 V2000
  193.2220  176.7910  146.3380 C   0  0  0  0  0  2  0  0  0  0  0  0
  194.8270  175.2060  145.2660 C   0  0  1  0  0  0  0  0  0  0  0  0
  195.0370  173.7560  144.9040 C   0  0  1  0  0  0  0  0  0  0  0  0
  194.8390  174.9910  142.8110 C   0  0  1  0  0  3  0  0  0  0  0  0
  193.7070  174.1350  145.4740 C   0  0  2  0  0  3  0  0  0  0  0  0
  195.2060  173.6420  143.3970 C   0  0  0  0  0  2  0  0  0  0  0  0
  194.5610  176.0250  146.5220 C   0  0  0  0  0  2  0  0  0  0  0  0
  192.0480  175.9090  145.8100 C   0  0  1  0  0  3  0  0  0  0  0  0
  192.4860  174.7850  144.8410 C   0  0  0  0  0  2  0  0  0  0  0  0
  194.8720  175.9990  143.9500 C   0  0  0  0  0  2  0  0  0  0  0  0
  196.0070  173.0440  145.8250 C   0  0  0  0  0  2  0  0  0  0  0  0
  197.1240  173.8490  146.0510 O   0  0  0  0  0  1  0  0  0  0  0  0
  191.5730  175.2820  148.0240 O   0  0  0  0  0  0  0  0  0  0  0  0
  191.1380  175.3770  146.8870 C   0  0  0  0  0  0  0  0  0  0  0  0
  189.4350  173.9450  145.3840 O   0  0  0  0  0  0  0  0  0  0  0  0
  188.9310  174.1620  147.7760 O   0  0  0  0  0  0  0  0  0  0  0  0
  189.4760  174.8680  146.5690 S   0  0  0  0  0  0  0  0  0  0  0  0
  188.4970  176.2610  146.2500 N   0  0  0  0  0  2  0  0  0  0  0  0
  187.9690  176.1330  144.9000 C   0  0  0  0  0  2  0  0  0  0  0  0
  187.0890  178.2930  143.5960 C   0  0  2  0  0  3  0  0  0  0  0  0
  188.8930  177.9430  141.9270 C   0  0  0  0  0  2  0  0  0  0  0  0
  190.0530  177.9720  142.7180 O   0  0  0  0  0  0  0  0  0  0  0  0
  187.7800  177.2770  142.7010 C   0  0  1  0  0  3  0  0  0  0  0  0
  188.2200  177.4180  144.1240 C   0  0  2  0  0  0  0  0  0  0  0  0
  189.6230  177.9750  144.0550 C   0  0  0  0  0  2  0  0  0  0  0  0
  185.7120  177.7690  143.9960 C   0  0  0  0  0  2  0  0  0  0  0  0
  184.8800  178.8130  144.7420 C   0  0  1  0  0  3  0  0  0  0  0  0
  183.6600  179.0440  144.0990 O   0  0  0  0  0  1  0  0  0  0  0  0
  184.5960  178.4020  146.5500 P   0  0  0  0  0  0  0  0  0  0  0  0
  184.8960  176.6940  146.4660 O   0  0  0  0  0  1  0  0  0  0  0  0
  186.1800  178.8270  147.1220 O   0  0  0  0  0  1  0  0  0  0  0  0
  195.7960  175.3770  141.6930 C   0  0  0  0  0  2  0  0  0  0  0  0
  195.0360  175.6950  140.4150 C   0  0  0  0  0  2  0  0  0  0  0  0
  194.4630  174.4240  139.8000 C   0  0  0  0  0  2  0  0  0  0  0  0
  193.7540  174.6760  138.4670 C   0  0  1  0  0  3  0  0  0  0  0  0
  194.5970  174.1890  137.2770 C   0  0  2  0  0  3  0  0  0  0  0  0
  195.3870  172.9330  137.6440 C   0  0  0  0  0  3  0  0  0  0  0  0
  194.9280  171.8490  136.8970 O   0  0  0  0  0  1  0  0  0  0  0  0
  196.7470  173.1170  137.3880 O   0  0  0  0  0  1  0  0  0  0  0  0
  195.5070  175.2890  136.7280 C   0  0  0  0  0  2  0  0  0  0  0  0
  194.9780  175.8040  135.5460 O   0  0  0  0  0  1  0  0  0  0  0  0
  192.3050  174.1580  138.4450 C   0  0  0  0  0  2  0  0  0  0  0  0
  191.9410  173.1760  139.5760 C   0  0  2  0  0  3  0  0  0  0  0  0
  191.7460  171.7210  139.1620 C   0  0  2  0  0  3  0  0  0  0  0  0
  191.6930  171.5640  137.7740 O   0  0  0  0  0  1  0  0  0  0  0  0
  190.3430  171.9150  139.6970 C   0  0  0  0  0  2  0  0  0  0  0  0
  190.5650  173.3170  140.0370 N   0  0  0  0  0  0  0  0  0  0  0  0
  189.9630  174.5870  141.8910 O   0  0  0  0  0  1  0  0  0  0  0  0
  190.5930  173.4100  141.4870 C   0  0  0  0  0  2  0  0  0  0  0  0
  1  7  1  0  0  0  0
  2 10  1  6  0  0  0
  2  5  1  0  0  0  0
  2  7  1  0  0  0  0
  3  2  1  0  0  0  0
  3  5  1  0  0  0  0
  3 11  1  1  0  0  0
  4 32  1  6  0  0  0
  4  6  1  0  0  0  0
  4 10  1  0  0  0  0
  5  9  1  6  0  0  0
  6  3  1  0  0  0  0
  8  1  1  0  0  0  0
  8 14  1  1  0  0  0
  9  8  1  0  0  0  0
 11 12  1  0  0  0  0
 14 13  2  0  0  0  0
 15 17  2  0  0  0  0
 17 14  1  0  0  0  0
 17 16  2  0  0  0  0
 18 17  1  0  0  0  0
 19 18  1  0  0  0  0
 20 26  1  1  0  0  0
 20 24  1  0  0  0  0
 21 22  1  0  0  0  0
 22 25  1  0  0  0  0
 23 21  1  6  0  0  0
 23 20  1  0  0  0  0
 23 24  1  0  0  0  0
 24 19  1  1  0  0  0
 25 24  1  0  0  0  0
 26 27  1  0  0  0  0
 27 28  1  6  0  0  0
 27 29  1  0  0  0  0
 29 31  1  0  0  0  0
 30 29  1  0  0  0  0
 33 32  1  0  0  0  0
 34 33  1  0  0  0  0
 35 42  1  1  0  0  0
 35 34  1  0  0  0  0
 36 40  1  1  0  0  0
 36 37  1  0  0  0  0
 36 35  1  0  0  0  0
 38 37  1  0  0  0  0
 39 37  1  0  0  0  0
 41 40  1  0  0  0  0
 43 42  1  6  0  0  0
 43 47  1  0  0  0  0
 44 45  1  6  0  0  0
 44 43  1  0  0  0  0
 44 46  1  0  0  0  0
 46 47  1  0  0  0  0
 47 49  1  0  0  0  0
 49 48  1  0  0  0  0
M  END
>  <MODEL>
7

>  <REMARK>
 VINA RESULT:      -6.1      3.092      6.081
  Name = 
  19 active torsions:
  status: ('A' for Active; 'I' for Inactive)
    1  A    between atoms: C_3  and  C_43
    2  A    between atoms: C_4  and  C_8
    3  A    between atoms: P_5  and  C_25
    4  A    between atoms: C_6  and  C_21
    5  A    between atoms: C_9  and  C_27
    6  A    between atoms: C_14  and  C_43
    7  A    between atoms: C_17  and  C_30
    8  A    between atoms: C_17  and  C_39
    9  A    between atoms: C_17  and  C_43
   10  A    between atoms: N_20  and  C_33
   11  A    between atoms: N_20  and  S_45
   12  A    between atoms: C_21  and  C_25
   13  A    between atoms: C_23  and  C_27
   14  A    between atoms: C_23  and  C_30
   15  A    between atoms: C_24  and  C_39
   16  A    between atoms: C_28  and  C_40
   17  A    between atoms: C_33  and  C_46
   18  A    between atoms: C_40  and  S_45
   19  A    between atoms: C_41  and  N_47
                            x       y       z     vdW  Elec       q    Type
                         _______ _______ _______ _____ _____    ______ ____

>  <TORSDO>
F 19

$$$$
=
 OpenBabel11062418183D

 49 54  0  0  1  0  0  0  0  0999 V2000
  197.0300  173.2070  146.2030 C   0  0  0  0  0  2  0  0  0  0  0  0
  195.3200  174.5030  144.9260 C   0  0  1  0  0  0  0  0  0  0  0  0
  194.2920  174.3960  143.8260 C   0  0  1  0  0  0  0  0  0  0  0  0
  193.0750  174.8080  145.8970 C   0  0  1  0  0  3  0  0  0  0  0  0
  194.9730  173.1340  144.2540 C   0  0  2  0  0  3  0  0  0  0  0  0
  192.9240  174.7420  144.3900 C   0  0  0  0  0  2  0  0  0  0  0  0
  196.8160  174.2740  145.0950 C   0  0  0  0  0  2  0  0  0  0  0  0
  196.1360  171.9380  146.0510 C   0  0  1  0  0  3  0  0  0  0  0  0
  194.7400  172.2150  145.4430 C   0  0  0  0  0  2  0  0  0  0  0  0
  194.5630  174.9290  146.1940 C   0  0  0  0  0  2  0  0  0  0  0  0
  194.7460  175.0180  142.5200 C   0  0  0  0  0  2  0  0  0  0  0  0
  194.7580  176.4090  142.6380 O   0  0  0  0  0  1  0  0  0  0  0  0
  197.7380  171.0160  144.6020 O   0  0  0  0  0  0  0  0  0  0  0  0
  196.8110  170.7810  145.3600 C   0  0  0  0  0  0  0  0  0  0  0  0
  197.4510  168.2840  146.1100 O   0  0  0  0  0  0  0  0  0  0  0  0
  195.1660  169.0550  146.5640 O   0  0  0  0  0  0  0  0  0  0  0  0
  196.3050  169.1040  145.5880 S   0  0  0  0  0  0  0  0  0  0  0  0
  195.7700  168.4510  144.0750 N   0  0  0  0  0  2  0  0  0  0  0  0
  194.5050  169.0880  143.7400 C   0  0  0  0  0  2  0  0  0  0  0  0
  193.5240  170.7080  141.8540 C   0  0  2  0  0  3  0  0  0  0  0  0
  194.5360  169.2220  140.1420 C   0  0  0  0  0  2  0  0  0  0  0  0
  195.8960  169.2280  140.4940 O   0  0  0  0  0  0  0  0  0  0  0  0
  193.6970  169.2680  141.3970 C   0  0  1  0  0  3  0  0  0  0  0  0
  194.6360  169.8290  142.4170 C   0  0  2  0  0  0  0  0  0  0  0  0
  195.9810  169.8830  141.7330 C   0  0  0  0  0  2  0  0  0  0  0  0
  192.3260  170.8050  142.7950 C   0  0  0  0  0  2  0  0  0  0  0  0
  190.9930  170.8340  142.0470 C   0  0  1  0  0  3  0  0  0  0  0  0
  189.9480  171.2310  142.8860 O   0  0  0  0  0  1  0  0  0  0  0  0
  191.0200  171.8870  140.4950 P   0  0  0  0  0  0  0  0  0  0  0  0
  190.9870  170.6060  139.3250 O   0  0  0  0  0  1  0  0  0  0  0  0
  189.3180  172.2250  140.4290 O   0  0  0  0  0  1  0  0  0  0  0  0
  192.2920  175.9790  146.4730 C   0  0  0  0  0  2  0  0  0  0  0  0
  190.7950  175.7230  146.3890 C   0  0  0  0  0  2  0  0  0  0  0  0
  190.0210  177.0340  146.4560 C   0  0  0  0  0  2  0  0  0  0  0  0
  189.1130  177.2510  145.2440 C   0  0  1  0  0  3  0  0  0  0  0  0
  189.6760  176.5660  143.9870 C   0  0  2  0  0  3  0  0  0  0  0  0
  190.2650  177.5940  143.0210 C   0  0  0  0  0  3  0  0  0  0  0  0
  189.2600  178.0970  142.1950 O   0  0  0  0  0  1  0  0  0  0  0  0
  190.8450  178.6510  143.7240 O   0  0  0  0  0  1  0  0  0  0  0  0
  188.6380  175.6760  143.3020 C   0  0  0  0  0  2  0  0  0  0  0  0
  189.2730  174.6740  142.5710 O   0  0  0  0  0  1  0  0  0  0  0  0
  187.6390  176.9070  145.5220 C   0  0  0  0  0  2  0  0  0  0  0  0
  186.7420  178.1090  145.8810 C   0  0  2  0  0  3  0  0  0  0  0  0
  186.1510  178.1060  147.2870 C   0  0  2  0  0  3  0  0  0  0  0  0
  186.3300  176.8820  147.9380 O   0  0  0  0  0  1  0  0  0  0  0  0
  184.8210  178.0980  146.5640 C   0  0  0  0  0  2  0  0  0  0  0  0
  185.4330  178.0570  145.2400 N   0  0  0  0  0  0  0  0  0  0  0  0
  184.0270  179.2940  143.8600 O   0  0  0  0  0  1  0  0  0  0  0  0
  185.1980  179.3480  144.6150 C   0  0  0  0  0  2  0  0  0  0  0  0
  2  7  1  6  0  0  0
  2 10  1  0  0  0  0
  3 11  1  6  0  0  0
  3  5  1  0  0  0  0
  3  6  1  0  0  0  0
  3  2  1  0  0  0  0
  4 10  1  0  0  0  0
  4 32  1  6  0  0  0
  5  2  1  0  0  0  0
  5  9  1  1  0  0  0
  6  4  1  0  0  0  0
  7  1  1  0  0  0  0
  8 14  1  6  0  0  0
  8  1  1  0  0  0  0
  9  8  1  0  0  0  0
 11 12  1  0  0  0  0
 13 14  2  0  0  0  0
 14 17  1  0  0  0  0
 17 15  2  0  0  0  0
 17 16  2  0  0  0  0
 18 17  1  0  0  0  0
 19 18  1  0  0  0  0
 20 24  1  0  0  0  0
 20 26  1  1  0  0  0
 21 22  1  0  0  0  0
 22 25  1  0  0  0  0
 23 21  1  6  0  0  0
 23 20  1  0  0  0  0
 23 24  1  0  0  0  0
 24 19  1  1  0  0  0
 25 24  1  0  0  0  0
 27 26  1  0  0  0  0
 27 28  1  1  0  0  0
 29 27  1  0  0  0  0
 30 29  1  0  0  0  0
 31 29  1  0  0  0  0
 33 34  1  0  0  0  0
 33 32  1  0  0  0  0
 35 42  1  1  0  0  0
 35 34  1  0  0  0  0
 36 40  1  6  0  0  0
 36 35  1  0  0  0  0
 37 39  1  0  0  0  0
 37 36  1  0  0  0  0
 38 37  1  0  0  0  0
 41 40  1  0  0  0  0
 43 42  1  1  0  0  0
 43 44  1  0  0  0  0
 44 45  1  1  0  0  0
 46 44  1  0  0  0  0
 47 43  1  0  0  0  0
 47 46  1  0  0  0  0
 48 49  1  0  0  0  0
 49 47  1  0  0  0  0
M  END
>  <MODEL>
8

>  <REMARK>
 VINA RESULT:      -6.1      3.722     10.335
  Name = 
  19 active torsions:
  status: ('A' for Active; 'I' for Inactive)
    1  A    between atoms: C_3  and  C_43
    2  A    between atoms: C_4  and  C_8
    3  A    between atoms: P_5  and  C_25
    4  A    between atoms: C_6  and  C_21
    5  A    between atoms: C_9  and  C_27
    6  A    between atoms: C_14  and  C_43
    7  A    between atoms: C_17  and  C_30
    8  A    between atoms: C_17  and  C_39
    9  A    between atoms: C_17  and  C_43
   10  A    between atoms: N_20  and  C_33
   11  A    between atoms: N_20  and  S_45
   12  A    between atoms: C_21  and  C_25
   13  A    between atoms: C_23  and  C_27
   14  A    between atoms: C_23  and  C_30
   15  A    between atoms: C_24  and  C_39
   16  A    between atoms: C_28  and  C_40
   17  A    between atoms: C_33  and  C_46
   18  A    between atoms: C_40  and  S_45
   19  A    between atoms: C_41  and  N_47
                            x       y       z     vdW  Elec       q    Type
                         _______ _______ _______ _____ _____    ______ ____

>  <TORSDO>
F 19

$$$$
=
 OpenBabel11062418183D

 49 54  0  0  1  0  0  0  0  0999 V2000
  193.4210  176.0090  143.2010 C   0  0  0  0  0  2  0  0  0  0  0  0
  191.2510  175.2340  144.1640 C   0  0  1  0  0  0  0  0  0  0  0  0
  190.6020  174.1140  144.9400 C   0  0  1  0  0  0  0  0  0  0  0  0
  190.5390  176.0930  146.3610 C   0  0  1  0  0  3  0  0  0  0  0  0
  192.0860  174.0550  144.7630 C   0  0  2  0  0  3  0  0  0  0  0  0
  190.0190  174.6760  146.2270 C   0  0  0  0  0  2  0  0  0  0  0  0
  192.0320  175.3990  142.8670 C   0  0  0  0  0  2  0  0  0  0  0  0
  194.1590  175.3090  144.3840 C   0  0  1  0  0  3  0  0  0  0  0  0
  193.2190  174.7670  145.4870 C   0  0  0  0  0  2  0  0  0  0  0  0
  191.0570  176.5130  144.9940 C   0  0  0  0  0  2  0  0  0  0  0  0
  189.7650  173.1930  144.0750 C   0  0  0  0  0  2  0  0  0  0  0  0
  190.5920  172.2910  143.4040 O   0  0  0  0  0  1  0  0  0  0  0  0
  195.2910  174.0310  142.7710 O   0  0  0  0  0  0  0  0  0  0  0  0
  195.1610  174.2650  143.9610 C   0  0  0  0  0  0  0  0  0  0  0  0
  197.4140  172.8960  144.4670 O   0  0  0  0  0  0  0  0  0  0  0  0
  196.4640  174.2320  146.2930 O   0  0  0  0  0  0  0  0  0  0  0  0
  196.1400  173.3560  145.1170 S   0  0  0  0  0  0  0  0  0  0  0  0
  195.2460  171.9820  145.6760 N   0  0  0  0  0  2  0  0  0  0  0  0
  194.7680  171.2590  144.5060 C   0  0  0  0  0  2  0  0  0  0  0  0
  194.0120  168.7020  144.3220 C   0  0  2  0  0  3  0  0  0  0  0  0
  195.1360  168.2790  146.4950 C   0  0  0  0  0  2  0  0  0  0  0  0
  196.4560  168.6860  146.2420 O   0  0  0  0  0  0  0  0  0  0  0  0
  194.1850  169.1890  145.7520 C   0  0  1  0  0  3  0  0  0  0  0  0
  195.0410  169.7710  144.6730 C   0  0  2  0  0  0  0  0  0  0  0  0
  196.4460  169.3110  144.9850 C   0  0  0  0  0  2  0  0  0  0  0  0
  192.7350  169.2950  143.7320 C   0  0  0  0  0  2  0  0  0  0  0  0
  192.4290  168.7570  142.3330 C   0  0  1  0  0  3  0  0  0  0  0  0
  191.0770  168.9110  142.0150 O   0  0  0  0  0  1  0  0  0  0  0  0
  193.5050  169.4980  140.9870 P   0  0  0  0  0  0  0  0  0  0  0  0
  194.5980  168.1660  140.7810 O   0  0  0  0  0  1  0  0  0  0  0  0
  192.4830  169.0920  139.6420 O   0  0  0  0  0  1  0  0  0  0  0  0
  189.4470  177.0290  146.8580 C   0  0  0  0  0  2  0  0  0  0  0  0
  188.0720  176.5190  146.4570 C   0  0  0  0  0  2  0  0  0  0  0  0
  187.4860  177.3740  145.3400 C   0  0  0  0  0  2  0  0  0  0  0  0
  186.0360  177.0120  145.0130 C   0  0  1  0  0  3  0  0  0  0  0  0
  185.0510  178.0390  145.5960 C   0  0  2  0  0  3  0  0  0  0  0  0
  184.4770  178.9320  144.4960 C   0  0  0  0  0  3  0  0  0  0  0  0
  183.1680  179.2930  144.8140 O   0  0  0  0  0  1  0  0  0  0  0  0
  185.2450  180.0890  144.3540 O   0  0  0  0  0  1  0  0  0  0  0  0
  185.6780  178.8610  146.7230 C   0  0  0  0  0  2  0  0  0  0  0  0
  185.1820  178.4420  147.9560 O   0  0  0  0  0  1  0  0  0  0  0  0
  185.8060  176.7210  143.5190 C   0  0  0  0  0  2  0  0  0  0  0  0
  186.9930  177.0560  142.5950 C   0  0  2  0  0  3  0  0  0  0  0  0
  186.7400  178.1330  141.5450 C   0  0  2  0  0  3  0  0  0  0  0  0
  185.3870  178.4670  141.4390 O   0  0  0  0  0  1  0  0  0  0  0  0
  187.0620  177.0310  140.5570 C   0  0  0  0  0  2  0  0  0  0  0  0
  187.2510  176.0250  141.5970 N   0  0  0  0  0  0  0  0  0  0  0  0
  188.9140  174.5410  140.9280 O   0  0  0  0  0  1  0  0  0  0  0  0
  188.6710  175.7140  141.6430 C   0  0  0  0  0  2  0  0  0  0  0  0
  1  8  1  0  0  0  0
  2  7  1  6  0  0  0
  2  5  1  0  0  0  0
  2  3  1  0  0  0  0
  2 10  1  0  0  0  0
  3 11  1  6  0  0  0
  3  6  1  0  0  0  0
  4 32  1  6  0  0  0
  5  3  1  0  0  0  0
  5  9  1  1  0  0  0
  6  4  1  0  0  0  0
  7  1  1  0  0  0  0
  8 14  1  6  0  0  0
  8  9  1  0  0  0  0
 10  4  1  0  0  0  0
 12 11  1  0  0  0  0
 13 14  2  0  0  0  0
 14 17  1  0  0  0  0
 15 17  2  0  0  0  0
 17 18  1  0  0  0  0
 17 16  2  0  0  0  0
 19 18  1  0  0  0  0
 20 26  1  6  0  0  0
 20 24  1  0  0  0  0
 20 23  1  0  0  0  0
 22 21  1  0  0  0  0
 23 21  1  1  0  0  0
 24 19  1  6  0  0  0
 24 25  1  0  0  0  0
 24 23  1  0  0  0  0
 25 22  1  0  0  0  0
 27 28  1  6  0  0  0
 27 26  1  0  0  0  0
 29 27  1  0  0  0  0
 30 29  1  0  0  0  0
 31 29  1  0  0  0  0
 33 32  1  0  0  0  0
 34 33  1  0  0  0  0
 35 42  1  6  0  0  0
 35 34  1  0  0  0  0
 35 36  1  0  0  0  0
 36 40  1  1  0  0  0
 37 38  1  0  0  0  0
 37 36  1  0  0  0  0
 39 37  1  0  0  0  0
 40 41  1  0  0  0  0
 43 42  1  6  0  0  0
 44 45  1  6  0  0  0
 44 43  1  0  0  0  0
 46 44  1  0  0  0  0
 46 47  1  0  0  0  0
 47 49  1  0  0  0  0
 47 43  1  0  0  0  0
 48 49  1  0  0  0  0
M  END
>  <MODEL>
9

>  <REMARK>
 VINA RESULT:      -6.1      3.794     10.594
  Name = 
  19 active torsions:
  status: ('A' for Active; 'I' for Inactive)
    1  A    between atoms: C_3  and  C_43
    2  A    between atoms: C_4  and  C_8
    3  A    between atoms: P_5  and  C_25
    4  A    between atoms: C_6  and  C_21
    5  A    between atoms: C_9  and  C_27
    6  A    between atoms: C_14  and  C_43
    7  A    between atoms: C_17  and  C_30
    8  A    between atoms: C_17  and  C_39
    9  A    between atoms: C_17  and  C_43
   10  A    between atoms: N_20  and  C_33
   11  A    between atoms: N_20  and  S_45
   12  A    between atoms: C_21  and  C_25
   13  A    between atoms: C_23  and  C_27
   14  A    between atoms: C_23  and  C_30
   15  A    between atoms: C_24  and  C_39
   16  A    between atoms: C_28  and  C_40
   17  A    between atoms: C_33  and  C_46
   18  A    between atoms: C_40  and  S_45
   19  A    between atoms: C_41  and  N_47
                            x       y       z     vdW  Elec       q    Type
                         _______ _______ _______ _____ _____    ______ ____

>  <TORSDO>
F 19

$$$$
