=
 OpenBabel11062420483D

 45 51  0  0  1  0  0  0  0  0999 V2000
  191.1730  172.9130  140.5060 C   0  0  0  0  0  2  0  0  0  0  0  0
  193.3440  172.4180  141.4960 C   0  0  0  0  0  3  0  0  0  0  0  0
  194.3620  174.6840  139.7640 N   0  0  0  0  0  0  0  0  0  0  0  0
  195.4450  173.7360  139.7320 C   0  0  0  0  0  0  0  0  0  0  0  0
  196.3510  172.3600  143.7220 N   0  0  0  0  0  2  0  0  0  0  0  0
  189.9050  174.4860  141.8810 C   0  0  2  0  0  3  0  0  0  0  0  0
  192.0510  175.8630  144.6600 C   0  0  2  0  0  3  0  0  0  0  0  0
  195.2010  171.8160  143.0040 C   0  0  0  0  0  2  0  0  0  0  0  0
  189.7320  174.8240  143.2270 O   0  0  0  0  0  0  0  0  0  0  0  0
  197.9410  172.5060  139.9370 N   0  0  0  0  0  0  0  0  0  0  0  0
  192.8830  176.7890  145.5650 C   0  0  0  0  0  2  0  0  0  0  0  0
  197.3690  173.9000  145.1300 O   0  0  0  0  0  0  0  0  0  0  0  0
  187.8090  172.5510  142.3770 O   0  0  0  0  0  0  0  0  0  0  0  0
  192.8660  174.7650  143.9670 C   0  0  0  0  0  2  0  0  0  0  0  0
  195.6390  172.8020  140.6900 C   0  0  0  0  0  0  0  0  0  0  0  0
  196.3770  173.6210  144.4050 C   0  0  0  0  0  0  0  0  0  0  0  0
  191.8540  177.5630  142.8750 C   0  0  0  0  0  2  0  0  0  0  0  0
  195.3110  174.6550  144.1910 C   0  0  1  0  0  3  0  0  0  0  0  0
  188.3690  172.9940  139.9310 O   0  0  0  0  0  0  0  0  0  0  0  0
  196.4170  173.8240  138.5830 C   0  0  0  0  0  2  0  0  0  0  0  0
  192.6140  173.2330  140.7340 C   0  0  0  0  0  0  0  0  0  0  0  0
  188.6060  173.3360  141.3770 S   0  0  0  0  0  0  0  0  0  0  0  0
  191.2580  176.6420  143.6370 C   0  0  0  0  0  0  0  0  0  0  0  0
  194.3720  176.7060  145.2520 C   0  0  0  0  0  2  0  0  0  0  0  0
  194.7410  172.7470  141.8890 C   0  0  1  0  0  3  0  0  0  0  0  0
  194.0060  174.2140  144.8290 C   0  0  1  0  0  3  0  0  0  0  0  0
  190.3550  173.1060  141.7750 C   0  0  1  0  0  3  0  0  0  0  0  0
  196.7990  171.8440  140.5370 C   0  0  0  0  0  2  0  0  0  0  0  0
  193.1400  174.4970  140.1800 C   0  0  0  0  0  3  0  0  0  0  0  0
  189.8620  176.2200  143.2660 C   0  0  2  0  0  3  0  0  0  0  0  0
  194.8740  175.2850  145.5010 C   0  0  1  0  0  3  0  0  0  0  0  0
  197.7940  173.4130  139.0310 C   0  0  0  0  0  3  0  0  0  0  0  0
  188.7840  176.8800  144.1360 C   0  0  1  0  0  3  0  0  0  0  0  0
  186.3250  179.0440  144.4440 C   0  0  0  0  0  2  0  0  0  0  0  0
  186.3140  176.1900  143.7010 C   0  0  0  0  0  2  0  0  0  0  0  0
  185.1170  178.1480  144.7090 C   0  0  1  0  0  3  0  0  0  0  0  0
  187.0860  178.5670  143.2070 C   0  0  0  0  0  2  0  0  0  0  0  0
  187.4960  177.0950  143.3220 C   0  0  1  0  0  3  0  0  0  0  0  0
  185.5670  176.7050  144.9290 C   0  0  0  0  0  2  0  0  0  0  0  0
  184.3640  178.6350  145.9010 C   0  0  0  0  0  0  0  0  0  0  0  0
  184.9650  178.6230  147.1950 N   0  0  0  0  0  1  0  0  0  0  0  0
  183.1810  179.0410  145.7680 O   0  0  0  0  0  0  0  0  0  0  0  0
  188.5520  176.1470  145.4580 C   0  0  0  0  0  2  0  0  0  0  0  0
  189.2190  177.1020  146.8530 S   0  0  0  0  0  0  0  0  0  0  0  0
  190.0300  175.6570  147.5910 C   0  0  0  0  0  1  0  0  0  0  0  0
  1 21  1  0  0  0  0
  3 29  2  0  0  0  0
  4  3  1  0  0  0  0
  4 15  2  0  0  0  0
  5 16  1  0  0  0  0
  6  9  1  1  0  0  0
  7 14  1  6  0  0  0
  7 11  1  0  0  0  0
  8  5  1  0  0  0  0
  9 30  1  0  0  0  0
 10 28  1  0  0  0  0
 15 25  1  0  0  0  0
 16 12  2  0  0  0  0
 17 23  2  0  0  0  0
 18 16  1  1  0  0  0
 18 26  1  0  0  0  0
 18 31  1  0  0  0  0
 19 22  2  0  0  0  0
 20 32  1  0  0  0  0
 20  4  1  0  0  0  0
 21  2  2  0  0  0  0
 22 27  1  0  0  0  0
 22  6  1  0  0  0  0
 22 13  2  0  0  0  0
 23  7  1  0  0  0  0
 24 11  1  0  0  0  0
 25  2  1  6  0  0  0
 25  8  1  0  0  0  0
 26 14  1  6  0  0  0
 26 31  1  0  0  0  0
 27  1  1  6  0  0  0
 27  6  1  0  0  0  0
 28 15  1  0  0  0  0
 29 21  1  0  0  0  0
 30 23  1  0  0  0  0
 30 33  1  1  0  0  0
 31 24  1  6  0  0  0
 32 10  2  0  0  0  0
 33 43  1  1  0  0  0
 34 36  1  0  0  0  0
 35 39  1  0  0  0  0
 36 39  1  0  0  0  0
 36 40  1  1  0  0  0
 37 38  1  0  0  0  0
 37 34  1  0  0  0  0
 38 35  1  0  0  0  0
 38 33  1  1  0  0  0
 40 41  1  0  0  0  0
 42 40  2  0  0  0  0
 43 44  1  0  0  0  0
 44 45  1  0  0  0  0
M  END
>  <MODEL>
1

>  <REMARK>
 VINA RESULT:      -8.2      0.000      0.000
  Name = 
  5 active torsions:
  status: ('A' for Active; 'I' for Inactive)
    1  A    between atoms: C_10  and  C_12
    2  A    between atoms: C_20  and  C_37
    3  A    between atoms: C_20  and  C_39
    4  A    between atoms: C_20  and  C_41
    5  A    between atoms: S_28  and  C_39
                            x       y       z     vdW  Elec       q    Type
                         _______ _______ _______ _____ _____    ______ ____

>  <TORSDO>
F 5

$$$$
=
 OpenBabel11062420483D

 45 51  0  0  1  0  0  0  0  0999 V2000
  194.7890  174.5180  145.4750 C   0  0  0  0  0  2  0  0  0  0  0  0
  195.4810  172.8960  143.7940 C   0  0  0  0  0  3  0  0  0  0  0  0
  194.6800  170.8150  145.8440 N   0  0  0  0  0  0  0  0  0  0  0  0
  195.8420  170.2340  145.2240 C   0  0  0  0  0  0  0  0  0  0  0  0
  195.5400  170.4940  140.9260 N   0  0  0  0  0  2  0  0  0  0  0  0
  192.4530  175.1720  145.1730 C   0  0  2  0  0  3  0  0  0  0  0  0
  190.7870  173.0130  142.5700 C   0  0  2  0  0  3  0  0  0  0  0  0
  195.9320  171.6660  141.7040 C   0  0  0  0  0  2  0  0  0  0  0  0
  191.5230  175.3550  144.1460 O   0  0  0  0  0  0  0  0  0  0  0  0
  197.6010  168.5290  143.8880 N   0  0  0  0  0  0  0  0  0  0  0  0
  189.8880  171.9890  141.8520 C   0  0  0  0  0  2  0  0  0  0  0  0
  193.9680  169.1090  139.9250 O   0  0  0  0  0  0  0  0  0  0  0  0
  193.1670  177.9300  144.6510 O   0  0  0  0  0  0  0  0  0  0  0  0
  192.2770  172.6520  142.5630 C   0  0  0  0  0  2  0  0  0  0  0  0
  196.2670  170.5700  143.9860 C   0  0  0  0  0  0  0  0  0  0  0  0
  194.1940  170.0270  140.7570 C   0  0  0  0  0  0  0  0  0  0  0  0
  190.0840  172.2550  144.8160 C   0  0  0  0  0  2  0  0  0  0  0  0
  193.0740  170.5270  141.6200 C   0  0  1  0  0  3  0  0  0  0  0  0
  194.0520  176.9350  146.8230 O   0  0  0  0  0  0  0  0  0  0  0  0
  196.5910  169.1790  145.9980 C   0  0  0  0  0  2  0  0  0  0  0  0
  194.8940  173.1170  144.9710 C   0  0  0  0  0  0  0  0  0  0  0  0
  193.2100  176.7590  145.5900 S   0  0  0  0  0  0  0  0  0  0  0  0
  190.3230  173.2720  143.9840 C   0  0  0  0  0  0  0  0  0  0  0  0
  190.5830  170.6450  141.6720 C   0  0  0  0  0  2  0  0  0  0  0  0
  195.4920  171.5500  143.1580 C   0  0  1  0  0  3  0  0  0  0  0  0
  192.7330  171.9650  141.2730 C   0  0  1  0  0  3  0  0  0  0  0  0
  193.8020  175.3320  144.6500 C   0  0  1  0  0  3  0  0  0  0  0  0
  197.5160  169.9080  143.4490 C   0  0  0  0  0  2  0  0  0  0  0  0
  194.2520  172.0450  145.7590 C   0  0  0  0  0  3  0  0  0  0  0  0
  190.3810  174.6580  144.5670 C   0  0  2  0  0  3  0  0  0  0  0  0
  191.8280  170.8200  140.8030 C   0  0  1  0  0  3  0  0  0  0  0  0
  197.1910  168.1680  145.0570 C   0  0  0  0  0  3  0  0  0  0  0  0
  189.0930  175.4600  144.3360 C   0  0  1  0  0  3  0  0  0  0  0  0
  186.6430  176.4020  146.3200 C   0  0  0  0  0  2  0  0  0  0  0  0
  188.6100  177.9770  144.7870 C   0  0  0  0  0  2  0  0  0  0  0  0
  186.3370  177.8170  145.8310 C   0  0  1  0  0  3  0  0  0  0  0  0
  188.1380  176.2380  146.5890 C   0  0  0  0  0  2  0  0  0  0  0  0
  188.9820  176.6010  145.3630 C   0  0  1  0  0  3  0  0  0  0  0  0
  187.1090  178.1110  144.5470 C   0  0  0  0  0  2  0  0  0  0  0  0
  184.8730  177.9780  145.5950 C   0  0  0  0  0  0  0  0  0  0  0  0
  184.3760  178.2740  144.2920 N   0  0  0  0  0  1  0  0  0  0  0  0
  184.0710  177.8710  146.5580 O   0  0  0  0  0  0  0  0  0  0  0  0
  188.9310  175.9280  142.8890 C   0  0  0  0  0  2  0  0  0  0  0  0
  187.4240  175.2320  142.1510 S   0  0  0  0  0  0  0  0  0  0  0  0
  187.0600  176.7420  141.2120 C   0  0  0  0  0  1  0  0  0  0  0  0
  2 21  2  0  0  0  0
  4  3  1  0  0  0  0
  4 20  1  0  0  0  0
  5  8  1  0  0  0  0
  6  9  1  6  0  0  0
  6 22  1  0  0  0  0
  7 11  1  1  0  0  0
  7 23  1  0  0  0  0
  9 30  1  0  0  0  0
 10 32  2  0  0  0  0
 12 16  2  0  0  0  0
 13 22  2  0  0  0  0
 14  7  1  0  0  0  0
 15  4  2  0  0  0  0
 16  5  1  0  0  0  0
 18 16  1  6  0  0  0
 21  1  1  0  0  0  0
 21 29  1  0  0  0  0
 22 19  2  0  0  0  0
 23 30  1  0  0  0  0
 23 17  2  0  0  0  0
 24 11  1  0  0  0  0
 25  8  1  6  0  0  0
 25  2  1  0  0  0  0
 25 15  1  0  0  0  0
 26 18  1  0  0  0  0
 26 14  1  1  0  0  0
 27  6  1  0  0  0  0
 27  1  1  1  0  0  0
 27 22  1  0  0  0  0
 28 10  1  0  0  0  0
 28 15  1  0  0  0  0
 29  3  2  0  0  0  0
 30 33  1  6  0  0  0
 31 26  1  0  0  0  0
 31 18  1  0  0  0  0
 31 24  1  1  0  0  0
 32 20  1  0  0  0  0
 33 43  1  6  0  0  0
 34 37  1  0  0  0  0
 35 38  1  0  0  0  0
 36 40  1  6  0  0  0
 36 34  1  0  0  0  0
 38 33  1  6  0  0  0
 38 37  1  0  0  0  0
 39 35  1  0  0  0  0
 39 36  1  0  0  0  0
 40 42  2  0  0  0  0
 41 40  1  0  0  0  0
 44 43  1  0  0  0  0
 45 44  1  0  0  0  0
M  END
>  <MODEL>
2

>  <REMARK>
 VINA RESULT:      -8.1      2.621      5.184
  Name = 
  5 active torsions:
  status: ('A' for Active; 'I' for Inactive)
    1  A    between atoms: C_10  and  C_12
    2  A    between atoms: C_20  and  C_37
    3  A    between atoms: C_20  and  C_39
    4  A    between atoms: C_20  and  C_41
    5  A    between atoms: S_28  and  C_39
                            x       y       z     vdW  Elec       q    Type
                         _______ _______ _______ _____ _____    ______ ____

>  <TORSDO>
F 5

$$$$
=
 OpenBabel11062420483D

 45 51  0  0  1  0  0  0  0  0999 V2000
  191.1700  173.0210  139.5530 C   0  0  0  0  0  2  0  0  0  0  0  0
  193.0560  172.1340  140.8150 C   0  0  0  0  0  3  0  0  0  0  0  0
  194.4080  174.7600  140.1430 N   0  0  0  0  0  0  0  0  0  0  0  0
  195.4860  173.8090  140.0730 C   0  0  0  0  0  0  0  0  0  0  0  0
  195.4540  171.2470  143.5480 N   0  0  0  0  0  2  0  0  0  0  0  0
  189.5820  174.1710  141.0110 C   0  0  2  0  0  3  0  0  0  0  0  0
  190.9840  174.5280  144.4940 C   0  0  2  0  0  3  0  0  0  0  0  0
  194.5170  171.0070  142.4530 C   0  0  0  0  0  2  0  0  0  0  0  0
  189.0900  174.0960  142.3180 O   0  0  0  0  0  0  0  0  0  0  0  0
  197.8890  172.4430  140.4620 N   0  0  0  0  0  0  0  0  0  0  0  0
  191.5620  175.0930  145.8050 C   0  0  0  0  0  2  0  0  0  0  0  0
  196.0800  172.2340  145.5530 O   0  0  0  0  0  0  0  0  0  0  0  0
  187.4680  172.2910  140.3950 O   0  0  0  0  0  0  0  0  0  0  0  0
  191.9620  173.6490  143.7060 C   0  0  0  0  0  2  0  0  0  0  0  0
  195.4680  172.6210  140.7170 C   0  0  0  0  0  0  0  0  0  0  0  0
  195.2930  172.2400  144.5690 C   0  0  0  0  0  0  0  0  0  0  0  0
  191.1800  176.6950  143.3190 C   0  0  0  0  0  2  0  0  0  0  0  0
  194.2870  173.3450  144.4420 C   0  0  1  0  0  3  0  0  0  0  0  0
  188.5790  173.4220  138.4000 O   0  0  0  0  0  0  0  0  0  0  0  0
  196.7000  174.1880  139.2630 C   0  0  0  0  0  2  0  0  0  0  0  0
  192.5100  173.1800  140.1930 C   0  0  0  0  0  0  0  0  0  0  0  0
  188.4620  173.2980  139.8950 S   0  0  0  0  0  0  0  0  0  0  0  0
  190.4400  175.6220  143.6040 C   0  0  0  0  0  0  0  0  0  0  0  0
  193.0830  175.0280  145.8340 C   0  0  0  0  0  2  0  0  0  0  0  0
  194.3140  172.2550  141.6010 C   0  0  1  0  0  3  0  0  0  0  0  0
  192.8770  172.8040  144.5960 C   0  0  1  0  0  3  0  0  0  0  0  0
  190.0720  172.8650  140.5950 C   0  0  1  0  0  3  0  0  0  0  0  0
  196.6510  171.6930  140.5510 C   0  0  0  0  0  2  0  0  0  0  0  0
  193.1260  174.5220  140.1890 C   0  0  0  0  0  3  0  0  0  0  0  0
  189.1790  175.4060  142.8110 C   0  0  2  0  0  3  0  0  0  0  0  0
  193.5410  173.5730  145.7450 C   0  0  1  0  0  3  0  0  0  0  0  0
  197.9410  173.5870  139.8680 C   0  0  0  0  0  3  0  0  0  0  0  0
  187.9140  175.8290  143.5680 C   0  0  1  0  0  3  0  0  0  0  0  0
  186.3650  176.7220  146.3310 C   0  0  0  0  0  2  0  0  0  0  0  0
  187.8470  178.3140  144.3390 C   0  0  0  0  0  2  0  0  0  0  0  0
  186.0480  178.1950  146.0800 C   0  0  1  0  0  3  0  0  0  0  0  0
  187.8420  176.4370  146.0620 C   0  0  0  0  0  2  0  0  0  0  0  0
  188.2590  176.8670  144.6520 C   0  0  1  0  0  3  0  0  0  0  0  0
  186.3710  178.5670  144.6350 C   0  0  0  0  0  2  0  0  0  0  0  0
  184.6110  178.4720  146.3700 C   0  0  0  0  0  0  0  0  0  0  0  0
  183.7580  179.0100  145.3610 N   0  0  0  0  0  1  0  0  0  0  0  0
  184.1520  178.2480  147.5190 O   0  0  0  0  0  0  0  0  0  0  0  0
  186.7820  176.2740  142.6410 C   0  0  0  0  0  2  0  0  0  0  0  0
  187.4460  177.0790  141.1520 S   0  0  0  0  0  0  0  0  0  0  0  0
  185.8830  177.9250  140.7850 C   0  0  0  0  0  1  0  0  0  0  0  0
  1 21  1  0  0  0  0
  3 29  2  0  0  0  0
  4  3  1  0  0  0  0
  4 15  2  0  0  0  0
  5 16  1  0  0  0  0
  6  9  1  1  0  0  0
  7 14  1  6  0  0  0
  7 11  1  0  0  0  0
  8  5  1  0  0  0  0
  9 30  1  0  0  0  0
 10 28  1  0  0  0  0
 11 24  1  0  0  0  0
 15 25  1  0  0  0  0
 16 12  2  0  0  0  0
 17 23  2  0  0  0  0
 18 16  1  1  0  0  0
 18 26  1  0  0  0  0
 18 31  1  0  0  0  0
 19 22  2  0  0  0  0
 20 32  1  0  0  0  0
 20  4  1  0  0  0  0
 21  2  2  0  0  0  0
 22 13  2  0  0  0  0
 22 27  1  0  0  0  0
 22  6  1  0  0  0  0
 23  7  1  0  0  0  0
 25  2  1  6  0  0  0
 25  8  1  0  0  0  0
 26 14  1  6  0  0  0
 26 31  1  0  0  0  0
 27  1  1  6  0  0  0
 27  6  1  0  0  0  0
 28 15  1  0  0  0  0
 29 21  1  0  0  0  0
 30 33  1  1  0  0  0
 30 23  1  0  0  0  0
 31 24  1  6  0  0  0
 32 10  2  0  0  0  0
 33 43  1  6  0  0  0
 35 39  1  0  0  0  0
 35 38  1  0  0  0  0
 36 34  1  0  0  0  0
 36 40  1  6  0  0  0
 37 34  1  0  0  0  0
 38 33  1  6  0  0  0
 38 37  1  0  0  0  0
 39 36  1  0  0  0  0
 40 42  2  0  0  0  0
 41 40  1  0  0  0  0
 44 43  1  0  0  0  0
 45 44  1  0  0  0  0
M  END
>  <MODEL>
3

>  <REMARK>
 VINA RESULT:      -8.0      1.577      2.237
  Name = 
  5 active torsions:
  status: ('A' for Active; 'I' for Inactive)
    1  A    between atoms: C_10  and  C_12
    2  A    between atoms: C_20  and  C_37
    3  A    between atoms: C_20  and  C_39
    4  A    between atoms: C_20  and  C_41
    5  A    between atoms: S_28  and  C_39
                            x       y       z     vdW  Elec       q    Type
                         _______ _______ _______ _____ _____    ______ ____

>  <TORSDO>
F 5

$$$$
=
 OpenBabel11062420483D

 45 51  0  0  1  0  0  0  0  0999 V2000
  191.4250  173.4000  140.2890 C   0  0  0  0  0  2  0  0  0  0  0  0
  193.4850  172.2210  140.8410 C   0  0  0  0  0  3  0  0  0  0  0  0
  194.8800  174.7010  139.8030 N   0  0  0  0  0  0  0  0  0  0  0  0
  195.7400  173.6330  139.3640 C   0  0  0  0  0  0  0  0  0  0  0  0
  196.5020  170.8910  142.6100 N   0  0  0  0  0  2  0  0  0  0  0  0
  190.5670  174.6430  142.2100 C   0  0  2  0  0  3  0  0  0  0  0  0
  193.0630  174.6220  145.0370 C   0  0  2  0  0  3  0  0  0  0  0  0
  195.2370  170.8310  141.8830 C   0  0  0  0  0  2  0  0  0  0  0  0
  190.5220  174.5500  143.6040 O   0  0  0  0  0  0  0  0  0  0  0  0
  197.9340  171.9690  138.9130 N   0  0  0  0  0  0  0  0  0  0  0  0
  194.1050  175.0340  146.0930 C   0  0  0  0  0  2  0  0  0  0  0  0
  197.8730  171.6750  144.3110 O   0  0  0  0  0  0  0  0  0  0  0  0
  188.1380  173.0700  142.2960 O   0  0  0  0  0  0  0  0  0  0  0  0
  193.6040  173.6800  143.9550 C   0  0  0  0  0  2  0  0  0  0  0  0
  195.7760  172.4200  139.9580 C   0  0  0  0  0  0  0  0  0  0  0  0
  196.8170  171.8330  143.6440 C   0  0  0  0  0  0  0  0  0  0  0  0
  193.1500  176.8160  143.9010 C   0  0  0  0  0  2  0  0  0  0  0  0
  195.9810  173.0570  143.8750 C   0  0  1  0  0  3  0  0  0  0  0  0
  188.6780  174.1760  140.0660 O   0  0  0  0  0  0  0  0  0  0  0  0
  196.6620  173.9120  138.2040 C   0  0  0  0  0  2  0  0  0  0  0  0
  192.9090  173.3590  140.4520 C   0  0  0  0  0  0  0  0  0  0  0  0
  189.0390  173.9790  141.5120 S   0  0  0  0  0  0  0  0  0  0  0  0
  192.4080  175.8230  144.3970 C   0  0  0  0  0  0  0  0  0  0  0  0
  195.5310  174.7860  145.6150 C   0  0  0  0  0  2  0  0  0  0  0  0
  194.9350  172.1430  141.1680 C   0  0  1  0  0  3  0  0  0  0  0  0
  194.6390  172.6800  144.4790 C   0  0  1  0  0  3  0  0  0  0  0  0
  190.7170  173.3150  141.6330 C   0  0  1  0  0  3  0  0  0  0  0  0
  196.7050  171.3690  139.3940 C   0  0  0  0  0  2  0  0  0  0  0  0
  193.6630  174.6160  140.2670 C   0  0  0  0  0  3  0  0  0  0  0  0
  190.9410  175.8080  144.0620 C   0  0  2  0  0  3  0  0  0  0  0  0
  195.7370  173.2950  145.3550 C   0  0  1  0  0  3  0  0  0  0  0  0
  197.9410  173.1330  138.3540 C   0  0  0  0  0  3  0  0  0  0  0  0
  190.0590  176.3340  145.2020 C   0  0  1  0  0  3  0  0  0  0  0  0
  187.1240  177.4510  144.2200 C   0  0  0  0  0  2  0  0  0  0  0  0
  189.8580  178.2560  143.4600 C   0  0  0  0  0  2  0  0  0  0  0  0
  187.4340  178.0590  142.8540 C   0  0  1  0  0  3  0  0  0  0  0  0
  188.0920  177.9820  145.2770 C   0  0  0  0  0  2  0  0  0  0  0  0
  189.5540  177.7510  144.8800 C   0  0  1  0  0  3  0  0  0  0  0  0
  188.8630  177.7190  142.4350 C   0  0  0  0  0  2  0  0  0  0  0  0
  186.4700  177.5570  141.8330 C   0  0  0  0  0  0  0  0  0  0  0  0
  186.8600  177.4300  140.4660 N   0  0  0  0  0  1  0  0  0  0  0  0
  185.2960  177.2620  142.1760 O   0  0  0  0  0  0  0  0  0  0  0  0
  188.9410  175.3640  145.5890 C   0  0  0  0  0  2  0  0  0  0  0  0
  189.2730  174.6090  147.2090 S   0  0  0  0  0  0  0  0  0  0  0  0
  190.5740  175.8060  147.6180 C   0  0  0  0  0  1  0  0  0  0  0  0
  1 21  1  0  0  0  0
  3 29  2  0  0  0  0
  4  3  1  0  0  0  0
  4 15  2  0  0  0  0
  5 16  1  0  0  0  0
  6  9  1  1  0  0  0
  7 14  1  6  0  0  0
  7 11  1  0  0  0  0
  8  5  1  0  0  0  0
  9 30  1  0  0  0  0
 10 28  1  0  0  0  0
 15 25  1  0  0  0  0
 16 12  2  0  0  0  0
 17 23  2  0  0  0  0
 18 16  1  1  0  0  0
 18 26  1  0  0  0  0
 18 31  1  0  0  0  0
 19 22  2  0  0  0  0
 20 32  1  0  0  0  0
 20  4  1  0  0  0  0
 21  2  2  0  0  0  0
 22 27  1  0  0  0  0
 22  6  1  0  0  0  0
 22 13  2  0  0  0  0
 23  7  1  0  0  0  0
 24 11  1  0  0  0  0
 25  2  1  6  0  0  0
 25  8  1  0  0  0  0
 26 14  1  6  0  0  0
 26 31  1  0  0  0  0
 27  1  1  6  0  0  0
 27  6  1  0  0  0  0
 28 15  1  0  0  0  0
 29 21  1  0  0  0  0
 30 23  1  0  0  0  0
 30 33  1  1  0  0  0
 31 24  1  6  0  0  0
 32 10  2  0  0  0  0
 33 43  1  6  0  0  0
 34 37  1  0  0  0  0
 35 38  1  0  0  0  0
 36 40  1  6  0  0  0
 36 34  1  0  0  0  0
 38 33  1  6  0  0  0
 38 37  1  0  0  0  0
 39 36  1  0  0  0  0
 39 35  1  0  0  0  0
 40 42  2  0  0  0  0
 41 40  1  0  0  0  0
 43 44  1  0  0  0  0
 44 45  1  0  0  0  0
M  END
>  <MODEL>
4

>  <REMARK>
 VINA RESULT:      -8.0      1.816      2.226
  Name = 
  5 active torsions:
  status: ('A' for Active; 'I' for Inactive)
    1  A    between atoms: C_10  and  C_12
    2  A    between atoms: C_20  and  C_37
    3  A    between atoms: C_20  and  C_39
    4  A    between atoms: C_20  and  C_41
    5  A    between atoms: S_28  and  C_39
                            x       y       z     vdW  Elec       q    Type
                         _______ _______ _______ _____ _____    ______ ____

>  <TORSDO>
F 5

$$$$
=
 OpenBabel11062420483D

 45 51  0  0  1  0  0  0  0  0999 V2000
  193.6600  174.8310  143.5370 C   0  0  0  0  0  2  0  0  0  0  0  0
  194.1520  173.7260  141.4210 C   0  0  0  0  0  3  0  0  0  0  0  0
  193.5850  171.1590  142.9250 N   0  0  0  0  0  0  0  0  0  0  0  0
  194.6680  170.7940  142.0490 C   0  0  0  0  0  0  0  0  0  0  0  0
  193.8760  172.1630  138.0330 N   0  0  0  0  0  2  0  0  0  0  0  0
  191.3070  175.4760  143.6800 C   0  0  2  0  0  3  0  0  0  0  0  0
  189.3480  174.0290  140.8000 C   0  0  2  0  0  3  0  0  0  0  0  0
  194.3580  173.1010  139.0440 C   0  0  0  0  0  2  0  0  0  0  0  0
  190.2660  175.8950  142.8470 O   0  0  0  0  0  0  0  0  0  0  0  0
  196.2580  169.5480  140.1240 N   0  0  0  0  0  0  0  0  0  0  0  0
  188.3710  173.2050  139.9420 C   0  0  0  0  0  2  0  0  0  0  0  0
  192.1970  171.0460  136.8830 O   0  0  0  0  0  0  0  0  0  0  0  0
  191.9630  178.2920  143.8280 O   0  0  0  0  0  0  0  0  0  0  0  0
  190.8270  173.7240  140.5330 C   0  0  0  0  0  2  0  0  0  0  0  0
  194.9490  171.4540  140.9040 C   0  0  0  0  0  0  0  0  0  0  0  0
  192.5190  171.7200  137.8980 C   0  0  0  0  0  0  0  0  0  0  0  0
  188.9050  172.6900  142.8310 C   0  0  0  0  0  2  0  0  0  0  0  0
  191.5050  171.9440  138.9810 C   0  0  1  0  0  3  0  0  0  0  0  0
  193.0880  176.7870  145.5480 O   0  0  0  0  0  0  0  0  0  0  0  0
  195.4980  169.5940  142.4290 C   0  0  0  0  0  2  0  0  0  0  0  0
  193.7030  173.6140  142.6720 C   0  0  0  0  0  0  0  0  0  0  0  0
  192.1100  176.9180  144.4130 S   0  0  0  0  0  0  0  0  0  0  0  0
  189.0500  173.8950  142.2750 C   0  0  0  0  0  0  0  0  0  0  0  0
  189.0380  171.9760  139.3380 C   0  0  0  0  0  2  0  0  0  0  0  0
  194.0860  172.5960  140.4560 C   0  0  1  0  0  3  0  0  0  0  0  0
  191.1310  173.4130  139.0650 C   0  0  1  0  0  3  0  0  0  0  0  0
  192.5870  175.8050  143.0700 C   0  0  1  0  0  3  0  0  0  0  0  0
  196.1260  170.9920  140.0760 C   0  0  0  0  0  2  0  0  0  0  0  0
  193.1530  172.3550  143.2160 C   0  0  0  0  0  3  0  0  0  0  0  0
  189.1770  175.0800  143.1930 C   0  0  2  0  0  3  0  0  0  0  0  0
  190.1750  172.4070  138.4130 C   0  0  1  0  0  3  0  0  0  0  0  0
  195.9840  168.8820  141.1950 C   0  0  0  0  0  3  0  0  0  0  0  0
  187.8740  175.8790  143.3270 C   0  0  1  0  0  3  0  0  0  0  0  0
  187.5460  177.0750  146.3740 C   0  0  0  0  0  2  0  0  0  0  0  0
  187.0360  178.3070  143.7430 C   0  0  0  0  0  2  0  0  0  0  0  0
  186.5150  178.1880  146.1920 C   0  0  1  0  0  3  0  0  0  0  0  0
  188.6800  177.2230  145.3600 C   0  0  0  0  0  2  0  0  0  0  0  0
  188.1570  177.2700  143.9210 C   0  0  1  0  0  3  0  0  0  0  0  0
  185.9300  178.1410  144.7820 C   0  0  0  0  0  2  0  0  0  0  0  0
  185.4250  178.0530  147.2010 C   0  0  0  0  0  0  0  0  0  0  0  0
  184.0660  178.2910  146.8380 N   0  0  0  0  0  1  0  0  0  0  0  0
  185.7080  177.7470  148.3880 O   0  0  0  0  0  0  0  0  0  0  0  0
  187.0660  175.9260  142.0290 C   0  0  0  0  0  2  0  0  0  0  0  0
  187.6280  177.2900  140.9670 S   0  0  0  0  0  0  0  0  0  0  0  0
  185.9850  177.5410  140.2400 C   0  0  0  0  0  1  0  0  0  0  0  0
  2 21  2  0  0  0  0
  3 29  2  0  0  0  0
  4 20  1  0  0  0  0
  4  3  1  0  0  0  0
  5  8  1  0  0  0  0
  6  9  1  6  0  0  0
  6 22  1  0  0  0  0
  7 11  1  6  0  0  0
  7 23  1  0  0  0  0
  9 30  1  0  0  0  0
 10 32  2  0  0  0  0
 12 16  2  0  0  0  0
 13 22  2  0  0  0  0
 14  7  1  0  0  0  0
 15  4  2  0  0  0  0
 16  5  1  0  0  0  0
 18 16  1  6  0  0  0
 18 26  1  0  0  0  0
 21 29  1  0  0  0  0
 21  1  1  0  0  0  0
 22 19  2  0  0  0  0
 23 17  2  0  0  0  0
 23 30  1  0  0  0  0
 24 11  1  0  0  0  0
 25  8  1  6  0  0  0
 25 15  1  0  0  0  0
 25  2  1  0  0  0  0
 26 14  1  1  0  0  0
 27  1  1  1  0  0  0
 27  6  1  0  0  0  0
 27 22  1  0  0  0  0
 28 10  1  0  0  0  0
 28 15  1  0  0  0  0
 30 33  1  6  0  0  0
 31 18  1  0  0  0  0
 31 26  1  0  0  0  0
 31 24  1  1  0  0  0
 32 20  1  0  0  0  0
 33 43  1  6  0  0  0
 35 38  1  0  0  0  0
 35 39  1  0  0  0  0
 36 34  1  0  0  0  0
 36 40  1  1  0  0  0
 37 34  1  0  0  0  0
 38 33  1  1  0  0  0
 38 37  1  0  0  0  0
 39 36  1  0  0  0  0
 40 42  2  0  0  0  0
 41 40  1  0  0  0  0
 44 43  1  0  0  0  0
 45 44  1  0  0  0  0
M  END
>  <MODEL>
5

>  <REMARK>
 VINA RESULT:      -7.1      2.376      5.045
  Name = 
  5 active torsions:
  status: ('A' for Active; 'I' for Inactive)
    1  A    between atoms: C_10  and  C_12
    2  A    between atoms: C_20  and  C_37
    3  A    between atoms: C_20  and  C_39
    4  A    between atoms: C_20  and  C_41
    5  A    between atoms: S_28  and  C_39
                            x       y       z     vdW  Elec       q    Type
                         _______ _______ _______ _____ _____    ______ ____

>  <TORSDO>
F 5

$$$$
=
 OpenBabel11062420483D

 45 51  0  0  1  0  0  0  0  0999 V2000
  194.8810  174.5930  145.4430 C   0  0  0  0  0  2  0  0  0  0  0  0
  195.5070  173.0070  143.7030 C   0  0  0  0  0  3  0  0  0  0  0  0
  194.6180  170.8870  145.6760 N   0  0  0  0  0  0  0  0  0  0  0  0
  195.7560  170.2820  145.0350 C   0  0  0  0  0  0  0  0  0  0  0  0
  195.4660  170.7100  140.7490 N   0  0  0  0  0  2  0  0  0  0  0  0
  192.5750  175.3550  145.1680 C   0  0  2  0  0  3  0  0  0  0  0  0
  190.8210  173.3630  142.4890 C   0  0  2  0  0  3  0  0  0  0  0  0
  195.9070  171.8360  141.5690 C   0  0  0  0  0  2  0  0  0  0  0  0
  191.6540  175.6130  144.1490 O   0  0  0  0  0  0  0  0  0  0  0  0
  197.4420  168.5540  143.6350 N   0  0  0  0  0  0  0  0  0  0  0  0
  189.8810  172.4050  141.7360 C   0  0  0  0  0  2  0  0  0  0  0  0
  193.8390  169.4300  139.7000 O   0  0  0  0  0  0  0  0  0  0  0  0
  193.4030  178.0970  144.7470 O   0  0  0  0  0  0  0  0  0  0  0  0
  192.2950  172.9410  142.4680 C   0  0  0  0  0  2  0  0  0  0  0  0
  196.1940  170.6440  143.8090 C   0  0  0  0  0  0  0  0  0  0  0  0
  194.1030  170.3070  140.5650 C   0  0  0  0  0  0  0  0  0  0  0  0
  190.0860  172.5540  144.7070 C   0  0  0  0  0  2  0  0  0  0  0  0
  193.0030  170.8210  141.4470 C   0  0  1  0  0  3  0  0  0  0  0  0
  194.2450  176.9880  146.8800 O   0  0  0  0  0  0  0  0  0  0  0  0
  196.4600  169.1690  145.7680 C   0  0  0  0  0  2  0  0  0  0  0  0
  194.9280  173.2080  144.8880 C   0  0  0  0  0  0  0  0  0  0  0  0
  193.3970  176.8920  145.6420 S   0  0  0  0  0  0  0  0  0  0  0  0
  190.3690  173.5890  143.9130 C   0  0  0  0  0  0  0  0  0  0  0  0
  190.5200  171.0410  141.5060 C   0  0  0  0  0  2  0  0  0  0  0  0
  195.4610  171.6860  143.0190 C   0  0  1  0  0  3  0  0  0  0  0  0
  192.7230  172.2840  141.1520 C   0  0  1  0  0  3  0  0  0  0  0  0
  193.9300  175.4770  144.6490 C   0  0  1  0  0  3  0  0  0  0  0  0
  197.4150  169.9510  143.2460 C   0  0  0  0  0  2  0  0  0  0  0  0
  194.2420  172.1360  145.6370 C   0  0  0  0  0  3  0  0  0  0  0  0
  190.4830  174.9490  144.5460 C   0  0  2  0  0  3  0  0  0  0  0  0
  191.7710  171.1950  140.6420 C   0  0  1  0  0  3  0  0  0  0  0  0
  197.0180  168.1690  144.7910 C   0  0  0  0  0  3  0  0  0  0  0  0
  189.2310  175.8130  144.3460 C   0  0  1  0  0  3  0  0  0  0  0  0
  187.9210  177.8830  142.1490 C   0  0  0  0  0  2  0  0  0  0  0  0
  187.1740  175.1320  142.9050 C   0  0  0  0  0  2  0  0  0  0  0  0
  186.4880  177.3730  142.0160 C   0  0  1  0  0  3  0  0  0  0  0  0
  188.9180  176.7380  141.9710 C   0  0  0  0  0  2  0  0  0  0  0  0
  188.6410  175.5850  142.9420 C   0  0  1  0  0  3  0  0  0  0  0  0
  186.2070  176.3030  143.0690 C   0  0  0  0  0  2  0  0  0  0  0  0
  185.5210  178.5000  142.1650 C   0  0  0  0  0  0  0  0  0  0  0  0
  184.4550  178.6690  141.2320 N   0  0  0  0  0  1  0  0  0  0  0  0
  185.6600  179.3200  143.1090 O   0  0  0  0  0  0  0  0  0  0  0  0
  188.2050  175.6470  145.4680 C   0  0  0  0  0  2  0  0  0  0  0  0
  188.2840  177.0460  146.6270 S   0  0  0  0  0  0  0  0  0  0  0  0
  186.4800  177.2310  146.6900 C   0  0  0  0  0  1  0  0  0  0  0  0
  2 21  2  0  0  0  0
  4  3  1  0  0  0  0
  4 20  1  0  0  0  0
  5  8  1  0  0  0  0
  6  9  1  6  0  0  0
  6 22  1  0  0  0  0
  7 11  1  1  0  0  0
  7 23  1  0  0  0  0
  9 30  1  0  0  0  0
 10 32  2  0  0  0  0
 12 16  2  0  0  0  0
 13 22  2  0  0  0  0
 14  7  1  0  0  0  0
 15  4  2  0  0  0  0
 16  5  1  0  0  0  0
 18 16  1  6  0  0  0
 21  1  1  0  0  0  0
 21 29  1  0  0  0  0
 22 19  2  0  0  0  0
 23 30  1  0  0  0  0
 23 17  2  0  0  0  0
 24 11  1  0  0  0  0
 25  8  1  6  0  0  0
 25  2  1  0  0  0  0
 25 15  1  0  0  0  0
 26 18  1  0  0  0  0
 26 14  1  1  0  0  0
 27  6  1  0  0  0  0
 27  1  1  1  0  0  0
 27 22  1  0  0  0  0
 28 10  1  0  0  0  0
 28 15  1  0  0  0  0
 29  3  2  0  0  0  0
 30 33  1  6  0  0  0
 31 26  1  0  0  0  0
 31 18  1  0  0  0  0
 31 24  1  1  0  0  0
 32 20  1  0  0  0  0
 33 43  1  1  0  0  0
 35 38  1  0  0  0  0
 35 39  1  0  0  0  0
 36 34  1  0  0  0  0
 36 40  1  1  0  0  0
 36 39  1  0  0  0  0
 37 34  1  0  0  0  0
 37 38  1  0  0  0  0
 38 33  1  1  0  0  0
 40 42  2  0  0  0  0
 41 40  1  0  0  0  0
 43 44  1  0  0  0  0
 44 45  1  0  0  0  0
M  END
>  <MODEL>
6

>  <REMARK>
 VINA RESULT:      -7.1      2.742      5.067
  Name = 
  5 active torsions:
  status: ('A' for Active; 'I' for Inactive)
    1  A    between atoms: C_10  and  C_12
    2  A    between atoms: C_20  and  C_37
    3  A    between atoms: C_20  and  C_39
    4  A    between atoms: C_20  and  C_41
    5  A    between atoms: S_28  and  C_39
                            x       y       z     vdW  Elec       q    Type
                         _______ _______ _______ _____ _____    ______ ____

>  <TORSDO>
F 5

$$$$
=
 OpenBabel11062420483D

 45 51  0  0  1  0  0  0  0  0999 V2000
  195.4490  173.7920  144.2040 C   0  0  0  0  0  2  0  0  0  0  0  0
  195.9500  173.0280  141.9450 C   0  0  0  0  0  3  0  0  0  0  0  0
  195.1410  170.2940  142.9670 N   0  0  0  0  0  0  0  0  0  0  0  0
  196.2300  170.0000  142.0740 C   0  0  0  0  0  0  0  0  0  0  0  0
  195.7060  172.0870  138.3320 N   0  0  0  0  0  2  0  0  0  0  0  0
  193.1440  174.5820  144.3870 C   0  0  2  0  0  3  0  0  0  0  0  0
  191.2100  173.8000  141.2460 C   0  0  2  0  0  3  0  0  0  0  0  0
  196.2100  172.8000  139.5020 C   0  0  0  0  0  2  0  0  0  0  0  0
  192.1710  175.2160  143.6090 O   0  0  0  0  0  0  0  0  0  0  0  0
  197.8070  168.9800  140.0100 N   0  0  0  0  0  0  0  0  0  0  0  0
  190.2130  173.2100  140.2310 C   0  0  0  0  0  2  0  0  0  0  0  0
  194.0010  171.3140  136.9580 O   0  0  0  0  0  0  0  0  0  0  0  0
  193.9910  177.2740  145.0370 O   0  0  0  0  0  0  0  0  0  0  0  0
  192.6730  173.4320  140.9740 C   0  0  0  0  0  2  0  0  0  0  0  0
  196.6050  170.8210  141.0680 C   0  0  0  0  0  0  0  0  0  0  0  0
  194.3280  171.7790  138.0830 C   0  0  0  0  0  0  0  0  0  0  0  0
  190.5890  172.1740  143.0020 C   0  0  0  0  0  2  0  0  0  0  0  0
  193.2880  171.8930  139.1580 C   0  0  1  0  0  3  0  0  0  0  0  0
  194.9340  175.4180  146.5040 O   0  0  0  0  0  0  0  0  0  0  0  0
  196.9570  168.6930  142.2650 C   0  0  0  0  0  2  0  0  0  0  0  0
  195.4430  172.7400  143.1440 C   0  0  0  0  0  0  0  0  0  0  0  0
  194.0160  175.8130  145.3810 S   0  0  0  0  0  0  0  0  0  0  0  0
  190.8420  173.4410  142.6670 C   0  0  0  0  0  0  0  0  0  0  0  0
  190.8160  172.0540  139.4440 C   0  0  0  0  0  2  0  0  0  0  0  0
  195.8450  172.0850  140.7980 C   0  0  1  0  0  3  0  0  0  0  0  0
  193.0160  173.3520  139.4830 C   0  0  1  0  0  3  0  0  0  0  0  0
  194.4690  174.9110  143.8810 C   0  0  1  0  0  3  0  0  0  0  0  0
  197.7810  170.4170  140.2070 C   0  0  0  0  0  2  0  0  0  0  0  0
  194.7830  171.4530  143.4470 C   0  0  0  0  0  3  0  0  0  0  0  0
  191.0140  174.4400  143.7780 C   0  0  2  0  0  3  0  0  0  0  0  0
  192.0190  172.5460  138.6400 C   0  0  1  0  0  3  0  0  0  0  0  0
  197.4420  168.1660  140.9420 C   0  0  0  0  0  3  0  0  0  0  0  0
  189.7660  175.3030  144.0090 C   0  0  1  0  0  3  0  0  0  0  0  0
  188.2280  175.6980  146.8910 C   0  0  0  0  0  2  0  0  0  0  0  0
  189.3600  177.6690  145.0100 C   0  0  0  0  0  2  0  0  0  0  0  0
  187.6810  177.1210  146.7890 C   0  0  1  0  0  3  0  0  0  0  0  0
  189.7170  175.6710  146.5500 C   0  0  0  0  0  2  0  0  0  0  0  0
  190.0000  176.2820  145.1730 C   0  0  1  0  0  3  0  0  0  0  0  0
  187.8770  177.6640  145.3750 C   0  0  0  0  0  2  0  0  0  0  0  0
  186.2330  177.1460  147.1480 C   0  0  0  0  0  0  0  0  0  0  0  0
  185.2460  176.7110  146.2150 N   0  0  0  0  0  1  0  0  0  0  0  0
  185.8780  177.5730  148.2770 O   0  0  0  0  0  0  0  0  0  0  0  0
  189.2650  175.9830  142.7350 C   0  0  0  0  0  2  0  0  0  0  0  0
  187.5480  175.5070  142.3800 S   0  0  0  0  0  0  0  0  0  0  0  0
  187.6780  175.9460  140.6240 C   0  0  0  0  0  1  0  0  0  0  0  0
  2 21  2  0  0  0  0
  3 29  2  0  0  0  0
  4 20  1  0  0  0  0
  4  3  1  0  0  0  0
  5  8  1  0  0  0  0
  6  9  1  6  0  0  0
  6 22  1  0  0  0  0
  7 11  1  6  0  0  0
  7 23  1  0  0  0  0
  9 30  1  0  0  0  0
 10 28  1  0  0  0  0
 10 32  2  0  0  0  0
 12 16  2  0  0  0  0
 13 22  2  0  0  0  0
 14  7  1  0  0  0  0
 15  4  2  0  0  0  0
 16  5  1  0  0  0  0
 18 16  1  6  0  0  0
 18 26  1  0  0  0  0
 21 29  1  0  0  0  0
 21  1  1  0  0  0  0
 22 19  2  0  0  0  0
 23 17  2  0  0  0  0
 23 30  1  0  0  0  0
 24 11  1  0  0  0  0
 25  8  1  6  0  0  0
 25 15  1  0  0  0  0
 25  2  1  0  0  0  0
 26 14  1  1  0  0  0
 27  1  1  1  0  0  0
 27  6  1  0  0  0  0
 27 22  1  0  0  0  0
 28 15  1  0  0  0  0
 30 33  1  6  0  0  0
 31 18  1  0  0  0  0
 31 24  1  1  0  0  0
 31 26  1  0  0  0  0
 32 20  1  0  0  0  0
 33 43  1  6  0  0  0
 35 38  1  0  0  0  0
 35 39  1  0  0  0  0
 36 34  1  0  0  0  0
 36 40  1  6  0  0  0
 37 34  1  0  0  0  0
 38 33  1  6  0  0  0
 38 37  1  0  0  0  0
 39 36  1  0  0  0  0
 40 42  2  0  0  0  0
 41 40  1  0  0  0  0
 44 43  1  0  0  0  0
 45 44  1  0  0  0  0
M  END
>  <MODEL>
7

>  <REMARK>
 VINA RESULT:      -7.0      2.437      5.132
  Name = 
  5 active torsions:
  status: ('A' for Active; 'I' for Inactive)
    1  A    between atoms: C_10  and  C_12
    2  A    between atoms: C_20  and  C_37
    3  A    between atoms: C_20  and  C_39
    4  A    between atoms: C_20  and  C_41
    5  A    between atoms: S_28  and  C_39
                            x       y       z     vdW  Elec       q    Type
                         _______ _______ _______ _____ _____    ______ ____

>  <TORSDO>
F 5

$$$$
=
 OpenBabel11062420483D

 45 51  0  0  1  0  0  0  0  0999 V2000
  194.9920  174.0120  144.2700 C   0  0  0  0  0  2  0  0  0  0  0  0
  195.4670  173.1630  142.0360 C   0  0  0  0  0  3  0  0  0  0  0  0
  194.4280  170.5230  143.0980 N   0  0  0  0  0  0  0  0  0  0  0  0
  195.5050  170.1260  142.2300 C   0  0  0  0  0  0  0  0  0  0  0  0
  195.2070  172.1680  138.4380 N   0  0  0  0  0  2  0  0  0  0  0  0
  192.7540  174.9850  144.3970 C   0  0  2  0  0  3  0  0  0  0  0  0
  190.8140  174.2910  141.2390 C   0  0  2  0  0  3  0  0  0  0  0  0
  195.7470  172.8640  139.6030 C   0  0  0  0  0  2  0  0  0  0  0  0
  191.8460  175.6760  143.5890 O   0  0  0  0  0  0  0  0  0  0  0  0
  197.0290  168.9420  140.2140 N   0  0  0  0  0  0  0  0  0  0  0  0
  189.7910  173.7600  140.2180 C   0  0  0  0  0  2  0  0  0  0  0  0
  193.4680  171.5030  137.0510 O   0  0  0  0  0  0  0  0  0  0  0  0
  193.8000  177.6150  145.0080 O   0  0  0  0  0  0  0  0  0  0  0  0
  192.2480  173.8030  141.0000 C   0  0  0  0  0  2  0  0  0  0  0  0
  195.9590  170.8940  141.2150 C   0  0  0  0  0  0  0  0  0  0  0  0
  193.8130  171.9650  138.1710 C   0  0  0  0  0  0  0  0  0  0  0  0
  190.0380  172.7560  143.0150 C   0  0  0  0  0  2  0  0  0  0  0  0
  192.7690  172.1830  139.2260 C   0  0  1  0  0  3  0  0  0  0  0  0
  194.5710  175.7210  146.5290 O   0  0  0  0  0  0  0  0  0  0  0  0
  196.1230  168.7710  142.4600 C   0  0  0  0  0  2  0  0  0  0  0  0
  194.9190  172.9410  143.2320 C   0  0  0  0  0  0  0  0  0  0  0  0
  193.7040  176.1640  145.3820 S   0  0  0  0  0  0  0  0  0  0  0  0
  190.3960  173.9920  142.6600 C   0  0  0  0  0  0  0  0  0  0  0  0
  190.3130  172.5430  139.4650 C   0  0  0  0  0  2  0  0  0  0  0  0
  195.3060  172.2080  140.9060 C   0  0  1  0  0  3  0  0  0  0  0  0
  192.6070  173.6640  139.5170 C   0  0  1  0  0  3  0  0  0  0  0  0
  194.1080  175.1970  143.9080 C   0  0  1  0  0  3  0  0  0  0  0  0
  197.1130  170.3800  140.3830 C   0  0  0  0  0  2  0  0  0  0  0  0
  194.1550  171.7170  143.5480 C   0  0  0  0  0  3  0  0  0  0  0  0
  190.6290  174.9980  143.7540 C   0  0  2  0  0  3  0  0  0  0  0  0
  191.5630  172.9230  138.6730 C   0  0  1  0  0  3  0  0  0  0  0  0
  196.5860  168.1790  141.1550 C   0  0  0  0  0  3  0  0  0  0  0  0
  189.4500  175.9600  143.9460 C   0  0  1  0  0  3  0  0  0  0  0  0
  187.5360  178.3160  142.6750 C   0  0  0  0  0  2  0  0  0  0  0  0
  187.1830  175.3910  142.8030 C   0  0  0  0  0  2  0  0  0  0  0  0
  186.1510  177.6720  142.6920 C   0  0  1  0  0  3  0  0  0  0  0  0
  188.5520  177.3880  142.0100 C   0  0  0  0  0  2  0  0  0  0  0  0
  188.5840  176.0080  142.6740 C   0  0  1  0  0  3  0  0  0  0  0  0
  186.1910  176.3500  143.4550 C   0  0  0  0  0  2  0  0  0  0  0  0
  185.1590  178.5930  143.3180 C   0  0  0  0  0  0  0  0  0  0  0  0
  185.5890  179.6410  144.1860 N   0  0  0  0  0  1  0  0  0  0  0  0
  183.9320  178.4330  143.0970 O   0  0  0  0  0  0  0  0  0  0  0  0
  188.6470  175.6760  145.2160 C   0  0  0  0  0  2  0  0  0  0  0  0
  188.7100  177.0940  146.3510 S   0  0  0  0  0  0  0  0  0  0  0  0
  190.2260  176.5110  147.1610 C   0  0  0  0  0  1  0  0  0  0  0  0
  2 21  2  0  0  0  0
  3 29  2  0  0  0  0
  4 20  1  0  0  0  0
  4  3  1  0  0  0  0
  5  8  1  0  0  0  0
  6  9  1  6  0  0  0
  6 22  1  0  0  0  0
  7 11  1  6  0  0  0
  7 23  1  0  0  0  0
  9 30  1  0  0  0  0
 10 28  1  0  0  0  0
 10 32  2  0  0  0  0
 12 16  2  0  0  0  0
 13 22  2  0  0  0  0
 14  7  1  0  0  0  0
 15  4  2  0  0  0  0
 16  5  1  0  0  0  0
 18 16  1  6  0  0  0
 18 26  1  0  0  0  0
 21 29  1  0  0  0  0
 21  1  1  0  0  0  0
 22 19  2  0  0  0  0
 23 17  2  0  0  0  0
 23 30  1  0  0  0  0
 24 11  1  0  0  0  0
 25  8  1  6  0  0  0
 25 15  1  0  0  0  0
 25  2  1  0  0  0  0
 26 14  1  1  0  0  0
 27  1  1  1  0  0  0
 27  6  1  0  0  0  0
 27 22  1  0  0  0  0
 28 15  1  0  0  0  0
 30 33  1  6  0  0  0
 31 18  1  0  0  0  0
 31 24  1  1  0  0  0
 31 26  1  0  0  0  0
 32 20  1  0  0  0  0
 33 43  1  1  0  0  0
 34 36  1  0  0  0  0
 35 39  1  0  0  0  0
 36 40  1  1  0  0  0
 36 39  1  0  0  0  0
 37 38  1  0  0  0  0
 37 34  1  0  0  0  0
 38 35  1  0  0  0  0
 38 33  1  1  0  0  0
 40 41  1  0  0  0  0
 42 40  2  0  0  0  0
 43 44  1  0  0  0  0
 44 45  1  0  0  0  0
M  END
>  <MODEL>
8

>  <REMARK>
 VINA RESULT:      -6.8      2.288      4.711
  Name = 
  5 active torsions:
  status: ('A' for Active; 'I' for Inactive)
    1  A    between atoms: C_10  and  C_12
    2  A    between atoms: C_20  and  C_37
    3  A    between atoms: C_20  and  C_39
    4  A    between atoms: C_20  and  C_41
    5  A    between atoms: S_28  and  C_39
                            x       y       z     vdW  Elec       q    Type
                         _______ _______ _______ _____ _____    ______ ____

>  <TORSDO>
F 5

$$$$
=
 OpenBabel11062420483D

 45 51  0  0  1  0  0  0  0  0999 V2000
  195.0810  174.6560  144.0030 C   0  0  0  0  0  2  0  0  0  0  0  0
  192.7340  174.1090  144.3660 C   0  0  0  0  0  3  0  0  0  0  0  0
  192.1720  176.7070  142.9140 N   0  0  0  0  0  0  0  0  0  0  0  0
  191.1490  176.6690  143.9260 C   0  0  0  0  0  0  0  0  0  0  0  0
  189.2520  172.7920  143.9970 N   0  0  0  0  0  2  0  0  0  0  0  0
  195.9230  173.6450  141.9440 C   0  0  2  0  0  3  0  0  0  0  0  0
  193.1070  172.1150  139.9570 C   0  0  2  0  0  3  0  0  0  0  0  0
  190.5570  172.9800  144.6250 C   0  0  0  0  0  2  0  0  0  0  0  0
  195.7350  172.4990  141.1650 O   0  0  0  0  0  0  0  0  0  0  0  0
  188.7030  176.6600  145.2700 N   0  0  0  0  0  0  0  0  0  0  0  0
  192.0540  171.8130  138.8760 C   0  0  0  0  0  2  0  0  0  0  0  0
  187.8790  172.2910  142.1930 O   0  0  0  0  0  0  0  0  0  0  0  0
  197.8450  172.0240  143.3810 O   0  0  0  0  0  0  0  0  0  0  0  0
  192.5170  172.5610  141.3000 C   0  0  0  0  0  2  0  0  0  0  0  0
  190.7240  175.5250  144.5070 C   0  0  0  0  0  0  0  0  0  0  0  0
  189.0300  172.6140  142.5910 C   0  0  0  0  0  0  0  0  0  0  0  0
  193.7390  174.2730  138.9290 C   0  0  0  0  0  2  0  0  0  0  0  0
  190.1000  172.9080  141.5820 C   0  0  1  0  0  3  0  0  0  0  0  0
  197.9370  174.5310  143.8270 O   0  0  0  0  0  0  0  0  0  0  0  0
  190.5090  177.9760  144.3210 C   0  0  0  0  0  2  0  0  0  0  0  0
  193.6270  174.9060  143.7760 C   0  0  0  0  0  0  0  0  0  0  0  0
  197.3250  173.3950  143.0550 S   0  0  0  0  0  0  0  0  0  0  0  0
  194.1280  173.1210  139.4810 C   0  0  0  0  0  0  0  0  0  0  0  0
  190.7000  172.4260  139.2100 C   0  0  0  0  0  2  0  0  0  0  0  0
  191.2790  174.2020  144.0710 C   0  0  1  0  0  3  0  0  0  0  0  0
  191.1990  171.8630  141.6500 C   0  0  1  0  0  3  0  0  0  0  0  0
  195.5370  173.3740  143.3200 C   0  0  1  0  0  3  0  0  0  0  0  0
  189.6580  175.6120  145.5760 C   0  0  0  0  0  2  0  0  0  0  0  0
  193.2450  175.9710  142.8260 C   0  0  0  0  0  3  0  0  0  0  0  0
  195.5780  172.9760  139.8550 C   0  0  2  0  0  3  0  0  0  0  0  0
  190.1700  171.8310  140.5140 C   0  0  1  0  0  3  0  0  0  0  0  0
  189.0690  177.7590  144.7020 C   0  0  0  0  0  3  0  0  0  0  0  0
  196.3820  172.1550  138.8390 C   0  0  1  0  0  3  0  0  0  0  0  0
  196.7440  175.3080  137.9720 C   0  0  0  0  0  2  0  0  0  0  0  0
  197.9120  172.8420  136.8490 C   0  0  0  0  0  2  0  0  0  0  0  0
  197.1630  175.2090  136.5050 C   0  0  1  0  0  3  0  0  0  0  0  0
  197.6190  174.4050  138.8410 C   0  0  0  0  0  2  0  0  0  0  0  0
  197.6040  172.9530  138.3510 C   0  0  1  0  0  3  0  0  0  0  0  0
  197.0330  173.7700  136.0140 C   0  0  0  0  0  2  0  0  0  0  0  0
  196.3230  176.1130  135.6660 C   0  0  0  0  0  0  0  0  0  0  0  0
  194.9700  175.7760  135.3670 N   0  0  0  0  0  1  0  0  0  0  0  0
  196.8190  177.1720  135.2020 O   0  0  0  0  0  0  0  0  0  0  0  0
  196.7340  170.7550  139.3450 C   0  0  0  0  0  2  0  0  0  0  0  0
  195.4880  169.5440  138.8150 S   0  0  0  0  0  0  0  0  0  0  0  0
  195.2660  170.3250  137.1920 C   0  0  0  0  0  1  0  0  0  0  0  0
  3  4  1  0  0  0  0
  4 20  1  0  0  0  0
  4 15  2  0  0  0  0
  5  8  1  0  0  0  0
  6  9  1  6  0  0  0
  6 22  1  0  0  0  0
  6 27  1  0  0  0  0
  7 11  1  6  0  0  0
  7 14  1  0  0  0  0
 10 28  1  0  0  0  0
 11 24  1  0  0  0  0
 12 16  2  0  0  0  0
 15 28  1  0  0  0  0
 16  5  1  0  0  0  0
 17 23  2  0  0  0  0
 18 26  1  0  0  0  0
 18 16  1  1  0  0  0
 20 32  1  0  0  0  0
 21  1  1  0  0  0  0
 21  2  2  0  0  0  0
 22 27  1  0  0  0  0
 22 13  2  0  0  0  0
 22 19  2  0  0  0  0
 23 30  1  0  0  0  0
 23  7  1  0  0  0  0
 25  2  1  1  0  0  0
 25 15  1  0  0  0  0
 25  8  1  0  0  0  0
 26 14  1  6  0  0  0
 27  1  1  1  0  0  0
 29  3  2  0  0  0  0
 29 21  1  0  0  0  0
 30 33  1  6  0  0  0
 30  9  1  0  0  0  0
 31 24  1  6  0  0  0
 31 18  1  0  0  0  0
 31 26  1  0  0  0  0
 32 10  2  0  0  0  0
 33 43  1  1  0  0  0
 34 37  1  0  0  0  0
 35 38  1  0  0  0  0
 36 40  1  6  0  0  0
 36 34  1  0  0  0  0
 38 33  1  6  0  0  0
 38 37  1  0  0  0  0
 39 36  1  0  0  0  0
 39 35  1  0  0  0  0
 41 40  1  0  0  0  0
 42 40  2  0  0  0  0
 44 43  1  0  0  0  0
 45 44  1  0  0  0  0
M  END
>  <MODEL>
9

>  <REMARK>
 VINA RESULT:      -6.6      3.390      9.607
  Name = 
  5 active torsions:
  status: ('A' for Active; 'I' for Inactive)
    1  A    between atoms: C_10  and  C_12
    2  A    between atoms: C_20  and  C_37
    3  A    between atoms: C_20  and  C_39
    4  A    between atoms: C_20  and  C_41
    5  A    between atoms: S_28  and  C_39
                            x       y       z     vdW  Elec       q    Type
                         _______ _______ _______ _____ _____    ______ ____

>  <TORSDO>
F 5

$$$$
