=
 OpenBabel11062421153D

 33 36  0  0  1  0  0  0  0  0999 V2000
  192.1660  174.9080  142.1740 C   0  0  0  0  0  2  0  0  0  0  0  0
  189.0460  176.2360  146.4250 C   0  0  0  0  0  0  0  0  0  0  0  0
  192.1030  176.1090  143.1000 C   0  0  2  0  0  3  0  0  0  0  0  0
  186.8190  176.4890  147.3390 N   0  0  0  0  0  0  0  0  0  0  0  0
  188.2370  176.6900  147.5940 C   0  0  0  0  0  2  0  0  0  0  0  0
  193.4890  176.2730  143.7130 C   0  0  1  0  0  3  0  0  0  0  0  0
  191.4400  175.5170  146.7170 C   0  0  0  0  0  2  0  0  0  0  0  0
  193.3290  176.1750  145.2210 C   0  0  0  0  0  2  0  0  0  0  0  0
  186.7690  178.1220  145.5210 C   0  0  0  0  0  0  0  0  0  0  0  0
  189.9710  175.0820  146.6750 C   0  0  0  0  0  2  0  0  0  0  0  0
  187.9970  177.9670  144.9910 C   0  0  0  0  0  3  0  0  0  0  0  0
  191.8500  176.3330  145.4940 C   0  0  1  0  0  3  0  0  0  0  0  0
  184.7430  176.9120  146.3410 N   0  0  0  0  0  1  0  0  0  0  0  0
  186.1490  177.1270  146.4270 C   0  0  0  0  0  0  0  0  0  0  0  0
  193.3910  174.1160  142.5840 C   0  0  0  0  0  2  0  0  0  0  0  0
  189.8060  176.5310  144.0150 C   0  0  0  0  0  2  0  0  0  0  0  0
  188.9580  176.8670  145.2300 C   0  0  0  0  0  0  0  0  0  0  0  0
  194.3460  175.1170  143.2110 C   0  0  1  0  0  3  0  0  0  0  0  0
  191.1510  175.8360  144.2480 C   0  0  1  0  0  3  0  0  0  0  0  0
  196.5910  174.9120  142.0990 C   0  0  0  0  0  0  0  0  0  0  0  0
  195.3230  175.5670  142.2170 N   0  0  0  0  0  0  0  0  0  0  0  0
  197.5150  175.3530  141.1590 O   0  0  0  0  0  0  0  0  0  0  0  0
  196.8810  173.9360  142.8410 O   0  0  0  0  0  1  0  0  0  0  0  0
  195.0230  176.5800  141.3670 O   0  0  0  0  0  1  0  0  0  0  0  0
  185.9850  179.2270  145.1540 O   0  0  0  0  0  0  0  0  0  0  0  0
  185.6020  179.5190  143.8140 C   0  0  0  0  0  2  0  0  0  0  0  0
  184.2810  178.8440  143.4840 C   0  0  0  0  0  2  0  0  0  0  0  0
  184.4940  177.7800  142.4120 C   0  0  0  0  0  2  0  0  0  0  0  0
  185.5990  178.2370  140.2630 N   0  0  0  0  0  1  0  0  0  0  0  0
  185.8240  177.9300  141.6680 C   0  0  2  0  0  3  0  0  0  0  0  0
  187.7620  176.6390  141.1360 O   0  0  0  0  0  0  0  0  0  0  0  0
  186.7090  176.7320  141.8230 C   0  0  0  0  0  0  0  0  0  0  0  0
  186.4000  175.7370  142.7450 O   0  0  0  0  0  1  0  0  0  0  0  0
  1 15  1  0  0  0  0
  2 10  1  0  0  0  0
  2  5  1  0  0  0  0
  3  1  1  6  0  0  0
  3  6  1  0  0  0  0
  3 19  1  0  0  0  0
  4  5  1  0  0  0  0
  6  8  1  1  0  0  0
  9 14  1  0  0  0  0
 10  7  1  0  0  0  0
 11 17  1  0  0  0  0
 11  9  2  0  0  0  0
 12  8  1  6  0  0  0
 12  7  1  0  0  0  0
 13 14  1  0  0  0  0
 14  4  2  0  0  0  0
 15 18  1  0  0  0  0
 16 17  1  0  0  0  0
 17  2  2  0  0  0  0
 18 21  1  6  0  0  0
 18  6  1  0  0  0  0
 19 16  1  6  0  0  0
 19 12  1  0  0  0  0
 20 21  1  0  0  0  0
 20 23  1  0  0  0  0
 22 20  2  0  0  0  0
 24 21  1  0  0  0  0
 25  9  1  0  0  0  0
 26 25  1  0  0  0  0
 27 26  1  0  0  0  0
 28 27  1  0  0  0  0
 30 29  1  6  0  0  0
 30 32  1  0  0  0  0
 30 28  1  0  0  0  0
 31 32  2  0  0  0  0
 32 33  1  0  0  0  0
M  END
>  <MODEL>
1

>  <REMARK>
 VINA RESULT:      -7.1      0.000      0.000
  Name = 
  7 active torsions:
  status: ('A' for Active; 'I' for Inactive)
    1  A    between atoms: C_5  and  C_6
    2  A    between atoms: C_5  and  C_13
    3  A    between atoms: C_6  and  CA_24
    4  A    between atoms: N_9  and  C_32
    5  A    between atoms: C_13  and  O_22
    6  A    between atoms: C_18  and  O_22
    7  A    between atoms: CA_24  and  C_29
                            x       y       z     vdW  Elec       q    Type
                         _______ _______ _______ _____ _____    ______ ____

>  <TORSDO>
F 7

$$$$
=
 OpenBabel11062421153D

 33 36  0  0  1  0  0  0  0  0999 V2000
  191.1450  173.7000  142.8910 C   0  0  0  0  0  2  0  0  0  0  0  0
  188.2600  176.1800  146.7770 C   0  0  0  0  0  0  0  0  0  0  0  0
  191.2880  175.0180  143.6300 C   0  0  2  0  0  3  0  0  0  0  0  0
  186.1040  176.9580  147.5540 N   0  0  0  0  0  0  0  0  0  0  0  0
  187.5310  176.9400  147.8340 C   0  0  0  0  0  2  0  0  0  0  0  0
  192.6730  175.0220  144.2690 C   0  0  1  0  0  3  0  0  0  0  0  0
  190.4790  175.0990  147.2660 C   0  0  0  0  0  2  0  0  0  0  0  0
  192.4770  175.1810  145.7680 C   0  0  0  0  0  2  0  0  0  0  0  0
  186.3760  178.2850  145.5190 C   0  0  0  0  0  0  0  0  0  0  0  0
  188.9560  174.9310  147.2270 C   0  0  0  0  0  2  0  0  0  0  0  0
  187.5630  177.8370  145.0660 C   0  0  0  0  0  3  0  0  0  0  0  0
  191.0480  175.6380  145.9550 C   0  0  1  0  0  3  0  0  0  0  0  0
  184.1530  177.5890  146.4230 N   0  0  0  0  0  1  0  0  0  0  0  0
  185.5730  177.5620  146.5330 C   0  0  0  0  0  0  0  0  0  0  0  0
  192.2000  172.7740  143.4600 C   0  0  0  0  0  2  0  0  0  0  0  0
  189.0940  175.9720  144.3820 C   0  0  0  0  0  2  0  0  0  0  0  0
  188.3040  176.6320  145.5000 C   0  0  0  0  0  0  0  0  0  0  0  0
  193.3120  173.6710  143.9740 C   0  0  1  0  0  3  0  0  0  0  0  0
  190.2860  175.0930  144.7660 C   0  0  1  0  0  3  0  0  0  0  0  0
  195.5110  172.9270  143.0110 C   0  0  0  0  0  0  0  0  0  0  0  0
  194.3680  173.7870  142.9660 N   0  0  0  0  0  0  0  0  0  0  0  0
  196.5130  173.0510  142.0560 O   0  0  0  0  0  0  0  0  0  0  0  0
  195.6220  172.0540  143.9140 O   0  0  0  0  0  1  0  0  0  0  0  0
  194.2550  174.6800  141.9510 O   0  0  0  0  0  1  0  0  0  0  0  0
  185.8100  179.4450  144.9650 O   0  0  0  0  0  0  0  0  0  0  0  0
  185.5700  179.6220  143.5720 C   0  0  0  0  0  2  0  0  0  0  0  0
  184.5390  178.6190  143.0830 C   0  0  0  0  0  2  0  0  0  0  0  0
  185.2280  177.5000  142.3100 C   0  0  0  0  0  2  0  0  0  0  0  0
  185.5960  177.8170  139.8990 N   0  0  0  0  0  1  0  0  0  0  0  0
  186.1750  178.0120  141.2210 C   0  0  2  0  0  3  0  0  0  0  0  0
  188.5290  178.1210  141.6080 O   0  0  0  0  0  1  0  0  0  0  0  0
  187.5390  177.4010  141.3080 C   0  0  0  0  0  0  0  0  0  0  0  0
  187.7200  176.0380  141.0960 O   0  0  0  0  0  0  0  0  0  0  0  0
  1 15  1  0  0  0  0
  2 10  1  0  0  0  0
  2  5  1  0  0  0  0
  3  1  1  1  0  0  0
  3  6  1  0  0  0  0
  3 19  1  0  0  0  0
  4  5  1  0  0  0  0
  6  8  1  1  0  0  0
  9 14  1  0  0  0  0
 10  7  1  0  0  0  0
 11 17  1  0  0  0  0
 11  9  2  0  0  0  0
 12  8  1  6  0  0  0
 12  7  1  0  0  0  0
 13 14  1  0  0  0  0
 14  4  2  0  0  0  0
 15 18  1  0  0  0  0
 16 17  1  0  0  0  0
 17  2  2  0  0  0  0
 18 21  1  6  0  0  0
 18  6  1  0  0  0  0
 19 16  1  6  0  0  0
 19 12  1  0  0  0  0
 20 23  1  0  0  0  0
 21 20  1  0  0  0  0
 22 20  2  0  0  0  0
 24 21  1  0  0  0  0
 25  9  1  0  0  0  0
 26 25  1  0  0  0  0
 27 26  1  0  0  0  0
 28 27  1  0  0  0  0
 30 29  1  6  0  0  0
 30 32  1  0  0  0  0
 30 28  1  0  0  0  0
 32 31  1  0  0  0  0
 33 32  2  0  0  0  0
M  END
>  <MODEL>
2

>  <REMARK>
 VINA RESULT:      -7.0      1.308      1.432
  Name = 
  7 active torsions:
  status: ('A' for Active; 'I' for Inactive)
    1  A    between atoms: C_5  and  C_6
    2  A    between atoms: C_5  and  C_13
    3  A    between atoms: C_6  and  CA_24
    4  A    between atoms: N_9  and  C_32
    5  A    between atoms: C_13  and  O_22
    6  A    between atoms: C_18  and  O_22
    7  A    between atoms: CA_24  and  C_29
                            x       y       z     vdW  Elec       q    Type
                         _______ _______ _______ _____ _____    ______ ____

>  <TORSDO>
F 7

$$$$
=
 OpenBabel11062421153D

 33 36  0  0  1  0  0  0  0  0999 V2000
  186.6890  179.4010  142.9860 C   0  0  0  0  0  2  0  0  0  0  0  0
  189.9050  176.6500  146.4010 C   0  0  0  0  0  0  0  0  0  0  0  0
  187.0550  177.9370  143.1390 C   0  0  2  0  0  3  0  0  0  0  0  0
  192.0790  176.4200  147.4390 N   0  0  0  0  0  0  0  0  0  0  0  0
  190.7670  175.8110  147.2850 C   0  0  0  0  0  2  0  0  0  0  0  0
  185.7500  177.1660  143.3080 C   0  0  1  0  0  3  0  0  0  0  0  0
  187.3970  176.5510  146.5800 C   0  0  0  0  0  2  0  0  0  0  0  0
  185.8220  176.4440  144.6430 C   0  0  0  0  0  2  0  0  0  0  0  0
  192.6500  176.1230  145.0810 C   0  0  0  0  0  0  0  0  0  0  0  0
  188.6840  177.2410  147.0430 C   0  0  0  0  0  2  0  0  0  0  0  0
  191.4480  176.2770  144.4950 C   0  0  0  0  0  3  0  0  0  0  0  0
  187.2750  176.4840  145.0590 C   0  0  1  0  0  3  0  0  0  0  0  0
  194.2240  177.0790  146.7700 N   0  0  0  0  0  1  0  0  0  0  0  0
  192.9340  176.5550  146.4700 C   0  0  0  0  0  0  0  0  0  0  0  0
  185.2770  179.5470  143.5160 C   0  0  0  0  0  2  0  0  0  0  0  0
  189.3440  177.5840  144.1020 C   0  0  0  0  0  2  0  0  0  0  0  0
  190.2090  176.8230  145.0920 C   0  0  0  0  0  0  0  0  0  0  0  0
  184.6210  178.1900  143.3380 C   0  0  1  0  0  3  0  0  0  0  0  0
  187.8510  177.7250  144.4120 C   0  0  1  0  0  3  0  0  0  0  0  0
  182.4860  178.6170  142.0810 C   0  0  0  0  0  0  0  0  0  0  0  0
  183.8450  178.1680  142.0950 N   0  0  0  0  0  0  0  0  0  0  0  0
  181.7550  178.5830  140.9000 O   0  0  0  0  0  0  0  0  0  0  0  0
  181.9400  179.0440  143.1340 O   0  0  0  0  0  1  0  0  0  0  0  0
  184.4180  177.7640  140.9340 O   0  0  0  0  0  1  0  0  0  0  0  0
  193.7260  175.6060  144.3410 O   0  0  0  0  0  0  0  0  0  0  0  0
  194.1730  174.2570  144.4310 C   0  0  0  0  0  2  0  0  0  0  0  0
  193.2350  173.3380  143.6660 C   0  0  0  0  0  2  0  0  0  0  0  0
  192.5740  172.3540  144.6260 C   0  0  0  0  0  2  0  0  0  0  0  0
  191.3390  171.3460  142.7540 N   0  0  0  0  0  1  0  0  0  0  0  0
  191.2260  171.8310  144.1210 C   0  0  2  0  0  3  0  0  0  0  0  0
  189.6660  173.1280  145.3820 O   0  0  0  0  0  1  0  0  0  0  0  0
  190.1310  172.8460  144.2450 C   0  0  0  0  0  0  0  0  0  0  0  0
  189.6480  173.5070  143.1200 O   0  0  0  0  0  0  0  0  0  0  0  0
  1 15  1  0  0  0  0
  2 10  1  0  0  0  0
  2  5  1  0  0  0  0
  3  1  1  1  0  0  0
  3  6  1  0  0  0  0
  3 19  1  0  0  0  0
  5  4  1  0  0  0  0
  6 18  1  0  0  0  0
  6  8  1  1  0  0  0
  7 10  1  0  0  0  0
  9 14  1  0  0  0  0
 11  9  2  0  0  0  0
 11 17  1  0  0  0  0
 12  8  1  1  0  0  0
 12  7  1  0  0  0  0
 14 13  1  0  0  0  0
 14  4  2  0  0  0  0
 16 17  1  0  0  0  0
 17  2  2  0  0  0  0
 18 21  1  6  0  0  0
 18 15  1  0  0  0  0
 19 16  1  6  0  0  0
 19 12  1  0  0  0  0
 20 21  1  0  0  0  0
 20 23  1  0  0  0  0
 22 20  2  0  0  0  0
 24 21  1  0  0  0  0
 25 26  1  0  0  0  0
 25  9  1  0  0  0  0
 27 26  1  0  0  0  0
 27 28  1  0  0  0  0
 30 29  1  6  0  0  0
 30 32  1  0  0  0  0
 30 28  1  0  0  0  0
 32 31  1  0  0  0  0
 33 32  2  0  0  0  0
M  END
>  <MODEL>
3

>  <REMARK>
 VINA RESULT:      -6.9      2.877      8.324
  Name = 
  7 active torsions:
  status: ('A' for Active; 'I' for Inactive)
    1  A    between atoms: C_5  and  C_6
    2  A    between atoms: C_5  and  C_13
    3  A    between atoms: C_6  and  CA_24
    4  A    between atoms: N_9  and  C_32
    5  A    between atoms: C_13  and  O_22
    6  A    between atoms: C_18  and  O_22
    7  A    between atoms: CA_24  and  C_29
                            x       y       z     vdW  Elec       q    Type
                         _______ _______ _______ _____ _____    ______ ____

>  <TORSDO>
F 7

$$$$
=
 OpenBabel11062421153D

 33 36  0  0  1  0  0  0  0  0999 V2000
  186.6610  179.4200  143.0550 C   0  0  0  0  0  2  0  0  0  0  0  0
  189.8330  176.4990  146.3690 C   0  0  0  0  0  0  0  0  0  0  0  0
  187.0240  177.9490  143.1390 C   0  0  2  0  0  3  0  0  0  0  0  0
  191.9950  176.2150  147.4200 N   0  0  0  0  0  0  0  0  0  0  0  0
  190.6840  175.6160  147.2200 C   0  0  0  0  0  2  0  0  0  0  0  0
  185.7160  177.1730  143.2540 C   0  0  1  0  0  3  0  0  0  0  0  0
  187.3230  176.3950  146.5120 C   0  0  0  0  0  2  0  0  0  0  0  0
  185.7730  176.3850  144.5530 C   0  0  0  0  0  2  0  0  0  0  0  0
  192.5950  176.0350  145.0570 C   0  0  0  0  0  0  0  0  0  0  0  0
  188.6060  177.0590  147.0240 C   0  0  0  0  0  2  0  0  0  0  0  0
  191.3990  176.2190  144.4650 C   0  0  0  0  0  3  0  0  0  0  0  0
  187.2200  176.4030  144.9880 C   0  0  1  0  0  3  0  0  0  0  0  0
  194.1480  176.9040  146.8100 N   0  0  0  0  0  1  0  0  0  0  0  0
  192.8610  176.3970  146.4690 C   0  0  0  0  0  0  0  0  0  0  0  0
  185.2430  179.5410  143.5740 C   0  0  0  0  0  2  0  0  0  0  0  0
  189.3010  177.5460  144.1120 C   0  0  0  0  0  2  0  0  0  0  0  0
  190.1530  176.7360  145.0730 C   0  0  0  0  0  0  0  0  0  0  0  0
  184.5880  178.1950  143.3210 C   0  0  1  0  0  3  0  0  0  0  0  0
  187.8040  177.6730  144.4100 C   0  0  1  0  0  3  0  0  0  0  0  0
  182.4610  178.6630  142.0660 C   0  0  0  0  0  0  0  0  0  0  0  0
  183.8280  178.2360  142.0700 N   0  0  0  0  0  0  0  0  0  0  0  0
  181.7450  178.6890  140.8750 O   0  0  0  0  0  0  0  0  0  0  0  0
  181.8970  179.0170  143.1350 O   0  0  0  0  0  1  0  0  0  0  0  0
  184.4200  177.9110  140.8940 O   0  0  0  0  0  1  0  0  0  0  0  0
  193.6790  175.5530  144.3060 O   0  0  0  0  0  0  0  0  0  0  0  0
  193.6360  174.3640  143.5240 C   0  0  0  0  0  2  0  0  0  0  0  0
  194.1490  174.6360  142.1200 C   0  0  0  0  0  2  0  0  0  0  0  0
  194.3850  176.1310  141.9330 C   0  0  0  0  0  2  0  0  0  0  0  0
  196.0790  175.6200  140.2250 N   0  0  0  0  0  1  0  0  0  0  0  0
  195.7730  176.4590  141.3750 C   0  0  2  0  0  3  0  0  0  0  0  0
  196.8290  177.1430  143.4050 O   0  0  0  0  0  1  0  0  0  0  0  0
  196.8490  176.3660  142.4130 C   0  0  0  0  0  0  0  0  0  0  0  0
  197.8500  175.4060  142.3110 O   0  0  0  0  0  0  0  0  0  0  0  0
  1 15  1  0  0  0  0
  2 10  1  0  0  0  0
  2  5  1  0  0  0  0
  3  1  1  1  0  0  0
  3  6  1  0  0  0  0
  3 19  1  0  0  0  0
  5  4  1  0  0  0  0
  6 18  1  0  0  0  0
  6  8  1  1  0  0  0
  7 10  1  0  0  0  0
  9 14  1  0  0  0  0
 11  9  2  0  0  0  0
 11 17  1  0  0  0  0
 12  8  1  1  0  0  0
 12  7  1  0  0  0  0
 14 13  1  0  0  0  0
 14  4  2  0  0  0  0
 16 17  1  0  0  0  0
 17  2  2  0  0  0  0
 18 21  1  6  0  0  0
 18 15  1  0  0  0  0
 19 16  1  6  0  0  0
 19 12  1  0  0  0  0
 20 21  1  0  0  0  0
 20 23  1  0  0  0  0
 22 20  2  0  0  0  0
 24 21  1  0  0  0  0
 25  9  1  0  0  0  0
 26 25  1  0  0  0  0
 27 26  1  0  0  0  0
 28 27  1  0  0  0  0
 30 29  1  6  0  0  0
 30 28  1  0  0  0  0
 30 32  1  0  0  0  0
 32 31  1  0  0  0  0
 33 32  2  0  0  0  0
M  END
>  <MODEL>
4

>  <REMARK>
 VINA RESULT:      -6.8      2.402      8.854
  Name = 
  7 active torsions:
  status: ('A' for Active; 'I' for Inactive)
    1  A    between atoms: C_5  and  C_6
    2  A    between atoms: C_5  and  C_13
    3  A    between atoms: C_6  and  CA_24
    4  A    between atoms: N_9  and  C_32
    5  A    between atoms: C_13  and  O_22
    6  A    between atoms: C_18  and  O_22
    7  A    between atoms: CA_24  and  C_29
                            x       y       z     vdW  Elec       q    Type
                         _______ _______ _______ _____ _____    ______ ____

>  <TORSDO>
F 7

$$$$
=
 OpenBabel11062421153D

 33 36  0  0  1  0  0  0  0  0999 V2000
  188.4030  177.3560  146.8640 C   0  0  0  0  0  2  0  0  0  0  0  0
  192.2650  174.3170  144.5350 C   0  0  0  0  0  0  0  0  0  0  0  0
  189.0210  177.3170  145.4780 C   0  0  2  0  0  3  0  0  0  0  0  0
  194.5140  173.4260  144.6300 N   0  0  0  0  0  0  0  0  0  0  0  0
  193.3160  173.5400  143.8130 C   0  0  0  0  0  2  0  0  0  0  0  0
  187.8790  177.1200  144.4870 C   0  0  1  0  0  3  0  0  0  0  0  0
  189.8280  173.9960  143.9960 C   0  0  0  0  0  2  0  0  0  0  0  0
  188.1640  175.8400  143.7190 C   0  0  0  0  0  2  0  0  0  0  0  0
  194.9620  175.8280  144.5600 C   0  0  0  0  0  0  0  0  0  0  0  0
  191.0100  173.5680  144.8730 C   0  0  0  0  0  2  0  0  0  0  0  0
  193.7130  176.3310  144.5340 C   0  0  0  0  0  3  0  0  0  0  0  0
  189.6150  175.5090  143.9880 C   0  0  1  0  0  3  0  0  0  0  0  0
  196.4650  174.1790  145.6830 N   0  0  0  0  0  1  0  0  0  0  0  0
  195.2640  174.4340  144.9620 C   0  0  0  0  0  0  0  0  0  0  0  0
  187.0270  176.7350  146.7360 C   0  0  0  0  0  2  0  0  0  0  0  0
  191.3970  176.5160  145.4770 C   0  0  0  0  0  2  0  0  0  0  0  0
  192.4440  175.6280  144.8260 C   0  0  0  0  0  0  0  0  0  0  0  0
  186.5980  176.9590  145.2970 C   0  0  1  0  0  3  0  0  0  0  0  0
  189.9270  176.1090  145.3410 C   0  0  1  0  0  3  0  0  0  0  0  0
  184.8660  178.3290  144.0970 C   0  0  0  0  0  0  0  0  0  0  0  0
  185.7530  178.1520  145.2060 N   0  0  0  0  0  0  0  0  0  0  0  0
  184.0760  179.4690  144.0140 O   0  0  0  0  0  1  0  0  0  0  0  0
  184.7930  177.4590  143.1890 O   0  0  0  0  0  0  0  0  0  0  0  0
  185.7690  179.0830  146.1920 O   0  0  0  0  0  1  0  0  0  0  0  0
  196.0560  176.6610  144.2750 O   0  0  0  0  0  0  0  0  0  0  0  0
  196.6280  176.8030  142.9780 C   0  0  0  0  0  2  0  0  0  0  0  0
  197.8950  175.9710  142.8660 C   0  0  0  0  0  2  0  0  0  0  0  0
  197.8340  175.0970  141.6180 C   0  0  0  0  0  2  0  0  0  0  0  0
  195.9990  173.4840  141.3370 N   0  0  0  0  0  1  0  0  0  0  0  0
  196.4070  174.8630  141.1130 C   0  0  2  0  0  3  0  0  0  0  0  0
  197.2460  175.4870  138.9660 O   0  0  0  0  0  0  0  0  0  0  0  0
  196.2320  175.2520  139.6770 C   0  0  0  0  0  0  0  0  0  0  0  0
  194.9630  175.3210  139.1120 O   0  0  0  0  0  1  0  0  0  0  0  0
  2 17  2  0  0  0  0
  2 10  1  0  0  0  0
  3  1  1  1  0  0  0
  4 14  2  0  0  0  0
  5  2  1  0  0  0  0
  5  4  1  0  0  0  0
  6  8  1  1  0  0  0
  6 18  1  0  0  0  0
  6  3  1  0  0  0  0
  7 10  1  0  0  0  0
  9 14  1  0  0  0  0
 11  9  2  0  0  0  0
 11 17  1  0  0  0  0
 12  8  1  1  0  0  0
 12  7  1  0  0  0  0
 12 19  1  0  0  0  0
 14 13  1  0  0  0  0
 15  1  1  0  0  0  0
 17 16  1  0  0  0  0
 18 21  1  1  0  0  0
 18 15  1  0  0  0  0
 19 16  1  6  0  0  0
 19  3  1  0  0  0  0
 20 21  1  0  0  0  0
 21 24  1  0  0  0  0
 22 20  1  0  0  0  0
 23 20  2  0  0  0  0
 25  9  1  0  0  0  0
 26 25  1  0  0  0  0
 27 26  1  0  0  0  0
 28 27  1  0  0  0  0
 30 29  1  6  0  0  0
 30 28  1  0  0  0  0
 31 32  2  0  0  0  0
 32 30  1  0  0  0  0
 33 32  1  0  0  0  0
M  END
>  <MODEL>
5

>  <REMARK>
 VINA RESULT:      -6.8      2.029      9.017
  Name = 
  7 active torsions:
  status: ('A' for Active; 'I' for Inactive)
    1  A    between atoms: C_5  and  C_6
    2  A    between atoms: C_5  and  C_13
    3  A    between atoms: C_6  and  CA_24
    4  A    between atoms: N_9  and  C_32
    5  A    between atoms: C_13  and  O_22
    6  A    between atoms: C_18  and  O_22
    7  A    between atoms: CA_24  and  C_29
                            x       y       z     vdW  Elec       q    Type
                         _______ _______ _______ _____ _____    ______ ____

>  <TORSDO>
F 7

$$$$
=
 OpenBabel11062421153D

 33 36  0  0  1  0  0  0  0  0999 V2000
  192.8220  172.3030  144.6980 C   0  0  0  0  0  2  0  0  0  0  0  0
  190.1340  176.5450  146.7850 C   0  0  0  0  0  0  0  0  0  0  0  0
  192.7600  173.7810  144.3600 C   0  0  2  0  0  3  0  0  0  0  0  0
  188.0220  177.4930  147.4900 N   0  0  0  0  0  0  0  0  0  0  0  0
  189.4350  177.7660  147.2830 C   0  0  0  0  0  2  0  0  0  0  0  0
  194.1910  174.3090  144.4090 C   0  0  1  0  0  3  0  0  0  0  0  0
  192.6020  176.2290  147.1640 C   0  0  0  0  0  2  0  0  0  0  0  0
  194.2250  175.4200  145.4460 C   0  0  0  0  0  2  0  0  0  0  0  0
  187.5990  177.1220  145.1110 C   0  0  0  0  0  0  0  0  0  0  0  0
  191.1850  175.9740  147.6900 C   0  0  0  0  0  2  0  0  0  0  0  0
  188.7630  176.5700  144.7180 C   0  0  0  0  0  3  0  0  0  0  0  0
  192.7830  175.7840  145.7130 C   0  0  1  0  0  3  0  0  0  0  0  0
  185.8090  177.0650  146.8530 N   0  0  0  0  0  1  0  0  0  0  0  0
  187.1890  177.2160  146.5320 C   0  0  0  0  0  0  0  0  0  0  0  0
  194.1550  172.0750  145.3790 C   0  0  0  0  0  2  0  0  0  0  0  0
  190.5640  174.8400  144.9460 C   0  0  0  0  0  2  0  0  0  0  0  0
  189.8430  176.0230  145.5690 C   0  0  0  0  0  0  0  0  0  0  0  0
  195.0830  173.1580  144.8580 C   0  0  1  0  0  3  0  0  0  0  0  0
  191.9850  174.5310  145.4250 C   0  0  1  0  0  3  0  0  0  0  0  0
  197.1520  172.0190  143.9980 C   0  0  0  0  0  0  0  0  0  0  0  0
  195.8850  172.6380  143.7490 N   0  0  0  0  0  0  0  0  0  0  0  0
  197.9110  171.5380  142.9380 O   0  0  0  0  0  0  0  0  0  0  0  0
  197.5900  171.9050  145.1740 O   0  0  0  0  0  1  0  0  0  0  0  0
  195.4200  172.6980  142.4760 O   0  0  0  0  0  1  0  0  0  0  0  0
  186.6770  177.5670  144.1500 O   0  0  0  0  0  0  0  0  0  0  0  0
  186.1680  178.8960  144.0950 C   0  0  0  0  0  2  0  0  0  0  0  0
  184.8150  178.9140  143.4020 C   0  0  0  0  0  2  0  0  0  0  0  0
  184.7470  177.7960  142.3660 C   0  0  0  0  0  2  0  0  0  0  0  0
  183.7550  178.0630  140.1310 N   0  0  0  0  0  1  0  0  0  0  0  0
  184.9500  178.2900  140.9310 C   0  0  2  0  0  3  0  0  0  0  0  0
  186.0380  177.0830  139.1800 O   0  0  0  0  0  0  0  0  0  0  0  0
  186.1570  177.6870  140.2800 C   0  0  0  0  0  0  0  0  0  0  0  0
  187.4150  177.8180  140.8590 O   0  0  0  0  0  1  0  0  0  0  0  0
  1 15  1  0  0  0  0
  2  5  1  0  0  0  0
  2 10  1  0  0  0  0
  3  6  1  0  0  0  0
  3  1  1  1  0  0  0
  3 19  1  0  0  0  0
  5  4  1  0  0  0  0
  6 18  1  0  0  0  0
  6  8  1  1  0  0  0
  7 10  1  0  0  0  0
  9 14  1  0  0  0  0
 11  9  2  0  0  0  0
 11 17  1  0  0  0  0
 12  8  1  1  0  0  0
 12  7  1  0  0  0  0
 14 13  1  0  0  0  0
 14  4  2  0  0  0  0
 16 17  1  0  0  0  0
 17  2  2  0  0  0  0
 18 21  1  6  0  0  0
 18 15  1  0  0  0  0
 19 16  1  6  0  0  0
 19 12  1  0  0  0  0
 20 23  1  0  0  0  0
 21 20  1  0  0  0  0
 22 20  2  0  0  0  0
 24 21  1  0  0  0  0
 25  9  1  0  0  0  0
 26 25  1  0  0  0  0
 27 26  1  0  0  0  0
 28 27  1  0  0  0  0
 30 29  1  6  0  0  0
 30 28  1  0  0  0  0
 31 32  2  0  0  0  0
 32 33  1  0  0  0  0
 32 30  1  0  0  0  0
M  END
>  <MODEL>
6

>  <REMARK>
 VINA RESULT:      -6.5      1.912      2.300
  Name = 
  7 active torsions:
  status: ('A' for Active; 'I' for Inactive)
    1  A    between atoms: C_5  and  C_6
    2  A    between atoms: C_5  and  C_13
    3  A    between atoms: C_6  and  CA_24
    4  A    between atoms: N_9  and  C_32
    5  A    between atoms: C_13  and  O_22
    6  A    between atoms: C_18  and  O_22
    7  A    between atoms: CA_24  and  C_29
                            x       y       z     vdW  Elec       q    Type
                         _______ _______ _______ _____ _____    ______ ____

>  <TORSDO>
F 7

$$$$
=
 OpenBabel11062421153D

 33 36  0  0  1  0  0  0  0  0999 V2000
  193.8540  176.1770  142.6430 C   0  0  0  0  0  2  0  0  0  0  0  0
  188.4550  175.5700  142.4060 C   0  0  0  0  0  0  0  0  0  0  0  0
  192.7640  176.0240  143.6880 C   0  0  2  0  0  3  0  0  0  0  0  0
  186.3360  176.3610  141.5460 N   0  0  0  0  0  0  0  0  0  0  0  0
  186.9720  175.4080  142.4410 C   0  0  0  0  0  2  0  0  0  0  0  0
  193.1400  174.8230  144.5510 C   0  0  1  0  0  3  0  0  0  0  0  0
  189.9750  173.6530  142.9950 C   0  0  0  0  0  2  0  0  0  0  0  0
  192.0010  173.8220  144.4490 C   0  0  0  0  0  2  0  0  0  0  0  0
  187.0610  178.2930  142.8580 C   0  0  0  0  0  0  0  0  0  0  0  0
  189.2320  174.3990  141.8820 C   0  0  0  0  0  2  0  0  0  0  0  0
  188.2540  177.8690  143.3170 C   0  0  0  0  0  3  0  0  0  0  0  0
  190.8340  174.5790  143.8560 C   0  0  1  0  0  3  0  0  0  0  0  0
  185.6120  178.4700  140.8300 N   0  0  0  0  0  1  0  0  0  0  0  0
  186.3560  177.6480  141.7240 C   0  0  0  0  0  0  0  0  0  0  0  0
  194.5860  174.8510  142.5900 C   0  0  0  0  0  2  0  0  0  0  0  0
  190.5450  176.9200  142.9410 C   0  0  0  0  0  2  0  0  0  0  0  0
  189.0430  176.7040  142.8570 C   0  0  0  0  0  0  0  0  0  0  0  0
  194.4090  174.2200  143.9600 C   0  0  1  0  0  3  0  0  0  0  0  0
  191.4450  175.6840  143.0230 C   0  0  1  0  0  3  0  0  0  0  0  0
  196.0880  173.5080  145.6880 C   0  0  0  0  0  0  0  0  0  0  0  0
  195.5760  174.5040  144.7970 N   0  0  0  0  0  0  0  0  0  0  0  0
  197.1900  173.7900  146.4860 O   0  0  0  0  0  1  0  0  0  0  0  0
  195.5470  172.3720  145.7600 O   0  0  0  0  0  0  0  0  0  0  0  0
  196.2140  175.6970  144.7070 O   0  0  0  0  0  1  0  0  0  0  0  0
  186.4710  179.4430  143.4050 O   0  0  0  0  0  0  0  0  0  0  0  0
  185.2720  179.4300  144.1740 C   0  0  0  0  0  2  0  0  0  0  0  0
  185.5690  179.0200  145.6070 C   0  0  0  0  0  2  0  0  0  0  0  0
  185.5030  177.5030  145.7370 C   0  0  0  0  0  2  0  0  0  0  0  0
  185.9490  177.8280  148.1340 N   0  0  0  0  0  1  0  0  0  0  0  0
  186.2130  176.9730  146.9870 C   0  0  2  0  0  3  0  0  0  0  0  0
  188.4920  177.6420  147.2340 O   0  0  0  0  0  1  0  0  0  0  0  0
  187.6850  176.7890  146.7780 C   0  0  0  0  0  0  0  0  0  0  0  0
  188.1720  175.6660  146.1170 O   0  0  0  0  0  0  0  0  0  0  0  0
  2  5  1  0  0  0  0
  2 17  2  0  0  0  0
  3  1  1  6  0  0  0
  3  6  1  0  0  0  0
  4 14  2  0  0  0  0
  4  5  1  0  0  0  0
  6  8  1  6  0  0  0
  9 11  2  0  0  0  0
  9 25  1  0  0  0  0
 10  2  1  0  0  0  0
 10  7  1  0  0  0  0
 12  7  1  6  0  0  0
 12  8  1  0  0  0  0
 13 14  1  0  0  0  0
 14  9  1  0  0  0  0
 15  1  1  0  0  0  0
 15 18  1  0  0  0  0
 17 16  1  0  0  0  0
 17 11  1  0  0  0  0
 18  6  1  0  0  0  0
 18 21  1  1  0  0  0
 19 16  1  1  0  0  0
 19  3  1  0  0  0  0
 19 12  1  0  0  0  0
 20 23  2  0  0  0  0
 20 22  1  0  0  0  0
 21 20  1  0  0  0  0
 24 21  1  0  0  0  0
 25 26  1  0  0  0  0
 26 27  1  0  0  0  0
 27 28  1  0  0  0  0
 28 30  1  0  0  0  0
 30 29  1  1  0  0  0
 32 30  1  0  0  0  0
 32 31  1  0  0  0  0
 33 32  2  0  0  0  0
M  END
>  <MODEL>
7

>  <REMARK>
 VINA RESULT:      -6.4      2.091      3.884
  Name = 
  7 active torsions:
  status: ('A' for Active; 'I' for Inactive)
    1  A    between atoms: C_5  and  C_6
    2  A    between atoms: C_5  and  C_13
    3  A    between atoms: C_6  and  CA_24
    4  A    between atoms: N_9  and  C_32
    5  A    between atoms: C_13  and  O_22
    6  A    between atoms: C_18  and  O_22
    7  A    between atoms: CA_24  and  C_29
                            x       y       z     vdW  Elec       q    Type
                         _______ _______ _______ _____ _____    ______ ____

>  <TORSDO>
F 7

$$$$
=
 OpenBabel11062421153D

 33 36  0  0  1  0  0  0  0  0999 V2000
  187.3730  178.5580  142.1200 C   0  0  0  0  0  2  0  0  0  0  0  0
  189.9460  176.1960  146.2880 C   0  0  0  0  0  0  0  0  0  0  0  0
  187.3210  177.1750  142.7430 C   0  0  2  0  0  3  0  0  0  0  0  0
  192.0440  175.6730  147.3760 N   0  0  0  0  0  0  0  0  0  0  0  0
  190.6050  175.4610  147.4070 C   0  0  0  0  0  2  0  0  0  0  0  0
  185.8690  176.9170  143.1320 C   0  0  1  0  0  3  0  0  0  0  0  0
  187.5370  176.9010  146.4520 C   0  0  0  0  0  2  0  0  0  0  0  0
  185.8430  176.6610  144.6300 C   0  0  0  0  0  2  0  0  0  0  0  0
  192.3130  174.4990  145.2480 C   0  0  0  0  0  0  0  0  0  0  0  0
  189.0000  177.2890  146.6860 C   0  0  0  0  0  2  0  0  0  0  0  0
  191.1590  174.8080  144.6270 C   0  0  0  0  0  3  0  0  0  0  0  0
  187.2770  176.4000  145.0330 C   0  0  1  0  0  3  0  0  0  0  0  0
  194.2250  175.4270  146.5610 N   0  0  0  0  0  1  0  0  0  0  0  0
  192.8200  175.2400  146.4270 C   0  0  0  0  0  0  0  0  0  0  0  0
  186.1090  179.2710  142.5530 C   0  0  0  0  0  2  0  0  0  0  0  0
  189.4870  176.4850  143.8020 C   0  0  0  0  0  2  0  0  0  0  0  0
  190.1790  175.8530  144.9980 C   0  0  0  0  0  0  0  0  0  0  0  0
  185.0820  178.1830  142.8130 C   0  0  1  0  0  3  0  0  0  0  0  0
  188.1250  177.1480  144.0280 C   0  0  1  0  0  3  0  0  0  0  0  0
  182.8320  178.2860  141.6990 C   0  0  0  0  0  0  0  0  0  0  0  0
  184.2340  178.0030  141.6340 N   0  0  0  0  0  0  0  0  0  0  0  0
  182.0330  178.1020  140.5770 O   0  0  0  0  0  0  0  0  0  0  0  0
  182.3100  178.7010  142.7690 O   0  0  0  0  0  1  0  0  0  0  0  0
  184.7710  177.6080  140.4530 O   0  0  0  0  0  1  0  0  0  0  0  0
  193.1340  173.4840  144.7320 O   0  0  0  0  0  0  0  0  0  0  0  0
  193.0900  173.0400  143.3790 C   0  0  0  0  0  2  0  0  0  0  0  0
  194.4980  172.8820  142.8300 C   0  0  0  0  0  2  0  0  0  0  0  0
  195.4520  173.8130  143.5700 C   0  0  0  0  0  2  0  0  0  0  0  0
  197.0170  171.9340  143.3090 N   0  0  0  0  0  1  0  0  0  0  0  0
  196.6890  173.0970  144.1200 C   0  0  2  0  0  3  0  0  0  0  0  0
  195.9200  171.6770  145.8790 O   0  0  0  0  0  0  0  0  0  0  0  0
  196.5450  172.7250  145.5640 C   0  0  0  0  0  0  0  0  0  0  0  0
  197.1260  173.5050  146.5580 O   0  0  0  0  0  1  0  0  0  0  0  0
  1 15  1  0  0  0  0
  2 10  1  0  0  0  0
  2  5  1  0  0  0  0
  3  1  1  1  0  0  0
  3  6  1  0  0  0  0
  3 19  1  0  0  0  0
  4  5  1  0  0  0  0
  6  8  1  1  0  0  0
  7 10  1  0  0  0  0
  9 14  1  0  0  0  0
 11 17  1  0  0  0  0
 11  9  2  0  0  0  0
 12  8  1  6  0  0  0
 12  7  1  0  0  0  0
 14 13  1  0  0  0  0
 14  4  2  0  0  0  0
 15 18  1  0  0  0  0
 16 17  1  0  0  0  0
 17  2  2  0  0  0  0
 18 21  1  6  0  0  0
 18  6  1  0  0  0  0
 19 16  1  6  0  0  0
 19 12  1  0  0  0  0
 20 23  1  0  0  0  0
 21 20  1  0  0  0  0
 22 20  2  0  0  0  0
 24 21  1  0  0  0  0
 25  9  1  0  0  0  0
 26 25  1  0  0  0  0
 27 26  1  0  0  0  0
 27 28  1  0  0  0  0
 28 30  1  0  0  0  0
 30 29  1  6  0  0  0
 30 32  1  0  0  0  0
 32 31  2  0  0  0  0
 32 33  1  0  0  0  0
M  END
>  <MODEL>
8

>  <REMARK>
 VINA RESULT:      -6.4      2.704      9.096
  Name = 
  7 active torsions:
  status: ('A' for Active; 'I' for Inactive)
    1  A    between atoms: C_5  and  C_6
    2  A    between atoms: C_5  and  C_13
    3  A    between atoms: C_6  and  CA_24
    4  A    between atoms: N_9  and  C_32
    5  A    between atoms: C_13  and  O_22
    6  A    between atoms: C_18  and  O_22
    7  A    between atoms: CA_24  and  C_29
                            x       y       z     vdW  Elec       q    Type
                         _______ _______ _______ _____ _____    ______ ____

>  <TORSDO>
F 7

$$$$
=
 OpenBabel11062421153D

 33 36  0  0  1  0  0  0  0  0999 V2000
  187.3600  176.1310  142.9330 C   0  0  0  0  0  2  0  0  0  0  0  0
  192.7520  175.4720  143.1940 C   0  0  0  0  0  0  0  0  0  0  0  0
  188.3420  175.9220  144.0710 C   0  0  2  0  0  3  0  0  0  0  0  0
  194.7160  174.2920  142.4160 N   0  0  0  0  0  0  0  0  0  0  0  0
  194.2220  175.2770  143.3650 C   0  0  0  0  0  2  0  0  0  0  0  0
  188.1590  177.0890  145.0370 C   0  0  1  0  0  3  0  0  0  0  0  0
  191.6490  177.6260  143.8840 C   0  0  0  0  0  2  0  0  0  0  0  0
  189.4980  177.7990  145.1440 C   0  0  0  0  0  2  0  0  0  0  0  0
  193.4430  172.4680  143.4290 C   0  0  0  0  0  0  0  0  0  0  0  0
  192.3170  176.8380  142.7520 C   0  0  0  0  0  2  0  0  0  0  0  0
  192.3350  173.1140  143.8400 C   0  0  0  0  0  3  0  0  0  0  0  0
  190.5200  176.8500  144.5590 C   0  0  1  0  0  3  0  0  0  0  0  0
  195.0170  172.1510  141.5160 N   0  0  0  0  0  1  0  0  0  0  0  0
  194.3880  173.0350  142.4390 C   0  0  0  0  0  0  0  0  0  0  0  0
  186.9550  177.5900  142.9800 C   0  0  0  0  0  2  0  0  0  0  0  0
  190.3680  174.6060  143.4000 C   0  0  0  0  0  2  0  0  0  0  0  0
  191.8800  174.4700  143.4610 C   0  0  0  0  0  0  0  0  0  0  0  0
  187.1270  178.0270  144.4240 C   0  0  1  0  0  3  0  0  0  0  0  0
  189.7660  176.0050  143.5570 C   0  0  1  0  0  3  0  0  0  0  0  0
  184.9020  179.0190  145.0400 C   0  0  0  0  0  0  0  0  0  0  0  0
  185.8450  177.9460  145.1270 N   0  0  0  0  0  0  0  0  0  0  0  0
  183.6920  178.9380  145.7190 O   0  0  0  0  0  1  0  0  0  0  0  0
  185.1570  180.0440  144.3520 O   0  0  0  0  0  0  0  0  0  0  0  0
  185.5170  176.8360  145.8330 O   0  0  0  0  0  1  0  0  0  0  0  0
  193.6990  171.1640  143.8820 O   0  0  0  0  0  0  0  0  0  0  0  0
  194.9170  170.7650  144.5040 C   0  0  0  0  0  2  0  0  0  0  0  0
  195.2310  171.6750  145.6790 C   0  0  0  0  0  2  0  0  0  0  0  0
  196.7390  171.8650  145.8010 C   0  0  0  0  0  2  0  0  0  0  0  0
  196.1260  174.2230  146.1320 N   0  0  0  0  0  1  0  0  0  0  0  0
  197.1770  173.3270  145.6720 C   0  0  2  0  0  3  0  0  0  0  0  0
  197.7480  174.8870  143.9570 O   0  0  0  0  0  1  0  0  0  0  0  0
  197.6150  173.6770  144.2830 C   0  0  0  0  0  0  0  0  0  0  0  0
  197.9120  172.6790  143.3610 O   0  0  0  0  0  0  0  0  0  0  0  0
  1 15  1  0  0  0  0
  2  5  1  0  0  0  0
  2 17  2  0  0  0  0
  3  1  1  6  0  0  0
  3  6  1  0  0  0  0
  4 14  2  0  0  0  0
  4  5  1  0  0  0  0
  6  8  1  6  0  0  0
  9 11  2  0  0  0  0
  9 25  1  0  0  0  0
 10  2  1  0  0  0  0
 10  7  1  0  0  0  0
 12  7  1  6  0  0  0
 12  8  1  0  0  0  0
 13 14  1  0  0  0  0
 14  9  1  0  0  0  0
 15 18  1  0  0  0  0
 16 17  1  0  0  0  0
 17 11  1  0  0  0  0
 18  6  1  0  0  0  0
 18 21  1  1  0  0  0
 19 16  1  1  0  0  0
 19  3  1  0  0  0  0
 19 12  1  0  0  0  0
 20 21  1  0  0  0  0
 20 22  1  0  0  0  0
 21 24  1  0  0  0  0
 23 20  2  0  0  0  0
 25 26  1  0  0  0  0
 26 27  1  0  0  0  0
 27 28  1  0  0  0  0
 30 28  1  0  0  0  0
 30 29  1  6  0  0  0
 31 32  1  0  0  0  0
 32 30  1  0  0  0  0
 33 32  2  0  0  0  0
M  END
>  <MODEL>
9

>  <REMARK>
 VINA RESULT:      -6.3      2.391      9.490
  Name = 
  7 active torsions:
  status: ('A' for Active; 'I' for Inactive)
    1  A    between atoms: C_5  and  C_6
    2  A    between atoms: C_5  and  C_13
    3  A    between atoms: C_6  and  CA_24
    4  A    between atoms: N_9  and  C_32
    5  A    between atoms: C_13  and  O_22
    6  A    between atoms: C_18  and  O_22
    7  A    between atoms: CA_24  and  C_29
                            x       y       z     vdW  Elec       q    Type
                         _______ _______ _______ _____ _____    ______ ____

>  <TORSDO>
F 7

$$$$
