=
 OpenBabel11062422453D

 29 32  0  0  1  0  0  0  0  0999 V2000
  189.9880  175.0420  147.3710 C   0  0  0  0  0  3  0  0  0  0  0  0
  188.7120  176.0990  142.6000 C   0  0  2  0  0  3  0  0  0  0  0  0
  187.2930  177.6150  144.6170 C   0  0  0  0  0  3  0  0  0  0  0  0
  193.4930  175.8100  145.7410 C   0  0  0  0  0  0  0  0  0  0  0  0
  191.3800  175.3010  144.4500 C   0  0  0  0  0  2  0  0  0  0  0  0
  194.8760  176.2880  145.4400 C   0  0  0  0  0  2  0  0  0  0  0  0
  193.7130  176.0800  143.5370 C   0  0  0  0  0  0  0  0  0  0  0  0
  189.1830  176.0540  144.0710 C   0  0  2  0  0  3  0  0  0  0  0  0
  193.3700  176.1070  142.0890 C   0  0  0  0  0  1  0  0  0  0  0  0
  189.8510  177.3170  146.8760 N   0  0  0  0  0  0  0  0  0  0  0  0
  188.3280  176.8760  145.0430 C   0  0  0  0  0  0  0  0  0  0  0  0
  187.2280  176.4200  142.4660 C   0  0  0  0  0  2  0  0  0  0  0  0
  190.6190  176.3830  147.3110 C   0  0  0  0  0  0  0  0  0  0  0  0
  192.9780  175.5710  147.1270 C   0  0  0  0  0  2  0  0  0  0  0  0
  192.0170  176.6020  147.4820 N   0  0  0  0  0  2  0  0  0  0  0  0
  192.8150  175.6920  144.6060 C   0  0  0  0  0  0  0  0  0  0  0  0
  188.5440  176.7930  146.5310 C   0  0  1  0  0  3  0  0  0  0  0  0
  190.5760  176.4760  144.1410 N   0  0  0  0  0  2  0  0  0  0  0  0
  186.9520  177.7420  143.1650 C   0  0  1  0  0  3  0  0  0  0  0  0
  194.8740  176.4180  143.9850 N   0  0  0  0  0  0  0  0  0  0  0  0
  188.5440  175.3370  146.9940 C   0  0  0  0  0  3  0  0  0  0  0  0
  188.8120  173.2400  142.8710 N   0  0  0  0  0  1  0  0  0  0  0  0
  188.1560  174.3940  140.5920 O   0  0  0  0  0  0  0  0  0  0  0  0
  190.4910  174.5410  141.3060 O   0  0  0  0  0  0  0  0  0  0  0  0
  189.0660  174.5540  141.7780 S   0  0  0  0  0  0  0  0  0  0  0  0
  185.4900  178.1310  143.0190 C   0  0  0  0  0  2  0  0  0  0  0  0
  185.5990  180.2960  143.9490 O   0  0  0  0  0  0  0  0  0  0  0  0
  184.1430  178.8570  145.0990 C   0  0  0  0  0  1  0  0  0  0  0  0
  185.1080  179.1810  144.0130 C   0  0  0  0  0  0  0  0  0  0  0  0
  2 25  1  1  0  0  0
  2  8  1  0  0  0  0
  3 11  2  0  0  0  0
  4 14  1  0  0  0  0
  5 16  1  0  0  0  0
  6  4  1  0  0  0  0
  7 20  2  0  0  0  0
  7 16  1  0  0  0  0
  8 18  1  6  0  0  0
  8 11  1  0  0  0  0
  9  7  1  0  0  0  0
 10 13  2  0  0  0  0
 11 17  1  0  0  0  0
 12  2  1  0  0  0  0
 12 19  1  0  0  0  0
 13  1  1  0  0  0  0
 13 15  1  0  0  0  0
 14 15  1  0  0  0  0
 16  4  2  0  0  0  0
 17 10  1  0  0  0  0
 17 21  1  6  0  0  0
 18  5  1  0  0  0  0
 19 26  1  1  0  0  0
 19  3  1  0  0  0  0
 20  6  1  0  0  0  0
 21  1  2  0  0  0  0
 23 25  2  0  0  0  0
 24 25  2  0  0  0  0
 25 22  1  0  0  0  0
 26 29  1  0  0  0  0
 27 29  2  0  0  0  0
 29 28  1  0  0  0  0
M  END
>  <MODEL>
1

>  <REMARK>
 VINA RESULT:      -8.0      0.000      0.000
  Name = 
  3 active torsions:
  status: ('A' for Active; 'I' for Inactive)
    1  A    between atoms: C_2  and  S_21
    2  A    between atoms: C_22  and  C_26
    3  A    between atoms: C_26  and  C_27
                            x       y       z     vdW  Elec       q    Type
                         _______ _______ _______ _____ _____    ______ ____

>  <TORSDO>
F 3

$$$$
=
 OpenBabel11062422453D

 29 32  0  0  1  0  0  0  0  0999 V2000
  190.4260  175.0080  147.4210 C   0  0  0  0  0  3  0  0  0  0  0  0
  188.6050  175.3250  142.7220 C   0  0  2  0  0  3  0  0  0  0  0  0
  187.3260  177.0590  144.6550 C   0  0  0  0  0  3  0  0  0  0  0  0
  193.6960  175.6660  145.3220 C   0  0  0  0  0  0  0  0  0  0  0  0
  191.4890  174.8990  144.3570 C   0  0  0  0  0  2  0  0  0  0  0  0
  195.0130  176.1470  144.8060 C   0  0  0  0  0  2  0  0  0  0  0  0
  193.6700  175.6260  143.0910 C   0  0  0  0  0  0  0  0  0  0  0  0
  189.2280  175.5080  144.1240 C   0  0  2  0  0  3  0  0  0  0  0  0
  193.1760  175.4320  141.7010 C   0  0  0  0  0  1  0  0  0  0  0  0
  190.1190  177.1830  146.6360 N   0  0  0  0  0  0  0  0  0  0  0  0
  188.4380  176.4280  145.0610 C   0  0  0  0  0  0  0  0  0  0  0  0
  187.1000  175.5680  142.7110 C   0  0  0  0  0  2  0  0  0  0  0  0
  190.9770  176.3500  147.1070 C   0  0  0  0  0  0  0  0  0  0  0  0
  193.3430  175.6080  146.7770 C   0  0  0  0  0  2  0  0  0  0  0  0
  192.3720  176.6430  147.0900 N   0  0  0  0  0  2  0  0  0  0  0  0
  192.9100  175.3610  144.2970 C   0  0  0  0  0  0  0  0  0  0  0  0
  188.8120  176.5670  146.5130 C   0  0  1  0  0  3  0  0  0  0  0  0
  190.5970  175.9870  143.9800 N   0  0  0  0  0  2  0  0  0  0  0  0
  186.8300  176.9650  143.2460 C   0  0  1  0  0  3  0  0  0  0  0  0
  194.8520  176.0670  143.3570 N   0  0  0  0  0  0  0  0  0  0  0  0
  188.9370  175.1930  147.1710 C   0  0  0  0  0  3  0  0  0  0  0  0
  190.2770  173.7650  140.9830 N   0  0  0  0  0  1  0  0  0  0  0  0
  189.3020  172.7730  143.2230 O   0  0  0  0  0  0  0  0  0  0  0  0
  187.7410  173.1530  141.3780 O   0  0  0  0  0  0  0  0  0  0  0  0
  188.9500  173.6920  142.0870 S   0  0  0  0  0  0  0  0  0  0  0  0
  185.3410  177.2750  143.2120 C   0  0  0  0  0  2  0  0  0  0  0  0
  185.6190  179.6150  143.2980 O   0  0  0  0  0  0  0  0  0  0  0  0
  184.1100  178.7930  144.8980 C   0  0  0  0  0  1  0  0  0  0  0  0
  185.0600  178.6350  143.7630 C   0  0  0  0  0  0  0  0  0  0  0  0
  2 25  1  1  0  0  0
  2  8  1  0  0  0  0
  3 11  2  0  0  0  0
  4 14  1  0  0  0  0
  6  4  1  0  0  0  0
  7 20  2  0  0  0  0
  7 16  1  0  0  0  0
  8 18  1  6  0  0  0
  8 11  1  0  0  0  0
  9  7  1  0  0  0  0
 10 13  2  0  0  0  0
 11 17  1  0  0  0  0
 12  2  1  0  0  0  0
 12 19  1  0  0  0  0
 13  1  1  0  0  0  0
 14 15  1  0  0  0  0
 15 13  1  0  0  0  0
 16  5  1  0  0  0  0
 16  4  2  0  0  0  0
 17 10  1  0  0  0  0
 17 21  1  6  0  0  0
 18  5  1  0  0  0  0
 19 26  1  1  0  0  0
 19  3  1  0  0  0  0
 20  6  1  0  0  0  0
 21  1  2  0  0  0  0
 22 25  1  0  0  0  0
 24 25  2  0  0  0  0
 25 23  2  0  0  0  0
 26 29  1  0  0  0  0
 27 29  2  0  0  0  0
 29 28  1  0  0  0  0
M  END
>  <MODEL>
2

>  <REMARK>
 VINA RESULT:      -7.8      0.958      1.121
  Name = 
  3 active torsions:
  status: ('A' for Active; 'I' for Inactive)
    1  A    between atoms: C_2  and  S_21
    2  A    between atoms: C_22  and  C_26
    3  A    between atoms: C_26  and  C_27
                            x       y       z     vdW  Elec       q    Type
                         _______ _______ _______ _____ _____    ______ ____

>  <TORSDO>
F 3

$$$$
=
 OpenBabel11062422453D

 29 32  0  0  1  0  0  0  0  0999 V2000
  187.1680  176.1470  141.8450 C   0  0  0  0  0  3  0  0  0  0  0  0
  190.1990  176.3820  145.8770 C   0  0  2  0  0  3  0  0  0  0  0  0
  191.3670  177.3300  143.4040 C   0  0  0  0  0  3  0  0  0  0  0  0
  184.9420  178.1300  144.4230 C   0  0  0  0  0  0  0  0  0  0  0  0
  186.9900  176.7760  145.0240 C   0  0  0  0  0  2  0  0  0  0  0  0
  184.0220  179.0900  145.1030 C   0  0  0  0  0  3  0  0  0  0  0  0
  185.5570  178.3510  146.5570 C   0  0  0  0  0  0  0  0  0  0  0  0
  189.3050  176.5980  144.6360 C   0  0  2  0  0  3  0  0  0  0  0  0
  186.3260  178.1690  147.8180 C   0  0  0  0  0  1  0  0  0  0  0  0
  188.3150  178.1620  142.0900 N   0  0  0  0  0  0  0  0  0  0  0  0
  190.0510  177.0730  143.3840 C   0  0  0  0  0  0  0  0  0  0  0  0
  191.6510  176.0960  145.5140 C   0  0  0  0  0  2  0  0  0  0  0  0
  187.1530  177.6230  141.9930 C   0  0  0  0  0  0  0  0  0  0  0  0
  184.8550  177.7800  142.9690 C   0  0  0  0  0  2  0  0  0  0  0  0
  185.9700  178.3750  142.2510 N   0  0  0  0  0  2  0  0  0  0  0  0
  185.8460  177.7000  145.2940 C   0  0  1  0  0  3  0  0  0  0  0  0
  189.3580  177.1560  142.0490 C   0  0  1  0  0  3  0  0  0  0  0  0
  188.2360  177.5300  144.9720 N   0  0  0  0  0  2  0  0  0  0  0  0
  192.1740  177.2400  144.6620 C   0  0  1  0  0  3  0  0  0  0  0  0
  184.5370  179.1350  146.4690 N   0  0  0  0  0  0  0  0  0  0  0  0
  188.6530  175.8390  141.7260 C   0  0  0  0  0  3  0  0  0  0  0  0
  189.5060  173.5950  145.9670 N   0  0  0  0  0  1  0  0  0  0  0  0
  190.4580  174.8540  148.0790 O   0  0  0  0  0  0  0  0  0  0  0  0
  188.1810  175.3950  147.3680 O   0  0  0  0  0  0  0  0  0  0  0  0
  189.5630  175.0550  146.8890 S   0  0  0  0  0  0  0  0  0  0  0  0
  193.6380  177.0240  144.3110 C   0  0  0  0  0  2  0  0  0  0  0  0
  194.6070  177.6930  146.3550 O   0  0  0  0  0  0  0  0  0  0  0  0
  195.1210  175.4820  145.7560 C   0  0  0  0  0  1  0  0  0  0  0  0
  194.4600  176.7980  145.5390 C   0  0  0  0  0  0  0  0  0  0  0  0
  1 13  1  0  0  0  0
  2 25  1  6  0  0  0
  3 19  1  0  0  0  0
  4  6  2  0  0  0  0
  4 16  1  0  0  0  0
  6 20  1  0  0  0  0
  7  9  1  0  0  0  0
  8 11  1  6  0  0  0
  8 18  1  0  0  0  0
  8  2  1  0  0  0  0
 11  3  2  0  0  0  0
 12  2  1  0  0  0  0
 13 10  2  0  0  0  0
 13 15  1  0  0  0  0
 14  4  1  0  0  0  0
 15 14  1  0  0  0  0
 16  5  1  6  0  0  0
 16  7  1  0  0  0  0
 17 21  1  1  0  0  0
 17 10  1  0  0  0  0
 17 11  1  0  0  0  0
 18  5  1  0  0  0  0
 19 26  1  6  0  0  0
 19 12  1  0  0  0  0
 20  7  2  0  0  0  0
 21  1  2  0  0  0  0
 22 25  1  0  0  0  0
 25 24  2  0  0  0  0
 25 23  2  0  0  0  0
 26 29  1  0  0  0  0
 29 28  1  0  0  0  0
 29 27  2  0  0  0  0
M  END
>  <MODEL>
3

>  <REMARK>
 VINA RESULT:      -7.8      3.198      7.230
  Name = 
  3 active torsions:
  status: ('A' for Active; 'I' for Inactive)
    1  A    between atoms: C_2  and  S_21
    2  A    between atoms: C_22  and  C_26
    3  A    between atoms: C_26  and  C_27
                            x       y       z     vdW  Elec       q    Type
                         _______ _______ _______ _____ _____    ______ ____

>  <TORSDO>
F 3

$$$$
=
 OpenBabel11062422453D

 29 32  0  0  1  0  0  0  0  0999 V2000
  191.6100  175.0180  147.3930 C   0  0  0  0  0  3  0  0  0  0  0  0
  189.1590  175.3340  142.9900 C   0  0  2  0  0  3  0  0  0  0  0  0
  188.1850  177.0970  145.0680 C   0  0  0  0  0  3  0  0  0  0  0  0
  194.5670  175.6180  144.8560 C   0  0  0  0  0  0  0  0  0  0  0  0
  192.2370  174.8760  144.2120 C   0  0  0  0  0  2  0  0  0  0  0  0
  195.8050  176.0770  144.1600 C   0  0  0  0  0  2  0  0  0  0  0  0
  194.2300  175.5650  142.6510 C   0  0  0  0  0  0  0  0  0  0  0  0
  189.9740  175.5170  144.2890 C   0  0  2  0  0  3  0  0  0  0  0  0
  193.5470  175.3710  141.3440 C   0  0  0  0  0  1  0  0  0  0  0  0
  191.2260  177.1920  146.6420 N   0  0  0  0  0  0  0  0  0  0  0  0
  189.3330  176.4520  145.3210 C   0  0  0  0  0  0  0  0  0  0  0  0
  187.6710  175.5990  143.1850 C   0  0  0  0  0  2  0  0  0  0  0  0
  192.1300  176.3500  146.9960 C   0  0  0  0  0  0  0  0  0  0  0  0
  194.4170  175.5730  146.3460 C   0  0  0  0  0  2  0  0  0  0  0  0
  193.5130  176.6230  146.7840 N   0  0  0  0  0  2  0  0  0  0  0  0
  193.6420  175.3180  143.9530 C   0  0  0  0  0  0  0  0  0  0  0  0
  189.9070  176.5940  146.7060 C   0  0  1  0  0  3  0  0  0  0  0  0
  191.3160  175.9750  143.9540 N   0  0  0  0  0  2  0  0  0  0  0  0
  187.4960  177.0020  143.7420 C   0  0  1  0  0  3  0  0  0  0  0  0
  195.4440  175.9910  142.7480 N   0  0  0  0  0  0  0  0  0  0  0  0
  190.1030  175.2220  147.3500 C   0  0  0  0  0  3  0  0  0  0  0  0
  189.6380  172.5700  143.6150 N   0  0  0  0  0  1  0  0  0  0  0  0
  188.1750  173.2880  141.5420 O   0  0  0  0  0  0  0  0  0  0  0  0
  190.5870  173.6750  141.4150 O   0  0  0  0  0  0  0  0  0  0  0  0
  189.3920  173.6930  142.3250 S   0  0  0  0  0  0  0  0  0  0  0  0
  186.0220  177.3320  143.9120 C   0  0  0  0  0  2  0  0  0  0  0  0
  185.6800  178.7560  142.0630 O   0  0  0  0  0  0  0  0  0  0  0  0
  185.3790  179.8230  144.1330 C   0  0  0  0  0  1  0  0  0  0  0  0
  185.6860  178.6440  143.2780 C   0  0  0  0  0  0  0  0  0  0  0  0
  2 25  1  1  0  0  0
  2 12  1  0  0  0  0
  2  8  1  0  0  0  0
  3 11  2  0  0  0  0
  4 14  1  0  0  0  0
  6  4  1  0  0  0  0
  7 20  2  0  0  0  0
  7 16  1  0  0  0  0
  8 18  1  6  0  0  0
  8 11  1  0  0  0  0
  9  7  1  0  0  0  0
 10 17  1  0  0  0  0
 10 13  2  0  0  0  0
 11 17  1  0  0  0  0
 12 19  1  0  0  0  0
 13  1  1  0  0  0  0
 14 15  1  0  0  0  0
 15 13  1  0  0  0  0
 16  5  1  0  0  0  0
 16  4  2  0  0  0  0
 17 21  1  6  0  0  0
 18  5  1  0  0  0  0
 19 26  1  1  0  0  0
 19  3  1  0  0  0  0
 20  6  1  0  0  0  0
 21  1  2  0  0  0  0
 23 25  2  0  0  0  0
 24 25  2  0  0  0  0
 25 22  1  0  0  0  0
 27 29  2  0  0  0  0
 29 26  1  0  0  0  0
 29 28  1  0  0  0  0
M  END
>  <MODEL>
4

>  <REMARK>
 VINA RESULT:      -7.5      1.191      1.363
  Name = 
  3 active torsions:
  status: ('A' for Active; 'I' for Inactive)
    1  A    between atoms: C_2  and  S_21
    2  A    between atoms: C_22  and  C_26
    3  A    between atoms: C_26  and  C_27
                            x       y       z     vdW  Elec       q    Type
                         _______ _______ _______ _____ _____    ______ ____

>  <TORSDO>
F 3

$$$$
=
 OpenBabel11062422453D

 29 32  0  0  1  0  0  0  0  0999 V2000
  189.7320  173.3460  140.5360 C   0  0  0  0  0  3  0  0  0  0  0  0
  190.0440  176.7340  144.2670 C   0  0  2  0  0  3  0  0  0  0  0  0
  187.3540  175.9380  143.5510 C   0  0  0  0  0  3  0  0  0  0  0  0
  192.2280  171.5870  143.0290 C   0  0  0  0  0  0  0  0  0  0  0  0
  191.6280  174.0430  143.0770 C   0  0  0  0  0  2  0  0  0  0  0  0
  192.9710  170.6210  143.8920 C   0  0  0  0  0  2  0  0  0  0  0  0
  193.0540  172.6680  144.7980 C   0  0  0  0  0  0  0  0  0  0  0  0
  189.8210  175.5300  143.3260 C   0  0  2  0  0  3  0  0  0  0  0  0
  193.3650  173.7750  145.7410 C   0  0  0  0  0  1  0  0  0  0  0  0
  188.3910  172.8870  142.3890 N   0  0  0  0  0  0  0  0  0  0  0  0
  188.3540  175.2320  143.0020 C   0  0  0  0  0  0  0  0  0  0  0  0
  188.8950  177.7360  144.2240 C   0  0  0  0  0  2  0  0  0  0  0  0
  189.3310  172.4350  141.6370 C   0  0  0  0  0  0  0  0  0  0  0  0
  191.5000  171.1980  141.7790 C   0  0  0  0  0  2  0  0  0  0  0  0
  190.0660  171.2690  142.0000 N   0  0  0  0  0  2  0  0  0  0  0  0
  192.2850  172.7950  143.5760 C   0  0  0  0  0  0  0  0  0  0  0  0
  187.9770  174.2100  141.9620 C   0  0  1  0  0  3  0  0  0  0  0  0
  190.4640  174.3520  143.8950 N   0  0  0  0  0  2  0  0  0  0  0  0
  187.6050  177.0100  144.5660 C   0  0  1  0  0  3  0  0  0  0  0  0
  193.4480  171.4550  144.9910 N   0  0  0  0  0  0  0  0  0  0  0  0
  188.7200  174.4760  140.6530 C   0  0  0  0  0  3  0  0  0  0  0  0
  192.7790  177.1470  145.0450 N   0  0  0  0  0  1  0  0  0  0  0  0
  192.0440  177.1460  142.5120 O   0  0  0  0  0  0  0  0  0  0  0  0
  191.3670  179.0520  143.8880 O   0  0  0  0  0  0  0  0  0  0  0  0
  191.5760  177.5650  143.8770 S   0  0  0  0  0  0  0  0  0  0  0  0
  186.4320  177.9770  144.5820 C   0  0  0  0  0  2  0  0  0  0  0  0
  185.7710  179.0690  146.5650 O   0  0  0  0  0  0  0  0  0  0  0  0
  185.1910  176.7940  146.5130 C   0  0  0  0  0  1  0  0  0  0  0  0
  185.7900  178.0270  145.9310 C   0  0  0  0  0  0  0  0  0  0  0  0
  1 21  2  0  0  0  0
  1 13  1  0  0  0  0
  2 25  1  6  0  0  0
  3 19  1  0  0  0  0
  4 16  2  0  0  0  0
  4  6  1  0  0  0  0
  5 16  1  0  0  0  0
  5 18  1  0  0  0  0
  6 20  1  0  0  0  0
  7 20  2  0  0  0  0
  7  9  1  0  0  0  0
  8 11  1  1  0  0  0
  8 18  1  0  0  0  0
  8  2  1  0  0  0  0
 11  3  2  0  0  0  0
 12  2  1  0  0  0  0
 12 19  1  0  0  0  0
 13 15  1  0  0  0  0
 13 10  2  0  0  0  0
 14 15  1  0  0  0  0
 14  4  1  0  0  0  0
 16  7  1  0  0  0  0
 17 21  1  6  0  0  0
 17 10  1  0  0  0  0
 17 11  1  0  0  0  0
 19 26  1  6  0  0  0
 23 25  2  0  0  0  0
 25 24  2  0  0  0  0
 25 22  1  0  0  0  0
 26 29  1  0  0  0  0
 29 28  1  0  0  0  0
 29 27  2  0  0  0  0
M  END
>  <MODEL>
5

>  <REMARK>
 VINA RESULT:      -6.9      2.993      4.649
  Name = 
  3 active torsions:
  status: ('A' for Active; 'I' for Inactive)
    1  A    between atoms: C_2  and  S_21
    2  A    between atoms: C_22  and  C_26
    3  A    between atoms: C_26  and  C_27
                            x       y       z     vdW  Elec       q    Type
                         _______ _______ _______ _____ _____    ______ ____

>  <TORSDO>
F 3

$$$$
=
 OpenBabel11062422453D

 29 32  0  0  1  0  0  0  0  0999 V2000
  194.2450  175.1040  145.9810 C   0  0  0  0  0  3  0  0  0  0  0  0
  190.2890  174.9230  142.8480 C   0  0  2  0  0  3  0  0  0  0  0  0
  190.0840  176.8760  144.9750 C   0  0  0  0  0  3  0  0  0  0  0  0
  195.9750  175.4860  142.4600 C   0  0  0  0  0  0  0  0  0  0  0  0
  193.6200  174.6440  142.8290 C   0  0  0  0  0  2  0  0  0  0  0  0
  196.8280  175.8910  141.3030 C   0  0  0  0  0  3  0  0  0  0  0  0
  194.8280  175.2000  140.5670 C   0  0  0  0  0  0  0  0  0  0  0  0
  191.5250  175.2520  143.7130 C   0  0  2  0  0  3  0  0  0  0  0  0
  193.7100  174.8610  139.6470 C   0  0  0  0  0  1  0  0  0  0  0  0
  193.4860  177.1820  145.2430 N   0  0  0  0  0  0  0  0  0  0  0  0
  191.2760  176.2790  144.8230 C   0  0  0  0  0  0  0  0  0  0  0  0
  188.9750  175.1820  143.5760 C   0  0  0  0  0  2  0  0  0  0  0  0
  194.5000  176.3960  145.2970 C   0  0  0  0  0  0  0  0  0  0  0  0
  196.4070  175.5930  143.8910 C   0  0  0  0  0  2  0  0  0  0  0  0
  195.6810  176.6680  144.5460 N   0  0  0  0  0  2  0  0  0  0  0  0
  194.7940  175.0790  142.0110 C   0  0  1  0  0  3  0  0  0  0  0  0
  192.3250  176.5730  145.8630 C   0  0  1  0  0  3  0  0  0  0  0  0
  192.6110  175.6950  142.8480 N   0  0  0  0  0  2  0  0  0  0  0  0
  188.9490  176.6320  144.0300 C   0  0  1  0  0  3  0  0  0  0  0  0
  195.9610  175.6530  140.1520 N   0  0  0  0  0  0  0  0  0  0  0  0
  192.8260  175.2780  146.5020 C   0  0  0  0  0  3  0  0  0  0  0  0
  188.7320  172.6090  142.1550 N   0  0  0  0  0  1  0  0  0  0  0  0
  191.0160  173.1520  140.9540 O   0  0  0  0  0  0  0  0  0  0  0  0
  191.1110  172.3910  143.2760 O   0  0  0  0  0  0  0  0  0  0  0  0
  190.3400  173.2260  142.2940 S   0  0  0  0  0  0  0  0  0  0  0  0
  187.6340  176.9550  144.7230 C   0  0  0  0  0  2  0  0  0  0  0  0
  186.3150  178.9100  144.7480 O   0  0  0  0  0  0  0  0  0  0  0  0
  187.0320  178.2930  142.5980 C   0  0  0  0  0  1  0  0  0  0  0  0
  186.9520  178.1160  144.0740 C   0  0  0  0  0  0  0  0  0  0  0  0
  1 21  2  0  0  0  0
  2 25  1  1  0  0  0
  2 12  1  0  0  0  0
  2  8  1  0  0  0  0
  4 14  1  0  0  0  0
  5 18  1  0  0  0  0
  6  4  2  0  0  0  0
  7 16  1  0  0  0  0
  8 18  1  6  0  0  0
  8 11  1  0  0  0  0
  9  7  1  0  0  0  0
 10 13  2  0  0  0  0
 10 17  1  0  0  0  0
 11  3  2  0  0  0  0
 11 17  1  0  0  0  0
 12 19  1  0  0  0  0
 13  1  1  0  0  0  0
 14 15  1  0  0  0  0
 15 13  1  0  0  0  0
 16  4  1  0  0  0  0
 16  5  1  1  0  0  0
 17 21  1  6  0  0  0
 19 26  1  1  0  0  0
 19  3  1  0  0  0  0
 20  7  2  0  0  0  0
 20  6  1  0  0  0  0
 22 25  1  0  0  0  0
 23 25  2  0  0  0  0
 25 24  2  0  0  0  0
 28 29  1  0  0  0  0
 29 26  1  0  0  0  0
 29 27  2  0  0  0  0
M  END
>  <MODEL>
6

>  <REMARK>
 VINA RESULT:      -6.9      1.963      3.350
  Name = 
  3 active torsions:
  status: ('A' for Active; 'I' for Inactive)
    1  A    between atoms: C_2  and  S_21
    2  A    between atoms: C_22  and  C_26
    3  A    between atoms: C_26  and  C_27
                            x       y       z     vdW  Elec       q    Type
                         _______ _______ _______ _____ _____    ______ ____

>  <TORSDO>
F 3

$$$$
=
 OpenBabel11062422453D

 29 32  0  0  1  0  0  0  0  0999 V2000
  188.4930  177.0540  141.4240 C   0  0  0  0  0  3  0  0  0  0  0  0
  189.1350  175.9040  146.2990 C   0  0  2  0  0  3  0  0  0  0  0  0
  186.4920  176.8540  145.5980 C   0  0  0  0  0  3  0  0  0  0  0  0
  189.9150  173.3830  141.2150 C   0  0  0  0  0  0  0  0  0  0  0  0
  190.0510  174.8730  143.2540 C   0  0  0  0  0  2  0  0  0  0  0  0
  190.1890  171.9540  140.8790 C   0  0  0  0  0  3  0  0  0  0  0  0
  190.7060  172.3420  143.0230 C   0  0  0  0  0  0  0  0  0  0  0  0
  188.7370  176.0470  144.8130 C   0  0  2  0  0  3  0  0  0  0  0  0
  191.1590  172.1170  144.4220 C   0  0  0  0  0  1  0  0  0  0  0  0
  186.7840  175.7730  142.3600 N   0  0  0  0  0  0  0  0  0  0  0  0
  187.3220  176.5880  144.5780 C   0  0  0  0  0  0  0  0  0  0  0  0
  188.3500  176.8390  147.2120 C   0  0  0  0  0  2  0  0  0  0  0  0
  187.6650  175.8220  141.4260 C   0  0  0  0  0  0  0  0  0  0  0  0
  189.3270  174.3680  140.2510 C   0  0  0  0  0  2  0  0  0  0  0  0
  187.9590  174.6760  140.6320 N   0  0  0  0  0  2  0  0  0  0  0  0
  190.2250  173.6000  142.4870 C   0  0  1  0  0  3  0  0  0  0  0  0
  186.8480  176.9550  143.1970 C   0  0  1  0  0  3  0  0  0  0  0  0
  188.9050  174.7620  144.1460 N   0  0  0  0  0  2  0  0  0  0  0  0
  186.8660  176.5720  147.0200 C   0  0  1  0  0  3  0  0  0  0  0  0
  190.6930  171.4070  142.1350 N   0  0  0  0  0  0  0  0  0  0  0  0
  187.8470  177.8920  142.5160 C   0  0  0  0  0  3  0  0  0  0  0  0
  191.1720  176.9220  148.0520 N   0  0  0  0  0  1  0  0  0  0  0  0
  191.6230  174.8840  146.4410 O   0  0  0  0  0  0  0  0  0  0  0  0
  191.3900  177.0980  145.4290 O   0  0  0  0  0  0  0  0  0  0  0  0
  190.8850  176.1910  146.5130 S   0  0  0  0  0  0  0  0  0  0  0  0
  186.0380  177.4500  147.9450 C   0  0  0  0  0  2  0  0  0  0  0  0
  185.9760  179.6740  147.1630 O   0  0  0  0  0  0  0  0  0  0  0  0
  184.1090  178.4030  146.5190 C   0  0  0  0  0  1  0  0  0  0  0  0
  185.4200  178.5880  147.2000 C   0  0  0  0  0  0  0  0  0  0  0  0
  1 13  1  0  0  0  0
  1 21  2  0  0  0  0
  2 25  1  6  0  0  0
  2 12  1  0  0  0  0
  3 19  1  0  0  0  0
  4 16  1  0  0  0  0
  5 18  1  0  0  0  0
  6  4  2  0  0  0  0
  6 20  1  0  0  0  0
  7  9  1  0  0  0  0
  8 18  1  1  0  0  0
  8  2  1  0  0  0  0
 10 17  1  0  0  0  0
 11  8  1  0  0  0  0
 11  3  2  0  0  0  0
 13 10  2  0  0  0  0
 14 15  1  0  0  0  0
 14  4  1  0  0  0  0
 15 13  1  0  0  0  0
 16  7  1  0  0  0  0
 16  5  1  1  0  0  0
 17 21  1  6  0  0  0
 17 11  1  0  0  0  0
 19 12  1  0  0  0  0
 19 26  1  1  0  0  0
 20  7  2  0  0  0  0
 23 25  2  0  0  0  0
 24 25  2  0  0  0  0
 25 22  1  0  0  0  0
 27 29  2  0  0  0  0
 28 29  1  0  0  0  0
 29 26  1  0  0  0  0
M  END
>  <MODEL>
7

>  <REMARK>
 VINA RESULT:      -6.9      3.129      5.122
  Name = 
  3 active torsions:
  status: ('A' for Active; 'I' for Inactive)
    1  A    between atoms: C_2  and  S_21
    2  A    between atoms: C_22  and  C_26
    3  A    between atoms: C_26  and  C_27
                            x       y       z     vdW  Elec       q    Type
                         _______ _______ _______ _____ _____    ______ ____

>  <TORSDO>
F 3

$$$$
=
 OpenBabel11062422453D

 29 32  0  0  1  0  0  0  0  0999 V2000
  190.8250  176.8030  145.2750 C   0  0  0  0  0  3  0  0  0  0  0  0
  187.4530  175.9380  141.6180 C   0  0  2  0  0  3  0  0  0  0  0  0
  189.1700  173.6980  142.2620 C   0  0  0  0  0  3  0  0  0  0  0  0
  187.4520  177.8840  147.0040 C   0  0  0  0  0  0  0  0  0  0  0  0
  187.7660  177.5760  144.5150 C   0  0  0  0  0  2  0  0  0  0  0  0
  186.3170  178.1100  147.9490 C   0  0  0  0  0  2  0  0  0  0  0  0
  185.5510  178.0350  145.8450 C   0  0  0  0  0  0  0  0  0  0  0  0
  188.3460  175.9890  142.8770 C   0  0  2  0  0  3  0  0  0  0  0  0
  184.6150  178.0530  144.6880 C   0  0  0  0  0  1  0  0  0  0  0  0
  189.6650  174.7900  145.4710 N   0  0  0  0  0  0  0  0  0  0  0  0
  189.2290  174.7540  143.0870 C   0  0  0  0  0  0  0  0  0  0  0  0
  188.0090  175.0160  140.5380 C   0  0  0  0  0  2  0  0  0  0  0  0
  189.9440  175.8990  146.0560 C   0  0  0  0  0  0  0  0  0  0  0  0
  188.8710  177.6850  147.4410 C   0  0  0  0  0  2  0  0  0  0  0  0
  189.2590  176.2980  147.2400 N   0  0  0  0  0  2  0  0  0  0  0  0
  186.9850  177.8410  145.7630 C   0  0  0  0  0  0  0  0  0  0  0  0
  190.2840  174.7240  144.1620 C   0  0  1  0  0  3  0  0  0  0  0  0
  187.5110  176.2200  144.0480 N   0  0  0  0  0  2  0  0  0  0  0  0
  188.1910  173.6290  141.1310 C   0  0  1  0  0  3  0  0  0  0  0  0
  185.1580  178.1870  147.0630 N   0  0  0  0  0  0  0  0  0  0  0  0
  191.1850  175.9550  144.0650 C   0  0  0  0  0  3  0  0  0  0  0  0
  185.8050  178.2910  141.6290 N   0  0  0  0  0  1  0  0  0  0  0  0
  188.4130  178.4290  141.2660 O   0  0  0  0  0  0  0  0  0  0  0  0
  187.0650  177.4950  139.4520 O   0  0  0  0  0  0  0  0  0  0  0  0
  187.2200  177.5750  140.9430 S   0  0  0  0  0  0  0  0  0  0  0  0
  188.7020  172.6580  140.0780 C   0  0  0  0  0  2  0  0  0  0  0  0
  189.2460  173.7910  138.0820 O   0  0  0  0  0  0  0  0  0  0  0  0
  191.0960  173.4150  139.4790 C   0  0  0  0  0  1  0  0  0  0  0  0
  189.6500  173.3290  139.1370 C   0  0  0  0  0  0  0  0  0  0  0  0
  1 13  1  0  0  0  0
  2 25  1  6  0  0  0
  2  8  1  0  0  0  0
  3 11  2  0  0  0  0
  4 14  1  0  0  0  0
  4  6  1  0  0  0  0
  5 16  1  0  0  0  0
  7 20  2  0  0  0  0
  8 11  1  1  0  0  0
  8 18  1  0  0  0  0
  9  7  1  0  0  0  0
 10 13  2  0  0  0  0
 11 17  1  0  0  0  0
 12 19  1  0  0  0  0
 12  2  1  0  0  0  0
 13 15  1  0  0  0  0
 15 14  1  0  0  0  0
 16  7  1  0  0  0  0
 16  4  2  0  0  0  0
 17 21  1  6  0  0  0
 17 10  1  0  0  0  0
 18  5  1  0  0  0  0
 19 26  1  6  0  0  0
 19  3  1  0  0  0  0
 20  6  1  0  0  0  0
 21  1  2  0  0  0  0
 24 25  2  0  0  0  0
 25 23  2  0  0  0  0
 25 22  1  0  0  0  0
 27 29  2  0  0  0  0
 29 28  1  0  0  0  0
 29 26  1  0  0  0  0
M  END
>  <MODEL>
8

>  <REMARK>
 VINA RESULT:      -6.8      2.819      5.943
  Name = 
  3 active torsions:
  status: ('A' for Active; 'I' for Inactive)
    1  A    between atoms: C_2  and  S_21
    2  A    between atoms: C_22  and  C_26
    3  A    between atoms: C_26  and  C_27
                            x       y       z     vdW  Elec       q    Type
                         _______ _______ _______ _____ _____    ______ ____

>  <TORSDO>
F 3

$$$$
=
 OpenBabel11062422453D

 29 32  0  0  1  0  0  0  0  0999 V2000
  189.7970  171.9580  143.4160 C   0  0  0  0  0  3  0  0  0  0  0  0
  192.0260  175.8370  145.7560 C   0  0  2  0  0  3  0  0  0  0  0  0
  193.8340  173.8750  144.6340 C   0  0  0  0  0  3  0  0  0  0  0  0
  188.1250  175.0530  141.6370 C   0  0  0  0  0  0  0  0  0  0  0  0
  189.3840  175.1510  143.8270 C   0  0  0  0  0  2  0  0  0  0  0  0
  187.5480  176.0210  140.6580 C   0  0  0  0  0  3  0  0  0  0  0  0
  188.4410  177.1310  142.3860 C   0  0  0  0  0  0  0  0  0  0  0  0
  191.4860  174.7460  144.8060 C   0  0  2  0  0  3  0  0  0  0  0  0
  188.8770  178.2510  143.2630 C   0  0  0  0  0  1  0  0  0  0  0  0
  191.5720  172.9150  142.2460 N   0  0  0  0  0  0  0  0  0  0  0  0
  192.5400  173.7520  144.3060 C   0  0  0  0  0  0  0  0  0  0  0  0
  193.2970  175.4100  146.4810 C   0  0  0  0  0  2  0  0  0  0  0  0
  190.3230  172.6210  142.1980 C   0  0  0  0  0  0  0  0  0  0  0  0
  188.1370  173.5680  141.4320 C   0  0  0  0  0  2  0  0  0  0  0  0
  189.4910  173.1200  141.1520 N   0  0  0  0  0  2  0  0  0  0  0  0
  188.6510  175.7220  142.6550 C   0  0  1  0  0  3  0  0  0  0  0  0
  192.1460  172.5280  143.5210 C   0  0  1  0  0  3  0  0  0  0  0  0
  190.8140  175.3820  143.6790 N   0  0  0  0  0  2  0  0  0  0  0  0
  194.3410  175.0260  145.4460 C   0  0  1  0  0  3  0  0  0  0  0  0
  187.8230  177.3180  141.2700 N   0  0  0  0  0  0  0  0  0  0  0  0
  191.0510  171.7510  144.2510 C   0  0  0  0  0  3  0  0  0  0  0  0
  189.7960  174.9370  147.3290 N   0  0  0  0  0  1  0  0  0  0  0  0
  191.4510  176.7940  148.2060 O   0  0  0  0  0  0  0  0  0  0  0  0
  189.9250  177.4010  146.3940 O   0  0  0  0  0  0  0  0  0  0  0  0
  190.7850  176.3040  146.9520 S   0  0  0  0  0  0  0  0  0  0  0  0
  195.6480  174.6350  146.1190 C   0  0  0  0  0  2  0  0  0  0  0  0
  197.0160  175.1240  144.2610 O   0  0  0  0  0  0  0  0  0  0  0  0
  197.3450  172.9640  145.1230 C   0  0  0  0  0  1  0  0  0  0  0  0
  196.6990  174.3050  145.1090 C   0  0  0  0  0  0  0  0  0  0  0  0
  1 21  2  0  0  0  0
  2 12  1  0  0  0  0
  2 25  1  1  0  0  0
  3 19  1  0  0  0  0
  4 16  1  0  0  0  0
  6 20  1  0  0  0  0
  6  4  2  0  0  0  0
  7 16  1  0  0  0  0
  7  9  1  0  0  0  0
  8 18  1  6  0  0  0
  8  2  1  0  0  0  0
 10 17  1  0  0  0  0
 11  3  2  0  0  0  0
 11  8  1  0  0  0  0
 13 10  2  0  0  0  0
 13  1  1  0  0  0  0
 14  4  1  0  0  0  0
 15 14  1  0  0  0  0
 15 13  1  0  0  0  0
 16  5  1  6  0  0  0
 17 21  1  1  0  0  0
 17 11  1  0  0  0  0
 18  5  1  0  0  0  0
 19 26  1  1  0  0  0
 19 12  1  0  0  0  0
 20  7  2  0  0  0  0
 24 25  2  0  0  0  0
 25 22  1  0  0  0  0
 25 23  2  0  0  0  0
 27 29  2  0  0  0  0
 29 28  1  0  0  0  0
 29 26  1  0  0  0  0
M  END
>  <MODEL>
9

>  <REMARK>
 VINA RESULT:      -6.8      3.310      7.450
  Name = 
  3 active torsions:
  status: ('A' for Active; 'I' for Inactive)
    1  A    between atoms: C_2  and  S_21
    2  A    between atoms: C_22  and  C_26
    3  A    between atoms: C_26  and  C_27
                            x       y       z     vdW  Elec       q    Type
                         _______ _______ _______ _____ _____    ______ ____

>  <TORSDO>
F 3

$$$$
