=
 OpenBabel11062422443D

 29 31  0  0  1  0  0  0  0  0999 V2000
  187.6770  175.5900  142.8320 C   0  0  0  0  0  0  0  0  0  0  0  0
  188.8690  176.0100  143.2430 C   0  0  1  0  0  3  0  0  0  0  0  0
  189.1190  177.1720  144.1500 C   0  0  0  0  0  1  0  0  0  0  0  0
  189.2660  174.0500  142.1620 C   0  0  0  0  0  3  0  0  0  0  0  0
  187.7900  174.2870  142.1240 C   0  0  0  0  0  3  0  0  0  0  0  0
  189.8690  175.0410  142.8040 C   0  0  0  0  0  0  0  0  0  0  0  0
  185.8050  177.2710  142.4340 C   0  0  0  0  0  0  0  0  0  0  0  0
  186.2280  177.6160  141.2990 O   0  0  0  0  0  0  0  0  0  0  0  0
  186.4150  176.1910  143.1480 N   0  0  0  0  0  2  0  0  0  0  0  0
  184.5970  177.9350  143.0000 C   0  0  0  0  0  2  0  0  0  0  0  0
  184.9230  178.6770  144.2900 C   0  0  0  0  0  0  0  0  0  0  0  0
  185.3200  180.1100  144.0180 C   0  0  0  0  0  2  0  0  0  0  0  0
  186.3570  179.1150  144.5120 C   0  0  0  0  0  2  0  0  0  0  0  0
  183.9950  178.5740  145.4940 C   0  0  0  0  0  2  0  0  0  0  0  0
  184.6260  177.8430  146.6290 C   0  0  0  0  0  0  0  0  0  0  0  0
  184.8540  176.6120  146.5270 O   0  0  0  0  0  0  0  0  0  0  0  0
  184.9800  178.5130  147.7900 O   0  0  0  0  0  1  0  0  0  0  0  0
  191.3290  175.1110  143.0060 C   0  0  0  0  0  0  0  0  0  0  0  0
  192.0530  175.6550  142.1270 O   0  0  0  0  0  0  0  0  0  0  0  0
  190.9770  174.4590  145.3730 C   0  0  0  0  0  3  0  0  0  0  0  0
  193.0150  175.4660  144.7820 C   0  0  0  0  0  3  0  0  0  0  0  0
  193.4310  176.6400  146.8250 O   0  0  0  0  0  1  0  0  0  0  0  0
  191.4190  175.1900  146.3860 C   0  0  0  0  0  0  0  0  0  0  0  0
  192.6760  175.8020  146.0120 C   0  0  0  0  0  0  0  0  0  0  0  0
  191.9620  174.5440  144.2420 C   0  0  2  0  0  3  0  0  0  0  0  0
  191.5320  174.9320  148.7220 F   0  0  0  0  0  0  0  0  0  0  0  0
  190.4510  176.7220  147.8820 F   0  0  0  0  0  0  0  0  0  0  0  0
  190.7200  175.3790  147.6960 C   0  0  0  0  0  0  0  0  0  0  0  0
  189.5280  174.6780  147.7260 F   0  0  0  0  0  0  0  0  0  0  0  0
  1  9  1  0  0  0  0
  1  2  1  0  0  0  0
  2  3  1  1  0  0  0
  4  6  2  0  0  0  0
  5  4  1  0  0  0  0
  5  1  2  0  0  0  0
  6 18  1  0  0  0  0
  6  2  1  0  0  0  0
  7 10  1  0  0  0  0
  7  9  1  0  0  0  0
  8  7  2  0  0  0  0
 10 11  1  0  0  0  0
 11 13  1  0  0  0  0
 11 14  1  0  0  0  0
 12 11  1  0  0  0  0
 12 13  1  0  0  0  0
 14 15  1  0  0  0  0
 15 17  1  0  0  0  0
 16 15  2  0  0  0  0
 19 18  2  0  0  0  0
 20 23  2  0  0  0  0
 21 24  2  0  0  0  0
 23 28  1  0  0  0  0
 24 23  1  0  0  0  0
 24 22  1  0  0  0  0
 25 18  1  6  0  0  0
 25 21  1  0  0  0  0
 25 20  1  0  0  0  0
 28 29  1  0  0  0  0
 28 27  1  0  0  0  0
 28 26  1  0  0  0  0
M  END
>  <MODEL>
1

>  <REMARK>
 VINA RESULT:      -7.3      0.000      0.000
  Name = 
  8 active torsions:
  status: ('A' for Active; 'I' for Inactive)
    1  A    between atoms: C_1  and  C_27
    2  A    between atoms: C_3  and  N_18
    3  A    between atoms: C_7  and  C_8
    4  A    between atoms: C_7  and  C_27
    5  A    between atoms: C_8  and  C_17
    6  A    between atoms: C_12  and  C_22
    7  A    between atoms: C_12  and  C_28
    8  A    between atoms: C_14  and  C_15
                            x       y       z     vdW  Elec       q    Type
                         _______ _______ _______ _____ _____    ______ ____

>  <TORSDO>
F 8

$$$$
=
 OpenBabel11062422443D

 29 31  0  0  1  0  0  0  0  0999 V2000
  190.3580  175.8090  146.0140 C   0  0  0  0  0  0  0  0  0  0  0  0
  189.4380  176.7450  145.8070 C   0  0  0  0  0  0  0  0  0  0  0  0
  189.5270  177.8470  144.8010 C   0  0  0  0  0  1  0  0  0  0  0  0
  188.4770  175.2710  147.2470 C   0  0  0  0  0  3  0  0  0  0  0  0
  189.8440  174.7540  146.9290 C   0  0  0  0  0  2  0  0  0  0  0  0
  188.2580  176.4080  146.5990 C   0  0  0  0  0  0  0  0  0  0  0  0
  191.9270  174.7830  144.2900 C   0  0  0  0  0  0  0  0  0  0  0  0
  191.0130  174.1550  143.6930 O   0  0  0  0  0  0  0  0  0  0  0  0
  191.6190  175.7020  145.3430 N   0  0  0  0  0  2  0  0  0  0  0  0
  193.3380  174.6360  143.8330 C   0  0  0  0  0  2  0  0  0  0  0  0
  194.2370  174.1380  144.9570 C   0  0  0  0  0  0  0  0  0  0  0  0
  195.0430  172.9330  144.5270 C   0  0  0  0  0  2  0  0  0  0  0  0
  193.9350  172.7800  145.5580 C   0  0  0  0  0  2  0  0  0  0  0  0
  195.0860  175.1190  145.7570 C   0  0  0  0  0  2  0  0  0  0  0  0
  195.2210  176.4340  145.0700 C   0  0  0  0  0  0  0  0  0  0  0  0
  194.5960  177.4330  145.5070 O   0  0  0  0  0  1  0  0  0  0  0  0
  196.0430  176.5700  143.9620 O   0  0  0  0  0  0  0  0  0  0  0  0
  187.0050  177.1780  146.7070 C   0  0  0  0  0  0  0  0  0  0  0  0
  186.9500  178.1730  147.4810 O   0  0  0  0  0  0  0  0  0  0  0  0
  186.1250  176.6470  144.4500 C   0  0  0  0  0  3  0  0  0  0  0  0
  184.7720  177.8890  145.9140 C   0  0  0  0  0  3  0  0  0  0  0  0
  183.6570  179.2480  144.2900 O   0  0  0  0  0  1  0  0  0  0  0  0
  185.3890  177.5010  143.7540 C   0  0  0  0  0  0  0  0  0  0  0  0
  184.5570  178.2580  144.6650 C   0  0  0  0  0  0  0  0  0  0  0  0
  185.7950  176.7930  145.9080 C   0  0  2  0  0  3  0  0  0  0  0  0
  186.0070  178.9000  141.9660 F   0  0  0  0  0  0  0  0  0  0  0  0
  186.1860  176.6680  141.7050 F   0  0  0  0  0  0  0  0  0  0  0  0
  185.4300  177.6790  142.2680 C   0  0  0  0  0  0  0  0  0  0  0  0
  184.1560  177.6370  141.7290 F   0  0  0  0  0  0  0  0  0  0  0  0
  1  5  1  0  0  0  0
  2  1  2  0  0  0  0
  2  6  1  0  0  0  0
  3  2  1  0  0  0  0
  5  4  1  0  0  0  0
  6 18  1  0  0  0  0
  6  4  2  0  0  0  0
  7  9  1  0  0  0  0
  8  7  2  0  0  0  0
  9  1  1  0  0  0  0
 10  7  1  0  0  0  0
 10 11  1  0  0  0  0
 11 13  1  0  0  0  0
 11 14  1  0  0  0  0
 12 11  1  0  0  0  0
 12 13  1  0  0  0  0
 15 16  1  0  0  0  0
 15 14  1  0  0  0  0
 17 15  2  0  0  0  0
 18 19  2  0  0  0  0
 20 25  1  0  0  0  0
 22 24  1  0  0  0  0
 23 20  2  0  0  0  0
 23 24  1  0  0  0  0
 24 21  2  0  0  0  0
 25 21  1  0  0  0  0
 25 18  1  1  0  0  0
 26 28  1  0  0  0  0
 27 28  1  0  0  0  0
 28 23  1  0  0  0  0
 29 28  1  0  0  0  0
M  END
>  <MODEL>
2

>  <REMARK>
 VINA RESULT:      -7.3      3.385      8.123
  Name = 
  8 active torsions:
  status: ('A' for Active; 'I' for Inactive)
    1  A    between atoms: C_1  and  C_27
    2  A    between atoms: C_3  and  N_18
    3  A    between atoms: C_7  and  C_8
    4  A    between atoms: C_7  and  C_27
    5  A    between atoms: C_8  and  C_17
    6  A    between atoms: C_12  and  C_22
    7  A    between atoms: C_12  and  C_28
    8  A    between atoms: C_14  and  C_15
                            x       y       z     vdW  Elec       q    Type
                         _______ _______ _______ _____ _____    ______ ____

>  <TORSDO>
F 8

$$$$
=
 OpenBabel11062422443D

 29 31  0  0  1  0  0  0  0  0999 V2000
  191.5450  175.9590  145.9580 C   0  0  0  0  0  0  0  0  0  0  0  0
  190.5550  176.8220  145.7540 C   0  0  0  0  0  0  0  0  0  0  0  0
  190.5350  177.8940  144.7130 C   0  0  0  0  0  1  0  0  0  0  0  0
  189.7470  175.3340  147.2710 C   0  0  0  0  0  3  0  0  0  0  0  0
  191.1360  174.9020  146.9220 C   0  0  0  0  0  2  0  0  0  0  0  0
  189.4290  176.4310  146.5960 C   0  0  0  0  0  0  0  0  0  0  0  0
  194.0100  176.5300  145.6700 C   0  0  0  0  0  0  0  0  0  0  0  0
  194.1470  176.9530  146.8490 O   0  0  0  0  0  0  0  0  0  0  0  0
  192.7890  175.9170  145.2480 N   0  0  0  0  0  2  0  0  0  0  0  0
  195.1660  176.5870  144.7310 C   0  0  0  0  0  2  0  0  0  0  0  0
  195.8060  175.2160  144.5530 C   0  0  0  0  0  0  0  0  0  0  0  0
  197.0350  175.2900  143.6750 C   0  0  0  0  0  2  0  0  0  0  0  0
  195.7790  174.5960  143.1710 C   0  0  0  0  0  2  0  0  0  0  0  0
  196.0360  174.3110  145.7570 C   0  0  0  0  0  2  0  0  0  0  0  0
  195.4100  172.9700  145.5780 C   0  0  0  0  0  0  0  0  0  0  0  0
  196.1360  171.9670  145.3660 O   0  0  0  0  0  0  0  0  0  0  0  0
  194.0340  172.8170  145.6590 O   0  0  0  0  0  1  0  0  0  0  0  0
  188.1290  177.1160  146.7230 C   0  0  0  0  0  0  0  0  0  0  0  0
  187.9780  178.0070  147.6050 O   0  0  0  0  0  0  0  0  0  0  0  0
  186.9970  177.6050  144.5710 C   0  0  0  0  0  3  0  0  0  0  0  0
  185.6700  177.1210  146.4480 C   0  0  0  0  0  3  0  0  0  0  0  0
  183.8010  178.5220  145.9250 O   0  0  0  0  0  1  0  0  0  0  0  0
  185.8660  178.2910  144.5020 C   0  0  0  0  0  0  0  0  0  0  0  0
  185.0550  177.9830  145.6600 C   0  0  0  0  0  0  0  0  0  0  0  0
  186.9840  176.7670  145.8180 C   0  0  2  0  0  3  0  0  0  0  0  0
  184.2510  178.9250  142.9120 F   0  0  0  0  0  0  0  0  0  0  0  0
  185.4490  180.5350  143.9380 F   0  0  0  0  0  0  0  0  0  0  0  0
  185.4960  179.2560  143.4180 C   0  0  0  0  0  0  0  0  0  0  0  0
  186.4220  179.2250  142.3910 F   0  0  0  0  0  0  0  0  0  0  0  0
  1  5  1  0  0  0  0
  2  1  2  0  0  0  0
  2  6  1  0  0  0  0
  3  2  1  0  0  0  0
  5  4  1  0  0  0  0
  6 18  1  0  0  0  0
  6  4  2  0  0  0  0
  7  8  2  0  0  0  0
  9  7  1  0  0  0  0
  9  1  1  0  0  0  0
 10  7  1  0  0  0  0
 11 10  1  0  0  0  0
 11 14  1  0  0  0  0
 12 11  1  0  0  0  0
 13 12  1  0  0  0  0
 13 11  1  0  0  0  0
 15 17  1  0  0  0  0
 15 14  1  0  0  0  0
 16 15  2  0  0  0  0
 18 19  2  0  0  0  0
 20 25  1  0  0  0  0
 23 20  2  0  0  0  0
 23 24  1  0  0  0  0
 24 22  1  0  0  0  0
 24 21  2  0  0  0  0
 25 21  1  0  0  0  0
 25 18  1  1  0  0  0
 26 28  1  0  0  0  0
 28 27  1  0  0  0  0
 28 23  1  0  0  0  0
 29 28  1  0  0  0  0
M  END
>  <MODEL>
3

>  <REMARK>
 VINA RESULT:      -7.3      3.765      8.521
  Name = 
  8 active torsions:
  status: ('A' for Active; 'I' for Inactive)
    1  A    between atoms: C_1  and  C_27
    2  A    between atoms: C_3  and  N_18
    3  A    between atoms: C_7  and  C_8
    4  A    between atoms: C_7  and  C_27
    5  A    between atoms: C_8  and  C_17
    6  A    between atoms: C_12  and  C_22
    7  A    between atoms: C_12  and  C_28
    8  A    between atoms: C_14  and  C_15
                            x       y       z     vdW  Elec       q    Type
                         _______ _______ _______ _____ _____    ______ ____

>  <TORSDO>
F 8

$$$$
=
 OpenBabel11062422443D

 29 31  0  0  1  0  0  0  0  0999 V2000
  190.4520  175.6070  145.2740 C   0  0  0  0  0  0  0  0  0  0  0  0
  189.4200  175.6670  146.1090 C   0  0  1  0  0  3  0  0  0  0  0  0
  189.1170  174.6820  147.1910 C   0  0  0  0  0  1  0  0  0  0  0  0
  189.3850  177.6360  144.9730 C   0  0  0  0  0  3  0  0  0  0  0  0
  190.5640  176.8590  144.4780 C   0  0  0  0  0  3  0  0  0  0  0  0
  188.7430  176.9440  145.9040 C   0  0  0  0  0  0  0  0  0  0  0  0
  192.6540  174.5450  145.9890 C   0  0  0  0  0  0  0  0  0  0  0  0
  192.8240  175.3270  146.9620 O   0  0  0  0  0  0  0  0  0  0  0  0
  191.4420  174.5720  145.2280 N   0  0  0  0  0  2  0  0  0  0  0  0
  193.6900  173.5180  145.6830 C   0  0  0  0  0  2  0  0  0  0  0  0
  194.9340  174.1480  145.0680 C   0  0  0  0  0  0  0  0  0  0  0  0
  195.9840  173.1060  144.7570 C   0  0  0  0  0  2  0  0  0  0  0  0
  196.2170  174.1120  145.8720 C   0  0  0  0  0  2  0  0  0  0  0  0
  194.8050  175.1640  143.9400 C   0  0  0  0  0  2  0  0  0  0  0  0
  195.4100  176.4780  144.2980 C   0  0  0  0  0  0  0  0  0  0  0  0
  196.4430  176.8720  143.7010 O   0  0  0  0  0  0  0  0  0  0  0  0
  194.8330  177.2780  145.2720 O   0  0  0  0  0  1  0  0  0  0  0  0
  187.5290  177.4300  146.5860 C   0  0  0  0  0  0  0  0  0  0  0  0
  187.6360  178.0510  147.6810 O   0  0  0  0  0  0  0  0  0  0  0  0
  186.2610  176.7990  144.5500 C   0  0  0  0  0  3  0  0  0  0  0  0
  185.3770  178.4690  145.9460 C   0  0  0  0  0  3  0  0  0  0  0  0
  184.3150  179.8030  144.2660 O   0  0  0  0  0  1  0  0  0  0  0  0
  185.6040  177.6870  143.8170 C   0  0  0  0  0  0  0  0  0  0  0  0
  185.0610  178.7080  144.6870 C   0  0  0  0  0  0  0  0  0  0  0  0
  186.1700  177.1970  145.9960 C   0  0  2  0  0  3  0  0  0  0  0  0
  184.1310  177.6180  141.9840 F   0  0  0  0  0  0  0  0  0  0  0  0
  186.0410  178.7990  141.7930 F   0  0  0  0  0  0  0  0  0  0  0  0
  185.4710  177.6590  142.3260 C   0  0  0  0  0  0  0  0  0  0  0  0
  186.1060  176.5510  141.7940 F   0  0  0  0  0  0  0  0  0  0  0  0
  1  2  1  0  0  0  0
  2  3  1  1  0  0  0
  4  6  2  0  0  0  0
  5  4  1  0  0  0  0
  5  1  2  0  0  0  0
  6  2  1  0  0  0  0
  6 18  1  0  0  0  0
  7  8  2  0  0  0  0
  9  1  1  0  0  0  0
  9  7  1  0  0  0  0
 10  7  1  0  0  0  0
 11 10  1  0  0  0  0
 11 13  1  0  0  0  0
 12 11  1  0  0  0  0
 12 13  1  0  0  0  0
 14 15  1  0  0  0  0
 14 11  1  0  0  0  0
 15 17  1  0  0  0  0
 16 15  2  0  0  0  0
 18 19  2  0  0  0  0
 20 25  1  0  0  0  0
 21 25  1  0  0  0  0
 22 24  1  0  0  0  0
 23 20  2  0  0  0  0
 23 24  1  0  0  0  0
 24 21  2  0  0  0  0
 25 18  1  6  0  0  0
 26 28  1  0  0  0  0
 27 28  1  0  0  0  0
 28 23  1  0  0  0  0
 29 28  1  0  0  0  0
M  END
>  <MODEL>
4

>  <REMARK>
 VINA RESULT:      -7.2      3.492      8.340
  Name = 
  8 active torsions:
  status: ('A' for Active; 'I' for Inactive)
    1  A    between atoms: C_1  and  C_27
    2  A    between atoms: C_3  and  N_18
    3  A    between atoms: C_7  and  C_8
    4  A    between atoms: C_7  and  C_27
    5  A    between atoms: C_8  and  C_17
    6  A    between atoms: C_12  and  C_22
    7  A    between atoms: C_12  and  C_28
    8  A    between atoms: C_14  and  C_15
                            x       y       z     vdW  Elec       q    Type
                         _______ _______ _______ _____ _____    ______ ____

>  <TORSDO>
F 8

$$$$
=
 OpenBabel11062422443D

 29 31  0  0  1  0  0  0  0  0999 V2000
  190.0550  174.9660  142.6690 C   0  0  0  0  0  0  0  0  0  0  0  0
  189.3600  176.0980  142.6790 C   0  0  1  0  0  3  0  0  0  0  0  0
  189.6880  177.3150  143.4810 C   0  0  0  0  0  1  0  0  0  0  0  0
  188.4390  174.8470  141.0190 C   0  0  0  0  0  3  0  0  0  0  0  0
  189.5690  174.0550  141.5970 C   0  0  0  0  0  3  0  0  0  0  0  0
  188.3320  176.0110  141.6450 C   0  0  0  0  0  0  0  0  0  0  0  0
  191.2360  174.0380  144.7250 C   0  0  0  0  0  0  0  0  0  0  0  0
  190.2180  173.4310  145.1530 O   0  0  0  0  0  0  0  0  0  0  0  0
  191.2230  174.6850  143.4490 N   0  0  0  0  0  2  0  0  0  0  0  0
  192.4980  174.0040  145.5180 C   0  0  0  0  0  2  0  0  0  0  0  0
  192.7190  175.3110  146.2670 C   0  0  0  0  0  0  0  0  0  0  0  0
  191.9150  175.3590  147.5470 C   0  0  0  0  0  2  0  0  0  0  0  0
  191.5500  176.2680  146.3840 C   0  0  0  0  0  2  0  0  0  0  0  0
  194.1290  175.8510  146.4750 C   0  0  0  0  0  2  0  0  0  0  0  0
  194.5250  176.8120  145.4080 C   0  0  0  0  0  0  0  0  0  0  0  0
  194.4450  176.4700  144.2010 O   0  0  0  0  0  0  0  0  0  0  0  0
  194.9670  178.0850  145.7330 O   0  0  0  0  0  1  0  0  0  0  0  0
  187.3080  177.0210  141.3160 C   0  0  0  0  0  0  0  0  0  0  0  0
  187.5320  177.8590  140.4000 O   0  0  0  0  0  0  0  0  0  0  0  0
  185.7220  178.4380  142.5920 C   0  0  0  0  0  3  0  0  0  0  0  0
  186.0620  176.2240  143.3000 C   0  0  0  0  0  3  0  0  0  0  0  0
  185.7820  176.5620  145.6520 O   0  0  0  0  0  1  0  0  0  0  0  0
  185.6120  178.3730  143.9110 C   0  0  0  0  0  0  0  0  0  0  0  0
  185.8200  177.0050  144.3360 C   0  0  0  0  0  0  0  0  0  0  0  0
  186.0050  177.0620  142.0580 C   0  0  2  0  0  3  0  0  0  0  0  0
  186.2670  179.5250  145.8560 F   0  0  0  0  0  0  0  0  0  0  0  0
  185.4720  180.7110  144.1130 F   0  0  0  0  0  0  0  0  0  0  0  0
  185.3480  179.5320  144.8220 C   0  0  0  0  0  0  0  0  0  0  0  0
  184.0720  179.4620  145.3530 F   0  0  0  0  0  0  0  0  0  0  0  0
  1  2  1  0  0  0  0
  1  9  1  0  0  0  0
  2  3  1  6  0  0  0
  4  5  1  0  0  0  0
  4  6  2  0  0  0  0
  5  1  2  0  0  0  0
  6  2  1  0  0  0  0
  7  8  2  0  0  0  0
  7 10  1  0  0  0  0
  9  7  1  0  0  0  0
 10 11  1  0  0  0  0
 11 13  1  0  0  0  0
 11 14  1  0  0  0  0
 11 12  1  0  0  0  0
 13 12  1  0  0  0  0
 15 17  1  0  0  0  0
 15 14  1  0  0  0  0
 16 15  2  0  0  0  0
 18  6  1  0  0  0  0
 19 18  2  0  0  0  0
 20 23  2  0  0  0  0
 21 24  2  0  0  0  0
 23 24  1  0  0  0  0
 23 28  1  0  0  0  0
 24 22  1  0  0  0  0
 25 18  1  1  0  0  0
 25 20  1  0  0  0  0
 25 21  1  0  0  0  0
 27 28  1  0  0  0  0
 28 29  1  0  0  0  0
 28 26  1  0  0  0  0
M  END
>  <MODEL>
5

>  <REMARK>
 VINA RESULT:      -7.2      2.819      6.981
  Name = 
  8 active torsions:
  status: ('A' for Active; 'I' for Inactive)
    1  A    between atoms: C_1  and  C_27
    2  A    between atoms: C_3  and  N_18
    3  A    between atoms: C_7  and  C_8
    4  A    between atoms: C_7  and  C_27
    5  A    between atoms: C_8  and  C_17
    6  A    between atoms: C_12  and  C_22
    7  A    between atoms: C_12  and  C_28
    8  A    between atoms: C_14  and  C_15
                            x       y       z     vdW  Elec       q    Type
                         _______ _______ _______ _____ _____    ______ ____

>  <TORSDO>
F 8

$$$$
=
 OpenBabel11062422443D

 29 31  0  0  1  0  0  0  0  0999 V2000
  190.0430  177.2920  145.5910 C   0  0  0  0  0  0  0  0  0  0  0  0
  191.1590  176.7490  146.0630 C   0  0  1  0  0  3  0  0  0  0  0  0
  191.2600  175.8730  147.2690 C   0  0  0  0  0  1  0  0  0  0  0  0
  191.7420  177.6760  144.0700 C   0  0  0  0  0  3  0  0  0  0  0  0
  190.2780  177.9180  144.2610 C   0  0  0  0  0  3  0  0  0  0  0  0
  192.2310  177.0070  145.1050 C   0  0  0  0  0  0  0  0  0  0  0  0
  187.5960  176.5850  145.5330 C   0  0  0  0  0  0  0  0  0  0  0  0
  187.7240  175.8890  144.4910 O   0  0  0  0  0  0  0  0  0  0  0  0
  188.7360  177.1740  146.1670 N   0  0  0  0  0  2  0  0  0  0  0  0
  186.2530  176.7230  146.1650 C   0  0  0  0  0  2  0  0  0  0  0  0
  185.6040  178.0530  145.8060 C   0  0  0  0  0  0  0  0  0  0  0  0
  185.7430  179.0560  146.9290 C   0  0  0  0  0  2  0  0  0  0  0  0
  184.3780  178.4780  146.5910 C   0  0  0  0  0  2  0  0  0  0  0  0
  185.8620  178.6960  144.4490 C   0  0  0  0  0  2  0  0  0  0  0  0
  184.9540  178.1650  143.3950 C   0  0  0  0  0  0  0  0  0  0  0  0
  183.8060  178.6580  143.2540 O   0  0  0  0  0  1  0  0  0  0  0  0
  185.3690  177.1420  142.5560 O   0  0  0  0  0  0  0  0  0  0  0  0
  193.6490  176.6190  145.2260 C   0  0  0  0  0  0  0  0  0  0  0  0
  194.4010  177.2470  146.0230 O   0  0  0  0  0  0  0  0  0  0  0  0
  194.6200  174.3370  145.2900 C   0  0  0  0  0  3  0  0  0  0  0  0
  195.4950  175.8820  143.7530 C   0  0  0  0  0  3  0  0  0  0  0  0
  197.7660  175.1280  143.7530 O   0  0  0  0  0  1  0  0  0  0  0  0
  195.9140  174.1090  145.1220 C   0  0  0  0  0  0  0  0  0  0  0  0
  196.4420  175.0640  144.1710 C   0  0  0  0  0  0  0  0  0  0  0  0
  194.2090  175.4880  144.4150 C   0  0  2  0  0  3  0  0  0  0  0  0
  197.2830  173.5930  146.9650 F   0  0  0  0  0  0  0  0  0  0  0  0
  195.8810  172.0120  146.1830 F   0  0  0  0  0  0  0  0  0  0  0  0
  196.7130  173.0560  145.8250 C   0  0  0  0  0  0  0  0  0  0  0  0
  197.7150  172.5670  145.0070 F   0  0  0  0  0  0  0  0  0  0  0  0
  1  2  1  0  0  0  0
  1  9  1  0  0  0  0
  2  3  1  6  0  0  0
  4  5  1  0  0  0  0
  4  6  2  0  0  0  0
  5  1  2  0  0  0  0
  6 18  1  0  0  0  0
  6  2  1  0  0  0  0
  7 10  1  0  0  0  0
  7  9  1  0  0  0  0
  8  7  2  0  0  0  0
 11 10  1  0  0  0  0
 11 13  1  0  0  0  0
 11 12  1  0  0  0  0
 13 12  1  0  0  0  0
 14 11  1  0  0  0  0
 15 14  1  0  0  0  0
 16 15  1  0  0  0  0
 17 15  2  0  0  0  0
 18 19  2  0  0  0  0
 21 24  2  0  0  0  0
 21 25  1  0  0  0  0
 22 24  1  0  0  0  0
 23 20  2  0  0  0  0
 23 28  1  0  0  0  0
 24 23  1  0  0  0  0
 25 18  1  1  0  0  0
 25 20  1  0  0  0  0
 28 27  1  0  0  0  0
 28 26  1  0  0  0  0
 29 28  1  0  0  0  0
M  END
>  <MODEL>
6

>  <REMARK>
 VINA RESULT:      -7.1      3.295      4.542
  Name = 
  8 active torsions:
  status: ('A' for Active; 'I' for Inactive)
    1  A    between atoms: C_1  and  C_27
    2  A    between atoms: C_3  and  N_18
    3  A    between atoms: C_7  and  C_8
    4  A    between atoms: C_7  and  C_27
    5  A    between atoms: C_8  and  C_17
    6  A    between atoms: C_12  and  C_22
    7  A    between atoms: C_12  and  C_28
    8  A    between atoms: C_14  and  C_15
                            x       y       z     vdW  Elec       q    Type
                         _______ _______ _______ _____ _____    ______ ____

>  <TORSDO>
F 8

$$$$
=
 OpenBabel11062422443D

 29 31  0  0  1  0  0  0  0  0999 V2000
  189.8160  177.3580  144.8010 C   0  0  0  0  0  0  0  0  0  0  0  0
  190.6350  176.5650  145.4830 C   0  0  1  0  0  3  0  0  0  0  0  0
  190.2180  175.5340  146.4810 C   0  0  0  0  0  1  0  0  0  0  0  0
  191.9550  177.6250  143.9660 C   0  0  0  0  0  3  0  0  0  0  0  0
  190.5550  178.1000  143.7440 C   0  0  0  0  0  3  0  0  0  0  0  0
  191.9860  176.7480  144.9600 C   0  0  0  0  0  0  0  0  0  0  0  0
  187.4630  176.6410  144.1400 C   0  0  0  0  0  0  0  0  0  0  0  0
  187.8530  175.6680  143.4430 O   0  0  0  0  0  0  0  0  0  0  0  0
  188.3890  177.4030  144.9210 N   0  0  0  0  0  2  0  0  0  0  0  0
  186.0060  176.9460  144.2250 C   0  0  0  0  0  2  0  0  0  0  0  0
  185.6840  178.2970  143.6000 C   0  0  0  0  0  0  0  0  0  0  0  0
  184.6080  178.1750  142.5440 C   0  0  0  0  0  2  0  0  0  0  0  0
  186.0370  178.5050  142.1410 C   0  0  0  0  0  2  0  0  0  0  0  0
  185.4630  179.5210  144.4800 C   0  0  0  0  0  2  0  0  0  0  0  0
  184.9350  179.1560  145.8250 C   0  0  0  0  0  0  0  0  0  0  0  0
  183.7340  178.8090  145.9500 O   0  0  0  0  0  0  0  0  0  0  0  0
  185.7620  179.1800  146.9380 O   0  0  0  0  0  1  0  0  0  0  0  0
  193.2220  176.0980  145.4340 C   0  0  0  0  0  0  0  0  0  0  0  0
  193.6860  176.3940  146.5710 O   0  0  0  0  0  0  0  0  0  0  0  0
  194.5130  173.9800  145.4160 C   0  0  0  0  0  3  0  0  0  0  0  0
  195.1470  175.6880  143.9340 C   0  0  0  0  0  3  0  0  0  0  0  0
  197.5030  175.2710  143.9070 O   0  0  0  0  0  1  0  0  0  0  0  0
  195.8260  173.9480  145.2390 C   0  0  0  0  0  0  0  0  0  0  0  0
  196.2050  175.0020  144.3230 C   0  0  0  0  0  0  0  0  0  0  0  0
  193.9350  175.0890  144.5830 C   0  0  2  0  0  3  0  0  0  0  0  0
  197.3120  173.5930  147.0290 F   0  0  0  0  0  0  0  0  0  0  0  0
  196.0880  171.8560  146.2790 F   0  0  0  0  0  0  0  0  0  0  0  0
  196.7720  172.9960  145.9040 C   0  0  0  0  0  0  0  0  0  0  0  0
  197.7980  172.6400  145.0470 F   0  0  0  0  0  0  0  0  0  0  0  0
  1  9  1  0  0  0  0
  1  2  1  0  0  0  0
  2  3  1  6  0  0  0
  4  6  2  0  0  0  0
  5  4  1  0  0  0  0
  5  1  2  0  0  0  0
  6 18  1  0  0  0  0
  6  2  1  0  0  0  0
  7 10  1  0  0  0  0
  7  9  1  0  0  0  0
  8  7  2  0  0  0  0
 11 10  1  0  0  0  0
 11 14  1  0  0  0  0
 12 11  1  0  0  0  0
 13 12  1  0  0  0  0
 13 11  1  0  0  0  0
 14 15  1  0  0  0  0
 15 16  2  0  0  0  0
 15 17  1  0  0  0  0
 18 19  2  0  0  0  0
 21 24  2  0  0  0  0
 21 25  1  0  0  0  0
 22 24  1  0  0  0  0
 23 20  2  0  0  0  0
 23 28  1  0  0  0  0
 24 23  1  0  0  0  0
 25 20  1  0  0  0  0
 25 18  1  1  0  0  0
 28 27  1  0  0  0  0
 28 26  1  0  0  0  0
 29 28  1  0  0  0  0
M  END
>  <MODEL>
7

>  <REMARK>
 VINA RESULT:      -6.9      3.047      4.112
  Name = 
  8 active torsions:
  status: ('A' for Active; 'I' for Inactive)
    1  A    between atoms: C_1  and  C_27
    2  A    between atoms: C_3  and  N_18
    3  A    between atoms: C_7  and  C_8
    4  A    between atoms: C_7  and  C_27
    5  A    between atoms: C_8  and  C_17
    6  A    between atoms: C_12  and  C_22
    7  A    between atoms: C_12  and  C_28
    8  A    between atoms: C_14  and  C_15
                            x       y       z     vdW  Elec       q    Type
                         _______ _______ _______ _____ _____    ______ ____

>  <TORSDO>
F 8

$$$$
=
 OpenBabel11062422443D

 29 31  0  0  1  0  0  0  0  0999 V2000
  190.4610  175.9650  145.8030 C   0  0  0  0  0  0  0  0  0  0  0  0
  191.5990  176.5130  145.3900 C   0  0  0  0  0  0  0  0  0  0  0  0
  191.7410  177.4720  144.2520 C   0  0  0  0  0  1  0  0  0  0  0  0
  192.1230  175.4300  147.3180 C   0  0  0  0  0  3  0  0  0  0  0  0
  190.6580  175.2390  147.0860 C   0  0  0  0  0  2  0  0  0  0  0  0
  192.6470  176.1600  146.3430 C   0  0  0  0  0  0  0  0  0  0  0  0
  188.0730  176.8520  145.8220 C   0  0  0  0  0  0  0  0  0  0  0  0
  188.2490  177.5740  146.8390 O   0  0  0  0  0  0  0  0  0  0  0  0
  189.1690  176.1580  145.2150 N   0  0  0  0  0  2  0  0  0  0  0  0
  186.7250  176.7900  145.1890 C   0  0  0  0  0  2  0  0  0  0  0  0
  186.4710  178.0030  144.3030 C   0  0  0  0  0  0  0  0  0  0  0  0
  185.7270  177.6200  143.0430 C   0  0  0  0  0  2  0  0  0  0  0  0
  187.1790  178.0630  142.9650 C   0  0  0  0  0  2  0  0  0  0  0  0
  185.9270  179.2940  144.9010 C   0  0  0  0  0  2  0  0  0  0  0  0
  185.0230  179.0390  146.0580 C   0  0  0  0  0  0  0  0  0  0  0  0
  185.4560  179.1760  147.2300 O   0  0  0  0  0  1  0  0  0  0  0  0
  183.7030  178.6660  145.8540 O   0  0  0  0  0  0  0  0  0  0  0  0
  194.0760  176.5200  146.2730 C   0  0  0  0  0  0  0  0  0  0  0  0
  194.4920  177.5410  146.8880 O   0  0  0  0  0  0  0  0  0  0  0  0
  195.4980  176.4070  144.2440 C   0  0  0  0  0  3  0  0  0  0  0  0
  194.3720  174.4630  144.9300 C   0  0  0  0  0  3  0  0  0  0  0  0
  193.9770  173.5070  142.7720 O   0  0  0  0  0  1  0  0  0  0  0  0
  195.1650  175.6900  143.1810 C   0  0  0  0  0  0  0  0  0  0  0  0
  194.4760  174.4930  143.6150 C   0  0  0  0  0  0  0  0  0  0  0  0
  195.0400  175.6870  145.4810 C   0  0  2  0  0  3  0  0  0  0  0  0
  194.2350  176.3800  141.1320 F   0  0  0  0  0  0  0  0  0  0  0  0
  196.2620  177.1700  141.7210 F   0  0  0  0  0  0  0  0  0  0  0  0
  195.4300  176.0670  141.7560 C   0  0  0  0  0  0  0  0  0  0  0  0
  196.0360  175.0280  141.0740 F   0  0  0  0  0  0  0  0  0  0  0  0
  1  5  1  0  0  0  0
  2  1  2  0  0  0  0
  2  6  1  0  0  0  0
  3  2  1  0  0  0  0
  5  4  1  0  0  0  0
  6  4  2  0  0  0  0
  7  8  2  0  0  0  0
  9  1  1  0  0  0  0
  9  7  1  0  0  0  0
 10  7  1  0  0  0  0
 11 14  1  0  0  0  0
 11 10  1  0  0  0  0
 12 11  1  0  0  0  0
 13 12  1  0  0  0  0
 13 11  1  0  0  0  0
 14 15  1  0  0  0  0
 15 16  1  0  0  0  0
 17 15  2  0  0  0  0
 18  6  1  0  0  0  0
 18 19  2  0  0  0  0
 20 25  1  0  0  0  0
 21 25  1  0  0  0  0
 22 24  1  0  0  0  0
 23 24  1  0  0  0  0
 23 20  2  0  0  0  0
 24 21  2  0  0  0  0
 25 18  1  6  0  0  0
 26 28  1  0  0  0  0
 27 28  1  0  0  0  0
 28 23  1  0  0  0  0
 29 28  1  0  0  0  0
M  END
>  <MODEL>
8

>  <REMARK>
 VINA RESULT:      -6.8      3.444      4.821
  Name = 
  8 active torsions:
  status: ('A' for Active; 'I' for Inactive)
    1  A    between atoms: C_1  and  C_27
    2  A    between atoms: C_3  and  N_18
    3  A    between atoms: C_7  and  C_8
    4  A    between atoms: C_7  and  C_27
    5  A    between atoms: C_8  and  C_17
    6  A    between atoms: C_12  and  C_22
    7  A    between atoms: C_12  and  C_28
    8  A    between atoms: C_14  and  C_15
                            x       y       z     vdW  Elec       q    Type
                         _______ _______ _______ _____ _____    ______ ____

>  <TORSDO>
F 8

$$$$
=
 OpenBabel11062422443D

 29 31  0  0  1  0  0  0  0  0999 V2000
  190.5400  176.8880  146.6580 C   0  0  0  0  0  0  0  0  0  0  0  0
  190.9580  176.6940  145.4120 C   0  0  0  0  0  0  0  0  0  0  0  0
  190.3190  177.2520  144.1810 C   0  0  0  0  0  1  0  0  0  0  0  0
  192.5810  175.8050  146.7330 C   0  0  0  0  0  3  0  0  0  0  0  0
  191.5330  176.3720  147.6370 C   0  0  0  0  0  2  0  0  0  0  0  0
  192.2400  175.9970  145.4660 C   0  0  0  0  0  0  0  0  0  0  0  0
  188.0330  177.1540  147.0260 C   0  0  0  0  0  0  0  0  0  0  0  0
  187.7860  175.9270  146.8820 O   0  0  0  0  0  0  0  0  0  0  0  0
  189.3810  177.6330  147.0530 N   0  0  0  0  0  2  0  0  0  0  0  0
  186.9110  178.1060  147.2610 C   0  0  0  0  0  2  0  0  0  0  0  0
  185.9020  178.0700  146.1200 C   0  0  0  0  0  0  0  0  0  0  0  0
  184.5760  178.6650  146.5360 C   0  0  0  0  0  2  0  0  0  0  0  0
  184.6910  177.1720  146.2740 C   0  0  0  0  0  2  0  0  0  0  0  0
  186.3030  178.5230  144.7220 C   0  0  0  0  0  2  0  0  0  0  0  0
  186.0770  177.4620  143.7010 C   0  0  0  0  0  0  0  0  0  0  0  0
  186.8400  176.4640  143.6610 O   0  0  0  0  0  1  0  0  0  0  0  0
  185.0220  177.5560  142.8060 O   0  0  0  0  0  0  0  0  0  0  0  0
  193.0600  175.5460  144.3250 C   0  0  0  0  0  0  0  0  0  0  0  0
  194.0190  176.2620  143.9250 O   0  0  0  0  0  0  0  0  0  0  0  0
  191.7540  174.4230  142.5410 C   0  0  0  0  0  3  0  0  0  0  0  0
  192.0940  173.2810  144.5650 C   0  0  0  0  0  3  0  0  0  0  0  0
  190.0290  172.0730  144.6370 O   0  0  0  0  0  1  0  0  0  0  0  0
  190.7010  173.6610  142.8010 C   0  0  0  0  0  0  0  0  0  0  0  0
  190.9230  172.9600  144.0480 C   0  0  0  0  0  0  0  0  0  0  0  0
  192.7670  174.2460  143.6350 C   0  0  2  0  0  3  0  0  0  0  0  0
  189.2890  172.2530  141.5520 F   0  0  0  0  0  0  0  0  0  0  0  0
  188.3710  173.9570  142.7060 F   0  0  0  0  0  0  0  0  0  0  0  0
  189.4660  173.5630  141.9610 C   0  0  0  0  0  0  0  0  0  0  0  0
  189.5610  174.3740  140.8450 F   0  0  0  0  0  0  0  0  0  0  0  0
  1  9  1  0  0  0  0
  1  5  1  0  0  0  0
  2  6  1  0  0  0  0
  2  1  2  0  0  0  0
  3  2  1  0  0  0  0
  4  5  1  0  0  0  0
  6  4  2  0  0  0  0
  7  9  1  0  0  0  0
  7 10  1  0  0  0  0
  8  7  2  0  0  0  0
 11 13  1  0  0  0  0
 11 12  1  0  0  0  0
 11 10  1  0  0  0  0
 13 12  1  0  0  0  0
 14 11  1  0  0  0  0
 15 14  1  0  0  0  0
 16 15  1  0  0  0  0
 17 15  2  0  0  0  0
 18  6  1  0  0  0  0
 19 18  2  0  0  0  0
 20 23  2  0  0  0  0
 20 25  1  0  0  0  0
 23 24  1  0  0  0  0
 24 21  2  0  0  0  0
 24 22  1  0  0  0  0
 25 18  1  1  0  0  0
 25 21  1  0  0  0  0
 26 28  1  0  0  0  0
 28 27  1  0  0  0  0
 28 23  1  0  0  0  0
 29 28  1  0  0  0  0
M  END
>  <MODEL>
9

>  <REMARK>
 VINA RESULT:      -6.8      2.861      4.573
  Name = 
  8 active torsions:
  status: ('A' for Active; 'I' for Inactive)
    1  A    between atoms: C_1  and  C_27
    2  A    between atoms: C_3  and  N_18
    3  A    between atoms: C_7  and  C_8
    4  A    between atoms: C_7  and  C_27
    5  A    between atoms: C_8  and  C_17
    6  A    between atoms: C_12  and  C_22
    7  A    between atoms: C_12  and  C_28
    8  A    between atoms: C_14  and  C_15
                            x       y       z     vdW  Elec       q    Type
                         _______ _______ _______ _____ _____    ______ ____

>  <TORSDO>
F 8

$$$$
