=
 OpenBabel11062419463D

 46 52  0  0  1  0  0  0  0  0999 V2000
  189.6300  175.1030  145.0360 C   0  0  0  0  0  2  0  0  0  0  0  0
  189.5820  175.4070  146.4440 C   0  0  1  0  0  3  0  0  0  0  0  0
  191.0600  175.2400  146.4630 C   0  0  2  0  0  3  0  0  0  0  0  0
  191.3450  176.7330  148.2860 C   0  0  0  0  0  2  0  0  0  0  0  0
  189.8530  178.7420  148.1840 O   0  0  0  0  0  1  0  0  0  0  0  0
  191.9490  175.8200  147.2500 C   0  0  0  0  0  2  0  0  0  0  0  0
  189.3020  176.8430  146.8260 C   0  0  0  0  0  0  0  0  0  0  0  0
  191.0180  174.6760  145.1020 N   0  0  2  0  0  0  0  0  0  0  0  0
  190.1220  177.4570  147.7330 C   0  0  0  0  0  0  0  0  0  0  0  0
  191.0900  172.5970  142.4060 C   0  0  2  0  0  3  0  0  0  0  0  0
  191.9220  170.3700  142.5040 C   0  0  0  0  0  2  0  0  0  0  0  0
  193.0750  169.6480  143.1600 C   0  0  0  0  0  2  0  0  0  0  0  0
  191.4060  174.0560  142.7650 C   0  0  0  0  0  2  0  0  0  0  0  0
  192.3140  171.7750  142.3950 N   0  0  2  0  0  0  0  0  0  0  0  0
  193.5110  173.0970  145.6890 O   0  0  0  0  0  1  0  0  0  0  0  0
  193.7010  170.6800  144.0720 C   0  0  0  0  0  2  0  0  0  0  0  0
  192.5760  172.8390  144.6840 C   0  0  2  0  0  3  0  0  0  0  0  0
  193.2230  172.0290  143.5450 C   0  0  2  0  0  3  0  0  0  0  0  0
  192.0100  174.1670  144.1670 C   0  0  2  0  0  3  0  0  0  0  0  0
  188.8990  172.1250  138.8960 C   0  0  0  0  0  2  0  0  0  0  0  0
  190.3520  172.4560  141.1360 N   0  0  1  0  0  0  0  0  0  0  0  0
  190.8480  172.5430  137.5420 O   0  0  0  0  0  1  0  0  0  0  0  0
  187.9570  172.9550  141.0400 C   0  0  0  0  0  2  0  0  0  0  0  0
  188.5390  173.3830  139.7050 C   0  0  1  0  0  3  0  0  0  0  0  0
  189.3570  173.5310  141.0010 C   0  0  2  0  0  3  0  0  0  0  0  0
  190.4130  171.9330  138.7230 C   0  0  1  0  0  3  0  0  0  0  0  0
  191.8080  173.6630  139.6890 O   0  0  0  0  0  1  0  0  0  0  0  0
  191.2270  172.4100  139.9420 C   0  0  1  0  0  3  0  0  0  0  0  0
  188.0440  177.4810  146.2910 C   0  0  2  0  0  3  0  0  0  0  0  0
  185.7580  176.3280  146.3000 C   0  0  0  0  0  1  0  0  0  0  0  0
  186.7940  177.1130  147.1000 C   0  0  2  0  0  3  0  0  0  0  0  0
  184.8200  178.5550  147.5920 O   0  0  0  0  0  0  0  0  0  0  0  0
  186.8800  179.1210  148.4130 O   0  0  0  0  0  1  0  0  0  0  0  0
  186.1800  178.3200  147.7380 C   0  0  0  0  0  0  0  0  0  0  0  0
  187.8750  177.3690  144.7760 C   0  0  0  0  0  2  0  0  0  0  0  0
  186.9830  178.4090  144.2920 N   0  0  0  0  0  2  0  0  0  0  0  0
  185.7860  177.8230  140.7730 C   0  0  0  0  0  0  0  0  0  0  0  0
  182.5710  178.4640  142.0640 O   0  0  0  0  0  0  0  0  0  0  0  0
  186.0970  178.2570  143.1770 C   0  0  0  0  0  0  0  0  0  0  0  0
  183.8230  178.2940  142.0510 C   0  0  0  0  0  0  0  0  0  0  0  0
  184.6220  178.4220  143.2810 C   0  0  0  0  0  0  0  0  0  0  0  0
  184.0580  178.6550  144.3790 O   0  0  0  0  0  0  0  0  0  0  0  0
  184.4900  177.9830  140.8240 N   0  0  0  0  0  0  0  0  0  0  0  0
  186.6280  177.9790  141.9840 C   0  0  0  0  0  3  0  0  0  0  0  0
  186.4380  177.5540  139.4670 C   0  0  0  0  0  2  0  0  0  0  0  0
  187.1830  176.3770  139.5490 O   0  0  0  0  0  1  0  0  0  0  0  0
  2  1  1  6  0  0  0
  2  3  1  0  0  0  0
  2  7  1  0  0  0  0
  3  6  1  6  0  0  0
  6  4  1  0  0  0  0
  7  9  2  0  0  0  0
  8  1  1  6  0  0  0
  8  3  1  0  0  0  0
  9  5  1  0  0  0  0
  9  4  1  0  0  0  0
 10 13  1  6  0  0  0
 11 12  1  0  0  0  0
 12 16  1  0  0  0  0
 14 10  1  0  0  0  0
 14 11  1  1  0  0  0
 14 18  1  0  0  0  0
 17 15  1  1  0  0  0
 18 16  1  1  0  0  0
 18 17  1  0  0  0  0
 19 13  1  6  0  0  0
 19 17  1  0  0  0  0
 19  8  1  0  0  0  0
 21 10  1  1  0  0  0
 24 20  1  6  0  0  0
 24 25  1  0  0  0  0
 24 23  1  0  0  0  0
 25 23  1  1  0  0  0
 25 21  1  0  0  0  0
 26 22  1  6  0  0  0
 26 20  1  0  0  0  0
 26 28  1  0  0  0  0
 28 27  1  6  0  0  0
 28 21  1  0  0  0  0
 29 35  1  6  0  0  0
 29  7  1  0  0  0  0
 29 31  1  0  0  0  0
 31 30  1  6  0  0  0
 31 34  1  0  0  0  0
 32 34  2  0  0  0  0
 34 33  1  0  0  0  0
 36 35  1  0  0  0  0
 37 43  2  0  0  0  0
 37 44  1  0  0  0  0
 39 41  1  0  0  0  0
 39 36  1  0  0  0  0
 40 38  2  0  0  0  0
 40 41  1  0  0  0  0
 41 42  2  0  0  0  0
 43 40  1  0  0  0  0
 44 39  2  0  0  0  0
 45 46  1  0  0  0  0
 45 37  1  0  0  0  0
M  END
>  <MODEL>
1

>  <REMARK>
 VINA RESULT:      -8.4      0.000      0.000
  Name = 
  9 active torsions:
  status: ('A' for Active; 'I' for Inactive)
    1  A    between atoms: CA_2  and  C_6
    2  A    between atoms: C_7  and  C_20
    3  A    between atoms: C_7  and  C_21
    4  A    between atoms: C_7  and  C_34
    5  A    between atoms: C_10  and  N_13
    6  A    between atoms: C_12  and  N_29
    7  A    between atoms: C_20  and  N_29
    8  A    between atoms: C_21  and  C_27
    9  A    between atoms: N_38  and  C_44
                            x       y       z     vdW  Elec       q    Type
                         _______ _______ _______ _____ _____    ______ ____

>  <TORSDO>
F 9

$$$$
=
 OpenBabel11062419463D

 46 52  0  0  1  0  0  0  0  0999 V2000
  192.1070  173.5530  144.3420 C   0  0  0  0  0  2  0  0  0  0  0  0
  192.8880  173.8830  145.5060 C   0  0  1  0  0  3  0  0  0  0  0  0
  194.0960  173.5310  144.7140 C   0  0  2  0  0  3  0  0  0  0  0  0
  195.4990  175.0060  145.9370 C   0  0  0  0  0  2  0  0  0  0  0  0
  194.4070  177.1860  146.5120 O   0  0  0  0  0  1  0  0  0  0  0  0
  195.3240  174.0070  144.8220 C   0  0  0  0  0  2  0  0  0  0  0  0
  193.0100  175.3500  145.8570 C   0  0  0  0  0  0  0  0  0  0  0  0
  193.2430  172.9550  143.6600 N   0  0  2  0  0  0  0  0  0  0  0  0
  194.2520  175.8690  146.0990 C   0  0  0  0  0  0  0  0  0  0  0  0
  191.3890  171.7730  141.0590 C   0  0  2  0  0  3  0  0  0  0  0  0
  190.9900  169.4570  140.6950 C   0  0  0  0  0  2  0  0  0  0  0  0
  191.7760  168.1700  140.7900 C   0  0  0  0  0  2  0  0  0  0  0  0
  192.4830  172.8140  141.3370 C   0  0  0  0  0  2  0  0  0  0  0  0
  191.9650  170.5310  140.5120 N   0  0  2  0  0  0  0  0  0  0  0  0
  194.6610  170.3600  143.1050 O   0  0  0  0  0  1  0  0  0  0  0  0
  193.0900  168.5720  141.4250 C   0  0  0  0  0  2  0  0  0  0  0  0
  193.4520  170.7860  142.5520 C   0  0  2  0  0  3  0  0  0  0  0  0
  193.1990  170.0780  141.2080 C   0  0  2  0  0  3  0  0  0  0  0  0
  193.4830  172.3090  142.3790 C   0  0  2  0  0  3  0  0  0  0  0  0
  188.2410  173.1430  138.7020 C   0  0  0  0  0  2  0  0  0  0  0  0
  190.3100  172.2790  140.1910 N   0  0  1  0  0  0  0  0  0  0  0  0
  189.6850  173.3720  136.7860 O   0  0  0  0  0  1  0  0  0  0  0  0
  188.4060  173.4760  141.1580 C   0  0  0  0  0  2  0  0  0  0  0  0
  188.6760  174.1180  139.8100 C   0  0  1  0  0  3  0  0  0  0  0  0
  189.8350  173.5850  140.6720 C   0  0  2  0  0  3  0  0  0  0  0  0
  189.4230  172.5730  137.9030 C   0  0  1  0  0  3  0  0  0  0  0  0
  191.6130  173.3940  138.5380 O   0  0  0  0  0  1  0  0  0  0  0  0
  190.6870  172.3620  138.7610 C   0  0  1  0  0  3  0  0  0  0  0  0
  191.7370  176.1330  146.0600 C   0  0  2  0  0  3  0  0  0  0  0  0
  189.7930  175.1070  147.3750 C   0  0  0  0  0  1  0  0  0  0  0  0
  191.0990  175.8950  147.4340 C   0  0  2  0  0  3  0  0  0  0  0  0
  189.8330  177.9920  147.8990 O   0  0  0  0  0  0  0  0  0  0  0  0
  191.7390  177.5260  149.0760 O   0  0  0  0  0  1  0  0  0  0  0  0
  190.9200  177.1780  148.1840 C   0  0  0  0  0  0  0  0  0  0  0  0
  190.7590  176.0630  144.8870 C   0  0  0  0  0  2  0  0  0  0  0  0
  190.1060  177.3480  144.7000 N   0  0  0  0  0  2  0  0  0  0  0  0
  186.3480  177.4050  144.8690 C   0  0  0  0  0  0  0  0  0  0  0  0
  186.4910  178.2470  141.4510 O   0  0  0  0  0  0  0  0  0  0  0  0
  188.7410  177.5090  144.2980 C   0  0  0  0  0  0  0  0  0  0  0  0
  186.9000  177.9700  142.6140 C   0  0  0  0  0  0  0  0  0  0  0  0
  188.3390  177.8900  142.9180 C   0  0  0  0  0  0  0  0  0  0  0  0
  189.1870  178.1460  142.0270 O   0  0  0  0  0  0  0  0  0  0  0  0
  185.9590  177.7150  143.6610 N   0  0  0  0  0  0  0  0  0  0  0  0
  187.7880  177.2790  145.2040 C   0  0  0  0  0  3  0  0  0  0  0  0
  185.3330  177.0980  145.9080 C   0  0  0  0  0  2  0  0  0  0  0  0
  185.9710  176.8170  147.1160 O   0  0  0  0  0  1  0  0  0  0  0  0
  2  1  1  6  0  0  0
  2  7  1  0  0  0  0
  3  6  1  6  0  0  0
  3  2  1  0  0  0  0
  4  9  1  0  0  0  0
  6  4  1  0  0  0  0
  7 29  1  0  0  0  0
  7  9  2  0  0  0  0
  8  1  1  6  0  0  0
  8  3  1  0  0  0  0
  9  5  1  0  0  0  0
 10 13  1  6  0  0  0
 11 12  1  0  0  0  0
 12 16  1  0  0  0  0
 14 11  1  1  0  0  0
 14 10  1  0  0  0  0
 14 18  1  0  0  0  0
 17 15  1  6  0  0  0
 18 16  1  1  0  0  0
 18 17  1  0  0  0  0
 19 13  1  6  0  0  0
 19 17  1  0  0  0  0
 19  8  1  0  0  0  0
 21 25  1  0  0  0  0
 21 10  1  1  0  0  0
 24 20  1  6  0  0  0
 24 25  1  0  0  0  0
 24 23  1  0  0  0  0
 25 23  1  1  0  0  0
 26 22  1  6  0  0  0
 26 20  1  0  0  0  0
 26 28  1  0  0  0  0
 28 27  1  1  0  0  0
 28 21  1  0  0  0  0
 29 35  1  6  0  0  0
 29 31  1  0  0  0  0
 31 30  1  6  0  0  0
 31 34  1  0  0  0  0
 32 34  2  0  0  0  0
 34 33  1  0  0  0  0
 36 35  1  0  0  0  0
 37 44  1  0  0  0  0
 37 45  1  0  0  0  0
 38 40  2  0  0  0  0
 39 36  1  0  0  0  0
 39 44  2  0  0  0  0
 40 41  1  0  0  0  0
 40 43  1  0  0  0  0
 41 39  1  0  0  0  0
 42 41  2  0  0  0  0
 43 37  2  0  0  0  0
 45 46  1  0  0  0  0
M  END
>  <MODEL>
2

>  <REMARK>
 VINA RESULT:      -8.3      1.954      3.693
  Name = 
  9 active torsions:
  status: ('A' for Active; 'I' for Inactive)
    1  A    between atoms: CA_2  and  C_6
    2  A    between atoms: C_7  and  C_20
    3  A    between atoms: C_7  and  C_21
    4  A    between atoms: C_7  and  C_34
    5  A    between atoms: C_10  and  N_13
    6  A    between atoms: C_12  and  N_29
    7  A    between atoms: C_20  and  N_29
    8  A    between atoms: C_21  and  C_27
    9  A    between atoms: N_38  and  C_44
                            x       y       z     vdW  Elec       q    Type
                         _______ _______ _______ _____ _____    ______ ____

>  <TORSDO>
F 9

$$$$
=
 OpenBabel11062419463D

 46 52  0  0  1  0  0  0  0  0999 V2000
  192.5110  175.3980  142.6670 C   0  0  0  0  0  2  0  0  0  0  0  0
  191.1100  175.2860  142.9860 C   0  0  1  0  0  3  0  0  0  0  0  0
  191.1530  173.9200  142.4010 C   0  0  2  0  0  3  0  0  0  0  0  0
  189.3800  173.1280  143.7670 C   0  0  0  0  0  2  0  0  0  0  0  0
  189.4640  173.9830  146.1200 O   0  0  0  0  0  1  0  0  0  0  0  0
  190.4200  172.8640  142.7080 C   0  0  0  0  0  2  0  0  0  0  0  0
  190.7500  175.1220  144.4460 C   0  0  0  0  0  0  0  0  0  0  0  0
  192.4960  174.1890  141.8590 N   0  0  2  0  0  0  0  0  0  0  0  0
  189.8950  174.1170  144.8070 C   0  0  0  0  0  0  0  0  0  0  0  0
  195.6400  172.9440  142.2730 C   0  0  2  0  0  3  0  0  0  0  0  0
  197.5700  173.9420  141.3050 C   0  0  0  0  0  2  0  0  0  0  0  0
  197.9400  174.5890  139.9910 C   0  0  0  0  0  2  0  0  0  0  0  0
  194.2170  172.4500  141.9740 C   0  0  0  0  0  2  0  0  0  0  0  0
  196.4300  173.0660  141.0350 N   0  0  2  0  0  0  0  0  0  0  0  0
  193.7250  174.8990  139.2060 O   0  0  0  0  0  1  0  0  0  0  0  0
  196.6310  174.7000  139.2390 C   0  0  0  0  0  2  0  0  0  0  0  0
  194.3900  174.3960  140.3270 C   0  0  2  0  0  3  0  0  0  0  0  0
  195.6960  173.6970  139.9060 C   0  0  2  0  0  3  0  0  0  0  0  0
  193.4610  173.4330  141.0760 C   0  0  2  0  0  3  0  0  0  0  0  0
  197.6870  170.7360  145.1480 C   0  0  0  0  0  2  0  0  0  0  0  0
  196.3460  172.1180  143.2690 N   0  0  1  0  0  0  0  0  0  0  0  0
  197.5850  168.7460  143.7920 O   0  0  0  0  0  1  0  0  0  0  0  0
  196.2210  172.6770  145.6490 C   0  0  0  0  0  2  0  0  0  0  0  0
  196.2700  171.1630  145.5660 C   0  0  1  0  0  3  0  0  0  0  0  0
  195.5370  171.9840  144.4900 C   0  0  2  0  0  3  0  0  0  0  0  0
  197.7440  170.1350  143.7360 C   0  0  1  0  0  3  0  0  0  0  0  0
  195.6180  169.9550  142.5860 O   0  0  0  0  0  1  0  0  0  0  0  0
  196.7390  170.7830  142.7620 C   0  0  1  0  0  3  0  0  0  0  0  0
  191.2440  176.1690  145.4140 C   0  0  2  0  0  3  0  0  0  0  0  0
  191.6450  175.7970  147.9160 C   0  0  0  0  0  1  0  0  0  0  0  0
  192.1680  175.5950  146.4970 C   0  0  2  0  0  3  0  0  0  0  0  0
  193.9630  177.2130  147.1120 O   0  0  0  0  0  1  0  0  0  0  0  0
  194.3830  175.5740  145.5720 O   0  0  0  0  0  0  0  0  0  0  0  0
  193.5640  176.1190  146.3580 C   0  0  0  0  0  0  0  0  0  0  0  0
  190.1580  177.1070  145.9390 C   0  0  0  0  0  2  0  0  0  0  0  0
  189.5360  177.8210  144.8370 N   0  0  0  0  0  2  0  0  0  0  0  0
  185.8040  177.4530  145.1540 C   0  0  0  0  0  0  0  0  0  0  0  0
  185.8020  177.3420  141.6330 O   0  0  0  0  0  0  0  0  0  0  0  0
  188.1570  177.6940  144.4690 C   0  0  0  0  0  0  0  0  0  0  0  0
  186.2550  177.4460  142.8070 C   0  0  0  0  0  0  0  0  0  0  0  0
  187.6950  177.6310  143.0560 C   0  0  0  0  0  0  0  0  0  0  0  0
  188.4930  177.7390  142.0920 O   0  0  0  0  0  0  0  0  0  0  0  0
  185.3660  177.3710  143.9260 N   0  0  0  0  0  0  0  0  0  0  0  0
  187.2520  177.6040  145.4450 C   0  0  0  0  0  3  0  0  0  0  0  0
  184.8500  177.3170  146.2820 C   0  0  0  0  0  2  0  0  0  0  0  0
  184.0390  178.4500  146.3490 O   0  0  0  0  0  1  0  0  0  0  0  0
  2  1  1  1  0  0  0
  2  7  1  0  0  0  0
  3  6  1  1  0  0  0
  3  2  1  0  0  0  0
  4  9  1  0  0  0  0
  6  4  1  0  0  0  0
  7  9  2  0  0  0  0
  7 29  1  0  0  0  0
  8  3  1  0  0  0  0
  8  1  1  1  0  0  0
  9  5  1  0  0  0  0
 10 13  1  6  0  0  0
 12 11  1  0  0  0  0
 14 11  1  1  0  0  0
 14 10  1  0  0  0  0
 16 12  1  0  0  0  0
 17 15  1  6  0  0  0
 17 19  1  0  0  0  0
 18 16  1  1  0  0  0
 18 17  1  0  0  0  0
 18 14  1  0  0  0  0
 19  8  1  0  0  0  0
 19 13  1  1  0  0  0
 21 10  1  6  0  0  0
 21 25  1  0  0  0  0
 24 20  1  6  0  0  0
 24 23  1  0  0  0  0
 25 24  1  0  0  0  0
 25 23  1  1  0  0  0
 26 22  1  1  0  0  0
 26 20  1  0  0  0  0
 28 27  1  1  0  0  0
 28 21  1  0  0  0  0
 28 26  1  0  0  0  0
 29 35  1  1  0  0  0
 29 31  1  0  0  0  0
 31 30  1  1  0  0  0
 33 34  2  0  0  0  0
 34 31  1  0  0  0  0
 34 32  1  0  0  0  0
 36 35  1  0  0  0  0
 37 44  1  0  0  0  0
 37 45  1  0  0  0  0
 38 40  2  0  0  0  0
 39 36  1  0  0  0  0
 39 44  2  0  0  0  0
 40 41  1  0  0  0  0
 40 43  1  0  0  0  0
 41 39  1  0  0  0  0
 42 41  2  0  0  0  0
 43 37  2  0  0  0  0
 45 46  1  0  0  0  0
M  END
>  <MODEL>
3

>  <REMARK>
 VINA RESULT:      -8.1      3.118      6.055
  Name = 
  9 active torsions:
  status: ('A' for Active; 'I' for Inactive)
    1  A    between atoms: CA_2  and  C_6
    2  A    between atoms: C_7  and  C_20
    3  A    between atoms: C_7  and  C_21
    4  A    between atoms: C_7  and  C_34
    5  A    between atoms: C_10  and  N_13
    6  A    between atoms: C_12  and  N_29
    7  A    between atoms: C_20  and  N_29
    8  A    between atoms: C_21  and  C_27
    9  A    between atoms: N_38  and  C_44
                            x       y       z     vdW  Elec       q    Type
                         _______ _______ _______ _____ _____    ______ ____

>  <TORSDO>
F 9

$$$$
=
 OpenBabel11062419463D

 46 52  0  0  1  0  0  0  0  0999 V2000
  189.8490  173.7180  143.7610 C   0  0  0  0  0  2  0  0  0  0  0  0
  191.1650  174.2780  143.9370 C   0  0  1  0  0  3  0  0  0  0  0  0
  191.3330  174.1760  142.4630 C   0  0  2  0  0  3  0  0  0  0  0  0
  192.8580  175.9930  142.3700 C   0  0  0  0  0  2  0  0  0  0  0  0
  192.2590  177.8870  143.8960 O   0  0  0  0  0  1  0  0  0  0  0  0
  192.0650  174.9270  141.6590 C   0  0  0  0  0  2  0  0  0  0  0  0
  191.2460  175.7480  144.2830 C   0  0  0  0  0  0  0  0  0  0  0  0
  190.1050  173.3670  142.3740 N   0  0  2  0  0  0  0  0  0  0  0  0
  192.0830  176.5520  143.5590 C   0  0  0  0  0  0  0  0  0  0  0  0
  190.7690  172.1040  139.2810 C   0  0  2  0  0  3  0  0  0  0  0  0
  190.2100  173.2380  137.2670 C   0  0  0  0  0  2  0  0  0  0  0  0
  189.0550  174.0590  136.7430 C   0  0  0  0  0  2  0  0  0  0  0  0
  190.2180  171.6430  140.6380 C   0  0  0  0  0  2  0  0  0  0  0  0
  189.6750  172.3970  138.3370 N   0  0  2  0  0  0  0  0  0  0  0  0
  187.7590  174.4380  140.8240 O   0  0  0  0  0  1  0  0  0  0  0  0
  188.1550  174.2600  137.9440 C   0  0  0  0  0  2  0  0  0  0  0  0
  188.8830  173.7940  140.3000 C   0  0  2  0  0  3  0  0  0  0  0  0
  188.5520  173.1690  138.9320 C   0  0  2  0  0  3  0  0  0  0  0  0
  189.3660  172.7320  141.2940 C   0  0  2  0  0  3  0  0  0  0  0  0
  193.5970  169.5320  137.6280 C   0  0  0  0  0  2  0  0  0  0  0  0
  191.7330  171.1560  138.6910 N   0  0  1  0  0  0  0  0  0  0  0  0
  191.8760  168.1660  136.6390 O   0  0  0  0  0  1  0  0  0  0  0  0
  193.9210  170.8140  139.7310 C   0  0  0  0  0  2  0  0  0  0  0  0
  193.5030  169.4710  139.1630 C   0  0  1  0  0  3  0  0  0  0  0  0
  192.4560  170.4360  139.7490 C   0  0  2  0  0  3  0  0  0  0  0  0
  192.2260  169.4860  136.9380 C   0  0  1  0  0  3  0  0  0  0  0  0
  190.3150  169.2620  138.4120 O   0  0  0  0  0  1  0  0  0  0  0  0
  191.1190  170.1990  137.7410 C   0  0  1  0  0  3  0  0  0  0  0  0
  190.5000  176.2240  145.5050 C   0  0  2  0  0  3  0  0  0  0  0  0
  189.8310  174.9640  147.6310 C   0  0  0  0  0  1  0  0  0  0  0  0
  190.9700  175.5430  146.7970 C   0  0  2  0  0  3  0  0  0  0  0  0
  193.1310  176.7140  147.2160 O   0  0  0  0  0  0  0  0  0  0  0  0
  191.3800  176.9990  148.6610 O   0  0  0  0  0  1  0  0  0  0  0  0
  191.8280  176.4560  147.6160 C   0  0  0  0  0  0  0  0  0  0  0  0
  188.9830  176.2850  145.3350 C   0  0  0  0  0  2  0  0  0  0  0  0
  188.5760  177.6170  144.9230 N   0  0  0  0  0  2  0  0  0  0  0  0
  185.2720  178.5800  143.4020 C   0  0  0  0  0  0  0  0  0  0  0  0
  186.7820  177.7860  140.3200 O   0  0  0  0  0  0  0  0  0  0  0  0
  187.5730  177.8860  143.9360 C   0  0  0  0  0  0  0  0  0  0  0  0
  186.6700  177.9620  141.5660 C   0  0  0  0  0  0  0  0  0  0  0  0
  187.7980  177.7040  142.4770 C   0  0  0  0  0  0  0  0  0  0  0  0
  188.9120  177.3490  142.0180 O   0  0  0  0  0  0  0  0  0  0  0  0
  185.4270  178.4090  142.1170 N   0  0  0  0  0  0  0  0  0  0  0  0
  186.3740  178.2960  144.3550 C   0  0  0  0  0  3  0  0  0  0  0  0
  183.9480  178.9930  143.9310 C   0  0  0  0  0  2  0  0  0  0  0  0
  183.9570  178.9240  145.3240 O   0  0  0  0  0  1  0  0  0  0  0  0
  2  1  1  6  0  0  0
  2  7  1  0  0  0  0
  3  6  1  6  0  0  0
  3  2  1  0  0  0  0
  4  9  1  0  0  0  0
  6  4  1  0  0  0  0
  7 29  1  0  0  0  0
  8  3  1  0  0  0  0
  8  1  1  6  0  0  0
  9  5  1  0  0  0  0
  9  7  2  0  0  0  0
 10 13  1  1  0  0  0
 12 11  1  0  0  0  0
 12 16  1  0  0  0  0
 14 11  1  6  0  0  0
 14 18  1  0  0  0  0
 14 10  1  0  0  0  0
 17 15  1  1  0  0  0
 17 19  1  0  0  0  0
 18 16  1  6  0  0  0
 18 17  1  0  0  0  0
 19 13  1  6  0  0  0
 19  8  1  0  0  0  0
 21 10  1  1  0  0  0
 21 25  1  0  0  0  0
 24 20  1  6  0  0  0
 24 23  1  0  0  0  0
 24 25  1  0  0  0  0
 25 23  1  1  0  0  0
 26 22  1  1  0  0  0
 26 20  1  0  0  0  0
 26 28  1  0  0  0  0
 28 27  1  1  0  0  0
 28 21  1  0  0  0  0
 29 35  1  6  0  0  0
 29 31  1  0  0  0  0
 31 34  1  0  0  0  0
 31 30  1  1  0  0  0
 32 34  2  0  0  0  0
 34 33  1  0  0  0  0
 36 35  1  0  0  0  0
 37 45  1  0  0  0  0
 37 44  1  0  0  0  0
 38 40  2  0  0  0  0
 39 44  2  0  0  0  0
 39 36  1  0  0  0  0
 40 43  1  0  0  0  0
 40 41  1  0  0  0  0
 41 39  1  0  0  0  0
 42 41  2  0  0  0  0
 43 37  2  0  0  0  0
 45 46  1  0  0  0  0
M  END
>  <MODEL>
4

>  <REMARK>
 VINA RESULT:      -8.1      2.304      4.960
  Name = 
  9 active torsions:
  status: ('A' for Active; 'I' for Inactive)
    1  A    between atoms: CA_2  and  C_6
    2  A    between atoms: C_7  and  C_20
    3  A    between atoms: C_7  and  C_21
    4  A    between atoms: C_7  and  C_34
    5  A    between atoms: C_10  and  N_13
    6  A    between atoms: C_12  and  N_29
    7  A    between atoms: C_20  and  N_29
    8  A    between atoms: C_21  and  C_27
    9  A    between atoms: N_38  and  C_44
                            x       y       z     vdW  Elec       q    Type
                         _______ _______ _______ _____ _____    ______ ____

>  <TORSDO>
F 9

$$$$
=
 OpenBabel11062419463D

 46 52  0  0  1  0  0  0  0  0999 V2000
  189.5930  174.9790  142.4960 C   0  0  0  0  0  2  0  0  0  0  0  0
  188.8050  174.9720  143.7020 C   0  0  1  0  0  3  0  0  0  0  0  0
  189.6770  173.8700  144.1870 C   0  0  2  0  0  3  0  0  0  0  0  0
  189.3520  174.4300  146.4710 C   0  0  0  0  0  2  0  0  0  0  0  0
  189.3130  176.8970  146.9060 O   0  0  0  0  0  1  0  0  0  0  0  0
  190.0040  173.5580  145.4280 C   0  0  0  0  0  2  0  0  0  0  0  0
  188.9980  176.1310  144.6550 C   0  0  0  0  0  0  0  0  0  0  0  0
  190.2660  173.7390  142.8430 N   0  0  2  0  0  0  0  0  0  0  0  0
  189.2190  175.8670  145.9780 C   0  0  0  0  0  0  0  0  0  0  0  0
  190.6860  172.0070  139.9400 C   0  0  2  0  0  3  0  0  0  0  0  0
  190.4500  169.6450  139.7900 C   0  0  0  0  0  2  0  0  0  0  0  0
  190.8180  168.4410  140.6250 C   0  0  0  0  0  2  0  0  0  0  0  0
  191.3550  173.1390  140.7330 C   0  0  0  0  0  2  0  0  0  0  0  0
  191.3630  170.7200  140.1780 N   0  0  2  0  0  0  0  0  0  0  0  0
  191.4170  171.1660  143.8960 O   0  0  0  0  0  1  0  0  0  0  0  0
  191.3320  169.0220  141.9250 C   0  0  0  0  0  2  0  0  0  0  0  0
  190.9950  171.4190  142.5880 C   0  0  2  0  0  3  0  0  0  0  0  0
  191.7000  170.4670  141.6040 C   0  0  2  0  0  3  0  0  0  0  0  0
  191.2790  172.8850  142.2410 C   0  0  2  0  0  3  0  0  0  0  0  0
  190.2520  172.7720  135.8700 C   0  0  0  0  0  2  0  0  0  0  0  0
  190.5840  172.2890  138.4960 N   0  0  1  0  0  0  0  0  0  0  0  0
  192.6130  172.4690  135.4920 O   0  0  0  0  0  1  0  0  0  0  0  0
  188.7990  173.7300  137.6420 C   0  0  0  0  0  2  0  0  0  0  0  0
  190.0150  173.9940  136.7740 C   0  0  1  0  0  3  0  0  0  0  0  0
  190.1740  173.6840  138.2740 C   0  0  2  0  0  3  0  0  0  0  0  0
  191.5250  171.9930  136.2310 C   0  0  1  0  0  3  0  0  0  0  0  0
  192.8390  172.9120  138.0480 O   0  0  0  0  0  1  0  0  0  0  0  0
  191.8250  171.9900  137.7440 C   0  0  1  0  0  3  0  0  0  0  0  0
  188.7950  177.5260  144.1160 C   0  0  2  0  0  3  0  0  0  0  0  0
  187.5470  178.2890  142.0150 C   0  0  0  0  0  1  0  0  0  0  0  0
  187.4400  177.7090  143.4220 C   0  0  2  0  0  3  0  0  0  0  0  0
  185.6960  179.4740  143.6690 O   0  0  0  0  0  0  0  0  0  0  0  0
  186.4170  178.3190  145.5070 O   0  0  0  0  0  1  0  0  0  0  0  0
  186.4980  178.5110  144.2650 C   0  0  0  0  0  0  0  0  0  0  0  0
  189.9870  178.0810  143.3370 C   0  0  0  0  0  2  0  0  0  0  0  0
  191.1890  178.0290  144.1520 N   0  0  0  0  0  2  0  0  0  0  0  0
  193.7230  175.7850  142.5080 C   0  0  0  0  0  0  0  0  0  0  0  0
  194.3660  174.6010  145.7630 O   0  0  0  0  0  0  0  0  0  0  0  0
  192.2290  177.0560  143.9970 C   0  0  0  0  0  0  0  0  0  0  0  0
  193.8500  175.2970  144.8440 C   0  0  0  0  0  0  0  0  0  0  0  0
  192.8250  176.3120  145.1390 C   0  0  0  0  0  0  0  0  0  0  0  0
  192.4820  176.5360  146.3260 O   0  0  0  0  0  0  0  0  0  0  0  0
  194.2520  175.0980  143.4850 N   0  0  0  0  0  0  0  0  0  0  0  0
  192.6610  176.7910  142.7620 C   0  0  0  0  0  3  0  0  0  0  0  0
  194.1330  175.5050  141.1100 C   0  0  0  0  0  2  0  0  0  0  0  0
  194.7110  174.2370  141.0360 O   0  0  0  0  0  1  0  0  0  0  0  0
  2  1  1  6  0  0  0
  2  3  1  0  0  0  0
  2  7  1  0  0  0  0
  3  6  1  1  0  0  0
  6  4  1  0  0  0  0
  7  9  2  0  0  0  0
  8  1  1  1  0  0  0
  8  3  1  0  0  0  0
  9  4  1  0  0  0  0
  9  5  1  0  0  0  0
 10 14  1  0  0  0  0
 10 13  1  1  0  0  0
 11 12  1  0  0  0  0
 12 16  1  0  0  0  0
 14 11  1  1  0  0  0
 14 18  1  0  0  0  0
 17 15  1  1  0  0  0
 18 16  1  1  0  0  0
 18 17  1  0  0  0  0
 19 13  1  6  0  0  0
 19 17  1  0  0  0  0
 19  8  1  0  0  0  0
 20 26  1  0  0  0  0
 21 10  1  1  0  0  0
 24 20  1  6  0  0  0
 24 23  1  0  0  0  0
 24 25  1  0  0  0  0
 25 23  1  1  0  0  0
 25 21  1  0  0  0  0
 26 22  1  6  0  0  0
 26 28  1  0  0  0  0
 28 27  1  6  0  0  0
 28 21  1  0  0  0  0
 29 35  1  6  0  0  0
 29  7  1  0  0  0  0
 31 30  1  6  0  0  0
 31 29  1  0  0  0  0
 31 34  1  0  0  0  0
 32 34  2  0  0  0  0
 34 33  1  0  0  0  0
 35 36  1  0  0  0  0
 37 44  1  0  0  0  0
 37 43  2  0  0  0  0
 39 36  1  0  0  0  0
 39 41  1  0  0  0  0
 40 41  1  0  0  0  0
 40 38  2  0  0  0  0
 41 42  2  0  0  0  0
 43 40  1  0  0  0  0
 44 39  2  0  0  0  0
 45 37  1  0  0  0  0
 46 45  1  0  0  0  0
M  END
>  <MODEL>
5

>  <REMARK>
 VINA RESULT:      -8.0      2.673      5.049
  Name = 
  9 active torsions:
  status: ('A' for Active; 'I' for Inactive)
    1  A    between atoms: CA_2  and  C_6
    2  A    between atoms: C_7  and  C_20
    3  A    between atoms: C_7  and  C_21
    4  A    between atoms: C_7  and  C_34
    5  A    between atoms: C_10  and  N_13
    6  A    between atoms: C_12  and  N_29
    7  A    between atoms: C_20  and  N_29
    8  A    between atoms: C_21  and  C_27
    9  A    between atoms: N_38  and  C_44
                            x       y       z     vdW  Elec       q    Type
                         _______ _______ _______ _____ _____    ______ ____

>  <TORSDO>
F 9

$$$$
=
 OpenBabel11062419463D

 46 52  0  0  1  0  0  0  0  0999 V2000
  190.2870  174.8950  141.2940 C   0  0  0  0  0  2  0  0  0  0  0  0
  189.3610  174.3520  142.2550 C   0  0  1  0  0  3  0  0  0  0  0  0
  189.6920  173.0070  141.7150 C   0  0  2  0  0  3  0  0  0  0  0  0
  189.2180  171.9130  143.7680 C   0  0  0  0  0  2  0  0  0  0  0  0
  189.9890  173.1820  145.7860 O   0  0  0  0  0  1  0  0  0  0  0  0
  189.6780  171.8400  142.3350 C   0  0  0  0  0  2  0  0  0  0  0  0
  189.7960  174.3580  143.7040 C   0  0  0  0  0  0  0  0  0  0  0  0
  190.4080  173.6300  140.5880 N   0  0  2  0  0  0  0  0  0  0  0  0
  189.6880  173.2040  144.4300 C   0  0  0  0  0  0  0  0  0  0  0  0
  193.1510  174.5210  138.7760 C   0  0  2  0  0  3  0  0  0  0  0  0
  193.0150  175.5560  136.6390 C   0  0  0  0  0  2  0  0  0  0  0  0
  192.1710  175.4180  135.3940 C   0  0  0  0  0  2  0  0  0  0  0  0
  192.6380  173.3440  139.6190 C   0  0  0  0  0  2  0  0  0  0  0  0
  192.9450  174.2730  137.3380 N   0  0  2  0  0  0  0  0  0  0  0  0
  189.3930  173.1790  137.7920 O   0  0  0  0  0  1  0  0  0  0  0  0
  191.0790  174.4430  135.7810 C   0  0  0  0  0  2  0  0  0  0  0  0
  190.5920  173.7950  138.1560 C   0  0  2  0  0  3  0  0  0  0  0  0
  191.6110  173.7060  137.0050 C   0  0  2  0  0  3  0  0  0  0  0  0
  191.1340  173.1350  139.4290 C   0  0  2  0  0  3  0  0  0  0  0  0
  197.0780  175.6430  139.5890 C   0  0  0  0  0  2  0  0  0  0  0  0
  194.5570  174.8680  139.0550 N   0  0  1  0  0  0  0  0  0  0  0  0
  197.9410  173.7220  138.4170 O   0  0  0  0  0  1  0  0  0  0  0  0
  195.1360  176.1660  141.0470 C   0  0  0  0  0  2  0  0  0  0  0  0
  196.2770  175.1920  140.8230 C   0  0  1  0  0  3  0  0  0  0  0  0
  194.8270  174.7900  140.4980 C   0  0  2  0  0  3  0  0  0  0  0  0
  196.9310  174.6890  138.3940 C   0  0  1  0  0  3  0  0  0  0  0  0
  195.5620  172.7260  138.7800 O   0  0  0  0  0  1  0  0  0  0  0  0
  195.5320  174.0460  138.3010 C   0  0  1  0  0  3  0  0  0  0  0  0
  190.1940  175.6800  144.3140 C   0  0  2  0  0  3  0  0  0  0  0  0
  191.6460  175.9710  146.4030 C   0  0  0  0  0  1  0  0  0  0  0  0
  191.6080  175.6630  144.9090 C   0  0  2  0  0  3  0  0  0  0  0  0
  192.0770  177.2040  143.0040 O   0  0  0  0  0  0  0  0  0  0  0  0
  193.7130  176.7570  144.5400 O   0  0  0  0  0  1  0  0  0  0  0  0
  192.5310  176.5640  144.1490 C   0  0  0  0  0  0  0  0  0  0  0  0
  189.1320  176.3030  145.2190 C   0  0  0  0  0  2  0  0  0  0  0  0
  188.7610  177.6180  144.7260 N   0  0  0  0  0  2  0  0  0  0  0  0
  185.1150  178.5330  144.5570 C   0  0  0  0  0  0  0  0  0  0  0  0
  185.5030  178.2720  141.0660 O   0  0  0  0  0  0  0  0  0  0  0  0
  187.4760  177.9430  144.1820 C   0  0  0  0  0  0  0  0  0  0  0  0
  185.8190  178.2710  142.2890 C   0  0  0  0  0  0  0  0  0  0  0  0
  187.1950  177.9760  142.7220 C   0  0  0  0  0  0  0  0  0  0  0  0
  188.0940  177.7670  141.8690 O   0  0  0  0  0  0  0  0  0  0  0  0
  184.8270  178.5480  143.2830 N   0  0  0  0  0  0  0  0  0  0  0  0
  186.4820  178.2050  145.0340 C   0  0  0  0  0  3  0  0  0  0  0  0
  184.0410  178.7740  145.5530 C   0  0  0  0  0  2  0  0  0  0  0  0
  184.0660  177.7710  146.5220 O   0  0  0  0  0  1  0  0  0  0  0  0
  2  1  1  6  0  0  0
  2  7  1  0  0  0  0
  3  2  1  0  0  0  0
  3  6  1  1  0  0  0
  4  9  1  0  0  0  0
  6  4  1  0  0  0  0
  7 29  1  0  0  0  0
  7  9  2  0  0  0  0
  8  1  1  1  0  0  0
  8  3  1  0  0  0  0
  9  5  1  0  0  0  0
 10 13  1  1  0  0  0
 12 16  1  0  0  0  0
 12 11  1  0  0  0  0
 14 11  1  6  0  0  0
 14 10  1  0  0  0  0
 17 15  1  6  0  0  0
 17 19  1  0  0  0  0
 18 16  1  6  0  0  0
 18 14  1  0  0  0  0
 18 17  1  0  0  0  0
 19 13  1  1  0  0  0
 19  8  1  0  0  0  0
 21 10  1  1  0  0  0
 21 25  1  0  0  0  0
 24 20  1  6  0  0  0
 24 23  1  0  0  0  0
 25 24  1  0  0  0  0
 25 23  1  1  0  0  0
 26 22  1  1  0  0  0
 26 20  1  0  0  0  0
 28 26  1  0  0  0  0
 28 27  1  1  0  0  0
 28 21  1  0  0  0  0
 29 31  1  0  0  0  0
 29 35  1  1  0  0  0
 31 30  1  1  0  0  0
 32 34  2  0  0  0  0
 34 33  1  0  0  0  0
 34 31  1  0  0  0  0
 36 35  1  0  0  0  0
 37 44  1  0  0  0  0
 37 45  1  0  0  0  0
 38 40  2  0  0  0  0
 39 36  1  0  0  0  0
 39 44  2  0  0  0  0
 40 41  1  0  0  0  0
 40 43  1  0  0  0  0
 41 39  1  0  0  0  0
 42 41  2  0  0  0  0
 43 37  2  0  0  0  0
 45 46  1  0  0  0  0
M  END
>  <MODEL>
6

>  <REMARK>
 VINA RESULT:      -7.9      3.292      5.979
  Name = 
  9 active torsions:
  status: ('A' for Active; 'I' for Inactive)
    1  A    between atoms: CA_2  and  C_6
    2  A    between atoms: C_7  and  C_20
    3  A    between atoms: C_7  and  C_21
    4  A    between atoms: C_7  and  C_34
    5  A    between atoms: C_10  and  N_13
    6  A    between atoms: C_12  and  N_29
    7  A    between atoms: C_20  and  N_29
    8  A    between atoms: C_21  and  C_27
    9  A    between atoms: N_38  and  C_44
                            x       y       z     vdW  Elec       q    Type
                         _______ _______ _______ _____ _____    ______ ____

>  <TORSDO>
F 9

$$$$
=
 OpenBabel11062419463D

 46 52  0  0  1  0  0  0  0  0999 V2000
  190.1570  173.3520  143.4000 C   0  0  0  0  0  2  0  0  0  0  0  0
  191.3390  174.0900  143.7710 C   0  0  1  0  0  3  0  0  0  0  0  0
  191.7320  174.0530  142.3380 C   0  0  2  0  0  3  0  0  0  0  0  0
  192.9720  176.0720  142.4820 C   0  0  0  0  0  2  0  0  0  0  0  0
  191.8880  177.8180  143.9140 O   0  0  0  0  0  1  0  0  0  0  0  0
  192.4550  174.9230  141.6550 C   0  0  0  0  0  2  0  0  0  0  0  0
  191.1520  175.5460  144.1340 C   0  0  0  0  0  0  0  0  0  0  0  0
  190.6610  173.0790  142.0640 N   0  0  2  0  0  0  0  0  0  0  0  0
  191.9600  176.4810  143.5460 C   0  0  0  0  0  0  0  0  0  0  0  0
  191.5690  172.7620  138.7960 C   0  0  2  0  0  3  0  0  0  0  0  0
  190.4290  173.8570  137.0190 C   0  0  0  0  0  2  0  0  0  0  0  0
  188.9980  174.1670  136.6480 C   0  0  0  0  0  2  0  0  0  0  0  0
  191.3730  171.8900  140.0450 C   0  0  0  0  0  2  0  0  0  0  0  0
  190.3890  172.7030  137.9160 N   0  0  2  0  0  0  0  0  0  0  0  0
  187.9740  173.2620  140.7230 O   0  0  0  0  0  1  0  0  0  0  0  0
  188.1910  173.7550  137.8600 C   0  0  0  0  0  2  0  0  0  0  0  0
  189.2220  173.2690  140.0960 C   0  0  2  0  0  3  0  0  0  0  0  0
  189.0910  172.7980  138.6360 C   0  0  2  0  0  3  0  0  0  0  0  0
  190.1870  172.3740  140.8830 C   0  0  2  0  0  3  0  0  0  0  0  0
  195.0800  172.0000  136.6900 C   0  0  0  0  0  2  0  0  0  0  0  0
  192.7990  172.4410  138.0480 N   0  0  1  0  0  0  0  0  0  0  0  0
  194.2060  169.9160  135.8530 O   0  0  0  0  0  1  0  0  0  0  0  0
  194.9610  173.3110  138.7970 C   0  0  0  0  0  2  0  0  0  0  0  0
  195.2300  171.9340  138.2200 C   0  0  1  0  0  3  0  0  0  0  0  0
  193.9210  172.2260  138.9750 C   0  0  2  0  0  3  0  0  0  0  0  0
  193.8560  171.2320  136.1710 C   0  0  1  0  0  3  0  0  0  0  0  0
  192.5460  170.0810  137.8540 O   0  0  0  0  0  1  0  0  0  0  0  0
  192.6540  171.2830  137.1360 C   0  0  1  0  0  3  0  0  0  0  0  0
  190.1760  175.8780  145.2350 C   0  0  2  0  0  3  0  0  0  0  0  0
  189.1580  174.8480  147.3480 C   0  0  0  0  0  1  0  0  0  0  0  0
  190.4180  175.0670  146.5150 C   0  0  2  0  0  3  0  0  0  0  0  0
  191.1940  176.5190  148.3890 O   0  0  0  0  0  1  0  0  0  0  0  0
  192.7210  175.3980  147.1060 O   0  0  0  0  0  0  0  0  0  0  0  0
  191.5130  175.6650  147.3420 C   0  0  0  0  0  0  0  0  0  0  0  0
  188.7160  175.9350  144.7880 C   0  0  0  0  0  2  0  0  0  0  0  0
  188.3360  177.3060  144.4880 N   0  0  0  0  0  2  0  0  0  0  0  0
  185.2120  178.2250  142.6030 C   0  0  0  0  0  0  0  0  0  0  0  0
  183.8860  179.0380  145.7640 O   0  0  0  0  0  0  0  0  0  0  0  0
  186.9930  177.7330  144.2300 C   0  0  0  0  0  0  0  0  0  0  0  0
  184.7160  178.6260  144.9060 C   0  0  0  0  0  0  0  0  0  0  0  0
  186.0540  178.1550  145.3030 C   0  0  0  0  0  0  0  0  0  0  0  0
  186.3720  178.1100  146.5180 O   0  0  0  0  0  0  0  0  0  0  0  0
  184.3690  178.6240  143.5180 N   0  0  0  0  0  0  0  0  0  0  0  0
  186.5810  177.7770  142.9610 C   0  0  0  0  0  3  0  0  0  0  0  0
  184.8240  178.2910  141.1720 C   0  0  0  0  0  2  0  0  0  0  0  0
  185.9360  178.0240  140.3720 O   0  0  0  0  0  1  0  0  0  0  0  0
  2  1  1  6  0  0  0
  2  7  1  0  0  0  0
  3  6  1  6  0  0  0
  3  2  1  0  0  0  0
  4  9  1  0  0  0  0
  6  4  1  0  0  0  0
  7 29  1  0  0  0  0
  8  3  1  0  0  0  0
  8  1  1  6  0  0  0
  9  5  1  0  0  0  0
  9  7  2  0  0  0  0
 10 13  1  1  0  0  0
 12 11  1  0  0  0  0
 12 16  1  0  0  0  0
 14 11  1  6  0  0  0
 14 18  1  0  0  0  0
 14 10  1  0  0  0  0
 17 15  1  1  0  0  0
 17 19  1  0  0  0  0
 18 16  1  6  0  0  0
 18 17  1  0  0  0  0
 19 13  1  6  0  0  0
 19  8  1  0  0  0  0
 21 10  1  1  0  0  0
 21 25  1  0  0  0  0
 24 20  1  6  0  0  0
 24 23  1  0  0  0  0
 24 25  1  0  0  0  0
 25 23  1  6  0  0  0
 26 22  1  1  0  0  0
 26 20  1  0  0  0  0
 26 28  1  0  0  0  0
 28 27  1  1  0  0  0
 28 21  1  0  0  0  0
 29 35  1  6  0  0  0
 29 31  1  0  0  0  0
 31 34  1  0  0  0  0
 31 30  1  1  0  0  0
 33 34  2  0  0  0  0
 34 32  1  0  0  0  0
 36 35  1  0  0  0  0
 37 44  1  0  0  0  0
 37 43  2  0  0  0  0
 39 36  1  0  0  0  0
 39 41  1  0  0  0  0
 40 41  1  0  0  0  0
 40 38  2  0  0  0  0
 41 42  2  0  0  0  0
 43 40  1  0  0  0  0
 44 39  2  0  0  0  0
 45 37  1  0  0  0  0
 46 45  1  0  0  0  0
M  END
>  <MODEL>
7

>  <REMARK>
 VINA RESULT:      -7.9      2.491      4.835
  Name = 
  9 active torsions:
  status: ('A' for Active; 'I' for Inactive)
    1  A    between atoms: CA_2  and  C_6
    2  A    between atoms: C_7  and  C_20
    3  A    between atoms: C_7  and  C_21
    4  A    between atoms: C_7  and  C_34
    5  A    between atoms: C_10  and  N_13
    6  A    between atoms: C_12  and  N_29
    7  A    between atoms: C_20  and  N_29
    8  A    between atoms: C_21  and  C_27
    9  A    between atoms: N_38  and  C_44
                            x       y       z     vdW  Elec       q    Type
                         _______ _______ _______ _____ _____    ______ ____

>  <TORSDO>
F 9

$$$$
=
 OpenBabel11062419463D

 46 52  0  0  1  0  0  0  0  0999 V2000
  190.3060  174.9100  141.5910 C   0  0  0  0  0  2  0  0  0  0  0  0
  189.3630  174.4210  142.5650 C   0  0  1  0  0  3  0  0  0  0  0  0
  189.6780  173.0500  142.0850 C   0  0  2  0  0  3  0  0  0  0  0  0
  189.1680  172.0500  144.1780 C   0  0  0  0  0  2  0  0  0  0  0  0
  189.9390  173.3920  146.1480 O   0  0  0  0  0  1  0  0  0  0  0  0
  189.6400  171.9100  142.7530 C   0  0  0  0  0  2  0  0  0  0  0  0
  189.7840  174.4820  144.0170 C   0  0  0  0  0  0  0  0  0  0  0  0
  190.4140  173.6140  140.9410 N   0  0  2  0  0  0  0  0  0  0  0  0
  189.6520  173.3610  144.7890 C   0  0  0  0  0  0  0  0  0  0  0  0
  193.1610  174.4100  139.0920 C   0  0  2  0  0  3  0  0  0  0  0  0
  193.0320  175.3330  136.9040 C   0  0  0  0  0  2  0  0  0  0  0  0
  192.1900  175.1310  135.6660 C   0  0  0  0  0  2  0  0  0  0  0  0
  192.6460  173.2790  139.9930 C   0  0  0  0  0  2  0  0  0  0  0  0
  192.9600  174.0880  137.6680 N   0  0  2  0  0  0  0  0  0  0  0  0
  189.4060  173.0190  138.1690 O   0  0  0  0  0  1  0  0  0  0  0  0
  191.0980  174.1770  136.0990 C   0  0  0  0  0  2  0  0  0  0  0  0
  190.6040  173.6530  138.5040 C   0  0  2  0  0  3  0  0  0  0  0  0
  191.6260  173.5040  137.3610 C   0  0  2  0  0  3  0  0  0  0  0  0
  191.1430  173.0590  139.8100 C   0  0  2  0  0  3  0  0  0  0  0  0
  197.0890  175.5750  139.8400 C   0  0  0  0  0  2  0  0  0  0  0  0
  194.5670  174.7720  139.3560 N   0  0  1  0  0  0  0  0  0  0  0  0
  197.9400  173.4800  139.0090 O   0  0  0  0  0  1  0  0  0  0  0  0
  195.1200  176.3550  141.1380 C   0  0  0  0  0  2  0  0  0  0  0  0
  196.2450  175.3380  141.1040 C   0  0  1  0  0  3  0  0  0  0  0  0
  194.7960  174.9160  140.8010 C   0  0  2  0  0  3  0  0  0  0  0  0
  196.9530  174.4490  138.8050 C   0  0  1  0  0  3  0  0  0  0  0  0
  195.5300  172.5960  139.4500 O   0  0  0  0  0  1  0  0  0  0  0  0
  195.5430  173.8250  138.7700 C   0  0  1  0  0  3  0  0  0  0  0  0
  190.1970  175.8210  144.5740 C   0  0  2  0  0  3  0  0  0  0  0  0
  191.6460  176.5040  146.5730 C   0  0  0  0  0  1  0  0  0  0  0  0
  191.5880  175.7990  145.2210 C   0  0  2  0  0  3  0  0  0  0  0  0
  193.9360  175.8670  144.3850 O   0  0  0  0  0  1  0  0  0  0  0  0
  192.3420  177.1930  143.4180 O   0  0  0  0  0  0  0  0  0  0  0  0
  192.6320  176.3320  144.2900 C   0  0  0  0  0  0  0  0  0  0  0  0
  189.1210  176.5170  145.4080 C   0  0  0  0  0  2  0  0  0  0  0  0
  188.6080  177.6770  144.7000 N   0  0  0  0  0  2  0  0  0  0  0  0
  185.3900  178.2090  142.8240 C   0  0  0  0  0  0  0  0  0  0  0  0
  183.9550  178.7180  146.0010 O   0  0  0  0  0  0  0  0  0  0  0  0
  187.2190  177.9190  144.4470 C   0  0  0  0  0  0  0  0  0  0  0  0
  184.8370  178.4570  145.1360 C   0  0  0  0  0  0  0  0  0  0  0  0
  186.2270  178.1670  145.5270 C   0  0  0  0  0  0  0  0  0  0  0  0
  186.5450  178.1250  146.7410 O   0  0  0  0  0  0  0  0  0  0  0  0
  184.4960  178.4530  143.7460 N   0  0  0  0  0  0  0  0  0  0  0  0
  186.8070  177.9470  143.1770 C   0  0  0  0  0  3  0  0  0  0  0  0
  185.0000  178.2680  141.3940 C   0  0  0  0  0  2  0  0  0  0  0  0
  185.8950  177.5160  140.6320 O   0  0  0  0  0  1  0  0  0  0  0  0
  2  1  1  6  0  0  0
  2  7  1  0  0  0  0
  3  2  1  0  0  0  0
  3  6  1  1  0  0  0
  4  9  1  0  0  0  0
  6  4  1  0  0  0  0
  7 29  1  0  0  0  0
  7  9  2  0  0  0  0
  8  1  1  1  0  0  0
  8  3  1  0  0  0  0
  9  5  1  0  0  0  0
 10 13  1  1  0  0  0
 12 16  1  0  0  0  0
 12 11  1  0  0  0  0
 14 11  1  6  0  0  0
 14 10  1  0  0  0  0
 17 15  1  6  0  0  0
 17 19  1  0  0  0  0
 18 16  1  6  0  0  0
 18 14  1  0  0  0  0
 18 17  1  0  0  0  0
 19 13  1  1  0  0  0
 19  8  1  0  0  0  0
 21 10  1  1  0  0  0
 21 25  1  0  0  0  0
 24 20  1  6  0  0  0
 24 23  1  0  0  0  0
 25 24  1  0  0  0  0
 25 23  1  6  0  0  0
 26 22  1  1  0  0  0
 26 20  1  0  0  0  0
 28 26  1  0  0  0  0
 28 21  1  0  0  0  0
 28 27  1  1  0  0  0
 29 31  1  0  0  0  0
 29 35  1  1  0  0  0
 31 30  1  1  0  0  0
 33 34  2  0  0  0  0
 34 32  1  0  0  0  0
 34 31  1  0  0  0  0
 36 35  1  0  0  0  0
 37 44  1  0  0  0  0
 37 43  2  0  0  0  0
 39 36  1  0  0  0  0
 39 41  1  0  0  0  0
 40 41  1  0  0  0  0
 40 38  2  0  0  0  0
 41 42  2  0  0  0  0
 43 40  1  0  0  0  0
 44 39  2  0  0  0  0
 45 37  1  0  0  0  0
 46 45  1  0  0  0  0
M  END
>  <MODEL>
8

>  <REMARK>
 VINA RESULT:      -7.8      3.144      5.653
  Name = 
  9 active torsions:
  status: ('A' for Active; 'I' for Inactive)
    1  A    between atoms: CA_2  and  C_6
    2  A    between atoms: C_7  and  C_20
    3  A    between atoms: C_7  and  C_21
    4  A    between atoms: C_7  and  C_34
    5  A    between atoms: C_10  and  N_13
    6  A    between atoms: C_12  and  N_29
    7  A    between atoms: C_20  and  N_29
    8  A    between atoms: C_21  and  C_27
    9  A    between atoms: N_38  and  C_44
                            x       y       z     vdW  Elec       q    Type
                         _______ _______ _______ _____ _____    ______ ____

>  <TORSDO>
F 9

$$$$
=
 OpenBabel11062419463D

 46 52  0  0  1  0  0  0  0  0999 V2000
  189.0680  174.3250  140.6670 C   0  0  0  0  0  2  0  0  0  0  0  0
  188.5170  173.7340  141.8600 C   0  0  1  0  0  3  0  0  0  0  0  0
  189.4710  172.6110  141.6660 C   0  0  2  0  0  3  0  0  0  0  0  0
  189.5700  172.1110  143.9850 C   0  0  0  0  0  2  0  0  0  0  0  0
  189.5950  174.1410  145.4520 O   0  0  0  0  0  1  0  0  0  0  0  0
  190.0240  171.8280  142.5760 C   0  0  0  0  0  2  0  0  0  0  0  0
  188.8750  174.3870  143.1770 C   0  0  0  0  0  0  0  0  0  0  0  0
  189.8030  173.1180  140.3240 N   0  0  2  0  0  0  0  0  0  0  0  0
  189.3390  173.6030  144.1970 C   0  0  0  0  0  0  0  0  0  0  0  0
  192.6830  174.2140  138.8730 C   0  0  2  0  0  3  0  0  0  0  0  0
  192.7420  175.2900  136.7520 C   0  0  0  0  0  2  0  0  0  0  0  0
  192.0630  175.1320  135.4130 C   0  0  0  0  0  2  0  0  0  0  0  0
  192.1470  172.9890  139.6270 C   0  0  0  0  0  2  0  0  0  0  0  0
  192.6680  173.9890  137.4160 N   0  0  2  0  0  0  0  0  0  0  0  0
  189.1610  172.6760  137.4180 O   0  0  0  0  0  1  0  0  0  0  0  0
  190.9950  174.0850  135.6470 C   0  0  0  0  0  2  0  0  0  0  0  0
  190.2680  173.3530  137.9350 C   0  0  2  0  0  3  0  0  0  0  0  0
  191.4210  173.3520  136.9150 C   0  0  2  0  0  3  0  0  0  0  0  0
  190.6920  172.6950  139.2530 C   0  0  2  0  0  3  0  0  0  0  0  0
  196.4090  175.5500  140.1670 C   0  0  0  0  0  2  0  0  0  0  0  0
  194.0220  174.6380  139.3260 N   0  0  1  0  0  0  0  0  0  0  0  0
  197.5080  173.6360  139.1980 O   0  0  0  0  0  1  0  0  0  0  0  0
  194.2650  176.0260  141.3270 C   0  0  0  0  0  2  0  0  0  0  0  0
  195.4670  175.1010  141.2980 C   0  0  1  0  0  3  0  0  0  0  0  0
  194.0950  174.6200  140.7950 C   0  0  2  0  0  3  0  0  0  0  0  0
  196.4690  174.5510  139.0010 C   0  0  1  0  0  3  0  0  0  0  0  0
  195.1460  172.5390  139.2730 O   0  0  0  0  0  1  0  0  0  0  0  0
  195.1250  173.8400  138.7440 C   0  0  1  0  0  3  0  0  0  0  0  0
  188.5670  175.8550  143.3420 C   0  0  2  0  0  3  0  0  0  0  0  0
  186.9460  177.0550  141.7640 C   0  0  0  0  0  1  0  0  0  0  0  0
  187.1080  176.2010  143.0180 C   0  0  2  0  0  3  0  0  0  0  0  0
  186.7440  176.4160  145.4750 O   0  0  0  0  0  1  0  0  0  0  0  0
  185.5600  177.7340  144.0260 O   0  0  0  0  0  0  0  0  0  0  0  0
  186.4210  176.8300  144.1900 C   0  0  0  0  0  0  0  0  0  0  0  0
  189.5960  176.7900  142.7100 C   0  0  0  0  0  2  0  0  0  0  0  0
  190.1920  177.6420  143.7260 N   0  0  0  0  0  2  0  0  0  0  0  0
  193.1950  176.2160  145.4870 C   0  0  0  0  0  0  0  0  0  0  0  0
  191.2350  176.4410  148.4060 O   0  0  0  0  0  0  0  0  0  0  0  0
  191.0380  177.1700  144.7810 C   0  0  0  0  0  0  0  0  0  0  0  0
  191.5520  176.5570  147.1890 C   0  0  0  0  0  0  0  0  0  0  0  0
  190.6090  177.1130  146.2040 C   0  0  0  0  0  0  0  0  0  0  0  0
  189.4830  177.5310  146.5740 O   0  0  0  0  0  0  0  0  0  0  0  0
  192.8430  176.1310  146.7430 N   0  0  0  0  0  0  0  0  0  0  0  0
  192.2600  176.7380  144.4600 C   0  0  0  0  0  3  0  0  0  0  0  0
  194.5250  175.7120  145.0640 C   0  0  0  0  0  2  0  0  0  0  0  0
  195.3170  176.7790  144.6380 O   0  0  0  0  0  1  0  0  0  0  0  0
  2  1  1  6  0  0  0
  2  7  1  0  0  0  0
  3  2  1  0  0  0  0
  3  6  1  1  0  0  0
  4  9  1  0  0  0  0
  6  4  1  0  0  0  0
  7 29  1  0  0  0  0
  7  9  2  0  0  0  0
  8  1  1  1  0  0  0
  8  3  1  0  0  0  0
  9  5  1  0  0  0  0
 10 13  1  1  0  0  0
 12 16  1  0  0  0  0
 12 11  1  0  0  0  0
 14 11  1  6  0  0  0
 14 10  1  0  0  0  0
 17 15  1  6  0  0  0
 17 19  1  0  0  0  0
 18 16  1  6  0  0  0
 18 14  1  0  0  0  0
 18 17  1  0  0  0  0
 19 13  1  1  0  0  0
 19  8  1  0  0  0  0
 21 10  1  1  0  0  0
 21 25  1  0  0  0  0
 24 20  1  6  0  0  0
 24 23  1  0  0  0  0
 25 24  1  0  0  0  0
 25 23  1  1  0  0  0
 26 22  1  1  0  0  0
 26 20  1  0  0  0  0
 28 26  1  0  0  0  0
 28 27  1  1  0  0  0
 28 21  1  0  0  0  0
 29 35  1  6  0  0  0
 31 30  1  6  0  0  0
 31 29  1  0  0  0  0
 31 34  1  0  0  0  0
 33 34  2  0  0  0  0
 34 32  1  0  0  0  0
 35 36  1  0  0  0  0
 36 39  1  0  0  0  0
 37 43  2  0  0  0  0
 39 41  1  0  0  0  0
 40 38  2  0  0  0  0
 41 42  2  0  0  0  0
 41 40  1  0  0  0  0
 43 40  1  0  0  0  0
 44 39  2  0  0  0  0
 44 37  1  0  0  0  0
 45 37  1  0  0  0  0
 46 45  1  0  0  0  0
M  END
>  <MODEL>
9

>  <REMARK>
 VINA RESULT:      -7.8      3.123      6.558
  Name = 
  9 active torsions:
  status: ('A' for Active; 'I' for Inactive)
    1  A    between atoms: CA_2  and  C_6
    2  A    between atoms: C_7  and  C_20
    3  A    between atoms: C_7  and  C_21
    4  A    between atoms: C_7  and  C_34
    5  A    between atoms: C_10  and  N_13
    6  A    between atoms: C_12  and  N_29
    7  A    between atoms: C_20  and  N_29
    8  A    between atoms: C_21  and  C_27
    9  A    between atoms: N_38  and  C_44
                            x       y       z     vdW  Elec       q    Type
                         _______ _______ _______ _____ _____    ______ ____

>  <TORSDO>
F 9

$$$$
