=
 OpenBabel11062423053D

 57 61  0  0  1  0  0  0  0  0999 V2000
  196.2590  175.0140  143.6780 C   0  0  0  0  0  0  0  0  0  0  0  0
  195.7610  173.9990  144.4700 C   0  0  0  0  0  0  0  0  0  0  0  0
  195.9740  176.3720  143.8980 C   0  0  0  0  0  0  0  0  0  0  0  0
  196.7960  176.6520  142.7620 C   0  0  0  0  0  0  0  0  0  0  0  0
  194.9250  174.4190  145.5310 C   0  0  0  0  0  3  0  0  0  0  0  0
  195.1730  176.8230  144.9300 C   0  0  0  0  0  3  0  0  0  0  0  0
  196.0840  177.2160  141.7180 F   0  0  0  0  0  0  0  0  0  0  0  0
  197.9250  177.3780  143.0930 F   0  0  0  0  0  0  0  0  0  0  0  0
  194.6380  175.8050  145.7630 C   0  0  0  0  0  0  0  0  0  0  0  0
  197.0990  175.2910  142.5130 N   0  0  0  0  0  0  0  0  0  0  0  0
  193.7760  176.2080  146.9160 C   0  0  1  0  0  3  0  0  0  0  0  0
  194.0510  177.5110  147.2920 F   0  0  0  0  0  0  0  0  0  0  0  0
  192.0430  176.0380  146.5170 S   0  0  0  0  0  0  0  0  0  0  0  0
  191.6770  174.5820  146.4950 O   0  0  0  0  0  0  0  0  0  0  0  0
  191.2090  176.7360  147.5570 O   0  0  0  0  0  0  0  0  0  0  0  0
  191.7410  176.7180  144.9530 N   0  0  0  0  0  2  0  0  0  0  0  0
  190.4720  177.4270  145.0060 C   0  0  2  0  0  3  0  0  0  0  0  0
  187.7810  178.3000  144.0540 O   0  0  0  0  0  0  0  0  0  0  0  0
  186.4370  178.1380  144.4060 C   0  0  1  0  0  3  0  0  0  0  0  0
  188.0930  177.2120  143.3800 O   0  0  0  0  0  0  0  0  0  0  0  0
  186.4590  177.2620  146.7940 C   0  0  1  0  0  3  0  0  0  0  0  0
  189.1400  176.3430  144.3960 P   0  0  2  0  0  4  0  0  0  0  0  0
  186.2580  178.4690  145.8800 C   0  0  0  0  0  2  0  0  0  0  0  0
  185.5380  176.2480  146.5140 O   0  0  0  0  0  1  0  0  0  0  0  0
  187.8990  176.7410  146.8370 C   0  0  0  0  0  2  0  0  0  0  0  0
  188.1850  175.6700  145.7920 C   0  0  0  0  0  2  0  0  0  0  0  0
  187.5010  172.8790  141.9760 C   0  0  0  0  0  1  0  0  0  0  0  0
  189.8570  174.9590  143.4580 C   0  0  2  0  0  3  0  0  0  0  0  0
  189.8060  175.2430  142.0320 N   0  0  0  0  0  2  0  0  0  0  0  0
  189.6540  173.9480  141.3850 C   0  0  0  0  0  2  0  0  0  0  0  0
  188.9600  173.0180  142.3590 C   0  0  1  0  0  3  0  0  0  0  0  0
  189.0620  173.6950  143.7030 C   0  0  0  0  0  2  0  0  0  0  0  0
  185.5310  180.2670  143.8560 O   0  0  0  0  0  0  0  0  0  0  0  0
  185.5790  179.0360  143.5790 C   0  0  0  0  0  0  0  0  0  0  0  0
  185.3980  178.2970  141.3170 C   0  0  0  0  0  2  0  0  0  0  0  0
  184.8470  178.5070  142.4680 N   0  0  0  0  0  0  0  0  0  0  0  0
  191.7290  178.2280  143.0340 S   0  0  0  0  0  1  0  0  0  0  0  0
  190.5460  178.5820  144.2280 O   0  0  0  0  0  0  0  0  0  0  0  0
  194.6760  171.5360  144.7990 S   0  0  0  0  0  1  0  0  0  0  0  0
  196.0510  172.5640  144.2050 C   0  0  0  0  0  2  0  0  0  0  0  0
  197.9410  174.5170  141.6140 C   0  0  0  0  0  2  0  0  0  0  0  0
  197.8510  173.6170  139.2800 O   0  0  0  0  0  0  0  0  0  0  0  0
  197.2420  172.9290  138.2850 O   0  0  0  0  0  0  0  0  0  0  0  0
  195.0950  173.6810  139.1710 C   0  0  0  0  0  2  0  0  0  0  0  0
  196.0270  173.5760  137.9580 C   0  0  1  0  0  3  0  0  0  0  0  0
  197.1680  174.0530  140.4240 C   0  0  0  0  0  0  0  0  0  0  0  0
  195.8390  174.1280  140.3920 C   0  0  0  0  0  3  0  0  0  0  0  0
  196.2340  174.8880  137.2480 C   0  0  0  0  0  0  0  0  0  0  0  0
  197.1760  175.6470  137.6000 O   0  0  0  0  0  0  0  0  0  0  0  0
  193.5860  175.0810  134.7230 O   0  0  0  0  0  0  0  0  0  0  0  0
  194.3180  174.5420  135.5950 C   0  0  0  0  0  0  0  0  0  0  0  0
  195.3610  175.3160  136.1970 N   0  0  0  0  0  2  0  0  0  0  0  0
  194.1260  173.2020  135.9470 O   0  0  0  0  0  0  0  0  0  0  0  0
  192.8400  172.6520  136.2110 C   0  0  0  0  0  2  0  0  0  0  0  0
  191.9990  173.6130  137.0430 C   0  0  0  0  0  2  0  0  0  0  0  0
  190.8250  172.8990  137.6930 C   0  0  0  0  0  2  0  0  0  0  0  0
  191.3980  171.7430  138.9730 S   0  0  0  0  0  1  0  0  0  0  0  0
  1  3  2  0  0  0  0
  1  2  1  0  0  0  0
  2  5  2  0  0  0  0
  3  6  1  0  0  0  0
  4  8  1  0  0  0  0
  4  3  1  0  0  0  0
  5  9  1  0  0  0  0
  6  9  2  0  0  0  0
  7  4  1  0  0  0  0
  9 11  1  0  0  0  0
 10  4  1  0  0  0  0
 10  1  1  0  0  0  0
 11 12  1  6  0  0  0
 13 11  1  0  0  0  0
 13 15  2  0  0  0  0
 14 13  2  0  0  0  0
 16 17  1  0  0  0  0
 16 13  1  0  0  0  0
 17 38  1  6  0  0  0
 18 19  1  0  0  0  0
 19 34  1  6  0  0  0
 19 23  1  0  0  0  0
 20 18  1  0  0  0  0
 20 22  1  0  0  0  0
 21 24  1  6  0  0  0
 21 25  1  0  0  0  0
 22 17  1  1  0  0  0
 22 26  1  0  0  0  0
 23 21  1  0  0  0  0
 26 25  1  0  0  0  0
 28 32  1  6  0  0  0
 28 22  1  0  0  0  0
 29 28  1  0  0  0  0
 30 29  1  0  0  0  0
 30 31  1  0  0  0  0
 31 27  1  6  0  0  0
 31 32  1  0  0  0  0
 34 33  2  0  0  0  0
 35 36  2  0  0  0  0
 36 34  1  0  0  0  0
 37 38  1  0  0  0  0
 40  2  1  0  0  0  0
 40 39  1  0  0  0  0
 41 10  1  0  0  0  0
 42 46  1  0  0  0  0
 43 42  1  0  0  0  0
 44 47  1  0  0  0  0
 45 48  1  1  0  0  0
 45 43  1  0  0  0  0
 45 44  1  0  0  0  0
 46 41  1  0  0  0  0
 47 46  2  0  0  0  0
 48 49  2  0  0  0  0
 50 51  2  0  0  0  0
 51 53  1  0  0  0  0
 51 52  1  0  0  0  0
 52 48  1  0  0  0  0
 53 54  1  0  0  0  0
 54 55  1  0  0  0  0
 55 56  1  0  0  0  0
 56 57  1  0  0  0  0
M  END
>  <MODEL>
1

>  <REMARK>
 VINA RESULT:      -6.8      0.000      0.000
  Name = 
  17 active torsions:
  status: ('A' for Active; 'I' for Inactive)
    1  A    between atoms: C_3  and  C_41
    2  A    between atoms: C_5  and  P_22
    3  A    between atoms: C_6  and  C_24
    4  A    between atoms: C_8  and  C_32
    5  A    between atoms: C_10  and  C_54
    6  A    between atoms: O_17  and  C_49
    7  A    between atoms: O_17  and  C_53
    8  A    between atoms: O_19  and  C_30
    9  A    between atoms: C_20  and  C_40
   10  A    between atoms: C_20  and  S_45
   11  A    between atoms: P_22  and  C_30
   12  A    between atoms: N_25  and  C_30
   13  A    between atoms: N_25  and  S_45
   14  A    between atoms: N_29  and  C_41
   15  A    between atoms: C_32  and  C_53
   16  A    between atoms: C_37  and  C_44
   17  A    between atoms: C_37  and  N_50
                            x       y       z     vdW  Elec       q    Type
                         _______ _______ _______ _____ _____    ______ ____

>  <TORSDO>
F 17

$$$$
=
 OpenBabel11062423053D

 57 61  0  0  1  0  0  0  0  0999 V2000
  194.4480  174.2970  144.4710 C   0  0  0  0  0  0  0  0  0  0  0  0
  193.5750  173.4950  145.1770 C   0  0  0  0  0  0  0  0  0  0  0  0
  194.5880  175.6750  144.7050 C   0  0  0  0  0  0  0  0  0  0  0  0
  195.5700  175.6770  143.6650 C   0  0  0  0  0  0  0  0  0  0  0  0
  192.8100  174.1610  146.1630 C   0  0  0  0  0  3  0  0  0  0  0  0
  193.8690  176.3590  145.6670 C   0  0  0  0  0  3  0  0  0  0  0  0
  195.1860  176.4380  142.5750 F   0  0  0  0  0  0  0  0  0  0  0  0
  196.8310  176.0050  144.1290 F   0  0  0  0  0  0  0  0  0  0  0  0
  192.9550  175.5670  146.4100 C   0  0  0  0  0  0  0  0  0  0  0  0
  195.4490  174.2900  143.4030 N   0  0  0  0  0  0  0  0  0  0  0  0
  192.1520  176.2250  147.4840 C   0  0  1  0  0  3  0  0  0  0  0  0
  192.7660  177.3940  147.8990 F   0  0  0  0  0  0  0  0  0  0  0  0
  190.4900  176.5710  146.9280 S   0  0  0  0  0  0  0  0  0  0  0  0
  189.5770  175.4590  147.3630 O   0  0  0  0  0  0  0  0  0  0  0  0
  190.0080  177.8620  147.5300 O   0  0  0  0  0  0  0  0  0  0  0  0
  190.4690  176.6720  145.1990 N   0  0  0  0  0  2  0  0  0  0  0  0
  189.6070  177.7810  144.8220 C   0  0  2  0  0  3  0  0  0  0  0  0
  188.7620  175.3200  143.3580 O   0  0  0  0  0  0  0  0  0  0  0  0
  187.9960  174.9720  142.2410 C   0  0  1  0  0  3  0  0  0  0  0  0
  187.8900  175.5100  144.3270 O   0  0  0  0  0  0  0  0  0  0  0  0
  187.7220  177.1200  140.9060 C   0  0  1  0  0  3  0  0  0  0  0  0
  187.8970  177.1830  144.6130 P   0  0  2  0  0  4  0  0  0  0  0  0
  188.4540  175.7870  141.0400 C   0  0  0  0  0  2  0  0  0  0  0  0
  186.3460  176.9350  140.7400 O   0  0  0  0  0  1  0  0  0  0  0  0
  188.0420  178.1260  142.0160 C   0  0  0  0  0  2  0  0  0  0  0  0
  187.1010  178.0260  143.2100 C   0  0  0  0  0  2  0  0  0  0  0  0
  183.8080  178.9090  145.5260 C   0  0  0  0  0  1  0  0  0  0  0  0
  186.9390  177.5270  146.1210 C   0  0  2  0  0  3  0  0  0  0  0  0
  185.9260  176.5010  146.3130 N   0  0  0  0  0  2  0  0  0  0  0  0
  184.8160  177.1740  146.9730 C   0  0  0  0  0  2  0  0  0  0  0  0
  184.8570  178.6370  146.5840 C   0  0  1  0  0  3  0  0  0  0  0  0
  186.2290  178.8570  145.9950 C   0  0  0  0  0  2  0  0  0  0  0  0
  187.1260  172.7730  141.9910 O   0  0  0  0  0  0  0  0  0  0  0  0
  188.1460  173.5160  141.9500 C   0  0  0  0  0  0  0  0  0  0  0  0
  189.6050  172.2570  140.5430 C   0  0  0  0  0  2  0  0  0  0  0  0
  189.4270  172.9820  141.5980 N   0  0  0  0  0  0  0  0  0  0  0  0
  191.4940  177.4760  143.2550 S   0  0  0  0  0  1  0  0  0  0  0  0
  190.0650  178.3510  143.6340 O   0  0  0  0  0  0  0  0  0  0  0  0
  191.8480  171.7440  144.0360 S   0  0  0  0  0  1  0  0  0  0  0  0
  193.4190  172.0420  144.8960 C   0  0  0  0  0  2  0  0  0  0  0  0
  196.0900  173.2870  142.5680 C   0  0  0  0  0  2  0  0  0  0  0  0
  196.1200  173.0240  140.0790 O   0  0  0  0  0  0  0  0  0  0  0  0
  195.5670  172.6150  138.9120 O   0  0  0  0  0  0  0  0  0  0  0  0
  193.3700  173.0990  139.8600 C   0  0  0  0  0  2  0  0  0  0  0  0
  194.3570  173.3190  138.7070 C   0  0  1  0  0  3  0  0  0  0  0  0
  195.3790  173.1440  141.2630 C   0  0  0  0  0  0  0  0  0  0  0  0
  194.0510  173.2170  141.1890 C   0  0  0  0  0  3  0  0  0  0  0  0
  194.5720  174.7710  138.3720 C   0  0  0  0  0  0  0  0  0  0  0  0
  195.5260  175.4000  138.9040 O   0  0  0  0  0  0  0  0  0  0  0  0
  191.9050  175.6560  136.0200 O   0  0  0  0  0  0  0  0  0  0  0  0
  192.6390  174.8960  136.7080 C   0  0  0  0  0  0  0  0  0  0  0  0
  193.6950  175.4720  137.4840 N   0  0  0  0  0  2  0  0  0  0  0  0
  192.4350  173.5130  136.6900 O   0  0  0  0  0  0  0  0  0  0  0  0
  191.4910  172.8840  135.8290 C   0  0  0  0  0  2  0  0  0  0  0  0
  191.5310  171.3690  135.9940 C   0  0  0  0  0  2  0  0  0  0  0  0
  191.5820  170.9750  137.4600 C   0  0  0  0  0  2  0  0  0  0  0  0
  192.2140  169.2830  137.6550 S   0  0  0  0  0  1  0  0  0  0  0  0
  1  3  2  0  0  0  0
  1  2  1  0  0  0  0
  2  5  2  0  0  0  0
  3  6  1  0  0  0  0
  4  8  1  0  0  0  0
  4  3  1  0  0  0  0
  5  9  1  0  0  0  0
  6  9  2  0  0  0  0
  7  4  1  0  0  0  0
  9 11  1  0  0  0  0
 10  4  1  0  0  0  0
 10  1  1  0  0  0  0
 11 12  1  6  0  0  0
 13 14  2  0  0  0  0
 13 11  1  0  0  0  0
 13 15  2  0  0  0  0
 16 13  1  0  0  0  0
 17 38  1  6  0  0  0
 17 16  1  0  0  0  0
 18 20  1  0  0  0  0
 19 34  1  6  0  0  0
 19 18  1  0  0  0  0
 20 22  1  0  0  0  0
 21 24  1  1  0  0  0
 21 23  1  0  0  0  0
 21 25  1  0  0  0  0
 22 17  1  1  0  0  0
 22 28  1  0  0  0  0
 23 19  1  0  0  0  0
 25 26  1  0  0  0  0
 26 22  1  0  0  0  0
 28 32  1  6  0  0  0
 28 29  1  0  0  0  0
 29 30  1  0  0  0  0
 31 27  1  6  0  0  0
 31 30  1  0  0  0  0
 32 31  1  0  0  0  0
 34 33  2  0  0  0  0
 35 36  2  0  0  0  0
 36 34  1  0  0  0  0
 37 38  1  0  0  0  0
 39 40  1  0  0  0  0
 40  2  1  0  0  0  0
 41 10  1  0  0  0  0
 42 46  1  0  0  0  0
 43 42  1  0  0  0  0
 44 47  1  0  0  0  0
 45 48  1  1  0  0  0
 45 43  1  0  0  0  0
 45 44  1  0  0  0  0
 46 41  1  0  0  0  0
 47 46  2  0  0  0  0
 48 49  2  0  0  0  0
 50 51  2  0  0  0  0
 51 52  1  0  0  0  0
 52 48  1  0  0  0  0
 53 51  1  0  0  0  0
 54 55  1  0  0  0  0
 54 53  1  0  0  0  0
 55 56  1  0  0  0  0
 56 57  1  0  0  0  0
M  END
>  <MODEL>
2

>  <REMARK>
 VINA RESULT:      -6.8      2.016      3.814
  Name = 
  17 active torsions:
  status: ('A' for Active; 'I' for Inactive)
    1  A    between atoms: C_3  and  C_41
    2  A    between atoms: C_5  and  P_22
    3  A    between atoms: C_6  and  C_24
    4  A    between atoms: C_8  and  C_32
    5  A    between atoms: C_10  and  C_54
    6  A    between atoms: O_17  and  C_49
    7  A    between atoms: O_17  and  C_53
    8  A    between atoms: O_19  and  C_30
    9  A    between atoms: C_20  and  C_40
   10  A    between atoms: C_20  and  S_45
   11  A    between atoms: P_22  and  C_30
   12  A    between atoms: N_25  and  C_30
   13  A    between atoms: N_25  and  S_45
   14  A    between atoms: N_29  and  C_41
   15  A    between atoms: C_32  and  C_53
   16  A    between atoms: C_37  and  C_44
   17  A    between atoms: C_37  and  N_50
                            x       y       z     vdW  Elec       q    Type
                         _______ _______ _______ _____ _____    ______ ____

>  <TORSDO>
F 17

$$$$
=
 OpenBabel11062423053D

 57 61  0  0  1  0  0  0  0  0999 V2000
  194.6100  173.3880  144.1860 C   0  0  0  0  0  0  0  0  0  0  0  0
  195.1260  174.6670  144.1880 C   0  0  0  0  0  0  0  0  0  0  0  0
  193.6210  172.9540  145.0840 C   0  0  0  0  0  0  0  0  0  0  0  0
  193.6920  171.6830  144.4330 C   0  0  0  0  0  0  0  0  0  0  0  0
  194.5920  175.5290  145.1750 C   0  0  0  0  0  3  0  0  0  0  0  0
  193.0650  173.7690  146.0520 C   0  0  0  0  0  3  0  0  0  0  0  0
  194.1460  170.6820  145.2740 F   0  0  0  0  0  0  0  0  0  0  0  0
  192.5120  171.3500  143.7930 F   0  0  0  0  0  0  0  0  0  0  0  0
  193.5760  175.0930  146.0890 C   0  0  0  0  0  0  0  0  0  0  0  0
  194.6920  172.0890  143.5160 N   0  0  0  0  0  0  0  0  0  0  0  0
  193.0150  176.0450  147.0950 C   0  0  1  0  0  3  0  0  0  0  0  0
  193.7320  177.2290  147.0910 F   0  0  0  0  0  0  0  0  0  0  0  0
  191.2880  176.3740  146.7810 S   0  0  0  0  0  0  0  0  0  0  0  0
  190.4650  175.2100  147.2540 O   0  0  0  0  0  0  0  0  0  0  0  0
  190.8600  177.6090  147.5250 O   0  0  0  0  0  0  0  0  0  0  0  0
  191.0400  176.5840  145.0800 N   0  0  0  0  0  2  0  0  0  0  0  0
  190.1610  177.7260  144.8890 C   0  0  2  0  0  3  0  0  0  0  0  0
  189.0900  175.2610  143.5880 O   0  0  0  0  0  0  0  0  0  0  0  0
  188.1900  174.9120  142.5770 C   0  0  1  0  0  3  0  0  0  0  0  0
  188.3440  175.4920  144.6490 O   0  0  0  0  0  0  0  0  0  0  0  0
  187.8120  177.0410  141.2370 C   0  0  1  0  0  3  0  0  0  0  0  0
  188.4250  177.1700  144.8950 P   0  0  2  0  0  4  0  0  0  0  0  0
  188.5230  175.6920  141.3130 C   0  0  0  0  0  2  0  0  0  0  0  0
  186.4220  176.8900  141.2380 O   0  0  0  0  0  1  0  0  0  0  0  0
  188.2850  178.0590  142.2790 C   0  0  0  0  0  2  0  0  0  0  0  0
  187.4890  178.0070  143.5780 C   0  0  0  0  0  2  0  0  0  0  0  0
  184.2180  178.0180  146.3520 C   0  0  0  0  0  1  0  0  0  0  0  0
  187.6600  177.5680  146.4970 C   0  0  2  0  0  3  0  0  0  0  0  0
  187.0060  176.3890  147.0440 N   0  0  0  0  0  2  0  0  0  0  0  0
  185.8750  176.8950  147.8080 C   0  0  0  0  0  2  0  0  0  0  0  0
  185.4550  178.2180  147.2030 C   0  0  1  0  0  3  0  0  0  0  0  0
  186.6050  178.6380  146.3200 C   0  0  0  0  0  2  0  0  0  0  0  0
  187.3510  172.8970  141.6340 O   0  0  0  0  0  0  0  0  0  0  0  0
  188.2690  173.4480  142.3020 C   0  0  0  0  0  0  0  0  0  0  0  0
  189.3330  171.9500  143.8250 C   0  0  0  0  0  2  0  0  0  0  0  0
  189.3910  172.6900  142.7670 N   0  0  0  0  0  0  0  0  0  0  0  0
  191.8000  177.4800  143.0560 S   0  0  0  0  0  1  0  0  0  0  0  0
  190.4600  178.3540  143.6800 O   0  0  0  0  0  0  0  0  0  0  0  0
  195.5060  176.2370  142.0100 S   0  0  0  0  0  1  0  0  0  0  0  0
  196.1950  175.1000  143.2480 C   0  0  0  0  0  2  0  0  0  0  0  0
  195.3930  171.5390  142.3660 C   0  0  0  0  0  2  0  0  0  0  0  0
  193.6950  172.7400  140.9730 O   0  0  0  0  0  0  0  0  0  0  0  0
  193.1290  173.0560  139.7840 O   0  0  0  0  0  0  0  0  0  0  0  0
  193.6890  170.8130  138.9990 C   0  0  0  0  0  2  0  0  0  0  0  0
  192.6050  171.8790  139.1990 C   0  0  1  0  0  3  0  0  0  0  0  0
  194.5610  171.6500  141.1310 C   0  0  0  0  0  0  0  0  0  0  0  0
  194.5570  170.6850  140.2130 C   0  0  0  0  0  3  0  0  0  0  0  0
  191.3840  171.3630  139.9140 C   0  0  0  0  0  0  0  0  0  0  0  0
  191.5090  170.4880  140.8130 O   0  0  0  0  0  0  0  0  0  0  0  0
  188.5390  173.1210  138.4180 O   0  0  0  0  0  0  0  0  0  0  0  0
  189.7490  172.8790  138.6680 C   0  0  0  0  0  0  0  0  0  0  0  0
  190.0700  171.8180  139.5740 N   0  0  0  0  0  2  0  0  0  0  0  0
  190.7590  173.6520  138.0850 O   0  0  0  0  0  0  0  0  0  0  0  0
  190.6480  174.2050  136.7780 C   0  0  0  0  0  2  0  0  0  0  0  0
  191.6540  173.5620  135.8300 C   0  0  0  0  0  2  0  0  0  0  0  0
  190.9820  173.0810  134.5550 C   0  0  0  0  0  2  0  0  0  0  0  0
  189.8110  171.7370  134.9070 S   0  0  0  0  0  1  0  0  0  0  0  0
  1  2  2  0  0  0  0
  1  3  1  0  0  0  0
  2  5  1  0  0  0  0
  3  6  2  0  0  0  0
  4  3  1  0  0  0  0
  4  7  1  0  0  0  0
  5  9  2  0  0  0  0
  6  9  1  0  0  0  0
  8  4  1  0  0  0  0
  9 11  1  0  0  0  0
 10  1  1  0  0  0  0
 10  4  1  0  0  0  0
 11 12  1  6  0  0  0
 13 11  1  0  0  0  0
 13 14  2  0  0  0  0
 13 15  2  0  0  0  0
 16 13  1  0  0  0  0
 17 38  1  6  0  0  0
 17 16  1  0  0  0  0
 18 20  1  0  0  0  0
 19 34  1  6  0  0  0
 19 18  1  0  0  0  0
 20 22  1  0  0  0  0
 21 24  1  1  0  0  0
 21 23  1  0  0  0  0
 21 25  1  0  0  0  0
 22 17  1  6  0  0  0
 22 28  1  0  0  0  0
 23 19  1  0  0  0  0
 25 26  1  0  0  0  0
 26 22  1  0  0  0  0
 28 32  1  6  0  0  0
 28 29  1  0  0  0  0
 29 30  1  0  0  0  0
 31 27  1  6  0  0  0
 31 30  1  0  0  0  0
 32 31  1  0  0  0  0
 33 34  2  0  0  0  0
 34 36  1  0  0  0  0
 36 35  2  0  0  0  0
 37 38  1  0  0  0  0
 39 40  1  0  0  0  0
 40  2  1  0  0  0  0
 41 10  1  0  0  0  0
 42 46  1  0  0  0  0
 43 42  1  0  0  0  0
 44 45  1  0  0  0  0
 44 47  1  0  0  0  0
 45 43  1  0  0  0  0
 45 48  1  1  0  0  0
 46 41  1  0  0  0  0
 47 46  2  0  0  0  0
 48 49  2  0  0  0  0
 50 51  2  0  0  0  0
 51 52  1  0  0  0  0
 52 48  1  0  0  0  0
 53 51  1  0  0  0  0
 54 53  1  0  0  0  0
 55 54  1  0  0  0  0
 56 57  1  0  0  0  0
 56 55  1  0  0  0  0
M  END
>  <MODEL>
3

>  <REMARK>
 VINA RESULT:      -6.7      2.992      4.828
  Name = 
  17 active torsions:
  status: ('A' for Active; 'I' for Inactive)
    1  A    between atoms: C_3  and  C_41
    2  A    between atoms: C_5  and  P_22
    3  A    between atoms: C_6  and  C_24
    4  A    between atoms: C_8  and  C_32
    5  A    between atoms: C_10  and  C_54
    6  A    between atoms: O_17  and  C_49
    7  A    between atoms: O_17  and  C_53
    8  A    between atoms: O_19  and  C_30
    9  A    between atoms: C_20  and  C_40
   10  A    between atoms: C_20  and  S_45
   11  A    between atoms: P_22  and  C_30
   12  A    between atoms: N_25  and  C_30
   13  A    between atoms: N_25  and  S_45
   14  A    between atoms: N_29  and  C_41
   15  A    between atoms: C_32  and  C_53
   16  A    between atoms: C_37  and  C_44
   17  A    between atoms: C_37  and  N_50
                            x       y       z     vdW  Elec       q    Type
                         _______ _______ _______ _____ _____    ______ ____

>  <TORSDO>
F 17

$$$$
=
 OpenBabel11062423053D

 57 61  0  0  1  0  0  0  0  0999 V2000
  194.6340  174.1620  143.8360 C   0  0  0  0  0  0  0  0  0  0  0  0
  194.8470  175.5200  143.9610 C   0  0  0  0  0  0  0  0  0  0  0  0
  193.8680  173.4170  144.7480 C   0  0  0  0  0  0  0  0  0  0  0  0
  194.1520  172.2730  143.9370 C   0  0  0  0  0  0  0  0  0  0  0  0
  194.2440  176.1230  145.0890 C   0  0  0  0  0  3  0  0  0  0  0  0
  193.2530  173.9710  145.8540 C   0  0  0  0  0  3  0  0  0  0  0  0
  194.9050  171.3240  144.6040 F   0  0  0  0  0  0  0  0  0  0  0  0
  193.0140  171.7420  143.3570 F   0  0  0  0  0  0  0  0  0  0  0  0
  193.4560  175.3670  146.0180 C   0  0  0  0  0  0  0  0  0  0  0  0
  194.9310  172.9970  143.0020 N   0  0  0  0  0  0  0  0  0  0  0  0
  192.8080  176.0490  147.1790 C   0  0  1  0  0  3  0  0  0  0  0  0
  193.4680  177.2280  147.4760 F   0  0  0  0  0  0  0  0  0  0  0  0
  191.0820  176.3780  146.8560 S   0  0  0  0  0  0  0  0  0  0  0  0
  190.2570  175.2130  147.3220 O   0  0  0  0  0  0  0  0  0  0  0  0
  190.6500  177.6120  147.5980 O   0  0  0  0  0  0  0  0  0  0  0  0
  190.8450  176.5900  145.1530 N   0  0  0  0  0  2  0  0  0  0  0  0
  189.9720  177.7360  144.9580 C   0  0  2  0  0  3  0  0  0  0  0  0
  188.9530  175.2560  143.6450 O   0  0  0  0  0  0  0  0  0  0  0  0
  188.0950  174.8950  142.6020 C   0  0  1  0  0  3  0  0  0  0  0  0
  188.1640  175.5000  144.6710 O   0  0  0  0  0  0  0  0  0  0  0  0
  187.7750  177.0070  141.2210 C   0  0  1  0  0  3  0  0  0  0  0  0
  188.2360  177.1810  144.9000 P   0  0  2  0  0  4  0  0  0  0  0  0
  188.4800  175.6590  141.3430 C   0  0  0  0  0  2  0  0  0  0  0  0
  186.3860  176.8560  141.1670 O   0  0  0  0  0  1  0  0  0  0  0  0
  188.2050  178.0380  142.2690 C   0  0  0  0  0  2  0  0  0  0  0  0
  187.3570  178.0020  143.5340 C   0  0  0  0  0  2  0  0  0  0  0  0
  184.0760  178.5160  146.1000 C   0  0  0  0  0  1  0  0  0  0  0  0
  187.4070  177.5990  146.4640 C   0  0  2  0  0  3  0  0  0  0  0  0
  186.5630  176.4940  146.8910 N   0  0  0  0  0  2  0  0  0  0  0  0
  185.4510  177.1090  147.6010 C   0  0  0  0  0  2  0  0  0  0  0  0
  185.2570  178.5050  147.0470 C   0  0  1  0  0  3  0  0  0  0  0  0
  186.5180  178.8090  146.2760 C   0  0  0  0  0  2  0  0  0  0  0  0
  187.3880  172.8960  141.5250 O   0  0  0  0  0  0  0  0  0  0  0  0
  188.1840  173.4270  142.3490 C   0  0  0  0  0  0  0  0  0  0  0  0
  189.7660  171.6430  142.4370 C   0  0  0  0  0  2  0  0  0  0  0  0
  189.1830  172.6440  143.0110 N   0  0  0  0  0  0  0  0  0  0  0  0
  191.6100  177.4710  143.1260 S   0  0  0  0  0  1  0  0  0  0  0  0
  190.3080  178.3880  143.7720 O   0  0  0  0  0  0  0  0  0  0  0  0
  197.4230  175.7850  143.1560 S   0  0  0  0  0  1  0  0  0  0  0  0
  195.6850  176.2880  143.0000 C   0  0  0  0  0  2  0  0  0  0  0  0
  195.6090  172.7520  141.7390 C   0  0  0  0  0  2  0  0  0  0  0  0
  195.0440  172.5160  139.3120 O   0  0  0  0  0  0  0  0  0  0  0  0
  194.1560  172.4330  138.2920 O   0  0  0  0  0  0  0  0  0  0  0  0
  192.6860  173.9310  139.5390 C   0  0  0  0  0  2  0  0  0  0  0  0
  193.4210  173.6410  138.2250 C   0  0  1  0  0  3  0  0  0  0  0  0
  194.6880  172.9800  140.5850 C   0  0  0  0  0  0  0  0  0  0  0  0
  193.5740  173.6960  140.7230 C   0  0  0  0  0  3  0  0  0  0  0  0
  194.2440  174.8020  137.7320 C   0  0  0  0  0  0  0  0  0  0  0  0
  195.4370  174.9310  138.1190 O   0  0  0  0  0  0  0  0  0  0  0  0
  192.0340  176.7230  135.5310 O   0  0  0  0  0  0  0  0  0  0  0  0
  192.4070  175.7430  136.2280 C   0  0  0  0  0  0  0  0  0  0  0  0
  193.6940  175.7890  136.8540 N   0  0  0  0  0  2  0  0  0  0  0  0
  191.5850  174.6200  136.3640 O   0  0  0  0  0  0  0  0  0  0  0  0
  190.1790  174.6630  136.1400 C   0  0  0  0  0  2  0  0  0  0  0  0
  189.4590  173.6380  137.0090 C   0  0  0  0  0  2  0  0  0  0  0  0
  190.1810  172.3010  136.9970 C   0  0  0  0  0  2  0  0  0  0  0  0
  189.8940  171.4220  135.4330 S   0  0  0  0  0  1  0  0  0  0  0  0
  1  2  2  0  0  0  0
  1  3  1  0  0  0  0
  2  5  1  0  0  0  0
  3  6  2  0  0  0  0
  4  7  1  0  0  0  0
  4  3  1  0  0  0  0
  5  9  2  0  0  0  0
  6  9  1  0  0  0  0
  8  4  1  0  0  0  0
  9 11  1  0  0  0  0
 10  1  1  0  0  0  0
 10  4  1  0  0  0  0
 11 12  1  6  0  0  0
 13 11  1  0  0  0  0
 13 14  2  0  0  0  0
 13 15  2  0  0  0  0
 16 13  1  0  0  0  0
 17 38  1  6  0  0  0
 17 16  1  0  0  0  0
 18 20  1  0  0  0  0
 19 34  1  6  0  0  0
 19 18  1  0  0  0  0
 20 22  1  0  0  0  0
 21 24  1  1  0  0  0
 21 23  1  0  0  0  0
 21 25  1  0  0  0  0
 22 17  1  1  0  0  0
 22 28  1  0  0  0  0
 23 19  1  0  0  0  0
 25 26  1  0  0  0  0
 26 22  1  0  0  0  0
 28 32  1  6  0  0  0
 28 29  1  0  0  0  0
 29 30  1  0  0  0  0
 31 27  1  6  0  0  0
 31 30  1  0  0  0  0
 32 31  1  0  0  0  0
 33 34  2  0  0  0  0
 34 36  1  0  0  0  0
 35 36  2  0  0  0  0
 37 38  1  0  0  0  0
 40 39  1  0  0  0  0
 40  2  1  0  0  0  0
 41 10  1  0  0  0  0
 42 46  1  0  0  0  0
 43 42  1  0  0  0  0
 44 47  1  0  0  0  0
 45 48  1  1  0  0  0
 45 43  1  0  0  0  0
 45 44  1  0  0  0  0
 46 47  2  0  0  0  0
 46 41  1  0  0  0  0
 48 49  2  0  0  0  0
 50 51  2  0  0  0  0
 51 53  1  0  0  0  0
 51 52  1  0  0  0  0
 52 48  1  0  0  0  0
 54 53  1  0  0  0  0
 54 55  1  0  0  0  0
 56 55  1  0  0  0  0
 57 56  1  0  0  0  0
M  END
>  <MODEL>
4

>  <REMARK>
 VINA RESULT:      -6.7      2.482      4.234
  Name = 
  17 active torsions:
  status: ('A' for Active; 'I' for Inactive)
    1  A    between atoms: C_3  and  C_41
    2  A    between atoms: C_5  and  P_22
    3  A    between atoms: C_6  and  C_24
    4  A    between atoms: C_8  and  C_32
    5  A    between atoms: C_10  and  C_54
    6  A    between atoms: O_17  and  C_49
    7  A    between atoms: O_17  and  C_53
    8  A    between atoms: O_19  and  C_30
    9  A    between atoms: C_20  and  C_40
   10  A    between atoms: C_20  and  S_45
   11  A    between atoms: P_22  and  C_30
   12  A    between atoms: N_25  and  C_30
   13  A    between atoms: N_25  and  S_45
   14  A    between atoms: N_29  and  C_41
   15  A    between atoms: C_32  and  C_53
   16  A    between atoms: C_37  and  C_44
   17  A    between atoms: C_37  and  N_50
                            x       y       z     vdW  Elec       q    Type
                         _______ _______ _______ _____ _____    ______ ____

>  <TORSDO>
F 17

$$$$
=
 OpenBabel11062423053D

 57 61  0  0  1  0  0  0  0  0999 V2000
  191.9630  173.0710  144.8970 C   0  0  0  0  0  0  0  0  0  0  0  0
  193.3400  173.1360  144.9350 C   0  0  0  0  0  0  0  0  0  0  0  0
  191.2580  172.0260  144.2750 C   0  0  0  0  0  0  0  0  0  0  0  0
  190.0600  172.6940  144.6770 C   0  0  0  0  0  0  0  0  0  0  0  0
  194.0110  172.0710  144.2900 C   0  0  0  0  0  3  0  0  0  0  0  0
  191.8770  170.9620  143.6470 C   0  0  0  0  0  3  0  0  0  0  0  0
  189.3100  173.1320  143.6000 F   0  0  0  0  0  0  0  0  0  0  0  0
  189.3180  171.9530  145.5790 F   0  0  0  0  0  0  0  0  0  0  0  0
  193.2960  170.9980  143.6610 C   0  0  0  0  0  0  0  0  0  0  0  0
  190.7410  173.7630  145.3090 N   0  0  0  0  0  0  0  0  0  0  0  0
  194.0440  169.8750  143.0190 C   0  0  1  0  0  3  0  0  0  0  0  0
  193.3220  168.6980  143.1160 F   0  0  0  0  0  0  0  0  0  0  0  0
  194.4050  170.2330  141.3070 S   0  0  0  0  0  0  0  0  0  0  0  0
  195.7450  170.9050  141.2110 O   0  0  0  0  0  0  0  0  0  0  0  0
  194.4410  168.9550  140.5150 O   0  0  0  0  0  0  0  0  0  0  0  0
  193.1950  171.2970  140.6720 N   0  0  0  0  0  2  0  0  0  0  0  0
  193.6430  171.7640  139.3700 C   0  0  2  0  0  3  0  0  0  0  0  0
  192.5930  173.8370  137.4950 O   0  0  0  0  0  0  0  0  0  0  0  0
  193.0840  174.7610  136.5680 C   0  0  1  0  0  3  0  0  0  0  0  0
  192.7370  174.4170  138.6690 O   0  0  0  0  0  0  0  0  0  0  0  0
  195.4730  174.0360  136.0810 C   0  0  1  0  0  3  0  0  0  0  0  0
  193.9770  173.5550  139.4440 P   0  0  2  0  0  4  0  0  0  0  0  0
  194.0240  174.0560  135.6000 C   0  0  0  0  0  2  0  0  0  0  0  0
  195.9810  175.3300  136.2340 O   0  0  0  0  0  1  0  0  0  0  0  0
  195.7100  173.1690  137.3210 C   0  0  0  0  0  2  0  0  0  0  0  0
  195.5600  173.9350  138.6300 C   0  0  0  0  0  2  0  0  0  0  0  0
  196.2290  176.7550  141.7290 C   0  0  0  0  0  1  0  0  0  0  0  0
  194.0700  174.0890  141.1800 C   0  0  2  0  0  3  0  0  0  0  0  0
  193.2870  175.3000  141.3720 N   0  0  0  0  0  2  0  0  0  0  0  0
  193.9660  176.0360  142.4280 C   0  0  0  0  0  2  0  0  0  0  0  0
  195.4310  175.6540  142.3960 C   0  0  1  0  0  3  0  0  0  0  0  0
  195.5020  174.4050  141.5530 C   0  0  0  0  0  2  0  0  0  0  0  0
  191.9930  176.6150  135.5530 O   0  0  0  0  0  0  0  0  0  0  0  0
  191.9540  175.3800  135.8140 C   0  0  0  0  0  0  0  0  0  0  0  0
  189.6290  174.9050  135.5700 C   0  0  0  0  0  2  0  0  0  0  0  0
  190.8610  174.5710  135.3670 N   0  0  0  0  0  0  0  0  0  0  0  0
  191.3100  170.9500  139.3150 S   0  0  0  0  0  1  0  0  0  0  0  0
  192.6650  171.4970  138.4120 O   0  0  0  0  0  0  0  0  0  0  0  0
  195.8430  173.8830  145.6640 S   0  0  0  0  0  1  0  0  0  0  0  0
  194.0700  174.2660  145.5730 C   0  0  0  0  0  2  0  0  0  0  0  0
  190.4130  174.9350  146.1060 C   0  0  0  0  0  2  0  0  0  0  0  0
  188.5320  176.1850  145.0260 O   0  0  0  0  0  0  0  0  0  0  0  0
  187.9880  177.3080  144.4990 O   0  0  0  0  0  0  0  0  0  0  0  0
  190.2130  177.9380  143.7150 C   0  0  0  0  0  2  0  0  0  0  0  0
  188.7410  177.6920  143.3640 C   0  0  1  0  0  3  0  0  0  0  0  0
  189.9100  176.0450  145.2420 C   0  0  0  0  0  0  0  0  0  0  0  0
  190.7500  176.8520  144.5980 C   0  0  0  0  0  3  0  0  0  0  0  0
  188.5520  176.7640  142.1930 C   0  0  0  0  0  0  0  0  0  0  0  0
  189.3120  175.7680  142.0570 O   0  0  0  0  0  0  0  0  0  0  0  0
  185.7510  178.1400  140.2730 O   0  0  0  0  0  0  0  0  0  0  0  0
  186.5290  178.0090  141.2560 C   0  0  0  0  0  0  0  0  0  0  0  0
  187.5450  177.0020  141.2040 N   0  0  0  0  0  2  0  0  0  0  0  0
  186.3810  178.8190  142.3860 O   0  0  0  0  0  0  0  0  0  0  0  0
  185.1480  178.9450  143.0870 C   0  0  0  0  0  2  0  0  0  0  0  0
  185.3580  179.6160  144.4390 C   0  0  0  0  0  2  0  0  0  0  0  0
  184.6270  178.8730  145.5440 C   0  0  0  0  0  2  0  0  0  0  0  0
  185.6060  178.8610  147.0750 S   0  0  0  0  0  1  0  0  0  0  0  0
  1  2  1  0  0  0  0
  1 10  1  0  0  0  0
  2 40  1  0  0  0  0
  3  4  1  0  0  0  0
  3  1  2  0  0  0  0
  4 10  1  0  0  0  0
  4  8  1  0  0  0  0
  5  2  2  0  0  0  0
  6  9  2  0  0  0  0
  6  3  1  0  0  0  0
  7  4  1  0  0  0  0
  9  5  1  0  0  0  0
 10 41  1  0  0  0  0
 11 12  1  6  0  0  0
 11  9  1  0  0  0  0
 13 11  1  0  0  0  0
 14 13  2  0  0  0  0
 15 13  2  0  0  0  0
 16 13  1  0  0  0  0
 17 38  1  6  0  0  0
 17 16  1  0  0  0  0
 18 20  1  0  0  0  0
 19 34  1  6  0  0  0
 19 18  1  0  0  0  0
 20 22  1  0  0  0  0
 21 24  1  1  0  0  0
 21 25  1  0  0  0  0
 22 17  1  6  0  0  0
 22 28  1  0  0  0  0
 23 21  1  0  0  0  0
 23 19  1  0  0  0  0
 25 26  1  0  0  0  0
 26 22  1  0  0  0  0
 28 29  1  0  0  0  0
 28 32  1  6  0  0  0
 29 30  1  0  0  0  0
 31 27  1  6  0  0  0
 31 30  1  0  0  0  0
 32 31  1  0  0  0  0
 33 34  2  0  0  0  0
 36 35  2  0  0  0  0
 36 34  1  0  0  0  0
 38 37  1  0  0  0  0
 40 39  1  0  0  0  0
 42 46  1  0  0  0  0
 43 42  1  0  0  0  0
 44 47  1  0  0  0  0
 45 48  1  6  0  0  0
 45 44  1  0  0  0  0
 45 43  1  0  0  0  0
 46 41  1  0  0  0  0
 47 46  2  0  0  0  0
 49 48  2  0  0  0  0
 50 51  2  0  0  0  0
 51 53  1  0  0  0  0
 52 51  1  0  0  0  0
 52 48  1  0  0  0  0
 53 54  1  0  0  0  0
 54 55  1  0  0  0  0
 55 56  1  0  0  0  0
 56 57  1  0  0  0  0
M  END
>  <MODEL>
5

>  <REMARK>
 VINA RESULT:      -6.6      3.383      9.160
  Name = 
  17 active torsions:
  status: ('A' for Active; 'I' for Inactive)
    1  A    between atoms: C_3  and  C_41
    2  A    between atoms: C_5  and  P_22
    3  A    between atoms: C_6  and  C_24
    4  A    between atoms: C_8  and  C_32
    5  A    between atoms: C_10  and  C_54
    6  A    between atoms: O_17  and  C_49
    7  A    between atoms: O_17  and  C_53
    8  A    between atoms: O_19  and  C_30
    9  A    between atoms: C_20  and  C_40
   10  A    between atoms: C_20  and  S_45
   11  A    between atoms: P_22  and  C_30
   12  A    between atoms: N_25  and  C_30
   13  A    between atoms: N_25  and  S_45
   14  A    between atoms: N_29  and  C_41
   15  A    between atoms: C_32  and  C_53
   16  A    between atoms: C_37  and  C_44
   17  A    between atoms: C_37  and  N_50
                            x       y       z     vdW  Elec       q    Type
                         _______ _______ _______ _____ _____    ______ ____

>  <TORSDO>
F 17

$$$$
=
 OpenBabel11062423053D

 57 61  0  0  1  0  0  0  0  0999 V2000
  192.1870  173.6450  145.1130 C   0  0  0  0  0  0  0  0  0  0  0  0
  193.5530  173.7070  145.2950 C   0  0  0  0  0  0  0  0  0  0  0  0
  191.5380  172.5480  144.5230 C   0  0  0  0  0  0  0  0  0  0  0  0
  190.3130  173.2590  144.7250 C   0  0  0  0  0  0  0  0  0  0  0  0
  194.2730  172.5800  144.8330 C   0  0  0  0  0  3  0  0  0  0  0  0
  192.2030  171.4240  144.0720 C   0  0  0  0  0  3  0  0  0  0  0  0
  189.6910  173.5930  143.5350 F   0  0  0  0  0  0  0  0  0  0  0  0
  189.4670  172.6130  145.6080 F   0  0  0  0  0  0  0  0  0  0  0  0
  193.6130  171.4550  144.2370 C   0  0  0  0  0  0  0  0  0  0  0  0
  190.9390  174.3810  145.3210 N   0  0  0  0  0  0  0  0  0  0  0  0
  194.4080  170.2700  143.7930 C   0  0  1  0  0  3  0  0  0  0  0  0
  193.7480  169.0970  144.1170 F   0  0  0  0  0  0  0  0  0  0  0  0
  194.7270  170.3270  142.0370 S   0  0  0  0  0  0  0  0  0  0  0  0
  195.9400  171.1750  141.7780 O   0  0  0  0  0  0  0  0  0  0  0  0
  194.9830  168.9380  141.5190 O   0  0  0  0  0  0  0  0  0  0  0  0
  193.3670  171.0270  141.2250 N   0  0  0  0  0  2  0  0  0  0  0  0
  193.6860  171.1220  139.8090 C   0  0  2  0  0  3  0  0  0  0  0  0
  195.3480  173.3250  138.6690 O   0  0  0  0  0  0  0  0  0  0  0  0
  195.6520  174.6620  138.9420 C   0  0  1  0  0  3  0  0  0  0  0  0
  194.1870  173.3560  138.0460 O   0  0  0  0  0  0  0  0  0  0  0  0
  194.9290  175.0470  141.3500 C   0  0  1  0  0  3  0  0  0  0  0  0
  193.0710  172.7060  139.1490 P   0  0  2  0  0  4  0  0  0  0  0  0
  196.0910  174.7940  140.3930 C   0  0  0  0  0  2  0  0  0  0  0  0
  194.2600  176.2370  141.0430 O   0  0  0  0  0  1  0  0  0  0  0  0
  193.9680  173.8640  141.4970 C   0  0  0  0  0  2  0  0  0  0  0  0
  192.8140  173.8970  140.5010 C   0  0  0  0  0  2  0  0  0  0  0  0
  188.7870  174.0370  139.7910 C   0  0  0  0  0  1  0  0  0  0  0  0
  191.4870  172.4400  138.2960 C   0  0  2  0  0  3  0  0  0  0  0  0
  191.1390  173.6150  137.5120 N   0  0  0  0  0  2  0  0  0  0  0  0
  189.6840  173.6650  137.5140 C   0  0  0  0  0  2  0  0  0  0  0  0
  189.1950  172.9870  138.7780 C   0  0  1  0  0  3  0  0  0  0  0  0
  190.3820  172.2190  139.3050 C   0  0  0  0  0  2  0  0  0  0  0  0
  197.9410  175.0370  138.4210 O   0  0  0  0  0  0  0  0  0  0  0  0
  196.7420  175.1350  138.0390 C   0  0  0  0  0  0  0  0  0  0  0  0
  196.5480  174.9600  135.6670 C   0  0  0  0  0  2  0  0  0  0  0  0
  196.4260  175.6610  136.7460 N   0  0  0  0  0  0  0  0  0  0  0  0
  194.3760  169.4030  138.1730 S   0  0  0  0  0  1  0  0  0  0  0  0
  193.1030  170.0570  139.1230 O   0  0  0  0  0  0  0  0  0  0  0  0
  195.6180  175.4070  144.8480 S   0  0  0  0  0  1  0  0  0  0  0  0
  194.2270  174.8900  145.8960 C   0  0  0  0  0  2  0  0  0  0  0  0
  190.5460  175.6270  145.9600 C   0  0  0  0  0  2  0  0  0  0  0  0
  188.6110  177.0900  145.3390 O   0  0  0  0  0  0  0  0  0  0  0  0
  188.0600  178.1170  144.6500 O   0  0  0  0  0  0  0  0  0  0  0  0
  189.5890  177.6160  142.8130 C   0  0  0  0  0  2  0  0  0  0  0  0
  188.1390  177.8340  143.2650 C   0  0  1  0  0  3  0  0  0  0  0  0
  189.8470  176.5260  144.9930 C   0  0  0  0  0  0  0  0  0  0  0  0
  190.3300  176.7310  143.7690 C   0  0  0  0  0  3  0  0  0  0  0  0
  187.2070  176.7320  142.8380 C   0  0  0  0  0  0  0  0  0  0  0  0
  187.6290  175.5460  142.7720 O   0  0  0  0  0  0  0  0  0  0  0  0
  183.9940  178.3570  142.1570 O   0  0  0  0  0  0  0  0  0  0  0  0
  185.1730  178.2570  142.5890 C   0  0  0  0  0  0  0  0  0  0  0  0
  185.8510  177.0020  142.4680 N   0  0  0  0  0  2  0  0  0  0  0  0
  185.7970  179.3510  143.1980 O   0  0  0  0  0  0  0  0  0  0  0  0
  185.1920  180.0920  144.2530 C   0  0  0  0  0  2  0  0  0  0  0  0
  185.4220  179.4080  145.5970 C   0  0  0  0  0  2  0  0  0  0  0  0
  184.4070  178.3020  145.8330 C   0  0  0  0  0  2  0  0  0  0  0  0
  185.2090  176.8220  146.5170 S   0  0  0  0  0  1  0  0  0  0  0  0
  1  2  1  0  0  0  0
  1 10  1  0  0  0  0
  2 40  1  0  0  0  0
  3  4  1  0  0  0  0
  3  1  2  0  0  0  0
  4 10  1  0  0  0  0
  4  8  1  0  0  0  0
  5  2  2  0  0  0  0
  6  9  2  0  0  0  0
  6  3  1  0  0  0  0
  7  4  1  0  0  0  0
  9  5  1  0  0  0  0
 10 41  1  0  0  0  0
 11 12  1  6  0  0  0
 11  9  1  0  0  0  0
 13 11  1  0  0  0  0
 14 13  2  0  0  0  0
 15 13  2  0  0  0  0
 16 13  1  0  0  0  0
 17 38  1  6  0  0  0
 17 16  1  0  0  0  0
 18 19  1  0  0  0  0
 19 34  1  6  0  0  0
 19 23  1  0  0  0  0
 20 18  1  0  0  0  0
 20 22  1  0  0  0  0
 21 24  1  6  0  0  0
 21 25  1  0  0  0  0
 22 17  1  1  0  0  0
 22 26  1  0  0  0  0
 23 21  1  0  0  0  0
 26 25  1  0  0  0  0
 28 22  1  0  0  0  0
 28 32  1  1  0  0  0
 29 30  1  0  0  0  0
 29 28  1  0  0  0  0
 30 31  1  0  0  0  0
 31 32  1  0  0  0  0
 31 27  1  1  0  0  0
 34 33  2  0  0  0  0
 35 36  2  0  0  0  0
 36 34  1  0  0  0  0
 37 38  1  0  0  0  0
 39 40  1  0  0  0  0
 43 42  1  0  0  0  0
 44 45  1  0  0  0  0
 44 47  1  0  0  0  0
 45 48  1  1  0  0  0
 45 43  1  0  0  0  0
 46 42  1  0  0  0  0
 46 41  1  0  0  0  0
 47 46  2  0  0  0  0
 49 48  2  0  0  0  0
 50 51  2  0  0  0  0
 51 53  1  0  0  0  0
 52 51  1  0  0  0  0
 52 48  1  0  0  0  0
 53 54  1  0  0  0  0
 54 55  1  0  0  0  0
 55 56  1  0  0  0  0
 56 57  1  0  0  0  0
M  END
>  <MODEL>
6

>  <REMARK>
 VINA RESULT:      -6.5      3.319      9.249
  Name = 
  17 active torsions:
  status: ('A' for Active; 'I' for Inactive)
    1  A    between atoms: C_3  and  C_41
    2  A    between atoms: C_5  and  P_22
    3  A    between atoms: C_6  and  C_24
    4  A    between atoms: C_8  and  C_32
    5  A    between atoms: C_10  and  C_54
    6  A    between atoms: O_17  and  C_49
    7  A    between atoms: O_17  and  C_53
    8  A    between atoms: O_19  and  C_30
    9  A    between atoms: C_20  and  C_40
   10  A    between atoms: C_20  and  S_45
   11  A    between atoms: P_22  and  C_30
   12  A    between atoms: N_25  and  C_30
   13  A    between atoms: N_25  and  S_45
   14  A    between atoms: N_29  and  C_41
   15  A    between atoms: C_32  and  C_53
   16  A    between atoms: C_37  and  C_44
   17  A    between atoms: C_37  and  N_50
                            x       y       z     vdW  Elec       q    Type
                         _______ _______ _______ _____ _____    ______ ____

>  <TORSDO>
F 17

$$$$
=
 OpenBabel11062423053D

 57 61  0  0  1  0  0  0  0  0999 V2000
  188.7270  174.1230  142.1150 C   0  0  0  0  0  0  0  0  0  0  0  0
  188.2210  175.3760  142.3930 C   0  0  0  0  0  0  0  0  0  0  0  0
  189.3940  173.3340  143.0670 C   0  0  0  0  0  0  0  0  0  0  0  0
  189.5390  172.3490  142.0400 C   0  0  0  0  0  0  0  0  0  0  0  0
  188.4270  175.8280  143.7170 C   0  0  0  0  0  3  0  0  0  0  0  0
  189.6030  173.7340  144.3730 C   0  0  0  0  0  3  0  0  0  0  0  0
  190.8620  172.1240  141.7040 F   0  0  0  0  0  0  0  0  0  0  0  0
  188.8530  171.1820  142.3260 F   0  0  0  0  0  0  0  0  0  0  0  0
  189.1000  175.0220  144.6940 C   0  0  0  0  0  0  0  0  0  0  0  0
  188.8740  173.1230  141.0570 N   0  0  0  0  0  0  0  0  0  0  0  0
  189.2680  175.5240  146.0920 C   0  0  1  0  0  3  0  0  0  0  0  0
  189.0460  174.5040  147.0010 F   0  0  0  0  0  0  0  0  0  0  0  0
  190.8940  176.2210  146.3390 S   0  0  0  0  0  0  0  0  0  0  0  0
  191.2170  177.1470  145.2010 O   0  0  0  0  0  0  0  0  0  0  0  0
  190.9260  176.9980  147.6260 O   0  0  0  0  0  0  0  0  0  0  0  0
  192.0670  174.9480  146.3790 N   0  0  0  0  0  2  0  0  0  0  0  0
  193.2650  175.4160  145.6990 C   0  0  2  0  0  3  0  0  0  0  0  0
  195.5830  175.6400  143.8310 O   0  0  0  0  0  0  0  0  0  0  0  0
  195.8370  175.5720  142.4580 C   0  0  1  0  0  3  0  0  0  0  0  0
  195.5330  174.3870  144.2340 O   0  0  0  0  0  0  0  0  0  0  0  0
  193.5690  175.8170  141.3320 C   0  0  1  0  0  3  0  0  0  0  0  0
  193.9020  174.1020  144.6070 P   0  0  2  0  0  4  0  0  0  0  0  0
  194.8800  176.4980  141.7200 C   0  0  0  0  0  2  0  0  0  0  0  0
  193.7870  174.7320  140.4770 O   0  0  0  0  0  1  0  0  0  0  0  0
  192.6780  175.4470  142.5210 C   0  0  0  0  0  2  0  0  0  0  0  0
  192.9420  174.0470  143.0610 C   0  0  0  0  0  2  0  0  0  0  0  0
  194.1960  169.7640  143.3330 C   0  0  0  0  0  1  0  0  0  0  0  0
  193.7600  172.4910  145.4400 C   0  0  2  0  0  3  0  0  0  0  0  0
  195.0820  171.9280  145.6640 N   0  0  0  0  0  2  0  0  0  0  0  0
  194.9040  170.4850  145.5920 C   0  0  0  0  0  2  0  0  0  0  0  0
  193.7130  170.2040  144.6990 C   0  0  1  0  0  3  0  0  0  0  0  0
  192.9890  171.5210  144.5720 C   0  0  0  0  0  2  0  0  0  0  0  0
  197.8260  176.7720  142.9650 O   0  0  0  0  0  0  0  0  0  0  0  0
  197.2460  175.9750  142.1760 C   0  0  0  0  0  0  0  0  0  0  0  0
  197.4250  175.4520  139.8550 C   0  0  0  0  0  2  0  0  0  0  0  0
  197.9340  175.4360  141.0430 N   0  0  0  0  0  0  0  0  0  0  0  0
  194.5780  177.4190  146.3090 S   0  0  0  0  0  1  0  0  0  0  0  0
  194.2320  175.7690  146.6400 O   0  0  0  0  0  0  0  0  0  0  0  0
  187.0750  177.8130  142.0780 S   0  0  0  0  0  1  0  0  0  0  0  0
  187.5430  176.2110  141.3640 C   0  0  0  0  0  2  0  0  0  0  0  0
  188.4240  172.9700  139.6830 C   0  0  0  0  0  2  0  0  0  0  0  0
  190.7320  173.6550  138.9970 O   0  0  0  0  0  0  0  0  0  0  0  0
  191.9090  173.4300  138.3670 O   0  0  0  0  0  0  0  0  0  0  0  0
  190.6900  172.1390  136.6920 C   0  0  0  0  0  2  0  0  0  0  0  0
  191.6670  173.2850  136.9800 C   0  0  1  0  0  3  0  0  0  0  0  0
  189.5840  172.8900  138.7460 C   0  0  0  0  0  0  0  0  0  0  0  0
  189.5180  172.1750  137.6250 C   0  0  0  0  0  3  0  0  0  0  0  0
  191.2830  174.5800  136.3130 C   0  0  0  0  0  0  0  0  0  0  0  0
  190.0650  174.8600  136.1470 O   0  0  0  0  0  0  0  0  0  0  0  0
  194.4400  176.2440  135.4820 O   0  0  0  0  0  0  0  0  0  0  0  0
  193.6870  175.3950  136.0290 C   0  0  0  0  0  0  0  0  0  0  0  0
  192.2730  175.4930  135.8290 N   0  0  0  0  0  2  0  0  0  0  0  0
  194.2270  174.3900  136.8390 O   0  0  0  0  0  0  0  0  0  0  0  0
  195.1490  173.4210  136.3510 C   0  0  0  0  0  2  0  0  0  0  0  0
  196.0530  172.9200  137.4710 C   0  0  0  0  0  2  0  0  0  0  0  0
  195.2410  172.3430  138.6190 C   0  0  0  0  0  2  0  0  0  0  0  0
  194.5390  170.7280  138.1680 S   0  0  0  0  0  1  0  0  0  0  0  0
  1  2  2  0  0  0  0
  1  3  1  0  0  0  0
  2  5  1  0  0  0  0
  3  6  2  0  0  0  0
  4  8  1  0  0  0  0
  4  3  1  0  0  0  0
  5  9  2  0  0  0  0
  6  9  1  0  0  0  0
  7  4  1  0  0  0  0
  9 11  1  0  0  0  0
 10  4  1  0  0  0  0
 10  1  1  0  0  0  0
 11 13  1  0  0  0  0
 11 12  1  1  0  0  0
 13 16  1  0  0  0  0
 13 15  2  0  0  0  0
 14 13  2  0  0  0  0
 17 16  1  1  0  0  0
 17 38  1  0  0  0  0
 18 20  1  0  0  0  0
 19 34  1  1  0  0  0
 19 18  1  0  0  0  0
 20 22  1  0  0  0  0
 21 24  1  1  0  0  0
 21 23  1  0  0  0  0
 21 25  1  0  0  0  0
 22 28  1  0  0  0  0
 22 17  1  1  0  0  0
 23 19  1  0  0  0  0
 25 26  1  0  0  0  0
 26 22  1  0  0  0  0
 28 32  1  6  0  0  0
 28 29  1  0  0  0  0
 30 29  1  0  0  0  0
 31 27  1  6  0  0  0
 31 30  1  0  0  0  0
 32 31  1  0  0  0  0
 34 33  2  0  0  0  0
 35 36  2  0  0  0  0
 36 34  1  0  0  0  0
 37 38  1  0  0  0  0
 40 39  1  0  0  0  0
 40  2  1  0  0  0  0
 41 10  1  0  0  0  0
 43 42  1  0  0  0  0
 44 45  1  0  0  0  0
 44 47  1  0  0  0  0
 45 48  1  1  0  0  0
 45 43  1  0  0  0  0
 46 42  1  0  0  0  0
 46 41  1  0  0  0  0
 47 46  2  0  0  0  0
 49 48  2  0  0  0  0
 50 51  2  0  0  0  0
 51 53  1  0  0  0  0
 52 51  1  0  0  0  0
 52 48  1  0  0  0  0
 54 53  1  0  0  0  0
 54 55  1  0  0  0  0
 55 56  1  0  0  0  0
 57 56  1  0  0  0  0
M  END
>  <MODEL>
7

>  <REMARK>
 VINA RESULT:      -6.4      3.328      7.193
  Name = 
  17 active torsions:
  status: ('A' for Active; 'I' for Inactive)
    1  A    between atoms: C_3  and  C_41
    2  A    between atoms: C_5  and  P_22
    3  A    between atoms: C_6  and  C_24
    4  A    between atoms: C_8  and  C_32
    5  A    between atoms: C_10  and  C_54
    6  A    between atoms: O_17  and  C_49
    7  A    between atoms: O_17  and  C_53
    8  A    between atoms: O_19  and  C_30
    9  A    between atoms: C_20  and  C_40
   10  A    between atoms: C_20  and  S_45
   11  A    between atoms: P_22  and  C_30
   12  A    between atoms: N_25  and  C_30
   13  A    between atoms: N_25  and  S_45
   14  A    between atoms: N_29  and  C_41
   15  A    between atoms: C_32  and  C_53
   16  A    between atoms: C_37  and  C_44
   17  A    between atoms: C_37  and  N_50
                            x       y       z     vdW  Elec       q    Type
                         _______ _______ _______ _____ _____    ______ ____

>  <TORSDO>
F 17

$$$$
=
 OpenBabel11062423053D

 57 61  0  0  1  0  0  0  0  0999 V2000
  189.1460  175.6440  144.5770 C   0  0  0  0  0  0  0  0  0  0  0  0
  189.3770  175.1920  143.2940 C   0  0  0  0  0  0  0  0  0  0  0  0
  189.3660  174.8590  145.7210 C   0  0  0  0  0  0  0  0  0  0  0  0
  188.9250  175.9840  146.4870 C   0  0  0  0  0  0  0  0  0  0  0  0
  189.8490  173.8630  143.2000 C   0  0  0  0  0  3  0  0  0  0  0  0
  189.8400  173.5620  145.6720 C   0  0  0  0  0  3  0  0  0  0  0  0
  187.7570  175.7260  147.1820 F   0  0  0  0  0  0  0  0  0  0  0  0
  189.9250  176.4990  147.2920 F   0  0  0  0  0  0  0  0  0  0  0  0
  190.0830  173.0600  144.3660 C   0  0  0  0  0  0  0  0  0  0  0  0
  188.6900  176.7990  145.3530 N   0  0  0  0  0  0  0  0  0  0  0  0
  190.6140  171.6710  144.2250 C   0  0  1  0  0  3  0  0  0  0  0  0
  190.0880  171.0650  143.0970 F   0  0  0  0  0  0  0  0  0  0  0  0
  192.3990  171.6660  144.1470 S   0  0  0  0  0  0  0  0  0  0  0  0
  192.9520  172.3610  145.3580 O   0  0  0  0  0  0  0  0  0  0  0  0
  192.9040  170.2490  144.1220 O   0  0  0  0  0  0  0  0  0  0  0  0
  192.9170  172.5110  142.7270 N   0  0  0  0  0  2  0  0  0  0  0  0
  194.0850  173.3040  143.0740 C   0  0  2  0  0  3  0  0  0  0  0  0
  192.8580  173.7360  140.3870 O   0  0  0  0  0  0  0  0  0  0  0  0
  193.2570  174.0840  139.0930 C   0  0  1  0  0  3  0  0  0  0  0  0
  192.7710  174.8780  141.0390 O   0  0  0  0  0  0  0  0  0  0  0  0
  195.7770  173.7400  139.0400 C   0  0  1  0  0  3  0  0  0  0  0  0
  194.0660  174.8660  142.1360 P   0  0  2  0  0  4  0  0  0  0  0  0
  194.4060  173.1860  138.6590 C   0  0  0  0  0  2  0  0  0  0  0  0
  196.0140  174.9810  138.4400 O   0  0  0  0  0  1  0  0  0  0  0  0
  196.0470  173.7650  140.5480 C   0  0  0  0  0  2  0  0  0  0  0  0
  195.6230  175.0680  141.2150 C   0  0  0  0  0  2  0  0  0  0  0  0
  193.0330  175.3420  146.5220 C   0  0  0  0  0  1  0  0  0  0  0  0
  193.8800  176.2670  143.2820 C   0  0  2  0  0  3  0  0  0  0  0  0
  195.0580  176.3780  144.1280 N   0  0  0  0  0  2  0  0  0  0  0  0
  194.5750  176.9140  145.3930 C   0  0  0  0  0  2  0  0  0  0  0  0
  193.1260  176.5030  145.5530 C   0  0  1  0  0  3  0  0  0  0  0  0
  192.6860  176.0470  144.1840 C   0  0  0  0  0  2  0  0  0  0  0  0
  192.0640  174.6680  137.1200 O   0  0  0  0  0  0  0  0  0  0  0  0
  192.1140  173.9340  138.1460 C   0  0  0  0  0  0  0  0  0  0  0  0
  189.9600  172.9690  137.7930 C   0  0  0  0  0  2  0  0  0  0  0  0
  191.1070  172.9450  138.3880 N   0  0  0  0  0  0  0  0  0  0  0  0
  196.2570  172.8230  144.1530 S   0  0  0  0  0  1  0  0  0  0  0  0
  195.2450  172.5840  142.7850 O   0  0  0  0  0  0  0  0  0  0  0  0
  188.2900  175.0310  140.8150 S   0  0  0  0  0  1  0  0  0  0  0  0
  189.1100  176.0280  142.0920 C   0  0  0  0  0  2  0  0  0  0  0  0
  188.3030  178.1720  145.0690 C   0  0  0  0  0  2  0  0  0  0  0  0
  186.1580  177.0640  144.4090 O   0  0  0  0  0  0  0  0  0  0  0  0
  184.8080  177.0420  144.2920 O   0  0  0  0  0  0  0  0  0  0  0  0
  184.8700  179.4530  143.9110 C   0  0  0  0  0  2  0  0  0  0  0  0
  184.4080  178.0780  143.4140 C   0  0  1  0  0  3  0  0  0  0  0  0
  186.8760  178.2460  144.6350 C   0  0  0  0  0  0  0  0  0  0  0  0
  186.2950  179.4150  144.3720 C   0  0  0  0  0  3  0  0  0  0  0  0
  184.7760  177.8050  141.9800 C   0  0  0  0  0  0  0  0  0  0  0  0
  185.9490  177.4430  141.6940 O   0  0  0  0  0  0  0  0  0  0  0  0
  181.7440  178.4660  140.0320 O   0  0  0  0  0  0  0  0  0  0  0  0
  182.4370  178.2730  141.0660 C   0  0  0  0  0  0  0  0  0  0  0  0
  183.8310  177.9800  140.9190 N   0  0  0  0  0  2  0  0  0  0  0  0
  181.8460  178.3210  142.3320 O   0  0  0  0  0  0  0  0  0  0  0  0
  180.9070  179.3240  142.7060 C   0  0  0  0  0  2  0  0  0  0  0  0
  179.5590  178.7020  143.0560 C   0  0  0  0  0  2  0  0  0  0  0  0
  178.9790  177.9420  141.8760 C   0  0  0  0  0  2  0  0  0  0  0  0
  177.7030  176.7690  142.4240 S   0  0  0  0  0  1  0  0  0  0  0  0
  1 10  1  0  0  0  0
  1  3  1  0  0  0  0
  2  1  2  0  0  0  0
  3  4  1  0  0  0  0
  4  7  1  0  0  0  0
  4  8  1  0  0  0  0
  5  2  1  0  0  0  0
  5  9  2  0  0  0  0
  6  3  2  0  0  0  0
  9  6  1  0  0  0  0
 10  4  1  0  0  0  0
 11 12  1  6  0  0  0
 11  9  1  0  0  0  0
 13 11  1  0  0  0  0
 13 14  2  0  0  0  0
 15 13  2  0  0  0  0
 16 13  1  0  0  0  0
 17 16  1  6  0  0  0
 18 20  1  0  0  0  0
 19 34  1  6  0  0  0
 19 18  1  0  0  0  0
 20 22  1  0  0  0  0
 21 24  1  1  0  0  0
 21 25  1  0  0  0  0
 22 17  1  1  0  0  0
 22 28  1  0  0  0  0
 23 21  1  0  0  0  0
 23 19  1  0  0  0  0
 25 26  1  0  0  0  0
 26 22  1  0  0  0  0
 28 29  1  0  0  0  0
 28 32  1  1  0  0  0
 29 30  1  0  0  0  0
 30 31  1  0  0  0  0
 31 27  1  1  0  0  0
 32 31  1  0  0  0  0
 33 34  2  0  0  0  0
 34 36  1  0  0  0  0
 35 36  2  0  0  0  0
 38 17  1  0  0  0  0
 38 37  1  0  0  0  0
 39 40  1  0  0  0  0
 40  2  1  0  0  0  0
 41 10  1  0  0  0  0
 42 46  1  0  0  0  0
 43 42  1  0  0  0  0
 44 47  1  0  0  0  0
 45 48  1  6  0  0  0
 45 44  1  0  0  0  0
 45 43  1  0  0  0  0
 46 41  1  0  0  0  0
 47 46  2  0  0  0  0
 49 48  2  0  0  0  0
 50 51  2  0  0  0  0
 51 53  1  0  0  0  0
 52 51  1  0  0  0  0
 52 48  1  0  0  0  0
 53 54  1  0  0  0  0
 54 55  1  0  0  0  0
 56 57  1  0  0  0  0
 56 55  1  0  0  0  0
M  END
>  <MODEL>
8

>  <REMARK>
 VINA RESULT:      -6.4      3.784      9.905
  Name = 
  17 active torsions:
  status: ('A' for Active; 'I' for Inactive)
    1  A    between atoms: C_3  and  C_41
    2  A    between atoms: C_5  and  P_22
    3  A    between atoms: C_6  and  C_24
    4  A    between atoms: C_8  and  C_32
    5  A    between atoms: C_10  and  C_54
    6  A    between atoms: O_17  and  C_49
    7  A    between atoms: O_17  and  C_53
    8  A    between atoms: O_19  and  C_30
    9  A    between atoms: C_20  and  C_40
   10  A    between atoms: C_20  and  S_45
   11  A    between atoms: P_22  and  C_30
   12  A    between atoms: N_25  and  C_30
   13  A    between atoms: N_25  and  S_45
   14  A    between atoms: N_29  and  C_41
   15  A    between atoms: C_32  and  C_53
   16  A    between atoms: C_37  and  C_44
   17  A    between atoms: C_37  and  N_50
                            x       y       z     vdW  Elec       q    Type
                         _______ _______ _______ _____ _____    ______ ____

>  <TORSDO>
F 17

$$$$
=
 OpenBabel11062423053D

 57 61  0  0  1  0  0  0  0  0999 V2000
  191.7470  176.4190  145.5090 C   0  0  0  0  0  0  0  0  0  0  0  0
  192.0550  175.5740  146.5550 C   0  0  0  0  0  0  0  0  0  0  0  0
  192.6380  176.7020  144.4610 C   0  0  0  0  0  0  0  0  0  0  0  0
  191.6160  177.5420  143.9180 C   0  0  0  0  0  0  0  0  0  0  0  0
  193.3500  175.0070  146.5100 C   0  0  0  0  0  3  0  0  0  0  0  0
  193.9060  176.1580  144.3730 C   0  0  0  0  0  3  0  0  0  0  0  0
  191.9860  178.8750  143.8870 F   0  0  0  0  0  0  0  0  0  0  0  0
  191.1510  177.0870  142.6970 F   0  0  0  0  0  0  0  0  0  0  0  0
  194.2600  175.2870  145.4370 C   0  0  0  0  0  0  0  0  0  0  0  0
  190.6970  177.2790  144.9630 N   0  0  0  0  0  0  0  0  0  0  0  0
  195.6070  174.6410  145.4100 C   0  0  1  0  0  3  0  0  0  0  0  0
  196.1480  174.5980  146.6830 F   0  0  0  0  0  0  0  0  0  0  0  0
  195.5200  172.9940  144.7240 S   0  0  0  0  0  0  0  0  0  0  0  0
  196.4420  172.8970  143.5420 O   0  0  0  0  0  0  0  0  0  0  0  0
  195.9450  171.9880  145.7590 O   0  0  0  0  0  0  0  0  0  0  0  0
  193.9010  172.6700  144.2040 N   0  0  0  0  0  2  0  0  0  0  0  0
  193.9650  172.0400  142.8950 C   0  0  2  0  0  3  0  0  0  0  0  0
  193.7990  171.6540  139.9390 O   0  0  0  0  0  0  0  0  0  0  0  0
  193.9550  172.4060  138.7700 C   0  0  1  0  0  3  0  0  0  0  0  0
  192.5810  171.9230  140.3610 O   0  0  0  0  0  0  0  0  0  0  0  0
  195.1950  174.5120  139.4750 C   0  0  1  0  0  3  0  0  0  0  0  0
  192.7890  172.8550  141.7650 P   0  0  2  0  0  4  0  0  0  0  0  0
  195.2880  173.1380  138.8140 C   0  0  0  0  0  2  0  0  0  0  0  0
  194.3180  175.3550  138.7850 O   0  0  0  0  0  1  0  0  0  0  0  0
  194.8950  174.4680  140.9760 C   0  0  0  0  0  2  0  0  0  0  0  0
  193.4050  174.5020  141.2950 C   0  0  0  0  0  2  0  0  0  0  0  0
  188.4490  172.6470  140.4780 C   0  0  0  0  0  1  0  0  0  0  0  0
  191.1790  173.0470  142.5890 C   0  0  2  0  0  3  0  0  0  0  0  0
  190.5840  171.7420  142.8290 N   0  0  0  0  0  2  0  0  0  0  0  0
  189.1450  171.9530  142.7500 C   0  0  0  0  0  2  0  0  0  0  0  0
  188.8970  173.1380  141.8390 C   0  0  1  0  0  3  0  0  0  0  0  0
  190.2310  173.8290  141.7070 C   0  0  0  0  0  2  0  0  0  0  0  0
  194.9690  171.3070  136.9210 O   0  0  0  0  0  0  0  0  0  0  0  0
  193.9100  171.5120  137.5760 C   0  0  0  0  0  0  0  0  0  0  0  0
  192.5850  169.5910  137.0760 C   0  0  0  0  0  2  0  0  0  0  0  0
  192.6840  170.8740  137.2030 N   0  0  0  0  0  0  0  0  0  0  0  0
  195.1110  169.8720  142.5850 S   0  0  0  0  0  1  0  0  0  0  0  0
  193.6580  170.6840  143.0110 O   0  0  0  0  0  0  0  0  0  0  0  0
  189.6000  174.5260  147.0330 S   0  0  0  0  0  1  0  0  0  0  0  0
  191.1090  175.3080  147.6730 C   0  0  0  0  0  2  0  0  0  0  0  0
  189.3160  177.5950  145.2950 C   0  0  0  0  0  2  0  0  0  0  0  0
  187.9560  178.3510  143.3350 O   0  0  0  0  0  0  0  0  0  0  0  0
  187.3730  178.1420  142.1300 O   0  0  0  0  0  0  0  0  0  0  0  0
  187.0170  175.8160  142.7820 C   0  0  0  0  0  2  0  0  0  0  0  0
  186.4010  177.1210  142.2620 C   0  0  1  0  0  3  0  0  0  0  0  0
  188.4090  177.3020  144.1450 C   0  0  0  0  0  0  0  0  0  0  0  0
  187.9490  176.0720  143.9270 C   0  0  0  0  0  3  0  0  0  0  0  0
  185.1890  177.5620  143.0400 C   0  0  0  0  0  0  0  0  0  0  0  0
  185.1930  177.4880  144.2980 O   0  0  0  0  0  0  0  0  0  0  0  0
  182.7420  178.6460  140.5380 O   0  0  0  0  0  0  0  0  0  0  0  0
  183.8680  178.2930  140.9810 C   0  0  0  0  0  0  0  0  0  0  0  0
  184.0100  178.0360  142.3820 N   0  0  0  0  0  2  0  0  0  0  0  0
  184.9620  178.1810  140.1170 O   0  0  0  0  0  0  0  0  0  0  0  0
  185.0390  177.1900  139.0970 C   0  0  0  0  0  2  0  0  0  0  0  0
  186.4650  177.0590  138.5750 C   0  0  0  0  0  2  0  0  0  0  0  0
  187.0440  175.6890  138.8890 C   0  0  0  0  0  2  0  0  0  0  0  0
  187.8690  174.9850  137.4310 S   0  0  0  0  0  1  0  0  0  0  0  0
  1  2  1  0  0  0  0
  2 40  1  0  0  0  0
  3  1  2  0  0  0  0
  4  3  1  0  0  0  0
  4 10  1  0  0  0  0
  5  2  2  0  0  0  0
  6  3  1  0  0  0  0
  6  9  2  0  0  0  0
  7  4  1  0  0  0  0
  8  4  1  0  0  0  0
  9  5  1  0  0  0  0
 10 41  1  0  0  0  0
 10  1  1  0  0  0  0
 11  9  1  0  0  0  0
 11 12  1  1  0  0  0
 13 11  1  0  0  0  0
 13 15  2  0  0  0  0
 14 13  2  0  0  0  0
 16 13  1  0  0  0  0
 17 38  1  1  0  0  0
 17 16  1  0  0  0  0
 18 20  1  0  0  0  0
 19 34  1  6  0  0  0
 19 23  1  0  0  0  0
 19 18  1  0  0  0  0
 20 22  1  0  0  0  0
 21 24  1  6  0  0  0
 21 25  1  0  0  0  0
 22 28  1  0  0  0  0
 22 17  1  1  0  0  0
 23 21  1  0  0  0  0
 25 26  1  0  0  0  0
 26 22  1  0  0  0  0
 28 32  1  6  0  0  0
 28 29  1  0  0  0  0
 30 29  1  0  0  0  0
 31 27  1  6  0  0  0
 31 30  1  0  0  0  0
 32 31  1  0  0  0  0
 33 34  2  0  0  0  0
 35 36  2  0  0  0  0
 36 34  1  0  0  0  0
 37 38  1  0  0  0  0
 39 40  1  0  0  0  0
 42 46  1  0  0  0  0
 43 45  1  0  0  0  0
 43 42  1  0  0  0  0
 44 47  1  0  0  0  0
 45 44  1  0  0  0  0
 45 48  1  1  0  0  0
 46 41  1  0  0  0  0
 47 46  2  0  0  0  0
 48 49  2  0  0  0  0
 50 51  2  0  0  0  0
 51 52  1  0  0  0  0
 52 48  1  0  0  0  0
 53 51  1  0  0  0  0
 54 53  1  0  0  0  0
 55 56  1  0  0  0  0
 55 54  1  0  0  0  0
 57 56  1  0  0  0  0
M  END
>  <MODEL>
9

>  <REMARK>
 VINA RESULT:      -6.3      2.988      8.534
  Name = 
  17 active torsions:
  status: ('A' for Active; 'I' for Inactive)
    1  A    between atoms: C_3  and  C_41
    2  A    between atoms: C_5  and  P_22
    3  A    between atoms: C_6  and  C_24
    4  A    between atoms: C_8  and  C_32
    5  A    between atoms: C_10  and  C_54
    6  A    between atoms: O_17  and  C_49
    7  A    between atoms: O_17  and  C_53
    8  A    between atoms: O_19  and  C_30
    9  A    between atoms: C_20  and  C_40
   10  A    between atoms: C_20  and  S_45
   11  A    between atoms: P_22  and  C_30
   12  A    between atoms: N_25  and  C_30
   13  A    between atoms: N_25  and  S_45
   14  A    between atoms: N_29  and  C_41
   15  A    between atoms: C_32  and  C_53
   16  A    between atoms: C_37  and  C_44
   17  A    between atoms: C_37  and  N_50
                            x       y       z     vdW  Elec       q    Type
                         _______ _______ _______ _____ _____    ______ ____

>  <TORSDO>
F 17

$$$$
