=
 OpenBabel11062423093D

 28 31  0  0  1  0  0  0  0  0999 V2000
  188.0260  175.9720  142.1540 C   0  0  1  0  0  3  0  0  0  0  0  0
  189.8690  174.6000  141.4070 O   0  0  0  0  0  0  0  0  0  0  0  0
  188.4580  174.7400  141.3520 C   0  0  1  0  0  3  0  0  0  0  0  0
  187.7910  173.4540  141.8430 C   0  0  0  0  0  2  0  0  0  0  0  0
  190.6650  172.0550  143.1170 C   0  0  0  0  0  3  0  0  0  0  0  0
  188.9510  172.5770  141.9230 C   0  0  2  0  0  3  0  0  0  0  0  0
  191.1850  172.8010  142.1990 N   0  0  0  0  0  0  0  0  0  0  0  0
  189.2530  171.9450  143.0040 N   0  0  0  0  0  2  0  0  0  0  0  0
  190.1110  173.2200  141.3120 C   0  0  2  0  0  3  0  0  0  0  0  0
  190.2560  175.8330  145.2480 C   0  0  0  0  0  0  0  0  0  0  0  0
  189.0180  176.3430  143.2120 C   0  0  0  0  0  0  0  0  0  0  0  0
  190.8590  177.0930  145.1860 C   0  0  0  0  0  3  0  0  0  0  0  0
  189.6290  177.6000  143.1630 C   0  0  0  0  0  3  0  0  0  0  0  0
  190.5480  177.9740  144.1460 C   0  0  0  0  0  3  0  0  0  0  0  0
  189.3310  175.4620  144.2570 C   0  0  0  0  0  3  0  0  0  0  0  0
  190.5840  174.9750  146.3020 O   0  0  0  0  0  0  0  0  0  0  0  0
  190.0000  175.0760  147.5960 C   0  0  0  0  0  2  0  0  0  0  0  0
  188.8260  174.3460  147.6380 F   0  0  0  0  0  0  0  0  0  0  0  0
  187.7320  177.1050  141.2830 N   0  0  0  0  0  2  0  0  0  0  0  0
  186.2880  177.2750  141.2640 C   0  0  0  0  0  2  0  0  0  0  0  0
  185.7410  177.1810  142.6750 C   0  0  0  0  0  2  0  0  0  0  0  0
  185.8500  178.5360  143.3490 C   0  0  0  0  0  2  0  0  0  0  0  0
  186.0960  176.9340  145.2300 C   0  0  0  0  0  2  0  0  0  0  0  0
  185.7240  178.9990  147.1630 C   0  0  0  0  0  3  0  0  0  0  0  0
  185.4990  179.3030  145.7030 C   0  0  0  0  0  2  0  0  0  0  0  0
  186.3040  178.3770  144.7880 C   0  0  2  0  0  3  0  0  0  0  0  0
  186.2070  177.8200  147.5860 C   0  0  0  0  0  3  0  0  0  0  0  0
  186.6690  176.7470  146.6330 C   0  0  0  0  0  2  0  0  0  0  0  0
  1 19  1  6  0  0  0
  1 11  1  0  0  0  0
  3  2  1  0  0  0  0
  3  4  1  0  0  0  0
  3  1  1  1  0  0  0
  6  4  1  1  0  0  0
  6  8  1  0  0  0  0
  7  5  2  0  0  0  0
  8  5  1  0  0  0  0
  9  2  1  1  0  0  0
  9  6  1  0  0  0  0
  9  7  1  0  0  0  0
 10 16  1  0  0  0  0
 11 15  1  0  0  0  0
 12 10  1  0  0  0  0
 13 11  2  0  0  0  0
 13 14  1  0  0  0  0
 14 12  2  0  0  0  0
 15 10  2  0  0  0  0
 16 17  1  0  0  0  0
 17 18  1  0  0  0  0
 20 19  1  0  0  0  0
 20 21  1  0  0  0  0
 21 22  1  0  0  0  0
 23 28  1  0  0  0  0
 24 27  2  0  0  0  0
 25 24  1  0  0  0  0
 26 22  1  6  0  0  0
 26 23  1  0  0  0  0
 26 25  1  0  0  0  0
 28 27  1  0  0  0  0
M  END
>  <MODEL>
1

>  <REMARK>
 VINA RESULT:      -6.9      0.000      0.000
  Name = 
  9 active torsions:
  status: ('A' for Active; 'I' for Inactive)
    1  A    between atoms: C_3  and  O_21
    2  A    between atoms: C_5  and  C_8
    3  A    between atoms: C_6  and  O_21
    4  A    between atoms: C_8  and  C_9
    5  A    between atoms: C_8  and  N_26
    6  A    between atoms: C_13  and  C_18
    7  A    between atoms: C_18  and  C_27
    8  A    between atoms: C_25  and  N_26
    9  A    between atoms: C_25  and  C_27
                            x       y       z     vdW  Elec       q    Type
                         _______ _______ _______ _____ _____    ______ ____

>  <TORSDO>
F 9

$$$$
=
 OpenBabel11062423093D

 28 31  0  0  1  0  0  0  0  0999 V2000
  190.0660  175.9740  145.4790 C   0  0  1  0  0  3  0  0  0  0  0  0
  192.2200  175.7770  144.4020 O   0  0  0  0  0  0  0  0  0  0  0  0
  191.3930  175.2120  145.4060 C   0  0  1  0  0  3  0  0  0  0  0  0
  192.1380  175.1990  146.7430 C   0  0  0  0  0  2  0  0  0  0  0  0
  194.7150  177.2290  145.7050 C   0  0  0  0  0  3  0  0  0  0  0  0
  193.4720  175.5730  146.2970 C   0  0  2  0  0  3  0  0  0  0  0  0
  194.3870  176.7110  144.5680 N   0  0  0  0  0  0  0  0  0  0  0  0
  194.1070  176.5710  146.8080 N   0  0  0  0  0  2  0  0  0  0  0  0
  193.5380  175.5610  144.8380 C   0  0  2  0  0  3  0  0  0  0  0  0
  188.4880  175.4380  142.0450 C   0  0  0  0  0  0  0  0  0  0  0  0
  189.4800  176.2310  144.1240 C   0  0  0  0  0  0  0  0  0  0  0  0
  188.4190  176.7570  141.5860 C   0  0  0  0  0  3  0  0  0  0  0  0
  189.4050  177.5450  143.6520 C   0  0  0  0  0  3  0  0  0  0  0  0
  188.8740  177.8080  142.3870 C   0  0  0  0  0  3  0  0  0  0  0  0
  189.0230  175.1790  143.3180 C   0  0  0  0  0  3  0  0  0  0  0  0
  188.0270  174.4080  141.2200 O   0  0  0  0  0  0  0  0  0  0  0  0
  188.1600  173.0300  141.5490 C   0  0  0  0  0  2  0  0  0  0  0  0
  186.9600  172.5470  142.0380 F   0  0  0  0  0  0  0  0  0  0  0  0
  189.1080  175.3060  146.3520 N   0  0  0  0  0  2  0  0  0  0  0  0
  188.5830  176.3070  147.2670 C   0  0  0  0  0  2  0  0  0  0  0  0
  187.0770  176.3970  147.1210 C   0  0  0  0  0  2  0  0  0  0  0  0
  186.6790  177.8430  146.8910 C   0  0  0  0  0  2  0  0  0  0  0  0
  185.6160  179.3450  145.2240 C   0  0  0  0  0  2  0  0  0  0  0  0
  185.3700  177.2270  143.3300 C   0  0  0  0  0  3  0  0  0  0  0  0
  185.8160  176.9130  144.7350 C   0  0  0  0  0  2  0  0  0  0  0  0
  186.4900  178.1120  145.4090 C   0  0  2  0  0  3  0  0  0  0  0  0
  185.1930  178.4840  142.8950 C   0  0  0  0  0  3  0  0  0  0  0  0
  185.5320  179.6870  143.7380 C   0  0  0  0  0  2  0  0  0  0  0  0
  1 19  1  1  0  0  0
  2  3  1  0  0  0  0
  3  1  1  1  0  0  0
  3  4  1  0  0  0  0
  5  8  1  0  0  0  0
  6  4  1  6  0  0  0
  6  8  1  0  0  0  0
  7  9  1  0  0  0  0
  7  5  2  0  0  0  0
  9  2  1  6  0  0  0
  9  6  1  0  0  0  0
 10 15  1  0  0  0  0
 11  1  1  0  0  0  0
 12 10  2  0  0  0  0
 12 14  1  0  0  0  0
 13 11  1  0  0  0  0
 14 13  2  0  0  0  0
 15 11  2  0  0  0  0
 16 17  1  0  0  0  0
 16 10  1  0  0  0  0
 17 18  1  0  0  0  0
 19 20  1  0  0  0  0
 21 20  1  0  0  0  0
 22 21  1  0  0  0  0
 23 26  1  0  0  0  0
 24 25  1  0  0  0  0
 25 26  1  0  0  0  0
 26 22  1  1  0  0  0
 27 24  2  0  0  0  0
 27 28  1  0  0  0  0
 28 23  1  0  0  0  0
M  END
>  <MODEL>
2

>  <REMARK>
 VINA RESULT:      -6.8      2.688      4.851
  Name = 
  9 active torsions:
  status: ('A' for Active; 'I' for Inactive)
    1  A    between atoms: C_3  and  O_21
    2  A    between atoms: C_5  and  C_8
    3  A    between atoms: C_6  and  O_21
    4  A    between atoms: C_8  and  C_9
    5  A    between atoms: C_8  and  N_26
    6  A    between atoms: C_13  and  C_18
    7  A    between atoms: C_18  and  C_27
    8  A    between atoms: C_25  and  N_26
    9  A    between atoms: C_25  and  C_27
                            x       y       z     vdW  Elec       q    Type
                         _______ _______ _______ _____ _____    ______ ____

>  <TORSDO>
F 9

$$$$
=
 OpenBabel11062423093D

 28 31  0  0  1  0  0  0  0  0999 V2000
  188.2520  176.8440  144.8390 C   0  0  1  0  0  3  0  0  0  0  0  0
  187.3730  178.0280  142.9250 O   0  0  0  0  0  0  0  0  0  0  0  0
  187.6400  178.1470  144.3140 C   0  0  1  0  0  3  0  0  0  0  0  0
  186.3610  178.5380  145.0550 C   0  0  0  0  0  2  0  0  0  0  0  0
  184.2510  177.9690  142.3980 C   0  0  0  0  0  3  0  0  0  0  0  0
  185.4920  178.8400  143.9270 C   0  0  2  0  0  3  0  0  0  0  0  0
  185.3330  178.2470  141.7490 N   0  0  0  0  0  0  0  0  0  0  0  0
  184.3430  178.2760  143.7820 N   0  0  0  0  0  2  0  0  0  0  0  0
  186.2630  178.8550  142.6870 C   0  0  2  0  0  3  0  0  0  0  0  0
  190.4560  174.7240  142.5560 C   0  0  0  0  0  0  0  0  0  0  0  0
  189.4050  176.3760  144.0060 C   0  0  0  0  0  0  0  0  0  0  0  0
  191.5980  175.5290  142.4840 C   0  0  0  0  0  3  0  0  0  0  0  0
  190.5530  177.1700  143.9250 C   0  0  0  0  0  3  0  0  0  0  0  0
  191.6470  176.7490  143.1640 C   0  0  0  0  0  3  0  0  0  0  0  0
  189.3600  175.1520  143.3230 C   0  0  0  0  0  3  0  0  0  0  0  0
  190.4390  173.5080  141.8670 O   0  0  0  0  0  0  0  0  0  0  0  0
  189.2400  172.8050  141.5610 C   0  0  0  0  0  2  0  0  0  0  0  0
  189.0610  171.7700  142.4600 F   0  0  0  0  0  0  0  0  0  0  0  0
  188.6250  176.9530  146.2460 N   0  0  0  0  0  2  0  0  0  0  0  0
  188.2800  175.6940  146.8850 C   0  0  0  0  0  2  0  0  0  0  0  0
  189.5400  174.9140  147.1990 C   0  0  0  0  0  2  0  0  0  0  0  0
  190.6500  175.8790  147.5710 C   0  0  0  0  0  2  0  0  0  0  0  0
  192.9090  176.4520  146.7120 C   0  0  0  0  0  2  0  0  0  0  0  0
  193.1550  173.9310  145.4000 C   0  0  0  0  0  3  0  0  0  0  0  0
  191.8340  174.3190  146.0140 C   0  0  0  0  0  2  0  0  0  0  0  0
  192.0000  175.3160  147.1640 C   0  0  2  0  0  3  0  0  0  0  0  0
  194.2630  174.6760  145.5460 C   0  0  0  0  0  3  0  0  0  0  0  0
  194.3030  175.9010  146.4240 C   0  0  0  0  0  2  0  0  0  0  0  0
  1 19  1  1  0  0  0
  2  3  1  0  0  0  0
  3  1  1  1  0  0  0
  3  4  1  0  0  0  0
  5  8  1  0  0  0  0
  6  4  1  1  0  0  0
  7  5  2  0  0  0  0
  8  6  1  0  0  0  0
  9  7  1  6  0  0  0
  9  2  1  0  0  0  0
  9  6  1  0  0  0  0
 10 15  1  0  0  0  0
 11  1  1  0  0  0  0
 12 10  2  0  0  0  0
 12 14  1  0  0  0  0
 13 11  1  0  0  0  0
 14 13  2  0  0  0  0
 15 11  2  0  0  0  0
 16 10  1  0  0  0  0
 17 16  1  0  0  0  0
 17 18  1  0  0  0  0
 19 20  1  0  0  0  0
 20 21  1  0  0  0  0
 21 22  1  0  0  0  0
 23 26  1  0  0  0  0
 24 27  2  0  0  0  0
 24 25  1  0  0  0  0
 25 26  1  0  0  0  0
 26 22  1  6  0  0  0
 27 28  1  0  0  0  0
 28 23  1  0  0  0  0
M  END
>  <MODEL>
3

>  <REMARK>
 VINA RESULT:      -6.8      2.682      6.138
  Name = 
  9 active torsions:
  status: ('A' for Active; 'I' for Inactive)
    1  A    between atoms: C_3  and  O_21
    2  A    between atoms: C_5  and  C_8
    3  A    between atoms: C_6  and  O_21
    4  A    between atoms: C_8  and  C_9
    5  A    between atoms: C_8  and  N_26
    6  A    between atoms: C_13  and  C_18
    7  A    between atoms: C_18  and  C_27
    8  A    between atoms: C_25  and  N_26
    9  A    between atoms: C_25  and  C_27
                            x       y       z     vdW  Elec       q    Type
                         _______ _______ _______ _____ _____    ______ ____

>  <TORSDO>
F 9

$$$$
=
 OpenBabel11062423093D

 28 31  0  0  1  0  0  0  0  0999 V2000
  187.8950  176.1220  142.0690 C   0  0  1  0  0  3  0  0  0  0  0  0
  185.6540  176.5510  142.8650 O   0  0  0  0  0  0  0  0  0  0  0  0
  186.5520  176.8090  141.7970 C   0  0  1  0  0  3  0  0  0  0  0  0
  186.6940  178.3190  141.5940 C   0  0  0  0  0  2  0  0  0  0  0  0
  185.1030  179.1980  144.5150 C   0  0  0  0  0  3  0  0  0  0  0  0
  185.6310  178.7970  142.4660 C   0  0  2  0  0  3  0  0  0  0  0  0
  184.5330  178.0590  144.3010 N   0  0  0  0  0  0  0  0  0  0  0  0
  185.8520  179.6590  143.3980 N   0  0  0  0  0  2  0  0  0  0  0  0
  184.8160  177.6770  142.9270 C   0  0  2  0  0  3  0  0  0  0  0  0
  188.9070  177.5630  145.4550 C   0  0  0  0  0  0  0  0  0  0  0  0
  188.6750  176.8010  143.1530 C   0  0  0  0  0  0  0  0  0  0  0  0
  190.1580  178.1040  145.1400 C   0  0  0  0  0  3  0  0  0  0  0  0
  189.9270  177.3470  142.8510 C   0  0  0  0  0  3  0  0  0  0  0  0
  190.6670  177.9960  143.8420 C   0  0  0  0  0  3  0  0  0  0  0  0
  188.1660  176.9120  144.4550 C   0  0  0  0  0  3  0  0  0  0  0  0
  188.4230  177.6910  146.7600 O   0  0  0  0  0  0  0  0  0  0  0  0
  187.0600  177.4750  147.1080 C   0  0  0  0  0  2  0  0  0  0  0  0
  186.4800  178.6700  147.4930 F   0  0  0  0  0  0  0  0  0  0  0  0
  187.7250  174.7000  142.3490 N   0  0  0  0  0  2  0  0  0  0  0  0
  189.0000  174.0520  142.0900 C   0  0  0  0  0  2  0  0  0  0  0  0
  189.3650  173.1520  143.2540 C   0  0  0  0  0  2  0  0  0  0  0  0
  190.7760  173.4710  143.7130 C   0  0  0  0  0  2  0  0  0  0  0  0
  192.0940  174.3500  145.6250 C   0  0  0  0  0  2  0  0  0  0  0  0
  189.7520  174.6570  147.2240 C   0  0  0  0  0  3  0  0  0  0  0  0
  189.6540  173.9450  145.8980 C   0  0  0  0  0  2  0  0  0  0  0  0
  190.7450  174.3910  144.9200 C   0  0  2  0  0  3  0  0  0  0  0  0
  190.8790  175.2590  147.6360 C   0  0  0  0  0  3  0  0  0  0  0  0
  192.1030  175.3690  146.7620 C   0  0  0  0  0  2  0  0  0  0  0  0
  1 19  1  1  0  0  0
  1 11  1  0  0  0  0
  3  1  1  1  0  0  0
  3  2  1  0  0  0  0
  4  3  1  0  0  0  0
  6  4  1  1  0  0  0
  6  9  1  0  0  0  0
  6  8  1  0  0  0  0
  7  5  2  0  0  0  0
  8  5  1  0  0  0  0
  9  2  1  1  0  0  0
  9  7  1  0  0  0  0
 10 16  1  0  0  0  0
 11 15  1  0  0  0  0
 12 10  1  0  0  0  0
 13 11  2  0  0  0  0
 13 14  1  0  0  0  0
 14 12  2  0  0  0  0
 15 10  2  0  0  0  0
 16 17  1  0  0  0  0
 17 18  1  0  0  0  0
 20 19  1  0  0  0  0
 20 21  1  0  0  0  0
 21 22  1  0  0  0  0
 23 28  1  0  0  0  0
 24 27  2  0  0  0  0
 25 24  1  0  0  0  0
 26 22  1  6  0  0  0
 26 23  1  0  0  0  0
 26 25  1  0  0  0  0
 28 27  1  0  0  0  0
M  END
>  <MODEL>
4

>  <REMARK>
 VINA RESULT:      -6.8      2.250      5.261
  Name = 
  9 active torsions:
  status: ('A' for Active; 'I' for Inactive)
    1  A    between atoms: C_3  and  O_21
    2  A    between atoms: C_5  and  C_8
    3  A    between atoms: C_6  and  O_21
    4  A    between atoms: C_8  and  C_9
    5  A    between atoms: C_8  and  N_26
    6  A    between atoms: C_13  and  C_18
    7  A    between atoms: C_18  and  C_27
    8  A    between atoms: C_25  and  N_26
    9  A    between atoms: C_25  and  C_27
                            x       y       z     vdW  Elec       q    Type
                         _______ _______ _______ _____ _____    ______ ____

>  <TORSDO>
F 9

$$$$
=
 OpenBabel11062423093D

 28 31  0  0  1  0  0  0  0  0999 V2000
  188.2070  176.6800  144.7290 C   0  0  1  0  0  3  0  0  0  0  0  0
  187.3360  177.7760  142.7600 O   0  0  0  0  0  0  0  0  0  0  0  0
  187.6980  177.9880  144.1150 C   0  0  1  0  0  3  0  0  0  0  0  0
  186.5100  178.5750  144.8810 C   0  0  0  0  0  2  0  0  0  0  0  0
  184.1970  177.9980  142.4000 C   0  0  0  0  0  3  0  0  0  0  0  0
  185.6100  178.8650  143.7750 C   0  0  2  0  0  3  0  0  0  0  0  0
  185.2610  178.1020  141.6740 N   0  0  0  0  0  0  0  0  0  0  0  0
  184.4030  178.4140  143.7440 N   0  0  0  0  0  2  0  0  0  0  0  0
  186.3020  178.6900  142.5010 C   0  0  2  0  0  3  0  0  0  0  0  0
  191.5170  176.1300  142.9100 C   0  0  0  0  0  0  0  0  0  0  0  0
  189.3000  176.0550  143.9180 C   0  0  0  0  0  0  0  0  0  0  0  0
  191.3040  174.8580  142.3690 C   0  0  0  0  0  3  0  0  0  0  0  0
  189.1000  174.7840  143.3700 C   0  0  0  0  0  3  0  0  0  0  0  0
  190.1000  174.1860  142.5990 C   0  0  0  0  0  3  0  0  0  0  0  0
  190.5080  176.7270  143.6840 C   0  0  0  0  0  3  0  0  0  0  0  0
  192.7300  176.7780  142.6600 O   0  0  0  0  0  0  0  0  0  0  0  0
  193.8810  176.1060  142.1620 C   0  0  0  0  0  2  0  0  0  0  0  0
  194.9660  176.3660  142.9800 F   0  0  0  0  0  0  0  0  0  0  0  0
  188.6160  176.8610  146.1180 N   0  0  0  0  0  2  0  0  0  0  0  0
  188.2720  175.6430  146.8330 C   0  0  0  0  0  2  0  0  0  0  0  0
  189.5350  174.9360  147.2820 C   0  0  0  0  0  2  0  0  0  0  0  0
  190.6460  175.9540  147.4600 C   0  0  0  0  0  2  0  0  0  0  0  0
  192.9240  176.4210  146.5890 C   0  0  0  0  0  2  0  0  0  0  0  0
  193.1380  173.8040  145.4740 C   0  0  0  0  0  3  0  0  0  0  0  0
  191.8170  174.2600  146.0400 C   0  0  0  0  0  2  0  0  0  0  0  0
  191.9900  175.3380  147.1130 C   0  0  2  0  0  3  0  0  0  0  0  0
  194.2570  174.5380  145.5760 C   0  0  0  0  0  3  0  0  0  0  0  0
  194.3110  175.8240  146.3610 C   0  0  0  0  0  2  0  0  0  0  0  0
  1 19  1  1  0  0  0
  2  3  1  0  0  0  0
  3  1  1  1  0  0  0
  3  4  1  0  0  0  0
  5  8  1  0  0  0  0
  6  4  1  1  0  0  0
  7  5  2  0  0  0  0
  8  6  1  0  0  0  0
  9  7  1  6  0  0  0
  9  2  1  0  0  0  0
  9  6  1  0  0  0  0
 10 15  1  0  0  0  0
 11  1  1  0  0  0  0
 12 14  1  0  0  0  0
 12 10  2  0  0  0  0
 13 11  1  0  0  0  0
 14 13  2  0  0  0  0
 15 11  2  0  0  0  0
 16 10  1  0  0  0  0
 17 16  1  0  0  0  0
 17 18  1  0  0  0  0
 19 20  1  0  0  0  0
 20 21  1  0  0  0  0
 21 22  1  0  0  0  0
 23 26  1  0  0  0  0
 24 27  2  0  0  0  0
 24 25  1  0  0  0  0
 25 26  1  0  0  0  0
 26 22  1  6  0  0  0
 27 28  1  0  0  0  0
 28 23  1  0  0  0  0
M  END
>  <MODEL>
5

>  <REMARK>
 VINA RESULT:      -6.7      3.044      6.274
  Name = 
  9 active torsions:
  status: ('A' for Active; 'I' for Inactive)
    1  A    between atoms: C_3  and  O_21
    2  A    between atoms: C_5  and  C_8
    3  A    between atoms: C_6  and  O_21
    4  A    between atoms: C_8  and  C_9
    5  A    between atoms: C_8  and  N_26
    6  A    between atoms: C_13  and  C_18
    7  A    between atoms: C_18  and  C_27
    8  A    between atoms: C_25  and  N_26
    9  A    between atoms: C_25  and  C_27
                            x       y       z     vdW  Elec       q    Type
                         _______ _______ _______ _____ _____    ______ ____

>  <TORSDO>
F 9

$$$$
=
 OpenBabel11062423093D

 28 31  0  0  1  0  0  0  0  0999 V2000
  188.2640  175.4590  142.7940 C   0  0  1  0  0  3  0  0  0  0  0  0
  187.9340  173.3730  141.6200 O   0  0  0  0  0  0  0  0  0  0  0  0
  188.8940  174.1440  142.3240 C   0  0  1  0  0  3  0  0  0  0  0  0
  190.1270  174.3620  141.4450 C   0  0  0  0  0  2  0  0  0  0  0  0
  188.6720  173.2220  138.5440 C   0  0  0  0  0  3  0  0  0  0  0  0
  189.8240  173.4550  140.3480 C   0  0  2  0  0  3  0  0  0  0  0  0
  187.9780  172.5510  139.4030 N   0  0  0  0  0  0  0  0  0  0  0  0
  189.8070  173.8520  139.1220 N   0  0  0  0  0  2  0  0  0  0  0  0
  188.6670  172.6290  140.6810 C   0  0  2  0  0  3  0  0  0  0  0  0
  189.8560  175.9530  146.2280 C   0  0  0  0  0  0  0  0  0  0  0  0
  189.0010  176.0650  143.9490 C   0  0  0  0  0  0  0  0  0  0  0  0
  190.3580  177.2510  146.0930 C   0  0  0  0  0  3  0  0  0  0  0  0
  189.5080  177.3630  143.8290 C   0  0  0  0  0  3  0  0  0  0  0  0
  190.1870  177.9540  144.8970 C   0  0  0  0  0  3  0  0  0  0  0  0
  189.1730  175.3630  145.1510 C   0  0  0  0  0  3  0  0  0  0  0  0
  190.0400  175.2770  147.4380 O   0  0  0  0  0  0  0  0  0  0  0  0
  191.2820  175.2530  148.1320 C   0  0  0  0  0  2  0  0  0  0  0  0
  192.2960  174.8840  147.2670 F   0  0  0  0  0  0  0  0  0  0  0  0
  188.1240  176.4110  141.6970 N   0  0  0  0  0  2  0  0  0  0  0  0
  186.7100  176.7190  141.5680 C   0  0  0  0  0  2  0  0  0  0  0  0
  186.0290  176.5870  142.9160 C   0  0  0  0  0  2  0  0  0  0  0  0
  185.7610  177.9690  143.4810 C   0  0  0  0  0  2  0  0  0  0  0  0
  185.7550  176.7700  145.6550 C   0  0  0  0  0  2  0  0  0  0  0  0
  185.7260  179.2190  147.1170 C   0  0  0  0  0  3  0  0  0  0  0  0
  185.5470  179.2490  145.6200 C   0  0  0  0  0  2  0  0  0  0  0  0
  186.1900  178.0400  144.9360 C   0  0  2  0  0  3  0  0  0  0  0  0
  186.0160  178.0910  147.7840 C   0  0  0  0  0  3  0  0  0  0  0  0
  186.2970  176.7860  147.0830 C   0  0  0  0  0  2  0  0  0  0  0  0
  1 19  1  6  0  0  0
  1 11  1  0  0  0  0
  2  3  1  0  0  0  0
  3  1  1  6  0  0  0
  4  3  1  0  0  0  0
  5  8  1  0  0  0  0
  5  7  2  0  0  0  0
  6  9  1  0  0  0  0
  6  4  1  1  0  0  0
  8  6  1  0  0  0  0
  9  7  1  6  0  0  0
  9  2  1  0  0  0  0
 10 16  1  0  0  0  0
 11 15  1  0  0  0  0
 12 10  1  0  0  0  0
 13 11  2  0  0  0  0
 13 14  1  0  0  0  0
 14 12  2  0  0  0  0
 15 10  2  0  0  0  0
 16 17  1  0  0  0  0
 18 17  1  0  0  0  0
 20 19  1  0  0  0  0
 20 21  1  0  0  0  0
 21 22  1  0  0  0  0
 23 28  1  0  0  0  0
 24 27  2  0  0  0  0
 25 24  1  0  0  0  0
 26 22  1  6  0  0  0
 26 25  1  0  0  0  0
 26 23  1  0  0  0  0
 28 27  1  0  0  0  0
M  END
>  <MODEL>
6

>  <REMARK>
 VINA RESULT:      -6.7      1.614      1.968
  Name = 
  9 active torsions:
  status: ('A' for Active; 'I' for Inactive)
    1  A    between atoms: C_3  and  O_21
    2  A    between atoms: C_5  and  C_8
    3  A    between atoms: C_6  and  O_21
    4  A    between atoms: C_8  and  C_9
    5  A    between atoms: C_8  and  N_26
    6  A    between atoms: C_13  and  C_18
    7  A    between atoms: C_18  and  C_27
    8  A    between atoms: C_25  and  N_26
    9  A    between atoms: C_25  and  C_27
                            x       y       z     vdW  Elec       q    Type
                         _______ _______ _______ _____ _____    ______ ____

>  <TORSDO>
F 9

$$$$
=
 OpenBabel11062423093D

 28 31  0  0  1  0  0  0  0  0999 V2000
  187.9030  176.3220  146.0640 C   0  0  1  0  0  3  0  0  0  0  0  0
  186.8650  178.4950  146.2650 O   0  0  0  0  0  0  0  0  0  0  0  0
  186.6820  177.1150  146.5400 C   0  0  1  0  0  3  0  0  0  0  0  0
  185.3790  176.6290  145.9020 C   0  0  0  0  0  2  0  0  0  0  0  0
  184.8730  179.4480  143.9950 C   0  0  0  0  0  3  0  0  0  0  0  0
  184.8030  177.9020  145.4920 C   0  0  2  0  0  3  0  0  0  0  0  0
  185.5540  179.9690  144.9610 N   0  0  0  0  0  0  0  0  0  0  0  0
  184.4380  178.1240  144.2770 N   0  0  0  0  0  2  0  0  0  0  0  0
  185.5750  179.0080  146.0520 C   0  0  2  0  0  3  0  0  0  0  0  0
  188.4390  177.0880  142.3630 C   0  0  0  0  0  0  0  0  0  0  0  0
  188.4750  176.8630  144.7890 C   0  0  0  0  0  0  0  0  0  0  0  0
  189.5970  177.8710  142.4290 C   0  0  0  0  0  3  0  0  0  0  0  0
  189.6310  177.6470  144.8400 C   0  0  0  0  0  3  0  0  0  0  0  0
  190.1900  178.1510  143.6630 C   0  0  0  0  0  3  0  0  0  0  0  0
  187.8820  176.5820  143.5490 C   0  0  0  0  0  3  0  0  0  0  0  0
  187.8710  176.8220  141.1140 O   0  0  0  0  0  0  0  0  0  0  0  0
  186.6000  177.3230  140.7170 C   0  0  0  0  0  2  0  0  0  0  0  0
  186.4190  178.5970  141.2250 F   0  0  0  0  0  0  0  0  0  0  0  0
  188.9230  176.2280  147.1030 N   0  0  0  0  0  2  0  0  0  0  0  0
  189.2440  174.8200  147.2700 C   0  0  0  0  0  2  0  0  0  0  0  0
  190.5820  174.5180  146.6250 C   0  0  0  0  0  2  0  0  0  0  0  0
  191.6470  175.4090  147.2350 C   0  0  0  0  0  2  0  0  0  0  0  0
  192.3440  175.2210  144.8590 C   0  0  0  0  0  2  0  0  0  0  0  0
  194.9180  176.3120  145.4270 C   0  0  0  0  0  3  0  0  0  0  0  0
  193.9920  175.9700  146.5670 C   0  0  0  0  0  2  0  0  0  0  0  0
  192.5190  176.0120  146.1480 C   0  0  2  0  0  3  0  0  0  0  0  0
  194.5370  176.2320  144.1420 C   0  0  0  0  0  3  0  0  0  0  0  0
  193.1230  175.9030  143.7370 C   0  0  0  0  0  2  0  0  0  0  0  0
  1 19  1  1  0  0  0
  2  3  1  0  0  0  0
  3  1  1  6  0  0  0
  4  3  1  0  0  0  0
  5  8  1  0  0  0  0
  5  7  2  0  0  0  0
  6  4  1  6  0  0  0
  6  9  1  0  0  0  0
  8  6  1  0  0  0  0
  9  7  1  6  0  0  0
  9  2  1  0  0  0  0
 10 12  2  0  0  0  0
 10 15  1  0  0  0  0
 11 13  1  0  0  0  0
 11  1  1  0  0  0  0
 12 14  1  0  0  0  0
 14 13  2  0  0  0  0
 15 11  2  0  0  0  0
 16 10  1  0  0  0  0
 17 16  1  0  0  0  0
 17 18  1  0  0  0  0
 19 20  1  0  0  0  0
 21 22  1  0  0  0  0
 21 20  1  0  0  0  0
 23 26  1  0  0  0  0
 24 25  1  0  0  0  0
 26 25  1  0  0  0  0
 26 22  1  1  0  0  0
 27 24  2  0  0  0  0
 28 27  1  0  0  0  0
 28 23  1  0  0  0  0
M  END
>  <MODEL>
7

>  <REMARK>
 VINA RESULT:      -6.7      3.266      6.818
  Name = 
  9 active torsions:
  status: ('A' for Active; 'I' for Inactive)
    1  A    between atoms: C_3  and  O_21
    2  A    between atoms: C_5  and  C_8
    3  A    between atoms: C_6  and  O_21
    4  A    between atoms: C_8  and  C_9
    5  A    between atoms: C_8  and  N_26
    6  A    between atoms: C_13  and  C_18
    7  A    between atoms: C_18  and  C_27
    8  A    between atoms: C_25  and  N_26
    9  A    between atoms: C_25  and  C_27
                            x       y       z     vdW  Elec       q    Type
                         _______ _______ _______ _____ _____    ______ ____

>  <TORSDO>
F 9

$$$$
=
 OpenBabel11062423093D

 28 31  0  0  1  0  0  0  0  0999 V2000
  191.3070  174.3290  144.2980 C   0  0  1  0  0  3  0  0  0  0  0  0
  193.6390  174.9560  144.2310 O   0  0  0  0  0  0  0  0  0  0  0  0
  192.6750  174.2330  144.9800 C   0  0  1  0  0  3  0  0  0  0  0  0
  192.6510  174.7440  146.4220 C   0  0  0  0  0  2  0  0  0  0  0  0
  194.5700  177.5350  145.8170 C   0  0  0  0  0  3  0  0  0  0  0  0
  193.8260  175.6030  146.4100 C   0  0  2  0  0  3  0  0  0  0  0  0
  195.0150  176.7680  144.8780 N   0  0  0  0  0  0  0  0  0  0  0  0
  193.7680  176.8410  146.7630 N   0  0  0  0  0  2  0  0  0  0  0  0
  194.5770  175.4130  145.1720 C   0  0  2  0  0  3  0  0  0  0  0  0
  188.5590  176.2620  146.1100 C   0  0  0  0  0  0  0  0  0  0  0  0
  190.4740  175.4490  144.8410 C   0  0  0  0  0  0  0  0  0  0  0  0
  188.9300  177.5760  145.8090 C   0  0  0  0  0  3  0  0  0  0  0  0
  190.8330  176.7690  144.5480 C   0  0  0  0  0  3  0  0  0  0  0  0
  190.0650  177.8300  145.0330 C   0  0  0  0  0  3  0  0  0  0  0  0
  189.3350  175.1980  145.6190 C   0  0  0  0  0  3  0  0  0  0  0  0
  187.4180  176.0400  146.8860 O   0  0  0  0  0  0  0  0  0  0  0  0
  186.3660  176.9910  147.0090 C   0  0  0  0  0  2  0  0  0  0  0  0
  185.2070  176.4820  146.4520 F   0  0  0  0  0  0  0  0  0  0  0  0
  191.4340  174.4180  142.8470 N   0  0  0  0  0  2  0  0  0  0  0  0
  190.4150  173.5570  142.2690 C   0  0  0  0  0  2  0  0  0  0  0  0
  189.4390  174.3870  141.4580 C   0  0  0  0  0  2  0  0  0  0  0  0
  188.0950  174.4110  142.1610 C   0  0  0  0  0  2  0  0  0  0  0  0
  188.5310  176.8510  141.9990 C   0  0  0  0  0  2  0  0  0  0  0  0
  186.0470  177.4760  143.2530 C   0  0  0  0  0  3  0  0  0  0  0  0
  186.5080  176.0410  143.2010 C   0  0  0  0  0  2  0  0  0  0  0  0
  187.4500  175.7790  142.0230 C   0  0  2  0  0  3  0  0  0  0  0  0
  186.7030  178.4660  142.6280 C   0  0  0  0  0  3  0  0  0  0  0  0
  187.8900  178.2110  141.7330 C   0  0  0  0  0  2  0  0  0  0  0  0
  1 19  1  6  0  0  0
  1 11  1  0  0  0  0
  2  3  1  0  0  0  0
  3  1  1  6  0  0  0
  3  4  1  0  0  0  0
  5  8  1  0  0  0  0
  6  4  1  6  0  0  0
  6  8  1  0  0  0  0
  7  9  1  0  0  0  0
  7  5  2  0  0  0  0
  9  2  1  6  0  0  0
  9  6  1  0  0  0  0
 10 16  1  0  0  0  0
 11 15  1  0  0  0  0
 12 10  1  0  0  0  0
 13 11  2  0  0  0  0
 13 14  1  0  0  0  0
 14 12  2  0  0  0  0
 15 10  2  0  0  0  0
 16 17  1  0  0  0  0
 18 17  1  0  0  0  0
 20 19  1  0  0  0  0
 21 22  1  0  0  0  0
 21 20  1  0  0  0  0
 23 26  1  0  0  0  0
 25 24  1  0  0  0  0
 26 22  1  1  0  0  0
 26 25  1  0  0  0  0
 27 24  2  0  0  0  0
 28 23  1  0  0  0  0
 28 27  1  0  0  0  0
M  END
>  <MODEL>
8

>  <REMARK>
 VINA RESULT:      -6.6      2.785      4.818
  Name = 
  9 active torsions:
  status: ('A' for Active; 'I' for Inactive)
    1  A    between atoms: C_3  and  O_21
    2  A    between atoms: C_5  and  C_8
    3  A    between atoms: C_6  and  O_21
    4  A    between atoms: C_8  and  C_9
    5  A    between atoms: C_8  and  N_26
    6  A    between atoms: C_13  and  C_18
    7  A    between atoms: C_18  and  C_27
    8  A    between atoms: C_25  and  N_26
    9  A    between atoms: C_25  and  C_27
                            x       y       z     vdW  Elec       q    Type
                         _______ _______ _______ _____ _____    ______ ____

>  <TORSDO>
F 9

$$$$
=
 OpenBabel11062423093D

 28 31  0  0  1  0  0  0  0  0999 V2000
  188.7270  177.1200  144.6750 C   0  0  1  0  0  3  0  0  0  0  0  0
  186.7860  176.6290  146.0280 O   0  0  0  0  0  0  0  0  0  0  0  0
  187.2300  176.7930  144.6910 C   0  0  1  0  0  3  0  0  0  0  0  0
  186.3860  177.8610  143.9930 C   0  0  0  0  0  2  0  0  0  0  0  0
  184.8650  179.0070  146.8580 C   0  0  0  0  0  3  0  0  0  0  0  0
  185.3410  178.0530  144.9870 C   0  0  2  0  0  3  0  0  0  0  0  0
  185.1070  177.7910  147.2220 N   0  0  0  0  0  0  0  0  0  0  0  0
  185.0620  179.2160  145.4660 N   0  0  0  0  0  2  0  0  0  0  0  0
  185.4410  177.0330  146.0270 C   0  0  2  0  0  3  0  0  0  0  0  0
  190.9400  176.7650  147.7640 C   0  0  0  0  0  0  0  0  0  0  0  0
  189.4520  176.5360  145.8480 C   0  0  0  0  0  0  0  0  0  0  0  0
  190.8140  175.3940  148.0130 C   0  0  0  0  0  3  0  0  0  0  0  0
  189.3350  175.1670  146.1090 C   0  0  0  0  0  3  0  0  0  0  0  0
  190.0130  174.5980  147.1900 C   0  0  0  0  0  3  0  0  0  0  0  0
  190.2580  177.3320  146.6750 C   0  0  0  0  0  3  0  0  0  0  0  0
  191.7520  177.5340  148.6030 O   0  0  0  0  0  0  0  0  0  0  0  0
  191.2430  178.2890  149.6970 C   0  0  0  0  0  2  0  0  0  0  0  0
  191.5640  177.6640  150.8880 F   0  0  0  0  0  0  0  0  0  0  0  0
  189.3510  176.7250  143.4160 N   0  0  0  0  0  2  0  0  0  0  0  0
  190.0490  177.8890  142.8950 C   0  0  0  0  0  2  0  0  0  0  0  0
  191.5390  177.7420  143.1300 C   0  0  0  0  0  2  0  0  0  0  0  0
  191.9160  176.2730  143.0720 C   0  0  0  0  0  2  0  0  0  0  0  0
  192.7080  174.7440  144.8600 C   0  0  0  0  0  2  0  0  0  0  0  0
  194.1950  176.8280  146.1170 C   0  0  0  0  0  3  0  0  0  0  0  0
  193.2670  177.1660  144.9790 C   0  0  0  0  0  2  0  0  0  0  0  0
  193.0500  175.9780  144.0370 C   0  0  2  0  0  3  0  0  0  0  0  0
  194.4430  175.5630  146.4930 C   0  0  0  0  0  3  0  0  0  0  0  0
  193.9010  174.3750  145.7390 C   0  0  0  0  0  2  0  0  0  0  0  0
  1 19  1  6  0  0  0
  1 11  1  0  0  0  0
  3  1  1  1  0  0  0
  3  2  1  0  0  0  0
  4  3  1  0  0  0  0
  5  7  2  0  0  0  0
  6  4  1  1  0  0  0
  6  8  1  0  0  0  0
  6  9  1  0  0  0  0
  8  5  1  0  0  0  0
  9  2  1  1  0  0  0
  9  7  1  0  0  0  0
 10 12  1  0  0  0  0
 10 16  1  0  0  0  0
 11 13  2  0  0  0  0
 11 15  1  0  0  0  0
 13 14  1  0  0  0  0
 14 12  2  0  0  0  0
 15 10  2  0  0  0  0
 16 17  1  0  0  0  0
 17 18  1  0  0  0  0
 20 21  1  0  0  0  0
 20 19  1  0  0  0  0
 22 21  1  0  0  0  0
 23 28  1  0  0  0  0
 24 27  2  0  0  0  0
 25 24  1  0  0  0  0
 26 22  1  6  0  0  0
 26 23  1  0  0  0  0
 26 25  1  0  0  0  0
 28 27  1  0  0  0  0
M  END
>  <MODEL>
9

>  <REMARK>
 VINA RESULT:      -6.6      3.038      6.163
  Name = 
  9 active torsions:
  status: ('A' for Active; 'I' for Inactive)
    1  A    between atoms: C_3  and  O_21
    2  A    between atoms: C_5  and  C_8
    3  A    between atoms: C_6  and  O_21
    4  A    between atoms: C_8  and  C_9
    5  A    between atoms: C_8  and  N_26
    6  A    between atoms: C_13  and  C_18
    7  A    between atoms: C_18  and  C_27
    8  A    between atoms: C_25  and  N_26
    9  A    between atoms: C_25  and  C_27
                            x       y       z     vdW  Elec       q    Type
                         _______ _______ _______ _____ _____    ______ ____

>  <TORSDO>
F 9

$$$$
