=
 OpenBabel11062420583D

 31 34  0  0  1  0  0  0  0  0999 V2000
  194.1600  176.7170  145.3100 C   0  0  2  0  0  3  0  0  0  0  0  0
  188.4940  175.6320  146.8320 O   0  0  0  0  0  0  0  0  0  0  0  0
  191.6840  176.6350  144.5850 C   0  0  2  0  0  3  0  0  0  0  0  0
  191.9020  176.2130  146.0050 C   0  0  0  0  0  0  0  0  0  0  0  0
  193.3180  176.1780  146.4560 C   0  0  0  0  0  2  0  0  0  0  0  0
  191.0440  175.4650  148.2080 C   0  0  0  0  0  1  0  0  0  0  0  0
  189.5390  175.7780  146.1410 C   0  0  0  0  0  0  0  0  0  0  0  0
  190.8660  175.8480  146.7740 C   0  0  0  0  0  0  0  0  0  0  0  0
  190.6600  175.8000  143.9520 N   0  0  0  0  0  2  0  0  0  0  0  0
  189.4730  175.8950  144.7080 N   0  0  0  0  0  0  0  0  0  0  0  0
  193.2740  176.4330  143.7430 S   0  0  0  0  0  0  0  0  0  0  0  0
  195.5140  176.0270  145.2680 C   0  0  0  0  0  2  0  0  0  0  0  0
  197.6430  172.8220  144.7940 O   0  0  0  0  0  0  0  0  0  0  0  0
  196.7000  175.4190  142.3090 C   0  0  0  0  0  2  0  0  0  0  0  0
  195.4250  173.5200  145.4280 C   0  0  0  0  0  2  0  0  0  0  0  0
  196.3050  174.0630  142.3080 O   0  0  0  0  0  0  0  0  0  0  0  0
  195.4460  174.7260  144.4770 C   0  0  2  0  0  3  0  0  0  0  0  0
  197.9370  174.0130  144.1030 C   0  0  0  0  0  2  0  0  0  0  0  0
  196.8420  173.1680  145.9000 C   0  0  0  0  0  2  0  0  0  0  0  0
  196.6520  174.6210  143.5480 C   0  0  2  0  0  0  0  0  0  0  0  0
  188.2180  176.1670  144.0240 C   0  0  0  0  0  2  0  0  0  0  0  0
  187.9780  177.6650  143.9490 C   0  0  0  0  0  2  0  0  0  0  0  0
  186.5970  178.0070  144.4910 C   0  0  2  0  0  3  0  0  0  0  0  0
  185.1660  177.0570  146.4370 S   0  0  0  0  0  1  0  0  0  0  0  0
  185.9180  176.7760  144.8650 N   0  0  0  0  0  2  0  0  0  0  0  0
  185.5460  180.0610  143.8550 O   0  0  0  0  0  1  0  0  0  0  0  0
  185.7720  178.7470  143.4390 C   0  0  1  0  0  3  0  0  0  0  0  0
  186.4590  178.7590  142.1940 O   0  0  0  0  0  0  0  0  0  0  0  0
  185.9690  178.0880  141.0740 C   0  0  0  0  0  0  0  0  0  0  0  0
  186.5670  177.0640  140.6510 O   0  0  0  0  0  1  0  0  0  0  0  0
  184.8260  178.5340  140.4220 O   0  0  0  0  0  0  0  0  0  0  0  0
  1 12  1  6  0  0  0
  1  5  1  0  0  0  0
  3 11  1  6  0  0  0
  3  4  1  0  0  0  0
  4  5  1  0  0  0  0
  4  8  2  0  0  0  0
  7  8  1  0  0  0  0
  7  2  2  0  0  0  0
  8  6  1  0  0  0  0
  9  3  1  0  0  0  0
  9 10  1  0  0  0  0
 10  7  1  0  0  0  0
 11  1  1  0  0  0  0
 13 19  1  0  0  0  0
 15 19  1  0  0  0  0
 16 14  1  0  0  0  0
 16 20  1  0  0  0  0
 17 12  1  1  0  0  0
 17 15  1  0  0  0  0
 18 13  1  0  0  0  0
 20 14  1  6  0  0  0
 20 18  1  0  0  0  0
 20 17  1  0  0  0  0
 21 10  1  0  0  0  0
 22 21  1  0  0  0  0
 23 22  1  6  0  0  0
 23 25  1  0  0  0  0
 25 24  1  0  0  0  0
 27 26  1  1  0  0  0
 27 23  1  0  0  0  0
 28 27  1  0  0  0  0
 29 28  1  0  0  0  0
 30 29  1  0  0  0  0
 31 29  2  0  0  0  0
M  END
>  <MODEL>
1

>  <REMARK>
 VINA RESULT:      -6.6      0.000      0.000
  Name = 
  9 active torsions:
  status: ('A' for Active; 'I' for Inactive)
    1  A    between atoms: C_1  and  C_17
    2  A    between atoms: C_1  and  C_19
    3  A    between atoms: C_1  and  N_24
    4  A    between atoms: C_3  and  C_16
    5  A    between atoms: C_5  and  O_9
    6  A    between atoms: O_9  and  C_17
    7  A    between atoms: C_14  and  C_16
    8  A    between atoms: C_19  and  C_30
    9  A    between atoms: N_28  and  C_30
                            x       y       z     vdW  Elec       q    Type
                         _______ _______ _______ _____ _____    ______ ____

>  <TORSDO>
F 9

$$$$
=
 OpenBabel11062420583D

 31 34  0  0  1  0  0  0  0  0999 V2000
  194.0680  176.0160  144.7200 C   0  0  2  0  0  3  0  0  0  0  0  0
  188.6900  176.7050  147.2070 O   0  0  0  0  0  0  0  0  0  0  0  0
  191.6630  176.9270  144.4990 C   0  0  2  0  0  3  0  0  0  0  0  0
  191.9110  176.2090  145.7890 C   0  0  0  0  0  0  0  0  0  0  0  0
  193.2610  175.6070  145.9420 C   0  0  0  0  0  2  0  0  0  0  0  0
  191.1640  175.4240  148.0190 C   0  0  0  0  0  1  0  0  0  0  0  0
  189.6020  176.6020  146.3430 C   0  0  0  0  0  0  0  0  0  0  0  0
  190.9360  176.0950  146.7030 C   0  0  0  0  0  0  0  0  0  0  0  0
  190.3220  176.6250  143.9920 N   0  0  0  0  0  2  0  0  0  0  0  0
  189.3780  176.9880  144.9760 N   0  0  0  0  0  0  0  0  0  0  0  0
  192.9240  176.3410  143.3390 S   0  0  0  0  0  0  0  0  0  0  0  0
  195.0470  174.9200  144.3310 C   0  0  0  0  0  2  0  0  0  0  0  0
  197.1140  171.7210  145.0550 O   0  0  0  0  0  0  0  0  0  0  0  0
  193.4390  172.1220  144.6760 C   0  0  0  0  0  2  0  0  0  0  0  0
  196.6190  173.8850  145.9960 C   0  0  0  0  0  2  0  0  0  0  0  0
  194.1340  171.7390  145.8460 O   0  0  0  0  0  0  0  0  0  0  0  0
  195.1870  173.8860  145.4430 C   0  0  2  0  0  3  0  0  0  0  0  0
  195.9600  171.6880  144.2490 C   0  0  0  0  0  2  0  0  0  0  0  0
  197.5530  173.0600  145.1000 C   0  0  0  0  0  2  0  0  0  0  0  0
  194.8470  172.4990  144.9050 C   0  0  2  0  0  0  0  0  0  0  0  0
  188.2300  177.7950  144.5910 C   0  0  0  0  0  2  0  0  0  0  0  0
  187.4930  177.1380  143.4370 C   0  0  0  0  0  2  0  0  0  0  0  0
  186.2080  177.8940  143.1320 C   0  0  2  0  0  3  0  0  0  0  0  0
  185.5990  177.8830  140.6080 S   0  0  0  0  0  1  0  0  0  0  0  0
  186.4090  178.7080  141.9430 N   0  0  0  0  0  2  0  0  0  0  0  0
  185.5450  180.0810  143.8450 O   0  0  0  0  0  1  0  0  0  0  0  0
  185.8180  178.7920  144.3060 C   0  0  1  0  0  3  0  0  0  0  0  0
  184.6680  178.2730  144.9620 O   0  0  0  0  0  0  0  0  0  0  0  0
  184.7360  177.7140  146.2380 C   0  0  0  0  0  0  0  0  0  0  0  0
  185.1380  176.5290  146.3780 O   0  0  0  0  0  0  0  0  0  0  0  0
  184.3690  178.4510  147.3570 O   0  0  0  0  0  1  0  0  0  0  0  0
  1 12  1  6  0  0  0
  1  5  1  0  0  0  0
  3 11  1  6  0  0  0
  3  4  1  0  0  0  0
  4  5  1  0  0  0  0
  4  8  2  0  0  0  0
  7  8  1  0  0  0  0
  7  2  2  0  0  0  0
  8  6  1  0  0  0  0
  9  3  1  0  0  0  0
  9 10  1  0  0  0  0
 10  7  1  0  0  0  0
 11  1  1  0  0  0  0
 13 19  1  0  0  0  0
 14 20  1  0  0  0  0
 14 16  1  0  0  0  0
 17 12  1  6  0  0  0
 17 15  1  0  0  0  0
 18 13  1  0  0  0  0
 19 15  1  0  0  0  0
 20 18  1  6  0  0  0
 20 17  1  0  0  0  0
 20 16  1  0  0  0  0
 21 10  1  0  0  0  0
 22 21  1  0  0  0  0
 23 22  1  1  0  0  0
 23 27  1  0  0  0  0
 24 25  1  0  0  0  0
 25 23  1  0  0  0  0
 27 26  1  6  0  0  0
 27 28  1  0  0  0  0
 28 29  1  0  0  0  0
 29 30  2  0  0  0  0
 29 31  1  0  0  0  0
M  END
>  <MODEL>
2

>  <REMARK>
 VINA RESULT:      -6.6      2.070      2.897
  Name = 
  9 active torsions:
  status: ('A' for Active; 'I' for Inactive)
    1  A    between atoms: C_1  and  C_17
    2  A    between atoms: C_1  and  C_19
    3  A    between atoms: C_1  and  N_24
    4  A    between atoms: C_3  and  C_16
    5  A    between atoms: C_5  and  O_9
    6  A    between atoms: O_9  and  C_17
    7  A    between atoms: C_14  and  C_16
    8  A    between atoms: C_19  and  C_30
    9  A    between atoms: N_28  and  C_30
                            x       y       z     vdW  Elec       q    Type
                         _______ _______ _______ _____ _____    ______ ____

>  <TORSDO>
F 9

$$$$
=
 OpenBabel11062420583D

 31 34  0  0  1  0  0  0  0  0999 V2000
  188.5970  176.8940  144.3850 C   0  0  2  0  0  3  0  0  0  0  0  0
  193.9510  176.0630  146.8810 O   0  0  0  0  0  0  0  0  0  0  0  0
  191.1170  176.4530  144.0450 C   0  0  2  0  0  3  0  0  0  0  0  0
  190.7300  176.6110  145.4830 C   0  0  0  0  0  0  0  0  0  0  0  0
  189.3000  176.9320  145.7330 C   0  0  0  0  0  2  0  0  0  0  0  0
  191.2900  176.6200  147.8980 C   0  0  0  0  0  1  0  0  0  0  0  0
  193.0560  176.3530  146.0410 C   0  0  0  0  0  0  0  0  0  0  0  0
  191.6520  176.5120  146.4520 C   0  0  0  0  0  0  0  0  0  0  0  0
  192.4100  177.0940  143.7870 N   0  0  0  0  0  2  0  0  0  0  0  0
  193.3720  176.5260  144.6490 N   0  0  0  0  0  0  0  0  0  0  0  0
  189.8130  177.2500  143.0750 S   0  0  0  0  0  0  0  0  0  0  0  0
  187.4730  177.9160  144.3360 C   0  0  0  0  0  2  0  0  0  0  0  0
  183.7620  178.9830  144.6870 O   0  0  0  0  0  0  0  0  0  0  0  0
  185.9680  177.2700  147.1380 C   0  0  0  0  0  2  0  0  0  0  0  0
  185.1840  177.5580  143.3620 C   0  0  0  0  0  2  0  0  0  0  0  0
  184.8120  176.7390  146.5230 O   0  0  0  0  0  0  0  0  0  0  0  0
  186.1150  177.2540  144.5440 C   0  0  2  0  0  3  0  0  0  0  0  0
  184.6540  179.0420  145.7760 C   0  0  0  0  0  2  0  0  0  0  0  0
  184.5400  178.9430  143.5130 C   0  0  0  0  0  2  0  0  0  0  0  0
  185.4830  177.7630  145.8360 C   0  0  2  0  0  0  0  0  0  0  0  0
  194.6390  176.0750  144.0940 C   0  0  0  0  0  2  0  0  0  0  0  0
  194.4960  174.6660  143.5430 C   0  0  0  0  0  2  0  0  0  0  0  0
  195.0010  173.6480  144.5560 C   0  0  2  0  0  3  0  0  0  0  0  0
  197.5540  173.7990  144.9970 S   0  0  0  0  0  1  0  0  0  0  0  0
  196.2430  173.0700  144.0670 N   0  0  0  0  0  2  0  0  0  0  0  0
  194.4130  171.6650  145.7620 O   0  0  0  0  0  1  0  0  0  0  0  0
  193.9690  172.5410  144.7680 C   0  0  1  0  0  3  0  0  0  0  0  0
  192.7200  173.0990  145.1550 O   0  0  0  0  0  0  0  0  0  0  0  0
  191.5140  172.6620  144.6070 C   0  0  0  0  0  0  0  0  0  0  0  0
  191.5200  171.7490  143.7400 O   0  0  0  0  0  0  0  0  0  0  0  0
  190.3070  173.2190  145.0100 O   0  0  0  0  0  1  0  0  0  0  0  0
  1 12  1  1  0  0  0
  1  5  1  0  0  0  0
  3 11  1  6  0  0  0
  3  4  1  0  0  0  0
  4  5  1  0  0  0  0
  4  8  2  0  0  0  0
  7  8  1  0  0  0  0
  7  2  2  0  0  0  0
  8  6  1  0  0  0  0
  9  3  1  0  0  0  0
  9 10  1  0  0  0  0
 10  7  1  0  0  0  0
 11  1  1  0  0  0  0
 13 18  1  0  0  0  0
 15 19  1  0  0  0  0
 15 17  1  0  0  0  0
 16 14  1  0  0  0  0
 17 12  1  6  0  0  0
 17 20  1  0  0  0  0
 19 13  1  0  0  0  0
 20 18  1  6  0  0  0
 20 16  1  0  0  0  0
 20 14  1  0  0  0  0
 21 10  1  0  0  0  0
 22 21  1  0  0  0  0
 23 22  1  6  0  0  0
 23 27  1  0  0  0  0
 25 23  1  0  0  0  0
 25 24  1  0  0  0  0
 27 28  1  0  0  0  0
 27 26  1  1  0  0  0
 29 31  1  0  0  0  0
 29 28  1  0  0  0  0
 30 29  2  0  0  0  0
M  END
>  <MODEL>
3

>  <REMARK>
 VINA RESULT:      -6.5      2.948      8.993
  Name = 
  9 active torsions:
  status: ('A' for Active; 'I' for Inactive)
    1  A    between atoms: C_1  and  C_17
    2  A    between atoms: C_1  and  C_19
    3  A    between atoms: C_1  and  N_24
    4  A    between atoms: C_3  and  C_16
    5  A    between atoms: C_5  and  O_9
    6  A    between atoms: O_9  and  C_17
    7  A    between atoms: C_14  and  C_16
    8  A    between atoms: C_19  and  C_30
    9  A    between atoms: N_28  and  C_30
                            x       y       z     vdW  Elec       q    Type
                         _______ _______ _______ _____ _____    ______ ____

>  <TORSDO>
F 9

$$$$
=
 OpenBabel11062420583D

 31 34  0  0  1  0  0  0  0  0999 V2000
  188.2300  177.1940  146.0880 C   0  0  2  0  0  3  0  0  0  0  0  0
  193.8760  176.5190  144.2830 O   0  0  0  0  0  0  0  0  0  0  0  0
  190.4570  175.9110  146.3240 C   0  0  2  0  0  3  0  0  0  0  0  0
  190.4890  176.9660  145.2630 C   0  0  0  0  0  0  0  0  0  0  0  0
  189.2120  177.6930  145.0390 C   0  0  0  0  0  2  0  0  0  0  0  0
  191.6810  178.2550  143.5120 C   0  0  0  0  0  1  0  0  0  0  0  0
  192.7390  176.2720  144.7710 C   0  0  0  0  0  0  0  0  0  0  0  0
  191.6020  177.1790  144.5470 C   0  0  0  0  0  0  0  0  0  0  0  0
  191.1930  174.7200  145.8880 N   0  0  0  0  0  2  0  0  0  0  0  0
  192.5150  175.1000  145.5750 N   0  0  0  0  0  0  0  0  0  0  0  0
  188.7110  175.5100  146.5930 S   0  0  0  0  0  0  0  0  0  0  0  0
  186.8140  177.1800  145.5350 C   0  0  0  0  0  2  0  0  0  0  0  0
  183.7050  178.9710  144.0650 O   0  0  0  0  0  0  0  0  0  0  0  0
  186.7670  177.7610  142.3420 C   0  0  0  0  0  2  0  0  0  0  0  0
  185.4910  179.3150  145.6470 C   0  0  0  0  0  2  0  0  0  0  0  0
  186.3460  179.1030  142.4800 O   0  0  0  0  0  0  0  0  0  0  0  0
  186.4880  178.4880  144.8220 C   0  0  2  0  0  3  0  0  0  0  0  0
  184.3860  177.9670  143.3500 C   0  0  0  0  0  2  0  0  0  0  0  0
  184.0540  178.8260  145.4230 C   0  0  0  0  0  2  0  0  0  0  0  0
  185.8920  178.1930  143.4480 C   0  0  2  0  0  0  0  0  0  0  0  0
  193.6200  174.3300  146.1230 C   0  0  0  0  0  2  0  0  0  0  0  0
  193.8910  173.1130  145.2550 C   0  0  0  0  0  2  0  0  0  0  0  0
  195.3860  172.9470  145.0280 C   0  0  2  0  0  3  0  0  0  0  0  0
  194.4910  170.5590  145.5130 S   0  0  0  0  0  1  0  0  0  0  0  0
  195.8250  171.7080  145.6510 N   0  0  0  0  0  2  0  0  0  0  0  0
  197.0650  173.6550  146.5810 O   0  0  0  0  0  1  0  0  0  0  0  0
  196.1570  174.1230  145.6290 C   0  0  1  0  0  3  0  0  0  0  0  0
  196.8600  174.8220  144.6100 O   0  0  0  0  0  0  0  0  0  0  0  0
  196.8910  174.3710  143.2910 C   0  0  0  0  0  0  0  0  0  0  0  0
  196.0350  174.7930  142.4690 O   0  0  0  0  0  0  0  0  0  0  0  0
  197.8550  173.4620  142.8720 O   0  0  0  0  0  1  0  0  0  0  0  0
  1 12  1  6  0  0  0
  1 11  1  0  0  0  0
  2  7  2  0  0  0  0
  3  4  1  6  0  0  0
  3 11  1  0  0  0  0
  5  4  1  0  0  0  0
  5  1  1  0  0  0  0
  6  8  1  0  0  0  0
  7 10  1  0  0  0  0
  8  7  1  0  0  0  0
  8  4  2  0  0  0  0
  9  3  1  0  0  0  0
 10  9  1  0  0  0  0
 10 21  1  0  0  0  0
 13 19  1  0  0  0  0
 14 16  1  0  0  0  0
 16 20  1  0  0  0  0
 17 12  1  1  0  0  0
 17 15  1  0  0  0  0
 18 20  1  0  0  0  0
 18 13  1  0  0  0  0
 19 15  1  0  0  0  0
 20 14  1  6  0  0  0
 20 17  1  0  0  0  0
 22 21  1  0  0  0  0
 23 22  1  1  0  0  0
 23 27  1  0  0  0  0
 23 25  1  0  0  0  0
 24 25  1  0  0  0  0
 27 26  1  1  0  0  0
 28 27  1  0  0  0  0
 29 28  1  0  0  0  0
 30 29  2  0  0  0  0
 31 29  1  0  0  0  0
M  END
>  <MODEL>
4

>  <REMARK>
 VINA RESULT:      -6.5      2.449      9.539
  Name = 
  9 active torsions:
  status: ('A' for Active; 'I' for Inactive)
    1  A    between atoms: C_1  and  C_17
    2  A    between atoms: C_1  and  C_19
    3  A    between atoms: C_1  and  N_24
    4  A    between atoms: C_3  and  C_16
    5  A    between atoms: C_5  and  O_9
    6  A    between atoms: O_9  and  C_17
    7  A    between atoms: C_14  and  C_16
    8  A    between atoms: C_19  and  C_30
    9  A    between atoms: N_28  and  C_30
                            x       y       z     vdW  Elec       q    Type
                         _______ _______ _______ _____ _____    ______ ____

>  <TORSDO>
F 9

$$$$
=
 OpenBabel11062420583D

 31 34  0  0  1  0  0  0  0  0999 V2000
  188.7820  176.8480  144.4440 C   0  0  2  0  0  3  0  0  0  0  0  0
  194.1790  175.9710  146.8310 O   0  0  0  0  0  0  0  0  0  0  0  0
  191.3110  176.5040  144.0540 C   0  0  2  0  0  3  0  0  0  0  0  0
  190.9320  176.5390  145.5020 C   0  0  0  0  0  0  0  0  0  0  0  0
  189.4960  176.7990  145.7870 C   0  0  0  0  0  2  0  0  0  0  0  0
  191.5140  176.3740  147.9070 C   0  0  0  0  0  1  0  0  0  0  0  0
  193.2690  176.3010  146.0230 C   0  0  0  0  0  0  0  0  0  0  0  0
  191.8650  176.3900  146.4540 C   0  0  0  0  0  0  0  0  0  0  0  0
  192.5830  177.1990  143.8380 N   0  0  0  0  0  2  0  0  0  0  0  0
  193.5680  176.5910  144.6460 N   0  0  0  0  0  0  0  0  0  0  0  0
  189.9760  177.3390  143.1580 S   0  0  0  0  0  0  0  0  0  0  0  0
  187.6310  177.8400  144.4840 C   0  0  0  0  0  2  0  0  0  0  0  0
  183.8600  178.7240  144.3170 O   0  0  0  0  0  0  0  0  0  0  0  0
  185.8450  177.3700  147.1530 C   0  0  0  0  0  2  0  0  0  0  0  0
  185.4880  177.2650  143.3020 C   0  0  0  0  0  2  0  0  0  0  0  0
  184.7930  176.7210  146.4680 O   0  0  0  0  0  0  0  0  0  0  0  0
  186.2900  177.1230  144.6040 C   0  0  2  0  0  3  0  0  0  0  0  0
  184.6170  178.9330  145.4860 C   0  0  0  0  0  2  0  0  0  0  0  0
  184.7680  178.6190  143.2450 C   0  0  0  0  0  2  0  0  0  0  0  0
  185.4910  177.7130  145.7630 C   0  0  2  0  0  0  0  0  0  0  0  0
  194.8410  176.2200  144.0490 C   0  0  0  0  0  2  0  0  0  0  0  0
  194.8240  174.7540  143.6500 C   0  0  0  0  0  2  0  0  0  0  0  0
  196.1700  174.1090  143.9510 C   0  0  2  0  0  3  0  0  0  0  0  0
  197.8860  174.2520  142.0090 S   0  0  0  0  0  1  0  0  0  0  0  0
  196.5940  173.3390  142.7930 N   0  0  0  0  0  2  0  0  0  0  0  0
  196.7110  173.7760  146.2590 O   0  0  0  0  0  1  0  0  0  0  0  0
  196.0670  173.1890  145.1670 C   0  0  1  0  0  3  0  0  0  0  0  0
  194.7030  172.9550  145.4940 O   0  0  0  0  0  0  0  0  0  0  0  0
  194.1310  171.6860  145.4100 C   0  0  0  0  0  0  0  0  0  0  0  0
  193.1230  171.5060  144.6780 O   0  0  0  0  0  0  0  0  0  0  0  0
  194.6630  170.6170  146.1220 O   0  0  0  0  0  1  0  0  0  0  0  0
  1 12  1  1  0  0  0
  1  5  1  0  0  0  0
  3 11  1  6  0  0  0
  3  4  1  0  0  0  0
  4  5  1  0  0  0  0
  4  8  2  0  0  0  0
  7  8  1  0  0  0  0
  7  2  2  0  0  0  0
  8  6  1  0  0  0  0
  9  3  1  0  0  0  0
  9 10  1  0  0  0  0
 10  7  1  0  0  0  0
 11  1  1  0  0  0  0
 13 18  1  0  0  0  0
 15 17  1  0  0  0  0
 16 14  1  0  0  0  0
 17 12  1  6  0  0  0
 17 20  1  0  0  0  0
 19 15  1  0  0  0  0
 19 13  1  0  0  0  0
 20 18  1  6  0  0  0
 20 16  1  0  0  0  0
 20 14  1  0  0  0  0
 21 10  1  0  0  0  0
 22 21  1  0  0  0  0
 23 22  1  6  0  0  0
 23 27  1  0  0  0  0
 24 25  1  0  0  0  0
 25 23  1  0  0  0  0
 27 28  1  0  0  0  0
 27 26  1  1  0  0  0
 29 28  1  0  0  0  0
 29 31  1  0  0  0  0
 30 29  2  0  0  0  0
M  END
>  <MODEL>
5

>  <REMARK>
 VINA RESULT:      -6.4      2.733      9.525
  Name = 
  9 active torsions:
  status: ('A' for Active; 'I' for Inactive)
    1  A    between atoms: C_1  and  C_17
    2  A    between atoms: C_1  and  C_19
    3  A    between atoms: C_1  and  N_24
    4  A    between atoms: C_3  and  C_16
    5  A    between atoms: C_5  and  O_9
    6  A    between atoms: O_9  and  C_17
    7  A    between atoms: C_14  and  C_16
    8  A    between atoms: C_19  and  C_30
    9  A    between atoms: N_28  and  C_30
                            x       y       z     vdW  Elec       q    Type
                         _______ _______ _______ _____ _____    ______ ____

>  <TORSDO>
F 9

$$$$
=
 OpenBabel11062420583D

 31 34  0  0  1  0  0  0  0  0999 V2000
  194.2590  176.3680  145.0910 C   0  0  2  0  0  3  0  0  0  0  0  0
  188.6010  175.8040  146.8940 O   0  0  0  0  0  0  0  0  0  0  0  0
  191.7570  176.3820  144.4590 C   0  0  2  0  0  3  0  0  0  0  0  0
  192.0030  176.0810  145.9050 C   0  0  0  0  0  0  0  0  0  0  0  0
  193.4310  175.9960  146.3110 C   0  0  0  0  0  2  0  0  0  0  0  0
  191.1870  175.6000  148.1960 C   0  0  0  0  0  1  0  0  0  0  0  0
  189.6250  175.8160  146.1590 C   0  0  0  0  0  0  0  0  0  0  0  0
  190.9770  175.8580  146.7390 C   0  0  0  0  0  0  0  0  0  0  0  0
  190.6590  175.5600  143.9420 N   0  0  0  0  0  2  0  0  0  0  0  0
  189.5110  175.8030  144.7250 N   0  0  0  0  0  0  0  0  0  0  0  0
  193.2980  175.9980  143.5890 S   0  0  0  0  0  0  0  0  0  0  0  0
  195.5660  175.5910  145.0720 C   0  0  0  0  0  2  0  0  0  0  0  0
  197.5000  172.2530  144.6910 O   0  0  0  0  0  0  0  0  0  0  0  0
  196.6430  174.7910  142.1160 C   0  0  0  0  0  2  0  0  0  0  0  0
  195.3410  173.1020  145.3430 C   0  0  0  0  0  2  0  0  0  0  0  0
  196.1730  173.4610  142.1840 O   0  0  0  0  0  0  0  0  0  0  0  0
  195.4060  174.2630  144.3400 C   0  0  2  0  0  3  0  0  0  0  0  0
  197.8440  173.3950  143.9430 C   0  0  0  0  0  2  0  0  0  0  0  0
  196.7470  172.6910  145.7990 C   0  0  0  0  0  2  0  0  0  0  0  0
  196.5810  174.0510  143.3900 C   0  0  2  0  0  0  0  0  0  0  0  0
  188.2500  176.0910  144.0590 C   0  0  0  0  0  2  0  0  0  0  0  0
  188.1320  177.5810  143.7850 C   0  0  0  0  0  2  0  0  0  0  0  0
  186.7090  177.9320  143.3740 C   0  0  2  0  0  3  0  0  0  0  0  0
  186.9240  177.4790  140.8270 S   0  0  0  0  0  1  0  0  0  0  0  0
  186.7470  178.6680  142.1200 N   0  0  0  0  0  2  0  0  0  0  0  0
  185.6710  180.0210  143.9100 O   0  0  0  0  0  1  0  0  0  0  0  0
  186.0320  178.7830  144.4470 C   0  0  1  0  0  3  0  0  0  0  0  0
  184.8710  178.1250  144.9380 O   0  0  0  0  0  0  0  0  0  0  0  0
  184.7940  177.6360  146.2420 C   0  0  0  0  0  0  0  0  0  0  0  0
  184.1930  178.3050  147.1230 O   0  0  0  0  0  1  0  0  0  0  0  0
  185.3720  176.4180  146.5790 O   0  0  0  0  0  0  0  0  0  0  0  0
  1 12  1  6  0  0  0
  1  5  1  0  0  0  0
  3 11  1  6  0  0  0
  3  4  1  0  0  0  0
  4  5  1  0  0  0  0
  4  8  2  0  0  0  0
  7  8  1  0  0  0  0
  7  2  2  0  0  0  0
  8  6  1  0  0  0  0
  9  3  1  0  0  0  0
  9 10  1  0  0  0  0
 10  7  1  0  0  0  0
 11  1  1  0  0  0  0
 13 19  1  0  0  0  0
 14 16  1  0  0  0  0
 15 19  1  0  0  0  0
 16 20  1  0  0  0  0
 17 12  1  1  0  0  0
 17 15  1  0  0  0  0
 18 13  1  0  0  0  0
 20 14  1  6  0  0  0
 20 18  1  0  0  0  0
 20 17  1  0  0  0  0
 21 10  1  0  0  0  0
 22 21  1  0  0  0  0
 23 22  1  1  0  0  0
 23 27  1  0  0  0  0
 24 25  1  0  0  0  0
 25 23  1  0  0  0  0
 27 26  1  6  0  0  0
 27 28  1  0  0  0  0
 28 29  1  0  0  0  0
 29 31  2  0  0  0  0
 29 30  1  0  0  0  0
M  END
>  <MODEL>
6

>  <REMARK>
 VINA RESULT:      -6.4      1.783      2.430
  Name = 
  9 active torsions:
  status: ('A' for Active; 'I' for Inactive)
    1  A    between atoms: C_1  and  C_17
    2  A    between atoms: C_1  and  C_19
    3  A    between atoms: C_1  and  N_24
    4  A    between atoms: C_3  and  C_16
    5  A    between atoms: C_5  and  O_9
    6  A    between atoms: O_9  and  C_17
    7  A    between atoms: C_14  and  C_16
    8  A    between atoms: C_19  and  C_30
    9  A    between atoms: N_28  and  C_30
                            x       y       z     vdW  Elec       q    Type
                         _______ _______ _______ _____ _____    ______ ____

>  <TORSDO>
F 9

$$$$
=
 OpenBabel11062420583D

 31 34  0  0  1  0  0  0  0  0999 V2000
  188.3010  176.5820  144.7230 C   0  0  2  0  0  3  0  0  0  0  0  0
  191.7460  172.7050  141.7740 O   0  0  0  0  0  0  0  0  0  0  0  0
  190.3530  175.0180  144.7640 C   0  0  2  0  0  3  0  0  0  0  0  0
  189.6120  174.9910  143.4640 C   0  0  0  0  0  0  0  0  0  0  0  0
  188.3830  175.8250  143.4060 C   0  0  0  0  0  2  0  0  0  0  0  0
  189.3420  174.1990  141.1300 C   0  0  0  0  0  1  0  0  0  0  0  0
  191.1730  173.3210  142.7150 C   0  0  0  0  0  0  0  0  0  0  0  0
  190.0330  174.2140  142.4550 C   0  0  0  0  0  0  0  0  0  0  0  0
  190.8130  173.6720  145.1220 N   0  0  0  0  0  2  0  0  0  0  0  0
  191.6210  173.1820  144.0750 N   0  0  0  0  0  0  0  0  0  0  0  0
  189.1870  175.6360  146.0040 S   0  0  0  0  0  0  0  0  0  0  0  0
  186.8530  176.7820  145.1390 C   0  0  0  0  0  2  0  0  0  0  0  0
  183.7140  179.0010  145.6450 O   0  0  0  0  0  0  0  0  0  0  0  0
  186.1130  178.9170  142.8090 C   0  0  0  0  0  2  0  0  0  0  0  0
  185.8540  178.5260  146.6480 C   0  0  0  0  0  2  0  0  0  0  0  0
  185.8980  179.9880  143.7050 O   0  0  0  0  0  0  0  0  0  0  0  0
  186.5210  178.2620  145.2910 C   0  0  2  0  0  3  0  0  0  0  0  0
  184.0830  178.5220  144.3730 C   0  0  0  0  0  2  0  0  0  0  0  0
  184.3580  178.1880  146.6000 C   0  0  0  0  0  2  0  0  0  0  0  0
  185.5850  178.7000  144.1680 C   0  0  2  0  0  0  0  0  0  0  0  0
  192.9160  172.6010  144.3940 C   0  0  0  0  0  2  0  0  0  0  0  0
  193.5300  173.3150  145.5860 C   0  0  0  0  0  2  0  0  0  0  0  0
  194.5600  174.3330  145.1190 C   0  0  2  0  0  3  0  0  0  0  0  0
  197.1340  174.1660  144.8280 S   0  0  0  0  0  1  0  0  0  0  0  0
  195.7580  174.2010  145.9330 N   0  0  0  0  0  2  0  0  0  0  0  0
  194.6430  176.4140  146.3000 O   0  0  0  0  0  1  0  0  0  0  0  0
  194.0100  175.7530  145.2440 C   0  0  1  0  0  3  0  0  0  0  0  0
  194.2290  176.4740  144.0380 O   0  0  0  0  0  0  0  0  0  0  0  0
  193.5710  176.1470  142.8530 C   0  0  0  0  0  0  0  0  0  0  0  0
  192.4940  176.7290  142.5590 O   0  0  0  0  0  1  0  0  0  0  0  0
  194.0910  175.1880  141.9920 O   0  0  0  0  0  0  0  0  0  0  0  0
  1 12  1  1  0  0  0
  1 11  1  0  0  0  0
  2  7  2  0  0  0  0
  3  4  1  6  0  0  0
  3  9  1  0  0  0  0
  3 11  1  0  0  0  0
  5  4  1  0  0  0  0
  5  1  1  0  0  0  0
  6  8  1  0  0  0  0
  7 10  1  0  0  0  0
  8  7  1  0  0  0  0
  8  4  2  0  0  0  0
 10 21  1  0  0  0  0
 10  9  1  0  0  0  0
 13 19  1  0  0  0  0
 14 16  1  0  0  0  0
 16 20  1  0  0  0  0
 17 12  1  6  0  0  0
 17 15  1  0  0  0  0
 18 13  1  0  0  0  0
 19 15  1  0  0  0  0
 20 14  1  6  0  0  0
 20 18  1  0  0  0  0
 20 17  1  0  0  0  0
 21 22  1  0  0  0  0
 23 27  1  0  0  0  0
 23 22  1  1  0  0  0
 23 25  1  0  0  0  0
 24 25  1  0  0  0  0
 27 26  1  1  0  0  0
 28 27  1  0  0  0  0
 29 28  1  0  0  0  0
 30 29  1  0  0  0  0
 31 29  2  0  0  0  0
M  END
>  <MODEL>
7

>  <REMARK>
 VINA RESULT:      -6.4      2.961      8.925
  Name = 
  9 active torsions:
  status: ('A' for Active; 'I' for Inactive)
    1  A    between atoms: C_1  and  C_17
    2  A    between atoms: C_1  and  C_19
    3  A    between atoms: C_1  and  N_24
    4  A    between atoms: C_3  and  C_16
    5  A    between atoms: C_5  and  O_9
    6  A    between atoms: O_9  and  C_17
    7  A    between atoms: C_14  and  C_16
    8  A    between atoms: C_19  and  C_30
    9  A    between atoms: N_28  and  C_30
                            x       y       z     vdW  Elec       q    Type
                         _______ _______ _______ _____ _____    ______ ____

>  <TORSDO>
F 9

$$$$
=
 OpenBabel11062420583D

 31 34  0  0  1  0  0  0  0  0999 V2000
  188.2450  176.7960  144.4010 C   0  0  2  0  0  3  0  0  0  0  0  0
  191.4060  172.8500  141.2350 O   0  0  0  0  0  0  0  0  0  0  0  0
  190.4480  175.4780  144.1330 C   0  0  2  0  0  3  0  0  0  0  0  0
  189.4320  175.1580  143.0810 C   0  0  0  0  0  0  0  0  0  0  0  0
  188.1190  175.8410  143.2240 C   0  0  0  0  0  2  0  0  0  0  0  0
  188.7330  173.9620  141.0250 C   0  0  0  0  0  1  0  0  0  0  0  0
  190.9910  173.5530  142.1960 C   0  0  0  0  0  0  0  0  0  0  0  0
  189.7080  174.2690  142.1160 C   0  0  0  0  0  0  0  0  0  0  0  0
  191.1630  174.2660  144.5440 N   0  0  0  0  0  2  0  0  0  0  0  0
  191.7620  173.6910  143.4030 N   0  0  0  0  0  0  0  0  0  0  0  0
  189.5320  176.1740  145.5320 S   0  0  0  0  0  0  0  0  0  0  0  0
  186.9230  176.9140  145.1410 C   0  0  0  0  0  2  0  0  0  0  0  0
  183.7360  178.9890  145.8970 O   0  0  0  0  0  0  0  0  0  0  0  0
  185.9790  179.1010  142.9360 C   0  0  0  0  0  2  0  0  0  0  0  0
  185.9430  178.5630  146.7660 C   0  0  0  0  0  2  0  0  0  0  0  0
  185.7720  180.1290  143.8820 O   0  0  0  0  0  0  0  0  0  0  0  0
  186.5450  178.3740  145.3660 C   0  0  2  0  0  3  0  0  0  0  0  0
  184.0520  178.5710  144.5900 C   0  0  0  0  0  2  0  0  0  0  0  0
  184.4600  178.1680  146.7840 C   0  0  0  0  0  2  0  0  0  0  0  0
  185.5330  178.8150  144.3120 C   0  0  2  0  0  0  0  0  0  0  0  0
  193.1640  173.3070  143.4590 C   0  0  0  0  0  2  0  0  0  0  0  0
  194.0370  174.4380  142.9430 C   0  0  0  0  0  2  0  0  0  0  0  0
  195.3470  174.4890  143.7170 C   0  0  2  0  0  3  0  0  0  0  0  0
  196.7280  173.6910  145.7650 S   0  0  0  0  0  1  0  0  0  0  0  0
  195.3770  173.3890  144.6680 N   0  0  0  0  0  2  0  0  0  0  0  0
  196.0890  176.7630  143.6360 O   0  0  0  0  0  1  0  0  0  0  0  0
  195.4810  175.8160  144.4630 C   0  0  1  0  0  3  0  0  0  0  0  0
  194.2010  176.2890  144.8600 O   0  0  0  0  0  0  0  0  0  0  0  0
  193.9120  176.6150  146.1850 C   0  0  0  0  0  0  0  0  0  0  0  0
  194.5560  177.5360  146.7540 O   0  0  0  0  0  0  0  0  0  0  0  0
  192.9210  175.9360  146.8850 O   0  0  0  0  0  1  0  0  0  0  0  0
  1 12  1  1  0  0  0
  1 11  1  0  0  0  0
  2  7  2  0  0  0  0
  3  4  1  6  0  0  0
  3  9  1  0  0  0  0
  3 11  1  0  0  0  0
  4  5  1  0  0  0  0
  5  1  1  0  0  0  0
  6  8  1  0  0  0  0
  7 10  1  0  0  0  0
  8  7  1  0  0  0  0
  8  4  2  0  0  0  0
 10 21  1  0  0  0  0
 10  9  1  0  0  0  0
 13 19  1  0  0  0  0
 14 16  1  0  0  0  0
 15 19  1  0  0  0  0
 16 20  1  0  0  0  0
 17 12  1  6  0  0  0
 17 15  1  0  0  0  0
 18 13  1  0  0  0  0
 20 14  1  6  0  0  0
 20 18  1  0  0  0  0
 20 17  1  0  0  0  0
 22 21  1  0  0  0  0
 23 22  1  1  0  0  0
 23 27  1  0  0  0  0
 23 25  1  0  0  0  0
 25 24  1  0  0  0  0
 27 26  1  6  0  0  0
 27 28  1  0  0  0  0
 28 29  1  0  0  0  0
 29 30  2  0  0  0  0
 29 31  1  0  0  0  0
M  END
>  <MODEL>
8

>  <REMARK>
 VINA RESULT:      -6.4      2.999      9.217
  Name = 
  9 active torsions:
  status: ('A' for Active; 'I' for Inactive)
    1  A    between atoms: C_1  and  C_17
    2  A    between atoms: C_1  and  C_19
    3  A    between atoms: C_1  and  N_24
    4  A    between atoms: C_3  and  C_16
    5  A    between atoms: C_5  and  O_9
    6  A    between atoms: O_9  and  C_17
    7  A    between atoms: C_14  and  C_16
    8  A    between atoms: C_19  and  C_30
    9  A    between atoms: N_28  and  C_30
                            x       y       z     vdW  Elec       q    Type
                         _______ _______ _______ _____ _____    ______ ____

>  <TORSDO>
F 9

$$$$
=
 OpenBabel11062420583D

 31 34  0  0  1  0  0  0  0  0999 V2000
  188.6600  177.5300  143.3970 C   0  0  2  0  0  3  0  0  0  0  0  0
  190.6780  171.9180  143.2490 O   0  0  0  0  0  0  0  0  0  0  0  0
  190.5450  175.8730  144.0000 C   0  0  2  0  0  3  0  0  0  0  0  0
  189.3750  175.2240  143.3290 C   0  0  0  0  0  0  0  0  0  0  0  0
  188.2310  176.1210  143.0180 C   0  0  0  0  0  2  0  0  0  0  0  0
  188.2420  173.2340  142.3770 C   0  0  0  0  0  1  0  0  0  0  0  0
  190.5080  173.1190  143.5970 C   0  0  0  0  0  0  0  0  0  0  0  0
  189.3740  173.9050  143.0860 C   0  0  0  0  0  0  0  0  0  0  0  0
  191.0720  175.0110  145.0620 N   0  0  0  0  0  2  0  0  0  0  0  0
  191.4240  173.7680  144.4960 N   0  0  0  0  0  0  0  0  0  0  0  0
  189.9350  177.4300  144.6960 S   0  0  0  0  0  0  0  0  0  0  0  0
  187.4730  178.3360  143.9010 C   0  0  0  0  0  2  0  0  0  0  0  0
  183.8670  178.6790  145.2840 O   0  0  0  0  0  0  0  0  0  0  0  0
  186.8550  177.1160  146.8450 C   0  0  0  0  0  2  0  0  0  0  0  0
  185.0860  177.6900  143.4540 C   0  0  0  0  0  2  0  0  0  0  0  0
  185.6680  176.4620  146.4460 O   0  0  0  0  0  0  0  0  0  0  0  0
  186.3250  177.4230  144.3190 C   0  0  2  0  0  3  0  0  0  0  0  0
  184.9930  178.7710  146.1250 C   0  0  0  0  0  2  0  0  0  0  0  0
  184.3110  178.9120  143.9670 C   0  0  0  0  0  2  0  0  0  0  0  0
  185.9840  177.6610  145.7870 C   0  0  2  0  0  0  0  0  0  0  0  0
  192.7310  173.2010  144.7920 C   0  0  0  0  0  2  0  0  0  0  0  0
  193.4760  174.0890  145.7740 C   0  0  0  0  0  2  0  0  0  0  0  0
  194.7050  174.6960  145.1110 C   0  0  2  0  0  3  0  0  0  0  0  0
  196.7810  173.2360  145.6550 S   0  0  0  0  0  1  0  0  0  0  0  0
  195.8150  174.6600  146.0500 N   0  0  0  0  0  2  0  0  0  0  0  0
  193.8800  176.8460  145.7640 O   0  0  0  0  0  1  0  0  0  0  0  0
  194.4350  176.1410  144.6930 C   0  0  1  0  0  3  0  0  0  0  0  0
  195.6440  176.7710  144.2900 O   0  0  0  0  0  0  0  0  0  0  0  0
  196.2980  176.4260  143.1080 C   0  0  0  0  0  0  0  0  0  0  0  0
  195.7190  176.6020  142.0030 O   0  0  0  0  0  0  0  0  0  0  0  0
  197.5810  175.8920  143.1340 O   0  0  0  0  0  1  0  0  0  0  0  0
  1 12  1  1  0  0  0
  1 11  1  0  0  0  0
  2  7  2  0  0  0  0
  3  4  1  1  0  0  0
  3 11  1  0  0  0  0
  3  9  1  0  0  0  0
  5  4  1  0  0  0  0
  5  1  1  0  0  0  0
  6  8  1  0  0  0  0
  7 10  1  0  0  0  0
  8  4  2  0  0  0  0
  8  7  1  0  0  0  0
 10 21  1  0  0  0  0
 10  9  1  0  0  0  0
 13 18  1  0  0  0  0
 15 19  1  0  0  0  0
 15 17  1  0  0  0  0
 16 14  1  0  0  0  0
 17 12  1  6  0  0  0
 17 20  1  0  0  0  0
 19 13  1  0  0  0  0
 20 18  1  1  0  0  0
 20 16  1  0  0  0  0
 20 14  1  0  0  0  0
 21 22  1  0  0  0  0
 23 22  1  1  0  0  0
 23 25  1  0  0  0  0
 24 25  1  0  0  0  0
 27 23  1  0  0  0  0
 27 26  1  1  0  0  0
 28 27  1  0  0  0  0
 29 31  1  0  0  0  0
 29 28  1  0  0  0  0
 30 29  2  0  0  0  0
M  END
>  <MODEL>
9

>  <REMARK>
 VINA RESULT:      -6.4      2.882      9.079
  Name = 
  9 active torsions:
  status: ('A' for Active; 'I' for Inactive)
    1  A    between atoms: C_1  and  C_17
    2  A    between atoms: C_1  and  C_19
    3  A    between atoms: C_1  and  N_24
    4  A    between atoms: C_3  and  C_16
    5  A    between atoms: C_5  and  O_9
    6  A    between atoms: O_9  and  C_17
    7  A    between atoms: C_14  and  C_16
    8  A    between atoms: C_19  and  C_30
    9  A    between atoms: N_28  and  C_30
                            x       y       z     vdW  Elec       q    Type
                         _______ _______ _______ _____ _____    ______ ____

>  <TORSDO>
F 9

$$$$
