=
 OpenBabel11072409293D

 40 42  0  0  1  0  0  0  0  0999 V2000
  188.7130  173.8490  141.1410 C   0  0  2  0  0  3  0  0  0  0  0  0
  188.4560  173.6710  139.6790 C   0  0  0  0  0  0  0  0  0  0  0  0
  188.4180  172.3610  139.1270 N   0  0  0  0  0  1  0  0  0  0  0  0
  188.2690  174.6690  138.9340 O   0  0  0  0  0  0  0  0  0  0  0  0
  187.4910  175.7690  141.8690 C   0  0  1  0  0  3  0  0  0  0  0  0
  188.7520  175.3310  141.5060 C   0  0  1  0  0  3  0  0  0  0  0  0
  188.4720  175.4960  142.9630 N   0  0  0  0  0  0  0  0  0  0  0  0
  189.5350  174.3480  144.8410 C   0  0  0  0  0  3  0  0  0  0  0  0
  188.4930  176.5050  145.1910 C   0  0  0  0  0  3  0  0  0  0  0  0
  189.5590  175.3630  147.0410 C   0  0  0  0  0  3  0  0  0  0  0  0
  189.8970  174.3040  146.1920 C   0  0  0  0  0  3  0  0  0  0  0  0
  188.8360  175.4510  144.3400 C   0  0  0  0  0  0  0  0  0  0  0  0
  188.8560  176.4620  146.5410 C   0  0  0  0  0  3  0  0  0  0  0  0
  187.3630  177.2460  141.6370 C   0  0  0  0  0  0  0  0  0  0  0  0
  188.3420  178.0040  141.8810 O   0  0  0  0  0  0  0  0  0  0  0  0
  185.1560  178.4740  141.9810 N   0  0  0  0  0  2  0  0  0  0  0  0
  185.8510  177.7570  139.8920 O   0  0  0  0  0  0  0  0  0  0  0  0
  186.0960  177.8110  141.1260 C   0  0  0  0  0  0  0  0  0  0  0  0
  184.9030  178.1530  143.3530 C   0  0  0  0  0  0  0  0  0  0  0  0
  185.2860  177.0590  143.8440 O   0  0  0  0  0  0  0  0  0  0  0  0
  184.0830  179.0790  144.1800 C   0  0  0  0  0  2  0  0  0  0  0  0
  184.7050  179.2820  145.4110 O   0  0  0  0  0  1  0  0  0  0  0  0
  189.9690  173.1980  141.4990 N   0  0  0  0  0  2  0  0  0  0  0  0
  192.0570  173.1530  140.1640 C   0  0  0  0  0  0  0  0  0  0  0  0
  191.0070  173.8610  140.8240 N   0  0  0  0  0  2  0  0  0  0  0  0
  192.0470  171.8930  140.1230 O   0  0  0  0  0  0  0  0  0  0  0  0
  193.2010  173.9260  139.5720 C   0  0  1  0  0  3  0  0  0  0  0  0
  192.8790  174.5460  138.3430 O   0  0  0  0  0  0  0  0  0  0  0  0
  194.0130  175.2110  137.8500 C   0  0  0  0  0  1  0  0  0  0  0  0
  193.8970  174.8530  140.5710 C   0  0  0  0  0  2  0  0  0  0  0  0
  195.0350  174.1210  141.2540 C   0  0  0  0  0  2  0  0  0  0  0  0
  195.1800  174.6020  142.5540 O   0  0  0  0  0  0  0  0  0  0  0  0
  193.9020  175.0350  142.9130 C   0  0  0  0  0  2  0  0  0  0  0  0
  193.0750  176.4170  146.1210 C   0  0  0  0  0  2  0  0  0  0  0  0
  195.0130  175.8090  144.8910 O   0  0  0  0  0  0  0  0  0  0  0  0
  194.4020  175.7080  146.1550 C   0  0  0  0  0  2  0  0  0  0  0  0
  194.0040  176.1300  143.9610 C   0  0  2  0  0  3  0  0  0  0  0  0
  192.6840  176.3010  144.6850 C   0  0  2  0  0  3  0  0  0  0  0  0
  191.4360  177.3550  142.9100 O   0  0  0  0  0  1  0  0  0  0  0  0
  191.9260  177.5350  144.2060 C   0  0  0  0  0  2  0  0  0  0  0  0
  1  2  1  6  0  0  0
  1 23  1  0  0  0  0
  3  2  1  0  0  0  0
  4  2  2  0  0  0  0
  5 14  1  6  0  0  0
  5  7  1  0  0  0  0
  6  1  1  1  0  0  0
  6  5  1  0  0  0  0
  6  7  1  0  0  0  0
  7 12  1  0  0  0  0
  8 11  1  0  0  0  0
  9 13  2  0  0  0  0
 11 10  2  0  0  0  0
 12  8  2  0  0  0  0
 12  9  1  0  0  0  0
 13 10  1  0  0  0  0
 14 15  2  0  0  0  0
 16 19  1  0  0  0  0
 17 18  2  0  0  0  0
 18 14  1  0  0  0  0
 18 16  1  0  0  0  0
 19 20  2  0  0  0  0
 19 21  1  0  0  0  0
 21 22  1  0  0  0  0
 24 25  1  0  0  0  0
 25 23  1  0  0  0  0
 26 24  2  0  0  0  0
 27 24  1  0  0  0  0
 27 30  1  1  0  0  0
 28 27  1  0  0  0  0
 29 28  1  0  0  0  0
 30 31  1  0  0  0  0
 31 32  1  0  0  0  0
 32 33  1  0  0  0  0
 34 36  1  0  0  0  0
 35 36  1  0  0  0  0
 37 33  1  6  0  0  0
 37 38  1  0  0  0  0
 37 35  1  0  0  0  0
 38 40  1  6  0  0  0
 38 34  1  0  0  0  0
 39 40  1  0  0  0  0
M  END
>  <MODEL>
1

>  <REMARK>
 VINA RESULT:      -6.0      0.000      0.000
  Name = 
  16 active torsions:
  status: ('A' for Active; 'I' for Inactive)
    1  A    between atoms: C_2  and  C_12
    2  A    between atoms: C_2  and  C_34
    3  A    between atoms: C_3  and  C_12
    4  A    between atoms: C_5  and  C_13
    5  A    between atoms: C_6  and  C_33
    6  A    between atoms: C_9  and  C_11
    7  A    between atoms: C_9  and  C_20
    8  A    between atoms: C_12  and  O_27
    9  A    between atoms: C_13  and  C_17
   10  A    between atoms: C_13  and  N_29
   11  A    between atoms: N_21  and  N_29
   12  A    between atoms: C_24  and  N_37
   13  A    between atoms: C_25  and  C_36
   14  A    between atoms: C_28  and  C_38
   15  A    between atoms: C_34  and  O_40
   16  A    between atoms: C_38  and  O_40
                            x       y       z     vdW  Elec       q    Type
                         _______ _______ _______ _____ _____    ______ ____

>  <TORSDO>
F 16

$$$$
=
 OpenBabel11072409293D

 40 42  0  0  1  0  0  0  0  0999 V2000
  190.9940  174.7630  146.1350 C   0  0  2  0  0  3  0  0  0  0  0  0
  190.3290  176.0620  146.4640 C   0  0  0  0  0  0  0  0  0  0  0  0
  190.7460  177.2510  145.8050 N   0  0  0  0  0  1  0  0  0  0  0  0
  189.4020  176.1100  147.3140 O   0  0  0  0  0  0  0  0  0  0  0  0
  193.3780  174.8630  146.2530 C   0  0  1  0  0  3  0  0  0  0  0  0
  192.3050  175.0010  145.3910 C   0  0  1  0  0  3  0  0  0  0  0  0
  193.0820  173.7280  145.3250 N   0  0  0  0  0  0  0  0  0  0  0  0
  194.2150  171.5680  145.4830 C   0  0  0  0  0  3  0  0  0  0  0  0
  192.7790  172.0310  143.5890 C   0  0  0  0  0  3  0  0  0  0  0  0
  193.8970  169.8910  143.7630 C   0  0  0  0  0  3  0  0  0  0  0  0
  194.4840  170.2960  144.9670 C   0  0  0  0  0  3  0  0  0  0  0  0
  193.3590  172.4350  144.7960 C   0  0  0  0  0  0  0  0  0  0  0  0
  193.0460  170.7590  143.0750 C   0  0  0  0  0  3  0  0  0  0  0  0
  194.5540  175.6520  145.7560 C   0  0  0  0  0  0  0  0  0  0  0  0
  194.4530  176.9020  145.6160 O   0  0  0  0  0  0  0  0  0  0  0  0
  196.4890  175.1500  144.1740 N   0  0  0  0  0  2  0  0  0  0  0  0
  196.3710  174.2400  146.3000 O   0  0  0  0  0  0  0  0  0  0  0  0
  195.8240  174.9680  145.4300 C   0  0  0  0  0  0  0  0  0  0  0  0
  195.8480  175.3810  142.9140 C   0  0  0  0  0  0  0  0  0  0  0  0
  194.6190  175.1530  142.7610 O   0  0  0  0  0  0  0  0  0  0  0  0
  196.6670  175.7940  141.7440 C   0  0  0  0  0  2  0  0  0  0  0  0
  196.1820  176.9970  141.2340 O   0  0  0  0  0  1  0  0  0  0  0  0
  190.0910  173.9410  145.3370 N   0  0  0  0  0  2  0  0  0  0  0  0
  189.4610  173.9500  142.9400 C   0  0  0  0  0  0  0  0  0  0  0  0
  189.8210  174.6290  144.1440 N   0  0  0  0  0  2  0  0  0  0  0  0
  189.3210  172.6960  142.9340 O   0  0  0  0  0  0  0  0  0  0  0  0
  189.3120  174.7390  141.6710 C   0  0  1  0  0  3  0  0  0  0  0  0
  189.6530  174.0040  140.5130 O   0  0  0  0  0  0  0  0  0  0  0  0
  188.5620  173.9990  139.6300 C   0  0  0  0  0  1  0  0  0  0  0  0
  187.9790  175.4820  141.5630 C   0  0  0  0  0  2  0  0  0  0  0  0
  188.1580  176.9330  141.9630 C   0  0  0  0  0  2  0  0  0  0  0  0
  187.5100  177.1620  143.1750 O   0  0  0  0  0  0  0  0  0  0  0  0
  186.2040  176.7160  142.9660 C   0  0  0  0  0  2  0  0  0  0  0  0
  185.5160  179.2830  145.3790 C   0  0  0  0  0  2  0  0  0  0  0  0
  184.9300  178.7390  143.1440 O   0  0  0  0  0  0  0  0  0  0  0  0
  185.3530  179.7940  143.9730 C   0  0  0  0  0  2  0  0  0  0  0  0
  185.2380  177.5340  143.8060 C   0  0  2  0  0  3  0  0  0  0  0  0
  185.8390  177.8420  145.1630 C   0  0  2  0  0  3  0  0  0  0  0  0
  186.1360  176.8310  147.3330 O   0  0  0  0  0  1  0  0  0  0  0  0
  185.2490  176.9620  146.2610 C   0  0  0  0  0  2  0  0  0  0  0  0
  1 23  1  6  0  0  0
  1  2  1  0  0  0  0
  2  4  2  0  0  0  0
  3  2  1  0  0  0  0
  5 14  1  6  0  0  0
  6  1  1  1  0  0  0
  6  5  1  0  0  0  0
  7  6  1  0  0  0  0
  7  5  1  0  0  0  0
  9 12  1  0  0  0  0
 10 11  2  0  0  0  0
 11  8  1  0  0  0  0
 12  7  1  0  0  0  0
 12  8  2  0  0  0  0
 13  9  2  0  0  0  0
 13 10  1  0  0  0  0
 15 14  2  0  0  0  0
 16 18  1  0  0  0  0
 18 14  1  0  0  0  0
 18 17  2  0  0  0  0
 19 16  1  0  0  0  0
 20 19  2  0  0  0  0
 21 19  1  0  0  0  0
 22 21  1  0  0  0  0
 24 25  1  0  0  0  0
 25 23  1  0  0  0  0
 26 24  2  0  0  0  0
 27 30  1  6  0  0  0
 27 24  1  0  0  0  0
 28 27  1  0  0  0  0
 29 28  1  0  0  0  0
 30 31  1  0  0  0  0
 31 32  1  0  0  0  0
 33 32  1  0  0  0  0
 35 37  1  0  0  0  0
 35 36  1  0  0  0  0
 36 34  1  0  0  0  0
 37 33  1  6  0  0  0
 37 38  1  0  0  0  0
 38 34  1  0  0  0  0
 38 40  1  1  0  0  0
 40 39  1  0  0  0  0
M  END
>  <MODEL>
2

>  <REMARK>
 VINA RESULT:      -5.8      2.900      8.011
  Name = 
  16 active torsions:
  status: ('A' for Active; 'I' for Inactive)
    1  A    between atoms: C_2  and  C_12
    2  A    between atoms: C_2  and  C_34
    3  A    between atoms: C_3  and  C_12
    4  A    between atoms: C_5  and  C_13
    5  A    between atoms: C_6  and  C_33
    6  A    between atoms: C_9  and  C_11
    7  A    between atoms: C_9  and  C_20
    8  A    between atoms: C_12  and  O_27
    9  A    between atoms: C_13  and  C_17
   10  A    between atoms: C_13  and  N_29
   11  A    between atoms: N_21  and  N_29
   12  A    between atoms: C_24  and  N_37
   13  A    between atoms: C_25  and  C_36
   14  A    between atoms: C_28  and  C_38
   15  A    between atoms: C_34  and  O_40
   16  A    between atoms: C_38  and  O_40
                            x       y       z     vdW  Elec       q    Type
                         _______ _______ _______ _____ _____    ______ ____

>  <TORSDO>
F 16

$$$$
=
 OpenBabel11072409293D

 40 42  0  0  1  0  0  0  0  0999 V2000
  190.4430  174.9190  145.7120 C   0  0  2  0  0  3  0  0  0  0  0  0
  190.0410  175.1600  147.1310 C   0  0  0  0  0  0  0  0  0  0  0  0
  188.9980  174.3840  147.7080 N   0  0  0  0  0  1  0  0  0  0  0  0
  190.6220  176.0380  147.8220 O   0  0  0  0  0  0  0  0  0  0  0  0
  189.2120  175.6960  143.8170 C   0  0  1  0  0  3  0  0  0  0  0  0
  190.0580  176.1060  144.8330 C   0  0  1  0  0  3  0  0  0  0  0  0
  188.6010  176.3940  144.9900 N   0  0  0  0  0  0  0  0  0  0  0  0
  187.6740  177.6690  146.8590 C   0  0  0  0  0  3  0  0  0  0  0  0
  186.1850  176.7040  145.2110 C   0  0  0  0  0  3  0  0  0  0  0  0
  185.2790  177.9780  147.0590 C   0  0  0  0  0  3  0  0  0  0  0  0
  186.5740  178.1950  147.5430 C   0  0  0  0  0  3  0  0  0  0  0  0
  187.4800  176.9260  145.6890 C   0  0  0  0  0  0  0  0  0  0  0  0
  185.0860  177.2320  145.8940 C   0  0  0  0  0  3  0  0  0  0  0  0
  189.3100  176.6290  142.6470 C   0  0  0  0  0  0  0  0  0  0  0  0
  190.2930  177.4160  142.5550 O   0  0  0  0  0  0  0  0  0  0  0  0
  187.8610  175.4310  140.9250 N   0  0  0  0  0  2  0  0  0  0  0  0
  187.6600  177.7010  141.3360 O   0  0  0  0  0  0  0  0  0  0  0  0
  188.2610  176.6280  141.6050 C   0  0  0  0  0  0  0  0  0  0  0  0
  188.7130  174.3250  140.6070 C   0  0  0  0  0  0  0  0  0  0  0  0
  189.9670  174.4420  140.6460 O   0  0  0  0  0  0  0  0  0  0  0  0
  188.1100  173.0550  140.1220 C   0  0  0  0  0  2  0  0  0  0  0  0
  188.1610  173.0150  138.7300 O   0  0  0  0  0  1  0  0  0  0  0  0
  189.8140  173.6950  145.2270 N   0  0  0  0  0  2  0  0  0  0  0  0
  190.3750  172.0760  143.4360 C   0  0  0  0  0  0  0  0  0  0  0  0
  190.7590  173.0000  144.4540 N   0  0  0  0  0  2  0  0  0  0  0  0
  189.1560  171.9000  143.1630 O   0  0  0  0  0  0  0  0  0  0  0  0
  191.4360  171.2750  142.7370 C   0  0  1  0  0  3  0  0  0  0  0  0
  190.9900  169.9990  142.3220 O   0  0  0  0  0  0  0  0  0  0  0  0
  191.0860  169.9070  140.9240 C   0  0  0  0  0  1  0  0  0  0  0  0
  192.1790  172.0550  141.6510 C   0  0  0  0  0  2  0  0  0  0  0  0
  193.3920  172.7450  142.2440 C   0  0  0  0  0  2  0  0  0  0  0  0
  193.5200  174.0150  141.6850 O   0  0  0  0  0  0  0  0  0  0  0  0
  192.8590  174.8620  142.5760 C   0  0  0  0  0  2  0  0  0  0  0  0
  195.9030  176.3100  143.8090 C   0  0  0  0  0  2  0  0  0  0  0  0
  194.6100  176.3120  141.8180 O   0  0  0  0  0  0  0  0  0  0  0  0
  195.9230  176.1860  142.3090 C   0  0  0  0  0  2  0  0  0  0  0  0
  193.7340  176.0630  142.8920 C   0  0  2  0  0  3  0  0  0  0  0  0
  194.5360  175.8220  144.1550 C   0  0  2  0  0  3  0  0  0  0  0  0
  194.7380  177.6830  145.6770 O   0  0  0  0  0  1  0  0  0  0  0  0
  193.9560  176.5720  145.3510 C   0  0  0  0  0  2  0  0  0  0  0  0
  1 23  1  6  0  0  0
  1  2  1  0  0  0  0
  2  3  1  0  0  0  0
  2  4  2  0  0  0  0
  5 14  1  6  0  0  0
  5  6  1  0  0  0  0
  5  7  1  0  0  0  0
  6  7  1  0  0  0  0
  6  1  1  1  0  0  0
  7 12  1  0  0  0  0
  8 11  1  0  0  0  0
  9 12  1  0  0  0  0
  9 13  2  0  0  0  0
 10 11  2  0  0  0  0
 12  8  2  0  0  0  0
 13 10  1  0  0  0  0
 15 14  2  0  0  0  0
 16 18  1  0  0  0  0
 17 18  2  0  0  0  0
 18 14  1  0  0  0  0
 19 20  2  0  0  0  0
 19 16  1  0  0  0  0
 21 19  1  0  0  0  0
 22 21  1  0  0  0  0
 24 25  1  0  0  0  0
 25 23  1  0  0  0  0
 26 24  2  0  0  0  0
 27 30  1  6  0  0  0
 27 24  1  0  0  0  0
 28 27  1  0  0  0  0
 29 28  1  0  0  0  0
 30 31  1  0  0  0  0
 32 31  1  0  0  0  0
 32 33  1  0  0  0  0
 34 38  1  0  0  0  0
 35 36  1  0  0  0  0
 35 37  1  0  0  0  0
 36 34  1  0  0  0  0
 37 33  1  6  0  0  0
 37 38  1  0  0  0  0
 38 40  1  1  0  0  0
 40 39  1  0  0  0  0
M  END
>  <MODEL>
3

>  <REMARK>
 VINA RESULT:      -5.7      2.397      4.777
  Name = 
  16 active torsions:
  status: ('A' for Active; 'I' for Inactive)
    1  A    between atoms: C_2  and  C_12
    2  A    between atoms: C_2  and  C_34
    3  A    between atoms: C_3  and  C_12
    4  A    between atoms: C_5  and  C_13
    5  A    between atoms: C_6  and  C_33
    6  A    between atoms: C_9  and  C_11
    7  A    between atoms: C_9  and  C_20
    8  A    between atoms: C_12  and  O_27
    9  A    between atoms: C_13  and  C_17
   10  A    between atoms: C_13  and  N_29
   11  A    between atoms: N_21  and  N_29
   12  A    between atoms: C_24  and  N_37
   13  A    between atoms: C_25  and  C_36
   14  A    between atoms: C_28  and  C_38
   15  A    between atoms: C_34  and  O_40
   16  A    between atoms: C_38  and  O_40
                            x       y       z     vdW  Elec       q    Type
                         _______ _______ _______ _____ _____    ______ ____

>  <TORSDO>
F 16

$$$$
=
 OpenBabel11072409293D

 40 42  0  0  1  0  0  0  0  0999 V2000
  189.0910  175.4650  143.1140 C   0  0  2  0  0  3  0  0  0  0  0  0
  187.7820  175.7150  142.4360 C   0  0  0  0  0  0  0  0  0  0  0  0
  187.6430  176.8330  141.5680 N   0  0  0  0  0  1  0  0  0  0  0  0
  186.8060  174.9420  142.6220 O   0  0  0  0  0  0  0  0  0  0  0  0
  189.6080  176.3570  145.2690 C   0  0  1  0  0  3  0  0  0  0  0  0
  188.9040  175.3550  144.6250 C   0  0  1  0  0  3  0  0  0  0  0  0
  188.1300  176.5310  145.1210 N   0  0  0  0  0  0  0  0  0  0  0  0
  185.9450  176.7750  146.1910 C   0  0  0  0  0  3  0  0  0  0  0  0
  186.7230  178.4760  144.6520 C   0  0  0  0  0  3  0  0  0  0  0  0
  184.5660  178.7130  145.7270 C   0  0  0  0  0  3  0  0  0  0  0  0
  184.7650  177.4990  146.3930 C   0  0  0  0  0  3  0  0  0  0  0  0
  186.9260  177.2660  145.3230 C   0  0  0  0  0  0  0  0  0  0  0  0
  185.5440  179.2000  144.8560 C   0  0  0  0  0  3  0  0  0  0  0  0
  189.9470  175.9400  146.6700 C   0  0  0  0  0  0  0  0  0  0  0  0
  189.3400  174.9670  147.1970 O   0  0  0  0  0  0  0  0  0  0  0  0
  192.3790  176.5730  147.0990 N   0  0  0  0  0  2  0  0  0  0  0  0
  190.6430  177.4290  148.3690 O   0  0  0  0  0  0  0  0  0  0  0  0
  190.9870  176.6650  147.4310 C   0  0  0  0  0  0  0  0  0  0  0  0
  193.0360  175.4200  146.5610 C   0  0  0  0  0  0  0  0  0  0  0  0
  192.4920  174.2850  146.6050 O   0  0  0  0  0  0  0  0  0  0  0  0
  194.4230  175.5480  146.0400 C   0  0  0  0  0  2  0  0  0  0  0  0
  194.7930  176.8920  146.0180 O   0  0  0  0  0  1  0  0  0  0  0  0
  190.0230  176.5400  142.7890 N   0  0  0  0  0  2  0  0  0  0  0  0
  192.4960  176.3880  142.7370 C   0  0  0  0  0  0  0  0  0  0  0  0
  191.2050  175.9560  142.3060 N   0  0  0  0  0  2  0  0  0  0  0  0
  192.6060  177.2840  143.6170 O   0  0  0  0  0  0  0  0  0  0  0  0
  193.7180  175.8060  142.0850 C   0  0  1  0  0  3  0  0  0  0  0  0
  194.9270  176.2510  142.6660 O   0  0  0  0  0  0  0  0  0  0  0  0
  195.8650  176.4970  141.6510 C   0  0  0  0  0  1  0  0  0  0  0  0
  193.6450  174.2910  141.8870 C   0  0  0  0  0  2  0  0  0  0  0  0
  193.4280  173.9660  140.4230 C   0  0  0  0  0  2  0  0  0  0  0  0
  192.9390  172.6660  140.3050 O   0  0  0  0  0  0  0  0  0  0  0  0
  192.0630  172.5210  141.3820 C   0  0  0  0  0  2  0  0  0  0  0  0
  189.9210  171.2870  138.7790 C   0  0  0  0  0  2  0  0  0  0  0  0
  190.9220  170.5000  140.7830 O   0  0  0  0  0  0  0  0  0  0  0  0
  190.6860  170.1690  139.4350 C   0  0  0  0  0  2  0  0  0  0  0  0
  190.7630  171.8940  140.9080 C   0  0  2  0  0  3  0  0  0  0  0  0
  190.3440  172.4780  139.5740 C   0  0  2  0  0  3  0  0  0  0  0  0
  188.0800  172.8950  140.2960 O   0  0  0  0  0  1  0  0  0  0  0  0
  189.2090  173.4870  139.7230 C   0  0  0  0  0  2  0  0  0  0  0  0
  1  2  1  6  0  0  0
  2  4  2  0  0  0  0
  3  2  1  0  0  0  0
  5 14  1  1  0  0  0
  6  1  1  6  0  0  0
  6  7  1  0  0  0  0
  6  5  1  0  0  0  0
  7  5  1  0  0  0  0
  7 12  1  0  0  0  0
  8 11  1  0  0  0  0
  9 13  2  0  0  0  0
  9 12  1  0  0  0  0
 10 11  2  0  0  0  0
 12  8  2  0  0  0  0
 13 10  1  0  0  0  0
 14 15  2  0  0  0  0
 14 18  1  0  0  0  0
 16 18  1  0  0  0  0
 18 17  2  0  0  0  0
 19 20  2  0  0  0  0
 19 16  1  0  0  0  0
 21 19  1  0  0  0  0
 22 21  1  0  0  0  0
 23  1  1  0  0  0  0
 24 26  2  0  0  0  0
 25 24  1  0  0  0  0
 25 23  1  0  0  0  0
 27 30  1  1  0  0  0
 27 28  1  0  0  0  0
 27 24  1  0  0  0  0
 29 28  1  0  0  0  0
 31 30  1  0  0  0  0
 32 31  1  0  0  0  0
 32 33  1  0  0  0  0
 34 36  1  0  0  0  0
 34 38  1  0  0  0  0
 35 37  1  0  0  0  0
 36 35  1  0  0  0  0
 37 33  1  6  0  0  0
 38 40  1  1  0  0  0
 38 37  1  0  0  0  0
 40 39  1  0  0  0  0
M  END
>  <MODEL>
4

>  <REMARK>
 VINA RESULT:      -5.7      2.409      6.110
  Name = 
  16 active torsions:
  status: ('A' for Active; 'I' for Inactive)
    1  A    between atoms: C_2  and  C_12
    2  A    between atoms: C_2  and  C_34
    3  A    between atoms: C_3  and  C_12
    4  A    between atoms: C_5  and  C_13
    5  A    between atoms: C_6  and  C_33
    6  A    between atoms: C_9  and  C_11
    7  A    between atoms: C_9  and  C_20
    8  A    between atoms: C_12  and  O_27
    9  A    between atoms: C_13  and  C_17
   10  A    between atoms: C_13  and  N_29
   11  A    between atoms: N_21  and  N_29
   12  A    between atoms: C_24  and  N_37
   13  A    between atoms: C_25  and  C_36
   14  A    between atoms: C_28  and  C_38
   15  A    between atoms: C_34  and  O_40
   16  A    between atoms: C_38  and  O_40
                            x       y       z     vdW  Elec       q    Type
                         _______ _______ _______ _____ _____    ______ ____

>  <TORSDO>
F 16

$$$$
=
 OpenBabel11072409293D

 40 42  0  0  1  0  0  0  0  0999 V2000
  189.3830  173.9340  141.9350 C   0  0  2  0  0  3  0  0  0  0  0  0
  188.5540  173.6070  140.7340 C   0  0  0  0  0  0  0  0  0  0  0  0
  188.5910  174.4660  139.6000 N   0  0  0  0  0  1  0  0  0  0  0  0
  187.8300  172.5780  140.7160 O   0  0  0  0  0  0  0  0  0  0  0  0
  188.0610  175.7570  142.7350 C   0  0  1  0  0  3  0  0  0  0  0  0
  189.3140  175.4260  142.2490 C   0  0  1  0  0  3  0  0  0  0  0  0
  189.1760  175.6230  143.7230 N   0  0  0  0  0  0  0  0  0  0  0  0
  190.6220  176.6460  145.4070 C   0  0  0  0  0  3  0  0  0  0  0  0
  189.2600  174.7340  146.0000 C   0  0  0  0  0  3  0  0  0  0  0  0
  190.6870  175.7640  147.6630 C   0  0  0  0  0  3  0  0  0  0  0  0
  191.1210  176.6950  146.7130 C   0  0  0  0  0  3  0  0  0  0  0  0
  189.6880  175.6680  145.0510 C   0  0  0  0  0  0  0  0  0  0  0  0
  189.7580  174.7830  147.3050 C   0  0  0  0  0  3  0  0  0  0  0  0
  187.7650  177.2040  142.4740 C   0  0  0  0  0  0  0  0  0  0  0  0
  188.7140  178.0280  142.3670 O   0  0  0  0  0  0  0  0  0  0  0  0
  185.6970  178.3810  143.3910 N   0  0  0  0  0  2  0  0  0  0  0  0
  185.7510  177.4680  141.2630 O   0  0  0  0  0  0  0  0  0  0  0  0
  186.3650  177.6650  142.3450 C   0  0  0  0  0  0  0  0  0  0  0  0
  185.9080  178.2000  144.7950 C   0  0  0  0  0  0  0  0  0  0  0  0
  186.5010  177.1790  145.2350 O   0  0  0  0  0  0  0  0  0  0  0  0
  185.3270  179.1790  145.7530 C   0  0  0  0  0  2  0  0  0  0  0  0
  183.9620  178.9360  145.8980 O   0  0  0  0  0  1  0  0  0  0  0  0
  190.7630  173.5200  141.7040 N   0  0  0  0  0  2  0  0  0  0  0  0
  192.5830  172.5110  143.0500 C   0  0  0  0  0  0  0  0  0  0  0  0
  191.2090  172.8450  142.8520 N   0  0  0  0  0  2  0  0  0  0  0  0
  193.4530  172.8690  142.2100 O   0  0  0  0  0  0  0  0  0  0  0  0
  192.9700  171.6780  144.2380 C   0  0  1  0  0  3  0  0  0  0  0  0
  193.5580  170.4410  143.8850 O   0  0  0  0  0  0  0  0  0  0  0  0
  194.8970  170.4290  144.3080 C   0  0  0  0  0  1  0  0  0  0  0  0
  193.7460  172.4520  145.3050 C   0  0  0  0  0  2  0  0  0  0  0  0
  193.0570  173.7700  145.5960 C   0  0  0  0  0  2  0  0  0  0  0  0
  194.0150  174.7320  145.9120 O   0  0  0  0  0  0  0  0  0  0  0  0
  194.3440  175.3160  144.6880 C   0  0  0  0  0  2  0  0  0  0  0  0
  197.4910  175.2800  142.9600 C   0  0  0  0  0  2  0  0  0  0  0  0
  196.0750  176.8460  144.0480 O   0  0  0  0  0  0  0  0  0  0  0  0
  196.8390  176.6350  142.8850 C   0  0  0  0  0  2  0  0  0  0  0  0
  195.8380  175.5850  144.6300 C   0  0  2  0  0  3  0  0  0  0  0  0
  196.5420  174.5140  143.8210 C   0  0  2  0  0  3  0  0  0  0  0  0
  197.1790  173.8750  146.0590 O   0  0  0  0  0  1  0  0  0  0  0  0
  197.2730  173.5140  144.7130 C   0  0  0  0  0  2  0  0  0  0  0  0
  1  2  1  6  0  0  0
  3  2  1  0  0  0  0
  4  2  2  0  0  0  0
  5 14  1  6  0  0  0
  5  7  1  0  0  0  0
  6  1  1  1  0  0  0
  6  5  1  0  0  0  0
  6  7  1  0  0  0  0
  7 12  1  0  0  0  0
  8 11  1  0  0  0  0
  9 13  2  0  0  0  0
 11 10  2  0  0  0  0
 12  8  2  0  0  0  0
 12  9  1  0  0  0  0
 13 10  1  0  0  0  0
 15 14  2  0  0  0  0
 16 19  1  0  0  0  0
 17 18  2  0  0  0  0
 18 14  1  0  0  0  0
 18 16  1  0  0  0  0
 19 20  2  0  0  0  0
 19 21  1  0  0  0  0
 21 22  1  0  0  0  0
 23  1  1  0  0  0  0
 23 25  1  0  0  0  0
 24 27  1  0  0  0  0
 25 24  1  0  0  0  0
 26 24  2  0  0  0  0
 27 30  1  1  0  0  0
 28 27  1  0  0  0  0
 28 29  1  0  0  0  0
 30 31  1  0  0  0  0
 31 32  1  0  0  0  0
 33 32  1  0  0  0  0
 34 38  1  0  0  0  0
 35 37  1  0  0  0  0
 36 34  1  0  0  0  0
 36 35  1  0  0  0  0
 37 33  1  6  0  0  0
 38 37  1  0  0  0  0
 38 40  1  1  0  0  0
 40 39  1  0  0  0  0
M  END
>  <MODEL>
5

>  <REMARK>
 VINA RESULT:      -5.7      2.256      3.413
  Name = 
  16 active torsions:
  status: ('A' for Active; 'I' for Inactive)
    1  A    between atoms: C_2  and  C_12
    2  A    between atoms: C_2  and  C_34
    3  A    between atoms: C_3  and  C_12
    4  A    between atoms: C_5  and  C_13
    5  A    between atoms: C_6  and  C_33
    6  A    between atoms: C_9  and  C_11
    7  A    between atoms: C_9  and  C_20
    8  A    between atoms: C_12  and  O_27
    9  A    between atoms: C_13  and  C_17
   10  A    between atoms: C_13  and  N_29
   11  A    between atoms: N_21  and  N_29
   12  A    between atoms: C_24  and  N_37
   13  A    between atoms: C_25  and  C_36
   14  A    between atoms: C_28  and  C_38
   15  A    between atoms: C_34  and  O_40
   16  A    between atoms: C_38  and  O_40
                            x       y       z     vdW  Elec       q    Type
                         _______ _______ _______ _____ _____    ______ ____

>  <TORSDO>
F 16

$$$$
=
 OpenBabel11072409293D

 40 42  0  0  1  0  0  0  0  0999 V2000
  187.3040  176.2870  142.1770 C   0  0  2  0  0  3  0  0  0  0  0  0
  187.3970  177.3640  141.1450 C   0  0  0  0  0  0  0  0  0  0  0  0
  186.4570  177.3970  140.0770 N   0  0  0  0  0  1  0  0  0  0  0  0
  188.2940  178.2450  141.2150 O   0  0  0  0  0  0  0  0  0  0  0  0
  188.4780  174.9820  140.5550 C   0  0  1  0  0  3  0  0  0  0  0  0
  187.5110  174.9140  141.5430 C   0  0  1  0  0  3  0  0  0  0  0  0
  188.8770  174.4090  141.8770 N   0  0  0  0  0  0  0  0  0  0  0  0
  189.5560  173.7070  144.1180 C   0  0  0  0  0  3  0  0  0  0  0  0
  191.0580  173.3660  142.2500 C   0  0  0  0  0  3  0  0  0  0  0  0
  191.7140  172.6650  144.4730 C   0  0  0  0  0  3  0  0  0  0  0  0
  190.4940  173.1280  144.9780 C   0  0  0  0  0  3  0  0  0  0  0  0
  189.8350  173.8230  142.7530 C   0  0  0  0  0  0  0  0  0  0  0  0
  191.9950  172.7850  143.1090 C   0  0  0  0  0  3  0  0  0  0  0  0
  188.2760  173.8870  139.5490 C   0  0  0  0  0  0  0  0  0  0  0  0
  188.0960  172.7020  139.9430 O   0  0  0  0  0  0  0  0  0  0  0  0
  189.1770  173.5400  137.1900 N   0  0  0  0  0  2  0  0  0  0  0  0
  187.4570  175.0220  137.6430 O   0  0  0  0  0  0  0  0  0  0  0  0
  188.2870  174.1950  138.1030 C   0  0  0  0  0  0  0  0  0  0  0  0
  190.5020  173.0880  137.4930 C   0  0  0  0  0  0  0  0  0  0  0  0
  191.1060  173.4930  138.5220 O   0  0  0  0  0  0  0  0  0  0  0  0
  191.2130  172.2110  136.5240 C   0  0  0  0  0  2  0  0  0  0  0  0
  190.3080  171.3210  135.9480 O   0  0  0  0  0  1  0  0  0  0  0  0
  186.0070  176.3560  142.8410 N   0  0  0  0  0  2  0  0  0  0  0  0
  186.2970  177.8960  144.7610 C   0  0  0  0  0  0  0  0  0  0  0  0
  186.2330  176.5810  144.2080 N   0  0  0  0  0  2  0  0  0  0  0  0
  186.0930  178.9040  144.0310 O   0  0  0  0  0  0  0  0  0  0  0  0
  186.6690  178.0650  146.2070 C   0  0  1  0  0  3  0  0  0  0  0  0
  185.9700  179.1160  146.8440 O   0  0  0  0  0  0  0  0  0  0  0  0
  184.8380  178.5940  147.4900 C   0  0  0  0  0  1  0  0  0  0  0  0
  186.6730  176.7550  146.9970 C   0  0  0  0  0  2  0  0  0  0  0  0
  188.0400  176.1040  146.9180 C   0  0  0  0  0  2  0  0  0  0  0  0
  189.0190  177.0930  146.8470 O   0  0  0  0  0  0  0  0  0  0  0  0
  190.2040  176.3990  146.5990 C   0  0  0  0  0  2  0  0  0  0  0  0
  192.0980  176.7340  143.5680 C   0  0  0  0  0  2  0  0  0  0  0  0
  190.2920  177.8150  144.6660 O   0  0  0  0  0  0  0  0  0  0  0  0
  190.7190  177.3190  143.4210 C   0  0  0  0  0  2  0  0  0  0  0  0
  191.0850  177.2020  145.6570 C   0  0  2  0  0  3  0  0  0  0  0  0
  192.1160  176.3090  144.9990 C   0  0  2  0  0  3  0  0  0  0  0  0
  193.7980  175.4270  146.4860 O   0  0  0  0  0  1  0  0  0  0  0  0
  193.5000  176.4810  145.6190 C   0  0  0  0  0  2  0  0  0  0  0  0
  1  2  1  6  0  0  0
  1 23  1  0  0  0  0
  2  4  2  0  0  0  0
  3  2  1  0  0  0  0
  5 14  1  6  0  0  0
  5  6  1  0  0  0  0
  5  7  1  0  0  0  0
  6  7  1  0  0  0  0
  6  1  1  1  0  0  0
  7 12  1  0  0  0  0
  8 11  1  0  0  0  0
  9 12  1  0  0  0  0
  9 13  2  0  0  0  0
 10 11  2  0  0  0  0
 12  8  2  0  0  0  0
 13 10  1  0  0  0  0
 14 15  2  0  0  0  0
 16 19  1  0  0  0  0
 16 18  1  0  0  0  0
 17 18  2  0  0  0  0
 18 14  1  0  0  0  0
 19 20  2  0  0  0  0
 21 19  1  0  0  0  0
 22 21  1  0  0  0  0
 23 25  1  0  0  0  0
 24 27  1  0  0  0  0
 25 24  1  0  0  0  0
 26 24  2  0  0  0  0
 27 28  1  0  0  0  0
 27 30  1  1  0  0  0
 28 29  1  0  0  0  0
 31 30  1  0  0  0  0
 32 31  1  0  0  0  0
 33 32  1  0  0  0  0
 34 38  1  0  0  0  0
 35 37  1  0  0  0  0
 36 34  1  0  0  0  0
 36 35  1  0  0  0  0
 37 33  1  1  0  0  0
 38 40  1  1  0  0  0
 38 37  1  0  0  0  0
 40 39  1  0  0  0  0
M  END
>  <MODEL>
6

>  <REMARK>
 VINA RESULT:      -5.7      2.208      6.861
  Name = 
  16 active torsions:
  status: ('A' for Active; 'I' for Inactive)
    1  A    between atoms: C_2  and  C_12
    2  A    between atoms: C_2  and  C_34
    3  A    between atoms: C_3  and  C_12
    4  A    between atoms: C_5  and  C_13
    5  A    between atoms: C_6  and  C_33
    6  A    between atoms: C_9  and  C_11
    7  A    between atoms: C_9  and  C_20
    8  A    between atoms: C_12  and  O_27
    9  A    between atoms: C_13  and  C_17
   10  A    between atoms: C_13  and  N_29
   11  A    between atoms: N_21  and  N_29
   12  A    between atoms: C_24  and  N_37
   13  A    between atoms: C_25  and  C_36
   14  A    between atoms: C_28  and  C_38
   15  A    between atoms: C_34  and  O_40
   16  A    between atoms: C_38  and  O_40
                            x       y       z     vdW  Elec       q    Type
                         _______ _______ _______ _____ _____    ______ ____

>  <TORSDO>
F 16

$$$$
=
 OpenBabel11072409293D

 40 42  0  0  1  0  0  0  0  0999 V2000
  190.9290  173.8780  145.7290 C   0  0  2  0  0  3  0  0  0  0  0  0
  189.8730  174.8230  146.2050 C   0  0  0  0  0  0  0  0  0  0  0  0
  189.0540  174.4620  147.3110 N   0  0  0  0  0  1  0  0  0  0  0  0
  189.7050  175.9350  145.6390 O   0  0  0  0  0  0  0  0  0  0  0  0
  192.7190  175.4380  145.9940 C   0  0  1  0  0  3  0  0  0  0  0  0
  192.0750  174.6380  145.0670 C   0  0  1  0  0  3  0  0  0  0  0  0
  193.3780  174.1520  145.6090 N   0  0  0  0  0  0  0  0  0  0  0  0
  195.7670  173.6640  145.7910 C   0  0  0  0  0  3  0  0  0  0  0  0
  194.1750  171.8410  145.6950 C   0  0  0  0  0  3  0  0  0  0  0  0
  196.5420  171.3700  145.8870 C   0  0  0  0  0  3  0  0  0  0  0  0
  196.8150  172.7430  145.8850 C   0  0  0  0  0  3  0  0  0  0  0  0
  194.4460  173.2130  145.7000 C   0  0  0  0  0  0  0  0  0  0  0  0
  195.2230  170.9210  145.7900 C   0  0  0  0  0  3  0  0  0  0  0  0
  193.3890  176.5940  145.3120 C   0  0  0  0  0  0  0  0  0  0  0  0
  194.2970  177.2330  145.9120 O   0  0  0  0  0  0  0  0  0  0  0  0
  193.5640  176.3840  142.7780 N   0  0  0  0  0  2  0  0  0  0  0  0
  192.0730  177.8370  143.7910 O   0  0  0  0  0  0  0  0  0  0  0  0
  192.9870  176.9850  143.9440 C   0  0  0  0  0  0  0  0  0  0  0  0
  194.9110  175.9140  142.6580 C   0  0  0  0  0  0  0  0  0  0  0  0
  195.7930  176.2590  143.4880 O   0  0  0  0  0  0  0  0  0  0  0  0
  195.2960  175.0950  141.4780 C   0  0  0  0  0  2  0  0  0  0  0  0
  195.9950  173.9650  141.9010 O   0  0  0  0  0  1  0  0  0  0  0  0
  190.3430  172.9190  144.7980 N   0  0  0  0  0  2  0  0  0  0  0  0
  189.7920  173.7540  142.5300 C   0  0  0  0  0  0  0  0  0  0  0  0
  189.5020  173.6250  143.9230 N   0  0  0  0  0  2  0  0  0  0  0  0
  190.7990  173.1800  142.0340 O   0  0  0  0  0  0  0  0  0  0  0  0
  188.9170  174.6280  141.6790 C   0  0  1  0  0  3  0  0  0  0  0  0
  188.1220  173.9010  140.7640 O   0  0  0  0  0  0  0  0  0  0  0  0
  188.5580  174.1720  139.4560 C   0  0  0  0  0  1  0  0  0  0  0  0
  188.1410  175.6810  142.4740 C   0  0  0  0  0  2  0  0  0  0  0  0
  188.8390  177.0230  142.3810 C   0  0  0  0  0  2  0  0  0  0  0  0
  188.3800  177.8540  143.4010 O   0  0  0  0  0  0  0  0  0  0  0  0
  187.1330  177.3300  143.7480 C   0  0  0  0  0  2  0  0  0  0  0  0
  184.8150  177.7300  146.4590 C   0  0  0  0  0  2  0  0  0  0  0  0
  187.1590  177.8260  146.0930 O   0  0  0  0  0  0  0  0  0  0  0  0
  186.1730  177.3120  146.9560 C   0  0  0  0  0  2  0  0  0  0  0  0
  186.5260  178.1470  144.8760 C   0  0  2  0  0  3  0  0  0  0  0  0
  185.0400  177.8770  144.9910 C   0  0  2  0  0  3  0  0  0  0  0  0
  184.9660  180.1760  144.2640 O   0  0  0  0  0  1  0  0  0  0  0  0
  184.2060  179.0120  144.4040 C   0  0  0  0  0  2  0  0  0  0  0  0
  1 23  1  6  0  0  0
  1  2  1  0  0  0  0
  2  3  1  0  0  0  0
  4  2  2  0  0  0  0
  5 14  1  6  0  0  0
  6  7  1  0  0  0  0
  6  1  1  1  0  0  0
  6  5  1  0  0  0  0
  7 12  1  0  0  0  0
  7  5  1  0  0  0  0
  8 11  1  0  0  0  0
  9 12  1  0  0  0  0
  9 13  2  0  0  0  0
 11 10  2  0  0  0  0
 12  8  2  0  0  0  0
 13 10  1  0  0  0  0
 14 15  2  0  0  0  0
 16 18  1  0  0  0  0
 17 18  2  0  0  0  0
 18 14  1  0  0  0  0
 19 16  1  0  0  0  0
 19 20  2  0  0  0  0
 21 22  1  0  0  0  0
 21 19  1  0  0  0  0
 24 25  1  0  0  0  0
 25 23  1  0  0  0  0
 26 24  2  0  0  0  0
 27 30  1  1  0  0  0
 27 24  1  0  0  0  0
 28 27  1  0  0  0  0
 29 28  1  0  0  0  0
 31 30  1  0  0  0  0
 31 32  1  0  0  0  0
 32 33  1  0  0  0  0
 34 36  1  0  0  0  0
 35 36  1  0  0  0  0
 37 33  1  6  0  0  0
 37 38  1  0  0  0  0
 37 35  1  0  0  0  0
 38 40  1  1  0  0  0
 38 34  1  0  0  0  0
 39 40  1  0  0  0  0
M  END
>  <MODEL>
7

>  <REMARK>
 VINA RESULT:      -5.6      2.569      7.419
  Name = 
  16 active torsions:
  status: ('A' for Active; 'I' for Inactive)
    1  A    between atoms: C_2  and  C_12
    2  A    between atoms: C_2  and  C_34
    3  A    between atoms: C_3  and  C_12
    4  A    between atoms: C_5  and  C_13
    5  A    between atoms: C_6  and  C_33
    6  A    between atoms: C_9  and  C_11
    7  A    between atoms: C_9  and  C_20
    8  A    between atoms: C_12  and  O_27
    9  A    between atoms: C_13  and  C_17
   10  A    between atoms: C_13  and  N_29
   11  A    between atoms: N_21  and  N_29
   12  A    between atoms: C_24  and  N_37
   13  A    between atoms: C_25  and  C_36
   14  A    between atoms: C_28  and  C_38
   15  A    between atoms: C_34  and  O_40
   16  A    between atoms: C_38  and  O_40
                            x       y       z     vdW  Elec       q    Type
                         _______ _______ _______ _____ _____    ______ ____

>  <TORSDO>
F 16

$$$$
=
 OpenBabel11072409293D

 40 42  0  0  1  0  0  0  0  0999 V2000
  190.3720  177.1150  145.4600 C   0  0  2  0  0  3  0  0  0  0  0  0
  189.6210  177.0010  146.7470 C   0  0  0  0  0  0  0  0  0  0  0  0
  189.1930  175.7220  147.2000 N   0  0  0  0  0  1  0  0  0  0  0  0
  189.3680  178.0240  147.4360 O   0  0  0  0  0  0  0  0  0  0  0  0
  188.8750  176.7420  143.6360 C   0  0  1  0  0  3  0  0  0  0  0  0
  189.4940  177.7340  144.3750 C   0  0  1  0  0  3  0  0  0  0  0  0
  188.0580  177.4490  144.6700 N   0  0  0  0  0  0  0  0  0  0  0  0
  186.0850  176.5780  145.8200 C   0  0  0  0  0  3  0  0  0  0  0  0
  186.3880  178.9710  145.6050 C   0  0  0  0  0  3  0  0  0  0  0  0
  184.4430  178.0970  146.7520 C   0  0  0  0  0  3  0  0  0  0  0  0
  184.8880  176.7930  146.5120 C   0  0  0  0  0  3  0  0  0  0  0  0
  186.8370  177.6680  145.3700 C   0  0  0  0  0  0  0  0  0  0  0  0
  185.1930  179.1850  146.2980 C   0  0  0  0  0  3  0  0  0  0  0  0
  188.5340  177.2470  142.2650 C   0  0  0  0  0  0  0  0  0  0  0  0
  188.8710  178.4150  141.9270 O   0  0  0  0  0  0  0  0  0  0  0  0
  186.6410  176.8310  140.6090 N   0  0  0  0  0  2  0  0  0  0  0  0
  188.2460  175.2270  141.0700 O   0  0  0  0  0  0  0  0  0  0  0  0
  187.8060  176.3810  141.3130 C   0  0  0  0  0  0  0  0  0  0  0  0
  185.6650  177.7510  141.1090 C   0  0  0  0  0  0  0  0  0  0  0  0
  185.5990  178.0220  142.3380 O   0  0  0  0  0  0  0  0  0  0  0  0
  184.6470  178.3120  140.1810 C   0  0  0  0  0  2  0  0  0  0  0  0
  183.4270  178.4360  140.8440 O   0  0  0  0  0  1  0  0  0  0  0  0
  190.8430  175.7960  145.0500 N   0  0  0  0  0  2  0  0  0  0  0  0
  193.1380  174.8900  144.8130 C   0  0  0  0  0  0  0  0  0  0  0  0
  192.1740  175.9260  144.6210 N   0  0  0  0  0  2  0  0  0  0  0  0
  192.7980  173.7920  145.3320 O   0  0  0  0  0  0  0  0  0  0  0  0
  194.5710  175.1480  144.4450 C   0  0  1  0  0  3  0  0  0  0  0  0
  195.4220  174.0520  144.7160 O   0  0  0  0  0  0  0  0  0  0  0  0
  196.7170  174.5260  144.9820 C   0  0  0  0  0  1  0  0  0  0  0  0
  194.7490  175.7410  143.0460 C   0  0  0  0  0  2  0  0  0  0  0  0
  194.4360  174.6960  141.9940 C   0  0  0  0  0  2  0  0  0  0  0  0
  193.3010  175.0820  141.2830 O   0  0  0  0  0  0  0  0  0  0  0  0
  192.8490  173.9100  140.6760 C   0  0  0  0  0  2  0  0  0  0  0  0
  189.9080  172.0620  141.5820 C   0  0  0  0  0  2  0  0  0  0  0  0
  190.9780  174.1000  142.1620 O   0  0  0  0  0  0  0  0  0  0  0  0
  190.3600  172.9570  142.7040 C   0  0  0  0  0  2  0  0  0  0  0  0
  191.3430  173.7920  140.8370 C   0  0  2  0  0  3  0  0  0  0  0  0
  190.8770  172.3920  140.4950 C   0  0  2  0  0  3  0  0  0  0  0  0
  190.3130  173.5550  138.4580 O   0  0  0  0  0  1  0  0  0  0  0  0
  190.2220  172.3270  139.1180 C   0  0  0  0  0  2  0  0  0  0  0  0
  1 23  1  6  0  0  0
  1  2  1  0  0  0  0
  2  3  1  0  0  0  0
  2  4  2  0  0  0  0
  5 14  1  6  0  0  0
  5  6  1  0  0  0  0
  5  7  1  0  0  0  0
  6  7  1  0  0  0  0
  6  1  1  1  0  0  0
  7 12  1  0  0  0  0
  8 11  1  0  0  0  0
  9 13  2  0  0  0  0
 11 10  2  0  0  0  0
 12  9  1  0  0  0  0
 12  8  2  0  0  0  0
 13 10  1  0  0  0  0
 15 14  2  0  0  0  0
 16 19  1  0  0  0  0
 16 18  1  0  0  0  0
 17 18  2  0  0  0  0
 18 14  1  0  0  0  0
 19 20  2  0  0  0  0
 21 22  1  0  0  0  0
 21 19  1  0  0  0  0
 24 26  2  0  0  0  0
 25 24  1  0  0  0  0
 25 23  1  0  0  0  0
 27 30  1  6  0  0  0
 27 28  1  0  0  0  0
 27 24  1  0  0  0  0
 28 29  1  0  0  0  0
 31 30  1  0  0  0  0
 32 31  1  0  0  0  0
 33 32  1  0  0  0  0
 34 36  1  0  0  0  0
 35 36  1  0  0  0  0
 37 33  1  1  0  0  0
 37 35  1  0  0  0  0
 38 40  1  6  0  0  0
 38 37  1  0  0  0  0
 38 34  1  0  0  0  0
 39 40  1  0  0  0  0
M  END
>  <MODEL>
8

>  <REMARK>
 VINA RESULT:      -5.6      2.383      4.997
  Name = 
  16 active torsions:
  status: ('A' for Active; 'I' for Inactive)
    1  A    between atoms: C_2  and  C_12
    2  A    between atoms: C_2  and  C_34
    3  A    between atoms: C_3  and  C_12
    4  A    between atoms: C_5  and  C_13
    5  A    between atoms: C_6  and  C_33
    6  A    between atoms: C_9  and  C_11
    7  A    between atoms: C_9  and  C_20
    8  A    between atoms: C_12  and  O_27
    9  A    between atoms: C_13  and  C_17
   10  A    between atoms: C_13  and  N_29
   11  A    between atoms: N_21  and  N_29
   12  A    between atoms: C_24  and  N_37
   13  A    between atoms: C_25  and  C_36
   14  A    between atoms: C_28  and  C_38
   15  A    between atoms: C_34  and  O_40
   16  A    between atoms: C_38  and  O_40
                            x       y       z     vdW  Elec       q    Type
                         _______ _______ _______ _____ _____    ______ ____

>  <TORSDO>
F 16

$$$$
=
 OpenBabel11072409293D

 40 42  0  0  1  0  0  0  0  0999 V2000
  189.6640  173.1570  141.7860 C   0  0  2  0  0  3  0  0  0  0  0  0
  189.6190  172.8340  140.3270 C   0  0  0  0  0  0  0  0  0  0  0  0
  189.4050  173.8770  139.3820 N   0  0  0  0  0  1  0  0  0  0  0  0
  189.7750  171.6510  139.9260 O   0  0  0  0  0  0  0  0  0  0  0  0
  188.4280  175.1130  142.3790 C   0  0  1  0  0  3  0  0  0  0  0  0
  189.6830  174.6670  142.0040 C   0  0  1  0  0  3  0  0  0  0  0  0
  189.4600  174.9670  143.4500 N   0  0  0  0  0  0  0  0  0  0  0  0
  188.9400  175.2770  145.8190 C   0  0  0  0  0  3  0  0  0  0  0  0
  191.2380  174.9460  145.1300 C   0  0  0  0  0  3  0  0  0  0  0  0
  190.7090  175.2410  147.4740 C   0  0  0  0  0  3  0  0  0  0  0  0
  189.3530  175.3650  147.1520 C   0  0  0  0  0  3  0  0  0  0  0  0
  189.8820  175.0620  144.8070 C   0  0  0  0  0  0  0  0  0  0  0  0
  191.6500  175.0330  146.4630 C   0  0  0  0  0  3  0  0  0  0  0  0
  188.2550  176.5580  142.0120 C   0  0  0  0  0  0  0  0  0  0  0  0
  189.1010  177.4080  142.4050 O   0  0  0  0  0  0  0  0  0  0  0  0
  186.0340  177.7770  141.7330 N   0  0  0  0  0  2  0  0  0  0  0  0
  187.0680  176.6880  139.9710 O   0  0  0  0  0  0  0  0  0  0  0  0
  187.1000  176.9850  141.1940 C   0  0  0  0  0  0  0  0  0  0  0  0
  185.5470  177.7190  143.0790 C   0  0  0  0  0  0  0  0  0  0  0  0
  185.8300  176.7480  143.8290 O   0  0  0  0  0  0  0  0  0  0  0  0
  184.6070  178.7670  143.5600 C   0  0  0  0  0  2  0  0  0  0  0  0
  185.3290  179.8700  144.0130 O   0  0  0  0  0  1  0  0  0  0  0  0
  190.8390  172.5350  142.3870 N   0  0  0  0  0  2  0  0  0  0  0  0
  193.2940  172.8760  142.3370 C   0  0  0  0  0  0  0  0  0  0  0  0
  191.9780  173.1690  141.8650 N   0  0  0  0  0  2  0  0  0  0  0  0
  193.4720  171.9840  143.2110 O   0  0  0  0  0  0  0  0  0  0  0  0
  194.4520  173.6820  141.8230 C   0  0  1  0  0  3  0  0  0  0  0  0
  195.6180  172.9120  141.6100 O   0  0  0  0  0  0  0  0  0  0  0  0
  195.5330  172.2800  140.3590 C   0  0  0  0  0  1  0  0  0  0  0  0
  194.0910  174.5980  140.6520 C   0  0  0  0  0  2  0  0  0  0  0  0
  194.8120  175.9240  140.7870 C   0  0  0  0  0  2  0  0  0  0  0  0
  194.7810  176.3320  142.1190 O   0  0  0  0  0  0  0  0  0  0  0  0
  196.1130  176.6100  142.4340 C   0  0  0  0  0  2  0  0  0  0  0  0
  195.2630  175.0440  145.5500 C   0  0  0  0  0  2  0  0  0  0  0  0
  197.1210  175.1870  144.0790 O   0  0  0  0  0  0  0  0  0  0  0  0
  196.3470  174.2850  144.8330 C   0  0  0  0  0  2  0  0  0  0  0  0
  196.3570  176.3590  143.9120 C   0  0  2  0  0  3  0  0  0  0  0  0
  195.0440  176.2180  144.6540 C   0  0  2  0  0  3  0  0  0  0  0  0
  194.3920  177.1660  146.7740 O   0  0  0  0  0  1  0  0  0  0  0  0
  194.6970  177.4750  145.4460 C   0  0  0  0  0  2  0  0  0  0  0  0
  1  2  1  6  0  0  0
  1 23  1  0  0  0  0
  3  2  1  0  0  0  0
  4  2  2  0  0  0  0
  5 14  1  6  0  0  0
  5  7  1  0  0  0  0
  6  1  1  1  0  0  0
  6  5  1  0  0  0  0
  6  7  1  0  0  0  0
  7 12  1  0  0  0  0
  8 11  1  0  0  0  0
  9 13  2  0  0  0  0
 11 10  2  0  0  0  0
 12  9  1  0  0  0  0
 12  8  2  0  0  0  0
 13 10  1  0  0  0  0
 14 15  2  0  0  0  0
 16 19  1  0  0  0  0
 17 18  2  0  0  0  0
 18 16  1  0  0  0  0
 18 14  1  0  0  0  0
 19 21  1  0  0  0  0
 19 20  2  0  0  0  0
 21 22  1  0  0  0  0
 24 26  2  0  0  0  0
 25 24  1  0  0  0  0
 25 23  1  0  0  0  0
 27 30  1  6  0  0  0
 27 24  1  0  0  0  0
 28 27  1  0  0  0  0
 29 28  1  0  0  0  0
 30 31  1  0  0  0  0
 31 32  1  0  0  0  0
 32 33  1  0  0  0  0
 35 36  1  0  0  0  0
 36 34  1  0  0  0  0
 37 33  1  6  0  0  0
 37 35  1  0  0  0  0
 37 38  1  0  0  0  0
 38 40  1  1  0  0  0
 38 34  1  0  0  0  0
 40 39  1  0  0  0  0
M  END
>  <MODEL>
9

>  <REMARK>
 VINA RESULT:      -5.5      1.751      2.294
  Name = 
  16 active torsions:
  status: ('A' for Active; 'I' for Inactive)
    1  A    between atoms: C_2  and  C_12
    2  A    between atoms: C_2  and  C_34
    3  A    between atoms: C_3  and  C_12
    4  A    between atoms: C_5  and  C_13
    5  A    between atoms: C_6  and  C_33
    6  A    between atoms: C_9  and  C_11
    7  A    between atoms: C_9  and  C_20
    8  A    between atoms: C_12  and  O_27
    9  A    between atoms: C_13  and  C_17
   10  A    between atoms: C_13  and  N_29
   11  A    between atoms: N_21  and  N_29
   12  A    between atoms: C_24  and  N_37
   13  A    between atoms: C_25  and  C_36
   14  A    between atoms: C_28  and  C_38
   15  A    between atoms: C_34  and  O_40
   16  A    between atoms: C_38  and  O_40
                            x       y       z     vdW  Elec       q    Type
                         _______ _______ _______ _____ _____    ______ ____

>  <TORSDO>
F 16

$$$$
