=
 OpenBabel11062421133D

 33 36  0  0  1  0  0  0  0  0999 V2000
  190.1320  177.3840  146.4180 O   0  0  0  0  0  0  0  0  0  0  0  0
  189.4910  175.8370  144.6690 C   0  0  0  0  0  0  0  0  0  0  0  0
  190.7600  176.3110  147.1080 C   0  0  0  0  0  2  0  0  0  0  0  0
  188.8430  175.4940  143.4610 N   0  0  0  0  0  0  0  0  0  0  0  0
  191.3000  175.2920  146.1440 C   0  0  0  0  0  0  0  0  0  0  0  0
  189.4950  174.5010  142.9420 C   0  0  0  0  0  0  0  0  0  0  0  0
  192.3480  174.6480  146.4100 O   0  0  0  0  0  0  0  0  0  0  0  0
  189.0480  176.9130  145.6210 C   0  0  1  0  0  3  0  0  0  0  0  0
  190.6890  174.0780  143.7860 C   0  0  2  0  0  0  0  0  0  0  0  0
  190.5220  175.0640  144.9190 C   0  0  0  0  0  0  0  0  0  0  0  0
  187.9760  172.7810  141.9900 C   0  0  0  0  0  1  0  0  0  0  0  0
  189.0240  173.8360  141.6560 C   0  0  0  0  0  0  0  0  0  0  0  0
  188.3640  174.8490  140.7290 C   0  0  0  0  0  1  0  0  0  0  0  0
  190.2150  173.1990  140.9050 C   0  0  2  0  0  3  0  0  0  0  0  0
  190.3070  173.6960  139.5870 O   0  0  0  0  0  0  0  0  0  0  0  0
  191.4440  171.1410  140.2160 C   0  0  0  0  0  2  0  0  0  0  0  0
  191.8330  174.0340  137.9180 O   0  0  0  0  0  1  0  0  0  0  0  0
  191.5940  173.3680  139.1190 C   0  0  2  0  0  3  0  0  0  0  0  0
  190.1670  171.6610  140.8690 C   0  0  0  0  0  2  0  0  0  0  0  0
  191.6950  171.8590  138.8930 C   0  0  0  0  0  2  0  0  0  0  0  0
  192.1310  175.6630  142.6090 O   0  0  0  0  0  1  0  0  0  0  0  0
  191.9700  174.3210  142.9590 C   0  0  0  0  0  2  0  0  0  0  0  0
  190.4830  172.7300  144.1750 O   0  0  0  0  0  0  0  0  0  0  0  0
  191.6950  172.0250  144.1990 C   0  0  0  0  0  1  0  0  0  0  0  0
  187.8680  176.4450  146.4680 C   0  0  0  0  0  2  0  0  0  0  0  0
  186.9750  178.5550  147.9610 O   0  0  0  0  0  0  0  0  0  0  0  0
  184.0240  178.2310  146.3970 C   0  0  0  0  0  2  0  0  0  0  0  0
  185.5570  179.2920  144.7070 C   0  0  0  0  0  0  0  0  0  0  0  0
  185.6380  180.2040  143.8440 O   0  0  0  0  0  0  0  0  0  0  0  0
  186.6710  177.7920  146.6920 P   0  0  1  0  0  0  0  0  0  0  0  0
  184.2250  178.6350  144.9400 C   0  0  0  0  0  2  0  0  0  0  0  0
  186.7220  178.8660  145.3530 O   0  0  0  0  0  0  0  0  0  0  0  0
  184.9910  177.1250  146.7800 C   0  0  0  0  0  2  0  0  0  0  0  0
  1  3  1  0  0  0  0
  2 10  2  0  0  0  0
  2  8  1  0  0  0  0
  4  2  1  0  0  0  0
  5  7  2  0  0  0  0
  5  3  1  0  0  0  0
  6  4  2  0  0  0  0
  6  9  1  0  0  0  0
  8  1  1  0  0  0  0
  8 25  1  1  0  0  0
  9 22  1  6  0  0  0
  9 23  1  0  0  0  0
  9 10  1  0  0  0  0
 10  5  1  0  0  0  0
 12 11  1  0  0  0  0
 12  6  1  0  0  0  0
 13 12  1  0  0  0  0
 14 12  1  6  0  0  0
 15 14  1  0  0  0  0
 16 19  1  0  0  0  0
 18 17  1  6  0  0  0
 18 15  1  0  0  0  0
 19 14  1  0  0  0  0
 20 18  1  0  0  0  0
 20 16  1  0  0  0  0
 21 22  1  0  0  0  0
 23 24  1  0  0  0  0
 25 30  1  0  0  0  0
 27 33  1  0  0  0  0
 28 31  1  0  0  0  0
 28 32  1  0  0  0  0
 29 28  2  0  0  0  0
 30 33  1  0  0  0  0
 30 26  2  1  0  0  0
 31 27  1  0  0  0  0
 32 30  1  0  0  0  0
M  END
>  <MODEL>
1

>  <REMARK>
 VINA RESULT:      -7.0      0.000      0.000
  Name = 
  6 active torsions:
  status: ('A' for Active; 'I' for Inactive)
    1  A    between atoms: C_7  and  C_13
    2  A    between atoms: O_10  and  C_32
    3  A    between atoms: P_12  and  C_21
    4  A    between atoms: C_13  and  C_26
    5  A    between atoms: C_21  and  C_31
    6  A    between atoms: C_30  and  C_32
                            x       y       z     vdW  Elec       q    Type
                         _______ _______ _______ _____ _____    ______ ____

>  <TORSDO>
F 6

$$$$
=
 OpenBabel11062421133D

 33 36  0  0  1  0  0  0  0  0999 V2000
  187.6060  174.7250  142.2730 O   0  0  0  0  0  0  0  0  0  0  0  0
  189.6640  175.2650  143.4310 C   0  0  0  0  0  0  0  0  0  0  0  0
  188.3110  174.7820  141.0390 C   0  0  0  0  0  2  0  0  0  0  0  0
  190.4230  175.5600  144.5850 N   0  0  0  0  0  0  0  0  0  0  0  0
  189.7420  174.3580  141.2130 C   0  0  0  0  0  0  0  0  0  0  0  0
  191.6400  175.1730  144.3540 C   0  0  0  0  0  0  0  0  0  0  0  0
  190.3510  173.7570  140.2900 O   0  0  0  0  0  0  0  0  0  0  0  0
  188.2060  175.5810  143.2430 C   0  0  1  0  0  3  0  0  0  0  0  0
  191.8080  174.5540  142.9740 C   0  0  2  0  0  0  0  0  0  0  0  0
  190.3890  174.7200  142.4820 C   0  0  0  0  0  0  0  0  0  0  0  0
  193.2240  176.8450  145.2850 C   0  0  0  0  0  1  0  0  0  0  0  0
  192.7450  175.4010  145.3760 C   0  0  0  0  0  0  0  0  0  0  0  0
  192.2300  175.1870  146.7940 C   0  0  0  0  0  1  0  0  0  0  0  0
  193.9180  174.4240  145.1370 C   0  0  2  0  0  3  0  0  0  0  0  0
  193.8220  173.2990  145.9840 O   0  0  0  0  0  0  0  0  0  0  0  0
  196.3770  174.0570  144.9280 C   0  0  0  0  0  2  0  0  0  0  0  0
  194.4520  171.1040  146.1020 O   0  0  0  0  0  1  0  0  0  0  0  0
  194.6790  172.3170  145.4530 C   0  0  2  0  0  3  0  0  0  0  0  0
  195.3030  175.0730  145.3070 C   0  0  0  0  0  2  0  0  0  0  0  0
  196.1360  172.7360  145.6540 C   0  0  0  0  0  2  0  0  0  0  0  0
  191.3000  172.3660  143.9400 O   0  0  0  0  0  1  0  0  0  0  0  0
  192.2130  173.0760  143.1580 C   0  0  0  0  0  2  0  0  0  0  0  0
  192.7490  175.3420  142.2630 O   0  0  0  0  0  0  0  0  0  0  0  0
  193.5910  174.5350  141.4850 C   0  0  0  0  0  1  0  0  0  0  0  0
  188.0020  177.0570  142.9150 C   0  0  0  0  0  2  0  0  0  0  0  0
  185.3850  177.1830  142.1290 O   0  0  0  0  0  0  0  0  0  0  0  0
  184.9750  179.6430  144.3730 C   0  0  0  0  0  2  0  0  0  0  0  0
  185.0980  177.5240  145.7260 C   0  0  0  0  0  0  0  0  0  0  0  0
  184.5660  176.8980  146.6780 O   0  0  0  0  0  0  0  0  0  0  0  0
  186.2940  177.5590  143.2770 P   0  0  1  0  0  0  0  0  0  0  0  0
  185.1010  179.0270  145.7630 C   0  0  0  0  0  2  0  0  0  0  0  0
  185.7400  176.8020  144.7150 O   0  0  0  0  0  0  0  0  0  0  0  0
  186.2130  179.3460  143.5460 C   0  0  0  0  0  2  0  0  0  0  0  0
  1  8  1  0  0  0  0
  2  4  1  0  0  0  0
  3  5  1  0  0  0  0
  3  1  1  0  0  0  0
  5 10  1  0  0  0  0
  6  4  2  0  0  0  0
  6 12  1  0  0  0  0
  7  5  2  0  0  0  0
  8 25  1  6  0  0  0
  8  2  1  0  0  0  0
  9 22  1  1  0  0  0
  9  6  1  0  0  0  0
 10  9  1  0  0  0  0
 10  2  2  0  0  0  0
 11 12  1  0  0  0  0
 12 13  1  0  0  0  0
 14 19  1  0  0  0  0
 14 12  1  1  0  0  0
 14 15  1  0  0  0  0
 16 19  1  0  0  0  0
 16 20  1  0  0  0  0
 18 20  1  0  0  0  0
 18 15  1  0  0  0  0
 18 17  1  1  0  0  0
 22 21  1  0  0  0  0
 23  9  1  0  0  0  0
 24 23  1  0  0  0  0
 25 30  1  0  0  0  0
 27 31  1  0  0  0  0
 28 31  1  0  0  0  0
 28 29  2  0  0  0  0
 30 26  2  6  0  0  0
 30 33  1  0  0  0  0
 30 32  1  0  0  0  0
 32 28  1  0  0  0  0
 33 27  1  0  0  0  0
M  END
>  <MODEL>
2

>  <REMARK>
 VINA RESULT:      -6.9      2.466      5.155
  Name = 
  6 active torsions:
  status: ('A' for Active; 'I' for Inactive)
    1  A    between atoms: C_7  and  C_13
    2  A    between atoms: O_10  and  C_32
    3  A    between atoms: P_12  and  C_21
    4  A    between atoms: C_13  and  C_26
    5  A    between atoms: C_21  and  C_31
    6  A    between atoms: C_30  and  C_32
                            x       y       z     vdW  Elec       q    Type
                         _______ _______ _______ _____ _____    ______ ____

>  <TORSDO>
F 6

$$$$
=
 OpenBabel11062421133D

 33 36  0  0  1  0  0  0  0  0999 V2000
  190.9130  173.2530  143.8410 O   0  0  0  0  0  0  0  0  0  0  0  0
  189.2040  174.9700  143.8760 C   0  0  0  0  0  0  0  0  0  0  0  0
  191.8940  174.2550  144.0780 C   0  0  0  0  0  2  0  0  0  0  0  0
  187.8750  175.4300  143.7520 N   0  0  0  0  0  0  0  0  0  0  0  0
  191.3310  175.3780  144.9040 C   0  0  0  0  0  0  0  0  0  0  0  0
  187.7600  176.4820  144.5020 C   0  0  0  0  0  0  0  0  0  0  0  0
  192.0580  176.0030  145.7190 O   0  0  0  0  0  0  0  0  0  0  0  0
  189.7900  173.7930  143.1460 C   0  0  1  0  0  3  0  0  0  0  0  0
  189.0510  176.8280  145.2310 C   0  0  2  0  0  0  0  0  0  0  0  0
  189.9220  175.7250  144.6740 C   0  0  0  0  0  0  0  0  0  0  0  0
  185.5230  176.6340  145.5720 C   0  0  0  0  0  1  0  0  0  0  0  0
  186.4610  177.2730  144.5540 C   0  0  0  0  0  0  0  0  0  0  0  0
  186.7110  178.7050  145.0110 C   0  0  0  0  0  1  0  0  0  0  0  0
  185.7960  177.3210  143.1600 C   0  0  2  0  0  3  0  0  0  0  0  0
  186.6940  177.8110  142.1870 O   0  0  0  0  0  0  0  0  0  0  0  0
  183.8710  178.0300  141.7410 C   0  0  0  0  0  2  0  0  0  0  0  0
  187.1060  177.7140  139.9400 O   0  0  0  0  0  1  0  0  0  0  0  0
  186.1560  177.4720  140.9310 C   0  0  2  0  0  3  0  0  0  0  0  0
  184.5020  178.1530  143.1240 C   0  0  0  0  0  2  0  0  0  0  0  0
  184.9090  178.3130  140.6570 C   0  0  0  0  0  2  0  0  0  0  0  0
  188.4960  175.3780  147.1190 O   0  0  0  0  0  1  0  0  0  0  0  0
  188.7980  176.6890  146.7470 C   0  0  0  0  0  2  0  0  0  0  0  0
  189.4450  178.1240  144.8110 O   0  0  0  0  0  0  0  0  0  0  0  0
  190.0630  178.0770  143.5540 C   0  0  0  0  0  1  0  0  0  0  0  0
  190.1240  174.1540  141.7010 C   0  0  0  0  0  2  0  0  0  0  0  0
  187.8320  172.7070  141.3400 O   0  0  0  0  0  0  0  0  0  0  0  0
  188.9530  171.9620  138.2660 C   0  0  0  0  0  2  0  0  0  0  0  0
  188.1850  174.3550  138.1310 C   0  0  0  0  0  0  0  0  0  0  0  0
  187.5330  175.1720  137.4300 O   0  0  0  0  0  0  0  0  0  0  0  0
  188.9390  173.3810  140.5620 P   0  0  1  0  0  0  0  0  0  0  0  0
  188.9280  173.2450  137.4410 C   0  0  0  0  0  2  0  0  0  0  0  0
  188.2630  174.5590  139.5130 O   0  0  0  0  0  0  0  0  0  0  0  0
  189.7770  172.1570  139.5260 C   0  0  0  0  0  2  0  0  0  0  0  0
  1  3  1  0  0  0  0
  2 10  2  0  0  0  0
  3  5  1  0  0  0  0
  4  2  1  0  0  0  0
  4  6  2  0  0  0  0
  5  7  2  0  0  0  0
  6 12  1  0  0  0  0
  6  9  1  0  0  0  0
  8 25  1  6  0  0  0
  8  1  1  0  0  0  0
  8  2  1  0  0  0  0
  9 22  1  1  0  0  0
 10  5  1  0  0  0  0
 10  9  1  0  0  0  0
 12 13  1  0  0  0  0
 12 11  1  0  0  0  0
 14 12  1  1  0  0  0
 15 14  1  0  0  0  0
 16 19  1  0  0  0  0
 18 17  1  6  0  0  0
 18 15  1  0  0  0  0
 19 14  1  0  0  0  0
 20 18  1  0  0  0  0
 20 16  1  0  0  0  0
 22 21  1  0  0  0  0
 23  9  1  0  0  0  0
 24 23  1  0  0  0  0
 27 33  1  0  0  0  0
 28 32  1  0  0  0  0
 29 28  2  0  0  0  0
 30 26  2  1  0  0  0
 30 25  1  0  0  0  0
 31 28  1  0  0  0  0
 31 27  1  0  0  0  0
 32 30  1  0  0  0  0
 33 30  1  0  0  0  0
M  END
>  <MODEL>
3

>  <REMARK>
 VINA RESULT:      -6.9      2.708      6.676
  Name = 
  6 active torsions:
  status: ('A' for Active; 'I' for Inactive)
    1  A    between atoms: C_7  and  C_13
    2  A    between atoms: O_10  and  C_32
    3  A    between atoms: P_12  and  C_21
    4  A    between atoms: C_13  and  C_26
    5  A    between atoms: C_21  and  C_31
    6  A    between atoms: C_30  and  C_32
                            x       y       z     vdW  Elec       q    Type
                         _______ _______ _______ _____ _____    ______ ____

>  <TORSDO>
F 6

$$$$
=
 OpenBabel11062421133D

 33 36  0  0  1  0  0  0  0  0999 V2000
  192.0800  173.1710  144.7760 O   0  0  0  0  0  0  0  0  0  0  0  0
  190.4780  174.6620  143.7370 C   0  0  0  0  0  0  0  0  0  0  0  0
  193.0610  174.1970  144.6860 C   0  0  0  0  0  2  0  0  0  0  0  0
  189.2110  174.9750  143.1980 N   0  0  0  0  0  0  0  0  0  0  0  0
  192.4320  175.5580  144.7990 C   0  0  0  0  0  0  0  0  0  0  0  0
  189.0320  176.2510  143.3520 C   0  0  0  0  0  0  0  0  0  0  0  0
  193.0510  176.5080  145.3430 O   0  0  0  0  0  0  0  0  0  0  0  0
  191.1120  173.2980  143.7360 C   0  0  1  0  0  3  0  0  0  0  0  0
  190.2070  176.9300  144.0420 C   0  0  2  0  0  0  0  0  0  0  0  0
  191.0970  175.7200  144.2060 C   0  0  0  0  0  0  0  0  0  0  0  0
  188.1710  177.8670  141.6730 C   0  0  0  0  0  1  0  0  0  0  0  0
  187.7840  176.9400  142.8190 C   0  0  0  0  0  0  0  0  0  0  0  0
  186.7950  175.9240  142.2610 C   0  0  0  0  0  1  0  0  0  0  0  0
  187.0770  177.7320  143.9440 C   0  0  2  0  0  3  0  0  0  0  0  0
  186.3040  176.8760  144.7570 O   0  0  0  0  0  0  0  0  0  0  0  0
  185.6500  179.6640  144.6150 C   0  0  0  0  0  2  0  0  0  0  0  0
  185.4620  176.7220  146.8770 O   0  0  0  0  0  1  0  0  0  0  0  0
  186.0170  177.5880  145.9370 C   0  0  2  0  0  3  0  0  0  0  0  0
  186.1940  178.8790  143.4240 C   0  0  0  0  0  2  0  0  0  0  0  0
  185.0270  178.7140  145.6350 C   0  0  0  0  0  2  0  0  0  0  0  0
  189.4050  176.4950  146.3100 O   0  0  0  0  0  1  0  0  0  0  0  0
  189.7090  177.4980  145.3880 C   0  0  0  0  0  2  0  0  0  0  0  0
  190.7280  177.8980  143.1460 O   0  0  0  0  0  0  0  0  0  0  0  0
  191.2480  178.9970  143.8450 C   0  0  0  0  0  1  0  0  0  0  0  0
  191.6900  172.9620  142.3650 C   0  0  0  0  0  2  0  0  0  0  0  0
  190.0270  170.7930  142.4710 O   0  0  0  0  0  0  0  0  0  0  0  0
  190.5870  170.3790  139.1880 C   0  0  0  0  0  2  0  0  0  0  0  0
  189.0260  172.3470  139.3530 C   0  0  0  0  0  0  0  0  0  0  0  0
  187.9870  172.8590  138.8620 O   0  0  0  0  0  0  0  0  0  0  0  0
  190.6170  171.7840  141.4940 P   0  0  1  0  0  0  0  0  0  0  0  0
  189.9260  171.5430  138.4560 C   0  0  0  0  0  2  0  0  0  0  0  0
  189.3490  172.6140  140.6870 O   0  0  0  0  0  0  0  0  0  0  0  0
  191.5620  170.8940  140.2330 C   0  0  0  0  0  2  0  0  0  0  0  0
  2 10  2  0  0  0  0
  3  1  1  0  0  0  0
  3  5  1  0  0  0  0
  4  6  2  0  0  0  0
  4  2  1  0  0  0  0
  5  7  2  0  0  0  0
  6  9  1  0  0  0  0
  8 25  1  6  0  0  0
  8  2  1  0  0  0  0
  8  1  1  0  0  0  0
  9 10  1  0  0  0  0
  9 22  1  1  0  0  0
 10  5  1  0  0  0  0
 11 12  1  0  0  0  0
 12  6  1  0  0  0  0
 13 12  1  0  0  0  0
 14 12  1  6  0  0  0
 14 15  1  0  0  0  0
 15 18  1  0  0  0  0
 16 20  1  0  0  0  0
 18 17  1  1  0  0  0
 19 14  1  0  0  0  0
 19 16  1  0  0  0  0
 20 18  1  0  0  0  0
 22 21  1  0  0  0  0
 23 24  1  0  0  0  0
 23  9  1  0  0  0  0
 27 33  1  0  0  0  0
 28 32  1  0  0  0  0
 29 28  2  0  0  0  0
 30 25  1  0  0  0  0
 30 26  2  1  0  0  0
 31 27  1  0  0  0  0
 31 28  1  0  0  0  0
 32 30  1  0  0  0  0
 33 30  1  0  0  0  0
M  END
>  <MODEL>
4

>  <REMARK>
 VINA RESULT:      -6.8      2.498      7.328
  Name = 
  6 active torsions:
  status: ('A' for Active; 'I' for Inactive)
    1  A    between atoms: C_7  and  C_13
    2  A    between atoms: O_10  and  C_32
    3  A    between atoms: P_12  and  C_21
    4  A    between atoms: C_13  and  C_26
    5  A    between atoms: C_21  and  C_31
    6  A    between atoms: C_30  and  C_32
                            x       y       z     vdW  Elec       q    Type
                         _______ _______ _______ _____ _____    ______ ____

>  <TORSDO>
F 6

$$$$
=
 OpenBabel11062421133D

 33 36  0  0  1  0  0  0  0  0999 V2000
  193.4920  174.6110  145.3430 O   0  0  0  0  0  0  0  0  0  0  0  0
  191.5050  175.6960  144.4820 C   0  0  0  0  0  0  0  0  0  0  0  0
  193.4470  175.4720  146.4730 C   0  0  0  0  0  2  0  0  0  0  0  0
  190.5030  175.9070  143.5100 N   0  0  0  0  0  0  0  0  0  0  0  0
  192.0300  175.8390  146.8170 C   0  0  0  0  0  0  0  0  0  0  0  0
  189.4480  176.3360  144.1300 C   0  0  0  0  0  0  0  0  0  0  0  0
  191.6880  176.0320  148.0130 O   0  0  0  0  0  0  0  0  0  0  0  0
  192.9090  175.2360  144.2010 C   0  0  1  0  0  3  0  0  0  0  0  0
  189.6550  176.4460  145.6340 C   0  0  2  0  0  0  0  0  0  0  0  0
  191.0990  176.0020  145.6920 C   0  0  0  0  0  0  0  0  0  0  0  0
  188.5780  177.5690  142.1580 C   0  0  0  0  0  1  0  0  0  0  0  0
  188.1900  176.7260  143.3670 C   0  0  0  0  0  0  0  0  0  0  0  0
  187.4650  175.4940  142.8420 C   0  0  0  0  0  1  0  0  0  0  0  0
  187.2170  177.5050  144.2820 C   0  0  2  0  0  3  0  0  0  0  0  0
  186.1950  176.6620  144.7680 O   0  0  0  0  0  0  0  0  0  0  0  0
  185.7480  179.4900  144.6300 C   0  0  0  0  0  2  0  0  0  0  0  0
  184.7480  176.4560  146.5260 O   0  0  0  0  0  1  0  0  0  0  0  0
  185.6010  177.3300  145.8550 C   0  0  2  0  0  3  0  0  0  0  0  0
  186.5870  178.7340  143.6040 C   0  0  0  0  0  2  0  0  0  0  0  0
  184.8030  178.5330  145.3510 C   0  0  0  0  0  2  0  0  0  0  0  0
  189.3040  174.2400  146.6260 O   0  0  0  0  0  1  0  0  0  0  0  0
  188.6920  175.4580  146.3250 C   0  0  0  0  0  2  0  0  0  0  0  0
  189.4680  177.8050  145.9930 O   0  0  0  0  0  0  0  0  0  0  0  0
  189.0400  177.9170  147.3240 C   0  0  0  0  0  1  0  0  0  0  0  0
  193.7650  176.3810  143.6690 C   0  0  0  0  0  2  0  0  0  0  0  0
  196.0180  176.8030  142.1770 O   0  0  0  0  0  0  0  0  0  0  0  0
  196.3520  173.4690  141.9950 C   0  0  0  0  0  2  0  0  0  0  0  0
  197.0530  174.0790  144.3340 C   0  0  0  0  0  0  0  0  0  0  0  0
  197.9270  173.8740  145.2150 O   0  0  0  0  0  0  0  0  0  0  0  0
  195.3420  175.7500  143.0260 P   0  0  1  0  0  0  0  0  0  0  0  0
  196.7050  172.9630  143.3890 C   0  0  0  0  0  2  0  0  0  0  0  0
  196.3810  175.3060  144.3180 O   0  0  0  0  0  0  0  0  0  0  0  0
  195.0600  174.2660  142.0300 C   0  0  0  0  0  2  0  0  0  0  0  0
  1  3  1  0  0  0  0
  2 10  2  0  0  0  0
  3  5  1  0  0  0  0
  4  6  2  0  0  0  0
  4  2  1  0  0  0  0
  5  7  2  0  0  0  0
  6  9  1  0  0  0  0
  8 25  1  1  0  0  0
  8  2  1  0  0  0  0
  8  1  1  0  0  0  0
  9 10  1  0  0  0  0
  9 23  1  0  0  0  0
  9 22  1  1  0  0  0
 10  5  1  0  0  0  0
 11 12  1  0  0  0  0
 12  6  1  0  0  0  0
 13 12  1  0  0  0  0
 14 12  1  6  0  0  0
 14 15  1  0  0  0  0
 15 18  1  0  0  0  0
 16 20  1  0  0  0  0
 18 17  1  6  0  0  0
 19 14  1  0  0  0  0
 19 16  1  0  0  0  0
 20 18  1  0  0  0  0
 22 21  1  0  0  0  0
 23 24  1  0  0  0  0
 27 33  1  0  0  0  0
 27 31  1  0  0  0  0
 28 29  2  0  0  0  0
 30 26  2  6  0  0  0
 30 25  1  0  0  0  0
 30 32  1  0  0  0  0
 31 28  1  0  0  0  0
 32 28  1  0  0  0  0
 33 30  1  0  0  0  0
M  END
>  <MODEL>
5

>  <REMARK>
 VINA RESULT:      -6.7      3.517      8.023
  Name = 
  6 active torsions:
  status: ('A' for Active; 'I' for Inactive)
    1  A    between atoms: C_7  and  C_13
    2  A    between atoms: O_10  and  C_32
    3  A    between atoms: P_12  and  C_21
    4  A    between atoms: C_13  and  C_26
    5  A    between atoms: C_21  and  C_31
    6  A    between atoms: C_30  and  C_32
                            x       y       z     vdW  Elec       q    Type
                         _______ _______ _______ _____ _____    ______ ____

>  <TORSDO>
F 6

$$$$
=
 OpenBabel11062421133D

 33 36  0  0  1  0  0  0  0  0999 V2000
  188.3370  173.9550  142.3680 O   0  0  0  0  0  0  0  0  0  0  0  0
  190.3310  174.8970  143.3690 C   0  0  0  0  0  0  0  0  0  0  0  0
  188.9160  174.1480  141.0840 C   0  0  0  0  0  2  0  0  0  0  0  0
  191.1060  175.3400  144.4640 N   0  0  0  0  0  0  0  0  0  0  0  0
  190.4120  174.0160  141.1400 C   0  0  0  0  0  0  0  0  0  0  0  0
  192.3530  175.2020  144.1340 C   0  0  0  0  0  0  0  0  0  0  0  0
  191.0530  173.5450  140.1650 O   0  0  0  0  0  0  0  0  0  0  0  0
  188.8290  174.9170  143.2990 C   0  0  1  0  0  3  0  0  0  0  0  0
  192.5310  174.6240  142.7380 C   0  0  2  0  0  0  0  0  0  0  0  0
  191.0730  174.5030  142.3590 C   0  0  0  0  0  0  0  0  0  0  0  0
  193.5930  177.1660  145.0140 C   0  0  0  0  0  1  0  0  0  0  0  0
  193.4680  175.6480  145.0700 C   0  0  0  0  0  0  0  0  0  0  0  0
  193.1520  175.2750  146.5130 C   0  0  0  0  0  1  0  0  0  0  0  0
  194.8060  174.9780  144.6810 C   0  0  2  0  0  3  0  0  0  0  0  0
  195.3080  174.1960  145.7430 O   0  0  0  0  0  0  0  0  0  0  0  0
  197.1100  175.2030  143.7540 C   0  0  0  0  0  2  0  0  0  0  0  0
  196.6530  172.3900  146.1380 O   0  0  0  0  0  1  0  0  0  0  0  0
  196.2890  173.3480  145.1940 C   0  0  2  0  0  3  0  0  0  0  0  0
  195.8840  175.9770  144.2280 C   0  0  0  0  0  2  0  0  0  0  0  0
  197.5180  174.1660  144.7970 C   0  0  0  0  0  2  0  0  0  0  0  0
  192.5910  172.4130  143.7790 O   0  0  0  0  0  1  0  0  0  0  0  0
  193.2340  173.2560  142.8700 C   0  0  0  0  0  2  0  0  0  0  0  0
  193.2380  175.5810  141.9650 O   0  0  0  0  0  0  0  0  0  0  0  0
  194.1160  174.9520  141.0710 C   0  0  0  0  0  1  0  0  0  0  0  0
  188.3120  176.3220  143.0070 C   0  0  0  0  0  2  0  0  0  0  0  0
  189.2120  178.0910  144.8890 O   0  0  0  0  0  0  0  0  0  0  0  0
  186.9440  176.7910  146.9930 C   0  0  0  0  0  2  0  0  0  0  0  0
  185.6250  178.2230  145.3980 C   0  0  0  0  0  0  0  0  0  0  0  0
  184.7090  179.0830  145.3290 O   0  0  0  0  0  0  0  0  0  0  0  0
  188.0180  177.2260  144.5540 P   0  0  1  0  0  0  0  0  0  0  0  0
  185.5620  177.1860  146.4850 C   0  0  0  0  0  2  0  0  0  0  0  0
  186.6200  178.2130  144.4140 O   0  0  0  0  0  0  0  0  0  0  0  0
  187.7210  176.0640  145.9090 C   0  0  0  0  0  2  0  0  0  0  0  0
  1  8  1  0  0  0  0
  2  4  1  0  0  0  0
  3  5  1  0  0  0  0
  3  1  1  0  0  0  0
  5 10  1  0  0  0  0
  6  4  2  0  0  0  0
  6 12  1  0  0  0  0
  7  5  2  0  0  0  0
  8 25  1  6  0  0  0
  8  2  1  0  0  0  0
  9 22  1  1  0  0  0
  9  6  1  0  0  0  0
 10  9  1  0  0  0  0
 10  2  2  0  0  0  0
 11 12  1  0  0  0  0
 12 13  1  0  0  0  0
 14 12  1  1  0  0  0
 14 15  1  0  0  0  0
 16 19  1  0  0  0  0
 16 20  1  0  0  0  0
 18 15  1  0  0  0  0
 18 17  1  1  0  0  0
 19 14  1  0  0  0  0
 20 18  1  0  0  0  0
 22 21  1  0  0  0  0
 23  9  1  0  0  0  0
 24 23  1  0  0  0  0
 25 30  1  0  0  0  0
 28 31  1  0  0  0  0
 29 28  2  0  0  0  0
 30 26  2  1  0  0  0
 30 33  1  0  0  0  0
 31 27  1  0  0  0  0
 32 30  1  0  0  0  0
 32 28  1  0  0  0  0
 33 27  1  0  0  0  0
M  END
>  <MODEL>
6

>  <REMARK>
 VINA RESULT:      -6.7      2.666      5.269
  Name = 
  6 active torsions:
  status: ('A' for Active; 'I' for Inactive)
    1  A    between atoms: C_7  and  C_13
    2  A    between atoms: O_10  and  C_32
    3  A    between atoms: P_12  and  C_21
    4  A    between atoms: C_13  and  C_26
    5  A    between atoms: C_21  and  C_31
    6  A    between atoms: C_30  and  C_32
                            x       y       z     vdW  Elec       q    Type
                         _______ _______ _______ _____ _____    ______ ____

>  <TORSDO>
F 6

$$$$
=
 OpenBabel11062421133D

 33 36  0  0  1  0  0  0  0  0999 V2000
  187.5160  173.3650  141.6050 O   0  0  0  0  0  0  0  0  0  0  0  0
  189.4170  174.3990  142.6930 C   0  0  0  0  0  0  0  0  0  0  0  0
  188.4060  172.7430  140.6880 C   0  0  0  0  0  2  0  0  0  0  0  0
  190.0170  175.2490  143.6490 N   0  0  0  0  0  0  0  0  0  0  0  0
  189.7300  172.4480  141.3350 C   0  0  0  0  0  0  0  0  0  0  0  0
  191.1980  174.7750  143.8980 C   0  0  0  0  0  0  0  0  0  0  0  0
  190.3990  171.4360  141.0000 O   0  0  0  0  0  0  0  0  0  0  0  0
  188.0550  174.5950  142.0850 C   0  0  1  0  0  3  0  0  0  0  0  0
  191.5040  173.5120  143.1050 C   0  0  2  0  0  0  0  0  0  0  0  0
  190.2100  173.4180  142.3300 C   0  0  0  0  0  0  0  0  0  0  0  0
  191.9010  176.9930  144.7690 C   0  0  0  0  0  1  0  0  0  0  0  0
  192.1490  175.4910  144.8460 C   0  0  0  0  0  0  0  0  0  0  0  0
  191.9020  175.0680  146.2890 C   0  0  0  0  0  1  0  0  0  0  0  0
  193.6180  175.1650  144.4930 C   0  0  2  0  0  3  0  0  0  0  0  0
  194.2100  174.3540  145.4850 O   0  0  0  0  0  0  0  0  0  0  0  0
  195.8750  175.9770  143.8100 C   0  0  0  0  0  2  0  0  0  0  0  0
  195.8780  172.8140  145.7600 O   0  0  0  0  0  1  0  0  0  0  0  0
  195.3770  173.8070  144.9190 C   0  0  2  0  0  3  0  0  0  0  0  0
  194.4880  176.4150  144.2700 C   0  0  0  0  0  2  0  0  0  0  0  0
  196.4290  174.9030  144.7410 C   0  0  0  0  0  2  0  0  0  0  0  0
  190.4840  171.9200  144.6540 O   0  0  0  0  0  1  0  0  0  0  0  0
  191.6930  172.3520  144.1050 C   0  0  0  0  0  2  0  0  0  0  0  0
  192.6330  173.7810  142.2890 O   0  0  0  0  0  0  0  0  0  0  0  0
  193.3690  172.6120  142.0530 C   0  0  0  0  0  1  0  0  0  0  0  0
  188.0860  175.6730  141.0060 C   0  0  0  0  0  2  0  0  0  0  0  0
  188.4760  178.3010  141.6530 O   0  0  0  0  0  0  0  0  0  0  0  0
  185.7530  178.0810  143.6010 C   0  0  0  0  0  2  0  0  0  0  0  0
  184.8780  178.1630  141.2430 C   0  0  0  0  0  0  0  0  0  0  0  0
  184.0070  178.6900  140.5040 O   0  0  0  0  0  0  0  0  0  0  0  0
  187.4080  177.2320  141.6450 P   0  0  1  0  0  0  0  0  0  0  0  0
  184.5430  177.9150  142.6880 C   0  0  0  0  0  2  0  0  0  0  0  0
  186.0890  177.7510  140.6770 O   0  0  0  0  0  0  0  0  0  0  0  0
  186.7800  176.9970  143.3250 C   0  0  0  0  0  2  0  0  0  0  0  0
  1  8  1  0  0  0  0
  2  4  1  0  0  0  0
  3  5  1  0  0  0  0
  3  1  1  0  0  0  0
  4  6  2  0  0  0  0
  5 10  1  0  0  0  0
  6 12  1  0  0  0  0
  7  5  2  0  0  0  0
  8 25  1  6  0  0  0
  8  2  1  0  0  0  0
  9  6  1  0  0  0  0
  9 22  1  1  0  0  0
 10  2  2  0  0  0  0
 10  9  1  0  0  0  0
 11 12  1  0  0  0  0
 12 13  1  0  0  0  0
 14 12  1  1  0  0  0
 14 15  1  0  0  0  0
 16 19  1  0  0  0  0
 16 20  1  0  0  0  0
 18 15  1  0  0  0  0
 18 17  1  1  0  0  0
 19 14  1  0  0  0  0
 20 18  1  0  0  0  0
 22 21  1  0  0  0  0
 23  9  1  0  0  0  0
 24 23  1  0  0  0  0
 25 30  1  0  0  0  0
 28 31  1  0  0  0  0
 29 28  2  0  0  0  0
 30 26  2  1  0  0  0
 30 33  1  0  0  0  0
 31 27  1  0  0  0  0
 32 28  1  0  0  0  0
 32 30  1  0  0  0  0
 33 27  1  0  0  0  0
M  END
>  <MODEL>
7

>  <REMARK>
 VINA RESULT:      -6.6      2.793      5.334
  Name = 
  6 active torsions:
  status: ('A' for Active; 'I' for Inactive)
    1  A    between atoms: C_7  and  C_13
    2  A    between atoms: O_10  and  C_32
    3  A    between atoms: P_12  and  C_21
    4  A    between atoms: C_13  and  C_26
    5  A    between atoms: C_21  and  C_31
    6  A    between atoms: C_30  and  C_32
                            x       y       z     vdW  Elec       q    Type
                         _______ _______ _______ _____ _____    ______ ____

>  <TORSDO>
F 6

$$$$
=
 OpenBabel11062421133D

 33 36  0  0  1  0  0  0  0  0999 V2000
  192.8680  172.7680  140.6110 O   0  0  0  0  0  0  0  0  0  0  0  0
  192.0460  174.1610  142.4140 C   0  0  0  0  0  0  0  0  0  0  0  0
  191.7610  171.8980  140.8080 C   0  0  0  0  0  2  0  0  0  0  0  0
  192.1270  175.2600  143.2980 N   0  0  0  0  0  0  0  0  0  0  0  0
  190.5560  172.6550  141.2910 C   0  0  0  0  0  0  0  0  0  0  0  0
  190.9130  175.5890  143.6150 C   0  0  0  0  0  0  0  0  0  0  0  0
  189.3960  172.2950  140.9630 O   0  0  0  0  0  0  0  0  0  0  0  0
  193.2200  173.4280  141.8250 C   0  0  1  0  0  3  0  0  0  0  0  0
  189.8700  174.7110  142.9380 C   0  0  2  0  0  0  0  0  0  0  0  0
  190.8070  173.7910  142.1900 C   0  0  0  0  0  0  0  0  0  0  0  0
  191.5230  176.5190  145.8360 C   0  0  0  0  0  1  0  0  0  0  0  0
  190.6360  176.7070  144.6110 C   0  0  0  0  0  0  0  0  0  0  0  0
  190.9750  178.0670  144.0140 C   0  0  0  0  0  1  0  0  0  0  0  0
  189.1440  176.7170  145.0170 C   0  0  2  0  0  3  0  0  0  0  0  0
  188.5170  177.9140  144.6120 O   0  0  0  0  0  0  0  0  0  0  0  0
  187.4170  176.4090  146.7900 C   0  0  0  0  0  2  0  0  0  0  0  0
  186.4580  178.7440  144.0630 O   0  0  0  0  0  1  0  0  0  0  0  0
  187.1290  177.6860  144.6740 C   0  0  2  0  0  3  0  0  0  0  0  0
  188.9170  176.5050  146.5240 C   0  0  0  0  0  2  0  0  0  0  0  0
  186.6870  177.5780  146.1340 C   0  0  0  0  0  2  0  0  0  0  0  0
  187.7050  175.1660  141.9000 O   0  0  0  0  0  1  0  0  0  0  0  0
  189.0270  175.6030  142.0020 C   0  0  0  0  0  2  0  0  0  0  0  0
  189.1330  174.0590  143.9590 O   0  0  0  0  0  0  0  0  0  0  0  0
  189.9220  173.1010  144.6120 C   0  0  0  0  0  1  0  0  0  0  0  0
  193.8390  172.4750  142.8420 C   0  0  0  0  0  2  0  0  0  0  0  0
  196.3200  172.3950  143.9910 O   0  0  0  0  0  0  0  0  0  0  0  0
  195.3560  174.9660  145.9190 C   0  0  0  0  0  2  0  0  0  0  0  0
  195.7740  175.9610  143.6460 C   0  0  0  0  0  0  0  0  0  0  0  0
  196.3110  176.9290  143.0470 O   0  0  0  0  0  0  0  0  0  0  0  0
  195.1370  173.3150  143.7940 P   0  0  1  0  0  0  0  0  0  0  0  0
  195.2070  176.1880  145.0200 C   0  0  0  0  0  2  0  0  0  0  0  0
  195.6490  174.7370  142.9810 O   0  0  0  0  0  0  0  0  0  0  0  0
  194.4970  173.8220  145.4090 C   0  0  0  0  0  2  0  0  0  0  0  0
  1  3  1  0  0  0  0
  1  8  1  0  0  0  0
  2  4  1  0  0  0  0
  3  5  1  0  0  0  0
  4  6  2  0  0  0  0
  5 10  1  0  0  0  0
  6 12  1  0  0  0  0
  7  5  2  0  0  0  0
  8  2  1  0  0  0  0
  8 25  1  1  0  0  0
  9 22  1  6  0  0  0
  9  6  1  0  0  0  0
  9 23  1  0  0  0  0
 10  2  2  0  0  0  0
 10  9  1  0  0  0  0
 12 11  1  0  0  0  0
 13 12  1  0  0  0  0
 14 12  1  1  0  0  0
 14 19  1  0  0  0  0
 15 18  1  0  0  0  0
 15 14  1  0  0  0  0
 18 17  1  1  0  0  0
 18 20  1  0  0  0  0
 19 16  1  0  0  0  0
 20 16  1  0  0  0  0
 21 22  1  0  0  0  0
 23 24  1  0  0  0  0
 25 30  1  0  0  0  0
 28 31  1  0  0  0  0
 29 28  2  0  0  0  0
 30 26  2  1  0  0  0
 30 33  1  0  0  0  0
 31 27  1  0  0  0  0
 32 28  1  0  0  0  0
 32 30  1  0  0  0  0
 33 27  1  0  0  0  0
M  END
>  <MODEL>
8

>  <REMARK>
 VINA RESULT:      -6.6      3.085      7.625
  Name = 
  6 active torsions:
  status: ('A' for Active; 'I' for Inactive)
    1  A    between atoms: C_7  and  C_13
    2  A    between atoms: O_10  and  C_32
    3  A    between atoms: P_12  and  C_21
    4  A    between atoms: C_13  and  C_26
    5  A    between atoms: C_21  and  C_31
    6  A    between atoms: C_30  and  C_32
                            x       y       z     vdW  Elec       q    Type
                         _______ _______ _______ _____ _____    ______ ____

>  <TORSDO>
F 6

$$$$
=
 OpenBabel11062421133D

 33 36  0  0  1  0  0  0  0  0999 V2000
  187.7780  177.5120  141.0470 O   0  0  0  0  0  0  0  0  0  0  0  0
  188.6100  176.2310  142.9270 C   0  0  0  0  0  0  0  0  0  0  0  0
  186.5940  177.7850  141.7840 C   0  0  0  0  0  2  0  0  0  0  0  0
  189.5570  175.4070  143.5730 N   0  0  0  0  0  0  0  0  0  0  0  0
  186.8780  177.8560  143.2580 C   0  0  0  0  0  0  0  0  0  0  0  0
  189.4570  175.6290  144.8470 C   0  0  0  0  0  0  0  0  0  0  0  0
  186.2260  178.6340  144.0020 O   0  0  0  0  0  0  0  0  0  0  0  0
  188.3530  176.2690  141.4460 C   0  0  1  0  0  3  0  0  0  0  0  0
  188.3960  176.6680  145.1800 C   0  0  2  0  0  0  0  0  0  0  0  0
  187.9100  176.9480  143.7760 C   0  0  0  0  0  0  0  0  0  0  0  0
  189.8830  175.2420  147.2630 C   0  0  0  0  0  1  0  0  0  0  0  0
  190.2980  174.8510  145.8490 C   0  0  0  0  0  0  0  0  0  0  0  0
  190.0660  173.3520  145.7110 C   0  0  0  0  0  1  0  0  0  0  0  0
  191.8030  175.1290  145.6290 C   0  0  2  0  0  3  0  0  0  0  0  0
  192.4710  173.9710  145.1780 O   0  0  0  0  0  0  0  0  0  0  0  0
  193.9550  176.0280  146.5130 C   0  0  0  0  0  2  0  0  0  0  0  0
  194.3110  173.3330  143.9800 O   0  0  0  0  0  1  0  0  0  0  0  0
  193.7070  174.3930  144.6550 C   0  0  2  0  0  3  0  0  0  0  0  0
  192.5160  175.6760  146.8780 C   0  0  0  0  0  2  0  0  0  0  0  0
  194.6190  174.8600  145.7900 C   0  0  0  0  0  2  0  0  0  0  0  0
  190.2230  178.2910  145.1060 O   0  0  0  0  0  1  0  0  0  0  0  0
  189.1000  177.8810  145.8260 C   0  0  0  0  0  2  0  0  0  0  0  0
  187.4240  176.0400  146.0000 O   0  0  0  0  0  0  0  0  0  0  0  0
  186.8490  176.9610  146.8880 C   0  0  0  0  0  1  0  0  0  0  0  0
  187.5120  175.0760  141.0040 C   0  0  0  0  0  2  0  0  0  0  0  0
  188.0830  172.9100  139.4340 O   0  0  0  0  0  0  0  0  0  0  0  0
  189.8300  171.6750  142.0190 C   0  0  0  0  0  2  0  0  0  0  0  0
  191.2650  173.5090  141.0640 C   0  0  0  0  0  0  0  0  0  0  0  0
  192.4410  173.8030  140.7260 O   0  0  0  0  0  0  0  0  0  0  0  0
  188.5720  173.6410  140.6640 P   0  0  1  0  0  0  0  0  0  0  0  0
  191.0610  172.5550  142.2080 C   0  0  0  0  0  2  0  0  0  0  0  0
  190.1960  174.1420  140.4220 O   0  0  0  0  0  0  0  0  0  0  0  0
  188.5640  172.5110  142.0770 C   0  0  0  0  0  2  0  0  0  0  0  0
  1  8  1  0  0  0  0
  1  3  1  0  0  0  0
  2  4  1  0  0  0  0
  2 10  2  0  0  0  0
  3  5  1  0  0  0  0
  4  6  2  0  0  0  0
  5 10  1  0  0  0  0
  5  7  2  0  0  0  0
  6  9  1  0  0  0  0
  6 12  1  0  0  0  0
  8 25  1  1  0  0  0
  8  2  1  0  0  0  0
  9 22  1  1  0  0  0
  9 23  1  0  0  0  0
 10  9  1  0  0  0  0
 12 11  1  0  0  0  0
 13 12  1  0  0  0  0
 14 12  1  1  0  0  0
 14 19  1  0  0  0  0
 15 14  1  0  0  0  0
 16 19  1  0  0  0  0
 18 17  1  1  0  0  0
 18 15  1  0  0  0  0
 18 20  1  0  0  0  0
 20 16  1  0  0  0  0
 21 22  1  0  0  0  0
 23 24  1  0  0  0  0
 27 33  1  0  0  0  0
 27 31  1  0  0  0  0
 28 31  1  0  0  0  0
 29 28  2  0  0  0  0
 30 26  2  6  0  0  0
 30 25  1  0  0  0  0
 30 33  1  0  0  0  0
 32 30  1  0  0  0  0
 32 28  1  0  0  0  0
M  END
>  <MODEL>
9

>  <REMARK>
 VINA RESULT:      -6.6      2.398      6.632
  Name = 
  6 active torsions:
  status: ('A' for Active; 'I' for Inactive)
    1  A    between atoms: C_7  and  C_13
    2  A    between atoms: O_10  and  C_32
    3  A    between atoms: P_12  and  C_21
    4  A    between atoms: C_13  and  C_26
    5  A    between atoms: C_21  and  C_31
    6  A    between atoms: C_30  and  C_32
                            x       y       z     vdW  Elec       q    Type
                         _______ _______ _______ _____ _____    ______ ____

>  <TORSDO>
F 6

$$$$
