=
 OpenBabel11062420073D

 35 41  0  0  1  0  0  0  0  0999 V2000
  191.4070  176.4170  145.4110 C   0  0  2  0  0  3  0  0  0  0  0  0
  191.5530  178.4090  143.9060 C   0  0  0  0  0  2  0  0  0  0  0  0
  187.2250  176.7290  144.9220 C   0  0  2  0  0  3  0  0  0  0  0  0
  189.9310  176.7890  145.6470 C   0  0  2  0  0  0  0  0  0  0  0  0
  185.5670  179.2140  146.6670 C   0  0  0  0  0  2  0  0  0  0  0  0
  189.2040  177.4950  144.4330 C   0  0  1  0  0  3  0  0  0  0  0  0
  187.8710  177.9150  144.6000 O   0  0  0  0  0  0  0  0  0  0  0  0
  187.7500  175.8880  147.0480 C   0  0  0  0  0  2  0  0  0  0  0  0
  187.4110  178.6050  147.9840 O   0  0  0  0  0  0  0  0  0  0  0  0
  191.9110  176.9290  144.0550 C   0  0  0  0  0  2  0  0  0  0  0  0
  186.6930  178.2880  147.0400 C   0  0  0  0  0  0  0  0  0  0  0  0
  185.1340  177.8110  144.8110 O   0  0  0  0  0  0  0  0  0  0  0  0
  189.7700  177.5390  146.9590 C   0  0  0  0  0  2  0  0  0  0  0  0
  189.2970  176.0910  146.8850 C   0  0  2  0  0  3  0  0  0  0  0  0
  184.5140  178.4340  145.9010 C   0  0  0  0  0  2  0  0  0  0  0  0
  185.7720  176.6550  145.3070 C   0  0  2  0  0  3  0  0  0  0  0  0
  190.0350  178.6340  143.8230 C   0  0  0  0  0  2  0  0  0  0  0  0
  186.8480  176.9130  146.3790 C   0  0  1  0  0  0  0  0  0  0  0  0
  189.1140  173.5630  141.5410 C   0  0  0  0  0  3  0  0  0  0  0  0
  191.4500  171.8000  143.5930 C   0  0  0  0  0  0  0  0  0  0  0  0
  191.9930  170.4960  143.7720 N   0  0  0  0  0  1  0  0  0  0  0  0
  190.6490  172.0360  142.5950 N   0  0  0  0  0  0  0  0  0  0  0  0
  190.0980  173.3460  142.4040 C   0  0  0  0  0  0  0  0  0  0  0  0
  190.6610  174.5080  143.1630 C   0  0  0  0  0  2  0  0  0  0  0  0
  191.7060  172.8140  144.5800 N   0  0  0  0  0  0  0  0  0  0  0  0
  191.5790  174.9710  145.5010 N   0  0  0  0  0  2  0  0  0  0  0  0
  191.3190  174.0470  144.4410 C   0  0  0  0  0  0  0  0  0  0  0  0
  188.5200  172.5070  140.7880 N   0  0  0  0  0  2  0  0  0  0  0  0
  188.1910  172.7410  139.3890 C   0  0  1  0  0  3  0  0  0  0  0  0
  188.8270  174.1430  137.7020 O   0  0  0  0  0  0  0  0  0  0  0  0
  188.4240  174.1660  139.0360 C   0  0  0  0  0  2  0  0  0  0  0  0
  189.6560  173.1040  137.5870 O   0  0  0  0  0  0  0  0  0  0  0  0
  189.1320  172.0790  138.4040 C   0  0  1  0  0  3  0  0  0  0  0  0
  190.2660  171.3240  139.0320 C   0  0  0  0  0  3  0  0  0  0  0  0
  191.4550  171.7970  139.0070 N   0  0  0  0  0  2  0  0  0  0  0  0
  1 26  1  6  0  0  0
  1  4  1  0  0  0  0
  2 10  1  0  0  0  0
  3  7  1  6  0  0  0
  3 16  1  0  0  0  0
  3 18  1  0  0  0  0
  4 14  1  0  0  0  0
  4 13  1  1  0  0  0
  5 11  1  0  0  0  0
  6 17  1  1  0  0  0
  6  7  1  0  0  0  0
  6  4  1  0  0  0  0
 10  1  1  0  0  0  0
 11  9  2  0  0  0  0
 12 15  1  0  0  0  0
 14 13  1  1  0  0  0
 14  8  1  0  0  0  0
 15  5  1  0  0  0  0
 16 12  1  6  0  0  0
 16 18  1  0  0  0  0
 17  2  1  0  0  0  0
 18 11  1  0  0  0  0
 18  8  1  1  0  0  0
 19 23  2  0  0  0  0
 20 21  1  0  0  0  0
 20 25  1  0  0  0  0
 22 20  2  0  0  0  0
 23 22  1  0  0  0  0
 23 24  1  0  0  0  0
 24 27  1  0  0  0  0
 27 25  2  0  0  0  0
 27 26  1  0  0  0  0
 28 19  1  0  0  0  0
 29 28  1  1  0  0  0
 30 31  1  0  0  0  0
 31 29  1  0  0  0  0
 32 30  1  0  0  0  0
 32 33  1  0  0  0  0
 33 34  1  1  0  0  0
 33 29  1  0  0  0  0
 35 34  2  0  0  0  0
M  END
>  <MODEL>
1

>  <REMARK>
 VINA RESULT:      -7.9      0.000      0.000
  Name = 
  4 active torsions:
  status: ('A' for Active; 'I' for Inactive)
    1  A    between atoms: C_1  and  N_23
    2  A    between atoms: C_8  and  N_22
    3  A    between atoms: C_9  and  N_22
    4  A    between atoms: C_19  and  C_26
                            x       y       z     vdW  Elec       q    Type
                         _______ _______ _______ _____ _____    ______ ____

>  <TORSDO>
F 4

$$$$
=
 OpenBabel11062420073D

 35 41  0  0  1  0  0  0  0  0999 V2000
  190.9200  175.5340  145.5310 C   0  0  2  0  0  3  0  0  0  0  0  0
  189.3380  174.8830  147.3560 C   0  0  0  0  0  2  0  0  0  0  0  0
  187.9500  178.2910  144.3480 C   0  0  2  0  0  3  0  0  0  0  0  0
  189.7160  176.1650  144.8060 C   0  0  2  0  0  0  0  0  0  0  0  0
  185.1850  177.0760  142.6600 C   0  0  0  0  0  2  0  0  0  0  0  0
  188.5830  176.7450  145.7450 C   0  0  1  0  0  3  0  0  0  0  0  0
  187.4270  177.2850  145.1490 O   0  0  0  0  0  0  0  0  0  0  0  0
  189.1530  177.5210  142.4870 C   0  0  0  0  0  2  0  0  0  0  0  0
  186.9710  175.6610  142.1000 O   0  0  0  0  0  0  0  0  0  0  0  0
  190.7080  175.4920  147.0500 C   0  0  0  0  0  2  0  0  0  0  0  0
  186.6510  176.7420  142.5840 C   0  0  0  0  0  0  0  0  0  0  0  0
  185.7750  179.0420  143.8360 O   0  0  0  0  0  0  0  0  0  0  0  0
  189.1830  175.2280  143.7340 C   0  0  0  0  0  2  0  0  0  0  0  0
  189.9730  176.4580  143.2990 C   0  0  2  0  0  3  0  0  0  0  0  0
  185.0210  178.5820  142.7500 C   0  0  0  0  0  2  0  0  0  0  0  0
  187.1160  179.1150  143.4040 C   0  0  2  0  0  3  0  0  0  0  0  0
  188.1850  175.7740  146.8660 C   0  0  0  0  0  2  0  0  0  0  0  0
  187.7240  177.7780  142.9390 C   0  0  1  0  0  0  0  0  0  0  0  0
  195.4310  172.7030  145.6440 C   0  0  0  0  0  3  0  0  0  0  0  0
  195.6590  175.9250  144.1150 C   0  0  0  0  0  0  0  0  0  0  0  0
  196.6150  176.7940  143.5140 N   0  0  0  0  0  1  0  0  0  0  0  0
  196.0100  174.7240  144.4680 N   0  0  0  0  0  0  0  0  0  0  0  0
  195.0560  173.8400  145.0730 C   0  0  0  0  0  0  0  0  0  0  0  0
  193.5980  174.1800  145.0320 C   0  0  0  0  0  2  0  0  0  0  0  0
  194.3460  176.4240  144.4240 N   0  0  0  0  0  0  0  0  0  0  0  0
  192.1390  176.2680  145.2110 N   0  0  0  0  0  2  0  0  0  0  0  0
  193.3970  175.6680  144.8890 C   0  0  0  0  0  0  0  0  0  0  0  0
  196.8010  172.3140  145.7300 N   0  0  0  0  0  2  0  0  0  0  0  0
  197.1280  170.8960  145.7700 C   0  0  1  0  0  3  0  0  0  0  0  0
  196.1820  168.9130  145.1440 O   0  0  0  0  0  0  0  0  0  0  0  0
  195.8850  170.0830  145.8410 C   0  0  0  0  0  2  0  0  0  0  0  0
  196.8770  169.2930  144.0700 O   0  0  0  0  0  0  0  0  0  0  0  0
  197.7140  170.3500  144.4850 C   0  0  1  0  0  3  0  0  0  0  0  0
  197.8260  171.3520  143.3730 C   0  0  0  0  0  3  0  0  0  0  0  0
  197.0570  171.2800  142.3530 N   0  0  0  0  0  2  0  0  0  0  0  0
  1 26  1  1  0  0  0
  1 10  1  0  0  0  0
  3  7  1  1  0  0  0
  4 13  1  6  0  0  0
  4  1  1  0  0  0  0
  4  6  1  0  0  0  0
  5 15  1  0  0  0  0
  6 17  1  1  0  0  0
  7  6  1  0  0  0  0
  9 11  2  0  0  0  0
 10  2  1  0  0  0  0
 11  5  1  0  0  0  0
 11 18  1  0  0  0  0
 14  8  1  6  0  0  0
 14 13  1  0  0  0  0
 14  4  1  0  0  0  0
 15 12  1  0  0  0  0
 16 12  1  1  0  0  0
 16  3  1  0  0  0  0
 17  2  1  0  0  0  0
 18  8  1  6  0  0  0
 18 16  1  0  0  0  0
 18  3  1  0  0  0  0
 19 28  1  0  0  0  0
 20 25  1  0  0  0  0
 20 22  2  0  0  0  0
 21 20  1  0  0  0  0
 22 23  1  0  0  0  0
 23 19  2  0  0  0  0
 24 23  1  0  0  0  0
 25 27  2  0  0  0  0
 27 24  1  0  0  0  0
 27 26  1  0  0  0  0
 29 28  1  6  0  0  0
 29 31  1  0  0  0  0
 30 31  1  0  0  0  0
 32 33  1  0  0  0  0
 32 30  1  0  0  0  0
 33 34  1  6  0  0  0
 33 29  1  0  0  0  0
 35 34  2  0  0  0  0
M  END
>  <MODEL>
2

>  <REMARK>
 VINA RESULT:      -7.6      4.238      6.167
  Name = 
  4 active torsions:
  status: ('A' for Active; 'I' for Inactive)
    1  A    between atoms: C_1  and  N_23
    2  A    between atoms: C_8  and  N_22
    3  A    between atoms: C_9  and  N_22
    4  A    between atoms: C_19  and  C_26
                            x       y       z     vdW  Elec       q    Type
                         _______ _______ _______ _____ _____    ______ ____

>  <TORSDO>
F 4

$$$$
=
 OpenBabel11062420073D

 35 41  0  0  1  0  0  0  0  0999 V2000
  193.9810  174.9610  144.8540 C   0  0  2  0  0  3  0  0  0  0  0  0
  196.1220  175.9940  144.0760 C   0  0  0  0  0  2  0  0  0  0  0  0
  196.3120  171.5790  145.8260 C   0  0  2  0  0  3  0  0  0  0  0  0
  194.6850  173.5940  144.7600 C   0  0  2  0  0  0  0  0  0  0  0  0
  197.3410  169.5180  143.2450 C   0  0  0  0  0  2  0  0  0  0  0  0
  196.2400  173.6090  145.0420 C   0  0  1  0  0  3  0  0  0  0  0  0
  196.9580  172.4040  144.9160 O   0  0  0  0  0  0  0  0  0  0  0  0
  194.1490  170.9370  145.1860 C   0  0  0  0  0  2  0  0  0  0  0  0
  195.2890  170.4370  142.5740 O   0  0  0  0  0  0  0  0  0  0  0  0
  194.9820  176.0990  145.0910 C   0  0  0  0  0  2  0  0  0  0  0  0
  196.0480  170.2370  143.5180 C   0  0  0  0  0  0  0  0  0  0  0  0
  197.9410  169.9070  145.5000 O   0  0  0  0  0  0  0  0  0  0  0  0
  194.3180  172.8900  143.4630 C   0  0  0  0  0  2  0  0  0  0  0  0
  193.7080  172.3820  144.7660 C   0  0  2  0  0  3  0  0  0  0  0  0
  197.8490  168.8980  144.5330 C   0  0  0  0  0  2  0  0  0  0  0  0
  196.6400  170.1200  145.9990 C   0  0  2  0  0  3  0  0  0  0  0  0
  196.9710  174.7300  144.2880 C   0  0  0  0  0  2  0  0  0  0  0  0
  195.6040  170.5660  144.9490 C   0  0  1  0  0  0  0  0  0  0  0  0
  189.3040  177.2300  143.6900 C   0  0  0  0  0  3  0  0  0  0  0  0
  189.3640  175.2320  146.6530 C   0  0  0  0  0  0  0  0  0  0  0  0
  188.5210  174.8320  147.7290 N   0  0  0  0  0  1  0  0  0  0  0  0
  188.8730  175.9310  145.6720 N   0  0  0  0  0  0  0  0  0  0  0  0
  189.7120  176.3370  144.5830 C   0  0  0  0  0  0  0  0  0  0  0  0
  191.0680  175.7220  144.4180 C   0  0  0  0  0  2  0  0  0  0  0  0
  190.7740  174.9520  146.7180 N   0  0  0  0  0  0  0  0  0  0  0  0
  192.9810  174.9370  145.9170 N   0  0  0  0  0  2  0  0  0  0  0  0
  191.5880  175.2070  145.7380 C   0  0  0  0  0  0  0  0  0  0  0  0
  188.0300  177.8670  143.7840 N   0  0  0  0  0  2  0  0  0  0  0  0
  187.2940  178.1500  142.5600 C   0  0  1  0  0  3  0  0  0  0  0  0
  185.4920  177.3220  141.4270 O   0  0  0  0  0  0  0  0  0  0  0  0
  186.6770  176.9050  142.0310 C   0  0  0  0  0  2  0  0  0  0  0  0
  184.9670  178.2380  142.2440 O   0  0  0  0  0  0  0  0  0  0  0  0
  186.0480  178.9870  142.7550 C   0  0  1  0  0  3  0  0  0  0  0  0
  185.7580  179.3550  144.1810 C   0  0  0  0  0  3  0  0  0  0  0  0
  184.5790  179.2240  144.6600 N   0  0  0  0  0  2  0  0  0  0  0  0
  1 10  1  0  0  0  0
  1 26  1  1  0  0  0
  2 17  1  0  0  0  0
  2 10  1  0  0  0  0
  3  7  1  6  0  0  0
  3 16  1  0  0  0  0
  4 13  1  6  0  0  0
  4 14  1  0  0  0  0
  4  1  1  0  0  0  0
  4  6  1  0  0  0  0
  5 11  1  0  0  0  0
  5 15  1  0  0  0  0
  6 17  1  6  0  0  0
  7  6  1  0  0  0  0
  9 11  2  0  0  0  0
 11 18  1  0  0  0  0
 14 13  1  6  0  0  0
 14  8  1  0  0  0  0
 15 12  1  0  0  0  0
 16 12  1  6  0  0  0
 18  8  1  1  0  0  0
 18  3  1  0  0  0  0
 18 16  1  0  0  0  0
 19 28  1  0  0  0  0
 19 23  2  0  0  0  0
 20 25  1  0  0  0  0
 20 21  1  0  0  0  0
 22 20  2  0  0  0  0
 23 22  1  0  0  0  0
 24 23  1  0  0  0  0
 24 27  1  0  0  0  0
 27 26  1  0  0  0  0
 27 25  2  0  0  0  0
 29 33  1  0  0  0  0
 29 28  1  1  0  0  0
 30 31  1  0  0  0  0
 30 32  1  0  0  0  0
 31 29  1  0  0  0  0
 32 33  1  0  0  0  0
 33 34  1  1  0  0  0
 34 35  2  0  0  0  0
M  END
>  <MODEL>
3

>  <REMARK>
 VINA RESULT:      -7.5      4.838      8.641
  Name = 
  4 active torsions:
  status: ('A' for Active; 'I' for Inactive)
    1  A    between atoms: C_1  and  N_23
    2  A    between atoms: C_8  and  N_22
    3  A    between atoms: C_9  and  N_22
    4  A    between atoms: C_19  and  C_26
                            x       y       z     vdW  Elec       q    Type
                         _______ _______ _______ _____ _____    ______ ____

>  <TORSDO>
F 4

$$$$
=
 OpenBabel11062420073D

 35 41  0  0  1  0  0  0  0  0999 V2000
  189.6890  176.2350  143.2110 C   0  0  2  0  0  3  0  0  0  0  0  0
  188.8960  178.1800  141.8530 C   0  0  0  0  0  2  0  0  0  0  0  0
  186.0630  176.6240  145.3380 C   0  0  2  0  0  3  0  0  0  0  0  0
  188.6560  176.6450  144.2780 C   0  0  2  0  0  0  0  0  0  0  0  0
  185.7990  179.1940  147.6400 C   0  0  0  0  0  2  0  0  0  0  0  0
  187.3430  177.3320  143.7250 C   0  0  1  0  0  3  0  0  0  0  0  0
  186.3830  177.7860  144.6490 O   0  0  0  0  0  0  0  0  0  0  0  0
  187.7670  175.8330  146.7440 C   0  0  0  0  0  2  0  0  0  0  0  0
  188.0630  178.5820  147.5950 O   0  0  0  0  0  0  0  0  0  0  0  0
  189.2700  176.6970  141.8090 C   0  0  0  0  0  2  0  0  0  0  0  0
  186.9210  178.2550  147.2890 C   0  0  0  0  0  0  0  0  0  0  0  0
  184.3310  177.7480  146.4750 O   0  0  0  0  0  0  0  0  0  0  0  0
  189.3220  177.4360  145.3920 C   0  0  0  0  0  2  0  0  0  0  0  0
  188.9000  175.9970  145.6710 C   0  0  2  0  0  3  0  0  0  0  0  0
  184.4970  178.4160  147.6950 C   0  0  0  0  0  2  0  0  0  0  0  0
  185.1380  176.5930  146.5260 C   0  0  2  0  0  3  0  0  0  0  0  0
  187.6360  178.4350  142.6970 C   0  0  0  0  0  2  0  0  0  0  0  0
  186.6440  176.8580  146.7190 C   0  0  1  0  0  0  0  0  0  0  0  0
  194.7470  174.5650  143.2900 C   0  0  0  0  0  3  0  0  0  0  0  0
  192.2820  172.0810  144.0130 C   0  0  0  0  0  0  0  0  0  0  0  0
  192.1710  170.6900  144.3010 N   0  0  0  0  0  1  0  0  0  0  0  0
  193.4570  172.6280  143.9090 N   0  0  0  0  0  0  0  0  0  0  0  0
  193.5800  174.0270  143.6220 C   0  0  0  0  0  0  0  0  0  0  0  0
  192.3810  174.9180  143.7310 C   0  0  0  0  0  2  0  0  0  0  0  0
  191.0930  172.8420  143.7330 N   0  0  0  0  0  0  0  0  0  0  0  0
  189.8800  174.7880  143.2300 N   0  0  0  0  0  2  0  0  0  0  0  0
  191.1080  174.1280  143.5510 C   0  0  0  0  0  0  0  0  0  0  0  0
  195.9320  173.7820  143.1560 N   0  0  0  0  0  2  0  0  0  0  0  0
  196.9300  173.8330  144.2150 C   0  0  1  0  0  3  0  0  0  0  0  0
  197.0090  173.6520  146.4900 O   0  0  0  0  0  0  0  0  0  0  0  0
  196.3160  174.3150  145.4800 C   0  0  0  0  0  2  0  0  0  0  0  0
  197.1730  172.3990  146.0610 O   0  0  0  0  0  0  0  0  0  0  0  0
  197.4270  172.4790  144.6760 C   0  0  1  0  0  3  0  0  0  0  0  0
  196.7820  171.3090  143.9910 C   0  0  0  0  0  3  0  0  0  0  0  0
  196.0620  170.4840  144.6530 N   0  0  0  0  0  2  0  0  0  0  0  0
  1 26  1  6  0  0  0
  1  4  1  0  0  0  0
  2 17  1  0  0  0  0
  3  7  1  6  0  0  0
  3 16  1  0  0  0  0
  3 18  1  0  0  0  0
  4 13  1  1  0  0  0
  4 14  1  0  0  0  0
  5 15  1  0  0  0  0
  6 17  1  1  0  0  0
  6  4  1  0  0  0  0
  6  7  1  0  0  0  0
 10  2  1  0  0  0  0
 10  1  1  0  0  0  0
 11  9  2  0  0  0  0
 11  5  1  0  0  0  0
 12 15  1  0  0  0  0
 14 13  1  1  0  0  0
 14  8  1  0  0  0  0
 16 12  1  6  0  0  0
 16 18  1  0  0  0  0
 18  8  1  1  0  0  0
 18 11  1  0  0  0  0
 19 23  2  0  0  0  0
 20 21  1  0  0  0  0
 22 20  2  0  0  0  0
 23 24  1  0  0  0  0
 23 22  1  0  0  0  0
 25 20  1  0  0  0  0
 26 27  1  0  0  0  0
 27 24  1  0  0  0  0
 27 25  2  0  0  0  0
 28 19  1  0  0  0  0
 29 28  1  6  0  0  0
 29 33  1  0  0  0  0
 29 31  1  0  0  0  0
 31 30  1  0  0  0  0
 32 30  1  0  0  0  0
 33 34  1  6  0  0  0
 33 32  1  0  0  0  0
 34 35  2  0  0  0  0
M  END
>  <MODEL>
4

>  <REMARK>
 VINA RESULT:      -7.5      3.634      5.097
  Name = 
  4 active torsions:
  status: ('A' for Active; 'I' for Inactive)
    1  A    between atoms: C_1  and  N_23
    2  A    between atoms: C_8  and  N_22
    3  A    between atoms: C_9  and  N_22
    4  A    between atoms: C_19  and  C_26
                            x       y       z     vdW  Elec       q    Type
                         _______ _______ _______ _____ _____    ______ ____

>  <TORSDO>
F 4

$$$$
=
 OpenBabel11062420073D

 35 41  0  0  1  0  0  0  0  0999 V2000
  191.0820  173.5100  143.0730 C   0  0  2  0  0  3  0  0  0  0  0  0
  192.1930  171.4480  143.9500 C   0  0  0  0  0  2  0  0  0  0  0  0
  194.8410  174.4630  141.4030 C   0  0  2  0  0  3  0  0  0  0  0  0
  192.4900  174.1060  142.8850 C   0  0  2  0  0  0  0  0  0  0  0  0
  197.2980  175.6740  143.5170 C   0  0  0  0  0  2  0  0  0  0  0  0
  193.6320  173.0640  142.5540 C   0  0  1  0  0  3  0  0  0  0  0  0
  194.9540  173.5320  142.4270 O   0  0  0  0  0  0  0  0  0  0  0  0
  193.6780  176.4130  141.9920 C   0  0  0  0  0  2  0  0  0  0  0  0
  195.2490  176.3740  144.4210 O   0  0  0  0  0  0  0  0  0  0  0  0
  191.1030  171.9770  143.0150 C   0  0  0  0  0  2  0  0  0  0  0  0
  195.8160  175.9260  143.4300 C   0  0  0  0  0  0  0  0  0  0  0  0
  197.1830  174.7240  141.3520 O   0  0  0  0  0  0  0  0  0  0  0  0
  192.8400  175.0300  144.0410 C   0  0  0  0  0  2  0  0  0  0  0  0
  192.4990  175.6500  142.6900 C   0  0  2  0  0  3  0  0  0  0  0  0
  197.8840  175.6640  142.1170 C   0  0  0  0  0  2  0  0  0  0  0  0
  195.9790  175.3380  140.9500 C   0  0  2  0  0  3  0  0  0  0  0  0
  193.6030  171.8360  143.4750 C   0  0  0  0  0  2  0  0  0  0  0  0
  195.0600  175.7900  142.1020 C   0  0  1  0  0  0  0  0  0  0  0  0
  186.8580  176.1760  144.9230 C   0  0  0  0  0  3  0  0  0  0  0  0
  187.5030  176.5260  141.4250 C   0  0  0  0  0  0  0  0  0  0  0  0
  186.9640  177.1460  140.2610 N   0  0  0  0  0  1  0  0  0  0  0  0
  186.9700  176.7580  142.5880 N   0  0  0  0  0  0  0  0  0  0  0  0
  187.5070  176.1410  143.7650 C   0  0  0  0  0  0  0  0  0  0  0  0
  188.8440  175.4690  143.7100 C   0  0  0  0  0  2  0  0  0  0  0  0
  188.5640  175.5640  141.2850 N   0  0  0  0  0  0  0  0  0  0  0  0
  190.1750  174.0420  142.0620 N   0  0  0  0  0  2  0  0  0  0  0  0
  189.1640  175.0260  142.3040 C   0  0  0  0  0  0  0  0  0  0  0  0
  185.5760  176.7890  145.0530 N   0  0  0  0  0  2  0  0  0  0  0  0
  185.2410  177.4580  146.3020 C   0  0  1  0  0  3  0  0  0  0  0  0
  186.2060  178.9310  147.7560 O   0  0  0  0  0  0  0  0  0  0  0  0
  186.4750  177.7420  147.0810 C   0  0  0  0  0  2  0  0  0  0  0  0
  185.5650  179.7120  146.8830 O   0  0  0  0  0  0  0  0  0  0  0  0
  184.7140  178.8670  146.1390 C   0  0  1  0  0  3  0  0  0  0  0  0
  184.6590  179.3550  144.7200 C   0  0  0  0  0  3  0  0  0  0  0  0
  185.5670  180.1330  144.2640 N   0  0  0  0  0  2  0  0  0  0  0  0
  1 26  1  6  0  0  0
  3 18  1  0  0  0  0
  3  7  1  1  0  0  0
  4  1  1  0  0  0  0
  4 13  1  1  0  0  0
  6  4  1  0  0  0  0
  6 17  1  1  0  0  0
  7  6  1  0  0  0  0
 10  1  1  0  0  0  0
 10  2  1  0  0  0  0
 11  5  1  0  0  0  0
 11  9  2  0  0  0  0
 12 15  1  0  0  0  0
 14  8  1  6  0  0  0
 14  4  1  0  0  0  0
 14 13  1  0  0  0  0
 15  5  1  0  0  0  0
 16 12  1  1  0  0  0
 16  3  1  0  0  0  0
 16 18  1  0  0  0  0
 17  2  1  0  0  0  0
 18  8  1  6  0  0  0
 18 11  1  0  0  0  0
 19 28  1  0  0  0  0
 20 22  2  0  0  0  0
 21 20  1  0  0  0  0
 22 23  1  0  0  0  0
 23 19  2  0  0  0  0
 24 23  1  0  0  0  0
 25 20  1  0  0  0  0
 25 27  2  0  0  0  0
 26 27  1  0  0  0  0
 27 24  1  0  0  0  0
 29 28  1  6  0  0  0
 29 31  1  0  0  0  0
 31 30  1  0  0  0  0
 32 30  1  0  0  0  0
 33 34  1  6  0  0  0
 33 29  1  0  0  0  0
 33 32  1  0  0  0  0
 35 34  2  0  0  0  0
M  END
>  <MODEL>
5

>  <REMARK>
 VINA RESULT:      -7.4      4.024      8.488
  Name = 
  4 active torsions:
  status: ('A' for Active; 'I' for Inactive)
    1  A    between atoms: C_1  and  N_23
    2  A    between atoms: C_8  and  N_22
    3  A    between atoms: C_9  and  N_22
    4  A    between atoms: C_19  and  C_26
                            x       y       z     vdW  Elec       q    Type
                         _______ _______ _______ _____ _____    ______ ____

>  <TORSDO>
F 4

$$$$
=
 OpenBabel11062420073D

 35 41  0  0  1  0  0  0  0  0999 V2000
  188.6190  177.3370  145.5100 C   0  0  2  0  0  3  0  0  0  0  0  0
  188.1910  175.6040  147.2630 C   0  0  0  0  0  2  0  0  0  0  0  0
  191.5690  174.6950  144.0450 C   0  0  2  0  0  3  0  0  0  0  0  0
  189.9780  176.6530  145.2630 C   0  0  2  0  0  0  0  0  0  0  0  0
  194.5650  174.4910  145.7630 C   0  0  0  0  0  2  0  0  0  0  0  0
  190.0090  175.0920  145.5120 C   0  0  1  0  0  3  0  0  0  0  0  0
  191.2330  174.4120  145.3620 O   0  0  0  0  0  0  0  0  0  0  0  0
  192.1900  176.9250  143.6620 C   0  0  0  0  0  2  0  0  0  0  0  0
  193.7800  176.6820  146.0670 O   0  0  0  0  0  0  0  0  0  0  0  0
  187.5850  176.3540  146.0750 C   0  0  0  0  0  2  0  0  0  0  0  0
  193.6710  175.6500  145.4120 C   0  0  0  0  0  0  0  0  0  0  0  0
  193.3890  173.2030  144.1640 O   0  0  0  0  0  0  0  0  0  0  0  0
  191.0910  177.3970  145.9820 C   0  0  0  0  0  2  0  0  0  0  0  0
  190.9870  177.5300  144.4660 C   0  0  2  0  0  3  0  0  0  0  0  0
  194.6800  173.5690  144.5630 C   0  0  0  0  0  2  0  0  0  0  0  0
  192.8700  174.2770  143.4130 C   0  0  2  0  0  3  0  0  0  0  0  0
  189.3500  174.6880  146.8390 C   0  0  0  0  0  2  0  0  0  0  0  0
  192.7680  175.6140  144.1730 C   0  0  1  0  0  0  0  0  0  0  0  0
  188.9200  174.2590  141.1720 C   0  0  0  0  0  3  0  0  0  0  0  0
  186.9110  177.1990  140.8530 C   0  0  0  0  0  0  0  0  0  0  0  0
  186.1370  177.9040  139.8880 N   0  0  0  0  0  1  0  0  0  0  0  0
  187.4230  176.0420  140.5510 N   0  0  0  0  0  0  0  0  0  0  0  0
  188.2030  175.3230  141.5150 C   0  0  0  0  0  0  0  0  0  0  0  0
  188.1890  175.7490  142.9510 C   0  0  0  0  0  2  0  0  0  0  0  0
  187.2100  177.8240  142.1130 N   0  0  0  0  0  0  0  0  0  0  0  0
  188.1270  177.9330  144.2730 N   0  0  0  0  0  2  0  0  0  0  0  0
  187.8340  177.2100  143.0740 C   0  0  0  0  0  0  0  0  0  0  0  0
  188.9910  173.7980  139.8240 N   0  0  0  0  0  2  0  0  0  0  0  0
  190.2500  173.2580  139.3310 C   0  0  1  0  0  3  0  0  0  0  0  0
  191.0740  171.2600  138.5930 O   0  0  0  0  0  0  0  0  0  0  0  0
  190.3500  171.8100  139.6490 C   0  0  0  0  0  2  0  0  0  0  0  0
  190.6120  171.8470  137.4870 O   0  0  0  0  0  0  0  0  0  0  0  0
  190.3600  173.1950  137.8230 C   0  0  1  0  0  3  0  0  0  0  0  0
  189.1390  173.6630  137.0860 C   0  0  0  0  0  3  0  0  0  0  0  0
  189.2350  174.5410  136.1600 N   0  0  0  0  0  2  0  0  0  0  0  0
  1 26  1  6  0  0  0
  1 10  1  0  0  0  0
  3 18  1  0  0  0  0
  3  7  1  1  0  0  0
  4  1  1  0  0  0  0
  4  6  1  0  0  0  0
  4 13  1  1  0  0  0
  6 17  1  1  0  0  0
  7  6  1  0  0  0  0
 10  2  1  0  0  0  0
 11  5  1  0  0  0  0
 11  9  2  0  0  0  0
 12 15  1  0  0  0  0
 14  8  1  6  0  0  0
 14  4  1  0  0  0  0
 14 13  1  0  0  0  0
 15  5  1  0  0  0  0
 16  3  1  0  0  0  0
 16 12  1  1  0  0  0
 16 18  1  0  0  0  0
 17  2  1  0  0  0  0
 18  8  1  6  0  0  0
 18 11  1  0  0  0  0
 19 23  2  0  0  0  0
 20 25  1  0  0  0  0
 21 20  1  0  0  0  0
 22 20  2  0  0  0  0
 22 23  1  0  0  0  0
 23 24  1  0  0  0  0
 24 27  1  0  0  0  0
 25 27  2  0  0  0  0
 27 26  1  0  0  0  0
 28 19  1  0  0  0  0
 29 31  1  0  0  0  0
 29 28  1  6  0  0  0
 30 31  1  0  0  0  0
 32 33  1  0  0  0  0
 32 30  1  0  0  0  0
 33 34  1  6  0  0  0
 33 29  1  0  0  0  0
 35 34  2  0  0  0  0
M  END
>  <MODEL>
6

>  <REMARK>
 VINA RESULT:      -7.4      3.111      5.589
  Name = 
  4 active torsions:
  status: ('A' for Active; 'I' for Inactive)
    1  A    between atoms: C_1  and  N_23
    2  A    between atoms: C_8  and  N_22
    3  A    between atoms: C_9  and  N_22
    4  A    between atoms: C_19  and  C_26
                            x       y       z     vdW  Elec       q    Type
                         _______ _______ _______ _____ _____    ______ ____

>  <TORSDO>
F 4

$$$$
=
 OpenBabel11062420073D

 35 41  0  0  1  0  0  0  0  0999 V2000
  193.9690  175.0070  143.5670 C   0  0  2  0  0  3  0  0  0  0  0  0
  195.1990  175.0380  141.3890 C   0  0  0  0  0  2  0  0  0  0  0  0
  196.6750  171.9740  144.7090 C   0  0  2  0  0  3  0  0  0  0  0  0
  194.5900  173.6190  143.8190 C   0  0  2  0  0  0  0  0  0  0  0  0
  196.1880  168.7960  143.4310 C   0  0  0  0  0  2  0  0  0  0  0  0
  196.0210  173.3880  143.1880 C   0  0  1  0  0  3  0  0  0  0  0  0
  196.6220  172.1230  143.3300 O   0  0  0  0  0  0  0  0  0  0  0  0
  194.5880  171.6480  145.7290 C   0  0  0  0  0  2  0  0  0  0  0  0
  194.0610  169.7750  143.5870 O   0  0  0  0  0  0  0  0  0  0  0  0
  194.8410  175.8550  142.6320 C   0  0  0  0  0  2  0  0  0  0  0  0
  195.2360  169.8460  143.9370 C   0  0  0  0  0  0  0  0  0  0  0  0
  197.9410  170.0000  144.4690 O   0  0  0  0  0  0  0  0  0  0  0  0
  193.5990  172.5180  143.4750 C   0  0  0  0  0  2  0  0  0  0  0  0
  193.8830  172.8100  144.9450 C   0  0  2  0  0  3  0  0  0  0  0  0
  197.3850  168.7190  144.3600 C   0  0  0  0  0  2  0  0  0  0  0  0
  197.1480  170.7160  145.3880 C   0  0  2  0  0  3  0  0  0  0  0  0
  196.1060  173.8420  141.7230 C   0  0  0  0  0  2  0  0  0  0  0  0
  195.6680  170.8760  144.9870 C   0  0  1  0  0  0  0  0  0  0  0  0
  189.0550  176.8820  144.4080 C   0  0  0  0  0  3  0  0  0  0  0  0
  191.2060  176.8320  147.2620 C   0  0  0  0  0  0  0  0  0  0  0  0
  191.2200  177.2010  148.6380 N   0  0  0  0  0  1  0  0  0  0  0  0
  190.1080  176.9430  146.5740 N   0  0  0  0  0  0  0  0  0  0  0  0
  190.0840  176.5730  145.1880 C   0  0  0  0  0  0  0  0  0  0  0  0
  191.2200  175.7920  144.6060 C   0  0  0  0  0  2  0  0  0  0  0  0
  192.4350  176.4460  146.6220 N   0  0  0  0  0  0  0  0  0  0  0  0
  193.7620  175.7000  144.8340 N   0  0  0  0  0  2  0  0  0  0  0  0
  192.4860  176.0140  145.3980 C   0  0  0  0  0  0  0  0  0  0  0  0
  187.9390  177.6310  144.8870 N   0  0  0  0  0  2  0  0  0  0  0  0
  186.6740  176.9460  145.1070 C   0  0  1  0  0  3  0  0  0  0  0  0
  184.8830  177.0890  146.5160 O   0  0  0  0  0  0  0  0  0  0  0  0
  186.2750  177.0460  146.5350 C   0  0  0  0  0  2  0  0  0  0  0  0
  184.5540  177.8830  145.4950 O   0  0  0  0  0  0  0  0  0  0  0  0
  185.4770  177.6120  144.4630 C   0  0  1  0  0  3  0  0  0  0  0  0
  185.7880  178.8880  143.7360 C   0  0  0  0  0  3  0  0  0  0  0  0
  185.5730  180.0220  144.2910 N   0  0  0  0  0  2  0  0  0  0  0  0
  1  4  1  0  0  0  0
  1 26  1  1  0  0  0
  2 17  1  0  0  0  0
  2 10  1  0  0  0  0
  3  7  1  6  0  0  0
  3 18  1  0  0  0  0
  3 16  1  0  0  0  0
  4 13  1  6  0  0  0
  4 14  1  0  0  0  0
  5 11  1  0  0  0  0
  5 15  1  0  0  0  0
  6 17  1  6  0  0  0
  6  7  1  0  0  0  0
  6  4  1  0  0  0  0
  9 11  2  0  0  0  0
 10  1  1  0  0  0  0
 11 18  1  0  0  0  0
 14 13  1  6  0  0  0
 14  8  1  0  0  0  0
 15 12  1  0  0  0  0
 16 12  1  6  0  0  0
 18 16  1  0  0  0  0
 18  8  1  1  0  0  0
 19 28  1  0  0  0  0
 19 23  2  0  0  0  0
 20 21  1  0  0  0  0
 22 20  2  0  0  0  0
 23 22  1  0  0  0  0
 24 23  1  0  0  0  0
 24 27  1  0  0  0  0
 25 20  1  0  0  0  0
 26 27  1  0  0  0  0
 27 25  2  0  0  0  0
 29 28  1  1  0  0  0
 29 31  1  0  0  0  0
 30 31  1  0  0  0  0
 32 30  1  0  0  0  0
 33 34  1  1  0  0  0
 33 29  1  0  0  0  0
 33 32  1  0  0  0  0
 34 35  2  0  0  0  0
M  END
>  <MODEL>
7

>  <REMARK>
 VINA RESULT:      -7.3      4.548      8.945
  Name = 
  4 active torsions:
  status: ('A' for Active; 'I' for Inactive)
    1  A    between atoms: C_1  and  N_23
    2  A    between atoms: C_8  and  N_22
    3  A    between atoms: C_9  and  N_22
    4  A    between atoms: C_19  and  C_26
                            x       y       z     vdW  Elec       q    Type
                         _______ _______ _______ _____ _____    ______ ____

>  <TORSDO>
F 4

$$$$
=
 OpenBabel11062420073D

 35 41  0  0  1  0  0  0  0  0999 V2000
  192.2130  173.9380  143.7010 C   0  0  2  0  0  3  0  0  0  0  0  0
  190.6990  171.9940  144.1280 C   0  0  0  0  0  2  0  0  0  0  0  0
  189.7080  176.0840  146.3360 C   0  0  2  0  0  3  0  0  0  0  0  0
  191.0880  174.8440  144.2370 C   0  0  2  0  0  0  0  0  0  0  0  0
  186.6340  177.1450  145.1530 C   0  0  0  0  0  2  0  0  0  0  0  0
  190.1640  174.1990  145.3460 C   0  0  1  0  0  3  0  0  0  0  0  0
  189.0800  174.9500  145.8380 O   0  0  0  0  0  0  0  0  0  0  0  0
  190.5880  177.5040  144.6890 C   0  0  0  0  0  2  0  0  0  0  0  0
  188.0780  177.1200  143.3030 O   0  0  0  0  0  0  0  0  0  0  0  0
  192.1260  172.5220  144.2840 C   0  0  0  0  0  2  0  0  0  0  0  0
  188.0020  177.0950  144.5280 C   0  0  0  0  0  0  0  0  0  0  0  0
  187.6720  176.8340  147.2570 O   0  0  0  0  0  0  0  0  0  0  0  0
  190.3040  175.4620  143.0900 C   0  0  0  0  0  2  0  0  0  0  0  0
  191.2650  176.3480  143.8750 C   0  0  2  0  0  3  0  0  0  0  0  0
  186.7560  177.6490  146.5790 C   0  0  0  0  0  2  0  0  0  0  0  0
  188.9610  177.2690  146.8880 C   0  0  2  0  0  3  0  0  0  0  0  0
  189.6910  172.7850  144.9780 C   0  0  0  0  0  2  0  0  0  0  0  0
  189.2730  177.1790  145.3810 C   0  0  1  0  0  0  0  0  0  0  0  0
  195.2770  175.0240  139.4810 C   0  0  0  0  0  3  0  0  0  0  0  0
  196.3300  176.4700  142.5760 C   0  0  0  0  0  0  0  0  0  0  0  0
  197.3800  177.2620  143.1200 N   0  0  0  0  0  1  0  0  0  0  0  0
  196.2840  176.2480  141.2950 N   0  0  0  0  0  0  0  0  0  0  0  0
  195.2300  175.4530  140.7360 C   0  0  0  0  0  0  0  0  0  0  0  0
  194.0270  175.1220  141.5660 C   0  0  0  0  0  2  0  0  0  0  0  0
  195.3940  175.8320  143.4620 N   0  0  0  0  0  0  0  0  0  0  0  0
  193.5140  174.5290  143.9960 N   0  0  0  0  0  2  0  0  0  0  0  0
  194.3610  175.1690  143.0360 C   0  0  0  0  0  0  0  0  0  0  0  0
  196.3920  175.2910  138.6310 N   0  0  0  0  0  2  0  0  0  0  0  0
  197.2220  174.1780  138.1920 C   0  0  1  0  0  3  0  0  0  0  0  0
  197.0440  172.3590  136.8230 O   0  0  0  0  0  0  0  0  0  0  0  0
  196.3740  173.0020  137.8620 C   0  0  0  0  0  2  0  0  0  0  0  0
  197.4870  173.3260  136.0180 O   0  0  0  0  0  0  0  0  0  0  0  0
  197.8950  174.3880  136.8520 C   0  0  1  0  0  3  0  0  0  0  0  0
  197.5670  175.6910  136.1840 C   0  0  0  0  0  3  0  0  0  0  0  0
  197.2830  175.7290  134.9360 N   0  0  0  0  0  2  0  0  0  0  0  0
  1 26  1  1  0  0  0
  1  4  1  0  0  0  0
  1 10  1  0  0  0  0
  2 10  1  0  0  0  0
  2 17  1  0  0  0  0
  3  7  1  6  0  0  0
  3 16  1  0  0  0  0
  4 13  1  6  0  0  0
  4  6  1  0  0  0  0
  5 15  1  0  0  0  0
  6 17  1  6  0  0  0
  6  7  1  0  0  0  0
  9 11  2  0  0  0  0
 11  5  1  0  0  0  0
 11 18  1  0  0  0  0
 14 13  1  6  0  0  0
 14  4  1  0  0  0  0
 14  8  1  0  0  0  0
 15 12  1  0  0  0  0
 16 12  1  6  0  0  0
 18  8  1  6  0  0  0
 18  3  1  0  0  0  0
 18 16  1  0  0  0  0
 19 23  2  0  0  0  0
 20 21  1  0  0  0  0
 20 25  1  0  0  0  0
 22 20  2  0  0  0  0
 23 22  1  0  0  0  0
 23 24  1  0  0  0  0
 24 27  1  0  0  0  0
 27 25  2  0  0  0  0
 27 26  1  0  0  0  0
 28 19  1  0  0  0  0
 29 28  1  6  0  0  0
 30 31  1  0  0  0  0
 31 29  1  0  0  0  0
 32 30  1  0  0  0  0
 32 33  1  0  0  0  0
 33 34  1  6  0  0  0
 33 29  1  0  0  0  0
 35 34  2  0  0  0  0
M  END
>  <MODEL>
8

>  <REMARK>
 VINA RESULT:      -7.3      4.559      5.798
  Name = 
  4 active torsions:
  status: ('A' for Active; 'I' for Inactive)
    1  A    between atoms: C_1  and  N_23
    2  A    between atoms: C_8  and  N_22
    3  A    between atoms: C_9  and  N_22
    4  A    between atoms: C_19  and  C_26
                            x       y       z     vdW  Elec       q    Type
                         _______ _______ _______ _____ _____    ______ ____

>  <TORSDO>
F 4

$$$$
=
 OpenBabel11062420073D

 35 41  0  0  1  0  0  0  0  0999 V2000
  189.4870  176.1990  143.0870 C   0  0  2  0  0  3  0  0  0  0  0  0
  188.6240  178.1090  141.7220 C   0  0  0  0  0  2  0  0  0  0  0  0
  185.9490  176.6110  145.3540 C   0  0  2  0  0  3  0  0  0  0  0  0
  188.4960  176.6270  144.1870 C   0  0  2  0  0  0  0  0  0  0  0  0
  185.7590  179.2290  147.6080 C   0  0  0  0  0  2  0  0  0  0  0  0
  187.1560  177.2920  143.6740 C   0  0  1  0  0  3  0  0  0  0  0  0
  186.2310  177.7600  144.6270 O   0  0  0  0  0  0  0  0  0  0  0  0
  187.7150  175.8630  146.7050 C   0  0  0  0  0  2  0  0  0  0  0  0
  188.0250  178.6320  147.4830 O   0  0  0  0  0  0  0  0  0  0  0  0
  189.0070  176.6280  141.6950 C   0  0  0  0  0  2  0  0  0  0  0  0
  186.8740  178.2900  147.2310 C   0  0  0  0  0  0  0  0  0  0  0  0
  184.2570  177.7480  146.5370 O   0  0  0  0  0  0  0  0  0  0  0  0
  189.2010  177.4460  145.2560 C   0  0  0  0  0  2  0  0  0  0  0  0
  188.8020  176.0110  145.5830 C   0  0  2  0  0  3  0  0  0  0  0  0
  184.4670  178.4440  147.7340 C   0  0  0  0  0  2  0  0  0  0  0  0
  185.0740  176.6000  146.5790 C   0  0  2  0  0  3  0  0  0  0  0  0
  187.3980  178.3740  142.6110 C   0  0  0  0  0  2  0  0  0  0  0  0
  186.5850  176.8790  146.7040 C   0  0  1  0  0  0  0  0  0  0  0  0
  194.5480  174.5600  142.8110 C   0  0  0  0  0  3  0  0  0  0  0  0
  192.1660  172.0830  143.7940 C   0  0  0  0  0  0  0  0  0  0  0  0
  192.0890  170.7000  144.1260 N   0  0  0  0  0  1  0  0  0  0  0  0
  193.3260  172.6330  143.5820 N   0  0  0  0  0  0  0  0  0  0  0  0
  193.4150  174.0250  143.2490 C   0  0  0  0  0  0  0  0  0  0  0  0
  192.2220  174.9120  143.4290 C   0  0  0  0  0  2  0  0  0  0  0  0
  190.9540  172.8300  143.5880 N   0  0  0  0  0  0  0  0  0  0  0  0
  189.6900  174.7550  143.1310 N   0  0  0  0  0  2  0  0  0  0  0  0
  190.9440  174.1100  143.3710 C   0  0  0  0  0  0  0  0  0  0  0  0
  195.7250  173.7800  142.6050 N   0  0  0  0  0  2  0  0  0  0  0  0
  196.4460  173.9140  141.3480 C   0  0  1  0  0  3  0  0  0  0  0  0
  196.5810  175.3930  139.6120 O   0  0  0  0  0  0  0  0  0  0  0  0
  195.6430  174.7000  140.3750 C   0  0  0  0  0  2  0  0  0  0  0  0
  197.5090  175.8180  140.4720 O   0  0  0  0  0  0  0  0  0  0  0  0
  197.6800  174.7880  141.4210 C   0  0  1  0  0  3  0  0  0  0  0  0
  197.9340  175.4000  142.7680 C   0  0  0  0  0  3  0  0  0  0  0  0
  197.5830  176.6070  143.0110 N   0  0  0  0  0  2  0  0  0  0  0  0
  1 26  1  6  0  0  0
  1  4  1  0  0  0  0
  2 17  1  0  0  0  0
  3  7  1  6  0  0  0
  3 16  1  0  0  0  0
  3 18  1  0  0  0  0
  4 13  1  1  0  0  0
  4 14  1  0  0  0  0
  5 15  1  0  0  0  0
  6 17  1  6  0  0  0
  6  4  1  0  0  0  0
  6  7  1  0  0  0  0
 10  2  1  0  0  0  0
 10  1  1  0  0  0  0
 11  9  2  0  0  0  0
 11  5  1  0  0  0  0
 12 15  1  0  0  0  0
 14 13  1  1  0  0  0
 14  8  1  0  0  0  0
 16 12  1  6  0  0  0
 16 18  1  0  0  0  0
 18  8  1  1  0  0  0
 18 11  1  0  0  0  0
 19 23  2  0  0  0  0
 20 21  1  0  0  0  0
 22 20  2  0  0  0  0
 23 24  1  0  0  0  0
 23 22  1  0  0  0  0
 25 20  1  0  0  0  0
 26 27  1  0  0  0  0
 27 24  1  0  0  0  0
 27 25  2  0  0  0  0
 28 19  1  0  0  0  0
 29 33  1  0  0  0  0
 29 28  1  1  0  0  0
 30 31  1  0  0  0  0
 30 32  1  0  0  0  0
 31 29  1  0  0  0  0
 32 33  1  0  0  0  0
 33 34  1  1  0  0  0
 34 35  2  0  0  0  0
M  END
>  <MODEL>
9

>  <REMARK>
 VINA RESULT:      -7.2      3.517      4.555
  Name = 
  4 active torsions:
  status: ('A' for Active; 'I' for Inactive)
    1  A    between atoms: C_1  and  N_23
    2  A    between atoms: C_8  and  N_22
    3  A    between atoms: C_9  and  N_22
    4  A    between atoms: C_19  and  C_26
                            x       y       z     vdW  Elec       q    Type
                         _______ _______ _______ _____ _____    ______ ____

>  <TORSDO>
F 4

$$$$
