=
 OpenBabel11072409413D

 25 28  0  0  1  0  0  0  0  0999 V2000
  186.9020  177.7210  147.3590 N   0  0  0  0  0  0  0  0  0  0  0  0
  184.4370  178.9830  144.8730 C   0  0  0  0  0  3  0  0  0  0  0  0
  186.7910  177.9010  143.7100 C   0  0  0  0  0  3  0  0  0  0  0  0
  184.5960  178.9510  143.4770 C   0  0  0  0  0  3  0  0  0  0  0  0
  185.7680  178.4110  142.8910 C   0  0  0  0  0  0  0  0  0  0  0  0
  186.6140  177.9510  145.0920 C   0  0  0  0  0  0  0  0  0  0  0  0
  185.6430  178.3330  147.0750 C   0  0  0  0  0  0  0  0  0  0  0  0
  184.8170  178.6890  147.9560 O   0  0  0  0  0  0  0  0  0  0  0  0
  188.7500  176.8890  146.0970 N   0  0  0  0  0  2  0  0  0  0  0  0
  185.4750  178.4710  145.6460 C   0  0  0  0  0  0  0  0  0  0  0  0
  187.4640  177.5050  146.2070 C   0  0  0  0  0  0  0  0  0  0  0  0
  190.8880  177.2790  144.9550 C   0  0  0  0  0  2  0  0  0  0  0  0
  193.2020  175.1390  144.8220 C   0  0  1  0  0  0  0  0  0  0  0  0
  191.7990  176.3280  145.7430 C   0  0  2  0  0  3  0  0  0  0  0  0
  193.3940  175.1390  143.4360 O   0  0  0  0  0  1  0  0  0  0  0  0
  194.1680  174.1650  145.4980 C   0  0  0  0  0  1  0  0  0  0  0  0
  193.9600  176.7030  146.5650 C   0  0  0  0  0  1  0  0  0  0  0  0
  189.4160  175.2460  144.4170 C   0  0  0  0  0  2  0  0  0  0  0  0
  190.7900  174.6870  144.0550 C   0  0  0  0  0  2  0  0  0  0  0  0
  189.4620  176.7240  144.8380 C   0  0  1  0  0  3  0  0  0  0  0  0
  193.1890  176.5250  145.3360 N   0  0  0  0  0  0  0  0  0  0  0  0
  191.7570  174.8810  145.2330 C   0  0  1  0  0  3  0  0  0  0  0  0
  186.7700  177.3650  139.5490 O   0  0  0  0  0  0  0  0  0  0  0  0
  186.6580  177.3440  140.8020 C   0  0  0  0  0  3  0  0  0  0  0  0
  185.9340  178.3740  141.4710 N   0  0  0  0  0  2  0  0  0  0  0  0
  2 10  1  0  0  0  0
  3  6  1  0  0  0  0
  4  2  2  0  0  0  0
  5  4  1  0  0  0  0
  5  3  2  0  0  0  0
  6 10  2  0  0  0  0
  6 11  1  0  0  0  0
  7  1  1  0  0  0  0
  7  8  2  0  0  0  0
  9 11  1  0  0  0  0
 10  7  1  0  0  0  0
 11  1  2  0  0  0  0
 13 22  1  0  0  0  0
 13 21  1  0  0  0  0
 13 16  1  1  0  0  0
 14 12  1  6  0  0  0
 15 13  1  0  0  0  0
 18 20  1  0  0  0  0
 19 18  1  0  0  0  0
 20 12  1  0  0  0  0
 20  9  1  1  0  0  0
 21 14  1  0  0  0  0
 21 17  1  0  0  0  0
 22 19  1  6  0  0  0
 22 14  1  0  0  0  0
 23 24  2  0  0  0  0
 24 25  1  0  0  0  0
 25  5  1  0  0  0  0
M  END
>  <MODEL>
1

>  <REMARK>
 VINA RESULT:      -7.9      0.000      0.000
  Name = 
  2 active torsions:
  status: ('A' for Active; 'I' for Inactive)
    1  A    between atoms: C_8  and  N_23
    2  A    between atoms: N_17  and  C_19
                            x       y       z     vdW  Elec       q    Type
                         _______ _______ _______ _____ _____    ______ ____

>  <TORSDO>
F 2

$$$$
=
 OpenBabel11072409413D

 25 28  0  0  1  0  0  0  0  0999 V2000
  187.4480  177.4370  140.8760 N   0  0  0  0  0  0  0  0  0  0  0  0
  184.4160  178.4520  142.7810 C   0  0  0  0  0  3  0  0  0  0  0  0
  186.7720  178.3060  144.3610 C   0  0  0  0  0  3  0  0  0  0  0  0
  184.3770  178.7540  144.1530 C   0  0  0  0  0  3  0  0  0  0  0  0
  185.5490  178.6830  144.9470 C   0  0  0  0  0  0  0  0  0  0  0  0
  186.7840  178.0050  143.0000 C   0  0  0  0  0  0  0  0  0  0  0  0
  186.0490  177.7240  140.9020 C   0  0  0  0  0  0  0  0  0  0  0  0
  185.2990  177.6710  139.8920 O   0  0  0  0  0  0  0  0  0  0  0  0
  189.2410  177.3990  142.4530 N   0  0  0  0  0  2  0  0  0  0  0  0
  185.6450  178.0810  142.2440 C   0  0  0  0  0  0  0  0  0  0  0  0
  187.8700  177.5970  142.0960 C   0  0  0  0  0  0  0  0  0  0  0  0
  189.5280  176.1170  144.5270 C   0  0  0  0  0  2  0  0  0  0  0  0
  192.1570  174.5250  145.2350 C   0  0  1  0  0  0  0  0  0  0  0  0
  190.5560  175.0750  144.0670 C   0  0  2  0  0  3  0  0  0  0  0  0
  192.3860  175.0710  146.5030 O   0  0  0  0  0  1  0  0  0  0  0  0
  193.2370  173.4970  144.8900 C   0  0  0  0  0  1  0  0  0  0  0  0
  190.6040  172.7700  144.4800 C   0  0  0  0  0  1  0  0  0  0  0  0
  191.2020  177.9260  143.8100 C   0  0  0  0  0  2  0  0  0  0  0  0
  192.1160  177.0250  144.6380 C   0  0  0  0  0  2  0  0  0  0  0  0
  189.7360  177.4640  143.8210 C   0  0  1  0  0  3  0  0  0  0  0  0
  190.7530  174.0780  145.1170 N   0  0  0  0  0  0  0  0  0  0  0  0
  192.0050  175.5760  144.1410 C   0  0  1  0  0  3  0  0  0  0  0  0
  186.3160  178.7010  148.5070 O   0  0  0  0  0  0  0  0  0  0  0  0
  186.3940  178.3890  147.2910 C   0  0  0  0  0  3  0  0  0  0  0  0
  185.5160  178.9910  146.3430 N   0  0  0  0  0  2  0  0  0  0  0  0
  1  7  1  0  0  0  0
  1 11  2  0  0  0  0
  2  4  1  0  0  0  0
  3  5  1  0  0  0  0
  4  5  2  0  0  0  0
  5 25  1  0  0  0  0
  6  3  2  0  0  0  0
  7 10  1  0  0  0  0
  8  7  2  0  0  0  0
 10  2  2  0  0  0  0
 10  6  1  0  0  0  0
 11  9  1  0  0  0  0
 11  6  1  0  0  0  0
 13 16  1  6  0  0  0
 13 15  1  0  0  0  0
 14 22  1  0  0  0  0
 14 12  1  1  0  0  0
 14 21  1  0  0  0  0
 17 21  1  0  0  0  0
 18 20  1  0  0  0  0
 18 19  1  0  0  0  0
 20  9  1  6  0  0  0
 20 12  1  0  0  0  0
 21 13  1  0  0  0  0
 22 19  1  1  0  0  0
 22 13  1  0  0  0  0
 24 23  2  0  0  0  0
 25 24  1  0  0  0  0
M  END
>  <MODEL>
2

>  <REMARK>
 VINA RESULT:      -7.5      1.694      4.205
  Name = 
  2 active torsions:
  status: ('A' for Active; 'I' for Inactive)
    1  A    between atoms: C_8  and  N_23
    2  A    between atoms: N_17  and  C_19
                            x       y       z     vdW  Elec       q    Type
                         _______ _______ _______ _____ _____    ______ ____

>  <TORSDO>
F 2

$$$$
=
 OpenBabel11072409413D

 25 28  0  0  1  0  0  0  0  0999 V2000
  187.6820  176.2490  147.3100 N   0  0  0  0  0  0  0  0  0  0  0  0
  185.7830  178.3340  144.8820 C   0  0  0  0  0  3  0  0  0  0  0  0
  187.9430  176.8990  143.7230 C   0  0  0  0  0  3  0  0  0  0  0  0
  186.0560  178.4390  143.5070 C   0  0  0  0  0  3  0  0  0  0  0  0
  187.1320  177.7250  142.9230 C   0  0  0  0  0  0  0  0  0  0  0  0
  187.6570  176.8170  145.0850 C   0  0  0  0  0  0  0  0  0  0  0  0
  186.6170  177.1610  147.0400 C   0  0  0  0  0  0  0  0  0  0  0  0
  185.8110  177.5830  147.9110 O   0  0  0  0  0  0  0  0  0  0  0  0
  189.4140  175.1830  146.0580 N   0  0  0  0  0  2  0  0  0  0  0  0
  186.6120  177.5090  145.6370 C   0  0  0  0  0  0  0  0  0  0  0  0
  188.2860  176.0560  146.1750 C   0  0  0  0  0  0  0  0  0  0  0  0
  191.3050  176.0630  144.7640 C   0  0  0  0  0  2  0  0  0  0  0  0
  194.2400  174.9300  144.9900 C   0  0  1  0  0  0  0  0  0  0  0  0
  192.4690  175.7000  145.6960 C   0  0  2  0  0  3  0  0  0  0  0  0
  194.4710  174.7000  143.6290 O   0  0  0  0  0  1  0  0  0  0  0  0
  195.4690  174.5410  145.8160 C   0  0  0  0  0  1  0  0  0  0  0  0
  194.3150  176.9990  146.3210 C   0  0  0  0  0  1  0  0  0  0  0  0
  190.6920  173.5700  144.7420 C   0  0  0  0  0  2  0  0  0  0  0  0
  192.1870  173.4820  144.4470 C   0  0  0  0  0  2  0  0  0  0  0  0
  190.1820  175.0180  144.8330 C   0  0  1  0  0  3  0  0  0  0  0  0
  193.7070  176.2930  145.1940 N   0  0  0  0  0  0  0  0  0  0  0  0
  192.9730  174.2620  145.5110 C   0  0  1  0  0  3  0  0  0  0  0  0
  186.7850  177.5580  139.3010 O   0  0  0  0  0  0  0  0  0  0  0  0
  186.4800  177.4450  140.5160 C   0  0  0  0  0  3  0  0  0  0  0  0
  187.4130  177.8260  141.5250 N   0  0  0  0  0  2  0  0  0  0  0  0
  2 10  1  0  0  0  0
  3  6  1  0  0  0  0
  4  2  2  0  0  0  0
  5  4  1  0  0  0  0
  5  3  2  0  0  0  0
  6 10  2  0  0  0  0
  6 11  1  0  0  0  0
  7  1  1  0  0  0  0
  7  8  2  0  0  0  0
  9 11  1  0  0  0  0
 10  7  1  0  0  0  0
 11  1  2  0  0  0  0
 12 20  1  0  0  0  0
 13 21  1  0  0  0  0
 13 22  1  0  0  0  0
 13 16  1  1  0  0  0
 14 12  1  6  0  0  0
 15 13  1  0  0  0  0
 18 20  1  0  0  0  0
 19 18  1  0  0  0  0
 20  9  1  1  0  0  0
 21 14  1  0  0  0  0
 21 17  1  0  0  0  0
 22 19  1  6  0  0  0
 22 14  1  0  0  0  0
 23 24  2  0  0  0  0
 24 25  1  0  0  0  0
 25  5  1  0  0  0  0
M  END
>  <MODEL>
3

>  <REMARK>
 VINA RESULT:      -7.4      1.190      1.430
  Name = 
  2 active torsions:
  status: ('A' for Active; 'I' for Inactive)
    1  A    between atoms: C_8  and  N_23
    2  A    between atoms: N_17  and  C_19
                            x       y       z     vdW  Elec       q    Type
                         _______ _______ _______ _____ _____    ______ ____

>  <TORSDO>
F 2

$$$$
=
 OpenBabel11072409413D

 25 28  0  0  1  0  0  0  0  0999 V2000
  189.1960  174.3260  141.6840 N   0  0  0  0  0  0  0  0  0  0  0  0
  192.9030  174.6420  141.7610 C   0  0  0  0  0  3  0  0  0  0  0  0
  191.5860  176.0530  143.8440 C   0  0  0  0  0  3  0  0  0  0  0  0
  193.6410  175.3710  142.7090 C   0  0  0  0  0  3  0  0  0  0  0  0
  192.9890  176.0770  143.7510 C   0  0  0  0  0  0  0  0  0  0  0  0
  190.8750  175.3290  142.8880 C   0  0  0  0  0  0  0  0  0  0  0  0
  190.4700  174.0110  141.1210 C   0  0  0  0  0  0  0  0  0  0  0  0
  190.6330  173.2820  140.1070 O   0  0  0  0  0  0  0  0  0  0  0  0
  188.3820  175.6070  143.5280 N   0  0  0  0  0  2  0  0  0  0  0  0
  191.5180  174.6470  141.8890 C   0  0  0  0  0  0  0  0  0  0  0  0
  189.4350  175.0940  142.7060 C   0  0  0  0  0  0  0  0  0  0  0  0
  187.8290  177.8550  144.3450 C   0  0  0  0  0  2  0  0  0  0  0  0
  185.4200  178.4510  146.2910 C   0  0  1  0  0  0  0  0  0  0  0  0
  186.3270  177.6900  144.6100 C   0  0  2  0  0  3  0  0  0  0  0  0
  186.1250  179.1550  147.2730 O   0  0  0  0  0  1  0  0  0  0  0  0
  183.9370  178.3580  146.6580 C   0  0  0  0  0  1  0  0  0  0  0  0
  184.5700  179.1490  144.0890 C   0  0  0  0  0  1  0  0  0  0  0  0
  188.2150  175.8870  145.9480 C   0  0  0  0  0  2  0  0  0  0  0  0
  187.2740  176.7430  146.7930 C   0  0  0  0  0  2  0  0  0  0  0  0
  188.5950  176.5520  144.6150 C   0  0  1  0  0  3  0  0  0  0  0  0
  185.7400  178.9840  144.9510 N   0  0  0  0  0  0  0  0  0  0  0  0
  186.0130  177.0810  145.9840 C   0  0  1  0  0  3  0  0  0  0  0  0
  194.3920  177.2080  146.9160 O   0  0  0  0  0  0  0  0  0  0  0  0
  193.7140  176.5180  146.1130 C   0  0  0  0  0  3  0  0  0  0  0  0
  193.7350  176.8200  144.7190 N   0  0  0  0  0  2  0  0  0  0  0  0
  1 11  2  0  0  0  0
  2 10  2  0  0  0  0
  2  4  1  0  0  0  0
  4  5  2  0  0  0  0
  5  3  1  0  0  0  0
  5 25  1  0  0  0  0
  6  3  2  0  0  0  0
  7  1  1  0  0  0  0
  7 10  1  0  0  0  0
  8  7  2  0  0  0  0
 10  6  1  0  0  0  0
 11  6  1  0  0  0  0
 11  9  1  0  0  0  0
 12 20  1  0  0  0  0
 13 16  1  1  0  0  0
 13 15  1  0  0  0  0
 14 12  1  1  0  0  0
 14 21  1  0  0  0  0
 14 22  1  0  0  0  0
 17 21  1  0  0  0  0
 18 19  1  0  0  0  0
 20  9  1  6  0  0  0
 20 18  1  0  0  0  0
 21 13  1  0  0  0  0
 22 13  1  0  0  0  0
 22 19  1  1  0  0  0
 24 23  2  0  0  0  0
 25 24  1  0  0  0  0
M  END
>  <MODEL>
4

>  <REMARK>
 VINA RESULT:      -7.2      2.343      7.682
  Name = 
  2 active torsions:
  status: ('A' for Active; 'I' for Inactive)
    1  A    between atoms: C_8  and  N_23
    2  A    between atoms: N_17  and  C_19
                            x       y       z     vdW  Elec       q    Type
                         _______ _______ _______ _____ _____    ______ ____

>  <TORSDO>
F 2

$$$$
=
 OpenBabel11072409413D

 25 28  0  0  1  0  0  0  0  0999 V2000
  187.8260  177.4360  146.6970 N   0  0  0  0  0  0  0  0  0  0  0  0
  184.5760  178.9050  145.6330 C   0  0  0  0  0  3  0  0  0  0  0  0
  186.0170  177.6560  143.5290 C   0  0  0  0  0  3  0  0  0  0  0  0
  184.0530  178.8720  144.3290 C   0  0  0  0  0  3  0  0  0  0  0  0
  184.7670  178.2500  143.2750 C   0  0  0  0  0  0  0  0  0  0  0  0
  186.5180  177.7080  144.8290 C   0  0  0  0  0  0  0  0  0  0  0  0
  186.6300  178.1460  147.0240 C   0  0  0  0  0  0  0  0  0  0  0  0
  186.3460  178.5560  148.1800 O   0  0  0  0  0  0  0  0  0  0  0  0
  188.7940  176.4770  144.7360 N   0  0  0  0  0  2  0  0  0  0  0  0
  185.8160  178.3080  145.8390 C   0  0  0  0  0  0  0  0  0  0  0  0
  187.7590  177.1880  145.4230 C   0  0  0  0  0  0  0  0  0  0  0  0
  190.2420  176.3990  142.7560 C   0  0  0  0  0  2  0  0  0  0  0  0
  191.5330  173.7410  141.6520 C   0  0  1  0  0  0  0  0  0  0  0  0
  191.0800  175.1540  143.0760 C   0  0  2  0  0  3  0  0  0  0  0  0
  191.1020  173.8450  140.3250 O   0  0  0  0  0  1  0  0  0  0  0  0
  192.3640  172.4710  141.8490 C   0  0  0  0  0  1  0  0  0  0  0  0
  193.3890  174.8330  142.8460 C   0  0  0  0  0  1  0  0  0  0  0  0
  188.1580  174.9150  142.9690 C   0  0  0  0  0  2  0  0  0  0  0  0
  189.0120  174.0490  142.0460 C   0  0  0  0  0  2  0  0  0  0  0  0
  188.8110  176.2680  143.2960 C   0  0  1  0  0  3  0  0  0  0  0  0
  192.1500  175.0110  142.0900 N   0  0  0  0  0  0  0  0  0  0  0  0
  190.4000  173.8400  142.6670 C   0  0  1  0  0  3  0  0  0  0  0  0
  182.4370  178.1560  140.4770 O   0  0  0  0  0  0  0  0  0  0  0  0
  182.8410  178.1890  141.6680 C   0  0  0  0  0  3  0  0  0  0  0  0
  184.2390  178.2110  141.9470 N   0  0  0  0  0  2  0  0  0  0  0  0
  1  7  1  0  0  0  0
  2 10  1  0  0  0  0
  3  6  1  0  0  0  0
  4  2  2  0  0  0  0
  5  3  2  0  0  0  0
  5  4  1  0  0  0  0
  6 11  1  0  0  0  0
  6 10  2  0  0  0  0
  7  8  2  0  0  0  0
  9 11  1  0  0  0  0
 10  7  1  0  0  0  0
 11  1  2  0  0  0  0
 12 20  1  0  0  0  0
 13 16  1  1  0  0  0
 13 21  1  0  0  0  0
 13 22  1  0  0  0  0
 14 12  1  6  0  0  0
 15 13  1  0  0  0  0
 18 20  1  0  0  0  0
 19 18  1  0  0  0  0
 20  9  1  1  0  0  0
 21 17  1  0  0  0  0
 21 14  1  0  0  0  0
 22 19  1  6  0  0  0
 22 14  1  0  0  0  0
 23 24  2  0  0  0  0
 24 25  1  0  0  0  0
 25  5  1  0  0  0  0
M  END
>  <MODEL>
5

>  <REMARK>
 VINA RESULT:      -7.0      2.271      2.625
  Name = 
  2 active torsions:
  status: ('A' for Active; 'I' for Inactive)
    1  A    between atoms: C_8  and  N_23
    2  A    between atoms: N_17  and  C_19
                            x       y       z     vdW  Elec       q    Type
                         _______ _______ _______ _____ _____    ______ ____

>  <TORSDO>
F 2

$$$$
=
 OpenBabel11072409413D

 25 28  0  0  1  0  0  0  0  0999 V2000
  192.4330  176.7520  146.3840 N   0  0  0  0  0  0  0  0  0  0  0  0
  193.7540  173.4160  145.3930 C   0  0  0  0  0  3  0  0  0  0  0  0
  191.0750  173.8820  144.5730 C   0  0  0  0  0  3  0  0  0  0  0  0
  193.0450  172.4380  144.6750 C   0  0  0  0  0  3  0  0  0  0  0  0
  191.7080  172.6640  144.2630 C   0  0  0  0  0  0  0  0  0  0  0  0
  191.7960  174.8340  145.2930 C   0  0  0  0  0  0  0  0  0  0  0  0
  193.5030  175.8050  146.3720 C   0  0  0  0  0  0  0  0  0  0  0  0
  194.6320  176.0100  146.8900 O   0  0  0  0  0  0  0  0  0  0  0  0
  190.1900  176.8450  145.5710 N   0  0  0  0  0  2  0  0  0  0  0  0
  193.0890  174.6040  145.6810 C   0  0  0  0  0  0  0  0  0  0  0  0
  191.4430  176.1830  145.7610 C   0  0  0  0  0  0  0  0  0  0  0  0
  187.7780  176.4670  145.8330 C   0  0  0  0  0  2  0  0  0  0  0  0
  185.5790  178.3160  144.5330 C   0  0  1  0  0  0  0  0  0  0  0  0
  187.2530  177.8970  145.6500 C   0  0  2  0  0  3  0  0  0  0  0  0
  184.8370  177.3210  143.8870 O   0  0  0  0  0  1  0  0  0  0  0  0
  184.9580  179.6930  144.2870 C   0  0  0  0  0  1  0  0  0  0  0  0
  185.6230  179.0380  146.8860 C   0  0  0  0  0  1  0  0  0  0  0  0
  188.8700  176.6900  143.5210 C   0  0  0  0  0  2  0  0  0  0  0  0
  187.4600  177.1780  143.2010 C   0  0  0  0  0  2  0  0  0  0  0  0
  189.0240  176.2100  144.9730 C   0  0  1  0  0  3  0  0  0  0  0  0
  185.8220  177.9400  145.9420 N   0  0  0  0  0  0  0  0  0  0  0  0
  187.0610  178.2920  144.1800 C   0  0  1  0  0  3  0  0  0  0  0  0
  190.0670  170.8780  141.5460 O   0  0  0  0  0  0  0  0  0  0  0  0
  190.7110  171.7840  142.1350 C   0  0  0  0  0  3  0  0  0  0  0  0
  190.9830  171.6730  143.5300 N   0  0  0  0  0  2  0  0  0  0  0  0
  2 10  1  0  0  0  0
  3  6  1  0  0  0  0
  4  2  2  0  0  0  0
  5  3  2  0  0  0  0
  5  4  1  0  0  0  0
  6 10  2  0  0  0  0
  6 11  1  0  0  0  0
  7  1  1  0  0  0  0
  7  8  2  0  0  0  0
  9 11  1  0  0  0  0
 10  7  1  0  0  0  0
 11  1  2  0  0  0  0
 13 16  1  6  0  0  0
 13 21  1  0  0  0  0
 14 12  1  6  0  0  0
 14 21  1  0  0  0  0
 15 13  1  0  0  0  0
 18 20  1  0  0  0  0
 19 18  1  0  0  0  0
 20  9  1  1  0  0  0
 20 12  1  0  0  0  0
 21 17  1  0  0  0  0
 22 19  1  6  0  0  0
 22 13  1  0  0  0  0
 22 14  1  0  0  0  0
 23 24  2  0  0  0  0
 24 25  1  0  0  0  0
 25  5  1  0  0  0  0
M  END
>  <MODEL>
6

>  <REMARK>
 VINA RESULT:      -6.8      2.361      7.323
  Name = 
  2 active torsions:
  status: ('A' for Active; 'I' for Inactive)
    1  A    between atoms: C_8  and  N_23
    2  A    between atoms: N_17  and  C_19
                            x       y       z     vdW  Elec       q    Type
                         _______ _______ _______ _____ _____    ______ ____

>  <TORSDO>
F 2

$$$$
=
 OpenBabel11072409413D

 25 28  0  0  1  0  0  0  0  0999 V2000
  186.2810  177.3790  140.4120 N   0  0  0  0  0  0  0  0  0  0  0  0
  184.2160  178.6200  143.2490 C   0  0  0  0  0  3  0  0  0  0  0  0
  186.3870  176.9710  144.0430 C   0  0  0  0  0  3  0  0  0  0  0  0
  184.4410  178.3390  144.6070 C   0  0  0  0  0  3  0  0  0  0  0  0
  185.5240  177.5170  145.0100 C   0  0  0  0  0  0  0  0  0  0  0  0
  186.1390  177.2570  142.7010 C   0  0  0  0  0  0  0  0  0  0  0  0
  185.1690  178.1410  140.8840 C   0  0  0  0  0  0  0  0  0  0  0  0
  184.3870  178.7850  140.1370 O   0  0  0  0  0  0  0  0  0  0  0  0
  188.0010  176.0350  141.3820 N   0  0  0  0  0  2  0  0  0  0  0  0
  185.0920  178.0570  142.3260 C   0  0  0  0  0  0  0  0  0  0  0  0
  186.8390  176.8650  141.4680 C   0  0  0  0  0  0  0  0  0  0  0  0
  188.7060  173.8490  142.2480 C   0  0  0  0  0  2  0  0  0  0  0  0
  191.6390  172.7280  141.9530 C   0  0  1  0  0  0  0  0  0  0  0  0
  189.8660  173.5360  141.2940 C   0  0  2  0  0  3  0  0  0  0  0  0
  191.8730  172.4240  143.2980 O   0  0  0  0  0  1  0  0  0  0  0  0
  192.8570  172.3650  141.1010 C   0  0  0  0  0  1  0  0  0  0  0  0
  190.3820  171.5230  140.2120 C   0  0  0  0  0  1  0  0  0  0  0  0
  189.9420  176.0130  142.8640 C   0  0  0  0  0  2  0  0  0  0  0  0
  191.0770  175.0030  143.0080 C   0  0  0  0  0  2  0  0  0  0  0  0
  188.5940  175.3550  142.5240 C   0  0  1  0  0  3  0  0  0  0  0  0
  190.3390  172.1720  141.5220 N   0  0  0  0  0  0  0  0  0  0  0  0
  191.1970  174.1690  141.7250 C   0  0  1  0  0  3  0  0  0  0  0  0
  185.9470  177.9130  148.6060 O   0  0  0  0  0  0  0  0  0  0  0  0
  185.7320  178.2290  147.4070 C   0  0  0  0  0  3  0  0  0  0  0  0
  185.7600  177.2290  146.3900 N   0  0  0  0  0  2  0  0  0  0  0  0
  1  7  1  0  0  0  0
  1 11  2  0  0  0  0
  2  4  1  0  0  0  0
  3  5  1  0  0  0  0
  4  5  2  0  0  0  0
  5 25  1  0  0  0  0
  6  3  2  0  0  0  0
  7 10  1  0  0  0  0
  8  7  2  0  0  0  0
  9 11  1  0  0  0  0
 10  6  1  0  0  0  0
 10  2  2  0  0  0  0
 11  6  1  0  0  0  0
 12 20  1  0  0  0  0
 13 16  1  6  0  0  0
 13 15  1  0  0  0  0
 14 21  1  0  0  0  0
 14 22  1  0  0  0  0
 14 12  1  1  0  0  0
 17 21  1  0  0  0  0
 18 19  1  0  0  0  0
 20  9  1  6  0  0  0
 20 18  1  0  0  0  0
 21 13  1  0  0  0  0
 22 13  1  0  0  0  0
 22 19  1  1  0  0  0
 24 23  2  0  0  0  0
 25 24  1  0  0  0  0
M  END
>  <MODEL>
7

>  <REMARK>
 VINA RESULT:      -6.8      2.604      5.024
  Name = 
  2 active torsions:
  status: ('A' for Active; 'I' for Inactive)
    1  A    between atoms: C_8  and  N_23
    2  A    between atoms: N_17  and  C_19
                            x       y       z     vdW  Elec       q    Type
                         _______ _______ _______ _____ _____    ______ ____

>  <TORSDO>
F 2

$$$$
=
 OpenBabel11072409413D

 25 28  0  0  1  0  0  0  0  0999 V2000
  192.1640  176.7010  144.4040 N   0  0  0  0  0  0  0  0  0  0  0  0
  193.0070  173.4420  142.8160 C   0  0  0  0  0  3  0  0  0  0  0  0
  190.4910  174.4930  142.0190 C   0  0  0  0  0  3  0  0  0  0  0  0
  192.2010  172.7490  141.8970 C   0  0  0  0  0  3  0  0  0  0  0  0
  190.9450  173.2690  141.4950 C   0  0  0  0  0  0  0  0  0  0  0  0
  191.3050  175.1580  142.9350 C   0  0  0  0  0  0  0  0  0  0  0  0
  193.0700  175.6100  144.2400 C   0  0  0  0  0  0  0  0  0  0  0  0
  194.1820  175.5220  144.8240 O   0  0  0  0  0  0  0  0  0  0  0  0
  190.0190  177.3180  143.5540 N   0  0  0  0  0  2  0  0  0  0  0  0
  192.5180  174.6470  143.3120 C   0  0  0  0  0  0  0  0  0  0  0  0
  191.1390  176.4330  143.6500 C   0  0  0  0  0  0  0  0  0  0  0  0
  187.7730  176.3430  143.7210 C   0  0  0  0  0  2  0  0  0  0  0  0
  185.1830  178.0420  144.3170 C   0  0  1  0  0  0  0  0  0  0  0  0
  187.0960  177.3650  144.6450 C   0  0  2  0  0  3  0  0  0  0  0  0
  184.4040  177.6040  143.2400 O   0  0  0  0  0  1  0  0  0  0  0  0
  184.4040  179.0460  145.1690 C   0  0  0  0  0  1  0  0  0  0  0  0
  185.6940  176.9880  146.4830 C   0  0  0  0  0  1  0  0  0  0  0  0
  188.2900  178.2900  142.1290 C   0  0  0  0  0  2  0  0  0  0  0  0
  186.8060  178.5400  142.3880 C   0  0  0  0  0  2  0  0  0  0  0  0
  188.8090  177.0110  142.8060 C   0  0  1  0  0  3  0  0  0  0  0  0
  185.7700  176.8850  145.0260 N   0  0  0  0  0  0  0  0  0  0  0  0
  186.5430  178.5880  143.9000 C   0  0  1  0  0  3  0  0  0  0  0  0
  188.1900  172.4110  139.2720 O   0  0  0  0  0  0  0  0  0  0  0  0
  188.8690  173.0730  140.0980 C   0  0  0  0  0  3  0  0  0  0  0  0
  190.1220  172.5700  140.5580 N   0  0  0  0  0  2  0  0  0  0  0  0
  2 10  1  0  0  0  0
  3  6  1  0  0  0  0
  4  2  2  0  0  0  0
  5  4  1  0  0  0  0
  5  3  2  0  0  0  0
  6 10  2  0  0  0  0
  6 11  1  0  0  0  0
  7  1  1  0  0  0  0
  7  8  2  0  0  0  0
  9 11  1  0  0  0  0
 10  7  1  0  0  0  0
 11  1  2  0  0  0  0
 13 21  1  0  0  0  0
 13 16  1  1  0  0  0
 14 12  1  6  0  0  0
 14 21  1  0  0  0  0
 15 13  1  0  0  0  0
 18 19  1  0  0  0  0
 18 20  1  0  0  0  0
 20  9  1  1  0  0  0
 20 12  1  0  0  0  0
 21 17  1  0  0  0  0
 22 19  1  6  0  0  0
 22 13  1  0  0  0  0
 22 14  1  0  0  0  0
 23 24  2  0  0  0  0
 24 25  1  0  0  0  0
 25  5  1  0  0  0  0
M  END
>  <MODEL>
8

>  <REMARK>
 VINA RESULT:      -6.7      2.784      7.150
  Name = 
  2 active torsions:
  status: ('A' for Active; 'I' for Inactive)
    1  A    between atoms: C_8  and  N_23
    2  A    between atoms: N_17  and  C_19
                            x       y       z     vdW  Elec       q    Type
                         _______ _______ _______ _____ _____    ______ ____

>  <TORSDO>
F 2

$$$$
=
 OpenBabel11072409413D

 25 28  0  0  1  0  0  0  0  0999 V2000
  188.8560  176.2800  146.9150 N   0  0  0  0  0  0  0  0  0  0  0  0
  186.4320  177.3450  144.2990 C   0  0  0  0  0  3  0  0  0  0  0  0
  188.5090  175.6700  143.3280 C   0  0  0  0  0  3  0  0  0  0  0  0
  186.4830  176.9810  142.9420 C   0  0  0  0  0  3  0  0  0  0  0  0
  187.5160  176.1450  142.4520 C   0  0  0  0  0  0  0  0  0  0  0  0
  188.4430  176.0500  144.6670 C   0  0  0  0  0  0  0  0  0  0  0  0
  187.6850  177.0100  146.5450 C   0  0  0  0  0  0  0  0  0  0  0  0
  186.9870  177.6790  147.3520 O   0  0  0  0  0  0  0  0  0  0  0  0
  190.4640  174.9050  145.8080 N   0  0  0  0  0  2  0  0  0  0  0  0
  187.4360  176.8550  145.1290 C   0  0  0  0  0  0  0  0  0  0  0  0
  189.2950  175.7290  145.8220 C   0  0  0  0  0  0  0  0  0  0  0  0
  192.4740  174.8920  144.3990 C   0  0  0  0  0  2  0  0  0  0  0  0
  194.7880  172.7690  144.6930 C   0  0  1  0  0  0  0  0  0  0  0  0
  193.4700  174.2060  145.3440 C   0  0  2  0  0  3  0  0  0  0  0  0
  194.8430  172.3480  143.3600 O   0  0  0  0  0  1  0  0  0  0  0  0
  195.8270  172.0250  145.5350 C   0  0  0  0  0  1  0  0  0  0  0  0
  195.6970  174.7710  145.8010 C   0  0  0  0  0  1  0  0  0  0  0  0
  190.9800  172.8200  144.6460 C   0  0  0  0  0  2  0  0  0  0  0  0
  192.3180  172.1520  144.3380 C   0  0  0  0  0  2  0  0  0  0  0  0
  191.0500  174.3550  144.5940 C   0  0  1  0  0  3  0  0  0  0  0  0
  194.8100  174.2450  144.7640 N   0  0  0  0  0  0  0  0  0  0  0  0
  193.3940  172.6740  145.3010 C   0  0  1  0  0  3  0  0  0  0  0  0
  188.4350  174.4580  139.3570 O   0  0  0  0  0  0  0  0  0  0  0  0
  188.4310  174.7440  140.5820 C   0  0  0  0  0  3  0  0  0  0  0  0
  187.5720  175.7690  141.0730 N   0  0  0  0  0  2  0  0  0  0  0  0
  2 10  1  0  0  0  0
  3  6  1  0  0  0  0
  4  2  2  0  0  0  0
  5  4  1  0  0  0  0
  5  3  2  0  0  0  0
  6 10  2  0  0  0  0
  6 11  1  0  0  0  0
  7  1  1  0  0  0  0
  7  8  2  0  0  0  0
  9 11  1  0  0  0  0
 10  7  1  0  0  0  0
 11  1  2  0  0  0  0
 12 20  1  0  0  0  0
 13 21  1  0  0  0  0
 13 22  1  0  0  0  0
 13 16  1  1  0  0  0
 14 12  1  6  0  0  0
 15 13  1  0  0  0  0
 19 18  1  0  0  0  0
 20 18  1  0  0  0  0
 20  9  1  1  0  0  0
 21 14  1  0  0  0  0
 21 17  1  0  0  0  0
 22 19  1  6  0  0  0
 22 14  1  0  0  0  0
 23 24  2  0  0  0  0
 24 25  1  0  0  0  0
 25  5  1  0  0  0  0
M  END
>  <MODEL>
9

>  <REMARK>
 VINA RESULT:      -6.4      2.088      2.812
  Name = 
  2 active torsions:
  status: ('A' for Active; 'I' for Inactive)
    1  A    between atoms: C_8  and  N_23
    2  A    between atoms: N_17  and  C_19
                            x       y       z     vdW  Elec       q    Type
                         _______ _______ _______ _____ _____    ______ ____

>  <TORSDO>
F 2

$$$$
