=
 OpenBabel11062422383D

 44 50  0  0  1  0  0  0  0  0999 V2000
  187.0380  174.1610  142.7540 O   0  0  0  0  0  1  0  0  0  0  0  0
  187.4430  176.5080  143.1580 C   0  0  1  0  0  3  0  0  0  0  0  0
  186.4600  177.0970  145.2030 C   0  0  0  0  0  0  0  0  0  0  0  0
  188.8140  176.6870  145.2770 N   0  0  0  0  0  0  0  0  0  0  0  0
  186.5080  177.6620  146.4600 C   0  0  0  0  0  0  0  0  0  0  0  0
  187.6960  177.5100  147.1900 O   0  0  0  0  0  0  0  0  0  0  0  0
  190.8460  173.7390  144.2880 C   0  0  0  0  0  2  0  0  0  0  0  0
  190.7370  175.8380  147.5960 C   0  0  0  0  0  2  0  0  0  0  0  0
  185.9740  176.9820  142.9270 C   0  0  0  0  0  2  0  0  0  0  0  0
  190.3410  174.4000  145.5600 C   0  0  0  0  0  2  0  0  0  0  0  0
  185.5400  177.4490  144.2710 C   0  0  0  0  0  0  0  0  0  0  0  0
  187.5450  176.2860  144.6730 C   0  0  2  0  0  3  0  0  0  0  0  0
  184.4680  178.2750  144.6210 C   0  0  0  0  0  3  0  0  0  0  0  0
  191.4150  175.0410  146.4590 C   0  0  1  0  0  3  0  0  0  0  0  0
  188.8740  177.1170  146.5110 C   0  0  0  0  0  0  0  0  0  0  0  0
  189.7160  173.5950  143.2690 C   0  0  0  0  0  2  0  0  0  0  0  0
  187.8480  175.2360  142.3600 C   0  0  1  0  0  0  0  0  0  0  0  0
  184.3990  178.7520  145.9510 C   0  0  0  0  0  3  0  0  0  0  0  0
  189.3080  174.9130  142.6560 C   0  0  0  0  0  0  0  0  0  0  0  0
  190.1750  175.7130  142.3300 O   0  0  0  0  0  0  0  0  0  0  0  0
  190.1990  177.2180  147.1880 C   0  0  0  0  0  2  0  0  0  0  0  0
  185.4330  178.4630  146.8720 C   0  0  0  0  0  3  0  0  0  0  0  0
  192.5850  175.7890  145.7550 C   0  0  2  0  0  0  0  0  0  0  0  0
  192.0900  176.7150  144.6550 C   0  0  0  0  0  1  0  0  0  0  0  0
  193.5730  174.7810  145.1530 C   0  0  0  0  0  2  0  0  0  0  0  0
  194.8350  175.0860  145.8430 C   0  0  0  0  0  0  0  0  0  0  0  0
  195.9150  174.4720  145.6390 O   0  0  0  0  0  0  0  0  0  0  0  0
  193.4010  176.6220  146.7690 C   0  0  0  0  0  2  0  0  0  0  0  0
  194.7210  176.1160  146.7430 O   0  0  0  0  0  0  0  0  0  0  0  0
  187.6490  176.8220  140.5270 O   0  0  0  0  0  1  0  0  0  0  0  0
  187.6950  175.4580  140.8340 C   0  0  1  0  0  3  0  0  0  0  0  0
  188.8160  174.8160  140.0230 C   0  0  0  0  0  2  0  0  0  0  0  0
  188.0790  173.6300  137.8850 N   0  0  2  0  0  0  0  0  0  0  0  0
  188.3290  173.5280  139.3520 C   0  0  1  0  0  3  0  0  0  0  0  0
  189.3290  173.0470  138.4050 C   0  0  1  0  0  3  0  0  0  0  0  0
  186.8840  175.9180  137.0800 S   0  0  0  0  0  0  0  0  0  0  0  0
  189.0330  174.7550  135.9530 C   0  0  0  0  0  0  0  0  0  0  0  0
  188.4180  174.9340  137.3070 C   0  0  2  0  0  3  0  0  0  0  0  0
  190.1450  174.1880  135.7920 O   0  0  0  0  0  0  0  0  0  0  0  0
  188.3060  175.2690  134.8530 N   0  0  0  0  0  2  0  0  0  0  0  0
  186.2950  176.3990  134.5140 O   0  0  0  0  0  0  0  0  0  0  0  0
  187.1260  175.8950  135.3120 C   0  0  0  0  0  0  0  0  0  0  0  0
  190.1340  170.9450  139.2990 N   0  0  0  0  0  1  0  0  0  0  0  0
  189.2530  171.5380  138.3090 C   0  0  0  0  0  2  0  0  0  0  0  0
  2  9  1  1  0  0  0
  2 12  1  0  0  0  0
  3  5  1  0  0  0  0
  4 15  2  0  0  0  0
  5 22  2  0  0  0  0
  5  6  1  0  0  0  0
  7 10  1  0  0  0  0
  9 11  1  0  0  0  0
 11 13  1  0  0  0  0
 11  3  2  0  0  0  0
 12  3  1  1  0  0  0
 12  4  1  0  0  0  0
 13 18  2  0  0  0  0
 14 10  1  6  0  0  0
 14  8  1  0  0  0  0
 15 21  1  0  0  0  0
 15  6  1  0  0  0  0
 16  7  1  0  0  0  0
 17 19  1  0  0  0  0
 17  1  1  1  0  0  0
 17  2  1  0  0  0  0
 18 22  1  0  0  0  0
 19 16  1  0  0  0  0
 20 19  2  0  0  0  0
 21  8  1  0  0  0  0
 23 24  1  6  0  0  0
 23 14  1  0  0  0  0
 23 28  1  0  0  0  0
 25 23  1  0  0  0  0
 25 26  1  0  0  0  0
 26 29  1  0  0  0  0
 27 26  2  0  0  0  0
 29 28  1  0  0  0  0
 31 30  1  1  0  0  0
 31 17  1  0  0  0  0
 32 31  1  0  0  0  0
 33 38  1  6  0  0  0
 33 35  1  0  0  0  0
 33 34  1  0  0  0  0
 34 32  1  6  0  0  0
 35 44  1  1  0  0  0
 35 34  1  0  0  0  0
 36 38  1  0  0  0  0
 38 37  1  6  0  0  0
 39 37  2  0  0  0  0
 40 42  1  0  0  0  0
 40 37  1  0  0  0  0
 41 42  2  0  0  0  0
 42 36  1  0  0  0  0
 44 43  1  0  0  0  0
M  END
>  <MODEL>
1

>  <REMARK>
 VINA RESULT:      -9.0      0.000      0.000
  Name = 
  6 active torsions:
  status: ('A' for Active; 'I' for Inactive)
    1  A    between atoms: C_6  and  C_23
    2  A    between atoms: N_11  and  C_29
    3  A    between atoms: C_12  and  C_15
    4  A    between atoms: C_13  and  C_27
    5  A    between atoms: C_27  and  C_35
    6  A    between atoms: C_35  and  C_37
                            x       y       z     vdW  Elec       q    Type
                         _______ _______ _______ _____ _____    ______ ____

>  <TORSDO>
F 6

$$$$
=
 OpenBabel11062422383D

 44 50  0  0  1  0  0  0  0  0999 V2000
  186.9960  173.9150  143.0940 O   0  0  0  0  0  1  0  0  0  0  0  0
  187.4630  176.2820  143.2040 C   0  0  1  0  0  3  0  0  0  0  0  0
  186.5220  177.1410  145.1720 C   0  0  0  0  0  0  0  0  0  0  0  0
  188.8660  176.6820  145.2710 N   0  0  0  0  0  0  0  0  0  0  0  0
  186.6010  177.8530  146.3510 C   0  0  0  0  0  0  0  0  0  0  0  0
  187.7940  177.7600  147.0810 O   0  0  0  0  0  0  0  0  0  0  0  0
  190.8140  173.5850  144.6280 C   0  0  0  0  0  2  0  0  0  0  0  0
  190.7990  176.0730  147.6570 C   0  0  0  0  0  2  0  0  0  0  0  0
  186.0030  176.7620  142.9330 C   0  0  0  0  0  2  0  0  0  0  0  0
  190.3410  174.4090  145.8150 C   0  0  0  0  0  2  0  0  0  0  0  0
  185.5990  177.4000  144.2140 C   0  0  0  0  0  0  0  0  0  0  0  0
  187.5800  176.2440  144.7340 C   0  0  2  0  0  3  0  0  0  0  0  0
  184.5520  178.2890  144.4710 C   0  0  0  0  0  3  0  0  0  0  0  0
  191.4420  175.1270  146.6180 C   0  0  1  0  0  3  0  0  0  0  0  0
  188.9530  177.2580  146.4430 C   0  0  0  0  0  0  0  0  0  0  0  0
  189.6670  173.3470  143.6470 C   0  0  0  0  0  2  0  0  0  0  0  0
  187.8260  174.9120  142.5640 C   0  0  1  0  0  0  0  0  0  0  0  0
  184.5110  178.9260  145.7340 C   0  0  0  0  0  3  0  0  0  0  0  0
  189.2830  174.5910  142.8810 C   0  0  0  0  0  0  0  0  0  0  0  0
  190.1640  175.3230  142.4510 O   0  0  0  0  0  0  0  0  0  0  0  0
  190.2890  177.4060  147.0890 C   0  0  0  0  0  2  0  0  0  0  0  0
  185.5510  178.7250  146.6730 C   0  0  0  0  0  3  0  0  0  0  0  0
  192.6210  175.7540  145.8160 C   0  0  2  0  0  0  0  0  0  0  0  0
  192.1310  176.6160  144.6630 C   0  0  0  0  0  1  0  0  0  0  0  0
  193.5310  174.6500  145.2630 C   0  0  0  0  0  2  0  0  0  0  0  0
  194.8340  174.9400  145.8820 C   0  0  0  0  0  0  0  0  0  0  0  0
  195.8730  174.2550  145.6900 O   0  0  0  0  0  0  0  0  0  0  0  0
  193.5160  176.6180  146.7310 C   0  0  0  0  0  2  0  0  0  0  0  0
  194.8070  176.0410  146.7000 O   0  0  0  0  0  0  0  0  0  0  0  0
  188.2540  176.0950  140.4810 O   0  0  0  0  0  1  0  0  0  0  0  0
  187.6590  174.9510  141.0230 C   0  0  1  0  0  3  0  0  0  0  0  0
  188.2420  173.7250  140.3280 C   0  0  0  0  0  2  0  0  0  0  0  0
  190.1230  173.1420  138.7020 N   0  0  2  0  0  0  0  0  0  0  0  0
  189.0970  174.1390  139.1280 C   0  0  1  0  0  3  0  0  0  0  0  0
  188.8340  173.2570  137.9960 C   0  0  1  0  0  3  0  0  0  0  0  0
  191.4160  171.9040  140.7280 S   0  0  0  0  0  0  0  0  0  0  0  0
  190.3620  170.7280  138.5500 C   0  0  0  0  0  0  0  0  0  0  0  0
  190.0890  171.8870  139.4580 C   0  0  2  0  0  3  0  0  0  0  0  0
  189.5760  170.4040  137.6220 O   0  0  0  0  0  0  0  0  0  0  0  0
  191.5510  169.9980  138.7910 N   0  0  0  0  0  2  0  0  0  0  0  0
  193.3240  170.0760  140.3030 O   0  0  0  0  0  0  0  0  0  0  0  0
  192.2210  170.5360  139.9120 C   0  0  0  0  0  0  0  0  0  0  0  0
  190.4620  174.1420  136.4360 N   0  0  0  0  0  1  0  0  0  0  0  0
  189.0400  174.0170  136.7020 C   0  0  0  0  0  2  0  0  0  0  0  0
  2  9  1  1  0  0  0
  2 12  1  0  0  0  0
  3  5  1  0  0  0  0
  4 15  2  0  0  0  0
  5 22  2  0  0  0  0
  5  6  1  0  0  0  0
  7 10  1  0  0  0  0
  9 11  1  0  0  0  0
 11 13  1  0  0  0  0
 11  3  2  0  0  0  0
 12  3  1  1  0  0  0
 12  4  1  0  0  0  0
 13 18  2  0  0  0  0
 14 10  1  6  0  0  0
 14  8  1  0  0  0  0
 15  6  1  0  0  0  0
 15 21  1  0  0  0  0
 16  7  1  0  0  0  0
 17 19  1  0  0  0  0
 17  1  1  1  0  0  0
 17  2  1  0  0  0  0
 18 22  1  0  0  0  0
 19 16  1  0  0  0  0
 20 19  2  0  0  0  0
 21  8  1  0  0  0  0
 23 24  1  6  0  0  0
 23 14  1  0  0  0  0
 23 28  1  0  0  0  0
 25 23  1  0  0  0  0
 25 26  1  0  0  0  0
 26 29  1  0  0  0  0
 27 26  2  0  0  0  0
 29 28  1  0  0  0  0
 31 30  1  6  0  0  0
 31 17  1  0  0  0  0
 32 31  1  0  0  0  0
 33 34  1  0  0  0  0
 33 38  1  1  0  0  0
 34 32  1  1  0  0  0
 35 44  1  6  0  0  0
 35 33  1  0  0  0  0
 35 34  1  0  0  0  0
 37 40  1  0  0  0  0
 38 37  1  6  0  0  0
 38 36  1  0  0  0  0
 39 37  2  0  0  0  0
 40 42  1  0  0  0  0
 42 41  2  0  0  0  0
 42 36  1  0  0  0  0
 43 44  1  0  0  0  0
M  END
>  <MODEL>
2

>  <REMARK>
 VINA RESULT:      -8.6      1.866      3.017
  Name = 
  6 active torsions:
  status: ('A' for Active; 'I' for Inactive)
    1  A    between atoms: C_6  and  C_23
    2  A    between atoms: N_11  and  C_29
    3  A    between atoms: C_12  and  C_15
    4  A    between atoms: C_13  and  C_27
    5  A    between atoms: C_27  and  C_35
    6  A    between atoms: C_35  and  C_37
                            x       y       z     vdW  Elec       q    Type
                         _______ _______ _______ _____ _____    ______ ____

>  <TORSDO>
F 6

$$$$
=
 OpenBabel11062422383D

 44 50  0  0  1  0  0  0  0  0999 V2000
  189.3030  173.9030  143.7850 O   0  0  0  0  0  1  0  0  0  0  0  0
  190.4590  176.0010  144.0920 C   0  0  1  0  0  3  0  0  0  0  0  0
  191.0510  176.2070  146.3510 C   0  0  0  0  0  0  0  0  0  0  0  0
  192.7980  175.4660  144.8970 N   0  0  0  0  0  0  0  0  0  0  0  0
  191.9690  176.4370  147.3540 C   0  0  0  0  0  0  0  0  0  0  0  0
  193.2690  175.9470  147.1620 O   0  0  0  0  0  0  0  0  0  0  0  0
  193.0170  172.5920  142.5530 C   0  0  0  0  0  2  0  0  0  0  0  0
  195.4110  173.8190  145.4040 C   0  0  0  0  0  2  0  0  0  0  0  0
  189.3190  176.7170  144.8790 C   0  0  0  0  0  2  0  0  0  0  0  0
  193.5430  172.9890  143.9230 C   0  0  0  0  0  2  0  0  0  0  0  0
  189.8910  176.9000  146.2390 C   0  0  0  0  0  0  0  0  0  0  0  0
  191.3650  175.4050  145.1790 C   0  0  2  0  0  3  0  0  0  0  0  0
  189.4850  177.7570  147.2660 C   0  0  0  0  0  3  0  0  0  0  0  0
  195.0610  173.2350  144.0170 C   0  0  1  0  0  3  0  0  0  0  0  0
  193.6770  175.5710  145.8610 C   0  0  0  0  0  0  0  0  0  0  0  0
  191.5160  172.8600  142.4540 C   0  0  0  0  0  2  0  0  0  0  0  0
  189.9740  174.9170  143.0880 C   0  0  1  0  0  0  0  0  0  0  0  0
  190.3320  177.9010  148.3900 C   0  0  0  0  0  3  0  0  0  0  0  0
  191.1870  174.3310  142.3720 C   0  0  0  0  0  0  0  0  0  0  0  0
  191.8710  175.0570  141.6630 O   0  0  0  0  0  0  0  0  0  0  0  0
  195.1170  175.3180  145.5690 C   0  0  0  0  0  2  0  0  0  0  0  0
  191.5910  177.2560  148.4280 C   0  0  0  0  0  3  0  0  0  0  0  0
  195.7440  173.9610  142.8210 C   0  0  2  0  0  0  0  0  0  0  0  0
  196.0820  173.0020  141.6900 C   0  0  0  0  0  1  0  0  0  0  0  0
  197.0300  174.6570  143.2870 C   0  0  0  0  0  2  0  0  0  0  0  0
  196.7800  176.0740  142.9850 C   0  0  0  0  0  0  0  0  0  0  0  0
  197.6000  177.0000  143.2210 O   0  0  0  0  0  0  0  0  0  0  0  0
  194.8390  175.0820  142.2620 C   0  0  0  0  0  2  0  0  0  0  0  0
  195.5520  176.2940  142.4140 O   0  0  0  0  0  0  0  0  0  0  0  0
  188.1640  174.5470  141.5050 O   0  0  0  0  0  1  0  0  0  0  0  0
  189.0230  175.5220  142.0240 C   0  0  1  0  0  3  0  0  0  0  0  0
  188.1810  176.6740  142.5630 C   0  0  0  0  0  2  0  0  0  0  0  0
  185.7040  177.2340  142.8350 N   0  0  2  0  0  0  0  0  0  0  0  0
  186.7660  176.6280  141.9790 C   0  0  1  0  0  3  0  0  0  0  0  0
  186.2910  177.9810  141.7090 C   0  0  1  0  0  3  0  0  0  0  0  0
  185.7280  176.8090  145.5060 S   0  0  0  0  0  0  0  0  0  0  0  0
  185.5780  179.1930  144.2680 C   0  0  0  0  0  0  0  0  0  0  0  0
  186.2050  177.8480  144.0680 C   0  0  2  0  0  3  0  0  0  0  0  0
  185.7910  180.1550  143.4850 O   0  0  0  0  0  0  0  0  0  0  0  0
  184.7360  179.3400  145.3960 N   0  0  0  0  0  2  0  0  0  0  0  0
  183.9990  178.0050  147.1610 O   0  0  0  0  0  0  0  0  0  0  0  0
  184.7080  178.1330  146.1300 C   0  0  0  0  0  0  0  0  0  0  0  0
  183.9980  178.3070  141.0000 N   0  0  0  0  0  1  0  0  0  0  0  0
  185.3300  177.9570  140.5390 C   0  0  0  0  0  2  0  0  0  0  0  0
  2  9  1  1  0  0  0
  2 12  1  0  0  0  0
  3  5  1  0  0  0  0
  4 15  2  0  0  0  0
  5 22  2  0  0  0  0
  6  5  1  0  0  0  0
  7 10  1  0  0  0  0
  8 21  1  0  0  0  0
  9 11  1  0  0  0  0
 11  3  2  0  0  0  0
 11 13  1  0  0  0  0
 12  4  1  6  0  0  0
 12  3  1  0  0  0  0
 13 18  2  0  0  0  0
 14 10  1  6  0  0  0
 14  8  1  0  0  0  0
 15  6  1  0  0  0  0
 16  7  1  0  0  0  0
 17  1  1  1  0  0  0
 17  2  1  0  0  0  0
 18 22  1  0  0  0  0
 19 16  1  0  0  0  0
 19 17  1  0  0  0  0
 20 19  2  0  0  0  0
 21 15  1  0  0  0  0
 23 24  1  6  0  0  0
 23 25  1  0  0  0  0
 23 14  1  0  0  0  0
 26 27  2  0  0  0  0
 26 25  1  0  0  0  0
 28 29  1  0  0  0  0
 28 23  1  0  0  0  0
 29 26  1  0  0  0  0
 31 30  1  1  0  0  0
 31 32  1  0  0  0  0
 31 17  1  0  0  0  0
 33 38  1  1  0  0  0
 34 32  1  1  0  0  0
 34 33  1  0  0  0  0
 35 44  1  6  0  0  0
 35 34  1  0  0  0  0
 35 33  1  0  0  0  0
 36 42  1  0  0  0  0
 37 40  1  0  0  0  0
 38 37  1  1  0  0  0
 38 36  1  0  0  0  0
 39 37  2  0  0  0  0
 40 42  1  0  0  0  0
 42 41  2  0  0  0  0
 44 43  1  0  0  0  0
M  END
>  <MODEL>
3

>  <REMARK>
 VINA RESULT:      -8.4      3.650      6.137
  Name = 
  6 active torsions:
  status: ('A' for Active; 'I' for Inactive)
    1  A    between atoms: C_6  and  C_23
    2  A    between atoms: N_11  and  C_29
    3  A    between atoms: C_12  and  C_15
    4  A    between atoms: C_13  and  C_27
    5  A    between atoms: C_27  and  C_35
    6  A    between atoms: C_35  and  C_37
                            x       y       z     vdW  Elec       q    Type
                         _______ _______ _______ _____ _____    ______ ____

>  <TORSDO>
F 6

$$$$
=
 OpenBabel11062422383D

 44 50  0  0  1  0  0  0  0  0999 V2000
  192.6140  173.8250  145.0440 O   0  0  0  0  0  1  0  0  0  0  0  0
  192.5830  174.5880  142.7530 C   0  0  1  0  0  3  0  0  0  0  0  0
  191.5190  172.9650  141.4370 C   0  0  0  0  0  0  0  0  0  0  0  0
  190.1590  174.8260  142.0660 N   0  0  0  0  0  0  0  0  0  0  0  0
  190.5750  172.5740  140.5110 C   0  0  0  0  0  0  0  0  0  0  0  0
  189.3260  173.2090  140.5570 O   0  0  0  0  0  0  0  0  0  0  0  0
  189.2910  176.2500  145.3860 C   0  0  0  0  0  2  0  0  0  0  0  0
  187.0610  175.1780  142.3460 C   0  0  0  0  0  2  0  0  0  0  0  0
  193.6320  173.5670  142.2140 C   0  0  0  0  0  2  0  0  0  0  0  0
  188.6400  175.4060  144.3020 C   0  0  0  0  0  2  0  0  0  0  0  0
  192.8420  172.7010  141.2980 C   0  0  0  0  0  0  0  0  0  0  0  0
  191.2250  173.9210  142.4920 C   0  0  2  0  0  3  0  0  0  0  0  0
  193.2830  171.8410  140.2880 C   0  0  0  0  0  3  0  0  0  0  0  0
  187.4820  176.0720  143.5350 C   0  0  1  0  0  3  0  0  0  0  0  0
  189.1980  174.4210  141.2760 C   0  0  0  0  0  0  0  0  0  0  0  0
  190.6860  175.7200  145.7170 C   0  0  0  0  0  2  0  0  0  0  0  0
  192.7580  174.9710  144.2500 C   0  0  1  0  0  0  0  0  0  0  0  0
  192.3200  171.2940  139.4090 C   0  0  0  0  0  3  0  0  0  0  0  0
  191.6920  175.9940  144.6250 C   0  0  0  0  0  0  0  0  0  0  0  0
  191.6910  177.0860  144.0730 O   0  0  0  0  0  0  0  0  0  0  0  0
  187.9770  175.2630  141.1160 C   0  0  0  0  0  2  0  0  0  0  0  0
  190.9610  171.6760  139.5040 C   0  0  0  0  0  3  0  0  0  0  0  0
  187.6280  177.5820  143.1860 C   0  0  2  0  0  0  0  0  0  0  0  0
  189.0770  177.9740  142.9400 C   0  0  0  0  0  1  0  0  0  0  0  0
  187.0640  178.4450  144.3240 C   0  0  0  0  0  2  0  0  0  0  0  0
  185.9870  179.2060  143.6730 C   0  0  0  0  0  0  0  0  0  0  0  0
  185.2560  180.0420  144.2670 O   0  0  0  0  0  0  0  0  0  0  0  0
  186.8000  177.9450  141.9340 C   0  0  0  0  0  2  0  0  0  0  0  0
  185.8520  178.9140  142.3390 O   0  0  0  0  0  0  0  0  0  0  0  0
  194.0360  176.8120  145.1970 O   0  0  0  0  0  1  0  0  0  0  0  0
  194.1520  175.5990  144.5090 C   0  0  1  0  0  3  0  0  0  0  0  0
  195.0830  174.6820  145.2940 C   0  0  0  0  0  2  0  0  0  0  0  0
  197.2860  173.6900  144.4670 N   0  0  2  0  0  0  0  0  0  0  0  0
  196.5410  174.9130  144.8860 C   0  0  1  0  0  3  0  0  0  0  0  0
  196.7190  174.6150  143.4690 C   0  0  1  0  0  3  0  0  0  0  0  0
  196.7370  171.5230  145.9880 S   0  0  0  0  0  0  0  0  0  0  0  0
  196.8970  171.5920  143.3030 C   0  0  0  0  0  0  0  0  0  0  0  0
  196.4720  172.4720  144.4380 C   0  0  2  0  0  3  0  0  0  0  0  0
  196.7560  171.9350  142.1010 O   0  0  0  0  0  0  0  0  0  0  0  0
  197.4580  170.3390  143.6470 N   0  0  0  0  0  2  0  0  0  0  0  0
  197.9380  169.1620  145.6020 O   0  0  0  0  0  0  0  0  0  0  0  0
  197.4560  170.1850  145.0510 C   0  0  0  0  0  0  0  0  0  0  0  0
  197.5140  176.8780  143.1330 N   0  0  0  0  0  1  0  0  0  0  0  0
  197.8260  175.4790  142.9040 C   0  0  0  0  0  2  0  0  0  0  0  0
  2  9  1  1  0  0  0
  2 17  1  0  0  0  0
  4 12  1  0  0  0  0
  5  6  1  0  0  0  0
  5  3  2  0  0  0  0
  6 15  1  0  0  0  0
  7 16  1  0  0  0  0
 10  7  1  0  0  0  0
 11  3  1  0  0  0  0
 11  9  1  0  0  0  0
 12  3  1  6  0  0  0
 12  2  1  0  0  0  0
 13 11  2  0  0  0  0
 14  8  1  6  0  0  0
 14 10  1  0  0  0  0
 15  4  2  0  0  0  0
 17 31  1  0  0  0  0
 17 19  1  0  0  0  0
 17  1  1  1  0  0  0
 18 22  2  0  0  0  0
 18 13  1  0  0  0  0
 19 16  1  0  0  0  0
 20 19  2  0  0  0  0
 21 15  1  0  0  0  0
 21  8  1  0  0  0  0
 22  5  1  0  0  0  0
 23 24  1  6  0  0  0
 23 14  1  0  0  0  0
 23 25  1  0  0  0  0
 26 27  2  0  0  0  0
 26 25  1  0  0  0  0
 28 29  1  0  0  0  0
 28 23  1  0  0  0  0
 29 26  1  0  0  0  0
 31 30  1  1  0  0  0
 31 32  1  0  0  0  0
 33 38  1  1  0  0  0
 33 34  1  0  0  0  0
 34 32  1  1  0  0  0
 35 44  1  6  0  0  0
 35 33  1  0  0  0  0
 35 34  1  0  0  0  0
 37 40  1  0  0  0  0
 38 37  1  6  0  0  0
 38 36  1  0  0  0  0
 39 37  2  0  0  0  0
 40 42  1  0  0  0  0
 42 41  2  0  0  0  0
 42 36  1  0  0  0  0
 44 43  1  0  0  0  0
M  END
>  <MODEL>
4

>  <REMARK>
 VINA RESULT:      -8.3      4.181      9.057
  Name = 
  6 active torsions:
  status: ('A' for Active; 'I' for Inactive)
    1  A    between atoms: C_6  and  C_23
    2  A    between atoms: N_11  and  C_29
    3  A    between atoms: C_12  and  C_15
    4  A    between atoms: C_13  and  C_27
    5  A    between atoms: C_27  and  C_35
    6  A    between atoms: C_35  and  C_37
                            x       y       z     vdW  Elec       q    Type
                         _______ _______ _______ _____ _____    ______ ____

>  <TORSDO>
F 6

$$$$
=
 OpenBabel11062422383D

 44 50  0  0  1  0  0  0  0  0999 V2000
  191.0530  177.0160  144.8930 O   0  0  0  0  0  1  0  0  0  0  0  0
  190.7510  174.6730  144.3900 C   0  0  1  0  0  3  0  0  0  0  0  0
  190.8840  174.3810  142.0680 C   0  0  0  0  0  0  0  0  0  0  0  0
  192.8750  173.8550  143.2830 N   0  0  0  0  0  0  0  0  0  0  0  0
  191.3950  173.7650  140.9450 C   0  0  0  0  0  0  0  0  0  0  0  0
  192.7500  173.4080  140.9660 O   0  0  0  0  0  0  0  0  0  0  0  0
  194.9460  175.8570  145.6290 C   0  0  0  0  0  2  0  0  0  0  0  0
  195.8920  173.7620  142.4540 C   0  0  0  0  0  2  0  0  0  0  0  0
  189.3340  174.8110  143.7530 C   0  0  0  0  0  2  0  0  0  0  0  0
  195.0050  175.3630  144.1930 C   0  0  0  0  0  2  0  0  0  0  0  0
  189.5550  174.4640  142.3240 C   0  0  0  0  0  0  0  0  0  0  0  0
  191.7190  174.7470  143.2010 C   0  0  2  0  0  3  0  0  0  0  0  0
  188.6280  174.0910  141.3460 C   0  0  0  0  0  3  0  0  0  0  0  0
  196.0840  174.3070  143.8870 C   0  0  1  0  0  3  0  0  0  0  0  0
  193.4300  173.3610  142.2060 C   0  0  0  0  0  0  0  0  0  0  0  0
  193.5840  176.4840  145.9280 C   0  0  0  0  0  2  0  0  0  0  0  0
  191.0840  175.7400  145.4720 C   0  0  1  0  0  0  0  0  0  0  0  0
  189.1190  173.5980  140.1150 C   0  0  0  0  0  3  0  0  0  0  0  0
  192.4770  175.4610  146.0260 C   0  0  0  0  0  0  0  0  0  0  0  0
  192.6850  174.4120  146.6210 O   0  0  0  0  0  0  0  0  0  0  0  0
  194.7730  172.7200  142.3030 C   0  0  0  0  0  2  0  0  0  0  0  0
  190.5080  173.4120  139.9170 C   0  0  0  0  0  3  0  0  0  0  0  0
  196.3410  173.2130  144.9650 C   0  0  2  0  0  0  0  0  0  0  0  0
  196.9610  173.7910  146.2280 C   0  0  0  0  0  1  0  0  0  0  0  0
  197.2670  172.1250  144.4050 C   0  0  0  0  0  2  0  0  0  0  0  0
  196.4520  170.9050  144.4920 C   0  0  0  0  0  0  0  0  0  0  0  0
  196.8460  169.7670  144.1240 O   0  0  0  0  0  0  0  0  0  0  0  0
  195.0290  172.4920  145.3470 C   0  0  0  0  0  2  0  0  0  0  0  0
  195.2040  171.1270  145.0190 O   0  0  0  0  0  0  0  0  0  0  0  0
  190.4790  176.5100  147.6980 O   0  0  0  0  0  1  0  0  0  0  0  0
  190.0710  175.6860  146.6440 C   0  0  1  0  0  3  0  0  0  0  0  0
  188.6590  176.0890  146.2310 C   0  0  0  0  0  2  0  0  0  0  0  0
  187.2380  178.1860  145.9100 N   0  0  2  0  0  0  0  0  0  0  0  0
  188.3710  177.5380  146.6340 C   0  0  1  0  0  3  0  0  0  0  0  0
  187.0590  177.6330  147.2640 C   0  0  1  0  0  3  0  0  0  0  0  0
  187.0610  177.6640  143.2630 S   0  0  0  0  0  0  0  0  0  0  0  0
  185.0560  177.5450  145.0540 C   0  0  0  0  0  0  0  0  0  0  0  0
  186.5310  177.2980  144.9830 C   0  0  2  0  0  3  0  0  0  0  0  0
  184.3840  177.3010  146.0900 O   0  0  0  0  0  0  0  0  0  0  0  0
  184.4420  178.0590  143.8860 N   0  0  0  0  0  2  0  0  0  0  0  0
  185.1050  178.6650  141.7350 O   0  0  0  0  0  0  0  0  0  0  0  0
  185.4040  178.1930  142.8610 C   0  0  0  0  0  0  0  0  0  0  0  0
  185.9890  179.6940  147.9540 N   0  0  0  0  0  1  0  0  0  0  0  0
  187.0590  178.7640  148.2700 C   0  0  0  0  0  2  0  0  0  0  0  0
  2  9  1  6  0  0  0
  2 17  1  0  0  0  0
  3 11  1  0  0  0  0
  5  6  1  0  0  0  0
  5  3  2  0  0  0  0
  6 15  1  0  0  0  0
  7 16  1  0  0  0  0
 10  7  1  0  0  0  0
 11  9  1  0  0  0  0
 12  3  1  6  0  0  0
 12  4  1  0  0  0  0
 12  2  1  0  0  0  0
 13 11  2  0  0  0  0
 14  8  1  6  0  0  0
 14 10  1  0  0  0  0
 14 23  1  0  0  0  0
 15 21  1  0  0  0  0
 15  4  2  0  0  0  0
 16 19  1  0  0  0  0
 17  1  1  6  0  0  0
 17 19  1  0  0  0  0
 17 31  1  0  0  0  0
 18 13  1  0  0  0  0
 19 20  2  0  0  0  0
 21  8  1  0  0  0  0
 22 18  2  0  0  0  0
 22  5  1  0  0  0  0
 23 28  1  0  0  0  0
 23 24  1  1  0  0  0
 25 26  1  0  0  0  0
 25 23  1  0  0  0  0
 26 29  1  0  0  0  0
 27 26  2  0  0  0  0
 29 28  1  0  0  0  0
 31 30  1  1  0  0  0
 32 31  1  0  0  0  0
 33 38  1  6  0  0  0
 33 34  1  0  0  0  0
 33 35  1  0  0  0  0
 34 32  1  6  0  0  0
 34 35  1  0  0  0  0
 35 44  1  1  0  0  0
 37 39  2  0  0  0  0
 38 36  1  6  0  0  0
 38 37  1  0  0  0  0
 40 37  1  0  0  0  0
 41 42  2  0  0  0  0
 42 36  1  0  0  0  0
 42 40  1  0  0  0  0
 43 44  1  0  0  0  0
M  END
>  <MODEL>
5

>  <REMARK>
 VINA RESULT:      -8.3      3.391      7.383
  Name = 
  6 active torsions:
  status: ('A' for Active; 'I' for Inactive)
    1  A    between atoms: C_6  and  C_23
    2  A    between atoms: N_11  and  C_29
    3  A    between atoms: C_12  and  C_15
    4  A    between atoms: C_13  and  C_27
    5  A    between atoms: C_27  and  C_35
    6  A    between atoms: C_35  and  C_37
                            x       y       z     vdW  Elec       q    Type
                         _______ _______ _______ _____ _____    ______ ____

>  <TORSDO>
F 6

$$$$
=
 OpenBabel11062422383D

 44 50  0  0  1  0  0  0  0  0999 V2000
  191.7010  176.8250  142.9700 O   0  0  0  0  0  1  0  0  0  0  0  0
  191.2670  174.4500  142.9990 C   0  0  1  0  0  3  0  0  0  0  0  0
  191.8760  173.5510  140.9210 C   0  0  0  0  0  0  0  0  0  0  0  0
  193.4810  173.2700  142.6700 N   0  0  0  0  0  0  0  0  0  0  0  0
  192.5520  172.6380  140.1390 C   0  0  0  0  0  0  0  0  0  0  0  0
  193.8230  172.2350  140.5730 O   0  0  0  0  0  0  0  0  0  0  0  0
  195.1870  175.7190  144.8820 C   0  0  0  0  0  2  0  0  0  0  0  0
  196.5790  172.8200  142.6400 C   0  0  0  0  0  2  0  0  0  0  0  0
  190.0480  174.4820  142.0250 C   0  0  0  0  0  2  0  0  0  0  0  0
  195.5080  174.8620  143.6680 C   0  0  0  0  0  2  0  0  0  0  0  0
  190.5400  173.7610  140.8210 C   0  0  0  0  0  0  0  0  0  0  0  0
  192.4750  174.1620  142.0970 C   0  0  2  0  0  3  0  0  0  0  0  0
  189.8170  173.1890  139.7710 C   0  0  0  0  0  3  0  0  0  0  0  0
  196.5080  173.7130  143.8990 C   0  0  1  0  0  3  0  0  0  0  0  0
  194.2030  172.4840  141.9130 C   0  0  0  0  0  0  0  0  0  0  0  0
  193.8690  176.4650  144.6820 C   0  0  0  0  0  2  0  0  0  0  0  0
  191.4660  175.7460  143.8330 C   0  0  1  0  0  0  0  0  0  0  0  0
  190.5110  172.3660  138.8530 C   0  0  0  0  0  3  0  0  0  0  0  0
  192.6640  175.5580  144.7580 C   0  0  0  0  0  0  0  0  0  0  0  0
  192.6220  174.6940  145.6230 O   0  0  0  0  0  0  0  0  0  0  0  0
  195.4160  171.8290  142.4840 C   0  0  0  0  0  2  0  0  0  0  0  0
  191.8810  172.0690  139.0470 C   0  0  0  0  0  3  0  0  0  0  0  0
  196.4020  172.9300  145.2410 C   0  0  2  0  0  0  0  0  0  0  0  0
  196.9210  173.7420  146.4180 C   0  0  0  0  0  1  0  0  0  0  0  0
  197.1910  171.6170  145.1520 C   0  0  0  0  0  2  0  0  0  0  0  0
  196.1660  170.5870  145.3780 C   0  0  0  0  0  0  0  0  0  0  0  0
  196.4000  169.3500  145.3820 O   0  0  0  0  0  0  0  0  0  0  0  0
  194.9400  172.5230  145.5310 C   0  0  0  0  0  2  0  0  0  0  0  0
  194.9150  171.1100  145.5870 O   0  0  0  0  0  0  0  0  0  0  0  0
  190.5910  176.4040  146.0060 O   0  0  0  0  0  1  0  0  0  0  0  0
  190.2190  176.0510  144.7040 C   0  0  1  0  0  3  0  0  0  0  0  0
  189.3480  177.1630  144.1290 C   0  0  0  0  0  2  0  0  0  0  0  0
  186.8140  177.1400  143.8110 N   0  0  2  0  0  0  0  0  0  0  0  0
  188.1350  176.5770  143.4020 C   0  0  1  0  0  3  0  0  0  0  0  0
  187.4930  177.6050  142.5880 C   0  0  1  0  0  3  0  0  0  0  0  0
  186.7140  177.5340  146.4840 S   0  0  0  0  0  0  0  0  0  0  0  0
  185.7860  179.2000  144.5870 C   0  0  0  0  0  0  0  0  0  0  0  0
  186.9020  178.2240  144.7930 C   0  0  2  0  0  3  0  0  0  0  0  0
  185.6920  179.9020  143.5470 O   0  0  0  0  0  0  0  0  0  0  0  0
  184.8370  179.3080  145.6320 N   0  0  0  0  0  2  0  0  0  0  0  0
  184.4890  178.3480  147.7280 O   0  0  0  0  0  0  0  0  0  0  0  0
  185.2000  178.4540  146.6960 C   0  0  0  0  0  0  0  0  0  0  0  0
  185.9070  177.8990  140.7810 N   0  0  0  0  0  1  0  0  0  0  0  0
  186.8420  176.9640  141.3810 C   0  0  0  0  0  2  0  0  0  0  0  0
  2  9  1  6  0  0  0
  2 17  1  0  0  0  0
  5  6  1  0  0  0  0
  5  3  2  0  0  0  0
  6 15  1  0  0  0  0
 10 14  1  0  0  0  0
 10  7  1  0  0  0  0
 11  3  1  0  0  0  0
 11  9  1  0  0  0  0
 12  3  1  6  0  0  0
 12  4  1  0  0  0  0
 12  2  1  0  0  0  0
 13 11  2  0  0  0  0
 14  8  1  6  0  0  0
 14 23  1  0  0  0  0
 15 21  1  0  0  0  0
 15  4  2  0  0  0  0
 16 19  1  0  0  0  0
 16  7  1  0  0  0  0
 17  1  1  6  0  0  0
 17 31  1  0  0  0  0
 17 19  1  0  0  0  0
 18 22  2  0  0  0  0
 18 13  1  0  0  0  0
 19 20  2  0  0  0  0
 21  8  1  0  0  0  0
 22  5  1  0  0  0  0
 23 28  1  0  0  0  0
 23 24  1  1  0  0  0
 25 23  1  0  0  0  0
 25 26  1  0  0  0  0
 26 27  2  0  0  0  0
 26 29  1  0  0  0  0
 28 29  1  0  0  0  0
 31 30  1  1  0  0  0
 32 31  1  0  0  0  0
 33 38  1  1  0  0  0
 34 33  1  0  0  0  0
 34 32  1  1  0  0  0
 35 44  1  6  0  0  0
 35 34  1  0  0  0  0
 35 33  1  0  0  0  0
 36 42  1  0  0  0  0
 37 40  1  0  0  0  0
 38 37  1  6  0  0  0
 38 36  1  0  0  0  0
 39 37  2  0  0  0  0
 40 42  1  0  0  0  0
 42 41  2  0  0  0  0
 43 44  1  0  0  0  0
M  END
>  <MODEL>
6

>  <REMARK>
 VINA RESULT:      -8.1      3.583      7.590
  Name = 
  6 active torsions:
  status: ('A' for Active; 'I' for Inactive)
    1  A    between atoms: C_6  and  C_23
    2  A    between atoms: N_11  and  C_29
    3  A    between atoms: C_12  and  C_15
    4  A    between atoms: C_13  and  C_27
    5  A    between atoms: C_27  and  C_35
    6  A    between atoms: C_35  and  C_37
                            x       y       z     vdW  Elec       q    Type
                         _______ _______ _______ _____ _____    ______ ____

>  <TORSDO>
F 6

$$$$
=
 OpenBabel11062422383D

 44 50  0  0  1  0  0  0  0  0999 V2000
  187.0750  173.4570  142.3870 O   0  0  0  0  0  1  0  0  0  0  0  0
  187.9930  175.6790  142.1640 C   0  0  1  0  0  3  0  0  0  0  0  0
  187.0190  177.0600  143.7890 C   0  0  0  0  0  0  0  0  0  0  0  0
  189.1930  176.2240  144.3240 N   0  0  0  0  0  0  0  0  0  0  0  0
  187.0990  177.9640  144.8270 C   0  0  0  0  0  0  0  0  0  0  0  0
  188.1540  177.8080  145.7380 O   0  0  0  0  0  0  0  0  0  0  0  0
  190.5370  172.7660  144.5250 C   0  0  0  0  0  2  0  0  0  0  0  0
  190.6670  175.7630  147.0480 C   0  0  0  0  0  2  0  0  0  0  0  0
  186.7030  176.3460  141.5940 C   0  0  0  0  0  2  0  0  0  0  0  0
  190.1040  173.8780  145.4670 C   0  0  0  0  0  2  0  0  0  0  0  0
  186.2870  177.2850  142.6700 C   0  0  0  0  0  0  0  0  0  0  0  0
  187.9180  175.9220  143.6780 C   0  0  2  0  0  3  0  0  0  0  0  0
  185.4180  178.3780  142.6080 C   0  0  0  0  0  3  0  0  0  0  0  0
  191.2240  174.5330  146.2970 C   0  0  1  0  0  3  0  0  0  0  0  0
  189.2550  176.9930  145.3810 C   0  0  0  0  0  0  0  0  0  0  0  0
  189.4910  172.5460  143.4330 C   0  0  0  0  0  2  0  0  0  0  0  0
  188.1460  174.1680  141.8300 C   0  0  1  0  0  0  0  0  0  0  0  0
  185.3580  179.2470  143.7220 C   0  0  0  0  0  3  0  0  0  0  0  0
  189.4590  173.6640  142.4170 C   0  0  0  0  0  0  0  0  0  0  0  0
  190.5150  174.1300  142.0100 O   0  0  0  0  0  0  0  0  0  0  0  0
  190.5080  177.0280  146.1900 C   0  0  0  0  0  2  0  0  0  0  0  0
  186.2170  179.0540  144.8310 C   0  0  0  0  0  3  0  0  0  0  0  0
  192.5910  174.7730  145.5910 C   0  0  2  0  0  0  0  0  0  0  0  0
  193.2640  173.4680  145.1930 C   0  0  0  0  0  1  0  0  0  0  0  0
  193.5330  175.5590  146.5130 C   0  0  0  0  0  2  0  0  0  0  0  0
  193.8160  176.7830  145.7470 C   0  0  0  0  0  0  0  0  0  0  0  0
  194.5580  177.7140  146.1570 O   0  0  0  0  0  0  0  0  0  0  0  0
  192.4180  175.6420  144.3260 C   0  0  0  0  0  2  0  0  0  0  0  0
  193.1840  176.8130  144.5290 O   0  0  0  0  0  0  0  0  0  0  0  0
  188.9300  174.9160  139.6520 O   0  0  0  0  0  1  0  0  0  0  0  0
  188.1730  173.9320  140.2970 C   0  0  1  0  0  3  0  0  0  0  0  0
  188.7270  172.5640  139.9140 C   0  0  0  0  0  2  0  0  0  0  0  0
  190.8240  171.6170  138.8070 N   0  0  2  0  0  0  0  0  0  0  0  0
  189.7960  172.6990  138.8260 C   0  0  1  0  0  3  0  0  0  0  0  0
  189.6830  171.5990  137.8740 C   0  0  1  0  0  3  0  0  0  0  0  0
  191.8090  170.7170  141.1590 S   0  0  0  0  0  0  0  0  0  0  0  0
  190.8160  169.2130  139.1600 C   0  0  0  0  0  0  0  0  0  0  0  0
  190.5960  170.5540  139.7890 C   0  0  2  0  0  3  0  0  0  0  0  0
  190.0780  168.7750  138.2400 O   0  0  0  0  0  0  0  0  0  0  0  0
  191.8960  168.4470  139.6610 N   0  0  0  0  0  2  0  0  0  0  0  0
  193.5390  168.6800  141.2990 O   0  0  0  0  0  0  0  0  0  0  0  0
  192.5270  169.1440  140.7150 C   0  0  0  0  0  0  0  0  0  0  0  0
  190.1010  170.9470  135.5790 N   0  0  0  0  0  1  0  0  0  0  0  0
  190.1480  172.0610  136.5080 C   0  0  0  0  0  2  0  0  0  0  0  0
  2  9  1  6  0  0  0
  2 12  1  0  0  0  0
  3  5  1  0  0  0  0
  4 15  2  0  0  0  0
  5 22  2  0  0  0  0
  5  6  1  0  0  0  0
  7 10  1  0  0  0  0
  9 11  1  0  0  0  0
 11  3  2  0  0  0  0
 12  3  1  6  0  0  0
 12  4  1  0  0  0  0
 13 11  1  0  0  0  0
 13 18  2  0  0  0  0
 14 10  1  6  0  0  0
 14  8  1  0  0  0  0
 15  6  1  0  0  0  0
 15 21  1  0  0  0  0
 16  7  1  0  0  0  0
 17  2  1  0  0  0  0
 17  1  1  1  0  0  0
 17 19  1  0  0  0  0
 18 22  1  0  0  0  0
 19 16  1  0  0  0  0
 20 19  2  0  0  0  0
 21  8  1  0  0  0  0
 23 24  1  6  0  0  0
 23 14  1  0  0  0  0
 23 25  1  0  0  0  0
 26 27  2  0  0  0  0
 26 25  1  0  0  0  0
 28 29  1  0  0  0  0
 28 23  1  0  0  0  0
 29 26  1  0  0  0  0
 31 30  1  6  0  0  0
 31 17  1  0  0  0  0
 32 31  1  0  0  0  0
 33 34  1  0  0  0  0
 33 38  1  1  0  0  0
 34 32  1  1  0  0  0
 35 44  1  6  0  0  0
 35 33  1  0  0  0  0
 35 34  1  0  0  0  0
 37 40  1  0  0  0  0
 38 37  1  6  0  0  0
 38 36  1  0  0  0  0
 39 37  2  0  0  0  0
 40 42  1  0  0  0  0
 42 36  1  0  0  0  0
 42 41  2  0  0  0  0
 43 44  1  0  0  0  0
M  END
>  <MODEL>
7

>  <REMARK>
 VINA RESULT:      -8.1      2.531      3.893
  Name = 
  6 active torsions:
  status: ('A' for Active; 'I' for Inactive)
    1  A    between atoms: C_6  and  C_23
    2  A    between atoms: N_11  and  C_29
    3  A    between atoms: C_12  and  C_15
    4  A    between atoms: C_13  and  C_27
    5  A    between atoms: C_27  and  C_35
    6  A    between atoms: C_35  and  C_37
                            x       y       z     vdW  Elec       q    Type
                         _______ _______ _______ _____ _____    ______ ____

>  <TORSDO>
F 6

$$$$
=
 OpenBabel11062422383D

 44 50  0  0  1  0  0  0  0  0999 V2000
  191.7350  174.1530  141.1960 O   0  0  0  0  0  1  0  0  0  0  0  0
  191.9430  173.3110  143.4510 C   0  0  1  0  0  3  0  0  0  0  0  0
  193.6530  174.4910  144.5370 C   0  0  0  0  0  0  0  0  0  0  0  0
  191.4310  175.2250  145.0250 N   0  0  0  0  0  0  0  0  0  0  0  0
  194.1410  175.2340  145.5910 C   0  0  0  0  0  0  0  0  0  0  0  0
  193.2650  176.1460  146.1980 O   0  0  0  0  0  0  0  0  0  0  0  0
  188.6650  176.3760  142.8290 C   0  0  0  0  0  2  0  0  0  0  0  0
  190.2830  177.9590  146.0290 C   0  0  0  0  0  2  0  0  0  0  0  0
  193.3090  172.5850  143.2420 C   0  0  0  0  0  2  0  0  0  0  0  0
  189.6870  176.9730  143.7830 C   0  0  0  0  0  2  0  0  0  0  0  0
  194.2520  173.3590  144.0930 C   0  0  0  0  0  0  0  0  0  0  0  0
  192.3200  174.6970  143.9920 C   0  0  2  0  0  3  0  0  0  0  0  0
  195.5150  172.9990  144.5720 C   0  0  0  0  0  3  0  0  0  0  0  0
  189.1220  177.5790  145.0820 C   0  0  1  0  0  3  0  0  0  0  0  0
  191.8750  176.0240  145.9620 C   0  0  0  0  0  0  0  0  0  0  0  0
  189.3340  175.3960  141.8660 C   0  0  0  0  0  2  0  0  0  0  0  0
  191.0590  173.4120  142.1750 C   0  0  1  0  0  0  0  0  0  0  0  0
  196.1190  173.8260  145.5470 C   0  0  0  0  0  3  0  0  0  0  0  0
  189.7520  174.1090  142.5360 C   0  0  0  0  0  0  0  0  0  0  0  0
  188.9940  173.5810  143.3390 O   0  0  0  0  0  0  0  0  0  0  0  0
  190.9020  176.7830  146.7990 C   0  0  0  0  0  2  0  0  0  0  0  0
  195.4230  174.9390  146.0770 C   0  0  0  0  0  3  0  0  0  0  0  0
  187.9470  176.8250  145.7720 C   0  0  2  0  0  0  0  0  0  0  0  0
  188.2890  175.3700  146.0540 C   0  0  0  0  0  1  0  0  0  0  0  0
  186.6920  176.8820  144.8910 C   0  0  0  0  0  2  0  0  0  0  0  0
  185.7100  177.5730  145.7410 C   0  0  0  0  0  0  0  0  0  0  0  0
  184.5300  177.8300  145.3860 O   0  0  0  0  0  0  0  0  0  0  0  0
  187.5580  177.5060  147.1030 C   0  0  0  0  0  2  0  0  0  0  0  0
  186.2100  177.9150  146.9720 O   0  0  0  0  0  0  0  0  0  0  0  0
  190.2200  171.1710  142.6130 O   0  0  0  0  0  1  0  0  0  0  0  0
  190.7250  172.0070  141.6120 C   0  0  1  0  0  3  0  0  0  0  0  0
  189.7230  172.0480  140.4630 C   0  0  0  0  0  2  0  0  0  0  0  0
  190.4480  171.8800  138.0200 N   0  0  2  0  0  0  0  0  0  0  0  0
  190.1920  171.1640  139.3040 C   0  0  1  0  0  3  0  0  0  0  0  0
  191.5550  171.5170  138.9230 C   0  0  1  0  0  3  0  0  0  0  0  0
  188.5960  173.7910  137.5420 S   0  0  0  0  0  0  0  0  0  0  0  0
  191.2530  174.0160  137.1860 C   0  0  0  0  0  0  0  0  0  0  0  0
  190.2850  173.3350  138.1020 C   0  0  2  0  0  3  0  0  0  0  0  0
  192.4980  173.9610  137.3650 O   0  0  0  0  0  0  0  0  0  0  0  0
  190.7010  174.7430  136.1040 N   0  0  0  0  0  2  0  0  0  0  0  0
  188.5720  175.2280  135.2840 O   0  0  0  0  0  0  0  0  0  0  0  0
  189.2900  174.6840  136.1620 C   0  0  0  0  0  0  0  0  0  0  0  0
  192.3350  170.3820  136.9310 N   0  0  0  0  0  1  0  0  0  0  0  0
  192.2630  170.2940  138.3780 C   0  0  0  0  0  2  0  0  0  0  0  0
  2  9  1  6  0  0  0
  2 12  1  0  0  0  0
  3  5  1  0  0  0  0
  4 15  2  0  0  0  0
  5 22  2  0  0  0  0
  5  6  1  0  0  0  0
  7 10  1  0  0  0  0
  8 21  1  0  0  0  0
  9 11  1  0  0  0  0
 11  3  2  0  0  0  0
 11 13  1  0  0  0  0
 12  3  1  1  0  0  0
 12  4  1  0  0  0  0
 13 18  2  0  0  0  0
 14 10  1  6  0  0  0
 14 23  1  0  0  0  0
 14  8  1  0  0  0  0
 15  6  1  0  0  0  0
 15 21  1  0  0  0  0
 16 19  1  0  0  0  0
 16  7  1  0  0  0  0
 17  1  1  6  0  0  0
 17 19  1  0  0  0  0
 17  2  1  0  0  0  0
 18 22  1  0  0  0  0
 19 20  2  0  0  0  0
 23 24  1  1  0  0  0
 23 28  1  0  0  0  0
 25 26  1  0  0  0  0
 25 23  1  0  0  0  0
 26 29  1  0  0  0  0
 27 26  2  0  0  0  0
 29 28  1  0  0  0  0
 31 17  1  0  0  0  0
 31 30  1  1  0  0  0
 32 31  1  0  0  0  0
 33 38  1  1  0  0  0
 33 35  1  0  0  0  0
 33 34  1  0  0  0  0
 34 32  1  1  0  0  0
 35 44  1  6  0  0  0
 35 34  1  0  0  0  0
 36 38  1  0  0  0  0
 37 39  2  0  0  0  0
 38 37  1  6  0  0  0
 40 42  1  0  0  0  0
 40 37  1  0  0  0  0
 41 42  2  0  0  0  0
 42 36  1  0  0  0  0
 43 44  1  0  0  0  0
M  END
>  <MODEL>
8

>  <REMARK>
 VINA RESULT:      -8.1      2.068      5.889
  Name = 
  6 active torsions:
  status: ('A' for Active; 'I' for Inactive)
    1  A    between atoms: C_6  and  C_23
    2  A    between atoms: N_11  and  C_29
    3  A    between atoms: C_12  and  C_15
    4  A    between atoms: C_13  and  C_27
    5  A    between atoms: C_27  and  C_35
    6  A    between atoms: C_35  and  C_37
                            x       y       z     vdW  Elec       q    Type
                         _______ _______ _______ _____ _____    ______ ____

>  <TORSDO>
F 6

$$$$
=
 OpenBabel11062422383D

 44 50  0  0  1  0  0  0  0  0999 V2000
  187.8120  172.7530  142.0100 O   0  0  0  0  0  1  0  0  0  0  0  0
  188.8030  174.8780  141.4350 C   0  0  1  0  0  3  0  0  0  0  0  0
  187.6070  176.5810  142.5140 C   0  0  0  0  0  0  0  0  0  0  0  0
  189.6450  175.9270  143.5790 N   0  0  0  0  0  0  0  0  0  0  0  0
  187.5360  177.7020  143.3140 C   0  0  0  0  0  0  0  0  0  0  0  0
  188.4230  177.7770  144.3970 O   0  0  0  0  0  0  0  0  0  0  0  0
  190.8600  172.6320  144.7900 C   0  0  0  0  0  2  0  0  0  0  0  0
  190.6410  176.1330  146.5390 C   0  0  0  0  0  2  0  0  0  0  0  0
  187.6400  175.3740  140.5210 C   0  0  0  0  0  2  0  0  0  0  0  0
  190.3030  173.9240  145.3660 C   0  0  0  0  0  2  0  0  0  0  0  0
  187.0740  176.5290  141.2680 C   0  0  0  0  0  0  0  0  0  0  0  0
  188.4860  175.4630  142.8180 C   0  0  2  0  0  3  0  0  0  0  0  0
  186.2510  177.5630  140.8140 C   0  0  0  0  0  3  0  0  0  0  0  0
  191.2860  174.7720  146.1940 C   0  0  1  0  0  3  0  0  0  0  0  0
  189.5490  176.9210  144.4240 C   0  0  0  0  0  0  0  0  0  0  0  0
  190.0030  172.1490  143.6210 C   0  0  0  0  0  2  0  0  0  0  0  0
  188.9750  173.3340  141.4880 C   0  0  1  0  0  0  0  0  0  0  0  0
  186.0280  178.6650  141.6720 C   0  0  0  0  0  3  0  0  0  0  0  0
  190.1630  173.0000  142.3840 C   0  0  0  0  0  0  0  0  0  0  0  0
  191.2810  173.3780  142.0600 O   0  0  0  0  0  0  0  0  0  0  0  0
  190.6530  177.1620  145.3990 C   0  0  0  0  0  2  0  0  0  0  0  0
  186.6890  178.7480  142.9210 C   0  0  0  0  0  3  0  0  0  0  0  0
  192.7560  174.8640  145.6880 C   0  0  2  0  0  0  0  0  0  0  0  0
  193.4700  173.5240  145.7630 C   0  0  0  0  0  1  0  0  0  0  0  0
  193.5370  175.8950  146.5140 C   0  0  0  0  0  2  0  0  0  0  0  0
  193.9600  176.8850  145.5130 C   0  0  0  0  0  0  0  0  0  0  0  0
  194.6340  177.9140  145.7810 O   0  0  0  0  0  0  0  0  0  0  0  0
  192.8080  175.3690  144.2280 C   0  0  0  0  0  2  0  0  0  0  0  0
  193.5440  176.5770  144.2420 O   0  0  0  0  0  0  0  0  0  0  0  0
  188.0540  172.5420  139.3800 O   0  0  0  0  0  1  0  0  0  0  0  0
  189.2490  172.7510  140.0770 C   0  0  1  0  0  3  0  0  0  0  0  0
  190.1560  173.6380  139.2310 C   0  0  0  0  0  2  0  0  0  0  0  0
  192.1410  172.7870  137.8680 N   0  0  2  0  0  0  0  0  0  0  0  0
  190.6570  172.8790  137.9990 C   0  0  1  0  0  3  0  0  0  0  0  0
  191.3530  171.6630  138.4060 C   0  0  1  0  0  3  0  0  0  0  0  0
  193.7080  174.9160  138.4360 S   0  0  0  0  0  0  0  0  0  0  0  0
  193.9530  172.4350  139.4480 C   0  0  0  0  0  0  0  0  0  0  0  0
  192.8800  173.3730  138.9900 C   0  0  2  0  0  3  0  0  0  0  0  0
  193.6910  171.3170  139.9650 O   0  0  0  0  0  0  0  0  0  0  0  0
  195.2900  172.8710  139.2850 N   0  0  0  0  0  2  0  0  0  0  0  0
  196.3800  174.7600  138.4600 O   0  0  0  0  0  0  0  0  0  0  0  0
  195.3030  174.1700  138.7310 C   0  0  0  0  0  0  0  0  0  0  0  0
  189.8660  170.0300  137.4130 N   0  0  0  0  0  1  0  0  0  0  0  0
  191.1960  170.6050  137.3350 C   0  0  0  0  0  2  0  0  0  0  0  0
  2  9  1  6  0  0  0
  2 17  1  0  0  0  0
  2 12  1  0  0  0  0
  3  5  1  0  0  0  0
  4 15  2  0  0  0  0
  5  6  1  0  0  0  0
  6 15  1  0  0  0  0
  7 10  1  0  0  0  0
  9 11  1  0  0  0  0
 11  3  2  0  0  0  0
 12  3  1  6  0  0  0
 12  4  1  0  0  0  0
 13 11  1  0  0  0  0
 13 18  2  0  0  0  0
 14 10  1  6  0  0  0
 14  8  1  0  0  0  0
 15 21  1  0  0  0  0
 16  7  1  0  0  0  0
 17  1  1  1  0  0  0
 17 19  1  0  0  0  0
 18 22  1  0  0  0  0
 19 16  1  0  0  0  0
 20 19  2  0  0  0  0
 21  8  1  0  0  0  0
 22  5  2  0  0  0  0
 23 24  1  1  0  0  0
 23 14  1  0  0  0  0
 23 25  1  0  0  0  0
 26 27  2  0  0  0  0
 26 25  1  0  0  0  0
 28 29  1  0  0  0  0
 28 23  1  0  0  0  0
 29 26  1  0  0  0  0
 31 30  1  6  0  0  0
 31 17  1  0  0  0  0
 32 31  1  0  0  0  0
 33 34  1  0  0  0  0
 33 35  1  0  0  0  0
 33 38  1  1  0  0  0
 34 35  1  0  0  0  0
 34 32  1  1  0  0  0
 35 44  1  6  0  0  0
 36 42  1  0  0  0  0
 37 39  2  0  0  0  0
 38 36  1  6  0  0  0
 38 37  1  0  0  0  0
 40 37  1  0  0  0  0
 41 42  2  0  0  0  0
 42 40  1  0  0  0  0
 44 43  1  0  0  0  0
M  END
>  <MODEL>
9

>  <REMARK>
 VINA RESULT:      -8.0      2.863      4.030
  Name = 
  6 active torsions:
  status: ('A' for Active; 'I' for Inactive)
    1  A    between atoms: C_6  and  C_23
    2  A    between atoms: N_11  and  C_29
    3  A    between atoms: C_12  and  C_15
    4  A    between atoms: C_13  and  C_27
    5  A    between atoms: C_27  and  C_35
    6  A    between atoms: C_35  and  C_37
                            x       y       z     vdW  Elec       q    Type
                         _______ _______ _______ _____ _____    ______ ____

>  <TORSDO>
F 6

$$$$
