=
 OpenBabel11062421443D

 41 45  0  0  1  0  0  0  0  0999 V2000
  193.0090  175.2400  144.4240 C   0  0  1  0  0  3  0  0  0  0  0  0
  191.7450  173.6890  143.2850 C   0  0  1  0  0  3  0  0  0  0  0  0
  190.5670  171.5510  143.9160 C   0  0  0  0  0  2  0  0  0  0  0  0
  189.2970  174.1590  142.6670 C   0  0  2  0  0  3  0  0  0  0  0  0
  189.3320  172.1920  144.0850 O   0  0  0  0  0  0  0  0  0  0  0  0
  192.1160  176.4570  144.1690 C   0  0  0  0  0  2  0  0  0  0  0  0
  188.9920  172.6650  142.8110 C   0  0  0  0  0  2  0  0  0  0  0  0
  190.8760  176.0920  143.3460 C   0  0  1  0  0  3  0  0  0  0  0  0
  189.4690  174.4880  141.1920 C   0  0  0  0  0  1  0  0  0  0  0  0
  190.5160  174.6060  143.5020 C   0  0  2  0  0  3  0  0  0  0  0  0
  192.9910  174.3640  143.3210 O   0  0  0  0  0  0  0  0  0  0  0  0
  191.7200  172.5000  144.2460 C   0  0  0  0  0  2  0  0  0  0  0  0
  189.0970  176.7930  144.9880 N   0  0  0  0  0  2  0  0  0  0  0  0
  189.7380  176.9850  143.7210 C   0  0  0  0  0  0  0  0  0  0  0  0
  189.3690  177.9000  142.9350 O   0  0  0  0  0  0  0  0  0  0  0  0
  187.0650  178.1660  144.6220 C   0  0  0  0  0  3  0  0  0  0  0  0
  186.5720  178.1420  147.3710 C   0  0  0  0  0  3  0  0  0  0  0  0
  185.9490  178.8430  145.1330 C   0  0  0  0  0  0  0  0  0  0  0  0
  187.9470  177.4930  145.4810 C   0  0  0  0  0  0  0  0  0  0  0  0
  187.6930  177.4870  146.8560 C   0  0  0  0  0  3  0  0  0  0  0  0
  185.6980  178.8130  146.5120 C   0  0  0  0  0  3  0  0  0  0  0  0
  184.9830  179.5170  144.2050 C   0  0  0  0  0  3  0  0  0  0  0  0
  183.9880  178.5130  143.6460 C   0  0  0  0  0  2  0  0  0  0  0  0
  185.1440  178.9800  142.7930 C   0  0  0  0  0  2  0  0  0  0  0  0
  194.4320  175.6670  144.7830 C   0  0  1  0  0  3  0  0  0  0  0  0
  194.4890  176.3220  146.1550 C   0  0  0  0  0  1  0  0  0  0  0  0
  195.5080  174.5850  144.4960 C   0  0  1  0  0  3  0  0  0  0  0  0
  195.3450  175.7170  141.5000 O   0  0  0  0  0  0  0  0  0  0  0  0
  196.1230  174.7580  140.8430 C   0  0  1  0  0  3  0  0  0  0  0  0
  196.5960  176.6230  143.3550 C   0  0  0  0  0  2  0  0  0  0  0  0
  196.2520  176.7160  141.8670 C   0  0  0  0  0  2  0  0  0  0  0  0
  197.5130  174.2630  142.8990 C   0  0  0  0  0  2  0  0  0  0  0  0
  196.7930  175.1930  143.8940 C   0  0  2  0  0  3  0  0  0  0  0  0
  196.5810  173.6890  141.8280 C   0  0  0  0  0  2  0  0  0  0  0  0
  195.3130  174.0960  139.7380 C   0  0  0  0  0  2  0  0  0  0  0  0
  193.8200  174.3130  139.9440 C   0  0  0  0  0  2  0  0  0  0  0  0
  193.0590  173.0020  139.8310 C   0  0  0  0  0  2  0  0  0  0  0  0
  193.5670  172.0760  140.7410 O   0  0  0  0  0  1  0  0  0  0  0  0
  195.8160  173.5800  145.6300 C   0  0  0  0  0  3  0  0  0  0  0  0
  195.5650  172.1290  145.2490 C   0  0  0  0  0  1  0  0  0  0  0  0
  197.2010  173.7520  146.2240 C   0  0  0  0  0  1  0  0  0  0  0  0
  1 25  1  6  0  0  0
  2 11  1  0  0  0  0
  2 10  1  0  0  0  0
  2 12  1  1  0  0  0
  3  5  1  0  0  0  0
  3 12  1  0  0  0  0
  4  9  1  6  0  0  0
  4  7  1  0  0  0  0
  4 10  1  0  0  0  0
  6  1  1  0  0  0  0
  7  5  1  0  0  0  0
  8 10  1  0  0  0  0
  8 14  1  1  0  0  0
  8  6  1  0  0  0  0
 11  1  1  0  0  0  0
 13 19  1  0  0  0  0
 14 13  1  0  0  0  0
 15 14  2  0  0  0  0
 16 18  2  0  0  0  0
 16 19  1  0  0  0  0
 18 21  1  0  0  0  0
 19 20  2  0  0  0  0
 20 17  1  0  0  0  0
 21 17  2  0  0  0  0
 22 18  1  0  0  0  0
 23 22  1  0  0  0  0
 24 23  1  0  0  0  0
 24 22  1  0  0  0  0
 25 26  1  0  0  0  0
 27 25  1  0  0  0  0
 27 39  1  0  0  0  0
 28 31  1  0  0  0  0
 29 28  1  0  0  0  0
 29 34  1  0  0  0  0
 30 33  1  0  0  0  0
 31 30  1  0  0  0  0
 32 33  1  0  0  0  0
 33 27  1  0  0  0  0
 34 32  1  0  0  0  0
 35 36  1  0  0  0  0
 35 29  1  0  0  0  0
 37 36  1  0  0  0  0
 37 38  1  0  0  0  0
 39 41  1  0  0  0  0
 40 39  1  0  0  0  0
M  END
>  <MODEL>
1

>  <REMARK>
 VINA RESULT:      -7.5      0.000      0.000
  Name = 
  10 active torsions:
  status: ('A' for Active; 'I' for Inactive)
    1  A    between atoms: C_1  and  C_9
    2  A    between atoms: N_3  and  C_29
    3  A    between atoms: C_4  and  C_40
    4  A    between atoms: C_5  and  C_27
    5  A    between atoms: C_9  and  C_40
    6  A    between atoms: C_10  and  C_36
    7  A    between atoms: C_14  and  C_15
    8  A    between atoms: C_14  and  C_36
    9  A    between atoms: C_19  and  C_22
   10  A    between atoms: C_30  and  C_40
                            x       y       z     vdW  Elec       q    Type
                         _______ _______ _______ _____ _____    ______ ____

>  <TORSDO>
F 10

$$$$
=
 OpenBabel11062421443D

 41 45  0  0  1  0  0  0  0  0999 V2000
  192.9440  174.9630  144.1680 C   0  0  1  0  0  3  0  0  0  0  0  0
  191.8730  173.3320  142.9460 C   0  0  1  0  0  3  0  0  0  0  0  0
  190.6380  171.2100  143.5170 C   0  0  0  0  0  2  0  0  0  0  0  0
  189.5350  173.7250  141.9580 C   0  0  2  0  0  3  0  0  0  0  0  0
  189.3850  171.8360  143.4720 O   0  0  0  0  0  0  0  0  0  0  0  0
  192.0850  176.1490  143.7210 C   0  0  0  0  0  2  0  0  0  0  0  0
  189.2270  172.2350  142.1380 C   0  0  0  0  0  2  0  0  0  0  0  0
  190.9800  175.7180  142.7490 C   0  0  1  0  0  3  0  0  0  0  0  0
  189.9150  173.9780  140.5070 C   0  0  0  0  0  1  0  0  0  0  0  0
  190.6160  174.2370  142.9330 C   0  0  2  0  0  3  0  0  0  0  0  0
  193.0940  174.0300  143.1230 O   0  0  0  0  0  0  0  0  0  0  0  0
  191.7220  172.1950  143.9570 C   0  0  0  0  0  2  0  0  0  0  0  0
  188.6680  176.1370  143.6640 N   0  0  0  0  0  2  0  0  0  0  0  0
  189.7910  176.6100  142.9080 C   0  0  0  0  0  0  0  0  0  0  0  0
  189.7940  177.7630  142.3960 O   0  0  0  0  0  0  0  0  0  0  0  0
  187.1510  177.5670  145.0060 C   0  0  0  0  0  3  0  0  0  0  0  0
  185.2270  177.3920  142.9880 C   0  0  0  0  0  3  0  0  0  0  0  0
  185.9180  178.2170  145.1640 C   0  0  0  0  0  0  0  0  0  0  0  0
  187.4190  176.8130  143.8530 C   0  0  0  0  0  0  0  0  0  0  0  0
  186.4490  176.7300  142.8490 C   0  0  0  0  0  3  0  0  0  0  0  0
  184.9640  178.1380  144.1400 C   0  0  0  0  0  3  0  0  0  0  0  0
  185.6580  179.0610  146.3750 C   0  0  0  0  0  3  0  0  0  0  0  0
  185.9040  178.2650  147.6460 C   0  0  0  0  0  2  0  0  0  0  0  0
  184.4900  178.5000  147.1680 C   0  0  0  0  0  2  0  0  0  0  0  0
  194.2960  175.4340  144.7030 C   0  0  1  0  0  3  0  0  0  0  0  0
  194.1700  176.0110  146.1050 C   0  0  0  0  0  1  0  0  0  0  0  0
  195.4500  174.4200  144.4820 C   0  0  1  0  0  3  0  0  0  0  0  0
  195.2980  175.7100  141.5490 O   0  0  0  0  0  0  0  0  0  0  0  0
  196.1200  174.8150  140.8550 C   0  0  1  0  0  3  0  0  0  0  0  0
  196.4850  176.5540  143.4740 C   0  0  0  0  0  2  0  0  0  0  0  0
  196.1630  176.7170  141.9870 C   0  0  0  0  0  2  0  0  0  0  0  0
  197.4920  174.2550  142.9070 C   0  0  0  0  0  2  0  0  0  0  0  0
  196.7230  175.1040  143.9370 C   0  0  2  0  0  3  0  0  0  0  0  0
  196.5990  173.7100  141.7900 C   0  0  0  0  0  2  0  0  0  0  0  0
  195.3520  174.1880  139.7020 C   0  0  0  0  0  2  0  0  0  0  0  0
  193.8710  174.5320  139.7730 C   0  0  0  0  0  2  0  0  0  0  0  0
  193.2010  174.3400  138.4230 C   0  0  0  0  0  2  0  0  0  0  0  0
  193.5370  175.3920  137.5710 O   0  0  0  0  0  1  0  0  0  0  0  0
  195.7650  173.4460  145.6410 C   0  0  0  0  0  3  0  0  0  0  0  0
  195.5860  171.9800  145.2750 C   0  0  0  0  0  1  0  0  0  0  0  0
  197.1210  173.6840  146.2740 C   0  0  0  0  0  1  0  0  0  0  0  0
  1 25  1  6  0  0  0
  2 11  1  0  0  0  0
  2 12  1  1  0  0  0
  3 12  1  0  0  0  0
  4  9  1  6  0  0  0
  4  7  1  0  0  0  0
  4 10  1  0  0  0  0
  5  3  1  0  0  0  0
  6  1  1  0  0  0  0
  7  5  1  0  0  0  0
  8 14  1  1  0  0  0
  8 10  1  0  0  0  0
  8  6  1  0  0  0  0
 10  2  1  0  0  0  0
 11  1  1  0  0  0  0
 13 19  1  0  0  0  0
 14 13  1  0  0  0  0
 15 14  2  0  0  0  0
 16 18  1  0  0  0  0
 17 21  1  0  0  0  0
 18 22  1  0  0  0  0
 19 16  2  0  0  0  0
 20 17  2  0  0  0  0
 20 19  1  0  0  0  0
 21 18  2  0  0  0  0
 22 24  1  0  0  0  0
 22 23  1  0  0  0  0
 24 23  1  0  0  0  0
 25 26  1  0  0  0  0
 27 25  1  0  0  0  0
 27 39  1  0  0  0  0
 28 31  1  0  0  0  0
 29 28  1  0  0  0  0
 29 34  1  0  0  0  0
 30 33  1  0  0  0  0
 31 30  1  0  0  0  0
 32 33  1  0  0  0  0
 33 27  1  0  0  0  0
 34 32  1  0  0  0  0
 35 36  1  0  0  0  0
 35 29  1  0  0  0  0
 37 36  1  0  0  0  0
 38 37  1  0  0  0  0
 39 41  1  0  0  0  0
 40 39  1  0  0  0  0
M  END
>  <MODEL>
2

>  <REMARK>
 VINA RESULT:      -7.4      1.064      1.779
  Name = 
  10 active torsions:
  status: ('A' for Active; 'I' for Inactive)
    1  A    between atoms: C_1  and  C_9
    2  A    between atoms: N_3  and  C_29
    3  A    between atoms: C_4  and  C_40
    4  A    between atoms: C_5  and  C_27
    5  A    between atoms: C_9  and  C_40
    6  A    between atoms: C_10  and  C_36
    7  A    between atoms: C_14  and  C_15
    8  A    between atoms: C_14  and  C_36
    9  A    between atoms: C_19  and  C_22
   10  A    between atoms: C_30  and  C_40
                            x       y       z     vdW  Elec       q    Type
                         _______ _______ _______ _____ _____    ______ ____

>  <TORSDO>
F 10

$$$$
=
 OpenBabel11062421443D

 41 45  0  0  1  0  0  0  0  0999 V2000
  192.7910  173.1290  142.3960 C   0  0  1  0  0  3  0  0  0  0  0  0
  192.1060  172.2780  140.3700 C   0  0  1  0  0  3  0  0  0  0  0  0
  191.3600  170.0100  139.5590 C   0  0  0  0  0  2  0  0  0  0  0  0
  189.7420  172.7210  139.4680 C   0  0  2  0  0  3  0  0  0  0  0  0
  190.0010  170.3210  139.7030 O   0  0  0  0  0  0  0  0  0  0  0  0
  191.6970  174.1880  142.5520 C   0  0  0  0  0  2  0  0  0  0  0  0
  189.7650  171.3510  138.7830 C   0  0  0  0  0  2  0  0  0  0  0  0
  190.7160  174.1720  141.3740 C   0  0  1  0  0  3  0  0  0  0  0  0
  190.0640  173.7930  138.4380 C   0  0  0  0  0  1  0  0  0  0  0  0
  190.6830  172.7970  140.6900 C   0  0  2  0  0  3  0  0  0  0  0  0
  193.1450  172.9680  141.0420 O   0  0  0  0  0  0  0  0  0  0  0  0
  192.2020  170.7670  140.5870 C   0  0  0  0  0  2  0  0  0  0  0  0
  188.9910  175.9780  141.7180 N   0  0  0  0  0  2  0  0  0  0  0  0
  189.3610  174.5990  141.8380 C   0  0  0  0  0  0  0  0  0  0  0  0
  188.5590  173.7470  142.3100 O   0  0  0  0  0  0  0  0  0  0  0  0
  187.5620  176.8750  143.5350 C   0  0  0  0  0  3  0  0  0  0  0  0
  185.5950  177.5070  141.6560 C   0  0  0  0  0  3  0  0  0  0  0  0
  186.3630  177.4650  143.9580 C   0  0  0  0  0  0  0  0  0  0  0  0
  187.7750  176.5810  142.1800 C   0  0  0  0  0  0  0  0  0  0  0  0
  186.7840  176.9000  141.2460 C   0  0  0  0  0  3  0  0  0  0  0  0
  185.3860  177.7950  143.0070 C   0  0  0  0  0  3  0  0  0  0  0  0
  186.1620  177.8220  145.4000 C   0  0  0  0  0  3  0  0  0  0  0  0
  185.3660  176.7420  146.1130 C   0  0  0  0  0  2  0  0  0  0  0  0
  184.6850  178.0230  145.6940 C   0  0  0  0  0  2  0  0  0  0  0  0
  194.0060  173.4620  143.2610 C   0  0  1  0  0  3  0  0  0  0  0  0
  195.1770  172.5390  142.9560 C   0  0  0  0  0  1  0  0  0  0  0  0
  194.3320  174.9770  143.3380 C   0  0  1  0  0  3  0  0  0  0  0  0
  192.0180  175.0270  145.5570 O   0  0  0  0  0  0  0  0  0  0  0  0
  191.8950  176.4090  145.7390 C   0  0  1  0  0  3  0  0  0  0  0  0
  194.3270  174.3880  145.8460 C   0  0  0  0  0  2  0  0  0  0  0  0
  192.9670  174.6300  146.5030 C   0  0  0  0  0  2  0  0  0  0  0  0
  194.3060  176.8540  145.1130 C   0  0  0  0  0  2  0  0  0  0  0  0
  194.7250  175.4130  144.7660 C   0  0  2  0  0  3  0  0  0  0  0  0
  192.8380  177.1480  144.7960 C   0  0  0  0  0  2  0  0  0  0  0  0
  190.4670  176.8480  145.4520 C   0  0  0  0  0  2  0  0  0  0  0  0
  189.5960  176.7400  146.6960 C   0  0  0  0  0  2  0  0  0  0  0  0
  188.7850  175.4550  146.6830 C   0  0  0  0  0  2  0  0  0  0  0  0
  189.2620  174.5820  147.6610 O   0  0  0  0  0  1  0  0  0  0  0  0
  195.2970  175.5450  142.2710 C   0  0  0  0  0  3  0  0  0  0  0  0
  194.6250  176.4660  141.2640 C   0  0  0  0  0  1  0  0  0  0  0  0
  196.5290  176.2000  142.8650 C   0  0  0  0  0  1  0  0  0  0  0  0
  1  6  1  0  0  0  0
  1 25  1  1  0  0  0
  2 12  1  1  0  0  0
  2 10  1  0  0  0  0
  2 11  1  0  0  0  0
  3  5  1  0  0  0  0
  3 12  1  0  0  0  0
  4  9  1  6  0  0  0
  4 10  1  0  0  0  0
  7  4  1  0  0  0  0
  7  5  1  0  0  0  0
  8 14  1  1  0  0  0
  8  6  1  0  0  0  0
 10  8  1  0  0  0  0
 11  1  1  0  0  0  0
 13 14  1  0  0  0  0
 13 19  1  0  0  0  0
 14 15  2  0  0  0  0
 16 18  1  0  0  0  0
 17 21  1  0  0  0  0
 18 22  1  0  0  0  0
 19 16  2  0  0  0  0
 20 17  2  0  0  0  0
 20 19  1  0  0  0  0
 21 18  2  0  0  0  0
 22 24  1  0  0  0  0
 22 23  1  0  0  0  0
 24 23  1  0  0  0  0
 25 27  1  0  0  0  0
 26 25  1  0  0  0  0
 27 33  1  0  0  0  0
 28 29  1  0  0  0  0
 28 31  1  0  0  0  0
 30 31  1  0  0  0  0
 33 32  1  0  0  0  0
 33 30  1  0  0  0  0
 34 32  1  0  0  0  0
 34 29  1  0  0  0  0
 35 29  1  0  0  0  0
 35 36  1  0  0  0  0
 37 36  1  0  0  0  0
 37 38  1  0  0  0  0
 39 41  1  0  0  0  0
 39 27  1  0  0  0  0
 40 39  1  0  0  0  0
M  END
>  <MODEL>
3

>  <REMARK>
 VINA RESULT:      -7.2      2.192      4.650
  Name = 
  10 active torsions:
  status: ('A' for Active; 'I' for Inactive)
    1  A    between atoms: C_1  and  C_9
    2  A    between atoms: N_3  and  C_29
    3  A    between atoms: C_4  and  C_40
    4  A    between atoms: C_5  and  C_27
    5  A    between atoms: C_9  and  C_40
    6  A    between atoms: C_10  and  C_36
    7  A    between atoms: C_14  and  C_15
    8  A    between atoms: C_14  and  C_36
    9  A    between atoms: C_19  and  C_22
   10  A    between atoms: C_30  and  C_40
                            x       y       z     vdW  Elec       q    Type
                         _______ _______ _______ _____ _____    ______ ____

>  <TORSDO>
F 10

$$$$
=
 OpenBabel11062421443D

 41 45  0  0  1  0  0  0  0  0999 V2000
  191.2470  173.4770  143.3220 C   0  0  1  0  0  3  0  0  0  0  0  0
  192.6580  174.1610  145.0080 C   0  0  1  0  0  3  0  0  0  0  0  0
  194.7920  175.5010  145.1030 C   0  0  0  0  0  2  0  0  0  0  0  0
  192.0500  176.1330  146.5370 C   0  0  2  0  0  3  0  0  0  0  0  0
  194.1190  176.6930  145.4030 O   0  0  0  0  0  0  0  0  0  0  0  0
  189.9810  174.1810  143.8180 C   0  0  0  0  0  2  0  0  0  0  0  0
  193.5390  176.4750  146.6590 C   0  0  0  0  0  2  0  0  0  0  0  0
  190.2360  174.9710  145.1070 C   0  0  1  0  0  3  0  0  0  0  0  0
  191.6160  175.3660  147.7760 C   0  0  0  0  0  1  0  0  0  0  0  0
  191.7150  175.3670  145.2400 C   0  0  2  0  0  3  0  0  0  0  0  0
  192.0360  173.0400  144.4050 O   0  0  0  0  0  0  0  0  0  0  0  0
  193.9150  174.5840  144.2480 C   0  0  0  0  0  2  0  0  0  0  0  0
  188.1400  176.0890  145.9520 N   0  0  0  0  0  2  0  0  0  0  0  0
  189.3320  176.1600  145.1590 C   0  0  0  0  0  0  0  0  0  0  0  0
  189.6320  177.2080  144.5250 O   0  0  0  0  0  0  0  0  0  0  0  0
  186.6150  177.7550  144.9290 C   0  0  0  0  0  3  0  0  0  0  0  0
  185.5990  178.3560  147.4600 C   0  0  0  0  0  3  0  0  0  0  0  0
  185.6190  178.7320  145.0630 C   0  0  0  0  0  0  0  0  0  0  0  0
  187.1210  177.0910  146.0570 C   0  0  0  0  0  0  0  0  0  0  0  0
  186.6070  177.3990  147.3210 C   0  0  0  0  0  3  0  0  0  0  0  0
  185.1010  179.0170  146.3350 C   0  0  0  0  0  3  0  0  0  0  0  0
  185.0480  179.4020  143.8490 C   0  0  0  0  0  3  0  0  0  0  0  0
  184.0590  178.4850  143.1480 C   0  0  0  0  0  2  0  0  0  0  0  0
  185.4540  178.6510  142.5920 C   0  0  0  0  0  2  0  0  0  0  0  0
  190.9030  172.3280  142.3750 C   0  0  1  0  0  3  0  0  0  0  0  0
  189.7820  171.4630  142.9310 C   0  0  0  0  0  1  0  0  0  0  0  0
  190.7650  172.7540  140.8890 C   0  0  1  0  0  3  0  0  0  0  0  0
  193.9030  173.3840  141.0880 O   0  0  0  0  0  0  0  0  0  0  0  0
  194.0960  174.0160  139.8540 C   0  0  1  0  0  3  0  0  0  0  0  0
  192.8470  171.2430  140.7300 C   0  0  0  0  0  2  0  0  0  0  0  0
  194.1540  172.0320  140.8350 C   0  0  0  0  0  2  0  0  0  0  0  0
  192.2060  172.7490  138.7440 C   0  0  0  0  0  2  0  0  0  0  0  0
  191.7120  171.9540  139.9680 C   0  0  2  0  0  3  0  0  0  0  0  0
  192.7710  174.1250  139.1080 C   0  0  0  0  0  2  0  0  0  0  0  0
  194.6590  175.4130  140.0660 C   0  0  0  0  0  2  0  0  0  0  0  0
  195.8290  175.3940  141.0400 C   0  0  0  0  0  2  0  0  0  0  0  0
  196.2130  176.8050  141.4580 C   0  0  0  0  0  2  0  0  0  0  0  0
  196.8980  176.7700  142.6720 O   0  0  0  0  0  1  0  0  0  0  0  0
  189.3330  172.8450  140.3120 C   0  0  0  0  0  3  0  0  0  0  0  0
  188.8590  174.2700  140.0700 C   0  0  0  0  0  1  0  0  0  0  0  0
  189.1280  171.9900  139.0780 C   0  0  0  0  0  1  0  0  0  0  0  0
  1 25  1  1  0  0  0
  1  6  1  0  0  0  0
  1 11  1  0  0  0  0
  2 12  1  6  0  0  0
  2 10  1  0  0  0  0
  3  5  1  0  0  0  0
  4  7  1  0  0  0  0
  4  9  1  1  0  0  0
  5  7  1  0  0  0  0
  6  8  1  0  0  0  0
  8 14  1  6  0  0  0
  8 10  1  0  0  0  0
 10  4  1  0  0  0  0
 11  2  1  0  0  0  0
 12  3  1  0  0  0  0
 13 19  1  0  0  0  0
 14 13  1  0  0  0  0
 15 14  2  0  0  0  0
 16 18  2  0  0  0  0
 16 19  1  0  0  0  0
 18 21  1  0  0  0  0
 19 20  2  0  0  0  0
 20 17  1  0  0  0  0
 21 17  2  0  0  0  0
 22 18  1  0  0  0  0
 23 22  1  0  0  0  0
 24 23  1  0  0  0  0
 24 22  1  0  0  0  0
 25 26  1  0  0  0  0
 27 25  1  0  0  0  0
 29 35  1  0  0  0  0
 29 28  1  0  0  0  0
 30 31  1  0  0  0  0
 31 28  1  0  0  0  0
 32 34  1  0  0  0  0
 32 33  1  0  0  0  0
 33 30  1  0  0  0  0
 33 27  1  0  0  0  0
 34 29  1  0  0  0  0
 35 36  1  0  0  0  0
 36 37  1  0  0  0  0
 37 38  1  0  0  0  0
 39 27  1  0  0  0  0
 40 39  1  0  0  0  0
 41 39  1  0  0  0  0
M  END
>  <MODEL>
4

>  <REMARK>
 VINA RESULT:      -7.2      1.595      4.784
  Name = 
  10 active torsions:
  status: ('A' for Active; 'I' for Inactive)
    1  A    between atoms: C_1  and  C_9
    2  A    between atoms: N_3  and  C_29
    3  A    between atoms: C_4  and  C_40
    4  A    between atoms: C_5  and  C_27
    5  A    between atoms: C_9  and  C_40
    6  A    between atoms: C_10  and  C_36
    7  A    between atoms: C_14  and  C_15
    8  A    between atoms: C_14  and  C_36
    9  A    between atoms: C_19  and  C_22
   10  A    between atoms: C_30  and  C_40
                            x       y       z     vdW  Elec       q    Type
                         _______ _______ _______ _____ _____    ______ ____

>  <TORSDO>
F 10

$$$$
=
 OpenBabel11062421443D

 41 45  0  0  1  0  0  0  0  0999 V2000
  193.1600  174.4620  142.0240 C   0  0  1  0  0  3  0  0  0  0  0  0
  193.4940  174.7110  144.2880 C   0  0  1  0  0  3  0  0  0  0  0  0
  194.9410  176.2020  145.7150 C   0  0  0  0  0  2  0  0  0  0  0  0
  191.7930  175.9540  145.7580 C   0  0  2  0  0  3  0  0  0  0  0  0
  193.9090  177.1260  145.9320 O   0  0  0  0  0  0  0  0  0  0  0  0
  191.6640  174.7880  142.0020 C   0  0  0  0  0  2  0  0  0  0  0  0
  192.9410  176.4230  146.6590 C   0  0  0  0  0  2  0  0  0  0  0  0
  191.1320  175.1200  143.4010 C   0  0  1  0  0  3  0  0  0  0  0  0
  191.1080  174.7630  146.4110 C   0  0  0  0  0  1  0  0  0  0  0  0
  192.2520  175.6350  144.3190 C   0  0  2  0  0  3  0  0  0  0  0  0
  193.5100  173.7900  143.2120 O   0  0  0  0  0  0  0  0  0  0  0  0
  194.7870  175.5250  144.3530 C   0  0  0  0  0  2  0  0  0  0  0  0
  188.7240  175.7310  143.8270 N   0  0  0  0  0  2  0  0  0  0  0  0
  190.0040  176.0950  143.2950 C   0  0  0  0  0  0  0  0  0  0  0  0
  190.1920  177.2210  142.7600 O   0  0  0  0  0  0  0  0  0  0  0  0
  187.0930  177.3300  144.7930 C   0  0  0  0  0  3  0  0  0  0  0  0
  185.5720  177.1660  142.4560 C   0  0  0  0  0  3  0  0  0  0  0  0
  185.9040  178.0660  144.6850 C   0  0  0  0  0  0  0  0  0  0  0  0
  187.5150  176.4960  143.7460 C   0  0  0  0  0  0  0  0  0  0  0  0
  186.7460  176.4190  142.5800 C   0  0  0  0  0  3  0  0  0  0  0  0
  185.1540  177.9910  143.5020 C   0  0  0  0  0  3  0  0  0  0  0  0
  185.4850  178.9920  145.7860 C   0  0  0  0  0  3  0  0  0  0  0  0
  185.1820  178.2130  147.0550 C   0  0  0  0  0  2  0  0  0  0  0  0
  184.0470  178.7140  146.1920 C   0  0  0  0  0  2  0  0  0  0  0  0
  193.5680  173.6680  140.7840 C   0  0  1  0  0  3  0  0  0  0  0  0
  195.0810  173.6210  140.6250 C   0  0  0  0  0  1  0  0  0  0  0  0
  192.8220  172.3160  140.6250 C   0  0  1  0  0  3  0  0  0  0  0  0
  190.3840  173.6810  139.0510 O   0  0  0  0  0  0  0  0  0  0  0  0
  189.5490  172.5690  138.8980 C   0  0  1  0  0  3  0  0  0  0  0  0
  192.5800  173.1530  138.2000 C   0  0  0  0  0  2  0  0  0  0  0  0
  191.1780  173.6880  137.9000 C   0  0  0  0  0  2  0  0  0  0  0  0
  191.4810  170.9340  138.9020 C   0  0  0  0  0  2  0  0  0  0  0  0
  192.6290  171.9340  139.1410 C   0  0  2  0  0  3  0  0  0  0  0  0
  190.1700  171.3510  139.5730 C   0  0  0  0  0  2  0  0  0  0  0  0
  188.1920  172.8440  139.5290 C   0  0  0  0  0  2  0  0  0  0  0  0
  188.3370  173.6130  140.8350 C   0  0  0  0  0  2  0  0  0  0  0  0
  187.8230  172.7950  142.0090 C   0  0  0  0  0  2  0  0  0  0  0  0
  188.8960  172.3320  142.7700 O   0  0  0  0  0  1  0  0  0  0  0  0
  193.3320  171.1260  141.4700 C   0  0  0  0  0  3  0  0  0  0  0  0
  192.2830  170.5450  142.4060 C   0  0  0  0  0  1  0  0  0  0  0  0
  193.9790  170.0350  140.6400 C   0  0  0  0  0  1  0  0  0  0  0  0
  1 25  1  6  0  0  0
  1 11  1  0  0  0  0
  2 10  1  0  0  0  0
  2 12  1  6  0  0  0
  3  5  1  0  0  0  0
  4  9  1  1  0  0  0
  4  7  1  0  0  0  0
  5  7  1  0  0  0  0
  6  1  1  0  0  0  0
  6  8  1  0  0  0  0
  8 14  1  6  0  0  0
  8 10  1  0  0  0  0
 10  4  1  0  0  0  0
 11  2  1  0  0  0  0
 12  3  1  0  0  0  0
 14 13  1  0  0  0  0
 15 14  2  0  0  0  0
 17 20  2  0  0  0  0
 17 21  1  0  0  0  0
 18 16  1  0  0  0  0
 18 22  1  0  0  0  0
 19 13  1  0  0  0  0
 19 16  2  0  0  0  0
 20 19  1  0  0  0  0
 21 18  2  0  0  0  0
 22 24  1  0  0  0  0
 22 23  1  0  0  0  0
 24 23  1  0  0  0  0
 26 25  1  0  0  0  0
 27 25  1  0  0  0  0
 27 39  1  0  0  0  0
 29 28  1  0  0  0  0
 29 35  1  0  0  0  0
 29 34  1  0  0  0  0
 30 33  1  0  0  0  0
 31 30  1  0  0  0  0
 31 28  1  0  0  0  0
 32 33  1  0  0  0  0
 32 34  1  0  0  0  0
 33 27  1  0  0  0  0
 35 36  1  0  0  0  0
 36 37  1  0  0  0  0
 37 38  1  0  0  0  0
 39 40  1  0  0  0  0
 41 39  1  0  0  0  0
M  END
>  <MODEL>
5

>  <REMARK>
 VINA RESULT:      -7.0      1.980      4.984
  Name = 
  10 active torsions:
  status: ('A' for Active; 'I' for Inactive)
    1  A    between atoms: C_1  and  C_9
    2  A    between atoms: N_3  and  C_29
    3  A    between atoms: C_4  and  C_40
    4  A    between atoms: C_5  and  C_27
    5  A    between atoms: C_9  and  C_40
    6  A    between atoms: C_10  and  C_36
    7  A    between atoms: C_14  and  C_15
    8  A    between atoms: C_14  and  C_36
    9  A    between atoms: C_19  and  C_22
   10  A    between atoms: C_30  and  C_40
                            x       y       z     vdW  Elec       q    Type
                         _______ _______ _______ _____ _____    ______ ____

>  <TORSDO>
F 10

$$$$
=
 OpenBabel11062421443D

 41 45  0  0  1  0  0  0  0  0999 V2000
  189.7150  174.5000  142.6500 C   0  0  1  0  0  3  0  0  0  0  0  0
  189.4650  172.7740  141.1470 C   0  0  1  0  0  3  0  0  0  0  0  0
  189.7700  172.5320  138.6550 C   0  0  0  0  0  2  0  0  0  0  0  0
  191.2280  170.9170  140.9440 C   0  0  2  0  0  3  0  0  0  0  0  0
  191.0650  172.0130  138.7870 O   0  0  0  0  0  0  0  0  0  0  0  0
  190.7850  173.8490  143.5300 C   0  0  0  0  0  2  0  0  0  0  0  0
  190.9000  170.7920  139.4520 C   0  0  0  0  0  2  0  0  0  0  0  0
  191.1730  172.4560  143.0210 C   0  0  1  0  0  3  0  0  0  0  0  0
  190.5130  169.8090  141.7010 C   0  0  0  0  0  1  0  0  0  0  0  0
  190.8960  172.3110  141.5160 C   0  0  2  0  0  3  0  0  0  0  0  0
  188.8180  173.5330  142.1530 O   0  0  0  0  0  0  0  0  0  0  0  0
  189.4530  173.4970  139.7990 C   0  0  0  0  0  2  0  0  0  0  0  0
  192.9120  171.5870  144.6260 N   0  0  0  0  0  2  0  0  0  0  0  0
  192.6020  172.1750  143.3560 C   0  0  0  0  0  0  0  0  0  0  0  0
  193.5090  172.4390  142.5200 O   0  0  0  0  0  0  0  0  0  0  0  0
  194.6220  170.0310  145.5230 C   0  0  0  0  0  3  0  0  0  0  0  0
  196.4120  172.1620  145.7630 C   0  0  0  0  0  3  0  0  0  0  0  0
  195.9070  169.8030  146.0340 C   0  0  0  0  0  0  0  0  0  0  0  0
  194.2190  171.3230  145.1500 C   0  0  0  0  0  0  0  0  0  0  0  0
  195.1220  172.3840  145.2750 C   0  0  0  0  0  3  0  0  0  0  0  0
  196.8060  170.8740  146.1370 C   0  0  0  0  0  3  0  0  0  0  0  0
  196.3470  168.4130  146.3840 C   0  0  0  0  0  3  0  0  0  0  0  0
  196.2030  168.1660  147.8760 C   0  0  0  0  0  2  0  0  0  0  0  0
  197.5650  168.4580  147.2920 C   0  0  0  0  0  2  0  0  0  0  0  0
  188.9850  175.6130  143.4010 C   0  0  1  0  0  3  0  0  0  0  0  0
  187.4790  175.5190  143.2110 C   0  0  0  0  0  1  0  0  0  0  0  0
  189.4790  175.8210  144.8570 C   0  0  1  0  0  3  0  0  0  0  0  0
  192.2090  176.7030  143.4250 O   0  0  0  0  0  0  0  0  0  0  0  0
  193.0450  176.7920  144.5440 C   0  0  1  0  0  3  0  0  0  0  0  0
  190.2360  178.0440  143.7960 C   0  0  0  0  0  2  0  0  0  0  0  0
  191.6750  177.9880  143.2800 C   0  0  0  0  0  2  0  0  0  0  0  0
  191.1370  177.3590  146.1070 C   0  0  0  0  0  2  0  0  0  0  0  0
  189.9760  177.2630  145.0990 C   0  0  2  0  0  3  0  0  0  0  0  0
  192.2820  176.3900  145.8010 C   0  0  0  0  0  2  0  0  0  0  0  0
  194.2410  175.8670  144.3760 C   0  0  0  0  0  2  0  0  0  0  0  0
  194.6790  175.7910  142.9200 C   0  0  0  0  0  2  0  0  0  0  0  0
  196.1110  176.2750  142.7550 C   0  0  0  0  0  2  0  0  0  0  0  0
  196.8590  175.9400  143.8840 O   0  0  0  0  0  1  0  0  0  0  0  0
  188.5520  175.3280  145.9930 C   0  0  0  0  0  3  0  0  0  0  0  0
  189.2760  174.5500  147.0810 C   0  0  0  0  0  1  0  0  0  0  0  0
  187.7000  176.4300  146.5920 C   0  0  0  0  0  1  0  0  0  0  0  0
  1 25  1  1  0  0  0
  1  6  1  0  0  0  0
  2 12  1  6  0  0  0
  2 10  1  0  0  0  0
  2 11  1  0  0  0  0
  3  5  1  0  0  0  0
  3 12  1  0  0  0  0
  4 10  1  0  0  0  0
  4  9  1  1  0  0  0
  5  7  1  0  0  0  0
  7  4  1  0  0  0  0
  8 14  1  6  0  0  0
  8  6  1  0  0  0  0
 10  8  1  0  0  0  0
 11  1  1  0  0  0  0
 13 19  1  0  0  0  0
 14 13  1  0  0  0  0
 15 14  2  0  0  0  0
 16 18  1  0  0  0  0
 17 21  1  0  0  0  0
 18 21  2  0  0  0  0
 18 22  1  0  0  0  0
 19 20  1  0  0  0  0
 19 16  2  0  0  0  0
 20 17  2  0  0  0  0
 22 24  1  0  0  0  0
 22 23  1  0  0  0  0
 24 23  1  0  0  0  0
 25 27  1  0  0  0  0
 26 25  1  0  0  0  0
 27 33  1  0  0  0  0
 27 39  1  0  0  0  0
 28 29  1  0  0  0  0
 29 34  1  0  0  0  0
 30 33  1  0  0  0  0
 31 28  1  0  0  0  0
 31 30  1  0  0  0  0
 33 32  1  0  0  0  0
 34 32  1  0  0  0  0
 35 29  1  0  0  0  0
 36 35  1  0  0  0  0
 37 36  1  0  0  0  0
 37 38  1  0  0  0  0
 39 41  1  0  0  0  0
 39 40  1  0  0  0  0
M  END
>  <MODEL>
6

>  <REMARK>
 VINA RESULT:      -7.0      2.520      8.029
  Name = 
  10 active torsions:
  status: ('A' for Active; 'I' for Inactive)
    1  A    between atoms: C_1  and  C_9
    2  A    between atoms: N_3  and  C_29
    3  A    between atoms: C_4  and  C_40
    4  A    between atoms: C_5  and  C_27
    5  A    between atoms: C_9  and  C_40
    6  A    between atoms: C_10  and  C_36
    7  A    between atoms: C_14  and  C_15
    8  A    between atoms: C_14  and  C_36
    9  A    between atoms: C_19  and  C_22
   10  A    between atoms: C_30  and  C_40
                            x       y       z     vdW  Elec       q    Type
                         _______ _______ _______ _____ _____    ______ ____

>  <TORSDO>
F 10

$$$$
=
 OpenBabel11062421443D

 41 45  0  0  1  0  0  0  0  0999 V2000
  192.7310  174.4210  142.4930 C   0  0  1  0  0  3  0  0  0  0  0  0
  193.9120  175.0340  144.3720 C   0  0  1  0  0  3  0  0  0  0  0  0
  195.6440  176.7940  144.8830 C   0  0  0  0  0  2  0  0  0  0  0  0
  192.8190  176.4140  146.2420 C   0  0  2  0  0  3  0  0  0  0  0  0
  194.6940  177.6920  145.3870 O   0  0  0  0  0  0  0  0  0  0  0  0
  191.3260  174.6720  143.0460 C   0  0  0  0  0  2  0  0  0  0  0  0
  194.1750  177.0690  146.5280 C   0  0  0  0  0  2  0  0  0  0  0  0
  191.3640  175.1940  144.4860 C   0  0  1  0  0  3  0  0  0  0  0  0
  192.5800  175.3100  147.2610 C   0  0  0  0  0  1  0  0  0  0  0  0
  192.6970  175.8960  144.7940 C   0  0  2  0  0  3  0  0  0  0  0  0
  193.5940  173.9580  143.5070 O   0  0  0  0  0  0  0  0  0  0  0  0
  195.0310  175.9060  143.8000 C   0  0  0  0  0  2  0  0  0  0  0  0
  189.1450  175.6340  145.5980 N   0  0  0  0  0  2  0  0  0  0  0  0
  190.1920  176.0890  144.7320 C   0  0  0  0  0  0  0  0  0  0  0  0
  190.1450  177.2290  144.1940 O   0  0  0  0  0  0  0  0  0  0  0  0
  187.1160  176.8600  144.8680 C   0  0  0  0  0  3  0  0  0  0  0  0
  186.2960  177.0550  147.5310 C   0  0  0  0  0  3  0  0  0  0  0  0
  185.9190  177.5200  145.1790 C   0  0  0  0  0  0  0  0  0  0  0  0
  187.9160  176.3140  145.8840 C   0  0  0  0  0  0  0  0  0  0  0  0
  187.4980  176.4170  147.2150 C   0  0  0  0  0  3  0  0  0  0  0  0
  185.5050  177.6000  146.5160 C   0  0  0  0  0  3  0  0  0  0  0  0
  185.0460  178.0570  144.0860 C   0  0  0  0  0  3  0  0  0  0  0  0
  185.2710  179.5490  143.9050 C   0  0  0  0  0  2  0  0  0  0  0  0
  184.0500  179.0580  144.6490 C   0  0  0  0  0  2  0  0  0  0  0  0
  192.6920  173.4620  141.3040 C   0  0  1  0  0  3  0  0  0  0  0  0
  194.0560  173.3430  140.6380 C   0  0  0  0  0  1  0  0  0  0  0  0
  191.9530  172.1280  141.5910 C   0  0  1  0  0  3  0  0  0  0  0  0
  189.7850  174.1780  140.4170 O   0  0  0  0  0  0  0  0  0  0  0  0
  188.6090  173.5300  140.8120 C   0  0  1  0  0  3  0  0  0  0  0  0
  191.1720  172.6320  139.1880 C   0  0  0  0  0  2  0  0  0  0  0  0
  190.0540  173.6740  139.1400 C   0  0  0  0  0  2  0  0  0  0  0  0
  189.6780  171.2370  140.7510 C   0  0  0  0  0  2  0  0  0  0  0  0
  191.1130  171.6610  140.3830 C   0  0  2  0  0  3  0  0  0  0  0  0
  188.9450  172.2740  141.6070 C   0  0  0  0  0  2  0  0  0  0  0  0
  187.7710  174.4550  141.6820 C   0  0  0  0  0  2  0  0  0  0  0  0
  188.2240  175.9020  141.5450 C   0  0  0  0  0  2  0  0  0  0  0  0
  187.1100  176.7710  140.9840 C   0  0  0  0  0  2  0  0  0  0  0  0
  187.2660  178.0860  141.4210 O   0  0  0  0  0  1  0  0  0  0  0  0
  192.7880  170.9760  142.1980 C   0  0  0  0  0  3  0  0  0  0  0  0
  192.3400  170.5630  143.5920 C   0  0  0  0  0  1  0  0  0  0  0  0
  192.9000  169.7710  141.2860 C   0  0  0  0  0  1  0  0  0  0  0  0
  1 25  1  6  0  0  0
  1  6  1  0  0  0  0
  1 11  1  0  0  0  0
  2 12  1  6  0  0  0
  2 10  1  0  0  0  0
  3  5  1  0  0  0  0
  4  7  1  0  0  0  0
  4  9  1  1  0  0  0
  5  7  1  0  0  0  0
  6  8  1  0  0  0  0
  8 14  1  6  0  0  0
  8 10  1  0  0  0  0
 10  4  1  0  0  0  0
 11  2  1  0  0  0  0
 12  3  1  0  0  0  0
 13 19  1  0  0  0  0
 14 13  1  0  0  0  0
 15 14  2  0  0  0  0
 16 18  2  0  0  0  0
 16 19  1  0  0  0  0
 18 21  1  0  0  0  0
 19 20  2  0  0  0  0
 20 17  1  0  0  0  0
 21 17  2  0  0  0  0
 22 24  1  0  0  0  0
 22 18  1  0  0  0  0
 23 22  1  0  0  0  0
 23 24  1  0  0  0  0
 25 27  1  0  0  0  0
 26 25  1  0  0  0  0
 27 39  1  0  0  0  0
 28 29  1  0  0  0  0
 29 34  1  0  0  0  0
 29 35  1  0  0  0  0
 30 33  1  0  0  0  0
 31 30  1  0  0  0  0
 31 28  1  0  0  0  0
 32 34  1  0  0  0  0
 33 32  1  0  0  0  0
 33 27  1  0  0  0  0
 36 35  1  0  0  0  0
 37 38  1  0  0  0  0
 37 36  1  0  0  0  0
 39 40  1  0  0  0  0
 41 39  1  0  0  0  0
M  END
>  <MODEL>
7

>  <REMARK>
 VINA RESULT:      -7.0      1.971      5.283
  Name = 
  10 active torsions:
  status: ('A' for Active; 'I' for Inactive)
    1  A    between atoms: C_1  and  C_9
    2  A    between atoms: N_3  and  C_29
    3  A    between atoms: C_4  and  C_40
    4  A    between atoms: C_5  and  C_27
    5  A    between atoms: C_9  and  C_40
    6  A    between atoms: C_10  and  C_36
    7  A    between atoms: C_14  and  C_15
    8  A    between atoms: C_14  and  C_36
    9  A    between atoms: C_19  and  C_22
   10  A    between atoms: C_30  and  C_40
                            x       y       z     vdW  Elec       q    Type
                         _______ _______ _______ _____ _____    ______ ____

>  <TORSDO>
F 10

$$$$
=
 OpenBabel11062421443D

 41 45  0  0  1  0  0  0  0  0999 V2000
  191.1930  173.3830  143.7810 C   0  0  1  0  0  3  0  0  0  0  0  0
  192.5750  174.2630  145.4000 C   0  0  1  0  0  3  0  0  0  0  0  0
  194.6780  175.6530  145.3730 C   0  0  0  0  0  2  0  0  0  0  0  0
  191.9120  176.3630  146.7210 C   0  0  2  0  0  3  0  0  0  0  0  0
  193.9780  176.8540  145.5490 O   0  0  0  0  0  0  0  0  0  0  0  0
  189.9080  174.1050  144.1970 C   0  0  0  0  0  2  0  0  0  0  0  0
  193.3920  176.7480  146.8170 C   0  0  0  0  0  2  0  0  0  0  0  0
  190.1350  175.0240  145.4030 C   0  0  1  0  0  3  0  0  0  0  0  0
  191.4860  175.7120  148.0280 C   0  0  0  0  0  1  0  0  0  0  0  0
  191.6040  175.4650  145.5040 C   0  0  2  0  0  3  0  0  0  0  0  0
  191.9820  173.0740  144.9070 O   0  0  0  0  0  0  0  0  0  0  0  0
  193.8290  174.6360  144.6080 C   0  0  0  0  0  2  0  0  0  0  0  0
  187.9580  176.1270  146.0340 N   0  0  0  0  0  2  0  0  0  0  0  0
  189.2050  176.1920  145.3310 C   0  0  0  0  0  0  0  0  0  0  0  0
  189.5310  177.2180  144.6740 O   0  0  0  0  0  0  0  0  0  0  0  0
  186.4650  177.6910  144.8200 C   0  0  0  0  0  3  0  0  0  0  0  0
  185.2790  178.4160  147.2430 C   0  0  0  0  0  3  0  0  0  0  0  0
  185.4410  178.6480  144.8330 C   0  0  0  0  0  0  0  0  0  0  0  0
  186.9130  177.1080  146.0150 C   0  0  0  0  0  0  0  0  0  0  0  0
  186.3150  177.4780  147.2240 C   0  0  0  0  0  3  0  0  0  0  0  0
  184.8390  178.9950  146.0500 C   0  0  0  0  0  3  0  0  0  0  0  0
  184.9330  179.2300  143.5480 C   0  0  0  0  0  3  0  0  0  0  0  0
  183.9900  178.2580  142.8560 C   0  0  0  0  0  2  0  0  0  0  0  0
  185.4130  178.4010  142.3670 C   0  0  0  0  0  2  0  0  0  0  0  0
  190.8820  172.1390  142.9510 C   0  0  1  0  0  3  0  0  0  0  0  0
  189.3830  171.9430  142.7810 C   0  0  0  0  0  1  0  0  0  0  0  0
  191.7390  172.0070  141.6640 C   0  0  1  0  0  3  0  0  0  0  0  0
  194.2010  171.2200  143.5620 O   0  0  0  0  0  0  0  0  0  0  0  0
  195.2280  171.1820  142.6130 C   0  0  1  0  0  3  0  0  0  0  0  0
  192.3880  169.8040  142.8320 C   0  0  0  0  0  2  0  0  0  0  0  0
  193.7070  169.9130  143.6000 C   0  0  0  0  0  2  0  0  0  0  0  0
  193.6610  170.5570  140.7270 C   0  0  0  0  0  2  0  0  0  0  0  0
  192.3340  170.5910  141.5080 C   0  0  2  0  0  3  0  0  0  0  0  0
  194.6890  171.5680  141.2400 C   0  0  0  0  0  2  0  0  0  0  0  0
  196.3330  172.1530  143.0000 C   0  0  0  0  0  2  0  0  0  0  0  0
  196.6590  172.0560  144.4830 C   0  0  0  0  0  2  0  0  0  0  0  0
  197.4460  173.2700  144.9500 C   0  0  0  0  0  2  0  0  0  0  0  0
  197.1870  173.5140  146.2990 O   0  0  0  0  0  1  0  0  0  0  0  0
  191.1160  172.5230  140.3460 C   0  0  0  0  0  3  0  0  0  0  0  0
  191.9870  173.5290  139.6090 C   0  0  0  0  0  1  0  0  0  0  0  0
  190.6700  171.4120  139.4170 C   0  0  0  0  0  1  0  0  0  0  0  0
  1 25  1  1  0  0  0
  1  6  1  0  0  0  0
  1 11  1  0  0  0  0
  2 12  1  6  0  0  0
  2 10  1  0  0  0  0
  3  5  1  0  0  0  0
  4  7  1  0  0  0  0
  4  9  1  1  0  0  0
  5  7  1  0  0  0  0
  6  8  1  0  0  0  0
  8 14  1  6  0  0  0
  8 10  1  0  0  0  0
 10  4  1  0  0  0  0
 11  2  1  0  0  0  0
 12  3  1  0  0  0  0
 14 13  1  0  0  0  0
 15 14  2  0  0  0  0
 16 18  2  0  0  0  0
 16 19  1  0  0  0  0
 18 21  1  0  0  0  0
 19 13  1  0  0  0  0
 19 20  2  0  0  0  0
 20 17  1  0  0  0  0
 21 17  2  0  0  0  0
 22 18  1  0  0  0  0
 23 22  1  0  0  0  0
 24 23  1  0  0  0  0
 24 22  1  0  0  0  0
 26 25  1  0  0  0  0
 27 25  1  0  0  0  0
 28 31  1  0  0  0  0
 29 35  1  0  0  0  0
 29 28  1  0  0  0  0
 30 31  1  0  0  0  0
 32 34  1  0  0  0  0
 32 33  1  0  0  0  0
 33 27  1  0  0  0  0
 33 30  1  0  0  0  0
 34 29  1  0  0  0  0
 35 36  1  0  0  0  0
 36 37  1  0  0  0  0
 37 38  1  0  0  0  0
 39 27  1  0  0  0  0
 40 39  1  0  0  0  0
 41 39  1  0  0  0  0
M  END
>  <MODEL>
8

>  <REMARK>
 VINA RESULT:      -7.0      2.108      4.889
  Name = 
  10 active torsions:
  status: ('A' for Active; 'I' for Inactive)
    1  A    between atoms: C_1  and  C_9
    2  A    between atoms: N_3  and  C_29
    3  A    between atoms: C_4  and  C_40
    4  A    between atoms: C_5  and  C_27
    5  A    between atoms: C_9  and  C_40
    6  A    between atoms: C_10  and  C_36
    7  A    between atoms: C_14  and  C_15
    8  A    between atoms: C_14  and  C_36
    9  A    between atoms: C_19  and  C_22
   10  A    between atoms: C_30  and  C_40
                            x       y       z     vdW  Elec       q    Type
                         _______ _______ _______ _____ _____    ______ ____

>  <TORSDO>
F 10

$$$$
=
 OpenBabel11062421443D

 41 45  0  0  1  0  0  0  0  0999 V2000
  193.6270  175.2870  142.2140 C   0  0  1  0  0  3  0  0  0  0  0  0
  193.5120  174.8990  144.4800 C   0  0  1  0  0  3  0  0  0  0  0  0
  194.6930  175.8330  146.5030 C   0  0  0  0  0  2  0  0  0  0  0  0
  191.5930  175.8470  145.8990 C   0  0  2  0  0  3  0  0  0  0  0  0
  193.6680  176.7500  146.7730 O   0  0  0  0  0  0  0  0  0  0  0  0
  192.1760  175.7320  142.0100 C   0  0  0  0  0  2  0  0  0  0  0  0
  192.5530  175.9630  147.0890 C   0  0  0  0  0  2  0  0  0  0  0  0
  191.3880  175.7260  143.3240 C   0  0  1  0  0  3  0  0  0  0  0  0
  190.7560  174.5880  146.0620 C   0  0  0  0  0  1  0  0  0  0  0  0
  192.3190  175.8840  144.5380 C   0  0  2  0  0  3  0  0  0  0  0  0
  193.7130  174.2980  143.2130 O   0  0  0  0  0  0  0  0  0  0  0  0
  194.7910  175.5550  145.0020 C   0  0  0  0  0  2  0  0  0  0  0  0
  188.9690  176.4110  143.5130 N   0  0  0  0  0  2  0  0  0  0  0  0
  190.3340  176.7850  143.2870 C   0  0  0  0  0  0  0  0  0  0  0  0
  190.6550  177.9870  143.0770 O   0  0  0  0  0  0  0  0  0  0  0  0
  187.1680  177.7350  144.5850 C   0  0  0  0  0  3  0  0  0  0  0  0
  186.2560  178.5100  142.0610 C   0  0  0  0  0  3  0  0  0  0  0  0
  186.0480  178.5720  144.4780 C   0  0  0  0  0  0  0  0  0  0  0  0
  187.8230  177.2670  143.4350 C   0  0  0  0  0  0  0  0  0  0  0  0
  187.3590  177.6600  142.1760 C   0  0  0  0  0  3  0  0  0  0  0  0
  185.6060  178.9700  143.2080 C   0  0  0  0  0  3  0  0  0  0  0  0
  185.3840  179.1090  145.7100 C   0  0  0  0  0  3  0  0  0  0  0  0
  184.7490  177.9820  146.5090 C   0  0  0  0  0  2  0  0  0  0  0  0
  183.8840  178.8720  145.6470 C   0  0  0  0  0  2  0  0  0  0  0  0
  194.2490  174.8180  140.8990 C   0  0  1  0  0  3  0  0  0  0  0  0
  195.4050  175.7130  140.4780 C   0  0  0  0  0  1  0  0  0  0  0  0
  194.5090  173.2890  140.8330 C   0  0  1  0  0  3  0  0  0  0  0  0
  191.3210  172.9870  140.6670 O   0  0  0  0  0  0  0  0  0  0  0  0
  191.2100  171.5960  140.7700 C   0  0  1  0  0  3  0  0  0  0  0  0
  192.8470  173.5350  138.8790 C   0  0  0  0  0  2  0  0  0  0  0  0
  191.4050  173.2340  139.2930 C   0  0  0  0  0  2  0  0  0  0  0  0
  193.4810  171.1910  139.7300 C   0  0  0  0  0  2  0  0  0  0  0  0
  193.9190  172.6570  139.5540 C   0  0  2  0  0  3  0  0  0  0  0  0
  192.5890  170.9720  140.9540 C   0  0  0  0  0  2  0  0  0  0  0  0
  190.3380  171.2280  141.9620 C   0  0  0  0  0  2  0  0  0  0  0  0
  189.8140  172.4710  142.6650 C   0  0  0  0  0  2  0  0  0  0  0  0
  188.3290  172.6630  142.3980 C   0  0  0  0  0  2  0  0  0  0  0  0
  188.1450  173.6360  141.4150 O   0  0  0  0  0  1  0  0  0  0  0  0
  195.9530  172.8070  141.1070 C   0  0  0  0  0  3  0  0  0  0  0  0
  196.0570  171.7960  142.2390 C   0  0  0  0  0  1  0  0  0  0  0  0
  196.6630  172.3050  139.8660 C   0  0  0  0  0  1  0  0  0  0  0  0
  1 25  1  6  0  0  0
  1 11  1  0  0  0  0
  2 10  1  0  0  0  0
  2 12  1  6  0  0  0
  3  5  1  0  0  0  0
  4  9  1  1  0  0  0
  4  7  1  0  0  0  0
  5  7  1  0  0  0  0
  6  1  1  0  0  0  0
  6  8  1  0  0  0  0
  8 14  1  6  0  0  0
  8 10  1  0  0  0  0
 10  4  1  0  0  0  0
 11  2  1  0  0  0  0
 12  3  1  0  0  0  0
 14 13  1  0  0  0  0
 15 14  2  0  0  0  0
 17 20  2  0  0  0  0
 17 21  1  0  0  0  0
 18 16  1  0  0  0  0
 18 22  1  0  0  0  0
 19 13  1  0  0  0  0
 19 16  2  0  0  0  0
 20 19  1  0  0  0  0
 21 18  2  0  0  0  0
 22 23  1  0  0  0  0
 24 22  1  0  0  0  0
 24 23  1  0  0  0  0
 26 25  1  0  0  0  0
 27 25  1  0  0  0  0
 27 39  1  0  0  0  0
 28 29  1  0  0  0  0
 29 34  1  0  0  0  0
 29 35  1  0  0  0  0
 30 31  1  0  0  0  0
 30 33  1  0  0  0  0
 31 28  1  0  0  0  0
 32 34  1  0  0  0  0
 33 32  1  0  0  0  0
 33 27  1  0  0  0  0
 35 36  1  0  0  0  0
 37 36  1  0  0  0  0
 38 37  1  0  0  0  0
 39 40  1  0  0  0  0
 41 39  1  0  0  0  0
M  END
>  <MODEL>
9

>  <REMARK>
 VINA RESULT:      -6.9      1.801      4.451
  Name = 
  10 active torsions:
  status: ('A' for Active; 'I' for Inactive)
    1  A    between atoms: C_1  and  C_9
    2  A    between atoms: N_3  and  C_29
    3  A    between atoms: C_4  and  C_40
    4  A    between atoms: C_5  and  C_27
    5  A    between atoms: C_9  and  C_40
    6  A    between atoms: C_10  and  C_36
    7  A    between atoms: C_14  and  C_15
    8  A    between atoms: C_14  and  C_36
    9  A    between atoms: C_19  and  C_22
   10  A    between atoms: C_30  and  C_40
                            x       y       z     vdW  Elec       q    Type
                         _______ _______ _______ _____ _____    ______ ____

>  <TORSDO>
F 10

$$$$
