=
 OpenBabel11072408593D

 45 50  0  0  1  0  0  0  0  0999 V2000
  188.6770  174.7450  142.0470 C   0  0  0  0  0  0  0  0  0  0  0  0
  189.5270  175.0940  143.1570 N   0  0  0  0  0  0  0  0  0  0  0  0
  188.6090  175.4980  141.0360 O   0  0  0  0  0  0  0  0  0  0  0  0
  187.7540  176.2980  146.3690 C   0  0  1  0  0  3  0  0  0  0  0  0
  188.4210  176.4300  144.9910 C   0  0  1  0  0  3  0  0  0  0  0  0
  188.9310  175.0610  144.5040 C   0  0  2  0  0  3  0  0  0  0  0  0
  189.2830  174.4780  146.9210 C   0  0  0  0  0  3  0  0  0  0  0  0
  189.8800  174.4420  145.5390 C   0  0  0  0  0  2  0  0  0  0  0  0
  188.3850  175.3350  147.2670 N   0  0  0  0  0  0  0  0  0  0  0  0
  187.6500  177.8800  147.1900 Cl  0  0  0  0  0  0  0  0  0  0  0  0
  186.1420  176.5830  143.9650 C   0  0  0  0  0  3  0  0  0  0  0  0
  187.8350  178.1310  143.1870 C   0  0  0  0  0  3  0  0  0  0  0  0
  185.2010  177.1940  143.1290 C   0  0  0  0  0  3  0  0  0  0  0  0
  186.8900  178.7510  142.3600 C   0  0  0  0  0  3  0  0  0  0  0  0
  185.5700  178.2850  142.3350 C   0  0  0  0  0  3  0  0  0  0  0  0
  187.4550  177.0660  144.0230 C   0  0  0  0  0  0  0  0  0  0  0  0
  190.9470  175.4350  142.9630 C   0  0  1  0  0  3  0  0  0  0  0  0
  191.5140  174.7610  141.7070 C   0  0  0  0  0  1  0  0  0  0  0  0
  191.1220  176.9590  142.9130 C   0  0  0  0  0  2  0  0  0  0  0  0
  192.2730  177.4390  143.7820 C   0  0  0  0  0  2  0  0  0  0  0  0
  192.7530  176.3560  144.5280 O   0  0  0  0  0  0  0  0  0  0  0  0
  192.8070  176.2680  146.9160 C   0  0  0  0  0  1  0  0  0  0  0  0
  193.3690  176.9050  145.6540 C   0  0  0  0  0  2  0  0  0  0  0  0
  187.8510  173.4880  142.0810 C   0  0  0  0  0  2  0  0  0  0  0  0
  188.6930  172.2910  142.5250 C   0  0  0  0  0  2  0  0  0  0  0  0
  189.5230  171.8590  141.4040 N   0  0  0  0  0  2  0  0  0  0  0  0
  191.7340  171.0910  140.8100 N   0  0  0  0  0  2  0  0  0  0  0  0
  190.8020  171.3770  141.9210 C   0  0  2  0  0  3  0  0  0  0  0  0
  191.0300  169.9890  141.4900 C   0  0  2  0  0  3  0  0  0  0  0  0
  192.0200  169.2050  142.3940 C   0  0  0  0  0  2  0  0  0  0  0  0
  194.1400  170.4620  142.9230 C   0  0  0  0  0  0  0  0  0  0  0  0
  193.4420  169.4830  142.1390 N   0  0  0  0  0  0  0  0  0  0  0  0
  195.0160  171.1870  142.3720 O   0  0  0  0  0  0  0  0  0  0  0  0
  194.1580  168.7620  141.0960 C   0  0  0  0  0  1  0  0  0  0  0  0
  195.1590  170.6240  145.2440 C   0  0  0  0  0  0  0  0  0  0  0  0
  196.1120  169.4360  145.2770 C   0  0  0  0  0  2  0  0  0  0  0  0
  193.0110  171.8660  144.6830 C   0  0  0  0  0  3  0  0  0  0  0  0
  195.0660  169.5910  146.3540 C   0  0  0  0  0  2  0  0  0  0  0  0
  195.8430  174.2610  145.4720 C   0  0  0  0  0  2  0  0  0  0  0  0
  197.1860  173.6440  145.8890 C   0  0  0  0  0  2  0  0  0  0  0  0
  195.1090  173.0650  144.9440 C   0  0  2  0  0  3  0  0  0  0  0  0
  193.6090  173.0530  144.9360 C   0  0  0  0  0  3  0  0  0  0  0  0
  197.0300  172.1810  145.9620 N   0  0  0  0  0  2  0  0  0  0  0  0
  193.8450  170.6120  144.4040 C   0  0  1  0  0  3  0  0  0  0  0  0
  195.5950  171.9700  145.8430 C   0  0  2  0  0  3  0  0  0  0  0  0
  1 24  1  0  0  0  0
  1  2  1  0  0  0  0
  3  1  2  0  0  0  0
  4 10  1  1  0  0  0
  4  9  1  0  0  0  0
  5 16  1  6  0  0  0
  5  4  1  0  0  0  0
  6  2  1  6  0  0  0
  6  5  1  0  0  0  0
  6  8  1  0  0  0  0
  7  9  2  0  0  0  0
  8  7  1  0  0  0  0
 11 16  1  0  0  0  0
 12 16  2  0  0  0  0
 13 11  2  0  0  0  0
 14 12  1  0  0  0  0
 15 14  2  0  0  0  0
 15 13  1  0  0  0  0
 17 18  1  6  0  0  0
 17  2  1  0  0  0  0
 19 17  1  0  0  0  0
 19 20  1  0  0  0  0
 20 21  1  0  0  0  0
 21 23  1  0  0  0  0
 23 22  1  0  0  0  0
 24 25  1  0  0  0  0
 26 25  1  0  0  0  0
 27 29  1  0  0  0  0
 27 28  1  0  0  0  0
 28 26  1  6  0  0  0
 29 28  1  0  0  0  0
 29 30  1  1  0  0  0
 32 30  1  0  0  0  0
 32 31  1  0  0  0  0
 33 31  2  0  0  0  0
 34 32  1  0  0  0  0
 35 36  1  0  0  0  0
 35 45  1  0  0  0  0
 35 38  1  0  0  0  0
 36 38  1  0  0  0  0
 37 42  2  0  0  0  0
 39 40  1  0  0  0  0
 40 43  1  0  0  0  0
 41 42  1  1  0  0  0
 41 39  1  0  0  0  0
 41 45  1  0  0  0  0
 44 31  1  6  0  0  0
 44 37  1  0  0  0  0
 44 35  1  0  0  0  0
 45 43  1  6  0  0  0
M  END
>  <MODEL>
1

>  <REMARK>
 VINA RESULT:      -6.4      0.000      0.000
  Name = 
  14 active torsions:
  status: ('A' for Active; 'I' for Inactive)
    1  A    between atoms: C_5  and  C_11
    2  A    between atoms: C_5  and  N_25
    3  A    between atoms: C_8  and  C_41
    4  A    between atoms: N_9  and  C_20
    5  A    between atoms: N_9  and  C_22
    6  A    between atoms: C_11  and  C_43
    7  A    between atoms: C_12  and  C_36
    8  A    between atoms: C_13  and  N_25
    9  A    between atoms: O_18  and  C_37
   10  A    between atoms: O_18  and  C_43
   11  A    between atoms: C_19  and  C_42
   12  A    between atoms: C_21  and  N_26
   13  A    between atoms: C_21  and  C_39
   14  A    between atoms: C_22  and  C_42
                            x       y       z     vdW  Elec       q    Type
                         _______ _______ _______ _____ _____    ______ ____

>  <TORSDO>
F 14

$$$$
=
 OpenBabel11072408593D

 45 50  0  0  1  0  0  0  0  0999 V2000
  188.1010  176.1920  142.1150 C   0  0  0  0  0  0  0  0  0  0  0  0
  188.7490  177.1850  142.9340 N   0  0  0  0  0  0  0  0  0  0  0  0
  188.2990  176.1690  140.8680 O   0  0  0  0  0  0  0  0  0  0  0  0
  186.6220  178.0330  146.0450 C   0  0  1  0  0  3  0  0  0  0  0  0
  187.4390  177.1450  145.0920 C   0  0  1  0  0  3  0  0  0  0  0  0
  187.9030  177.9520  143.8650 C   0  0  2  0  0  3  0  0  0  0  0  0
  185.8110  179.3140  144.1330 C   0  0  0  0  0  3  0  0  0  0  0  0
  186.7010  178.5920  143.1580 C   0  0  0  0  0  2  0  0  0  0  0  0
  185.7650  179.0140  145.3860 N   0  0  0  0  0  0  0  0  0  0  0  0
  185.6330  177.0460  147.1560 Cl  0  0  0  0  0  0  0  0  0  0  0  0
  189.4320  177.3530  146.5930 C   0  0  0  0  0  3  0  0  0  0  0  0
  188.8290  175.1370  145.8200 C   0  0  0  0  0  3  0  0  0  0  0  0
  190.4660  176.8030  147.3590 C   0  0  0  0  0  3  0  0  0  0  0  0
  189.8560  174.5860  146.5970 C   0  0  0  0  0  3  0  0  0  0  0  0
  190.6720  175.4200  147.3710 C   0  0  0  0  0  3  0  0  0  0  0  0
  188.5880  176.5230  145.8450 C   0  0  0  0  0  0  0  0  0  0  0  0
  190.2040  177.4050  142.8750 C   0  0  1  0  0  3  0  0  0  0  0  0
  190.6330  178.5340  143.8200 C   0  0  0  0  0  1  0  0  0  0  0  0
  190.9490  176.0980  143.1820 C   0  0  0  0  0  2  0  0  0  0  0  0
  192.1630  176.3180  144.0690 C   0  0  0  0  0  2  0  0  0  0  0  0
  192.6870  175.0710  144.4300 O   0  0  0  0  0  0  0  0  0  0  0  0
  193.8260  176.8210  145.5920 C   0  0  0  0  0  1  0  0  0  0  0  0
  193.7710  175.3360  145.2700 C   0  0  0  0  0  2  0  0  0  0  0  0
  187.1740  175.1790  142.7290 C   0  0  0  0  0  2  0  0  0  0  0  0
  187.4500  173.7790  142.1790 C   0  0  0  0  0  2  0  0  0  0  0  0
  188.7700  173.3480  142.6320 N   0  0  0  0  0  2  0  0  0  0  0  0
  190.0930  171.3490  142.3410 N   0  0  0  0  0  2  0  0  0  0  0  0
  189.3200  172.4070  141.6580 C   0  0  2  0  0  3  0  0  0  0  0  0
  190.7900  172.4640  141.6760 C   0  0  2  0  0  3  0  0  0  0  0  0
  191.4530  171.9660  140.3630 C   0  0  0  0  0  2  0  0  0  0  0  0
  193.8720  172.4720  139.8640 C   0  0  0  0  0  0  0  0  0  0  0  0
  192.8820  171.6340  140.4800 N   0  0  0  0  0  0  0  0  0  0  0  0
  194.9020  171.9430  139.3560 O   0  0  0  0  0  0  0  0  0  0  0  0
  193.3070  170.4590  141.2270 C   0  0  0  0  0  1  0  0  0  0  0  0
  194.9530  174.7050  140.4080 C   0  0  0  0  0  0  0  0  0  0  0  0
  195.4210  174.5110  141.8450 C   0  0  0  0  0  2  0  0  0  0  0  0
  193.3710  174.4800  138.4290 C   0  0  0  0  0  3  0  0  0  0  0  0
  194.5320  175.6790  141.4940 C   0  0  0  0  0  2  0  0  0  0  0  0
  196.8930  175.3330  137.3110 C   0  0  0  0  0  2  0  0  0  0  0  0
  197.9410  175.5600  138.4120 C   0  0  0  0  0  2  0  0  0  0  0  0
  195.7660  174.7200  138.0870 C   0  0  2  0  0  3  0  0  0  0  0  0
  194.3600  174.8310  137.5740 C   0  0  0  0  0  3  0  0  0  0  0  0
  197.2760  175.4600  139.7230 N   0  0  0  0  0  2  0  0  0  0  0  0
  193.6960  173.9790  139.8390 C   0  0  1  0  0  3  0  0  0  0  0  0
  195.8570  175.4310  139.4010 C   0  0  2  0  0  3  0  0  0  0  0  0
  1 24  1  0  0  0  0
  1  2  1  0  0  0  0
  3  1  2  0  0  0  0
  4 10  1  6  0  0  0
  5 16  1  1  0  0  0
  5  4  1  0  0  0  0
  6  2  1  6  0  0  0
  6  5  1  0  0  0  0
  7  9  2  0  0  0  0
  8  6  1  0  0  0  0
  8  7  1  0  0  0  0
  9  4  1  0  0  0  0
 11 13  1  0  0  0  0
 12 16  1  0  0  0  0
 12 14  2  0  0  0  0
 13 15  2  0  0  0  0
 14 15  1  0  0  0  0
 16 11  2  0  0  0  0
 17  2  1  0  0  0  0
 17 19  1  0  0  0  0
 17 18  1  1  0  0  0
 19 20  1  0  0  0  0
 20 21  1  0  0  0  0
 21 23  1  0  0  0  0
 23 22  1  0  0  0  0
 25 26  1  0  0  0  0
 25 24  1  0  0  0  0
 28 29  1  0  0  0  0
 28 27  1  0  0  0  0
 28 26  1  1  0  0  0
 29 30  1  6  0  0  0
 29 27  1  0  0  0  0
 30 32  1  0  0  0  0
 31 32  1  0  0  0  0
 32 34  1  0  0  0  0
 33 31  2  0  0  0  0
 35 38  1  0  0  0  0
 35 36  1  0  0  0  0
 37 44  1  0  0  0  0
 38 36  1  0  0  0  0
 39 40  1  0  0  0  0
 40 43  1  0  0  0  0
 41 39  1  6  0  0  0
 41 45  1  0  0  0  0
 42 41  1  0  0  0  0
 42 37  2  0  0  0  0
 44 31  1  6  0  0  0
 44 35  1  0  0  0  0
 45 43  1  1  0  0  0
 45 35  1  0  0  0  0
M  END
>  <MODEL>
2

>  <REMARK>
 VINA RESULT:      -6.4      3.011      4.673
  Name = 
  14 active torsions:
  status: ('A' for Active; 'I' for Inactive)
    1  A    between atoms: C_5  and  C_11
    2  A    between atoms: C_5  and  N_25
    3  A    between atoms: C_8  and  C_41
    4  A    between atoms: N_9  and  C_20
    5  A    between atoms: N_9  and  C_22
    6  A    between atoms: C_11  and  C_43
    7  A    between atoms: C_12  and  C_36
    8  A    between atoms: C_13  and  N_25
    9  A    between atoms: O_18  and  C_37
   10  A    between atoms: O_18  and  C_43
   11  A    between atoms: C_19  and  C_42
   12  A    between atoms: C_21  and  N_26
   13  A    between atoms: C_21  and  C_39
   14  A    between atoms: C_22  and  C_42
                            x       y       z     vdW  Elec       q    Type
                         _______ _______ _______ _____ _____    ______ ____

>  <TORSDO>
F 14

$$$$
=
 OpenBabel11072408593D

 45 50  0  0  1  0  0  0  0  0999 V2000
  189.0230  172.8520  141.5620 C   0  0  0  0  0  0  0  0  0  0  0  0
  189.9250  171.8330  141.0870 N   0  0  0  0  0  0  0  0  0  0  0  0
  187.9570  172.5300  142.1570 O   0  0  0  0  0  0  0  0  0  0  0  0
  191.8170  173.0910  137.9640 C   0  0  1  0  0  3  0  0  0  0  0  0
  191.3380  173.1030  139.4240 C   0  0  1  0  0  3  0  0  0  0  0  0
  190.3780  171.9280  139.6890 C   0  0  2  0  0  3  0  0  0  0  0  0
  189.6800  172.1290  137.2850 C   0  0  0  0  0  3  0  0  0  0  0  0
  189.2030  171.9630  138.7030 C   0  0  0  0  0  2  0  0  0  0  0  0
  190.8130  172.6700  136.9920 N   0  0  0  0  0  0  0  0  0  0  0  0
  192.4620  174.6850  137.4840 Cl  0  0  0  0  0  0  0  0  0  0  0  0
  192.6450  174.1000  141.3130 C   0  0  0  0  0  3  0  0  0  0  0  0
  193.5270  172.1020  140.2630 C   0  0  0  0  0  3  0  0  0  0  0  0
  193.7030  174.0840  142.2290 C   0  0  0  0  0  3  0  0  0  0  0  0
  194.5780  172.0800  141.1880 C   0  0  0  0  0  3  0  0  0  0  0  0
  194.6630  173.0690  142.1760 C   0  0  0  0  0  3  0  0  0  0  0  0
  192.5320  173.0940  140.3460 C   0  0  0  0  0  0  0  0  0  0  0  0
  190.4080  170.7570  141.9690 C   0  0  1  0  0  3  0  0  0  0  0  0
  191.1530  169.6780  141.1730 C   0  0  0  0  0  1  0  0  0  0  0  0
  191.2860  171.3420  143.0850 C   0  0  0  0  0  2  0  0  0  0  0  0
  192.3380  170.3580  143.5700 C   0  0  0  0  0  2  0  0  0  0  0  0
  193.0830  170.9660  144.5890 O   0  0  0  0  0  0  0  0  0  0  0  0
  194.3180  169.1830  143.5860 C   0  0  0  0  0  1  0  0  0  0  0  0
  194.2970  170.2770  144.6420 C   0  0  0  0  0  2  0  0  0  0  0  0
  189.3320  174.3080  141.3470 C   0  0  0  0  0  2  0  0  0  0  0  0
  188.2000  175.0020  140.5890 C   0  0  0  0  0  2  0  0  0  0  0  0
  187.8320  176.2200  141.3050 N   0  0  0  0  0  2  0  0  0  0  0  0
  185.9560  176.8430  142.6920 N   0  0  0  0  0  2  0  0  0  0  0  0
  187.0370  175.8580  142.4770 C   0  0  2  0  0  3  0  0  0  0  0  0
  187.1760  176.8880  143.5180 C   0  0  2  0  0  3  0  0  0  0  0  0
  186.8650  176.3770  144.9510 C   0  0  0  0  0  2  0  0  0  0  0  0
  189.1150  176.1530  146.0660 C   0  0  0  0  0  0  0  0  0  0  0  0
  187.8330  176.7930  145.9790 N   0  0  0  0  0  0  0  0  0  0  0  0
  189.6340  175.9580  147.2020 O   0  0  0  0  0  0  0  0  0  0  0  0
  187.5040  177.8610  146.9120 C   0  0  0  0  0  1  0  0  0  0  0  0
  190.9960  176.7370  144.4620 C   0  0  0  0  0  0  0  0  0  0  0  0
  190.7230  178.2010  144.1410 C   0  0  0  0  0  2  0  0  0  0  0  0
  190.3980  174.3090  144.9270 C   0  0  0  0  0  3  0  0  0  0  0  0
  190.8540  177.1980  143.0210 C   0  0  0  0  0  2  0  0  0  0  0  0
  193.8900  175.1440  146.1440 C   0  0  0  0  0  2  0  0  0  0  0  0
  194.4060  176.5650  145.8700 C   0  0  0  0  0  2  0  0  0  0  0  0
  192.4300  175.2850  145.8340 C   0  0  2  0  0  3  0  0  0  0  0  0
  191.6340  174.0800  145.4280 C   0  0  0  0  0  3  0  0  0  0  0  0
  193.3920  177.2910  145.0880 N   0  0  0  0  0  2  0  0  0  0  0  0
  189.8520  175.7350  144.8070 C   0  0  1  0  0  3  0  0  0  0  0  0
  192.4370  176.2630  144.7000 C   0  0  2  0  0  3  0  0  0  0  0  0
  1  3  2  0  0  0  0
  2  1  1  0  0  0  0
  2 17  1  0  0  0  0
  4 10  1  6  0  0  0
  4  5  1  0  0  0  0
  5  6  1  0  0  0  0
  5 16  1  1  0  0  0
  6  2  1  1  0  0  0
  7  8  1  0  0  0  0
  8  6  1  0  0  0  0
  9  7  2  0  0  0  0
  9  4  1  0  0  0  0
 11 13  1  0  0  0  0
 12 16  1  0  0  0  0
 12 14  2  0  0  0  0
 14 15  1  0  0  0  0
 15 13  2  0  0  0  0
 16 11  2  0  0  0  0
 17 18  1  6  0  0  0
 17 19  1  0  0  0  0
 19 20  1  0  0  0  0
 20 21  1  0  0  0  0
 21 23  1  0  0  0  0
 22 23  1  0  0  0  0
 24  1  1  0  0  0  0
 25 26  1  0  0  0  0
 25 24  1  0  0  0  0
 27 29  1  0  0  0  0
 28 26  1  6  0  0  0
 28 27  1  0  0  0  0
 28 29  1  0  0  0  0
 29 30  1  1  0  0  0
 30 32  1  0  0  0  0
 31 33  2  0  0  0  0
 32 31  1  0  0  0  0
 32 34  1  0  0  0  0
 35 45  1  0  0  0  0
 35 44  1  0  0  0  0
 36 35  1  0  0  0  0
 37 42  2  0  0  0  0
 38 36  1  0  0  0  0
 38 35  1  0  0  0  0
 40 39  1  0  0  0  0
 41 42  1  6  0  0  0
 41 39  1  0  0  0  0
 43 40  1  0  0  0  0
 44 37  1  0  0  0  0
 44 31  1  1  0  0  0
 45 43  1  1  0  0  0
 45 41  1  0  0  0  0
M  END
>  <MODEL>
3

>  <REMARK>
 VINA RESULT:      -6.2      2.902      7.416
  Name = 
  14 active torsions:
  status: ('A' for Active; 'I' for Inactive)
    1  A    between atoms: C_5  and  C_11
    2  A    between atoms: C_5  and  N_25
    3  A    between atoms: C_8  and  C_41
    4  A    between atoms: N_9  and  C_20
    5  A    between atoms: N_9  and  C_22
    6  A    between atoms: C_11  and  C_43
    7  A    between atoms: C_12  and  C_36
    8  A    between atoms: C_13  and  N_25
    9  A    between atoms: O_18  and  C_37
   10  A    between atoms: O_18  and  C_43
   11  A    between atoms: C_19  and  C_42
   12  A    between atoms: C_21  and  N_26
   13  A    between atoms: C_21  and  C_39
   14  A    between atoms: C_22  and  C_42
                            x       y       z     vdW  Elec       q    Type
                         _______ _______ _______ _____ _____    ______ ____

>  <TORSDO>
F 14

$$$$
=
 OpenBabel11072408593D

 45 50  0  0  1  0  0  0  0  0999 V2000
  191.0490  176.8530  144.9370 C   0  0  0  0  0  0  0  0  0  0  0  0
  190.4210  175.5790  145.1760 N   0  0  0  0  0  0  0  0  0  0  0  0
  190.4550  177.9230  145.2480 O   0  0  0  0  0  0  0  0  0  0  0  0
  189.0310  173.4900  142.2390 C   0  0  1  0  0  3  0  0  0  0  0  0
  188.9770  174.4440  143.4430 C   0  0  1  0  0  3  0  0  0  0  0  0
  190.3790  174.6240  144.0550 C   0  0  2  0  0  3  0  0  0  0  0  0
  190.8650  172.2780  143.3000 C   0  0  0  0  0  3  0  0  0  0  0  0
  190.9770  173.2630  144.4340 C   0  0  0  0  0  2  0  0  0  0  0  0
  189.9700  172.3810  142.3780 N   0  0  0  0  0  0  0  0  0  0  0  0
  187.4120  172.8400  141.8590 Cl  0  0  0  0  0  0  0  0  0  0  0  0
  189.0810  176.5970  142.1690 C   0  0  0  0  0  3  0  0  0  0  0  0
  187.0760  176.1420  143.4490 C   0  0  0  0  0  3  0  0  0  0  0  0
  188.5110  177.7870  141.7010 C   0  0  0  0  0  3  0  0  0  0  0  0
  186.5010  177.3250  142.9710 C   0  0  0  0  0  3  0  0  0  0  0  0
  187.2170  178.1460  142.0910 C   0  0  0  0  0  3  0  0  0  0  0  0
  188.3580  175.7530  143.0190 C   0  0  0  0  0  0  0  0  0  0  0  0
  189.8730  175.2230  146.4960 C   0  0  1  0  0  3  0  0  0  0  0  0
  190.7220  175.8170  147.6270 C   0  0  0  0  0  1  0  0  0  0  0  0
  188.4070  175.6680  146.5970 C   0  0  0  0  0  2  0  0  0  0  0  0
  188.2610  177.0360  147.2440 C   0  0  0  0  0  2  0  0  0  0  0  0
  187.1760  177.6970  146.6540 O   0  0  0  0  0  0  0  0  0  0  0  0
  184.8100  177.5720  146.3460 C   0  0  0  0  0  1  0  0  0  0  0  0
  186.0490  176.9270  146.9480 C   0  0  0  0  0  2  0  0  0  0  0  0
  192.4120  176.9290  144.3050 C   0  0  0  0  0  2  0  0  0  0  0  0
  193.4970  176.4870  145.2880 C   0  0  0  0  0  2  0  0  0  0  0  0
  194.7680  177.0810  144.8830 N   0  0  0  0  0  2  0  0  0  0  0  0
  196.7110  176.6930  143.5030 N   0  0  0  0  0  2  0  0  0  0  0  0
  195.5680  176.0660  144.2000 C   0  0  2  0  0  3  0  0  0  0  0  0
  195.5170  176.2790  142.7450 C   0  0  2  0  0  3  0  0  0  0  0  0
  195.8320  175.0060  141.9140 C   0  0  0  0  0  2  0  0  0  0  0  0
  195.1150  172.6120  142.2420 C   0  0  0  0  0  0  0  0  0  0  0  0
  194.7820  173.9750  141.9400 N   0  0  0  0  0  0  0  0  0  0  0  0
  194.5040  171.6790  141.6470 O   0  0  0  0  0  0  0  0  0  0  0  0
  193.3960  174.3270  141.6670 C   0  0  0  0  0  1  0  0  0  0  0  0
  195.5280  171.8750  144.6380 C   0  0  0  0  0  0  0  0  0  0  0  0
  194.6420  172.8200  145.4380 C   0  0  0  0  0  2  0  0  0  0  0  0
  197.1350  171.2080  142.7820 C   0  0  0  0  0  3  0  0  0  0  0  0
  196.1120  172.7140  145.7600 C   0  0  0  0  0  2  0  0  0  0  0  0
  195.4050  168.1860  144.2820 C   0  0  0  0  0  2  0  0  0  0  0  0
  194.4500  168.4390  145.4590 C   0  0  0  0  0  2  0  0  0  0  0  0
  195.6270  169.5770  143.7670 C   0  0  2  0  0  3  0  0  0  0  0  0
  196.8780  169.8990  143.0030 C   0  0  0  0  0  3  0  0  0  0  0  0
  194.4890  169.8720  145.7980 N   0  0  0  0  0  2  0  0  0  0  0  0
  196.1740  172.2920  143.2810 C   0  0  1  0  0  3  0  0  0  0  0  0
  195.6070  170.3900  145.0240 C   0  0  2  0  0  3  0  0  0  0  0  0
  1  2  1  0  0  0  0
  1  3  2  0  0  0  0
  2 17  1  0  0  0  0
  4 10  1  1  0  0  0
  4  9  1  0  0  0  0
  4  5  1  0  0  0  0
  5 16  1  6  0  0  0
  5  6  1  0  0  0  0
  6  8  1  0  0  0  0
  6  2  1  1  0  0  0
  7  8  1  0  0  0  0
  9  7  2  0  0  0  0
 11 16  1  0  0  0  0
 13 15  1  0  0  0  0
 13 11  2  0  0  0  0
 14 12  1  0  0  0  0
 15 14  2  0  0  0  0
 16 12  2  0  0  0  0
 17 19  1  0  0  0  0
 17 18  1  1  0  0  0
 19 20  1  0  0  0  0
 21 23  1  0  0  0  0
 21 20  1  0  0  0  0
 22 23  1  0  0  0  0
 24  1  1  0  0  0  0
 24 25  1  0  0  0  0
 26 25  1  0  0  0  0
 27 28  1  0  0  0  0
 28 26  1  1  0  0  0
 29 30  1  6  0  0  0
 29 27  1  0  0  0  0
 29 28  1  0  0  0  0
 30 32  1  0  0  0  0
 32 31  1  0  0  0  0
 33 31  2  0  0  0  0
 34 32  1  0  0  0  0
 35 45  1  0  0  0  0
 35 36  1  0  0  0  0
 35 38  1  0  0  0  0
 36 38  1  0  0  0  0
 37 42  2  0  0  0  0
 37 44  1  0  0  0  0
 39 40  1  0  0  0  0
 40 43  1  0  0  0  0
 41 42  1  1  0  0  0
 41 39  1  0  0  0  0
 41 45  1  0  0  0  0
 44 31  1  6  0  0  0
 44 35  1  0  0  0  0
 45 43  1  1  0  0  0
M  END
>  <MODEL>
4

>  <REMARK>
 VINA RESULT:      -6.1      2.637      4.986
  Name = 
  14 active torsions:
  status: ('A' for Active; 'I' for Inactive)
    1  A    between atoms: C_5  and  C_11
    2  A    between atoms: C_5  and  N_25
    3  A    between atoms: C_8  and  C_41
    4  A    between atoms: N_9  and  C_20
    5  A    between atoms: N_9  and  C_22
    6  A    between atoms: C_11  and  C_43
    7  A    between atoms: C_12  and  C_36
    8  A    between atoms: C_13  and  N_25
    9  A    between atoms: O_18  and  C_37
   10  A    between atoms: O_18  and  C_43
   11  A    between atoms: C_19  and  C_42
   12  A    between atoms: C_21  and  N_26
   13  A    between atoms: C_21  and  C_39
   14  A    between atoms: C_22  and  C_42
                            x       y       z     vdW  Elec       q    Type
                         _______ _______ _______ _____ _____    ______ ____

>  <TORSDO>
F 14

$$$$
=
 OpenBabel11072408593D

 45 50  0  0  1  0  0  0  0  0999 V2000
  195.0950  175.4280  142.0590 C   0  0  0  0  0  0  0  0  0  0  0  0
  195.8960  175.0710  143.2020 N   0  0  0  0  0  0  0  0  0  0  0  0
  195.6270  175.9830  141.0580 O   0  0  0  0  0  0  0  0  0  0  0  0
  193.7480  175.2150  146.4090 C   0  0  1  0  0  3  0  0  0  0  0  0
  194.1440  174.7640  144.9940 C   0  0  1  0  0  3  0  0  0  0  0  0
  195.4140  175.4990  144.5270 C   0  0  2  0  0  3  0  0  0  0  0  0
  194.6580  177.4310  145.9410 C   0  0  0  0  0  3  0  0  0  0  0  0
  195.2140  177.0180  144.6050 C   0  0  0  0  0  2  0  0  0  0  0  0
  193.9790  176.6290  146.6880 N   0  0  0  0  0  0  0  0  0  0  0  0
  192.0410  174.8230  146.7570 Cl  0  0  0  0  0  0  0  0  0  0  0  0
  193.4490  172.5090  144.1550 C   0  0  0  0  0  3  0  0  0  0  0  0
  195.2810  172.6070  145.7370 C   0  0  0  0  0  3  0  0  0  0  0  0
  193.6100  171.1230  144.0550 C   0  0  0  0  0  3  0  0  0  0  0  0
  195.4500  171.2210  145.6270 C   0  0  0  0  0  3  0  0  0  0  0  0
  194.6180  170.4790  144.7810 C   0  0  0  0  0  3  0  0  0  0  0  0
  194.3010  173.2640  144.9700 C   0  0  0  0  0  0  0  0  0  0  0  0
  197.1300  174.2790  143.0630 C   0  0  1  0  0  3  0  0  0  0  0  0
  197.8710  174.1660  144.4020 C   0  0  0  0  0  1  0  0  0  0  0  0
  196.8070  172.8960  142.4780 C   0  0  0  0  0  2  0  0  0  0  0  0
  197.4210  172.6910  141.1030 C   0  0  0  0  0  2  0  0  0  0  0  0
  196.3950  172.6890  140.1500 O   0  0  0  0  0  0  0  0  0  0  0  0
  195.7940  173.8530  138.1510 C   0  0  0  0  0  1  0  0  0  0  0  0
  196.9220  173.3090  139.0150 C   0  0  0  0  0  2  0  0  0  0  0  0
  193.6150  175.1560  142.0460 C   0  0  0  0  0  2  0  0  0  0  0  0
  193.1510  174.7170  140.6570 C   0  0  0  0  0  2  0  0  0  0  0  0
  193.0370  173.2620  140.6370 N   0  0  0  0  0  2  0  0  0  0  0  0
  191.0440  172.2700  139.7020 N   0  0  0  0  0  2  0  0  0  0  0  0
  191.6480  172.8920  140.8990 C   0  0  2  0  0  3  0  0  0  0  0  0
  190.7470  173.6740  140.0380 C   0  0  2  0  0  3  0  0  0  0  0  0
  189.3000  173.7920  140.5870 C   0  0  0  0  0  2  0  0  0  0  0  0
  189.6030  174.4570  143.0000 C   0  0  0  0  0  0  0  0  0  0  0  0
  189.1580  173.5030  142.0240 N   0  0  0  0  0  0  0  0  0  0  0  0
  190.1260  174.0440  144.0750 O   0  0  0  0  0  0  0  0  0  0  0  0
  188.5580  172.2530  142.4680 C   0  0  0  0  0  1  0  0  0  0  0  0
  188.0900  176.4640  143.3630 C   0  0  0  0  0  0  0  0  0  0  0  0
  186.7340  175.9530  142.8910 C   0  0  0  0  0  2  0  0  0  0  0  0
  190.6170  176.7410  143.3040 C   0  0  0  0  0  3  0  0  0  0  0  0
  187.3080  177.2180  142.3010 C   0  0  0  0  0  2  0  0  0  0  0  0
  189.1980  177.5990  146.7140 C   0  0  0  0  0  2  0  0  0  0  0  0
  187.6710  177.5340  146.8730 C   0  0  0  0  0  2  0  0  0  0  0  0
  189.3960  176.9060  145.3990 C   0  0  2  0  0  3  0  0  0  0  0  0
  190.6160  177.2020  144.5760 C   0  0  0  0  0  3  0  0  0  0  0  0
  187.0750  177.2070  145.5670 N   0  0  0  0  0  2  0  0  0  0  0  0
  189.4290  175.9440  142.7570 C   0  0  1  0  0  3  0  0  0  0  0  0
  188.1820  177.3270  144.6300 C   0  0  2  0  0  3  0  0  0  0  0  0
  1  2  1  0  0  0  0
  3  1  2  0  0  0  0
  4  9  1  0  0  0  0
  4 10  1  6  0  0  0
  5 16  1  1  0  0  0
  5  4  1  0  0  0  0
  6  2  1  6  0  0  0
  6  8  1  0  0  0  0
  6  5  1  0  0  0  0
  7  9  2  0  0  0  0
  8  7  1  0  0  0  0
 11 16  1  0  0  0  0
 13 11  2  0  0  0  0
 13 15  1  0  0  0  0
 14 12  1  0  0  0  0
 15 14  2  0  0  0  0
 16 12  2  0  0  0  0
 17  2  1  0  0  0  0
 17 18  1  1  0  0  0
 19 17  1  0  0  0  0
 20 19  1  0  0  0  0
 21 20  1  0  0  0  0
 22 23  1  0  0  0  0
 23 21  1  0  0  0  0
 24  1  1  0  0  0  0
 25 24  1  0  0  0  0
 26 25  1  0  0  0  0
 27 29  1  0  0  0  0
 27 28  1  0  0  0  0
 28 26  1  6  0  0  0
 29 30  1  1  0  0  0
 29 28  1  0  0  0  0
 30 32  1  0  0  0  0
 31 33  2  0  0  0  0
 32 34  1  0  0  0  0
 32 31  1  0  0  0  0
 35 45  1  0  0  0  0
 36 35  1  0  0  0  0
 37 42  2  0  0  0  0
 38 36  1  0  0  0  0
 38 35  1  0  0  0  0
 39 40  1  0  0  0  0
 41 42  1  6  0  0  0
 41 39  1  0  0  0  0
 43 40  1  0  0  0  0
 44 31  1  1  0  0  0
 44 37  1  0  0  0  0
 44 35  1  0  0  0  0
 45 41  1  0  0  0  0
 45 43  1  1  0  0  0
M  END
>  <MODEL>
5

>  <REMARK>
 VINA RESULT:      -6.0      2.637      7.571
  Name = 
  14 active torsions:
  status: ('A' for Active; 'I' for Inactive)
    1  A    between atoms: C_5  and  C_11
    2  A    between atoms: C_5  and  N_25
    3  A    between atoms: C_8  and  C_41
    4  A    between atoms: N_9  and  C_20
    5  A    between atoms: N_9  and  C_22
    6  A    between atoms: C_11  and  C_43
    7  A    between atoms: C_12  and  C_36
    8  A    between atoms: C_13  and  N_25
    9  A    between atoms: O_18  and  C_37
   10  A    between atoms: O_18  and  C_43
   11  A    between atoms: C_19  and  C_42
   12  A    between atoms: C_21  and  N_26
   13  A    between atoms: C_21  and  C_39
   14  A    between atoms: C_22  and  C_42
                            x       y       z     vdW  Elec       q    Type
                         _______ _______ _______ _____ _____    ______ ____

>  <TORSDO>
F 14

$$$$
=
 OpenBabel11072408593D

 45 50  0  0  1  0  0  0  0  0999 V2000
  194.8350  174.5330  141.0600 C   0  0  0  0  0  0  0  0  0  0  0  0
  194.3600  173.2510  140.6060 N   0  0  0  0  0  0  0  0  0  0  0  0
  195.4090  175.3200  140.2560 O   0  0  0  0  0  0  0  0  0  0  0  0
  194.4350  170.6820  143.4900 C   0  0  1  0  0  3  0  0  0  0  0  0
  194.0350  171.9750  142.7600 C   0  0  1  0  0  3  0  0  0  0  0  0
  194.7440  172.0680  141.3960 C   0  0  2  0  0  3  0  0  0  0  0  0
  196.6350  170.7870  142.4390 C   0  0  0  0  0  3  0  0  0  0  0  0
  196.2640  171.9610  141.5730 C   0  0  0  0  0  2  0  0  0  0  0  0
  195.8250  170.2780  143.3030 N   0  0  0  0  0  0  0  0  0  0  0  0
  194.0890  170.7950  145.2380 Cl  0  0  0  0  0  0  0  0  0  0  0  0
  191.8400  170.8940  142.2250 C   0  0  0  0  0  3  0  0  0  0  0  0
  191.8130  173.2110  142.9340 C   0  0  0  0  0  3  0  0  0  0  0  0
  190.4420  170.8970  142.1660 C   0  0  0  0  0  3  0  0  0  0  0  0
  190.4130  173.2090  142.8870 C   0  0  0  0  0  3  0  0  0  0  0  0
  189.7270  172.0490  142.5090 C   0  0  0  0  0  3  0  0  0  0  0  0
  192.5330  172.0390  142.6380 C   0  0  0  0  0  0  0  0  0  0  0  0
  193.4950  173.1230  139.4210 C   0  0  1  0  0  3  0  0  0  0  0  0
  193.2380  171.6500  139.0770 C   0  0  0  0  0  1  0  0  0  0  0  0
  192.1820  173.8880  139.6410 C   0  0  0  0  0  2  0  0  0  0  0  0
  190.9650  173.0850  139.2120 C   0  0  0  0  0  2  0  0  0  0  0  0
  189.8210  173.8720  139.3990 O   0  0  0  0  0  0  0  0  0  0  0  0
  189.1610  171.6690  138.7470 C   0  0  0  0  0  1  0  0  0  0  0  0
  188.7540  173.1270  138.8900 C   0  0  0  0  0  2  0  0  0  0  0  0
  194.6660  174.9480  142.4960 C   0  0  0  0  0  2  0  0  0  0  0  0
  195.5730  176.1310  142.8350 C   0  0  0  0  0  2  0  0  0  0  0  0
  195.7240  176.2070  144.2850 N   0  0  0  0  0  2  0  0  0  0  0  0
  194.8470  177.7490  145.9240 N   0  0  0  0  0  2  0  0  0  0  0  0
  194.5080  176.7810  144.8580 C   0  0  2  0  0  3  0  0  0  0  0  0
  194.3850  176.3930  146.2720 C   0  0  2  0  0  3  0  0  0  0  0  0
  192.9320  176.4510  146.8150 C   0  0  0  0  0  2  0  0  0  0  0  0
  190.6450  175.6610  146.1070 C   0  0  0  0  0  0  0  0  0  0  0  0
  192.0410  175.3940  146.3100 N   0  0  0  0  0  0  0  0  0  0  0  0
  189.7990  174.7530  146.3530 O   0  0  0  0  0  0  0  0  0  0  0  0
  192.5660  174.0720  146.0020 C   0  0  0  0  0  1  0  0  0  0  0  0
  190.2360  177.0590  144.0260 C   0  0  0  0  0  0  0  0  0  0  0  0
  191.5360  176.8940  143.2500 C   0  0  0  0  0  2  0  0  0  0  0  0
  188.7870  177.3610  146.0950 C   0  0  0  0  0  3  0  0  0  0  0  0
  191.0260  178.2760  143.5780 C   0  0  0  0  0  2  0  0  0  0  0  0
  186.7740  176.0550  143.1590 C   0  0  0  0  0  2  0  0  0  0  0  0
  187.5140  175.8850  141.8240 C   0  0  0  0  0  2  0  0  0  0  0  0
  187.9120  176.2580  144.1140 C   0  0  2  0  0  3  0  0  0  0  0  0
  187.6850  176.9970  145.4000 C   0  0  0  0  0  3  0  0  0  0  0  0
  188.8960  176.3670  141.9860 N   0  0  0  0  0  2  0  0  0  0  0  0
  190.1880  177.0100  145.5840 C   0  0  1  0  0  3  0  0  0  0  0  0
  188.8920  177.0270  143.2830 C   0  0  2  0  0  3  0  0  0  0  0  0
  1 24  1  0  0  0  0
  2  1  1  0  0  0  0
  3  1  2  0  0  0  0
  4 10  1  1  0  0  0
  5 16  1  6  0  0  0
  5  4  1  0  0  0  0
  6  2  1  1  0  0  0
  6  8  1  0  0  0  0
  6  5  1  0  0  0  0
  7  9  2  0  0  0  0
  8  7  1  0  0  0  0
  9  4  1  0  0  0  0
 11 16  1  0  0  0  0
 13 11  2  0  0  0  0
 13 15  1  0  0  0  0
 14 12  1  0  0  0  0
 15 14  2  0  0  0  0
 16 12  2  0  0  0  0
 17 18  1  1  0  0  0
 17 19  1  0  0  0  0
 17  2  1  0  0  0  0
 20 21  1  0  0  0  0
 20 19  1  0  0  0  0
 22 23  1  0  0  0  0
 23 21  1  0  0  0  0
 24 25  1  0  0  0  0
 25 26  1  0  0  0  0
 27 29  1  0  0  0  0
 28 26  1  6  0  0  0
 28 27  1  0  0  0  0
 28 29  1  0  0  0  0
 29 30  1  1  0  0  0
 31 32  1  0  0  0  0
 31 33  2  0  0  0  0
 32 30  1  0  0  0  0
 34 32  1  0  0  0  0
 35 44  1  0  0  0  0
 36 38  1  0  0  0  0
 36 35  1  0  0  0  0
 38 35  1  0  0  0  0
 40 43  1  0  0  0  0
 40 39  1  0  0  0  0
 41 39  1  6  0  0  0
 41 42  1  0  0  0  0
 42 37  2  0  0  0  0
 44 37  1  0  0  0  0
 44 31  1  6  0  0  0
 45 43  1  6  0  0  0
 45 35  1  0  0  0  0
 45 41  1  0  0  0  0
M  END
>  <MODEL>
6

>  <REMARK>
 VINA RESULT:      -6.0      2.958      7.935
  Name = 
  14 active torsions:
  status: ('A' for Active; 'I' for Inactive)
    1  A    between atoms: C_5  and  C_11
    2  A    between atoms: C_5  and  N_25
    3  A    between atoms: C_8  and  C_41
    4  A    between atoms: N_9  and  C_20
    5  A    between atoms: N_9  and  C_22
    6  A    between atoms: C_11  and  C_43
    7  A    between atoms: C_12  and  C_36
    8  A    between atoms: C_13  and  N_25
    9  A    between atoms: O_18  and  C_37
   10  A    between atoms: O_18  and  C_43
   11  A    between atoms: C_19  and  C_42
   12  A    between atoms: C_21  and  N_26
   13  A    between atoms: C_21  and  C_39
   14  A    between atoms: C_22  and  C_42
                            x       y       z     vdW  Elec       q    Type
                         _______ _______ _______ _____ _____    ______ ____

>  <TORSDO>
F 14

$$$$
=
 OpenBabel11072408593D

 45 50  0  0  1  0  0  0  0  0999 V2000
  189.3010  177.0070  144.6330 C   0  0  0  0  0  0  0  0  0  0  0  0
  188.4620  176.3630  143.6540 N   0  0  0  0  0  0  0  0  0  0  0  0
  189.2540  176.6500  145.8430 O   0  0  0  0  0  0  0  0  0  0  0  0
  185.4290  178.2570  142.1940 C   0  0  1  0  0  3  0  0  0  0  0  0
  186.1710  177.2790  143.1190 C   0  0  1  0  0  3  0  0  0  0  0  0
  187.6690  177.2320  142.7660 C   0  0  2  0  0  3  0  0  0  0  0  0
  186.9930  177.7240  140.3980 C   0  0  0  0  0  3  0  0  0  0  0  0
  187.8610  176.8730  141.2870 C   0  0  0  0  0  2  0  0  0  0  0  0
  185.9070  178.2790  140.8150 N   0  0  0  0  0  0  0  0  0  0  0  0
  183.6720  177.9400  142.1980 Cl  0  0  0  0  0  0  0  0  0  0  0  0
  185.9510  179.0190  144.9070 C   0  0  0  0  0  3  0  0  0  0  0  0
  185.6690  176.7000  145.5500 C   0  0  0  0  0  3  0  0  0  0  0  0
  185.6610  179.4160  146.2170 C   0  0  0  0  0  3  0  0  0  0  0  0
  185.3670  177.0990  146.8580 C   0  0  0  0  0  3  0  0  0  0  0  0
  185.3570  178.4590  147.1900 C   0  0  0  0  0  3  0  0  0  0  0  0
  185.9270  177.6630  144.5570 C   0  0  0  0  0  0  0  0  0  0  0  0
  188.4220  174.8980  143.5150 C   0  0  1  0  0  3  0  0  0  0  0  0
  187.4750  174.4730  142.3860 C   0  0  0  0  0  1  0  0  0  0  0  0
  189.8390  174.3480  143.2990 C   0  0  0  0  0  2  0  0  0  0  0  0
  190.0530  173.8360  141.8840 C   0  0  0  0  0  2  0  0  0  0  0  0
  191.1480  172.9630  141.8840 O   0  0  0  0  0  0  0  0  0  0  0  0
  190.6250  171.4440  140.1150 C   0  0  0  0  0  1  0  0  0  0  0  0
  190.6290  171.6940  141.6150 C   0  0  0  0  0  2  0  0  0  0  0  0
  190.2350  178.1160  144.2320 C   0  0  0  0  0  2  0  0  0  0  0  0
  191.4770  177.5610  143.5330 C   0  0  0  0  0  2  0  0  0  0  0  0
  192.4790  177.2360  144.5440 N   0  0  0  0  0  2  0  0  0  0  0  0
  193.8860  175.4540  145.3660 N   0  0  0  0  0  2  0  0  0  0  0  0
  193.0400  175.9190  144.2470 C   0  0  2  0  0  3  0  0  0  0  0  0
  194.5060  176.0070  144.1490 C   0  0  2  0  0  3  0  0  0  0  0  0
  195.1480  174.8650  143.3150 C   0  0  0  0  0  2  0  0  0  0  0  0
  196.6780  173.2110  144.4450 C   0  0  0  0  0  0  0  0  0  0  0  0
  196.4910  174.4570  143.7570 N   0  0  0  0  0  0  0  0  0  0  0  0
  197.5330  173.1390  145.3740 O   0  0  0  0  0  0  0  0  0  0  0  0
  197.6440  175.3070  143.4950 C   0  0  0  0  0  1  0  0  0  0  0  0
  196.7930  170.7370  143.8830 C   0  0  0  0  0  0  0  0  0  0  0  0
  197.9030  170.6800  142.8410 C   0  0  0  0  0  2  0  0  0  0  0  0
  194.7540  171.7060  145.0560 C   0  0  0  0  0  3  0  0  0  0  0  0
  196.5450  170.1000  142.5260 C   0  0  0  0  0  2  0  0  0  0  0  0
  196.5860  169.2250  147.2610 C   0  0  0  0  0  2  0  0  0  0  0  0
  197.8050  168.5150  146.6530 C   0  0  0  0  0  2  0  0  0  0  0  0
  196.3410  170.3170  146.2630 C   0  0  2  0  0  3  0  0  0  0  0  0
  194.9690  170.9100  146.1290 C   0  0  0  0  0  3  0  0  0  0  0  0
  197.9410  168.9330  145.2480 N   0  0  0  0  0  2  0  0  0  0  0  0
  195.8750  171.9870  144.0500 C   0  0  1  0  0  3  0  0  0  0  0  0
  196.7090  169.6560  144.9710 C   0  0  2  0  0  3  0  0  0  0  0  0
  1  3  2  0  0  0  0
  2  1  1  0  0  0  0
  4 10  1  6  0  0  0
  4  5  1  0  0  0  0
  5 16  1  1  0  0  0
  6  5  1  0  0  0  0
  6  2  1  1  0  0  0
  7  9  2  0  0  0  0
  7  8  1  0  0  0  0
  8  6  1  0  0  0  0
  9  4  1  0  0  0  0
 11 13  1  0  0  0  0
 12 14  2  0  0  0  0
 13 15  2  0  0  0  0
 14 15  1  0  0  0  0
 16 11  2  0  0  0  0
 16 12  1  0  0  0  0
 17 18  1  6  0  0  0
 17  2  1  0  0  0  0
 19 17  1  0  0  0  0
 20 21  1  0  0  0  0
 20 19  1  0  0  0  0
 22 23  1  0  0  0  0
 23 21  1  0  0  0  0
 24  1  1  0  0  0  0
 25 24  1  0  0  0  0
 25 26  1  0  0  0  0
 28 26  1  1  0  0  0
 28 27  1  0  0  0  0
 29 30  1  6  0  0  0
 29 28  1  0  0  0  0
 29 27  1  0  0  0  0
 30 32  1  0  0  0  0
 31 33  2  0  0  0  0
 32 31  1  0  0  0  0
 34 32  1  0  0  0  0
 35 44  1  0  0  0  0
 35 45  1  0  0  0  0
 36 35  1  0  0  0  0
 37 42  2  0  0  0  0
 38 36  1  0  0  0  0
 38 35  1  0  0  0  0
 40 39  1  0  0  0  0
 41 42  1  6  0  0  0
 41 39  1  0  0  0  0
 43 40  1  0  0  0  0
 44 31  1  1  0  0  0
 44 37  1  0  0  0  0
 45 43  1  1  0  0  0
 45 41  1  0  0  0  0
M  END
>  <MODEL>
7

>  <REMARK>
 VINA RESULT:      -6.0      2.660      4.973
  Name = 
  14 active torsions:
  status: ('A' for Active; 'I' for Inactive)
    1  A    between atoms: C_5  and  C_11
    2  A    between atoms: C_5  and  N_25
    3  A    between atoms: C_8  and  C_41
    4  A    between atoms: N_9  and  C_20
    5  A    between atoms: N_9  and  C_22
    6  A    between atoms: C_11  and  C_43
    7  A    between atoms: C_12  and  C_36
    8  A    between atoms: C_13  and  N_25
    9  A    between atoms: O_18  and  C_37
   10  A    between atoms: O_18  and  C_43
   11  A    between atoms: C_19  and  C_42
   12  A    between atoms: C_21  and  N_26
   13  A    between atoms: C_21  and  C_39
   14  A    between atoms: C_22  and  C_42
                            x       y       z     vdW  Elec       q    Type
                         _______ _______ _______ _____ _____    ______ ____

>  <TORSDO>
F 14

$$$$
=
 OpenBabel11072408593D

 45 50  0  0  1  0  0  0  0  0999 V2000
  189.3290  177.1760  144.4610 C   0  0  0  0  0  0  0  0  0  0  0  0
  188.4460  176.4970  143.5470 N   0  0  0  0  0  0  0  0  0  0  0  0
  189.3280  176.8770  145.6870 O   0  0  0  0  0  0  0  0  0  0  0  0
  185.3530  178.2850  142.0790 C   0  0  1  0  0  3  0  0  0  0  0  0
  186.1270  177.3410  143.0130 C   0  0  1  0  0  3  0  0  0  0  0  0
  187.6240  177.3310  142.6530 C   0  0  2  0  0  3  0  0  0  0  0  0
  186.9230  177.7740  140.2830 C   0  0  0  0  0  3  0  0  0  0  0  0
  187.8190  176.9590  141.1770 C   0  0  0  0  0  2  0  0  0  0  0  0
  185.8240  178.3030  140.6980 N   0  0  0  0  0  0  0  0  0  0  0  0
  183.6060  177.9180  142.0960 Cl  0  0  0  0  0  0  0  0  0  0  0  0
  185.8590  179.0960  144.7780 C   0  0  0  0  0  3  0  0  0  0  0  0
  185.6590  176.7780  145.4540 C   0  0  0  0  0  3  0  0  0  0  0  0
  185.5630  179.5010  146.0850 C   0  0  0  0  0  3  0  0  0  0  0  0
  185.3510  177.1840  146.7580 C   0  0  0  0  0  3  0  0  0  0  0  0
  185.2970  178.5470  147.0730 C   0  0  0  0  0  3  0  0  0  0  0  0
  185.8780  177.7360  144.4470 C   0  0  0  0  0  0  0  0  0  0  0  0
  188.3870  175.0270  143.4790 C   0  0  1  0  0  3  0  0  0  0  0  0
  187.4080  174.5600  142.3950 C   0  0  0  0  0  1  0  0  0  0  0  0
  189.7930  174.4520  143.2550 C   0  0  0  0  0  2  0  0  0  0  0  0
  190.1110  173.3120  144.2080 C   0  0  0  0  0  2  0  0  0  0  0  0
  190.4610  173.8520  145.4520 O   0  0  0  0  0  0  0  0  0  0  0  0
  192.5870  172.8550  145.0090 C   0  0  0  0  0  1  0  0  0  0  0  0
  191.8300  174.1190  145.3860 C   0  0  0  0  0  2  0  0  0  0  0  0
  190.2550  178.2560  143.9700 C   0  0  0  0  0  2  0  0  0  0  0  0
  191.7090  177.7840  143.9940 C   0  0  0  0  0  2  0  0  0  0  0  0
  192.0190  177.1530  142.7140 N   0  0  0  0  0  2  0  0  0  0  0  0
  194.1360  176.4660  141.7770 N   0  0  0  0  0  2  0  0  0  0  0  0
  193.1780  176.2790  142.8870 C   0  0  2  0  0  3  0  0  0  0  0  0
  193.2370  175.2980  141.7920 C   0  0  2  0  0  3  0  0  0  0  0  0
  194.0400  174.0160  142.1400 C   0  0  0  0  0  2  0  0  0  0  0  0
  193.4800  171.9580  140.7960 C   0  0  0  0  0  0  0  0  0  0  0  0
  194.2990  173.1200  141.0020 N   0  0  0  0  0  0  0  0  0  0  0  0
  194.0100  170.8980  140.3550 O   0  0  0  0  0  0  0  0  0  0  0  0
  195.3790  173.4050  140.0690 C   0  0  0  0  0  1  0  0  0  0  0  0
  191.1670  172.1730  139.7700 C   0  0  0  0  0  0  0  0  0  0  0  0
  191.3090  173.3960  138.8730 C   0  0  0  0  0  2  0  0  0  0  0  0
  191.5320  170.7670  141.8580 C   0  0  0  0  0  3  0  0  0  0  0  0
  190.2140  173.3470  139.9110 C   0  0  0  0  0  2  0  0  0  0  0  0
  190.4310  168.6400  138.9180 C   0  0  0  0  0  2  0  0  0  0  0  0
  190.1150  169.3720  137.6050 C   0  0  0  0  0  2  0  0  0  0  0  0
  191.1180  169.7150  139.7070 C   0  0  2  0  0  3  0  0  0  0  0  0
  191.1180  169.6560  141.2060 C   0  0  0  0  0  3  0  0  0  0  0  0
  190.2490  170.8210  137.8290 N   0  0  0  0  0  2  0  0  0  0  0  0
  191.9910  172.0060  141.0830 C   0  0  1  0  0  3  0  0  0  0  0  0
  190.3870  170.9470  139.2720 C   0  0  2  0  0  3  0  0  0  0  0  0
  1  3  2  0  0  0  0
  2  1  1  0  0  0  0
  4 10  1  6  0  0  0
  4  5  1  0  0  0  0
  5 16  1  1  0  0  0
  6  5  1  0  0  0  0
  6  2  1  1  0  0  0
  7  9  2  0  0  0  0
  7  8  1  0  0  0  0
  8  6  1  0  0  0  0
  9  4  1  0  0  0  0
 11 13  1  0  0  0  0
 12 14  2  0  0  0  0
 13 15  2  0  0  0  0
 14 15  1  0  0  0  0
 16 11  2  0  0  0  0
 16 12  1  0  0  0  0
 17 18  1  6  0  0  0
 17  2  1  0  0  0  0
 19 17  1  0  0  0  0
 19 20  1  0  0  0  0
 20 21  1  0  0  0  0
 22 23  1  0  0  0  0
 23 21  1  0  0  0  0
 24 25  1  0  0  0  0
 24  1  1  0  0  0  0
 26 25  1  0  0  0  0
 27 29  1  0  0  0  0
 27 28  1  0  0  0  0
 28 26  1  6  0  0  0
 29 30  1  1  0  0  0
 29 28  1  0  0  0  0
 31 32  1  0  0  0  0
 32 30  1  0  0  0  0
 33 31  2  0  0  0  0
 34 32  1  0  0  0  0
 35 38  1  0  0  0  0
 35 44  1  0  0  0  0
 36 35  1  0  0  0  0
 36 38  1  0  0  0  0
 40 43  1  0  0  0  0
 40 39  1  0  0  0  0
 41 39  1  6  0  0  0
 41 42  1  0  0  0  0
 42 37  2  0  0  0  0
 44 31  1  6  0  0  0
 44 37  1  0  0  0  0
 45 43  1  6  0  0  0
 45 41  1  0  0  0  0
 45 35  1  0  0  0  0
M  END
>  <MODEL>
8

>  <REMARK>
 VINA RESULT:      -5.9      2.878      5.753
  Name = 
  14 active torsions:
  status: ('A' for Active; 'I' for Inactive)
    1  A    between atoms: C_5  and  C_11
    2  A    between atoms: C_5  and  N_25
    3  A    between atoms: C_8  and  C_41
    4  A    between atoms: N_9  and  C_20
    5  A    between atoms: N_9  and  C_22
    6  A    between atoms: C_11  and  C_43
    7  A    between atoms: C_12  and  C_36
    8  A    between atoms: C_13  and  N_25
    9  A    between atoms: O_18  and  C_37
   10  A    between atoms: O_18  and  C_43
   11  A    between atoms: C_19  and  C_42
   12  A    between atoms: C_21  and  N_26
   13  A    between atoms: C_21  and  C_39
   14  A    between atoms: C_22  and  C_42
                            x       y       z     vdW  Elec       q    Type
                         _______ _______ _______ _____ _____    ______ ____

>  <TORSDO>
F 14

$$$$
=
 OpenBabel11072408593D

 45 50  0  0  1  0  0  0  0  0999 V2000
  193.6520  173.1030  141.3790 C   0  0  0  0  0  0  0  0  0  0  0  0
  193.3980  172.6450  140.0370 N   0  0  0  0  0  0  0  0  0  0  0  0
  193.5710  172.3010  142.3510 O   0  0  0  0  0  0  0  0  0  0  0  0
  190.0890  173.7700  138.3920 C   0  0  1  0  0  3  0  0  0  0  0  0
  191.0240  172.8600  139.2050 C   0  0  1  0  0  3  0  0  0  0  0  0
  192.4550  173.4290  139.2200 C   0  0  2  0  0  3  0  0  0  0  0  0
  191.9610  174.3800  136.9490 C   0  0  0  0  0  3  0  0  0  0  0  0
  192.9650  173.6360  137.7880 C   0  0  0  0  0  2  0  0  0  0  0  0
  190.7000  174.3810  137.2150 N   0  0  0  0  0  0  0  0  0  0  0  0
  188.6110  172.9000  137.8980 Cl  0  0  0  0  0  0  0  0  0  0  0  0
  189.9940  173.7910  141.2890 C   0  0  0  0  0  3  0  0  0  0  0  0
  190.3850  171.4020  141.1950 C   0  0  0  0  0  3  0  0  0  0  0  0
  189.4030  173.6440  142.5490 C   0  0  0  0  0  3  0  0  0  0  0  0
  189.7820  171.2540  142.4500 C   0  0  0  0  0  3  0  0  0  0  0  0
  189.2850  172.3750  143.1250 C   0  0  0  0  0  3  0  0  0  0  0  0
  190.4600  172.6700  140.5910 C   0  0  0  0  0  0  0  0  0  0  0  0
  194.0780  171.4620  139.4830 C   0  0  1  0  0  3  0  0  0  0  0  0
  195.5880  171.5130  139.7540 C   0  0  0  0  0  1  0  0  0  0  0  0
  193.4470  170.1790  140.0430 C   0  0  0  0  0  2  0  0  0  0  0  0
  192.8360  169.3120  138.9540 C   0  0  0  0  0  2  0  0  0  0  0  0
  192.5370  170.1220  137.8520 O   0  0  0  0  0  0  0  0  0  0  0  0
  190.5640  168.7720  137.8760 C   0  0  0  0  0  1  0  0  0  0  0  0
  191.6860  169.3680  137.0390 C   0  0  0  0  0  2  0  0  0  0  0  0
  194.0040  174.5410  141.6440 C   0  0  0  0  0  2  0  0  0  0  0  0
  194.9690  174.6610  142.8240 C   0  0  0  0  0  2  0  0  0  0  0  0
  195.0910  176.0690  143.1910 N   0  0  0  0  0  2  0  0  0  0  0  0
  194.6880  177.1180  145.3280 N   0  0  0  0  0  2  0  0  0  0  0  0
  194.0800  176.3840  144.1980 C   0  0  2  0  0  3  0  0  0  0  0  0
  194.3840  175.6820  145.4550 C   0  0  2  0  0  3  0  0  0  0  0  0
  193.1490  175.4800  146.3750 C   0  0  0  0  0  2  0  0  0  0  0  0
  190.6920  175.2340  145.8700 C   0  0  0  0  0  0  0  0  0  0  0  0
  192.0350  174.7390  145.7630 N   0  0  0  0  0  0  0  0  0  0  0  0
  189.7390  174.4140  146.0030 O   0  0  0  0  0  0  0  0  0  0  0  0
  192.2840  173.5030  145.0350 C   0  0  0  0  0  1  0  0  0  0  0  0
  189.8900  177.1410  144.3960 C   0  0  0  0  0  0  0  0  0  0  0  0
  190.7270  176.9660  143.1350 C   0  0  0  0  0  2  0  0  0  0  0  0
  189.4340  177.1580  146.8990 C   0  0  0  0  0  3  0  0  0  0  0  0
  190.7260  178.2900  143.8600 C   0  0  0  0  0  2  0  0  0  0  0  0
  186.2220  176.9370  144.8950 C   0  0  0  0  0  2  0  0  0  0  0  0
  186.3470  176.9800  143.3650 C   0  0  0  0  0  2  0  0  0  0  0  0
  187.6460  176.7200  145.3110 C   0  0  2  0  0  3  0  0  0  0  0  0
  188.0990  177.1520  146.6750 C   0  0  0  0  0  3  0  0  0  0  0  0
  187.7630  177.1840  143.0140 N   0  0  0  0  0  2  0  0  0  0  0  0
  190.4140  176.7240  145.8050 C   0  0  1  0  0  3  0  0  0  0  0  0
  188.4020  177.5030  144.2820 C   0  0  2  0  0  3  0  0  0  0  0  0
  1 24  1  0  0  0  0
  1  3  2  0  0  0  0
  2  1  1  0  0  0  0
  4 10  1  6  0  0  0
  4  5  1  0  0  0  0
  5  6  1  0  0  0  0
  5 16  1  1  0  0  0
  6  2  1  6  0  0  0
  7  9  2  0  0  0  0
  7  8  1  0  0  0  0
  8  6  1  0  0  0  0
  9  4  1  0  0  0  0
 11 13  1  0  0  0  0
 12 14  2  0  0  0  0
 13 15  2  0  0  0  0
 14 15  1  0  0  0  0
 16 12  1  0  0  0  0
 16 11  2  0  0  0  0
 17 18  1  1  0  0  0
 17  2  1  0  0  0  0
 17 19  1  0  0  0  0
 20 19  1  0  0  0  0
 21 20  1  0  0  0  0
 23 21  1  0  0  0  0
 23 22  1  0  0  0  0
 24 25  1  0  0  0  0
 25 26  1  0  0  0  0
 27 29  1  0  0  0  0
 28 26  1  6  0  0  0
 28 27  1  0  0  0  0
 28 29  1  0  0  0  0
 29 30  1  1  0  0  0
 31 33  2  0  0  0  0
 32 31  1  0  0  0  0
 32 30  1  0  0  0  0
 34 32  1  0  0  0  0
 35 44  1  0  0  0  0
 36 38  1  0  0  0  0
 36 35  1  0  0  0  0
 38 35  1  0  0  0  0
 40 39  1  0  0  0  0
 41 39  1  1  0  0  0
 41 42  1  0  0  0  0
 42 37  2  0  0  0  0
 43 40  1  0  0  0  0
 44 31  1  6  0  0  0
 44 37  1  0  0  0  0
 45 43  1  6  0  0  0
 45 35  1  0  0  0  0
 45 41  1  0  0  0  0
M  END
>  <MODEL>
9

>  <REMARK>
 VINA RESULT:      -5.9      3.227      8.119
  Name = 
  14 active torsions:
  status: ('A' for Active; 'I' for Inactive)
    1  A    between atoms: C_5  and  C_11
    2  A    between atoms: C_5  and  N_25
    3  A    between atoms: C_8  and  C_41
    4  A    between atoms: N_9  and  C_20
    5  A    between atoms: N_9  and  C_22
    6  A    between atoms: C_11  and  C_43
    7  A    between atoms: C_12  and  C_36
    8  A    between atoms: C_13  and  N_25
    9  A    between atoms: O_18  and  C_37
   10  A    between atoms: O_18  and  C_43
   11  A    between atoms: C_19  and  C_42
   12  A    between atoms: C_21  and  N_26
   13  A    between atoms: C_21  and  C_39
   14  A    between atoms: C_22  and  C_42
                            x       y       z     vdW  Elec       q    Type
                         _______ _______ _______ _____ _____    ______ ____

>  <TORSDO>
F 14

$$$$
