=
 OpenBabel11062422523D

 46 50  0  0  1  0  0  0  0  0999 V2000
  189.4890  171.8940  139.2480 C   0  0  0  0  0  2  0  0  0  0  0  0
  190.8640  172.3630  138.7260 C   0  0  1  0  0  3  0  0  0  0  0  0
  189.5250  176.8650  144.4540 C   0  0  0  0  0  2  0  0  0  0  0  0
  190.5510  176.8130  145.5740 C   0  0  0  0  0  2  0  0  0  0  0  0
  187.0690  176.3980  143.9710 C   0  0  0  0  0  0  0  0  0  0  0  0
  188.1090  176.7350  145.0160 C   0  0  2  0  0  3  0  0  0  0  0  0
  187.6380  175.1250  141.9290 C   0  0  0  0  0  2  0  0  0  0  0  0
  192.8420  173.7040  139.4870 N   0  0  1  0  0  0  0  0  0  0  0  0
  190.7620  172.6720  137.3690 O   0  0  0  0  0  1  0  0  0  0  0  0
  191.9210  174.4560  141.6190 C   0  0  1  0  0  3  0  0  0  0  0  0
  187.3810  176.5100  142.5010 C   0  0  1  0  0  3  0  0  0  0  0  0
  188.7030  173.0220  139.9410 C   0  0  0  0  0  2  0  0  0  0  0  0
  193.1510  174.4480  140.7160 C   0  0  0  0  0  2  0  0  0  0  0  0
  192.2380  175.0900  144.9000 C   0  0  0  0  0  2  0  0  0  0  0  0
  190.9970  173.4800  140.9400 C   0  0  1  0  0  3  0  0  0  0  0  0
  191.4180  174.4700  143.9520 O   0  0  0  0  0  0  0  0  0  0  0  0
  192.3040  173.9580  143.0000 C   0  0  0  0  0  2  0  0  0  0  0  0
  189.4760  173.6310  141.1310 C   0  0  1  0  0  3  0  0  0  0  0  0
  191.9310  176.5780  144.9900 C   0  0  0  0  0  2  0  0  0  0  0  0
  185.9730  175.9900  144.3360 O   0  0  0  0  0  0  0  0  0  0  0  0
  191.3890  173.5860  139.4940 C   0  0  2  0  0  3  0  0  0  0  0  0
  189.0480  175.0750  141.3530 C   0  0  0  0  0  2  0  0  0  0  0  0
  193.2240  174.5560  138.3570 C   0  0  1  0  0  3  0  0  0  0  0  0
  194.7450  174.7000  138.1890 C   0  0  2  0  0  3  0  0  0  0  0  0
  193.9590  173.7830  137.2550 C   0  0  1  0  0  3  0  0  0  0  0  0
  194.1360  172.4320  137.5810 O   0  0  0  0  0  1  0  0  0  0  0  0
  195.4990  173.9440  139.1960 N   0  0  0  0  0  2  0  0  0  0  0  0
  196.6210  174.7400  139.7040 C   0  0  2  0  0  3  0  0  0  0  0  0
  197.9050  174.9830  138.4330 S   0  0  0  0  0  1  0  0  0  0  0  0
  197.1940  174.1390  140.9010 N   0  0  0  0  0  2  0  0  0  0  0  0
  196.6240  174.8290  142.0490 C   0  0  1  0  0  3  0  0  0  0  0  0
  196.2430  173.8300  143.0970 C   0  0  0  0  0  0  0  0  0  0  0  0
  195.5950  172.7940  142.7840 O   0  0  0  0  0  0  0  0  0  0  0  0
  196.6190  174.0380  144.4180 O   0  0  0  0  0  1  0  0  0  0  0  0
  197.6310  175.8240  142.6020 C   0  0  0  0  0  2  0  0  0  0  0  0
  196.9720  176.9780  143.0260 O   0  0  0  0  0  1  0  0  0  0  0  0
  186.1690  178.5230  142.1400 C   0  0  0  0  0  0  0  0  0  0  0  0
  186.2570  177.2060  141.7360 C   0  0  1  0  0  3  0  0  0  0  0  0
  185.8490  179.4080  142.9720 O   0  0  0  0  0  0  0  0  0  0  0  0
  186.7850  178.1000  140.8400 O   0  0  0  0  0  0  0  0  0  0  0  0
  187.7320  177.8870  145.8400 N   0  0  0  0  0  2  0  0  0  0  0  0
  187.5140  177.4940  147.2270 C   0  0  0  0  0  2  0  0  0  0  0  0
  186.0290  177.3440  147.4800 C   0  0  0  0  0  2  0  0  0  0  0  0
  185.7570  179.7090  147.6770 O   0  0  0  0  0  1  0  0  0  0  0  0
  184.1910  178.6230  146.3960 O   0  0  0  0  0  0  0  0  0  0  0  0
  185.3270  178.6250  147.1940 C   0  0  0  0  0  0  0  0  0  0  0  0
  1 12  1  0  0  0  0
  2  9  1  6  0  0  0
  2  1  1  0  0  0  0
  2 21  1  0  0  0  0
  3  6  1  0  0  0  0
  3  4  1  0  0  0  0
  5 20  2  0  0  0  0
  5  6  1  0  0  0  0
  6 41  1  6  0  0  0
  8 21  1  0  0  0  0
  8 13  1  1  0  0  0
 10 13  1  6  0  0  0
 10 17  1  0  0  0  0
 11  7  1  6  0  0  0
 11  5  1  0  0  0  0
 12 18  1  0  0  0  0
 14 19  1  0  0  0  0
 15 18  1  0  0  0  0
 15 10  1  0  0  0  0
 16 14  1  0  0  0  0
 17 16  1  0  0  0  0
 18 22  1  0  0  0  0
 19  4  1  0  0  0  0
 21 15  1  0  0  0  0
 22  7  1  0  0  0  0
 23  8  1  0  0  0  0
 24 23  1  0  0  0  0
 24 27  1  0  0  0  0
 25 26  1  0  0  0  0
 25 24  1  0  0  0  0
 25 23  1  0  0  0  0
 27 28  1  0  0  0  0
 28 30  1  0  0  0  0
 29 28  1  0  0  0  0
 30 31  1  0  0  0  0
 31 35  1  0  0  0  0
 31 32  1  0  0  0  0
 32 34  1  0  0  0  0
 33 32  2  0  0  0  0
 35 36  1  0  0  0  0
 37 39  2  0  0  0  0
 38 37  1  0  0  0  0
 38 11  1  0  0  0  0
 40 38  1  0  0  0  0
 40 37  1  0  0  0  0
 41 42  1  0  0  0  0
 42 43  1  0  0  0  0
 45 46  2  0  0  0  0
 46 43  1  0  0  0  0
 46 44  1  0  0  0  0
M  END
>  <MODEL>
1

>  <REMARK>
 VINA RESULT:      -6.5      0.000      0.000
  Name = 
  12 active torsions:
  status: ('A' for Active; 'I' for Inactive)
    1  A    between atoms: C_1  and  N_25
    2  A    between atoms: C_2  and  CA_14
    3  A    between atoms: C_12  and  N_32
    4  A    between atoms: C_12  and  N_33
    5  A    between atoms: N_13  and  C_17
    6  A    between atoms: N_13  and  C_23
    7  A    between atoms: CA_14  and  CB_22
    8  A    between atoms: CA_14  and  N_33
    9  A    between atoms: C_15  and  C_31
   10  A    between atoms: C_20  and  N_32
   11  A    between atoms: C_21  and  C_34
   12  A    between atoms: C_23  and  C_34
                            x       y       z     vdW  Elec       q    Type
                         _______ _______ _______ _____ _____    ______ ____

>  <TORSDO>
F 12

$$$$
=
 OpenBabel11062422523D

 46 50  0  0  1  0  0  0  0  0999 V2000
  193.4580  173.8040  145.7140 C   0  0  0  0  0  2  0  0  0  0  0  0
  192.2430  174.7510  145.8230 C   0  0  1  0  0  3  0  0  0  0  0  0
  192.8470  173.4870  138.5490 C   0  0  0  0  0  2  0  0  0  0  0  0
  191.6310  172.8490  137.8990 C   0  0  0  0  0  2  0  0  0  0  0  0
  195.3060  173.0510  139.0460 C   0  0  0  0  0  0  0  0  0  0  0  0
  194.1200  172.7330  138.1630 C   0  0  2  0  0  3  0  0  0  0  0  0
  195.0270  173.7440  141.4030 C   0  0  0  0  0  2  0  0  0  0  0  0
  190.2690  175.4920  144.4660 N   0  0  1  0  0  0  0  0  0  0  0  0
  192.6180  175.9050  146.5120 O   0  0  0  0  0  1  0  0  0  0  0  0
  190.8370  174.3160  142.4030 C   0  0  1  0  0  3  0  0  0  0  0  0
  195.2810  174.2300  139.9850 C   0  0  1  0  0  3  0  0  0  0  0  0
  194.1880  173.9290  144.3650 C   0  0  0  0  0  2  0  0  0  0  0  0
  189.7980  175.1830  143.1080 C   0  0  0  0  0  2  0  0  0  0  0  0
  189.9690  172.4750  139.7330 C   0  0  0  0  0  2  0  0  0  0  0  0
  191.7910  173.9610  143.5120 C   0  0  1  0  0  3  0  0  0  0  0  0
  190.8990  172.5740  140.7720 O   0  0  0  0  0  0  0  0  0  0  0  0
  190.1670  173.0690  141.8550 C   0  0  0  0  0  2  0  0  0  0  0  0
  193.2580  173.6430  143.1660 C   0  0  1  0  0  3  0  0  0  0  0  0
  190.3680  173.3640  138.5630 C   0  0  0  0  0  2  0  0  0  0  0  0
  196.2810  172.3090  139.0190 O   0  0  0  0  0  0  0  0  0  0  0  0
  191.6820  175.1340  144.4450 C   0  0  2  0  0  3  0  0  0  0  0  0
  193.7490  174.3850  141.9300 C   0  0  0  0  0  2  0  0  0  0  0  0
  190.1710  176.9450  144.6370 C   0  0  1  0  0  3  0  0  0  0  0  0
  188.7260  177.4420  144.8050 C   0  0  2  0  0  3  0  0  0  0  0  0
  189.6430  177.3410  146.0220 C   0  0  1  0  0  3  0  0  0  0  0  0
  189.3380  176.2270  146.8140 O   0  0  0  0  0  1  0  0  0  0  0  0
  187.7440  176.3510  144.7650 N   0  0  0  0  0  2  0  0  0  0  0  0
  186.4620  176.8310  144.2400 C   0  0  2  0  0  3  0  0  0  0  0  0
  186.4640  176.9020  142.4180 S   0  0  0  0  0  1  0  0  0  0  0  0
  186.1170  178.1310  144.8010 N   0  0  0  0  0  2  0  0  0  0  0  0
  185.1510  177.9020  145.8660 C   0  0  1  0  0  3  0  0  0  0  0  0
  185.7910  178.1720  147.1910 C   0  0  0  0  0  0  0  0  0  0  0  0
  185.9700  179.3570  147.5830 O   0  0  0  0  0  0  0  0  0  0  0  0
  186.1760  177.1090  148.0010 O   0  0  0  0  0  1  0  0  0  0  0  0
  183.9430  178.8000  145.6630 C   0  0  0  0  0  2  0  0  0  0  0  0
  183.9010  179.2480  144.3430 O   0  0  0  0  0  1  0  0  0  0  0  0
  196.5570  176.0260  140.8780 C   0  0  0  0  0  0  0  0  0  0  0  0
  196.5780  175.0350  139.9180 C   0  0  1  0  0  3  0  0  0  0  0  0
  196.1570  177.1310  141.3220 O   0  0  0  0  0  0  0  0  0  0  0  0
  197.3540  174.7640  141.0150 O   0  0  0  0  0  0  0  0  0  0  0  0
  194.4270  172.8600  136.7350 N   0  0  0  0  0  2  0  0  0  0  0  0
  194.6650  174.2510  136.3690 C   0  0  0  0  0  2  0  0  0  0  0  0
  195.8360  174.3270  135.4120 C   0  0  0  0  0  2  0  0  0  0  0  0
  197.8280  174.1850  136.7220 O   0  0  0  0  0  1  0  0  0  0  0  0
  197.2220  176.2940  136.0410 O   0  0  0  0  0  0  0  0  0  0  0  0
  197.0180  174.9220  136.0940 C   0  0  0  0  0  0  0  0  0  0  0  0
  1  2  1  0  0  0  0
  2  9  1  6  0  0  0
  4  3  1  0  0  0  0
  4 19  1  0  0  0  0
  5 11  1  0  0  0  0
  6 41  1  6  0  0  0
  6  3  1  0  0  0  0
  6  5  1  0  0  0  0
  7 22  1  0  0  0  0
  8 13  1  6  0  0  0
  8 23  1  0  0  0  0
 10 17  1  1  0  0  0
 10 13  1  0  0  0  0
 10 15  1  0  0  0  0
 11  7  1  1  0  0  0
 12  1  1  0  0  0  0
 14 16  1  0  0  0  0
 15 21  1  0  0  0  0
 16 17  1  0  0  0  0
 18 15  1  0  0  0  0
 18 12  1  0  0  0  0
 19 14  1  0  0  0  0
 20  5  2  0  0  0  0
 21  8  1  0  0  0  0
 21  2  1  0  0  0  0
 22 18  1  0  0  0  0
 23 24  1  0  0  0  0
 23 25  1  0  0  0  0
 24 25  1  0  0  0  0
 25 26  1  0  0  0  0
 27 24  1  0  0  0  0
 28 27  1  0  0  0  0
 28 30  1  0  0  0  0
 29 28  1  0  0  0  0
 30 31  1  0  0  0  0
 31 32  1  0  0  0  0
 32 33  2  0  0  0  0
 32 34  1  0  0  0  0
 35 31  1  0  0  0  0
 36 35  1  0  0  0  0
 37 40  1  0  0  0  0
 37 39  2  0  0  0  0
 38 11  1  0  0  0  0
 38 37  1  0  0  0  0
 38 40  1  0  0  0  0
 42 41  1  0  0  0  0
 43 46  1  0  0  0  0
 43 42  1  0  0  0  0
 45 46  2  0  0  0  0
 46 44  1  0  0  0  0
M  END
>  <MODEL>
2

>  <REMARK>
 VINA RESULT:      -6.5      2.839     10.325
  Name = 
  12 active torsions:
  status: ('A' for Active; 'I' for Inactive)
    1  A    between atoms: C_1  and  N_25
    2  A    between atoms: C_2  and  CA_14
    3  A    between atoms: C_12  and  N_32
    4  A    between atoms: C_12  and  N_33
    5  A    between atoms: N_13  and  C_17
    6  A    between atoms: N_13  and  C_23
    7  A    between atoms: CA_14  and  CB_22
    8  A    between atoms: CA_14  and  N_33
    9  A    between atoms: C_15  and  C_31
   10  A    between atoms: C_20  and  N_32
   11  A    between atoms: C_21  and  C_34
   12  A    between atoms: C_23  and  C_34
                            x       y       z     vdW  Elec       q    Type
                         _______ _______ _______ _____ _____    ______ ____

>  <TORSDO>
F 12

$$$$
=
 OpenBabel11062422523D

 46 50  0  0  1  0  0  0  0  0999 V2000
  193.6110  173.6040  145.7100 C   0  0  0  0  0  2  0  0  0  0  0  0
  192.4550  174.6040  145.9290 C   0  0  1  0  0  3  0  0  0  0  0  0
  192.6930  173.7720  138.5730 C   0  0  0  0  0  2  0  0  0  0  0  0
  191.4180  173.2410  137.9390 C   0  0  0  0  0  2  0  0  0  0  0  0
  195.1430  173.1800  138.9340 C   0  0  0  0  0  0  0  0  0  0  0  0
  193.9070  172.9800  138.0860 C   0  0  2  0  0  3  0  0  0  0  0  0
  194.9980  173.7370  141.3380 C   0  0  0  0  0  2  0  0  0  0  0  0
  190.4700  175.5300  144.7080 N   0  0  1  0  0  0  0  0  0  0  0  0
  192.9190  175.6920  146.6710 O   0  0  0  0  0  1  0  0  0  0  0  0
  190.8890  174.4590  142.5540 C   0  0  1  0  0  3  0  0  0  0  0  0
  195.2200  174.2970  139.9430 C   0  0  1  0  0  3  0  0  0  0  0  0
  194.2910  173.7770  144.3400 C   0  0  0  0  0  2  0  0  0  0  0  0
  189.9280  175.3320  143.3560 C   0  0  0  0  0  2  0  0  0  0  0  0
  189.8150  172.8370  139.8180 C   0  0  0  0  0  2  0  0  0  0  0  0
  191.8670  173.9870  143.5970 C   0  0  1  0  0  3  0  0  0  0  0  0
  190.7910  172.8220  140.8190 O   0  0  0  0  0  0  0  0  0  0  0  0
  190.1310  173.2850  141.9610 C   0  0  0  0  0  2  0  0  0  0  0  0
  193.2990  173.6150  143.1680 C   0  0  1  0  0  3  0  0  0  0  0  0
  190.2140  173.7770  138.6880 C   0  0  0  0  0  2  0  0  0  0  0  0
  196.0750  172.3920  138.8190 O   0  0  0  0  0  0  0  0  0  0  0  0
  191.8600  175.1020  144.6030 C   0  0  2  0  0  3  0  0  0  0  0  0
  193.7790  174.4080  141.9590 C   0  0  0  0  0  2  0  0  0  0  0  0
  190.4580  176.9720  144.9720 C   0  0  1  0  0  3  0  0  0  0  0  0
  189.0450  177.5400  145.1880 C   0  0  2  0  0  3  0  0  0  0  0  0
  189.9650  177.3090  146.3840 C   0  0  1  0  0  3  0  0  0  0  0  0
  189.6020  176.1670  147.1090 O   0  0  0  0  0  1  0  0  0  0  0  0
  188.0020  176.5120  145.0900 N   0  0  0  0  0  2  0  0  0  0  0  0
  186.7090  177.1200  144.7600 C   0  0  2  0  0  3  0  0  0  0  0  0
  185.4740  176.8290  146.0680 S   0  0  0  0  0  1  0  0  0  0  0  0
  186.2150  176.6410  143.4750 N   0  0  0  0  0  2  0  0  0  0  0  0
  186.3370  177.7370  142.5260 C   0  0  1  0  0  3  0  0  0  0  0  0
  187.4960  177.4860  141.6140 C   0  0  0  0  0  0  0  0  0  0  0  0
  188.5150  178.2290  141.6580 O   0  0  0  0  0  1  0  0  0  0  0  0
  187.4560  176.4170  140.7260 O   0  0  0  0  0  0  0  0  0  0  0  0
  185.0500  177.8720  141.7300 C   0  0  0  0  0  2  0  0  0  0  0  0
  183.9720  178.0490  142.5970 O   0  0  0  0  0  1  0  0  0  0  0  0
  196.6080  175.9950  140.8590 C   0  0  0  0  0  0  0  0  0  0  0  0
  196.5550  175.0370  139.8680 C   0  0  1  0  0  3  0  0  0  0  0  0
  196.2760  177.1040  141.3480 O   0  0  0  0  0  0  0  0  0  0  0  0
  197.3420  174.6910  140.9360 O   0  0  0  0  0  0  0  0  0  0  0  0
  194.1620  173.1810  136.6560 N   0  0  0  0  0  2  0  0  0  0  0  0
  194.5490  174.5590  136.3790 C   0  0  0  0  0  2  0  0  0  0  0  0
  195.7490  174.5690  135.4560 C   0  0  0  0  0  2  0  0  0  0  0  0
  197.6830  175.3090  136.6460 O   0  0  0  0  0  1  0  0  0  0  0  0
  196.5570  176.9210  135.4580 O   0  0  0  0  0  0  0  0  0  0  0  0
  196.7200  175.6110  135.8880 C   0  0  0  0  0  0  0  0  0  0  0  0
  1  2  1  0  0  0  0
  2  9  1  6  0  0  0
  4  3  1  0  0  0  0
  4 19  1  0  0  0  0
  5 11  1  0  0  0  0
  6 41  1  6  0  0  0
  6  3  1  0  0  0  0
  6  5  1  0  0  0  0
  7 22  1  0  0  0  0
  8 13  1  6  0  0  0
  8 23  1  0  0  0  0
 10 17  1  1  0  0  0
 10 13  1  0  0  0  0
 10 15  1  0  0  0  0
 11  7  1  1  0  0  0
 12  1  1  0  0  0  0
 14 16  1  0  0  0  0
 15 21  1  0  0  0  0
 16 17  1  0  0  0  0
 18 15  1  0  0  0  0
 18 12  1  0  0  0  0
 19 14  1  0  0  0  0
 20  5  2  0  0  0  0
 21  8  1  0  0  0  0
 21  2  1  0  0  0  0
 22 18  1  0  0  0  0
 23 24  1  0  0  0  0
 23 25  1  0  0  0  0
 24 25  1  0  0  0  0
 25 26  1  0  0  0  0
 27 24  1  0  0  0  0
 28 27  1  0  0  0  0
 28 29  1  0  0  0  0
 30 28  1  0  0  0  0
 31 30  1  0  0  0  0
 32 33  1  0  0  0  0
 32 31  1  0  0  0  0
 34 32  2  0  0  0  0
 35 31  1  0  0  0  0
 35 36  1  0  0  0  0
 37 40  1  0  0  0  0
 37 39  2  0  0  0  0
 38 11  1  0  0  0  0
 38 37  1  0  0  0  0
 38 40  1  0  0  0  0
 42 41  1  0  0  0  0
 43 46  1  0  0  0  0
 43 42  1  0  0  0  0
 45 46  2  0  0  0  0
 46 44  1  0  0  0  0
M  END
>  <MODEL>
3

>  <REMARK>
 VINA RESULT:      -6.4      3.160     10.068
  Name = 
  12 active torsions:
  status: ('A' for Active; 'I' for Inactive)
    1  A    between atoms: C_1  and  N_25
    2  A    between atoms: C_2  and  CA_14
    3  A    between atoms: C_12  and  N_32
    4  A    between atoms: C_12  and  N_33
    5  A    between atoms: N_13  and  C_17
    6  A    between atoms: N_13  and  C_23
    7  A    between atoms: CA_14  and  CB_22
    8  A    between atoms: CA_14  and  N_33
    9  A    between atoms: C_15  and  C_31
   10  A    between atoms: C_20  and  N_32
   11  A    between atoms: C_21  and  C_34
   12  A    between atoms: C_23  and  C_34
                            x       y       z     vdW  Elec       q    Type
                         _______ _______ _______ _____ _____    ______ ____

>  <TORSDO>
F 12

$$$$
=
 OpenBabel11062422523D

 46 50  0  0  1  0  0  0  0  0999 V2000
  191.3530  175.0870  147.6420 C   0  0  0  0  0  2  0  0  0  0  0  0
  190.2740  175.9300  146.9280 C   0  0  1  0  0  3  0  0  0  0  0  0
  193.8740  172.6080  141.3720 C   0  0  0  0  0  2  0  0  0  0  0  0
  193.0200  171.7170  140.4870 C   0  0  0  0  0  2  0  0  0  0  0  0
  195.8450  172.5260  142.9830 C   0  0  0  0  0  0  0  0  0  0  0  0
  195.1390  171.8710  141.8170 C   0  0  2  0  0  3  0  0  0  0  0  0
  194.6220  173.8660  144.6620 C   0  0  0  0  0  2  0  0  0  0  0  0
  189.1310  176.0840  144.7020 N   0  0  1  0  0  0  0  0  0  0  0  0
  190.3880  177.2620  147.3300 O   0  0  0  0  0  1  0  0  0  0  0  0
  190.4560  174.3930  143.5410 C   0  0  1  0  0  3  0  0  0  0  0  0
  195.4930  173.9250  143.4180 C   0  0  1  0  0  3  0  0  0  0  0  0
  192.6000  174.8590  146.7680 C   0  0  0  0  0  2  0  0  0  0  0  0
  189.2720  175.3510  143.4360 C   0  0  0  0  0  2  0  0  0  0  0  0
  190.7090  171.7820  141.4470 C   0  0  0  0  0  2  0  0  0  0  0  0
  190.8140  174.4570  145.0030 C   0  0  1  0  0  3  0  0  0  0  0  0
  191.1040  172.2550  142.7020 O   0  0  0  0  0  0  0  0  0  0  0  0
  190.0100  172.9930  143.1610 C   0  0  0  0  0  2  0  0  0  0  0  0
  192.2620  174.1610  145.4340 C   0  0  1  0  0  3  0  0  0  0  0  0
  191.6300  172.3100  140.3560 C   0  0  0  0  0  2  0  0  0  0  0  0
  196.6870  171.8840  143.6010 O   0  0  0  0  0  0  0  0  0  0  0  0
  190.3880  175.8430  145.3980 C   0  0  2  0  0  3  0  0  0  0  0  0
  193.2850  174.5360  144.3690 C   0  0  0  0  0  2  0  0  0  0  0  0
  189.0610  177.5100  144.3700 C   0  0  1  0  0  3  0  0  0  0  0  0
  187.7740  177.9000  143.6250 C   0  0  2  0  0  3  0  0  0  0  0  0
  187.9270  178.2330  145.1070 C   0  0  1  0  0  3  0  0  0  0  0  0
  187.1810  177.3670  145.9160 O   0  0  0  0  0  1  0  0  0  0  0  0
  186.8790  176.7580  143.4070 N   0  0  0  0  0  2  0  0  0  0  0  0
  186.0670  176.9620  142.2030 C   0  0  2  0  0  3  0  0  0  0  0  0
  187.0580  176.7800  140.6840 S   0  0  0  0  0  1  0  0  0  0  0  0
  185.4050  178.2600  142.2280 N   0  0  0  0  0  2  0  0  0  0  0  0
  184.2290  178.1320  143.0760 C   0  0  1  0  0  3  0  0  0  0  0  0
  184.3790  179.0090  144.2790 C   0  0  0  0  0  0  0  0  0  0  0  0
  185.0010  180.1040  144.1960 O   0  0  0  0  0  0  0  0  0  0  0  0
  183.8160  178.6230  145.4900 O   0  0  0  0  0  1  0  0  0  0  0  0
  182.9850  178.5120  142.2900 C   0  0  0  0  0  2  0  0  0  0  0  0
  183.0470  177.9590  141.0110 O   0  0  0  0  0  1  0  0  0  0  0  0
  196.5510  176.0390  143.1750 C   0  0  0  0  0  0  0  0  0  0  0  0
  196.7410  174.7680  143.6770 C   0  0  1  0  0  3  0  0  0  0  0  0
  196.4700  176.8550  142.2230 O   0  0  0  0  0  0  0  0  0  0  0  0
  196.4770  175.7120  144.6360 O   0  0  0  0  0  0  0  0  0  0  0  0
  196.0390  171.5900  140.6940 N   0  0  0  0  0  2  0  0  0  0  0  0
  196.7060  172.8040  140.2380 C   0  0  0  0  0  2  0  0  0  0  0  0
  196.3720  173.0440  138.7800 C   0  0  0  0  0  2  0  0  0  0  0  0
  196.1960  175.4190  138.9530 O   0  0  0  0  0  1  0  0  0  0  0  0
  194.3490  174.3330  138.1260 O   0  0  0  0  0  0  0  0  0  0  0  0
  195.6440  174.3320  138.6260 C   0  0  0  0  0  0  0  0  0  0  0  0
  2  9  1  1  0  0  0
  2  1  1  0  0  0  0
  3  6  1  0  0  0  0
  4  3  1  0  0  0  0
  5 11  1  0  0  0  0
  5 20  2  0  0  0  0
  6 41  1  6  0  0  0
  6  5  1  0  0  0  0
  8 13  1  6  0  0  0
  8 21  1  0  0  0  0
 10 17  1  1  0  0  0
 10 15  1  0  0  0  0
 11 38  1  0  0  0  0
 11  7  1  1  0  0  0
 12  1  1  0  0  0  0
 13 10  1  0  0  0  0
 14 16  1  0  0  0  0
 15 21  1  0  0  0  0
 15 18  1  0  0  0  0
 16 17  1  0  0  0  0
 18 12  1  0  0  0  0
 19  4  1  0  0  0  0
 19 14  1  0  0  0  0
 21  2  1  0  0  0  0
 22  7  1  0  0  0  0
 22 18  1  0  0  0  0
 23  8  1  0  0  0  0
 23 25  1  0  0  0  0
 24 23  1  0  0  0  0
 24 25  1  0  0  0  0
 25 26  1  0  0  0  0
 27 24  1  0  0  0  0
 28 30  1  0  0  0  0
 28 27  1  0  0  0  0
 29 28  1  0  0  0  0
 30 31  1  0  0  0  0
 31 32  1  0  0  0  0
 32 34  1  0  0  0  0
 33 32  2  0  0  0  0
 35 31  1  0  0  0  0
 36 35  1  0  0  0  0
 37 38  1  0  0  0  0
 37 40  1  0  0  0  0
 38 40  1  0  0  0  0
 39 37  2  0  0  0  0
 42 41  1  0  0  0  0
 43 42  1  0  0  0  0
 45 46  2  0  0  0  0
 46 43  1  0  0  0  0
 46 44  1  0  0  0  0
M  END
>  <MODEL>
4

>  <REMARK>
 VINA RESULT:      -6.4      2.748     10.149
  Name = 
  12 active torsions:
  status: ('A' for Active; 'I' for Inactive)
    1  A    between atoms: C_1  and  N_25
    2  A    between atoms: C_2  and  CA_14
    3  A    between atoms: C_12  and  N_32
    4  A    between atoms: C_12  and  N_33
    5  A    between atoms: N_13  and  C_17
    6  A    between atoms: N_13  and  C_23
    7  A    between atoms: CA_14  and  CB_22
    8  A    between atoms: CA_14  and  N_33
    9  A    between atoms: C_15  and  C_31
   10  A    between atoms: C_20  and  N_32
   11  A    between atoms: C_21  and  C_34
   12  A    between atoms: C_23  and  C_34
                            x       y       z     vdW  Elec       q    Type
                         _______ _______ _______ _____ _____    ______ ____

>  <TORSDO>
F 12

$$$$
=
 OpenBabel11062422523D

 46 50  0  0  1  0  0  0  0  0999 V2000
  191.6460  173.1350  139.0930 C   0  0  0  0  0  2  0  0  0  0  0  0
  190.5310  173.7870  139.9390 C   0  0  1  0  0  3  0  0  0  0  0  0
  195.7910  172.1800  144.9000 C   0  0  0  0  0  2  0  0  0  0  0  0
  196.3460  173.3690  145.6650 C   0  0  0  0  0  2  0  0  0  0  0  0
  196.4820  170.3600  143.2600 C   0  0  0  0  0  0  0  0  0  0  0  0
  196.9260  171.3270  144.3330 C   0  0  2  0  0  3  0  0  0  0  0  0
  194.5340  170.8250  141.8100 C   0  0  0  0  0  2  0  0  0  0  0  0
  190.2110  174.8550  142.1850 N   0  0  1  0  0  0  0  0  0  0  0  0
  189.3320  173.1030  139.7290 O   0  0  0  0  0  1  0  0  0  0  0  0
  192.4450  174.4220  143.0680 C   0  0  1  0  0  3  0  0  0  0  0  0
  195.0200  170.0670  143.0340 C   0  0  1  0  0  3  0  0  0  0  0  0
  192.4990  172.1410  139.9030 C   0  0  0  0  0  2  0  0  0  0  0  0
  191.0990  175.0940  143.3310 C   0  0  0  0  0  2  0  0  0  0  0  0
  195.1750  175.3900  144.7660 C   0  0  0  0  0  2  0  0  0  0  0  0
  192.3400  174.0070  141.6250 C   0  0  1  0  0  3  0  0  0  0  0  0
  194.7490  174.7770  143.5830 O   0  0  0  0  0  0  0  0  0  0  0  0
  193.5600  175.4340  143.2540 C   0  0  0  0  0  2  0  0  0  0  0  0
  193.1620  172.8020  141.1300 C   0  0  1  0  0  3  0  0  0  0  0  0
  195.2420  174.3820  145.9040 C   0  0  0  0  0  2  0  0  0  0  0  0
  197.3290  169.8410  142.5410 O   0  0  0  0  0  0  0  0  0  0  0  0
  190.8650  173.7880  141.4380 C   0  0  2  0  0  3  0  0  0  0  0  0
  193.4060  171.7650  142.2190 C   0  0  0  0  0  2  0  0  0  0  0  0
  188.9500  174.3300  142.7170 C   0  0  1  0  0  3  0  0  0  0  0  0
  188.1260  175.3800  143.4800 C   0  0  2  0  0  3  0  0  0  0  0  0
  187.7200  174.9740  142.0650 C   0  0  1  0  0  3  0  0  0  0  0  0
  188.0670  175.9490  141.1220 O   0  0  0  0  0  1  0  0  0  0  0  0
  188.7760  176.6970  143.5080 N   0  0  0  0  0  2  0  0  0  0  0  0
  188.3640  177.4480  144.6980 C   0  0  2  0  0  3  0  0  0  0  0  0
  189.5050  177.1760  146.0940 S   0  0  0  0  0  1  0  0  0  0  0  0
  186.9980  177.1170  145.0840 N   0  0  0  0  0  2  0  0  0  0  0  0
  186.3130  178.3690  145.3680 C   0  0  1  0  0  3  0  0  0  0  0  0
  185.7090  178.9080  144.1090 C   0  0  0  0  0  0  0  0  0  0  0  0
  185.5740  180.1520  143.9490 O   0  0  0  0  0  1  0  0  0  0  0  0
  185.3100  178.0330  143.1050 O   0  0  0  0  0  0  0  0  0  0  0  0
  185.2390  178.1390  146.4190 C   0  0  0  0  0  2  0  0  0  0  0  0
  184.9250  176.7810  146.4850 O   0  0  0  0  0  1  0  0  0  0  0  0
  193.4020  168.3300  142.9110 C   0  0  0  0  0  0  0  0  0  0  0  0
  194.7610  168.5700  142.8760 C   0  0  1  0  0  3  0  0  0  0  0  0
  192.3100  168.2280  143.5230 O   0  0  0  0  0  0  0  0  0  0  0  0
  194.2070  168.3180  141.6470 O   0  0  0  0  0  0  0  0  0  0  0  0
  197.7140  170.6810  145.3880 N   0  0  0  0  0  2  0  0  0  0  0  0
  197.2030  169.3470  145.6830 C   0  0  0  0  0  2  0  0  0  0  0  0
  196.7850  169.2780  147.1370 C   0  0  0  0  0  2  0  0  0  0  0  0
  194.5610  169.0460  146.2990 O   0  0  0  0  0  0  0  0  0  0  0  0
  194.9410  168.1780  148.3920 O   0  0  0  0  0  1  0  0  0  0  0  0
  195.3700  168.8300  147.2430 C   0  0  0  0  0  0  0  0  0  0  0  0
  1 12  1  0  0  0  0
  1  2  1  0  0  0  0
  2  9  1  1  0  0  0
  2 21  1  0  0  0  0
  3  4  1  0  0  0  0
  4 19  1  0  0  0  0
  5  6  1  0  0  0  0
  6  3  1  0  0  0  0
  6 41  1  1  0  0  0
  7 22  1  0  0  0  0
  8 23  1  0  0  0  0
  8 13  1  1  0  0  0
 10 17  1  6  0  0  0
 10 13  1  0  0  0  0
 11  7  1  6  0  0  0
 11  5  1  0  0  0  0
 12 18  1  0  0  0  0
 14 19  1  0  0  0  0
 15 10  1  0  0  0  0
 16 14  1  0  0  0  0
 17 16  1  0  0  0  0
 18 15  1  0  0  0  0
 18 22  1  0  0  0  0
 20  5  2  0  0  0  0
 21 15  1  0  0  0  0
 21  8  1  0  0  0  0
 23 24  1  0  0  0  0
 24 27  1  0  0  0  0
 25 23  1  0  0  0  0
 25 24  1  0  0  0  0
 26 25  1  0  0  0  0
 27 28  1  0  0  0  0
 28 30  1  0  0  0  0
 28 29  1  0  0  0  0
 30 31  1  0  0  0  0
 31 35  1  0  0  0  0
 32 31  1  0  0  0  0
 33 32  1  0  0  0  0
 34 32  2  0  0  0  0
 35 36  1  0  0  0  0
 37 39  2  0  0  0  0
 38 37  1  0  0  0  0
 38 11  1  0  0  0  0
 40 38  1  0  0  0  0
 40 37  1  0  0  0  0
 41 42  1  0  0  0  0
 42 43  1  0  0  0  0
 43 46  1  0  0  0  0
 44 46  2  0  0  0  0
 46 45  1  0  0  0  0
M  END
>  <MODEL>
5

>  <REMARK>
 VINA RESULT:      -6.2      3.765      9.485
  Name = 
  12 active torsions:
  status: ('A' for Active; 'I' for Inactive)
    1  A    between atoms: C_1  and  N_25
    2  A    between atoms: C_2  and  CA_14
    3  A    between atoms: C_12  and  N_32
    4  A    between atoms: C_12  and  N_33
    5  A    between atoms: N_13  and  C_17
    6  A    between atoms: N_13  and  C_23
    7  A    between atoms: CA_14  and  CB_22
    8  A    between atoms: CA_14  and  N_33
    9  A    between atoms: C_15  and  C_31
   10  A    between atoms: C_20  and  N_32
   11  A    between atoms: C_21  and  C_34
   12  A    between atoms: C_23  and  C_34
                            x       y       z     vdW  Elec       q    Type
                         _______ _______ _______ _____ _____    ______ ____

>  <TORSDO>
F 12

$$$$
=
 OpenBabel11062422523D

 46 50  0  0  1  0  0  0  0  0999 V2000
  193.5150  172.9710  145.1530 C   0  0  0  0  0  2  0  0  0  0  0  0
  192.5950  174.0880  145.6900 C   0  0  1  0  0  3  0  0  0  0  0  0
  190.8310  173.6540  138.5090 C   0  0  0  0  0  2  0  0  0  0  0  0
  189.3790  173.3160  138.2170 C   0  0  0  0  0  2  0  0  0  0  0  0
  193.1930  172.7530  138.2030 C   0  0  0  0  0  0  0  0  0  0  0  0
  191.7660  172.7510  137.7030 C   0  0  2  0  0  3  0  0  0  0  0  0
  193.7430  173.1850  140.5750 C   0  0  0  0  0  2  0  0  0  0  0  0
  190.5020  175.3130  145.0510 N   0  0  1  0  0  0  0  0  0  0  0  0
  193.3710  175.0680  146.3100 O   0  0  0  0  0  1  0  0  0  0  0  0
  190.2120  174.3240  142.8380 C   0  0  1  0  0  3  0  0  0  0  0  0
  193.6710  173.7930  139.1840 C   0  0  1  0  0  3  0  0  0  0  0  0
  193.8390  173.1380  143.6570 C   0  0  0  0  0  2  0  0  0  0  0  0
  189.6110  175.2590  143.8840 C   0  0  0  0  0  2  0  0  0  0  0  0
  188.2710  173.0020  140.4390 C   0  0  0  0  0  2  0  0  0  0  0  0
  191.3540  173.6790  143.5780 C   0  0  1  0  0  3  0  0  0  0  0  0
  189.4600  172.8130  141.1500 O   0  0  0  0  0  0  0  0  0  0  0  0
  189.1820  173.2860  142.4360 C   0  0  0  0  0  2  0  0  0  0  0  0
  192.5680  173.1640  142.7810 C   0  0  1  0  0  3  0  0  0  0  0  0
  188.4870  173.9500  139.2670 C   0  0  0  0  0  2  0  0  0  0  0  0
  193.9530  171.8670  137.8300 O   0  0  0  0  0  0  0  0  0  0  0  0
  191.7510  174.7290  144.5780 C   0  0  2  0  0  3  0  0  0  0  0  0
  192.8210  173.9610  141.5080 C   0  0  0  0  0  2  0  0  0  0  0  0
  190.7460  176.7290  145.3440 C   0  0  1  0  0  3  0  0  0  0  0  0
  189.5340  177.4400  145.9680 C   0  0  2  0  0  3  0  0  0  0  0  0
  190.7150  177.0350  146.8460 C   0  0  1  0  0  3  0  0  0  0  0  0
  190.4280  175.9000  147.6150 O   0  0  0  0  0  1  0  0  0  0  0  0
  188.3840  176.5450  146.1460 N   0  0  0  0  0  2  0  0  0  0  0  0
  187.1280  177.2750  145.9480 C   0  0  2  0  0  3  0  0  0  0  0  0
  186.0300  177.1320  147.3960 S   0  0  0  0  0  1  0  0  0  0  0  0
  186.4430  176.8280  144.7420 N   0  0  0  0  0  2  0  0  0  0  0  0
  186.4550  177.9370  143.7990 C   0  0  1  0  0  3  0  0  0  0  0  0
  186.4970  177.4070  142.4000 C   0  0  0  0  0  0  0  0  0  0  0  0
  186.3820  178.1900  141.4180 O   0  0  0  0  0  0  0  0  0  0  0  0
  186.6820  176.0470  142.1830 O   0  0  0  0  0  1  0  0  0  0  0  0
  185.2200  178.7990  144.0060 C   0  0  0  0  0  2  0  0  0  0  0  0
  185.5600  180.1470  143.8960 O   0  0  0  0  0  1  0  0  0  0  0  0
  195.5360  175.1240  139.8190 C   0  0  0  0  0  0  0  0  0  0  0  0
  195.0270  174.3700  138.7800 C   0  0  1  0  0  3  0  0  0  0  0  0
  195.5580  176.1590  140.5300 O   0  0  0  0  0  0  0  0  0  0  0  0
  196.0280  173.7480  139.4820 O   0  0  0  0  0  0  0  0  0  0  0  0
  191.6710  173.0010  136.2610 N   0  0  0  0  0  2  0  0  0  0  0  0
  191.9330  174.4010  135.9520 C   0  0  0  0  0  2  0  0  0  0  0  0
  191.1590  174.7950  134.7100 C   0  0  0  0  0  2  0  0  0  0  0  0
  191.0090  177.1720  134.8920 O   0  0  0  0  0  0  0  0  0  0  0  0
  189.0570  176.0130  135.2450 O   0  0  0  0  0  1  0  0  0  0  0  0
  190.4130  176.0600  134.9500 C   0  0  0  0  0  0  0  0  0  0  0  0
  1  2  1  0  0  0  0
  2  9  1  6  0  0  0
  4  3  1  0  0  0  0
  4 19  1  0  0  0  0
  5 11  1  0  0  0  0
  6 41  1  6  0  0  0
  6  5  1  0  0  0  0
  6  3  1  0  0  0  0
  7 22  1  0  0  0  0
  8 13  1  6  0  0  0
  8 23  1  0  0  0  0
 10 17  1  1  0  0  0
 10 15  1  0  0  0  0
 10 13  1  0  0  0  0
 11  7  1  1  0  0  0
 12  1  1  0  0  0  0
 14 16  1  0  0  0  0
 15 21  1  0  0  0  0
 16 17  1  0  0  0  0
 18 15  1  0  0  0  0
 18 12  1  0  0  0  0
 19 14  1  0  0  0  0
 20  5  2  0  0  0  0
 21  8  1  0  0  0  0
 21  2  1  0  0  0  0
 22 18  1  0  0  0  0
 23 24  1  0  0  0  0
 23 25  1  0  0  0  0
 24 27  1  0  0  0  0
 24 25  1  0  0  0  0
 25 26  1  0  0  0  0
 28 27  1  0  0  0  0
 28 29  1  0  0  0  0
 30 28  1  0  0  0  0
 31 35  1  0  0  0  0
 31 30  1  0  0  0  0
 32 31  1  0  0  0  0
 33 32  2  0  0  0  0
 34 32  1  0  0  0  0
 36 35  1  0  0  0  0
 37 39  2  0  0  0  0
 38 11  1  0  0  0  0
 38 40  1  0  0  0  0
 38 37  1  0  0  0  0
 40 37  1  0  0  0  0
 42 41  1  0  0  0  0
 43 46  1  0  0  0  0
 43 42  1  0  0  0  0
 44 46  2  0  0  0  0
 46 45  1  0  0  0  0
M  END
>  <MODEL>
6

>  <REMARK>
 VINA RESULT:      -6.1      3.260      9.529
  Name = 
  12 active torsions:
  status: ('A' for Active; 'I' for Inactive)
    1  A    between atoms: C_1  and  N_25
    2  A    between atoms: C_2  and  CA_14
    3  A    between atoms: C_12  and  N_32
    4  A    between atoms: C_12  and  N_33
    5  A    between atoms: N_13  and  C_17
    6  A    between atoms: N_13  and  C_23
    7  A    between atoms: CA_14  and  CB_22
    8  A    between atoms: CA_14  and  N_33
    9  A    between atoms: C_15  and  C_31
   10  A    between atoms: C_20  and  N_32
   11  A    between atoms: C_21  and  C_34
   12  A    between atoms: C_23  and  C_34
                            x       y       z     vdW  Elec       q    Type
                         _______ _______ _______ _____ _____    ______ ____

>  <TORSDO>
F 12

$$$$
=
 OpenBabel11062422523D

 46 50  0  0  1  0  0  0  0  0999 V2000
  189.3380  172.2820  139.5850 C   0  0  0  0  0  2  0  0  0  0  0  0
  190.8580  172.5480  139.5410 C   0  0  1  0  0  3  0  0  0  0  0  0
  188.3160  177.6360  144.2860 C   0  0  0  0  0  2  0  0  0  0  0  0
  188.8980  177.5640  145.6880 C   0  0  0  0  0  2  0  0  0  0  0  0
  186.1190  177.4090  143.0200 C   0  0  0  0  0  0  0  0  0  0  0  0
  186.7900  177.7140  144.3400 C   0  0  2  0  0  3  0  0  0  0  0  0
  187.1540  175.9130  141.3450 C   0  0  0  0  0  2  0  0  0  0  0  0
  192.6340  173.7170  140.8700 N   0  0  1  0  0  0  0  0  0  0  0  0
  191.2530  172.7520  138.2180 O   0  0  0  0  0  1  0  0  0  0  0  0
  191.1690  174.7450  142.5310 C   0  0  1  0  0  3  0  0  0  0  0  0
  186.9110  177.3610  141.7380 C   0  0  1  0  0  3  0  0  0  0  0  0
  188.5250  173.5450  139.9240 C   0  0  0  0  0  2  0  0  0  0  0  0
  192.6160  174.5240  142.0990 C   0  0  0  0  0  2  0  0  0  0  0  0
  190.4650  175.6120  145.6970 C   0  0  0  0  0  2  0  0  0  0  0  0
  190.4000  173.8250  141.6210 C   0  0  1  0  0  3  0  0  0  0  0  0
  189.9290  175.0110  144.5540 O   0  0  0  0  0  0  0  0  0  0  0  0
  191.0030  174.3250  143.9800 C   0  0  0  0  0  2  0  0  0  0  0  0
  188.9360  174.1610  141.2790 C   0  0  1  0  0  3  0  0  0  0  0  0
  190.3490  177.1280  145.6160 C   0  0  0  0  0  2  0  0  0  0  0  0
  184.9190  177.1590  143.0080 O   0  0  0  0  0  0  0  0  0  0  0  0
  191.2590  173.7640  140.3900 C   0  0  2  0  0  3  0  0  0  0  0  0
  188.6560  175.6580  141.2830 C   0  0  0  0  0  2  0  0  0  0  0  0
  193.4780  174.4240  139.9020 C   0  0  1  0  0  3  0  0  0  0  0  0
  194.9780  174.3480  140.2310 C   0  0  2  0  0  3  0  0  0  0  0  0
  194.3970  173.4780  139.1190 C   0  0  1  0  0  3  0  0  0  0  0  0
  194.2540  172.1440  139.5210 O   0  0  0  0  0  1  0  0  0  0  0  0
  195.2510  173.5740  141.4490 N   0  0  0  0  0  2  0  0  0  0  0  0
  196.5240  173.9880  142.0470 C   0  0  2  0  0  3  0  0  0  0  0  0
  197.9260  173.6930  140.9200 S   0  0  0  0  0  1  0  0  0  0  0  0
  196.7470  173.3230  143.3240 N   0  0  0  0  0  2  0  0  0  0  0  0
  195.7030  173.7690  144.2340 C   0  0  1  0  0  3  0  0  0  0  0  0
  195.1900  172.6040  145.0220 C   0  0  0  0  0  0  0  0  0  0  0  0
  194.0450  172.1300  144.7870 O   0  0  0  0  0  0  0  0  0  0  0  0
  195.9880  172.0310  146.0050 O   0  0  0  0  0  1  0  0  0  0  0  0
  196.2540  174.8390  145.1620 C   0  0  0  0  0  2  0  0  0  0  0  0
  195.2630  175.2500  146.0530 O   0  0  0  0  0  1  0  0  0  0  0  0
  186.1720  177.3210  139.4800 C   0  0  0  0  0  0  0  0  0  0  0  0
  186.2070  178.1130  140.6100 C   0  0  1  0  0  3  0  0  0  0  0  0
  186.7190  176.7880  138.4820 O   0  0  0  0  0  0  0  0  0  0  0  0
  184.9830  177.5460  140.3640 O   0  0  0  0  0  0  0  0  0  0  0  0
  186.3190  178.9660  144.9390 N   0  0  0  0  0  2  0  0  0  0  0  0
  185.2290  178.7250  145.8760 C   0  0  0  0  0  2  0  0  0  0  0  0
  185.5490  179.3860  147.2010 C   0  0  0  0  0  2  0  0  0  0  0  0
  187.3640  179.0290  148.7100 O   0  0  0  0  0  1  0  0  0  0  0  0
  186.2900  177.1390  147.9670 O   0  0  0  0  0  0  0  0  0  0  0  0
  186.4520  178.5180  148.0040 C   0  0  0  0  0  0  0  0  0  0  0  0
  1 12  1  0  0  0  0
  2  9  1  6  0  0  0
  2  1  1  0  0  0  0
  2 21  1  0  0  0  0
  3  6  1  0  0  0  0
  3  4  1  0  0  0  0
  5  6  1  0  0  0  0
  6 41  1  6  0  0  0
  8 13  1  1  0  0  0
 10 13  1  6  0  0  0
 10 17  1  0  0  0  0
 11  7  1  6  0  0  0
 11  5  1  0  0  0  0
 12 18  1  0  0  0  0
 15 10  1  0  0  0  0
 16 14  1  0  0  0  0
 17 16  1  0  0  0  0
 18 22  1  0  0  0  0
 18 15  1  0  0  0  0
 19  4  1  0  0  0  0
 19 14  1  0  0  0  0
 20  5  2  0  0  0  0
 21  8  1  0  0  0  0
 21 15  1  0  0  0  0
 22  7  1  0  0  0  0
 23 24  1  0  0  0  0
 23  8  1  0  0  0  0
 24 27  1  0  0  0  0
 25 26  1  0  0  0  0
 25 23  1  0  0  0  0
 25 24  1  0  0  0  0
 27 28  1  0  0  0  0
 28 30  1  0  0  0  0
 29 28  1  0  0  0  0
 30 31  1  0  0  0  0
 31 32  1  0  0  0  0
 31 35  1  0  0  0  0
 32 34  1  0  0  0  0
 33 32  2  0  0  0  0
 35 36  1  0  0  0  0
 37 40  1  0  0  0  0
 37 38  1  0  0  0  0
 38 11  1  0  0  0  0
 39 37  2  0  0  0  0
 40 38  1  0  0  0  0
 41 42  1  0  0  0  0
 42 43  1  0  0  0  0
 43 46  1  0  0  0  0
 45 46  2  0  0  0  0
 46 44  1  0  0  0  0
M  END
>  <MODEL>
7

>  <REMARK>
 VINA RESULT:      -6.0      1.703      2.127
  Name = 
  12 active torsions:
  status: ('A' for Active; 'I' for Inactive)
    1  A    between atoms: C_1  and  N_25
    2  A    between atoms: C_2  and  CA_14
    3  A    between atoms: C_12  and  N_32
    4  A    between atoms: C_12  and  N_33
    5  A    between atoms: N_13  and  C_17
    6  A    between atoms: N_13  and  C_23
    7  A    between atoms: CA_14  and  CB_22
    8  A    between atoms: CA_14  and  N_33
    9  A    between atoms: C_15  and  C_31
   10  A    between atoms: C_20  and  N_32
   11  A    between atoms: C_21  and  C_34
   12  A    between atoms: C_23  and  C_34
                            x       y       z     vdW  Elec       q    Type
                         _______ _______ _______ _____ _____    ______ ____

>  <TORSDO>
F 12

$$$$
=
 OpenBabel11062422523D

 46 50  0  0  1  0  0  0  0  0999 V2000
  194.8730  176.6240  145.2440 C   0  0  0  0  0  2  0  0  0  0  0  0
  195.2690  175.1320  145.2670 C   0  0  1  0  0  3  0  0  0  0  0  0
  188.3000  175.0640  142.7580 C   0  0  0  0  0  2  0  0  0  0  0  0
  188.1140  174.4560  141.3780 C   0  0  0  0  0  2  0  0  0  0  0  0
  188.0490  177.2580  144.0250 C   0  0  0  0  0  0  0  0  0  0  0  0
  187.6060  176.4240  142.8440 C   0  0  2  0  0  3  0  0  0  0  0  0
  190.3090  177.0360  145.0030 C   0  0  0  0  0  2  0  0  0  0  0  0
  194.5290  172.9420  144.2950 N   0  0  1  0  0  0  0  0  0  0  0  0
  195.7080  174.7900  146.5470 O   0  0  0  0  0  1  0  0  0  0  0  0
  192.5010  173.7450  143.1990 C   0  0  1  0  0  3  0  0  0  0  0  0
  188.8460  176.6500  145.1510 C   0  0  1  0  0  3  0  0  0  0  0  0
  193.3580  176.8370  145.4200 C   0  0  0  0  0  2  0  0  0  0  0  0
  193.4160  172.5430  143.4230 C   0  0  0  0  0  2  0  0  0  0  0  0
  190.3960  173.8020  140.5850 C   0  0  0  0  0  2  0  0  0  0  0  0
  193.2870  174.8840  143.7920 C   0  0  1  0  0  3  0  0  0  0  0  0
  191.0850  174.6180  141.4870 O   0  0  0  0  0  0  0  0  0  0  0  0
  192.2940  173.9540  141.7110 C   0  0  0  0  0  2  0  0  0  0  0  0
  192.5340  176.1130  144.3340 C   0  0  1  0  0  3  0  0  0  0  0  0
  189.0890  173.3090  141.1900 C   0  0  0  0  0  2  0  0  0  0  0  0
  187.7860  178.4550  144.0370 O   0  0  0  0  0  0  0  0  0  0  0  0
  194.1040  174.2160  144.8610 C   0  0  2  0  0  3  0  0  0  0  0  0
  191.1480  175.7710  144.8650 C   0  0  0  0  0  2  0  0  0  0  0  0
  194.5980  171.9620  145.3830 C   0  0  1  0  0  3  0  0  0  0  0  0
  195.1940  170.6120  144.9500 C   0  0  2  0  0  3  0  0  0  0  0  0
  196.0400  171.5950  145.7570 C   0  0  1  0  0  3  0  0  0  0  0  0
  196.9810  172.2530  144.9550 O   0  0  0  0  0  1  0  0  0  0  0  0
  195.5770  170.5910  143.5330 N   0  0  0  0  0  2  0  0  0  0  0  0
  195.8860  169.2240  143.1040 C   0  0  2  0  0  3  0  0  0  0  0  0
  197.5950  168.7540  143.5330 S   0  0  0  0  0  1  0  0  0  0  0  0
  195.6540  169.0550  141.6750 N   0  0  0  0  0  2  0  0  0  0  0  0
  195.5840  170.3840  141.0860 C   0  0  1  0  0  3  0  0  0  0  0  0
  196.8070  170.6320  140.2600 C   0  0  0  0  0  0  0  0  0  0  0  0
  197.3460  171.7720  140.2450 O   0  0  0  0  0  1  0  0  0  0  0  0
  197.3590  169.5950  139.5170 O   0  0  0  0  0  0  0  0  0  0  0  0
  194.3310  170.5040  140.2350 C   0  0  0  0  0  2  0  0  0  0  0  0
  194.2780  171.7670  139.6450 O   0  0  0  0  0  1  0  0  0  0  0  0
  186.9990  176.6780  146.6460 C   0  0  0  0  0  0  0  0  0  0  0  0
  188.3130  177.0790  146.5170 C   0  0  1  0  0  3  0  0  0  0  0  0
  185.7750  176.7870  146.3840 O   0  0  0  0  0  0  0  0  0  0  0  0
  188.1430  175.9790  147.3180 O   0  0  0  0  0  0  0  0  0  0  0  0
  186.1470  176.3080  142.7490 N   0  0  0  0  0  2  0  0  0  0  0  0
  185.5920  177.3490  141.8920 C   0  0  0  0  0  2  0  0  0  0  0  0
  184.4150  177.9990  142.5890 C   0  0  0  0  0  2  0  0  0  0  0  0
  182.1670  178.5520  142.0060 O   0  0  0  0  0  1  0  0  0  0  0  0
  183.6170  178.2650  140.2480 O   0  0  0  0  0  0  0  0  0  0  0  0
  183.3350  178.2900  141.6080 C   0  0  0  0  0  0  0  0  0  0  0  0
  1  2  1  0  0  0  0
  1 12  1  0  0  0  0
  2  9  1  1  0  0  0
  3  6  1  0  0  0  0
  4  3  1  0  0  0  0
  5 20  2  0  0  0  0
  5 11  1  0  0  0  0
  6 41  1  1  0  0  0
  6  5  1  0  0  0  0
  8 13  1  6  0  0  0
  8 21  1  0  0  0  0
  8 23  1  0  0  0  0
 10 17  1  6  0  0  0
 10 13  1  0  0  0  0
 10 15  1  0  0  0  0
 11  7  1  6  0  0  0
 11 38  1  0  0  0  0
 14 19  1  0  0  0  0
 14 16  1  0  0  0  0
 15 18  1  0  0  0  0
 15 21  1  0  0  0  0
 16 17  1  0  0  0  0
 18 22  1  0  0  0  0
 18 12  1  0  0  0  0
 19  4  1  0  0  0  0
 21  2  1  0  0  0  0
 22  7  1  0  0  0  0
 23 25  1  0  0  0  0
 24 23  1  0  0  0  0
 24 25  1  0  0  0  0
 26 25  1  0  0  0  0
 27 24  1  0  0  0  0
 28 27  1  0  0  0  0
 28 29  1  0  0  0  0
 30 28  1  0  0  0  0
 31 30  1  0  0  0  0
 32 31  1  0  0  0  0
 33 32  1  0  0  0  0
 34 32  2  0  0  0  0
 35 31  1  0  0  0  0
 36 35  1  0  0  0  0
 37 40  1  0  0  0  0
 38 37  1  0  0  0  0
 38 40  1  0  0  0  0
 39 37  2  0  0  0  0
 42 43  1  0  0  0  0
 42 41  1  0  0  0  0
 45 46  2  0  0  0  0
 46 44  1  0  0  0  0
 46 43  1  0  0  0  0
M  END
>  <MODEL>
8

>  <REMARK>
 VINA RESULT:      -6.0      3.006      5.801
  Name = 
  12 active torsions:
  status: ('A' for Active; 'I' for Inactive)
    1  A    between atoms: C_1  and  N_25
    2  A    between atoms: C_2  and  CA_14
    3  A    between atoms: C_12  and  N_32
    4  A    between atoms: C_12  and  N_33
    5  A    between atoms: N_13  and  C_17
    6  A    between atoms: N_13  and  C_23
    7  A    between atoms: CA_14  and  CB_22
    8  A    between atoms: CA_14  and  N_33
    9  A    between atoms: C_15  and  C_31
   10  A    between atoms: C_20  and  N_32
   11  A    between atoms: C_21  and  C_34
   12  A    between atoms: C_23  and  C_34
                            x       y       z     vdW  Elec       q    Type
                         _______ _______ _______ _____ _____    ______ ____

>  <TORSDO>
F 12

$$$$
=
 OpenBabel11062422523D

 46 50  0  0  1  0  0  0  0  0999 V2000
  193.3340  174.2000  146.1940 C   0  0  0  0  0  2  0  0  0  0  0  0
  192.1440  175.1770  146.0780 C   0  0  1  0  0  3  0  0  0  0  0  0
  193.1020  172.7390  139.1500 C   0  0  0  0  0  2  0  0  0  0  0  0
  191.9040  172.0300  138.5400 C   0  0  0  0  0  2  0  0  0  0  0  0
  195.5160  172.3380  139.8520 C   0  0  0  0  0  0  0  0  0  0  0  0
  194.3710  171.9060  138.9640 C   0  0  2  0  0  3  0  0  0  0  0  0
  195.1320  173.4100  142.0470 C   0  0  0  0  0  2  0  0  0  0  0  0
  190.2700  175.7300  144.5070 N   0  0  1  0  0  0  0  0  0  0  0  0
  192.5160  176.4200  146.5940 O   0  0  0  0  0  1  0  0  0  0  0  0
  190.9120  174.2230  142.6970 C   0  0  1  0  0  3  0  0  0  0  0  0
  195.4760  173.6540  140.5870 C   0  0  1  0  0  3  0  0  0  0  0  0
  194.1390  174.0890  144.8870 C   0  0  0  0  0  2  0  0  0  0  0  0
  189.8630  175.2150  143.1920 C   0  0  0  0  0  2  0  0  0  0  0  0
  190.1350  171.9930  140.3110 C   0  0  0  0  0  2  0  0  0  0  0  0
  191.7940  174.0340  143.9020 C   0  0  1  0  0  3  0  0  0  0  0  0
  191.0110  172.2390  141.3730 O   0  0  0  0  0  0  0  0  0  0  0  0
  190.2370  172.9180  142.3180 C   0  0  0  0  0  2  0  0  0  0  0  0
  193.2680  173.6320  143.6970 C   0  0  1  0  0  3  0  0  0  0  0  0
  190.6240  172.6720  139.0390 C   0  0  0  0  0  2  0  0  0  0  0  0
  196.4690  171.5820  140.0020 O   0  0  0  0  0  0  0  0  0  0  0  0
  191.6700  175.3440  144.6260 C   0  0  2  0  0  3  0  0  0  0  0  0
  193.8470  174.1540  142.3890 C   0  0  0  0  0  2  0  0  0  0  0  0
  190.2060  177.1930  144.4370 C   0  0  1  0  0  3  0  0  0  0  0  0
  188.7710  177.7420  144.4740 C   0  0  2  0  0  3  0  0  0  0  0  0
  189.6490  177.8210  145.7200 C   0  0  1  0  0  3  0  0  0  0  0  0
  189.2900  176.8580  146.6720 O   0  0  0  0  0  1  0  0  0  0  0  0
  187.7620  176.6810  144.5780 N   0  0  0  0  0  2  0  0  0  0  0  0
  186.4120  177.2550  144.6030 C   0  0  2  0  0  3  0  0  0  0  0  0
  185.5100  176.7900  146.1170 S   0  0  0  0  0  1  0  0  0  0  0  0
  185.6550  176.8700  143.4190 N   0  0  0  0  0  2  0  0  0  0  0  0
  185.3750  178.0850  142.6680 C   0  0  1  0  0  3  0  0  0  0  0  0
  186.0010  177.9930  141.3120 C   0  0  0  0  0  0  0  0  0  0  0  0
  187.2540  177.9100  141.1920 O   0  0  0  0  0  1  0  0  0  0  0  0
  185.1960  177.9830  140.1790 O   0  0  0  0  0  0  0  0  0  0  0  0
  183.8730  178.2820  142.5510 C   0  0  0  0  0  2  0  0  0  0  0  0
  183.4070  179.0260  143.6340 O   0  0  0  0  0  1  0  0  0  0  0  0
  196.7030  175.6160  141.1290 C   0  0  0  0  0  0  0  0  0  0  0  0
  196.7990  174.4100  140.4670 C   0  0  1  0  0  3  0  0  0  0  0  0
  196.2920  176.8000  141.2240 O   0  0  0  0  0  0  0  0  0  0  0  0
  197.4370  174.4310  141.6800 O   0  0  0  0  0  0  0  0  0  0  0  0
  194.7590  171.7930  137.5550 N   0  0  0  0  0  2  0  0  0  0  0  0
  195.8440  172.7120  137.2330 C   0  0  0  0  0  2  0  0  0  0  0  0
  195.3710  173.7050  136.1920 C   0  0  0  0  0  2  0  0  0  0  0  0
  194.1850  175.6780  136.8240 O   0  0  0  0  0  0  0  0  0  0  0  0
  196.4360  175.6690  137.2850 O   0  0  0  0  0  1  0  0  0  0  0  0
  195.2890  175.0680  136.7830 C   0  0  0  0  0  0  0  0  0  0  0  0
  2  1  1  0  0  0  0
  2  9  1  6  0  0  0
  4 19  1  0  0  0  0
  4  3  1  0  0  0  0
  5 20  2  0  0  0  0
  5 11  1  0  0  0  0
  6 41  1  6  0  0  0
  6  3  1  0  0  0  0
  6  5  1  0  0  0  0
  7 22  1  0  0  0  0
  8 13  1  6  0  0  0
  8 21  1  0  0  0  0
 10 17  1  1  0  0  0
 10 13  1  0  0  0  0
 10 15  1  0  0  0  0
 11  7  1  1  0  0  0
 12  1  1  0  0  0  0
 14 16  1  0  0  0  0
 15 21  1  0  0  0  0
 16 17  1  0  0  0  0
 18 15  1  0  0  0  0
 18 12  1  0  0  0  0
 19 14  1  0  0  0  0
 21  2  1  0  0  0  0
 22 18  1  0  0  0  0
 23 24  1  0  0  0  0
 23  8  1  0  0  0  0
 23 25  1  0  0  0  0
 24 27  1  0  0  0  0
 24 25  1  0  0  0  0
 25 26  1  0  0  0  0
 27 28  1  0  0  0  0
 28 29  1  0  0  0  0
 30 28  1  0  0  0  0
 31 30  1  0  0  0  0
 32 31  1  0  0  0  0
 33 32  1  0  0  0  0
 34 32  2  0  0  0  0
 35 31  1  0  0  0  0
 35 36  1  0  0  0  0
 37 39  2  0  0  0  0
 37 40  1  0  0  0  0
 38 11  1  0  0  0  0
 38 37  1  0  0  0  0
 38 40  1  0  0  0  0
 42 41  1  0  0  0  0
 43 46  1  0  0  0  0
 43 42  1  0  0  0  0
 46 44  2  0  0  0  0
 46 45  1  0  0  0  0
M  END
>  <MODEL>
9

>  <REMARK>
 VINA RESULT:      -5.9      3.155     10.171
  Name = 
  12 active torsions:
  status: ('A' for Active; 'I' for Inactive)
    1  A    between atoms: C_1  and  N_25
    2  A    between atoms: C_2  and  CA_14
    3  A    between atoms: C_12  and  N_32
    4  A    between atoms: C_12  and  N_33
    5  A    between atoms: N_13  and  C_17
    6  A    between atoms: N_13  and  C_23
    7  A    between atoms: CA_14  and  CB_22
    8  A    between atoms: CA_14  and  N_33
    9  A    between atoms: C_15  and  C_31
   10  A    between atoms: C_20  and  N_32
   11  A    between atoms: C_21  and  C_34
   12  A    between atoms: C_23  and  C_34
                            x       y       z     vdW  Elec       q    Type
                         _______ _______ _______ _____ _____    ______ ____

>  <TORSDO>
F 12

$$$$
