=
 OpenBabel11062420483D

 45 49  0  0  1  0  0  0  0  0999 V2000
  190.7320  174.8010  145.5450 O   0  0  0  0  0  0  0  0  0  0  0  0
  194.2190  173.5590  145.5170 C   0  0  0  0  0  3  0  0  0  0  0  0
  192.2010  177.2670  147.7300 O   0  0  0  0  0  0  0  0  0  0  0  0
  191.7240  172.8910  144.4070 C   0  0  0  0  0  0  0  0  0  0  0  0
  191.8470  174.0040  145.2600 C   0  0  0  0  0  0  0  0  0  0  0  0
  193.2200  175.4860  146.6420 N   0  0  0  0  0  2  0  0  0  0  0  0
  194.0980  172.4440  144.6860 C   0  0  0  0  0  3  0  0  0  0  0  0
  192.0670  176.2440  147.0070 C   0  0  0  0  0  0  0  0  0  0  0  0
  192.8590  172.0990  144.1340 C   0  0  0  0  0  0  0  0  0  0  0  0
  190.6920  175.7560  146.6160 C   0  0  1  0  0  3  0  0  0  0  0  0
  193.0960  174.3340  145.8100 C   0  0  0  0  0  0  0  0  0  0  0  0
  189.9820  177.6820  145.0350 C   0  0  0  0  0  2  0  0  0  0  0  0
  189.3010  177.7020  147.3690 O   0  0  0  0  0  1  0  0  0  0  0  0
  189.7240  176.9030  146.3040 C   0  0  2  0  0  0  0  0  0  0  0  0
  188.7710  176.7570  145.1230 C   0  0  1  0  0  3  0  0  0  0  0  0
  187.4930  177.5740  145.3040 C   0  0  2  0  0  3  0  0  0  0  0  0
  186.5840  176.9600  146.2140 O   0  0  0  0  0  0  0  0  0  0  0  0
  186.1010  179.3360  146.6970 C   0  0  0  0  0  1  0  0  0  0  0  0
  185.7810  177.8670  146.9640 C   0  0  2  0  0  0  0  0  0  0  0  0
  185.8960  177.6080  148.3320 O   0  0  0  0  0  1  0  0  0  0  0  0
  183.7160  178.8300  146.2280 F   0  0  0  0  0  0  0  0  0  0  0  0
  184.3280  177.6370  146.5740 C   0  0  0  0  0  2  0  0  0  0  0  0
  186.9130  177.9140  144.0730 O   0  0  0  0  0  0  0  0  0  0  0  0
  186.2400  176.8340  143.7070 O   0  0  0  0  0  0  0  0  0  0  0  0
  186.0270  176.9180  142.3140 C   0  0  1  0  0  3  0  0  0  0  0  0
  184.8720  177.8580  141.9790 C   0  0  0  0  0  2  0  0  0  0  0  0
  185.0340  178.4180  140.5770 C   0  0  0  0  0  1  0  0  0  0  0  0
  187.3000  177.2910  141.5560 C   0  0  0  0  0  2  0  0  0  0  0  0
  187.8260  176.1490  140.8950 O   0  0  0  0  0  0  0  0  0  0  0  0
  188.5480  175.1730  141.5850 C   0  0  0  0  0  3  0  0  0  0  0  0
  189.7620  175.3450  141.8770 O   0  0  0  0  0  0  0  0  0  0  0  0
  189.5010  171.8930  144.8610 C   0  0  0  0  0  1  0  0  0  0  0  0
  190.3860  172.5510  143.8170 C   0  0  0  0  0  2  0  0  0  0  0  0
  192.7840  170.8830  143.2630 C   0  0  0  0  0  2  0  0  0  0  0  0
  193.1760  171.2120  141.8920 N   0  0  0  0  0  2  0  0  0  0  0  0
  190.2910  173.6410  138.5900 C   0  0  0  0  0  2  0  0  0  0  0  0
  190.8310  171.3480  138.3440 C   0  0  2  0  0  3  0  0  0  0  0  0
  189.7360  173.0640  136.9480 S   0  0  0  0  0  0  0  0  0  0  0  0
  192.0270  171.1490  140.9810 C   0  0  2  0  0  3  0  0  0  0  0  0
  190.5320  172.3970  139.3900 C   0  0  2  0  0  0  0  0  0  0  0  0
  192.1820  170.0210  139.9420 C   0  0  0  0  0  2  0  0  0  0  0  0
  189.3710  172.0790  140.1030 O   0  0  0  0  0  1  0  0  0  0  0  0
  189.8150  171.3920  137.3910 O   0  0  0  0  0  0  0  0  0  0  0  0
  190.9910  169.9740  138.9820 C   0  0  0  0  0  2  0  0  0  0  0  0
  191.7190  172.5200  140.3410 C   0  0  0  0  0  2  0  0  0  0  0  0
  2 11  1  0  0  0  0
  4  5  1  0  0  0  0
  5  1  1  0  0  0  0
  5 11  2  0  0  0  0
  6  8  1  0  0  0  0
  7  2  2  0  0  0  0
  8  3  2  0  0  0  0
  9  4  2  0  0  0  0
  9  7  1  0  0  0  0
 10  1  1  6  0  0  0
 10  8  1  0  0  0  0
 11  6  1  0  0  0  0
 12 15  1  0  0  0  0
 12 14  1  0  0  0  0
 14 10  1  0  0  0  0
 14 13  1  1  0  0  0
 15 16  1  1  0  0  0
 15 14  1  0  0  0  0
 16 23  1  6  0  0  0
 16 17  1  0  0  0  0
 17 19  1  0  0  0  0
 19 18  1  6  0  0  0
 19 20  1  0  0  0  0
 21 22  1  0  0  0  0
 22 19  1  0  0  0  0
 24 23  1  0  0  0  0
 25 28  1  6  0  0  0
 25 24  1  0  0  0  0
 26 25  1  0  0  0  0
 27 26  1  0  0  0  0
 29 28  1  0  0  0  0
 29 30  1  0  0  0  0
 30 31  2  0  0  0  0
 33  4  1  0  0  0  0
 33 32  1  0  0  0  0
 34  9  1  0  0  0  0
 35 34  1  0  0  0  0
 36 40  1  0  0  0  0
 37 44  1  1  0  0  0
 37 40  1  0  0  0  0
 38 43  1  0  0  0  0
 38 36  1  0  0  0  0
 39 35  1  6  0  0  0
 40 42  1  1  0  0  0
 40 45  1  0  0  0  0
 41 39  1  0  0  0  0
 43 37  1  0  0  0  0
 44 41  1  0  0  0  0
 45 39  1  0  0  0  0
M  END
>  <MODEL>
1

>  <REMARK>
 VINA RESULT:      -6.3      0.000      0.000
  Name = 
  16 active torsions:
  status: ('A' for Active; 'I' for Inactive)
    1  A    between atoms: C_2  and  C_3
    2  A    between atoms: C_3  and  O_18
    3  A    between atoms: C_3  and  C_39
    4  A    between atoms: C_8  and  C_35
    5  A    between atoms: O_11  and  C_29
    6  A    between atoms: O_11  and  C_39
    7  A    between atoms: O_13  and  O_18
    8  A    between atoms: O_13  and  C_40
    9  A    between atoms: O_16  and  C_25
   10  A    between atoms: O_16  and  C_40
   11  A    between atoms: C_19  and  C_23
   12  A    between atoms: C_20  and  N_38
   13  A    between atoms: C_21  and  C_40
   14  A    between atoms: C_22  and  C_25
   15  A    between atoms: C_28  and  C_32
   16  A    between atoms: C_28  and  N_38
                            x       y       z     vdW  Elec       q    Type
                         _______ _______ _______ _____ _____    ______ ____

>  <TORSDO>
F 16

$$$$
=
 OpenBabel11062420483D

 45 49  0  0  1  0  0  0  0  0999 V2000
  191.3050  173.0810  143.2110 O   0  0  0  0  0  0  0  0  0  0  0  0
  188.4680  173.8790  140.9720 C   0  0  0  0  0  3  0  0  0  0  0  0
  190.6680  169.7640  141.9420 O   0  0  0  0  0  0  0  0  0  0  0  0
  190.2000  175.2000  142.7500 C   0  0  0  0  0  0  0  0  0  0  0  0
  190.3140  173.8120  142.5460 C   0  0  0  0  0  0  0  0  0  0  0  0
  189.5950  171.7580  141.4250 N   0  0  0  0  0  2  0  0  0  0  0  0
  188.3400  175.2530  141.1840 C   0  0  0  0  0  3  0  0  0  0  0  0
  190.5440  170.9970  142.1720 C   0  0  0  0  0  0  0  0  0  0  0  0
  189.1920  175.9190  142.0730 C   0  0  0  0  0  0  0  0  0  0  0  0
  191.3100  171.6480  143.2990 C   0  0  1  0  0  3  0  0  0  0  0  0
  189.4470  173.1580  141.6560 C   0  0  0  0  0  0  0  0  0  0  0  0
  193.7460  171.5810  142.4200 C   0  0  0  0  0  2  0  0  0  0  0  0
  192.8850  169.7550  143.7770 O   0  0  0  0  0  1  0  0  0  0  0  0
  192.7360  171.1030  143.4380 C   0  0  2  0  0  0  0  0  0  0  0  0
  193.8460  172.0540  143.8680 C   0  0  1  0  0  3  0  0  0  0  0  0
  194.9850  171.3320  144.5840 C   0  0  2  0  0  3  0  0  0  0  0  0
  194.5860  170.8200  145.8540 O   0  0  0  0  0  0  0  0  0  0  0  0
  194.4960  168.7260  147.1650 C   0  0  0  0  0  1  0  0  0  0  0  0
  195.3150  169.6780  146.2960 C   0  0  2  0  0  0  0  0  0  0  0  0
  196.4640  170.0680  146.9880 O   0  0  0  0  0  1  0  0  0  0  0  0
  197.1430  168.8220  145.0080 F   0  0  0  0  0  0  0  0  0  0  0  0
  195.7610  168.9040  145.0640 C   0  0  0  0  0  2  0  0  0  0  0  0
  196.1490  172.1140  144.6330 O   0  0  0  0  0  0  0  0  0  0  0  0
  195.8380  173.1350  145.4170 O   0  0  0  0  0  0  0  0  0  0  0  0
  196.4820  174.2800  144.9000 C   0  0  1  0  0  3  0  0  0  0  0  0
  196.9830  174.0460  143.4770 C   0  0  0  0  0  2  0  0  0  0  0  0
  196.1200  174.8000  142.4810 C   0  0  0  0  0  1  0  0  0  0  0  0
  195.6070  175.5280  144.9960 C   0  0  0  0  0  2  0  0  0  0  0  0
  195.0190  175.6130  146.2860 O   0  0  0  0  0  0  0  0  0  0  0  0
  193.6430  175.7820  146.4520 C   0  0  0  0  0  3  0  0  0  0  0  0
  192.8820  174.7930  146.6340 O   0  0  0  0  0  0  0  0  0  0  0  0
  192.4140  176.2890  142.9830 C   0  0  0  0  0  1  0  0  0  0  0  0
  191.1360  175.8920  143.6990 C   0  0  0  0  0  2  0  0  0  0  0  0
  188.9990  177.3900  142.2750 C   0  0  0  0  0  2  0  0  0  0  0  0
  187.6430  177.7850  141.8930 N   0  0  0  0  0  2  0  0  0  0  0  0
  187.2410  177.5290  146.8830 C   0  0  0  0  0  2  0  0  0  0  0  0
  185.9100  178.9960  145.5850 C   0  0  2  0  0  3  0  0  0  0  0  0
  186.3290  178.6550  147.9940 S   0  0  0  0  0  0  0  0  0  0  0  0
  186.7560  177.8410  143.0610 C   0  0  2  0  0  3  0  0  0  0  0  0
  186.5480  177.6260  145.5580 C   0  0  2  0  0  0  0  0  0  0  0  0
  185.9630  179.1610  143.1140 C   0  0  0  0  0  2  0  0  0  0  0  0
  185.5780  176.6220  145.4730 O   0  0  0  0  0  1  0  0  0  0  0  0
  185.1880  179.1080  146.7720 O   0  0  0  0  0  0  0  0  0  0  0  0
  185.0560  179.2230  144.3440 C   0  0  0  0  0  2  0  0  0  0  0  0
  187.5080  177.5360  144.3740 C   0  0  0  0  0  2  0  0  0  0  0  0
  1 10  1  0  0  0  0
  2  7  2  0  0  0  0
  2 11  1  0  0  0  0
  3  8  2  0  0  0  0
  4 33  1  0  0  0  0
  5  4  1  0  0  0  0
  5  1  1  0  0  0  0
  6 11  1  0  0  0  0
  6  8  1  0  0  0  0
  7  9  1  0  0  0  0
  9 34  1  0  0  0  0
  9  4  2  0  0  0  0
 10  8  1  6  0  0  0
 10 14  1  0  0  0  0
 11  5  2  0  0  0  0
 12 14  1  0  0  0  0
 12 15  1  0  0  0  0
 14 13  1  1  0  0  0
 14 15  1  0  0  0  0
 15 16  1  1  0  0  0
 16 23  1  1  0  0  0
 16 17  1  0  0  0  0
 17 19  1  0  0  0  0
 19 20  1  0  0  0  0
 19 18  1  1  0  0  0
 21 22  1  0  0  0  0
 22 19  1  0  0  0  0
 23 24  1  0  0  0  0
 25 26  1  6  0  0  0
 25 28  1  0  0  0  0
 25 24  1  0  0  0  0
 27 26  1  0  0  0  0
 28 29  1  0  0  0  0
 29 30  1  0  0  0  0
 30 31  2  0  0  0  0
 32 33  1  0  0  0  0
 35 34  1  0  0  0  0
 36 38  1  0  0  0  0
 37 44  1  6  0  0  0
 37 43  1  0  0  0  0
 39 35  1  6  0  0  0
 39 41  1  0  0  0  0
 39 45  1  0  0  0  0
 40 42  1  6  0  0  0
 40 37  1  0  0  0  0
 40 36  1  0  0  0  0
 41 44  1  0  0  0  0
 43 38  1  0  0  0  0
 45 40  1  0  0  0  0
M  END
>  <MODEL>
2

>  <REMARK>
 VINA RESULT:      -6.0      4.480      9.519
  Name = 
  16 active torsions:
  status: ('A' for Active; 'I' for Inactive)
    1  A    between atoms: C_2  and  C_3
    2  A    between atoms: C_3  and  O_18
    3  A    between atoms: C_3  and  C_39
    4  A    between atoms: C_8  and  C_35
    5  A    between atoms: O_11  and  C_29
    6  A    between atoms: O_11  and  C_39
    7  A    between atoms: O_13  and  O_18
    8  A    between atoms: O_13  and  C_40
    9  A    between atoms: O_16  and  C_25
   10  A    between atoms: O_16  and  C_40
   11  A    between atoms: C_19  and  C_23
   12  A    between atoms: C_20  and  N_38
   13  A    between atoms: C_21  and  C_40
   14  A    between atoms: C_22  and  C_25
   15  A    between atoms: C_28  and  C_32
   16  A    between atoms: C_28  and  N_38
                            x       y       z     vdW  Elec       q    Type
                         _______ _______ _______ _____ _____    ______ ____

>  <TORSDO>
F 16

$$$$
=
 OpenBabel11062420483D

 45 49  0  0  1  0  0  0  0  0999 V2000
  190.4100  174.4890  145.4240 O   0  0  0  0  0  0  0  0  0  0  0  0
  193.8110  173.0290  145.4200 C   0  0  0  0  0  3  0  0  0  0  0  0
  192.0400  176.9140  147.5390 O   0  0  0  0  0  0  0  0  0  0  0  0
  191.2740  172.4910  144.3350 C   0  0  0  0  0  0  0  0  0  0  0  0
  191.4710  173.6150  145.1570 C   0  0  0  0  0  0  0  0  0  0  0  0
  192.9410  175.0440  146.4960 N   0  0  0  0  0  2  0  0  0  0  0  0
  193.6170  171.9020  144.6190 C   0  0  0  0  0  3  0  0  0  0  0  0
  191.8390  175.8820  146.8430 C   0  0  0  0  0  0  0  0  0  0  0  0
  192.3560  171.6210  144.0800 C   0  0  0  0  0  0  0  0  0  0  0  0
  190.4350  175.4720  146.4690 C   0  0  1  0  0  3  0  0  0  0  0  0
  192.7410  173.8800  145.6950 C   0  0  0  0  0  0  0  0  0  0  0  0
  189.8400  177.3960  144.8380 C   0  0  0  0  0  2  0  0  0  0  0  0
  189.1730  177.5230  147.1740 O   0  0  0  0  0  1  0  0  0  0  0  0
  189.5390  176.6690  146.1300 C   0  0  2  0  0  0  0  0  0  0  0  0
  188.5730  176.5520  144.9570 C   0  0  1  0  0  3  0  0  0  0  0  0
  187.3510  177.4530  145.1190 C   0  0  2  0  0  3  0  0  0  0  0  0
  186.6490  177.1980  146.3340 O   0  0  0  0  0  0  0  0  0  0  0  0
  184.2860  177.9100  146.4850 C   0  0  0  0  0  1  0  0  0  0  0  0
  185.7560  178.2320  146.7410 C   0  0  2  0  0  0  0  0  0  0  0  0
  186.0840  179.4370  146.1130 O   0  0  0  0  0  1  0  0  0  0  0  0
  187.0270  179.2340  148.5050 F   0  0  0  0  0  0  0  0  0  0  0  0
  185.9280  178.4340  148.2390 C   0  0  0  0  0  2  0  0  0  0  0  0
  186.5310  177.4310  143.9810 O   0  0  0  0  0  0  0  0  0  0  0  0
  187.0240  178.3720  143.1910 O   0  0  0  0  0  0  0  0  0  0  0  0
  186.4090  178.2320  141.9280 C   0  0  1  0  0  3  0  0  0  0  0  0
  187.3370  177.5530  140.9250 C   0  0  0  0  0  2  0  0  0  0  0  0
  186.6250  177.3460  139.6000 C   0  0  0  0  0  1  0  0  0  0  0  0
  185.0570  177.5260  142.0190 C   0  0  0  0  0  2  0  0  0  0  0  0
  184.0100  178.4380  141.7220 O   0  0  0  0  0  0  0  0  0  0  0  0
  183.2180  178.2950  140.5800 C   0  0  0  0  0  3  0  0  0  0  0  0
  181.9740  178.4930  140.6210 O   0  0  0  0  0  0  0  0  0  0  0  0
  189.6300  173.1710  142.6090 C   0  0  0  0  0  1  0  0  0  0  0  0
  189.9150  172.2200  143.7580 C   0  0  0  0  0  2  0  0  0  0  0  0
  192.2010  170.3900  143.2420 C   0  0  0  0  0  2  0  0  0  0  0  0
  193.0070  170.4940  142.0260 N   0  0  0  0  0  2  0  0  0  0  0  0
  194.5710  174.4080  139.3120 C   0  0  0  0  0  2  0  0  0  0  0  0
  192.6000  173.2090  138.7750 C   0  0  2  0  0  3  0  0  0  0  0  0
  193.9520  174.9650  137.6860 S   0  0  0  0  0  0  0  0  0  0  0  0
  192.6320  171.6740  141.2380 C   0  0  2  0  0  3  0  0  0  0  0  0
  193.4240  173.6830  139.9490 C   0  0  2  0  0  0  0  0  0  0  0  0
  191.6870  171.3090  140.0770 C   0  0  0  0  0  2  0  0  0  0  0  0
  192.6990  174.5790  140.7420 O   0  0  0  0  0  1  0  0  0  0  0  0
  192.3720  174.3030  137.9420 O   0  0  0  0  0  0  0  0  0  0  0  0
  191.3160  172.5390  139.2460 C   0  0  0  0  0  2  0  0  0  0  0  0
  193.8660  172.4810  140.7800 C   0  0  0  0  0  2  0  0  0  0  0  0
  2 11  1  0  0  0  0
  4  5  1  0  0  0  0
  5  1  1  0  0  0  0
  5 11  2  0  0  0  0
  6  8  1  0  0  0  0
  7  2  2  0  0  0  0
  8  3  2  0  0  0  0
  9  4  2  0  0  0  0
  9  7  1  0  0  0  0
 10  1  1  6  0  0  0
 10  8  1  0  0  0  0
 11  6  1  0  0  0  0
 12 15  1  0  0  0  0
 12 14  1  0  0  0  0
 14 10  1  0  0  0  0
 14 13  1  1  0  0  0
 15 16  1  1  0  0  0
 15 14  1  0  0  0  0
 16 23  1  6  0  0  0
 16 17  1  0  0  0  0
 17 19  1  0  0  0  0
 19 18  1  6  0  0  0
 19 22  1  0  0  0  0
 20 19  1  0  0  0  0
 22 21  1  0  0  0  0
 24 23  1  0  0  0  0
 25 26  1  6  0  0  0
 25 28  1  0  0  0  0
 25 24  1  0  0  0  0
 27 26  1  0  0  0  0
 29 28  1  0  0  0  0
 30 31  2  0  0  0  0
 30 29  1  0  0  0  0
 32 33  1  0  0  0  0
 33  4  1  0  0  0  0
 34  9  1  0  0  0  0
 35 34  1  0  0  0  0
 36 40  1  0  0  0  0
 37 44  1  1  0  0  0
 37 40  1  0  0  0  0
 38 43  1  0  0  0  0
 38 36  1  0  0  0  0
 39 35  1  6  0  0  0
 40 42  1  1  0  0  0
 40 45  1  0  0  0  0
 41 39  1  0  0  0  0
 43 37  1  0  0  0  0
 44 41  1  0  0  0  0
 45 39  1  0  0  0  0
M  END
>  <MODEL>
3

>  <REMARK>
 VINA RESULT:      -5.9      1.898      2.620
  Name = 
  16 active torsions:
  status: ('A' for Active; 'I' for Inactive)
    1  A    between atoms: C_2  and  C_3
    2  A    between atoms: C_3  and  O_18
    3  A    between atoms: C_3  and  C_39
    4  A    between atoms: C_8  and  C_35
    5  A    between atoms: O_11  and  C_29
    6  A    between atoms: O_11  and  C_39
    7  A    between atoms: O_13  and  O_18
    8  A    between atoms: O_13  and  C_40
    9  A    between atoms: O_16  and  C_25
   10  A    between atoms: O_16  and  C_40
   11  A    between atoms: C_19  and  C_23
   12  A    between atoms: C_20  and  N_38
   13  A    between atoms: C_21  and  C_40
   14  A    between atoms: C_22  and  C_25
   15  A    between atoms: C_28  and  C_32
   16  A    between atoms: C_28  and  N_38
                            x       y       z     vdW  Elec       q    Type
                         _______ _______ _______ _____ _____    ______ ____

>  <TORSDO>
F 16

$$$$
=
 OpenBabel11062420483D

 45 49  0  0  1  0  0  0  0  0999 V2000
  192.4410  175.2170  144.0750 O   0  0  0  0  0  0  0  0  0  0  0  0
  191.6770  176.1930  147.5620 C   0  0  0  0  0  3  0  0  0  0  0  0
  195.8070  175.2700  145.3700 O   0  0  0  0  0  0  0  0  0  0  0  0
  190.3130  175.6930  145.1560 C   0  0  0  0  0  0  0  0  0  0  0  0
  191.7150  175.5910  145.2120 C   0  0  0  0  0  0  0  0  0  0  0  0
  193.8090  175.6970  146.4750 N   0  0  0  0  0  2  0  0  0  0  0  0
  190.2870  176.3130  147.5070 C   0  0  0  0  0  3  0  0  0  0  0  0
  194.5570  175.4070  145.2930 C   0  0  0  0  0  0  0  0  0  0  0  0
  189.5990  176.0730  146.3130 C   0  0  0  0  0  0  0  0  0  0  0  0
  193.8620  175.3750  143.9530 C   0  0  1  0  0  3  0  0  0  0  0  0
  192.3910  175.8400  146.4170 C   0  0  0  0  0  0  0  0  0  0  0  0
  194.3120  172.8830  143.4060 C   0  0  0  0  0  2  0  0  0  0  0  0
  195.6950  174.6210  142.4150 O   0  0  0  0  0  1  0  0  0  0  0  0
  194.4600  174.3320  143.0020 C   0  0  2  0  0  0  0  0  0  0  0  0
  193.5150  173.4250  142.2220 C   0  0  1  0  0  3  0  0  0  0  0  0
  194.1260  172.9430  140.9080 C   0  0  2  0  0  3  0  0  0  0  0  0
  194.2870  174.0020  139.9660 O   0  0  0  0  0  0  0  0  0  0  0  0
  196.0960  175.0870  138.6780 C   0  0  0  0  0  1  0  0  0  0  0  0
  195.3340  173.8090  139.0200 C   0  0  2  0  0  0  0  0  0  0  0  0
  194.8350  173.2370  137.8460 O   0  0  0  0  0  1  0  0  0  0  0  0
  196.4360  171.6910  138.8360 F   0  0  0  0  0  0  0  0  0  0  0  0
  196.3310  172.8280  139.6200 C   0  0  0  0  0  2  0  0  0  0  0  0
  193.4440  171.8310  140.3930 O   0  0  0  0  0  0  0  0  0  0  0  0
  192.2620  172.3000  140.0240 O   0  0  0  0  0  0  0  0  0  0  0  0
  191.3460  171.2260  140.0650 C   0  0  1  0  0  3  0  0  0  0  0  0
  191.1430  170.7180  141.4890 C   0  0  0  0  0  2  0  0  0  0  0  0
  190.8430  169.2290  141.4830 C   0  0  0  0  0  1  0  0  0  0  0  0
  190.0190  171.5730  139.3900 C   0  0  0  0  0  2  0  0  0  0  0  0
  189.2420  172.4010  140.2420 O   0  0  0  0  0  0  0  0  0  0  0  0
  188.8450  173.6820  139.8520 C   0  0  0  0  0  3  0  0  0  0  0  0
  188.2760  173.8790  138.7450 O   0  0  0  0  0  0  0  0  0  0  0  0
  189.4940  173.9200  143.6290 C   0  0  0  0  0  1  0  0  0  0  0  0
  189.5970  175.4160  143.8650 C   0  0  0  0  0  2  0  0  0  0  0  0
  188.1100  176.2320  146.3060 C   0  0  0  0  0  2  0  0  0  0  0  0
  187.7330  177.5380  146.8480 N   0  0  0  0  0  2  0  0  0  0  0  0
  186.0140  178.4060  142.2190 C   0  0  0  0  0  2  0  0  0  0  0  0
  184.5630  178.1020  144.0660 C   0  0  2  0  0  3  0  0  0  0  0  0
  184.2950  178.2720  141.6180 S   0  0  0  0  0  0  0  0  0  0  0  0
  186.7120  178.1840  146.0150 C   0  0  2  0  0  3  0  0  0  0  0  0
  185.9040  178.6870  143.6870 C   0  0  2  0  0  0  0  0  0  0  0  0
  185.2890  177.7410  146.4070 C   0  0  0  0  0  2  0  0  0  0  0  0
  185.9230  180.0710  143.8910 O   0  0  0  0  0  1  0  0  0  0  0  0
  183.6120  178.5980  143.1760 O   0  0  0  0  0  0  0  0  0  0  0  0
  184.2310  178.4020  145.5220 C   0  0  0  0  0  2  0  0  0  0  0  0
  187.0020  178.0160  144.5080 C   0  0  0  0  0  2  0  0  0  0  0  0
  1  5  1  0  0  0  0
  4  5  2  0  0  0  0
  4  9  1  0  0  0  0
  5 11  1  0  0  0  0
  7  2  1  0  0  0  0
  8  3  2  0  0  0  0
  8  6  1  0  0  0  0
  9  7  2  0  0  0  0
 10  1  1  1  0  0  0
 10  8  1  0  0  0  0
 11  6  1  0  0  0  0
 11  2  2  0  0  0  0
 14 13  1  6  0  0  0
 14 12  1  0  0  0  0
 14 10  1  0  0  0  0
 15 16  1  6  0  0  0
 15 14  1  0  0  0  0
 15 12  1  0  0  0  0
 16 17  1  6  0  0  0
 19 18  1  6  0  0  0
 19 22  1  0  0  0  0
 19 17  1  0  0  0  0
 20 19  1  0  0  0  0
 21 22  1  0  0  0  0
 23 16  1  0  0  0  0
 24 25  1  0  0  0  0
 24 23  1  0  0  0  0
 25 28  1  1  0  0  0
 25 26  1  0  0  0  0
 27 26  1  0  0  0  0
 28 29  1  0  0  0  0
 30 29  1  0  0  0  0
 31 30  2  0  0  0  0
 32 33  1  0  0  0  0
 33  4  1  0  0  0  0
 34  9  1  0  0  0  0
 34 35  1  0  0  0  0
 36 40  1  0  0  0  0
 37 44  1  1  0  0  0
 38 36  1  0  0  0  0
 38 43  1  0  0  0  0
 39 41  1  0  0  0  0
 39 35  1  1  0  0  0
 40 42  1  1  0  0  0
 40 37  1  0  0  0  0
 40 45  1  0  0  0  0
 43 37  1  0  0  0  0
 44 41  1  0  0  0  0
 45 39  1  0  0  0  0
M  END
>  <MODEL>
4

>  <REMARK>
 VINA RESULT:      -5.8      3.904      8.575
  Name = 
  16 active torsions:
  status: ('A' for Active; 'I' for Inactive)
    1  A    between atoms: C_2  and  C_3
    2  A    between atoms: C_3  and  O_18
    3  A    between atoms: C_3  and  C_39
    4  A    between atoms: C_8  and  C_35
    5  A    between atoms: O_11  and  C_29
    6  A    between atoms: O_11  and  C_39
    7  A    between atoms: O_13  and  O_18
    8  A    between atoms: O_13  and  C_40
    9  A    between atoms: O_16  and  C_25
   10  A    between atoms: O_16  and  C_40
   11  A    between atoms: C_19  and  C_23
   12  A    between atoms: C_20  and  N_38
   13  A    between atoms: C_21  and  C_40
   14  A    between atoms: C_22  and  C_25
   15  A    between atoms: C_28  and  C_32
   16  A    between atoms: C_28  and  N_38
                            x       y       z     vdW  Elec       q    Type
                         _______ _______ _______ _____ _____    ______ ____

>  <TORSDO>
F 16

$$$$
=
 OpenBabel11062420483D

 45 49  0  0  1  0  0  0  0  0999 V2000
  190.3400  175.4640  144.3420 O   0  0  0  0  0  0  0  0  0  0  0  0
  193.2420  175.6040  146.6350 C   0  0  0  0  0  3  0  0  0  0  0  0
  188.9180  177.5920  146.8840 O   0  0  0  0  0  0  0  0  0  0  0  0
  192.5350  174.4220  144.1850 C   0  0  0  0  0  0  0  0  0  0  0  0
  191.6120  175.2260  144.8780 C   0  0  0  0  0  0  0  0  0  0  0  0
  191.0430  176.6620  146.7780 N   0  0  0  0  0  2  0  0  0  0  0  0
  194.1550  174.7920  145.9600 C   0  0  0  0  0  3  0  0  0  0  0  0
  189.7160  176.8280  146.2780 C   0  0  0  0  0  0  0  0  0  0  0  0
  193.8110  174.1930  144.7430 C   0  0  0  0  0  0  0  0  0  0  0  0
  189.2500  176.0090  145.0990 C   0  0  1  0  0  3  0  0  0  0  0  0
  191.9710  175.8160  146.1010 C   0  0  0  0  0  0  0  0  0  0  0  0
  187.4610  175.9500  143.2240 C   0  0  0  0  0  2  0  0  0  0  0  0
  188.7000  177.9960  143.6680 O   0  0  0  0  0  1  0  0  0  0  0  0
  188.2740  176.7740  144.1970 C   0  0  2  0  0  0  0  0  0  0  0  0
  186.7760  176.6000  144.4240 C   0  0  1  0  0  3  0  0  0  0  0  0
  185.9750  177.8210  143.9790 C   0  0  2  0  0  3  0  0  0  0  0  0
  185.8910  178.8130  144.9990 O   0  0  0  0  0  0  0  0  0  0  0  0
  185.1060  176.9380  146.4060 C   0  0  0  0  0  1  0  0  0  0  0  0
  185.1150  178.4410  146.1360 C   0  0  2  0  0  0  0  0  0  0  0  0
  183.8010  178.8980  146.0040 O   0  0  0  0  0  1  0  0  0  0  0  0
  186.0880  178.1880  148.3090 F   0  0  0  0  0  0  0  0  0  0  0  0
  185.7180  179.1220  147.3550 C   0  0  0  0  0  2  0  0  0  0  0  0
  184.7310  177.4610  143.4400 O   0  0  0  0  0  0  0  0  0  0  0  0
  184.3240  178.5360  142.7820 O   0  0  0  0  0  0  0  0  0  0  0  0
  183.3510  178.1200  141.8480 C   0  0  1  0  0  3  0  0  0  0  0  0
  182.0250  178.8450  142.0590 C   0  0  0  0  0  2  0  0  0  0  0  0
  180.9170  178.1620  141.2780 C   0  0  0  0  0  1  0  0  0  0  0  0
  183.8440  178.2460  140.4070 C   0  0  0  0  0  2  0  0  0  0  0  0
  185.2270  178.5670  140.3910 O   0  0  0  0  0  0  0  0  0  0  0  0
  186.1920  177.6200  140.0400 C   0  0  0  0  0  3  0  0  0  0  0  0
  187.3820  177.7230  140.4440 O   0  0  0  0  0  0  0  0  0  0  0  0
  191.4640  172.4640  143.1050 C   0  0  0  0  0  1  0  0  0  0  0  0
  192.1440  173.8020  142.8740 C   0  0  0  0  0  2  0  0  0  0  0  0
  194.8220  173.3180  144.0700 C   0  0  0  0  0  2  0  0  0  0  0  0
  195.9880  174.1040  143.6640 N   0  0  0  0  0  2  0  0  0  0  0  0
  194.4670  172.8150  139.0650 C   0  0  0  0  0  2  0  0  0  0  0  0
  194.4330  175.0590  139.8210 C   0  0  2  0  0  3  0  0  0  0  0  0
  193.5800  173.8470  137.8470 S   0  0  0  0  0  0  0  0  0  0  0  0
  195.9160  174.4680  142.2450 C   0  0  2  0  0  3  0  0  0  0  0  0
  195.2260  173.7770  139.9270 C   0  0  2  0  0  0  0  0  0  0  0  0
  195.2250  175.8300  142.0380 C   0  0  0  0  0  2  0  0  0  0  0  0
  196.5150  173.9400  139.4070 O   0  0  0  0  0  1  0  0  0  0  0  0
  194.2310  175.3270  138.4680 O   0  0  0  0  0  0  0  0  0  0  0  0
  195.1350  176.1950  140.5550 C   0  0  0  0  0  2  0  0  0  0  0  0
  195.2970  173.3420  141.3880 C   0  0  0  0  0  2  0  0  0  0  0  0
  1  5  1  0  0  0  0
  4  9  2  0  0  0  0
  4  5  1  0  0  0  0
  5 11  2  0  0  0  0
  7  2  2  0  0  0  0
  8  6  1  0  0  0  0
  8  3  2  0  0  0  0
  9  7  1  0  0  0  0
 10  1  1  6  0  0  0
 10  8  1  0  0  0  0
 11  2  1  0  0  0  0
 11  6  1  0  0  0  0
 12 14  1  0  0  0  0
 12 15  1  0  0  0  0
 14 13  1  6  0  0  0
 14 15  1  0  0  0  0
 14 10  1  0  0  0  0
 15 16  1  6  0  0  0
 16 23  1  1  0  0  0
 16 17  1  0  0  0  0
 17 19  1  0  0  0  0
 19 18  1  1  0  0  0
 19 22  1  0  0  0  0
 20 19  1  0  0  0  0
 22 21  1  0  0  0  0
 24 23  1  0  0  0  0
 25 28  1  6  0  0  0
 25 26  1  0  0  0  0
 25 24  1  0  0  0  0
 27 26  1  0  0  0  0
 29 28  1  0  0  0  0
 30 29  1  0  0  0  0
 30 31  2  0  0  0  0
 33 32  1  0  0  0  0
 33  4  1  0  0  0  0
 34  9  1  0  0  0  0
 35 34  1  0  0  0  0
 36 40  1  0  0  0  0
 37 40  1  0  0  0  0
 37 44  1  6  0  0  0
 38 43  1  0  0  0  0
 38 36  1  0  0  0  0
 39 35  1  1  0  0  0
 40 42  1  6  0  0  0
 40 45  1  0  0  0  0
 41 39  1  0  0  0  0
 43 37  1  0  0  0  0
 44 41  1  0  0  0  0
 45 39  1  0  0  0  0
M  END
>  <MODEL>
5

>  <REMARK>
 VINA RESULT:      -5.8      2.795      3.690
  Name = 
  16 active torsions:
  status: ('A' for Active; 'I' for Inactive)
    1  A    between atoms: C_2  and  C_3
    2  A    between atoms: C_3  and  O_18
    3  A    between atoms: C_3  and  C_39
    4  A    between atoms: C_8  and  C_35
    5  A    between atoms: O_11  and  C_29
    6  A    between atoms: O_11  and  C_39
    7  A    between atoms: O_13  and  O_18
    8  A    between atoms: O_13  and  C_40
    9  A    between atoms: O_16  and  C_25
   10  A    between atoms: O_16  and  C_40
   11  A    between atoms: C_19  and  C_23
   12  A    between atoms: C_20  and  N_38
   13  A    between atoms: C_21  and  C_40
   14  A    between atoms: C_22  and  C_25
   15  A    between atoms: C_28  and  C_32
   16  A    between atoms: C_28  and  N_38
                            x       y       z     vdW  Elec       q    Type
                         _______ _______ _______ _____ _____    ______ ____

>  <TORSDO>
F 16

$$$$
=
 OpenBabel11062420483D

 45 49  0  0  1  0  0  0  0  0999 V2000
  192.6120  175.1980  143.8110 O   0  0  0  0  0  0  0  0  0  0  0  0
  191.8310  175.1770  147.4280 C   0  0  0  0  0  3  0  0  0  0  0  0
  195.1660  172.8950  144.9010 O   0  0  0  0  0  0  0  0  0  0  0  0
  190.9030  176.3900  145.0680 C   0  0  0  0  0  0  0  0  0  0  0  0
  191.9940  175.5030  145.0290 C   0  0  0  0  0  0  0  0  0  0  0  0
  193.5330  173.9690  146.1570 N   0  0  0  0  0  2  0  0  0  0  0  0
  190.7590  176.0710  147.4750 C   0  0  0  0  0  3  0  0  0  0  0  0
  194.2230  173.7310  144.9300 C   0  0  0  0  0  0  0  0  0  0  0  0
  190.2940  176.6860  146.3070 C   0  0  0  0  0  0  0  0  0  0  0  0
  193.8910  174.5560  143.7090 C   0  0  1  0  0  3  0  0  0  0  0  0
  192.4520  174.8980  146.2110 C   0  0  0  0  0  0  0  0  0  0  0  0
  193.0220  172.6330  142.2050 C   0  0  0  0  0  2  0  0  0  0  0  0
  195.2970  173.4530  141.9470 O   0  0  0  0  0  1  0  0  0  0  0  0
  194.0120  173.7570  142.4060 C   0  0  2  0  0  0  0  0  0  0  0  0
  192.9150  173.8970  141.3560 C   0  0  1  0  0  3  0  0  0  0  0  0
  193.4260  173.6300  139.9430 C   0  0  2  0  0  3  0  0  0  0  0  0
  194.0660  174.7700  139.3750 O   0  0  0  0  0  0  0  0  0  0  0  0
  194.9840  174.8270  137.0800 C   0  0  0  0  0  1  0  0  0  0  0  0
  195.1930  174.4790  138.5520 C   0  0  2  0  0  0  0  0  0  0  0  0
  195.5470  173.1320  138.6650 O   0  0  0  0  0  1  0  0  0  0  0  0
  197.4240  174.4880  139.4180 F   0  0  0  0  0  0  0  0  0  0  0  0
  196.3660  175.3060  139.0560 C   0  0  0  0  0  2  0  0  0  0  0  0
  192.4300  173.0780  139.1230 O   0  0  0  0  0  0  0  0  0  0  0  0
  191.3870  173.8810  139.2710 O   0  0  0  0  0  0  0  0  0  0  0  0
  190.2480  173.1890  138.8070 C   0  0  1  0  0  3  0  0  0  0  0  0
  190.4270  172.7220  137.3640 C   0  0  0  0  0  2  0  0  0  0  0  0
  190.4280  173.9100  136.4190 C   0  0  0  0  0  1  0  0  0  0  0  0
  189.8540  172.0380  139.7310 C   0  0  0  0  0  2  0  0  0  0  0  0
  189.5770  172.5330  141.0330 O   0  0  0  0  0  0  0  0  0  0  0  0
  188.3180  173.0330  141.3720 C   0  0  0  0  0  3  0  0  0  0  0  0
  188.1970  174.0410  142.1190 O   0  0  0  0  0  0  0  0  0  0  0  0
  191.1350  178.3400  143.5550 C   0  0  0  0  0  1  0  0  0  0  0  0
  190.4150  177.0260  143.7980 C   0  0  0  0  0  2  0  0  0  0  0  0
  189.1530  177.6480  146.4170 C   0  0  0  0  0  2  0  0  0  0  0  0
  187.8760  176.9380  146.3440 N   0  0  0  0  0  2  0  0  0  0  0  0
  185.7900  178.0960  141.9360 C   0  0  0  0  0  2  0  0  0  0  0  0
  184.5240  177.9670  143.9330 C   0  0  2  0  0  3  0  0  0  0  0  0
  184.0120  178.2070  141.5300 S   0  0  0  0  0  0  0  0  0  0  0  0
  186.8670  177.7290  145.6300 C   0  0  2  0  0  3  0  0  0  0  0  0
  185.8820  178.3700  143.4060 C   0  0  2  0  0  0  0  0  0  0  0  0
  185.4490  177.4780  146.1790 C   0  0  0  0  0  2  0  0  0  0  0  0
  186.1130  179.7350  143.6050 O   0  0  0  0  0  1  0  0  0  0  0  0
  183.5570  178.6000  143.1550 O   0  0  0  0  0  0  0  0  0  0  0  0
  184.3990  178.2890  145.4170 C   0  0  0  0  0  2  0  0  0  0  0  0
  186.9630  177.5440  144.1000 C   0  0  0  0  0  2  0  0  0  0  0  0
  1  5  1  0  0  0  0
  2  7  1  0  0  0  0
  3  8  2  0  0  0  0
  4  9  1  0  0  0  0
  5  4  2  0  0  0  0
  5 11  1  0  0  0  0
  6 11  1  0  0  0  0
  8  6  1  0  0  0  0
  9 34  1  0  0  0  0
  9  7  2  0  0  0  0
 10  1  1  1  0  0  0
 10  8  1  0  0  0  0
 11  2  2  0  0  0  0
 12 14  1  0  0  0  0
 14 13  1  6  0  0  0
 14 10  1  0  0  0  0
 15 16  1  6  0  0  0
 15 12  1  0  0  0  0
 15 14  1  0  0  0  0
 16 23  1  6  0  0  0
 17 16  1  0  0  0  0
 19 18  1  6  0  0  0
 19 20  1  0  0  0  0
 19 22  1  0  0  0  0
 19 17  1  0  0  0  0
 22 21  1  0  0  0  0
 23 24  1  0  0  0  0
 25 26  1  6  0  0  0
 25 24  1  0  0  0  0
 25 28  1  0  0  0  0
 27 26  1  0  0  0  0
 28 29  1  0  0  0  0
 29 30  1  0  0  0  0
 30 31  2  0  0  0  0
 32 33  1  0  0  0  0
 33  4  1  0  0  0  0
 35 34  1  0  0  0  0
 36 40  1  0  0  0  0
 37 44  1  1  0  0  0
 38 36  1  0  0  0  0
 38 43  1  0  0  0  0
 39 41  1  0  0  0  0
 39 35  1  1  0  0  0
 40 42  1  1  0  0  0
 40 37  1  0  0  0  0
 40 45  1  0  0  0  0
 43 37  1  0  0  0  0
 44 41  1  0  0  0  0
 45 39  1  0  0  0  0
M  END
>  <MODEL>
6

>  <REMARK>
 VINA RESULT:      -5.7      3.872      8.396
  Name = 
  16 active torsions:
  status: ('A' for Active; 'I' for Inactive)
    1  A    between atoms: C_2  and  C_3
    2  A    between atoms: C_3  and  O_18
    3  A    between atoms: C_3  and  C_39
    4  A    between atoms: C_8  and  C_35
    5  A    between atoms: O_11  and  C_29
    6  A    between atoms: O_11  and  C_39
    7  A    between atoms: O_13  and  O_18
    8  A    between atoms: O_13  and  C_40
    9  A    between atoms: O_16  and  C_25
   10  A    between atoms: O_16  and  C_40
   11  A    between atoms: C_19  and  C_23
   12  A    between atoms: C_20  and  N_38
   13  A    between atoms: C_21  and  C_40
   14  A    between atoms: C_22  and  C_25
   15  A    between atoms: C_28  and  C_32
   16  A    between atoms: C_28  and  N_38
                            x       y       z     vdW  Elec       q    Type
                         _______ _______ _______ _____ _____    ______ ____

>  <TORSDO>
F 16

$$$$
=
 OpenBabel11062420483D

 45 49  0  0  1  0  0  0  0  0999 V2000
  190.6850  173.0450  142.2650 O   0  0  0  0  0  0  0  0  0  0  0  0
  188.3470  174.2920  139.6820 C   0  0  0  0  0  3  0  0  0  0  0  0
  191.2820  170.5380  139.7410 O   0  0  0  0  0  0  0  0  0  0  0  0
  189.1900  174.9660  142.2770 C   0  0  0  0  0  0  0  0  0  0  0  0
  189.7180  173.8340  141.6300 C   0  0  0  0  0  0  0  0  0  0  0  0
  189.8640  172.3760  139.6690 N   0  0  0  0  0  2  0  0  0  0  0  0
  187.8070  175.4070  140.3260 C   0  0  0  0  0  3  0  0  0  0  0  0
  190.7800  171.5200  140.3520 C   0  0  0  0  0  0  0  0  0  0  0  0
  188.2140  175.7470  141.6210 C   0  0  0  0  0  0  0  0  0  0  0  0
  191.0540  171.7320  141.8210 C   0  0  1  0  0  3  0  0  0  0  0  0
  189.2940  173.5030  140.3330 C   0  0  0  0  0  0  0  0  0  0  0  0
  193.5730  172.3250  141.6780 C   0  0  0  0  0  2  0  0  0  0  0  0
  192.8800  170.0540  142.2050 O   0  0  0  0  0  1  0  0  0  0  0  0
  192.5010  171.3990  142.2060 C   0  0  2  0  0  0  0  0  0  0  0  0
  193.2350  172.3270  143.1670 C   0  0  1  0  0  3  0  0  0  0  0  0
  194.3220  171.6020  143.9580 C   0  0  2  0  0  3  0  0  0  0  0  0
  193.7840  170.8040  145.0090 O   0  0  0  0  0  0  0  0  0  0  0  0
  195.4640  169.2230  144.1200 C   0  0  0  0  0  1  0  0  0  0  0  0
  194.4080  169.5330  145.1770 C   0  0  2  0  0  0  0  0  0  0  0  0
  193.4500  168.5150  145.1910 O   0  0  0  0  0  1  0  0  0  0  0  0
  196.1470  170.4370  146.5520 F   0  0  0  0  0  0  0  0  0  0  0  0
  195.1000  169.5290  146.5320 C   0  0  0  0  0  2  0  0  0  0  0  0
  195.3330  172.4790  144.3780 O   0  0  0  0  0  0  0  0  0  0  0  0
  194.7800  173.1930  145.3470 O   0  0  0  0  0  0  0  0  0  0  0  0
  195.0290  174.5540  145.0680 C   0  0  1  0  0  3  0  0  0  0  0  0
  194.3510  175.4670  146.0850 C   0  0  0  0  0  2  0  0  0  0  0  0
  192.9900  174.9150  146.4690 C   0  0  0  0  0  1  0  0  0  0  0  0
  196.5220  174.8540  144.9410 C   0  0  0  0  0  2  0  0  0  0  0  0
  196.7460  175.7660  143.8760 O   0  0  0  0  0  0  0  0  0  0  0  0
  196.7240  175.3520  142.5430 C   0  0  0  0  0  3  0  0  0  0  0  0
  197.7730  174.9550  141.9660 O   0  0  0  0  0  0  0  0  0  0  0  0
  190.8970  176.1870  143.5970 C   0  0  0  0  0  1  0  0  0  0  0  0
  189.6540  175.3160  143.6620 C   0  0  0  0  0  2  0  0  0  0  0  0
  187.5900  176.9420  142.2710 C   0  0  0  0  0  2  0  0  0  0  0  0
  186.1370  176.7840  142.3450 N   0  0  0  0  0  2  0  0  0  0  0  0
  187.1400  177.5370  147.1990 C   0  0  0  0  0  2  0  0  0  0  0  0
  185.6260  178.9070  145.9970 C   0  0  2  0  0  3  0  0  0  0  0  0
  186.6780  178.9720  148.2300 S   0  0  0  0  0  0  0  0  0  0  0  0
  185.6240  177.1860  143.6600 C   0  0  2  0  0  3  0  0  0  0  0  0
  186.1120  177.4800  146.1090 C   0  0  2  0  0  0  0  0  0  0  0  0
  184.9940  178.5920  143.6230 C   0  0  0  0  0  2  0  0  0  0  0  0
  185.0760  176.6260  146.5020 O   0  0  0  0  0  1  0  0  0  0  0  0
  185.2810  179.3430  147.2750 O   0  0  0  0  0  0  0  0  0  0  0  0
  184.4790  179.0140  145.0000 C   0  0  0  0  0  2  0  0  0  0  0  0
  186.6870  177.0310  144.7690 C   0  0  0  0  0  2  0  0  0  0  0  0
  2  7  2  0  0  0  0
  2 11  1  0  0  0  0
  3  8  2  0  0  0  0
  4 33  1  0  0  0  0
  5  1  1  0  0  0  0
  5  4  1  0  0  0  0
  6 11  1  0  0  0  0
  6  8  1  0  0  0  0
  7  9  1  0  0  0  0
  9 34  1  0  0  0  0
  9  4  2  0  0  0  0
 10  8  1  6  0  0  0
 10 14  1  0  0  0  0
 10  1  1  0  0  0  0
 11  5  2  0  0  0  0
 12 14  1  0  0  0  0
 12 15  1  0  0  0  0
 14 13  1  1  0  0  0
 14 15  1  0  0  0  0
 15 16  1  1  0  0  0
 16 23  1  1  0  0  0
 16 17  1  0  0  0  0
 17 19  1  0  0  0  0
 19 18  1  6  0  0  0
 19 20  1  0  0  0  0
 19 22  1  0  0  0  0
 22 21  1  0  0  0  0
 23 24  1  0  0  0  0
 25 28  1  1  0  0  0
 25 24  1  0  0  0  0
 25 26  1  0  0  0  0
 26 27  1  0  0  0  0
 29 28  1  0  0  0  0
 30 29  1  0  0  0  0
 31 30  2  0  0  0  0
 32 33  1  0  0  0  0
 34 35  1  0  0  0  0
 36 38  1  0  0  0  0
 37 44  1  6  0  0  0
 37 40  1  0  0  0  0
 37 43  1  0  0  0  0
 39 35  1  6  0  0  0
 39 45  1  0  0  0  0
 40 42  1  1  0  0  0
 40 36  1  0  0  0  0
 41 39  1  0  0  0  0
 41 44  1  0  0  0  0
 43 38  1  0  0  0  0
 45 40  1  0  0  0  0
M  END
>  <MODEL>
7

>  <REMARK>
 VINA RESULT:      -5.7      4.370      9.546
  Name = 
  16 active torsions:
  status: ('A' for Active; 'I' for Inactive)
    1  A    between atoms: C_2  and  C_3
    2  A    between atoms: C_3  and  O_18
    3  A    between atoms: C_3  and  C_39
    4  A    between atoms: C_8  and  C_35
    5  A    between atoms: O_11  and  C_29
    6  A    between atoms: O_11  and  C_39
    7  A    between atoms: O_13  and  O_18
    8  A    between atoms: O_13  and  C_40
    9  A    between atoms: O_16  and  C_25
   10  A    between atoms: O_16  and  C_40
   11  A    between atoms: C_19  and  C_23
   12  A    between atoms: C_20  and  N_38
   13  A    between atoms: C_21  and  C_40
   14  A    between atoms: C_22  and  C_25
   15  A    between atoms: C_28  and  C_32
   16  A    between atoms: C_28  and  N_38
                            x       y       z     vdW  Elec       q    Type
                         _______ _______ _______ _____ _____    ______ ____

>  <TORSDO>
F 16

$$$$
=
 OpenBabel11062420483D

 45 49  0  0  1  0  0  0  0  0999 V2000
  191.2900  175.2980  145.6910 O   0  0  0  0  0  0  0  0  0  0  0  0
  194.9320  175.8080  146.1120 C   0  0  0  0  0  3  0  0  0  0  0  0
  191.2190  177.1820  148.7660 O   0  0  0  0  0  0  0  0  0  0  0  0
  193.1610  174.5680  144.3150 C   0  0  0  0  0  0  0  0  0  0  0  0
  192.6690  175.2310  145.4540 C   0  0  0  0  0  0  0  0  0  0  0  0
  193.0480  176.5530  147.4790 N   0  0  0  0  0  2  0  0  0  0  0  0
  195.4270  175.1360  144.9930 C   0  0  0  0  0  3  0  0  0  0  0  0
  191.6500  176.5410  147.7700 C   0  0  0  0  0  0  0  0  0  0  0  0
  194.5540  174.5090  144.0960 C   0  0  0  0  0  0  0  0  0  0  0  0
  190.7190  175.6800  146.9510 C   0  0  1  0  0  3  0  0  0  0  0  0
  193.5580  175.8500  146.3480 C   0  0  0  0  0  0  0  0  0  0  0  0
  189.2420  177.8080  146.9760 C   0  0  0  0  0  2  0  0  0  0  0  0
  188.2300  175.6150  147.2560 O   0  0  0  0  0  1  0  0  0  0  0  0
  189.3360  176.3140  146.7660 C   0  0  2  0  0  0  0  0  0  0  0  0
  189.1040  177.2310  145.5700 C   0  0  1  0  0  3  0  0  0  0  0  0
  187.6420  177.2520  145.1300 C   0  0  2  0  0  3  0  0  0  0  0  0
  186.7500  177.4480  146.2250 O   0  0  0  0  0  0  0  0  0  0  0  0
  185.9310  179.2210  144.7100 C   0  0  0  0  0  1  0  0  0  0  0  0
  185.8150  178.5100  146.0550 C   0  0  2  0  0  0  0  0  0  0  0  0
  185.9410  179.4430  147.0880 O   0  0  0  0  0  1  0  0  0  0  0  0
  184.4680  176.5850  146.5180 F   0  0  0  0  0  0  0  0  0  0  0  0
  184.4160  177.9170  146.1410 C   0  0  0  0  0  2  0  0  0  0  0  0
  187.3200  176.1430  144.3340 O   0  0  0  0  0  0  0  0  0  0  0  0
  188.2020  176.1680  143.3460 O   0  0  0  0  0  0  0  0  0  0  0  0
  187.5510  175.7020  142.1830 C   0  0  1  0  0  3  0  0  0  0  0  0
  187.4420  176.7970  141.1260 C   0  0  0  0  0  2  0  0  0  0  0  0
  188.0510  178.0900  141.6380 C   0  0  0  0  0  1  0  0  0  0  0  0
  188.2020  174.4360  141.6250 C   0  0  0  0  0  2  0  0  0  0  0  0
  188.5400  173.5550  142.6860 O   0  0  0  0  0  0  0  0  0  0  0  0
  189.0550  172.2800  142.4400 C   0  0  0  0  0  3  0  0  0  0  0  0
  189.5760  171.9900  141.3300 O   0  0  0  0  0  0  0  0  0  0  0  0
  191.7710  174.9010  142.2900 C   0  0  0  0  0  1  0  0  0  0  0  0
  192.2030  173.9150  143.3610 C   0  0  0  0  0  2  0  0  0  0  0  0
  195.1400  173.7890  142.9210 C   0  0  0  0  0  2  0  0  0  0  0  0
  196.3970  173.1400  143.2940 N   0  0  0  0  0  2  0  0  0  0  0  0
  196.4050  169.6860  146.9280 C   0  0  0  0  0  2  0  0  0  0  0  0
  194.8310  169.6500  145.1580 C   0  0  2  0  0  3  0  0  0  0  0  0
  195.1280  168.4290  147.2830 S   0  0  0  0  0  0  0  0  0  0  0  0
  196.1830  171.7340  143.6570 C   0  0  2  0  0  3  0  0  0  0  0  0
  196.2710  169.9900  145.4660 C   0  0  2  0  0  0  0  0  0  0  0  0
  194.7710  171.2530  143.2700 C   0  0  0  0  0  2  0  0  0  0  0  0
  197.1460  169.1700  144.7460 O   0  0  0  0  0  1  0  0  0  0  0  0
  194.5810  168.3670  145.6410 O   0  0  0  0  0  0  0  0  0  0  0  0
  194.5460  169.7930  143.6680 C   0  0  0  0  0  2  0  0  0  0  0  0
  196.5300  171.4580  145.1350 C   0  0  0  0  0  2  0  0  0  0  0  0
  2 11  1  0  0  0  0
  4  5  1  0  0  0  0
  5  1  1  0  0  0  0
  5 11  2  0  0  0  0
  6  8  1  0  0  0  0
  7  2  2  0  0  0  0
  8  3  2  0  0  0  0
  9  4  2  0  0  0  0
  9  7  1  0  0  0  0
 10  1  1  6  0  0  0
 10  8  1  0  0  0  0
 11  6  1  0  0  0  0
 14 10  1  0  0  0  0
 14 12  1  0  0  0  0
 14 13  1  1  0  0  0
 15 16  1  1  0  0  0
 15 14  1  0  0  0  0
 15 12  1  0  0  0  0
 16 23  1  1  0  0  0
 16 17  1  0  0  0  0
 19 18  1  6  0  0  0
 19 22  1  0  0  0  0
 19 17  1  0  0  0  0
 19 20  1  0  0  0  0
 22 21  1  0  0  0  0
 24 23  1  0  0  0  0
 25 26  1  6  0  0  0
 25 24  1  0  0  0  0
 26 27  1  0  0  0  0
 28 25  1  0  0  0  0
 28 29  1  0  0  0  0
 30 29  1  0  0  0  0
 31 30  2  0  0  0  0
 32 33  1  0  0  0  0
 33  4  1  0  0  0  0
 34 35  1  0  0  0  0
 34  9  1  0  0  0  0
 36 38  1  0  0  0  0
 37 44  1  6  0  0  0
 37 40  1  0  0  0  0
 37 43  1  0  0  0  0
 39 35  1  1  0  0  0
 39 45  1  0  0  0  0
 40 42  1  6  0  0  0
 40 36  1  0  0  0  0
 41 39  1  0  0  0  0
 41 44  1  0  0  0  0
 43 38  1  0  0  0  0
 45 40  1  0  0  0  0
M  END
>  <MODEL>
8

>  <REMARK>
 VINA RESULT:      -5.7      3.161      4.549
  Name = 
  16 active torsions:
  status: ('A' for Active; 'I' for Inactive)
    1  A    between atoms: C_2  and  C_3
    2  A    between atoms: C_3  and  O_18
    3  A    between atoms: C_3  and  C_39
    4  A    between atoms: C_8  and  C_35
    5  A    between atoms: O_11  and  C_29
    6  A    between atoms: O_11  and  C_39
    7  A    between atoms: O_13  and  O_18
    8  A    between atoms: O_13  and  C_40
    9  A    between atoms: O_16  and  C_25
   10  A    between atoms: O_16  and  C_40
   11  A    between atoms: C_19  and  C_23
   12  A    between atoms: C_20  and  N_38
   13  A    between atoms: C_21  and  C_40
   14  A    between atoms: C_22  and  C_25
   15  A    between atoms: C_28  and  C_32
   16  A    between atoms: C_28  and  N_38
                            x       y       z     vdW  Elec       q    Type
                         _______ _______ _______ _____ _____    ______ ____

>  <TORSDO>
F 16

$$$$
=
 OpenBabel11062420483D

 45 49  0  0  1  0  0  0  0  0999 V2000
  190.9400  175.2480  144.0610 O   0  0  0  0  0  0  0  0  0  0  0  0
  191.1890  171.5840  143.6040 C   0  0  0  0  0  3  0  0  0  0  0  0
  187.9990  174.7570  142.0310 O   0  0  0  0  0  0  0  0  0  0  0  0
  192.5960  173.6600  144.8730 C   0  0  0  0  0  0  0  0  0  0  0  0
  191.4260  173.9380  144.1430 C   0  0  0  0  0  0  0  0  0  0  0  0
  189.5190  173.1810  142.8070 N   0  0  0  0  0  2  0  0  0  0  0  0
  192.3580  171.3050  144.3130 C   0  0  0  0  0  3  0  0  0  0  0  0
  189.0760  174.5290  142.6450 C   0  0  0  0  0  0  0  0  0  0  0  0
  193.0710  172.3320  144.9420 C   0  0  0  0  0  0  0  0  0  0  0  0
  189.9490  175.6690  143.1130 C   0  0  1  0  0  3  0  0  0  0  0  0
  190.7260  172.8970  143.5130 C   0  0  0  0  0  0  0  0  0  0  0  0
  188.9720  178.0360  142.7160 C   0  0  0  0  0  2  0  0  0  0  0  0
  189.3230  177.2220  144.9810 O   0  0  0  0  0  1  0  0  0  0  0  0
  189.1360  176.8550  143.6460 C   0  0  2  0  0  0  0  0  0  0  0  0
  187.7730  177.1450  143.0290 C   0  0  1  0  0  3  0  0  0  0  0  0
  186.8320  177.8480  144.0050 C   0  0  2  0  0  3  0  0  0  0  0  0
  186.4690  177.0130  145.1030 O   0  0  0  0  0  0  0  0  0  0  0  0
  184.5160  178.1340  146.1220 C   0  0  0  0  0  1  0  0  0  0  0  0
  185.9760  177.7060  146.2460 C   0  0  2  0  0  0  0  0  0  0  0  0
  186.7680  178.8240  146.5210 O   0  0  0  0  0  1  0  0  0  0  0  0
  187.2500  176.0300  147.3870 F   0  0  0  0  0  0  0  0  0  0  0  0
  186.0780  176.7670  147.4400 C   0  0  0  0  0  2  0  0  0  0  0  0
  185.7330  178.4220  143.3480 O   0  0  0  0  0  0  0  0  0  0  0  0
  185.4910  177.6160  142.3260 O   0  0  0  0  0  0  0  0  0  0  0  0
  184.7170  178.3360  141.3900 C   0  0  1  0  0  3  0  0  0  0  0  0
  184.9920  177.8730  139.9620 C   0  0  0  0  0  2  0  0  0  0  0  0
  186.4770  177.6380  139.7580 C   0  0  0  0  0  1  0  0  0  0  0  0
  183.2260  178.2980  141.7230 C   0  0  0  0  0  2  0  0  0  0  0  0
  182.4600  178.3290  140.5280 O   0  0  0  0  0  0  0  0  0  0  0  0
  181.0640  178.3660  140.5550 C   0  0  0  0  0  3  0  0  0  0  0  0
  180.4330  178.3600  141.6470 O   0  0  0  0  0  0  0  0  0  0  0  0
  192.5710  175.2470  146.7770 C   0  0  0  0  0  1  0  0  0  0  0  0
  193.3340  174.7780  145.5510 C   0  0  0  0  0  2  0  0  0  0  0  0
  194.3280  171.9790  145.6740 C   0  0  0  0  0  2  0  0  0  0  0  0
  195.2930  171.3600  144.7650 N   0  0  0  0  0  2  0  0  0  0  0  0
  196.2470  174.9340  141.3830 C   0  0  0  0  0  2  0  0  0  0  0  0
  197.0370  175.0650  143.6120 C   0  0  2  0  0  3  0  0  0  0  0  0
  196.9600  176.5910  141.6730 S   0  0  0  0  0  0  0  0  0  0  0  0
  196.2520  172.3460  144.2540 C   0  0  2  0  0  3  0  0  0  0  0  0
  196.7570  174.0780  142.5020 C   0  0  2  0  0  0  0  0  0  0  0  0
  196.6960  173.3340  145.3510 C   0  0  0  0  0  2  0  0  0  0  0  0
  197.9310  173.4380  142.0920 O   0  0  0  0  0  1  0  0  0  0  0  0
  197.8250  176.0880  143.0870 O   0  0  0  0  0  0  0  0  0  0  0  0
  197.6790  174.3720  144.8070 C   0  0  0  0  0  2  0  0  0  0  0  0
  195.7350  173.0510  142.9810 C   0  0  0  0  0  2  0  0  0  0  0  0
  1  5  1  0  0  0  0
  2  7  1  0  0  0  0
  3  8  2  0  0  0  0
  4  9  1  0  0  0  0
  4 33  1  0  0  0  0
  5  4  2  0  0  0  0
  6 11  1  0  0  0  0
  7  9  2  0  0  0  0
  8  6  1  0  0  0  0
  9 34  1  0  0  0  0
 10  8  1  1  0  0  0
 10 14  1  0  0  0  0
 10  1  1  0  0  0  0
 11  2  2  0  0  0  0
 11  5  1  0  0  0  0
 12 15  1  0  0  0  0
 12 14  1  0  0  0  0
 14 13  1  1  0  0  0
 15 14  1  0  0  0  0
 15 16  1  1  0  0  0
 16 23  1  6  0  0  0
 16 17  1  0  0  0  0
 17 19  1  0  0  0  0
 19 18  1  6  0  0  0
 19 20  1  0  0  0  0
 19 22  1  0  0  0  0
 21 22  1  0  0  0  0
 24 23  1  0  0  0  0
 25 26  1  6  0  0  0
 25 28  1  0  0  0  0
 25 24  1  0  0  0  0
 27 26  1  0  0  0  0
 29 30  1  0  0  0  0
 29 28  1  0  0  0  0
 30 31  2  0  0  0  0
 33 32  1  0  0  0  0
 35 34  1  0  0  0  0
 36 38  1  0  0  0  0
 36 40  1  0  0  0  0
 37 44  1  1  0  0  0
 38 43  1  0  0  0  0
 39 35  1  1  0  0  0
 39 41  1  0  0  0  0
 40 42  1  6  0  0  0
 40 45  1  0  0  0  0
 40 37  1  0  0  0  0
 43 37  1  0  0  0  0
 44 41  1  0  0  0  0
 45 39  1  0  0  0  0
M  END
>  <MODEL>
9

>  <REMARK>
 VINA RESULT:      -5.7      3.270      5.181
  Name = 
  16 active torsions:
  status: ('A' for Active; 'I' for Inactive)
    1  A    between atoms: C_2  and  C_3
    2  A    between atoms: C_3  and  O_18
    3  A    between atoms: C_3  and  C_39
    4  A    between atoms: C_8  and  C_35
    5  A    between atoms: O_11  and  C_29
    6  A    between atoms: O_11  and  C_39
    7  A    between atoms: O_13  and  O_18
    8  A    between atoms: O_13  and  C_40
    9  A    between atoms: O_16  and  C_25
   10  A    between atoms: O_16  and  C_40
   11  A    between atoms: C_19  and  C_23
   12  A    between atoms: C_20  and  N_38
   13  A    between atoms: C_21  and  C_40
   14  A    between atoms: C_22  and  C_25
   15  A    between atoms: C_28  and  C_32
   16  A    between atoms: C_28  and  N_38
                            x       y       z     vdW  Elec       q    Type
                         _______ _______ _______ _____ _____    ______ ____

>  <TORSDO>
F 16

$$$$
