=
 OpenBabel11062420143D

 52 57  0  0  1  0  0  0  0  0999 V2000
  193.3340  175.4930  145.2330 C   0  0  0  0  0  2  0  0  0  0  0  0
  190.6160  175.0680  143.4190 C   0  0  0  0  0  0  0  0  0  0  0  0
  191.3770  173.9420  145.3020 C   0  0  0  0  0  2  0  0  0  0  0  0
  190.2920  175.2320  142.1800 N   0  0  0  0  0  2  0  0  0  0  0  0
  191.8280  175.4080  145.4120 C   0  0  2  0  0  3  0  0  0  0  0  0
  191.1440  176.1590  144.2670 C   0  0  2  0  0  3  0  0  0  0  0  0
  190.8010  173.7870  143.9770 N   0  0  0  0  0  2  0  0  0  0  0  0
  190.0230  177.0020  144.7880 C   0  0  0  0  0  0  0  0  0  0  0  0
  190.1220  178.2560  144.7420 O   0  0  0  0  0  0  0  0  0  0  0  0
  188.8510  176.3850  145.3410 N   0  0  0  0  0  2  0  0  0  0  0  0
  187.7100  177.1160  145.8840 C   0  0  1  0  0  3  0  0  0  0  0  0
  186.1250  179.0870  147.0780 C   0  0  1  0  0  3  0  0  0  0  0  0
  186.3880  176.5970  145.2870 C   0  0  1  0  0  3  0  0  0  0  0  0
  187.7400  177.1070  147.4190 C   0  0  0  0  0  2  0  0  0  0  0  0
  185.1280  176.9200  146.1060 C   0  0  0  0  0  2  0  0  0  0  0  0
  185.7400  180.2640  147.6940 F   0  0  0  0  0  0  0  0  0  0  0  0
  186.8570  178.1840  148.0760 C   0  0  0  0  0  2  0  0  0  0  0  0
  184.9170  178.4080  146.4120 C   0  0  1  0  0  3  0  0  0  0  0  0
  183.7970  178.5390  147.2150 F   0  0  0  0  0  0  0  0  0  0  0  0
  185.2190  178.3520  142.1370 C   0  0  0  0  0  3  0  0  0  0  0  0
  186.2380  176.9530  143.8390 C   0  0  0  0  0  0  0  0  0  0  0  0
  186.9420  176.2640  142.8420 C   0  0  0  0  0  3  0  0  0  0  0  0
  185.3780  177.9980  143.4810 C   0  0  0  0  0  3  0  0  0  0  0  0
  185.9240  177.6620  141.1470 C   0  0  0  0  0  0  0  0  0  0  0  0
  185.7700  178.0170  139.8130 O   0  0  0  0  0  1  0  0  0  0  0  0
  186.7850  176.6180  141.4990 C   0  0  0  0  0  3  0  0  0  0  0  0
  193.9930  174.1760  145.6190 C   0  0  0  0  0  2  0  0  0  0  0  0
  195.3060  173.9330  144.8750 C   0  0  1  0  0  3  0  0  0  0  0  0
  196.5170  174.0180  145.7980 C   0  0  0  0  0  1  0  0  0  0  0  0
  195.2750  172.6720  143.9980 C   0  0  2  0  0  3  0  0  0  0  0  0
  196.3270  171.6320  144.3770 C   0  0  0  0  0  1  0  0  0  0  0  0
  195.2650  173.0090  142.4940 C   0  0  2  0  0  3  0  0  0  0  0  0
  196.8540  173.6150  139.8280 O   0  0  0  0  0  1  0  0  0  0  0  0
  194.0030  174.4490  139.9400 C   0  0  0  0  0  2  0  0  0  0  0  0
  196.3350  175.1620  141.5800 C   0  0  2  0  0  3  0  0  0  0  0  0
  196.4810  174.9430  140.0570 C   0  0  0  0  0  0  0  0  0  0  0  0
  197.4830  175.7780  139.5590 O   0  0  0  0  0  1  0  0  0  0  0  0
  193.8210  174.8230  141.4070 C   0  0  0  0  0  2  0  0  0  0  0  0
  195.1550  175.2460  139.3360 C   0  0  1  0  0  3  0  0  0  0  0  0
  195.0840  174.5250  142.2300 C   0  0  1  0  0  3  0  0  0  0  0  0
  195.2460  174.9640  137.8460 C   0  0  0  0  0  1  0  0  0  0  0  0
  197.5360  176.3880  143.1080 C   0  0  0  0  0  1  0  0  0  0  0  0
  196.6270  176.4660  142.0420 O   0  0  0  0  0  0  0  0  0  0  0  0
  193.8350  169.8750  141.0250 C   0  0  0  0  0  2  0  0  0  0  0  0
  193.2070  171.5220  142.5850 C   0  0  0  0  0  2  0  0  0  0  0  0
  194.9380  170.9080  141.0550 C   0  0  0  0  0  2  0  0  0  0  0  0
  194.2960  172.0990  141.7110 C   0  0  2  0  0  3  0  0  0  0  0  0
  192.8510  170.2090  142.0560 N   0  0  0  0  0  0  0  0  0  0  0  0
  191.5650  170.3550  141.3880 C   0  0  0  0  0  2  0  0  0  0  0  0
  189.8970  171.9760  140.5530 C   0  0  0  0  0  2  0  0  0  0  0  0
  191.3200  171.8140  141.0480 C   0  0  0  0  0  3  0  0  0  0  0  0
  191.0430  171.9330  139.5640 C   0  0  0  0  0  2  0  0  0  0  0  0
  1 27  1  0  0  0  0
  2  7  1  0  0  0  0
  2  6  1  0  0  0  0
  3  5  1  0  0  0  0
  4  2  2  0  0  0  0
  5  1  1  6  0  0  0
  6  8  1  1  0  0  0
  6  5  1  0  0  0  0
  7  3  1  0  0  0  0
  8 10  1  0  0  0  0
  9  8  2  0  0  0  0
 11 10  1  6  0  0  0
 11 14  1  0  0  0  0
 12 16  1  1  0  0  0
 12 17  1  0  0  0  0
 13 21  1  6  0  0  0
 13 11  1  0  0  0  0
 13 15  1  0  0  0  0
 14 17  1  0  0  0  0
 15 18  1  0  0  0  0
 18 12  1  0  0  0  0
 18 19  1  1  0  0  0
 20 23  1  0  0  0  0
 22 21  1  0  0  0  0
 23 21  2  0  0  0  0
 24 26  1  0  0  0  0
 24 20  2  0  0  0  0
 25 24  1  0  0  0  0
 26 22  2  0  0  0  0
 28 27  1  0  0  0  0
 28 29  1  1  0  0  0
 30 31  1  6  0  0  0
 30 28  1  0  0  0  0
 32 30  1  1  0  0  0
 33 36  1  0  0  0  0
 34 38  1  0  0  0  0
 35 43  1  6  0  0  0
 35 40  1  0  0  0  0
 36 35  1  0  0  0  0
 37 36  1  0  0  0  0
 38 40  1  0  0  0  0
 39 41  1  6  0  0  0
 39 34  1  0  0  0  0
 39 36  1  0  0  0  0
 40 32  1  6  0  0  0
 43 42  1  0  0  0  0
 44 46  1  0  0  0  0
 44 48  1  0  0  0  0
 46 47  1  0  0  0  0
 47 32  1  1  0  0  0
 47 45  1  0  0  0  0
 48 45  1  0  0  0  0
 49 48  1  0  0  0  0
 50 51  1  0  0  0  0
 51 49  1  0  0  0  0
 52 50  1  0  0  0  0
 52 51  1  0  0  0  0
M  END
>  <MODEL>
1

>  <REMARK>
 VINA RESULT:      -7.5      0.000      0.000
  Name = 
  13 active torsions:
  status: ('A' for Active; 'I' for Inactive)
    1  A    between atoms: C_1  and  C_45
    2  A    between atoms: C_1  and  C_47
    3  A    between atoms: C_2  and  N_51
    4  A    between atoms: C_8  and  C_49
    5  A    between atoms: C_9  and  C_13
    6  A    between atoms: C_10  and  C_14
    7  A    between atoms: C_10  and  C_43
    8  A    between atoms: C_14  and  C_47
    9  A    between atoms: C_16  and  O_35
   10  A    between atoms: C_22  and  C_43
   11  A    between atoms: N_26  and  C_28
   12  A    between atoms: C_28  and  C_46
   13  A    between atoms: C_33  and  C_43
                            x       y       z     vdW  Elec       q    Type
                         _______ _______ _______ _____ _____    ______ ____

>  <TORSDO>
F 13

$$$$
=
 OpenBabel11062420143D

 52 57  0  0  1  0  0  0  0  0999 V2000
  191.8390  174.3400  141.1510 C   0  0  0  0  0  2  0  0  0  0  0  0
  189.0270  172.7740  140.4410 C   0  0  0  0  0  0  0  0  0  0  0  0
  190.5080  172.5100  142.2100 C   0  0  0  0  0  2  0  0  0  0  0  0
  188.3890  172.4550  139.3650 N   0  0  0  0  0  2  0  0  0  0  0  0
  190.5130  173.9940  141.8070 C   0  0  2  0  0  3  0  0  0  0  0  0
  189.3870  174.1680  140.7830 C   0  0  2  0  0  3  0  0  0  0  0  0
  189.7120  171.8140  141.2140 N   0  0  0  0  0  2  0  0  0  0  0  0
  188.2200  174.8700  141.4010 C   0  0  0  0  0  0  0  0  0  0  0  0
  187.3610  174.1990  142.0320 O   0  0  0  0  0  0  0  0  0  0  0  0
  188.0790  176.2920  141.2700 N   0  0  0  0  0  2  0  0  0  0  0  0
  186.9740  177.0680  141.8250 C   0  0  1  0  0  3  0  0  0  0  0  0
  184.4090  177.9470  142.5140 C   0  0  1  0  0  3  0  0  0  0  0  0
  187.4480  177.9360  143.0050 C   0  0  1  0  0  3  0  0  0  0  0  0
  186.2600  177.8620  140.7220 C   0  0  0  0  0  2  0  0  0  0  0  0
  186.5410  179.1290  143.3490 C   0  0  0  0  0  2  0  0  0  0  0  0
  183.0330  178.0160  142.6190 F   0  0  0  0  0  0  0  0  0  0  0  0
  184.8540  178.3570  141.1060 C   0  0  0  0  0  2  0  0  0  0  0  0
  185.0760  178.7690  143.6290 C   0  0  1  0  0  3  0  0  0  0  0  0
  184.3680  179.9390  143.8440 F   0  0  0  0  0  0  0  0  0  0  0  0
  187.2500  176.3850  146.4580 C   0  0  0  0  0  3  0  0  0  0  0  0
  187.8000  177.1180  144.2100 C   0  0  0  0  0  0  0  0  0  0  0  0
  188.9600  176.3310  144.2450 C   0  0  0  0  0  3  0  0  0  0  0  0
  186.9470  177.1410  145.3200 C   0  0  0  0  0  3  0  0  0  0  0  0
  188.4070  175.6020  146.4870 C   0  0  0  0  0  0  0  0  0  0  0  0
  188.7060  174.8490  147.6150 O   0  0  0  0  0  1  0  0  0  0  0  0
  189.2620  175.5750  145.3810 C   0  0  0  0  0  3  0  0  0  0  0  0
  192.3330  173.1770  140.3000 C   0  0  0  0  0  2  0  0  0  0  0  0
  193.8020  172.8410  140.5570 C   0  0  1  0  0  3  0  0  0  0  0  0
  194.5610  172.5500  139.2660 C   0  0  0  0  0  1  0  0  0  0  0  0
  194.4980  173.8560  141.4770 C   0  0  2  0  0  3  0  0  0  0  0  0
  195.6640  174.5870  140.8170 C   0  0  0  0  0  1  0  0  0  0  0  0
  194.8570  173.2470  142.8470 C   0  0  2  0  0  3  0  0  0  0  0  0
  197.2340  171.6700  144.2110 O   0  0  0  0  0  1  0  0  0  0  0  0
  194.5620  171.4970  145.5010 C   0  0  0  0  0  2  0  0  0  0  0  0
  195.5110  170.7610  142.8200 C   0  0  2  0  0  3  0  0  0  0  0  0
  196.4110  170.5510  144.0590 C   0  0  0  0  0  0  0  0  0  0  0  0
  197.2190  169.4280  143.8640 O   0  0  0  0  0  1  0  0  0  0  0  0
  193.6110  171.5540  144.3100 C   0  0  0  0  0  2  0  0  0  0  0  0
  195.5550  170.3540  145.3220 C   0  0  1  0  0  3  0  0  0  0  0  0
  194.3650  171.7860  142.9910 C   0  0  1  0  0  3  0  0  0  0  0  0
  196.4130  170.2220  146.5700 C   0  0  0  0  0  1  0  0  0  0  0  0
  195.6660  169.6250  140.8270 C   0  0  0  0  0  1  0  0  0  0  0  0
  195.1390  169.5850  142.1270 O   0  0  0  0  0  0  0  0  0  0  0  0
  195.0690  176.0810  145.2880 C   0  0  0  0  0  2  0  0  0  0  0  0
  193.6550  175.3760  143.5440 C   0  0  0  0  0  2  0  0  0  0  0  0
  195.6040  174.7600  144.7840 C   0  0  0  0  0  2  0  0  0  0  0  0
  194.4530  174.1800  144.0090 C   0  0  2  0  0  3  0  0  0  0  0  0
  193.9540  176.4920  144.4340 N   0  0  0  0  0  0  0  0  0  0  0  0
  192.7960  176.6690  145.2980 C   0  0  0  0  0  2  0  0  0  0  0  0
  192.2220  175.1600  147.1690 C   0  0  0  0  0  2  0  0  0  0  0  0
  193.1460  176.2750  146.7210 C   0  0  0  0  0  3  0  0  0  0  0  0
  191.9680  176.5830  147.6220 C   0  0  0  0  0  2  0  0  0  0  0  0
  2  6  1  0  0  0  0
  2  7  1  0  0  0  0
  4  2  2  0  0  0  0
  5  1  1  6  0  0  0
  5  3  1  0  0  0  0
  6  8  1  1  0  0  0
  6  5  1  0  0  0  0
  7  3  1  0  0  0  0
  8  9  2  0  0  0  0
 10  8  1  0  0  0  0
 11 10  1  6  0  0  0
 11 13  1  0  0  0  0
 12 16  1  6  0  0  0
 12 18  1  0  0  0  0
 13 15  1  0  0  0  0
 13 21  1  1  0  0  0
 14 17  1  0  0  0  0
 14 11  1  0  0  0  0
 15 18  1  0  0  0  0
 17 12  1  0  0  0  0
 18 19  1  6  0  0  0
 20 24  1  0  0  0  0
 21 22  2  0  0  0  0
 21 23  1  0  0  0  0
 22 26  1  0  0  0  0
 23 20  2  0  0  0  0
 24 25  1  0  0  0  0
 26 24  2  0  0  0  0
 27 28  1  0  0  0  0
 27  1  1  0  0  0  0
 28 29  1  6  0  0  0
 28 30  1  0  0  0  0
 30 31  1  6  0  0  0
 32 30  1  6  0  0  0
 35 43  1  1  0  0  0
 35 40  1  0  0  0  0
 35 36  1  0  0  0  0
 36 33  1  0  0  0  0
 36 39  1  0  0  0  0
 37 36  1  0  0  0  0
 38 34  1  0  0  0  0
 39 34  1  0  0  0  0
 39 41  1  1  0  0  0
 40 32  1  1  0  0  0
 40 38  1  0  0  0  0
 42 43  1  0  0  0  0
 45 47  1  0  0  0  0
 45 48  1  0  0  0  0
 46 44  1  0  0  0  0
 47 32  1  6  0  0  0
 47 46  1  0  0  0  0
 48 44  1  0  0  0  0
 48 49  1  0  0  0  0
 49 51  1  0  0  0  0
 50 52  1  0  0  0  0
 51 50  1  0  0  0  0
 51 52  1  0  0  0  0
M  END
>  <MODEL>
2

>  <REMARK>
 VINA RESULT:      -7.4      2.517      5.572
  Name = 
  13 active torsions:
  status: ('A' for Active; 'I' for Inactive)
    1  A    between atoms: C_1  and  C_45
    2  A    between atoms: C_1  and  C_47
    3  A    between atoms: C_2  and  N_51
    4  A    between atoms: C_8  and  C_49
    5  A    between atoms: C_9  and  C_13
    6  A    between atoms: C_10  and  C_14
    7  A    between atoms: C_10  and  C_43
    8  A    between atoms: C_14  and  C_47
    9  A    between atoms: C_16  and  O_35
   10  A    between atoms: C_22  and  C_43
   11  A    between atoms: N_26  and  C_28
   12  A    between atoms: C_28  and  C_46
   13  A    between atoms: C_33  and  C_43
                            x       y       z     vdW  Elec       q    Type
                         _______ _______ _______ _____ _____    ______ ____

>  <TORSDO>
F 13

$$$$
=
 OpenBabel11062420143D

 52 57  0  0  1  0  0  0  0  0999 V2000
  191.4990  173.3380  141.8810 C   0  0  0  0  0  2  0  0  0  0  0  0
  188.5940  174.0690  140.5090 C   0  0  0  0  0  0  0  0  0  0  0  0
  189.1730  172.4470  142.0660 C   0  0  0  0  0  2  0  0  0  0  0  0
  188.1950  174.5440  139.3760 N   0  0  0  0  0  2  0  0  0  0  0  0
  190.0770  173.6690  142.2980 C   0  0  2  0  0  3  0  0  0  0  0  0
  189.5370  174.7840  141.3970 C   0  0  2  0  0  3  0  0  0  0  0  0
  188.4260  172.7110  140.8490 N   0  0  0  0  0  2  0  0  0  0  0  0
  188.8120  175.8090  142.2090 C   0  0  0  0  0  0  0  0  0  0  0  0
  189.0650  177.0300  142.0280 O   0  0  0  0  0  0  0  0  0  0  0  0
  187.8450  175.4050  143.1880 N   0  0  0  0  0  2  0  0  0  0  0  0
  187.0930  176.3250  144.0360 C   0  0  1  0  0  3  0  0  0  0  0  0
  185.1030  177.4470  145.6510 C   0  0  1  0  0  3  0  0  0  0  0  0
  188.0260  177.3630  144.6880 C   0  0  1  0  0  3  0  0  0  0  0  0
  185.9240  176.9480  143.2590 C   0  0  0  0  0  2  0  0  0  0  0  0
  187.3370  178.6440  145.1860 C   0  0  0  0  0  2  0  0  0  0  0  0
  183.9270  177.6070  146.3600 F   0  0  0  0  0  0  0  0  0  0  0  0
  184.8360  177.5770  144.1480 C   0  0  0  0  0  2  0  0  0  0  0  0
  186.1780  178.4180  146.1660 C   0  0  1  0  0  3  0  0  0  0  0  0
  185.6080  179.6430  146.4650 F   0  0  0  0  0  0  0  0  0  0  0  0
  189.8220  174.7640  146.7830 C   0  0  0  0  0  3  0  0  0  0  0  0
  188.9200  176.7540  145.7250 C   0  0  0  0  0  0  0  0  0  0  0  0
  189.6830  177.5510  146.5890 C   0  0  0  0  0  3  0  0  0  0  0  0
  188.9940  175.3600  145.8260 C   0  0  0  0  0  3  0  0  0  0  0  0
  190.5810  175.5640  147.6430 C   0  0  0  0  0  0  0  0  0  0  0  0
  191.4060  174.9730  148.5900 O   0  0  0  0  0  1  0  0  0  0  0  0
  190.5110  176.9570  147.5450 C   0  0  0  0  0  3  0  0  0  0  0  0
  191.7310  171.8330  141.9210 C   0  0  0  0  0  2  0  0  0  0  0  0
  193.1660  171.4670  142.3000 C   0  0  1  0  0  3  0  0  0  0  0  0
  193.6490  170.2100  141.5840 C   0  0  0  0  0  1  0  0  0  0  0  0
  194.1340  172.6550  142.2040 C   0  0  2  0  0  3  0  0  0  0  0  0
  195.1310  172.5440  141.0530 C   0  0  0  0  0  1  0  0  0  0  0  0
  194.7980  172.9760  143.5570 C   0  0  2  0  0  3  0  0  0  0  0  0
  192.7910  175.1810  144.6140 O   0  0  0  0  0  1  0  0  0  0  0  0
  195.4290  174.9710  145.9690 C   0  0  0  0  0  2  0  0  0  0  0  0
  194.6800  175.5170  143.1810 C   0  0  2  0  0  3  0  0  0  0  0  0
  193.8330  176.0750  144.3480 C   0  0  0  0  0  0  0  0  0  0  0  0
  193.2800  177.3030  143.9780 O   0  0  0  0  0  1  0  0  0  0  0  0
  196.3580  174.5580  144.8320 C   0  0  0  0  0  2  0  0  0  0  0  0
  194.7000  176.2600  145.6060 C   0  0  1  0  0  3  0  0  0  0  0  0
  195.5840  174.3110  143.5280 C   0  0  1  0  0  3  0  0  0  0  0  0
  193.8770  176.7330  146.7930 C   0  0  0  0  0  1  0  0  0  0  0  0
  196.5670  176.0280  141.9720 C   0  0  0  0  0  1  0  0  0  0  0  0
  195.2970  176.4860  142.3550 O   0  0  0  0  0  0  0  0  0  0  0  0
  197.6650  171.0540  145.0120 C   0  0  0  0  0  2  0  0  0  0  0  0
  195.4550  171.6130  145.6000 C   0  0  0  0  0  2  0  0  0  0  0  0
  197.0760  171.8290  143.8560 C   0  0  0  0  0  2  0  0  0  0  0  0
  195.5940  171.7720  144.1030 C   0  0  2  0  0  3  0  0  0  0  0  0
  196.6970  171.0440  146.1110 N   0  0  0  0  0  0  0  0  0  0  0  0
  196.4250  169.6490  146.4280 C   0  0  0  0  0  2  0  0  0  0  0  0
  194.8230  168.2700  147.7100 C   0  0  0  0  0  2  0  0  0  0  0  0
  194.9650  169.4790  146.8060 C   0  0  0  0  0  3  0  0  0  0  0  0
  194.4600  168.1670  146.2430 C   0  0  0  0  0  2  0  0  0  0  0  0
  1 27  1  0  0  0  0
  2  7  1  0  0  0  0
  2  6  1  0  0  0  0
  3  5  1  0  0  0  0
  4  2  2  0  0  0  0
  5  1  1  6  0  0  0
  6  8  1  1  0  0  0
  6  5  1  0  0  0  0
  7  3  1  0  0  0  0
  8 10  1  0  0  0  0
  9  8  2  0  0  0  0
 11 10  1  6  0  0  0
 11 13  1  0  0  0  0
 12 18  1  0  0  0  0
 12 16  1  1  0  0  0
 13 15  1  0  0  0  0
 13 21  1  1  0  0  0
 14 11  1  0  0  0  0
 14 17  1  0  0  0  0
 15 18  1  0  0  0  0
 17 12  1  0  0  0  0
 18 19  1  6  0  0  0
 20 24  1  0  0  0  0
 21 23  1  0  0  0  0
 21 22  2  0  0  0  0
 22 26  1  0  0  0  0
 23 20  2  0  0  0  0
 24 25  1  0  0  0  0
 26 24  2  0  0  0  0
 27 28  1  0  0  0  0
 28 29  1  6  0  0  0
 30 31  1  6  0  0  0
 30 28  1  0  0  0  0
 32 30  1  6  0  0  0
 35 43  1  1  0  0  0
 35 40  1  0  0  0  0
 35 36  1  0  0  0  0
 36 33  1  0  0  0  0
 36 39  1  0  0  0  0
 37 36  1  0  0  0  0
 38 34  1  0  0  0  0
 39 34  1  0  0  0  0
 39 41  1  1  0  0  0
 40 32  1  1  0  0  0
 40 38  1  0  0  0  0
 42 43  1  0  0  0  0
 44 48  1  0  0  0  0
 45 48  1  0  0  0  0
 46 47  1  0  0  0  0
 46 44  1  0  0  0  0
 47 32  1  1  0  0  0
 47 45  1  0  0  0  0
 48 49  1  0  0  0  0
 49 51  1  0  0  0  0
 51 50  1  0  0  0  0
 52 51  1  0  0  0  0
 52 50  1  0  0  0  0
M  END
>  <MODEL>
3

>  <REMARK>
 VINA RESULT:      -7.4      2.354      5.060
  Name = 
  13 active torsions:
  status: ('A' for Active; 'I' for Inactive)
    1  A    between atoms: C_1  and  C_45
    2  A    between atoms: C_1  and  C_47
    3  A    between atoms: C_2  and  N_51
    4  A    between atoms: C_8  and  C_49
    5  A    between atoms: C_9  and  C_13
    6  A    between atoms: C_10  and  C_14
    7  A    between atoms: C_10  and  C_43
    8  A    between atoms: C_14  and  C_47
    9  A    between atoms: C_16  and  O_35
   10  A    between atoms: C_22  and  C_43
   11  A    between atoms: N_26  and  C_28
   12  A    between atoms: C_28  and  C_46
   13  A    between atoms: C_33  and  C_43
                            x       y       z     vdW  Elec       q    Type
                         _______ _______ _______ _____ _____    ______ ____

>  <TORSDO>
F 13

$$$$
=
 OpenBabel11062420143D

 52 57  0  0  1  0  0  0  0  0999 V2000
  190.5600  173.2490  139.6100 C   0  0  0  0  0  2  0  0  0  0  0  0
  188.2240  174.3400  141.6610 C   0  0  0  0  0  0  0  0  0  0  0  0
  189.2620  172.2690  141.5060 C   0  0  0  0  0  2  0  0  0  0  0  0
  187.2580  175.1960  141.5980 N   0  0  0  0  0  2  0  0  0  0  0  0
  190.2860  173.3430  141.1010 C   0  0  2  0  0  3  0  0  0  0  0  0
  189.6370  174.6960  141.4060 C   0  0  2  0  0  3  0  0  0  0  0  0
  187.9880  172.9500  141.6590 N   0  0  0  0  0  2  0  0  0  0  0  0
  190.2480  175.3070  142.6270 C   0  0  0  0  0  0  0  0  0  0  0  0
  190.8630  176.4010  142.5260 O   0  0  0  0  0  0  0  0  0  0  0  0
  190.1410  174.6480  143.8970 N   0  0  0  0  0  2  0  0  0  0  0  0
  190.7090  175.1540  145.1420 C   0  0  1  0  0  3  0  0  0  0  0  0
  192.3410  176.4800  146.9880 C   0  0  1  0  0  3  0  0  0  0  0  0
  189.6640  175.1380  146.2730 C   0  0  1  0  0  3  0  0  0  0  0  0
  192.0060  174.4090  145.4900 C   0  0  0  0  0  2  0  0  0  0  0  0
  190.2380  175.1700  147.6990 C   0  0  0  0  0  2  0  0  0  0  0  0
  193.3540  177.2540  147.5220 F   0  0  0  0  0  0  0  0  0  0  0  0
  192.8970  175.1330  146.5160 C   0  0  0  0  0  2  0  0  0  0  0  0
  191.1820  176.3430  147.9910 C   0  0  1  0  0  3  0  0  0  0  0  0
  191.6800  176.2010  149.2740 F   0  0  0  0  0  0  0  0  0  0  0  0
  186.4390  177.0750  146.7300 C   0  0  0  0  0  3  0  0  0  0  0  0
  188.5850  176.1570  146.0670 C   0  0  0  0  0  0  0  0  0  0  0  0
  188.6830  177.1290  145.0620 C   0  0  0  0  0  3  0  0  0  0  0  0
  187.4600  176.1350  146.9000 C   0  0  0  0  0  3  0  0  0  0  0  0
  186.5410  178.0430  145.7270 C   0  0  0  0  0  0  0  0  0  0  0  0
  185.5290  178.9790  145.5620 O   0  0  0  0  0  1  0  0  0  0  0  0
  187.6630  178.0700  144.8930 C   0  0  0  0  0  3  0  0  0  0  0  0
  191.2990  171.9580  139.2840 C   0  0  0  0  0  2  0  0  0  0  0  0
  192.6000  171.8070  140.0720 C   0  0  1  0  0  3  0  0  0  0  0  0
  192.7010  170.4530  140.7660 C   0  0  0  0  0  1  0  0  0  0  0  0
  193.8450  172.1860  139.2550 C   0  0  2  0  0  3  0  0  0  0  0  0
  194.7910  171.0170  138.9950 C   0  0  0  0  0  1  0  0  0  0  0  0
  194.5560  173.4310  139.8220 C   0  0  2  0  0  3  0  0  0  0  0  0
  197.1560  174.1340  141.4800 O   0  0  0  0  0  1  0  0  0  0  0  0
  194.9740  176.1520  141.4380 C   0  0  0  0  0  2  0  0  0  0  0  0
  195.0610  173.3580  142.3420 C   0  0  2  0  0  3  0  0  0  0  0  0
  196.2740  174.2920  142.5540 C   0  0  0  0  0  0  0  0  0  0  0  0
  196.9380  173.9360  143.7300 O   0  0  0  0  0  1  0  0  0  0  0  0
  193.7190  175.2880  141.3750 C   0  0  0  0  0  2  0  0  0  0  0  0
  195.8180  175.7600  142.6450 C   0  0  1  0  0  3  0  0  0  0  0  0
  194.0630  173.7960  141.2440 C   0  0  1  0  0  3  0  0  0  0  0  0
  196.9980  176.7090  142.7760 C   0  0  0  0  0  1  0  0  0  0  0  0
  194.6980  171.4970  143.6420 C   0  0  0  0  0  1  0  0  0  0  0  0
  194.4490  172.8730  143.5220 O   0  0  0  0  0  0  0  0  0  0  0  0
  195.3820  175.4020  136.7460 C   0  0  0  0  0  2  0  0  0  0  0  0
  193.4820  174.4470  137.7540 C   0  0  0  0  0  2  0  0  0  0  0  0
  195.8280  174.7940  138.0560 C   0  0  0  0  0  2  0  0  0  0  0  0
  194.5450  174.6020  138.8170 C   0  0  2  0  0  3  0  0  0  0  0  0
  193.9730  175.0680  136.5290 N   0  0  0  0  0  0  0  0  0  0  0  0
  193.2550  176.3250  136.3730 C   0  0  0  0  0  2  0  0  0  0  0  0
  192.9470  178.1700  134.7570 C   0  0  0  0  0  2  0  0  0  0  0  0
  193.1320  176.6720  134.9010 C   0  0  0  0  0  3  0  0  0  0  0  0
  191.7540  177.2440  134.6430 C   0  0  0  0  0  2  0  0  0  0  0  0
  3  7  1  0  0  0  0
  4  2  2  0  0  0  0
  5  1  1  6  0  0  0
  5  6  1  0  0  0  0
  5  3  1  0  0  0  0
  6  2  1  0  0  0  0
  6  8  1  1  0  0  0
  7  2  1  0  0  0  0
  8 10  1  0  0  0  0
  9  8  2  0  0  0  0
 11 10  1  6  0  0  0
 11 14  1  0  0  0  0
 11 13  1  0  0  0  0
 12 16  1  1  0  0  0
 12 18  1  0  0  0  0
 13 21  1  6  0  0  0
 13 15  1  0  0  0  0
 14 17  1  0  0  0  0
 15 18  1  0  0  0  0
 17 12  1  0  0  0  0
 18 19  1  1  0  0  0
 20 23  1  0  0  0  0
 21 23  2  0  0  0  0
 22 21  1  0  0  0  0
 24 20  2  0  0  0  0
 25 24  1  0  0  0  0
 26 22  2  0  0  0  0
 26 24  1  0  0  0  0
 27  1  1  0  0  0  0
 27 28  1  0  0  0  0
 28 29  1  6  0  0  0
 30 31  1  1  0  0  0
 30 28  1  0  0  0  0
 32 30  1  6  0  0  0
 33 36  1  0  0  0  0
 34 39  1  0  0  0  0
 35 36  1  0  0  0  0
 35 43  1  1  0  0  0
 36 39  1  0  0  0  0
 36 37  1  0  0  0  0
 38 34  1  0  0  0  0
 39 41  1  6  0  0  0
 40 32  1  6  0  0  0
 40 38  1  0  0  0  0
 40 35  1  0  0  0  0
 43 42  1  0  0  0  0
 44 46  1  0  0  0  0
 45 47  1  0  0  0  0
 46 47  1  0  0  0  0
 47 32  1  6  0  0  0
 48 44  1  0  0  0  0
 48 45  1  0  0  0  0
 49 48  1  0  0  0  0
 50 51  1  0  0  0  0
 51 49  1  0  0  0  0
 52 50  1  0  0  0  0
 52 51  1  0  0  0  0
M  END
>  <MODEL>
4

>  <REMARK>
 VINA RESULT:      -7.3      2.838      5.270
  Name = 
  13 active torsions:
  status: ('A' for Active; 'I' for Inactive)
    1  A    between atoms: C_1  and  C_45
    2  A    between atoms: C_1  and  C_47
    3  A    between atoms: C_2  and  N_51
    4  A    between atoms: C_8  and  C_49
    5  A    between atoms: C_9  and  C_13
    6  A    between atoms: C_10  and  C_14
    7  A    between atoms: C_10  and  C_43
    8  A    between atoms: C_14  and  C_47
    9  A    between atoms: C_16  and  O_35
   10  A    between atoms: C_22  and  C_43
   11  A    between atoms: N_26  and  C_28
   12  A    between atoms: C_28  and  C_46
   13  A    between atoms: C_33  and  C_43
                            x       y       z     vdW  Elec       q    Type
                         _______ _______ _______ _____ _____    ______ ____

>  <TORSDO>
F 13

$$$$
=
 OpenBabel11062420143D

 52 57  0  0  1  0  0  0  0  0999 V2000
  195.6270  174.8900  140.9980 C   0  0  0  0  0  2  0  0  0  0  0  0
  195.9490  175.2250  144.2610 C   0  0  0  0  0  0  0  0  0  0  0  0
  196.4160  176.7000  142.5290 C   0  0  0  0  0  2  0  0  0  0  0  0
  196.1970  174.4380  145.2550 N   0  0  0  0  0  2  0  0  0  0  0  0
  195.2120  175.8410  142.1080 C   0  0  2  0  0  3  0  0  0  0  0  0
  194.8070  175.0270  143.3400 C   0  0  2  0  0  3  0  0  0  0  0  0
  196.9080  176.1370  143.7750 N   0  0  0  0  0  2  0  0  0  0  0  0
  193.5530  175.5750  143.9420 C   0  0  0  0  0  0  0  0  0  0  0  0
  193.1760  176.7360  143.6310 O   0  0  0  0  0  0  0  0  0  0  0  0
  192.7920  174.7890  144.8700 N   0  0  0  0  0  2  0  0  0  0  0  0
  191.5630  175.2350  145.5190 C   0  0  1  0  0  3  0  0  0  0  0  0
  189.5140  176.8430  146.5400 C   0  0  1  0  0  3  0  0  0  0  0  0
  190.5200  174.1020  145.5650 C   0  0  1  0  0  3  0  0  0  0  0  0
  191.8670  175.8500  146.8920 C   0  0  0  0  0  2  0  0  0  0  0  0
  189.4150  174.2690  146.6190 C   0  0  0  0  0  2  0  0  0  0  0  0
  188.7680  177.9570  146.8780 F   0  0  0  0  0  0  0  0  0  0  0  0
  190.7340  176.7240  147.4600 C   0  0  0  0  0  2  0  0  0  0  0  0
  188.6300  175.5850  146.5330 C   0  0  1  0  0  3  0  0  0  0  0  0
  187.7300  175.6320  147.5830 F   0  0  0  0  0  0  0  0  0  0  0  0
  188.9090  172.1750  142.7260 C   0  0  0  0  0  3  0  0  0  0  0  0
  189.9730  173.7750  144.2080 C   0  0  0  0  0  0  0  0  0  0  0  0
  189.9950  174.7140  143.1680 C   0  0  0  0  0  3  0  0  0  0  0  0
  189.4280  172.5060  143.9820 C   0  0  0  0  0  3  0  0  0  0  0  0
  188.9330  173.1140  141.6920 C   0  0  0  0  0  0  0  0  0  0  0  0
  188.4140  172.7870  140.4460 O   0  0  0  0  0  1  0  0  0  0  0  0
  189.4760  174.3840  141.9130 C   0  0  0  0  0  3  0  0  0  0  0  0
  194.7500  175.0890  139.7690 C   0  0  0  0  0  2  0  0  0  0  0  0
  194.4590  173.7800  139.0350 C   0  0  1  0  0  3  0  0  0  0  0  0
  194.5270  173.9410  137.5200 C   0  0  0  0  0  1  0  0  0  0  0  0
  195.2730  172.5950  139.5750 C   0  0  2  0  0  3  0  0  0  0  0  0
  196.3200  172.0690  138.5960 C   0  0  0  0  0  1  0  0  0  0  0  0
  194.3720  171.4870  140.1570 C   0  0  2  0  0  3  0  0  0  0  0  0
  192.6520  168.8920  139.6040 O   0  0  0  0  0  1  0  0  0  0  0  0
  192.1100  170.3820  142.1190 C   0  0  0  0  0  2  0  0  0  0  0  0
  191.9730  171.1660  139.2900 C   0  0  2  0  0  3  0  0  0  0  0  0
  191.5530  169.7460  139.7350 C   0  0  0  0  0  0  0  0  0  0  0  0
  190.5290  169.2820  138.9080 O   0  0  0  0  0  1  0  0  0  0  0  0
  192.3670  171.8290  141.7130 C   0  0  0  0  0  2  0  0  0  0  0  0
  191.0690  169.7570  141.1960 C   0  0  1  0  0  3  0  0  0  0  0  0
  192.8930  171.9300  140.2720 C   0  0  1  0  0  3  0  0  0  0  0  0
  190.7230  168.3610  141.6860 C   0  0  0  0  0  1  0  0  0  0  0  0
  191.2310  172.1790  137.3650 C   0  0  0  0  0  1  0  0  0  0  0  0
  190.9480  171.9570  138.7220 O   0  0  0  0  0  0  0  0  0  0  0  0
  196.7150  169.5670  142.3600 C   0  0  0  0  0  2  0  0  0  0  0  0
  195.9940  171.7910  142.0900 C   0  0  0  0  0  2  0  0  0  0  0  0
  195.6690  169.5690  141.2680 C   0  0  0  0  0  2  0  0  0  0  0  0
  194.9670  170.8870  141.4480 C   0  0  2  0  0  3  0  0  0  0  0  0
  196.9820  170.9500  142.7570 N   0  0  0  0  0  0  0  0  0  0  0  0
  196.7230  171.0420  144.1870 C   0  0  0  0  0  2  0  0  0  0  0  0
  194.6060  171.2200  145.4500 C   0  0  0  0  0  2  0  0  0  0  0  0
  195.4200  170.3390  144.5230 C   0  0  0  0  0  3  0  0  0  0  0  0
  195.3870  170.0480  146.0090 C   0  0  0  0  0  2  0  0  0  0  0  0
  2  4  2  0  0  0  0
  3  7  1  0  0  0  0
  5  1  1  6  0  0  0
  5  3  1  0  0  0  0
  5  6  1  0  0  0  0
  6  8  1  1  0  0  0
  6  2  1  0  0  0  0
  7  2  1  0  0  0  0
  8 10  1  0  0  0  0
  9  8  2  0  0  0  0
 11 10  1  1  0  0  0
 11 13  1  0  0  0  0
 11 14  1  0  0  0  0
 12 16  1  1  0  0  0
 12 17  1  0  0  0  0
 13 21  1  6  0  0  0
 13 15  1  0  0  0  0
 14 17  1  0  0  0  0
 18 12  1  0  0  0  0
 18 15  1  0  0  0  0
 18 19  1  1  0  0  0
 20 23  1  0  0  0  0
 22 21  1  0  0  0  0
 23 21  2  0  0  0  0
 24 26  1  0  0  0  0
 24 20  2  0  0  0  0
 25 24  1  0  0  0  0
 26 22  2  0  0  0  0
 27  1  1  0  0  0  0
 28 29  1  6  0  0  0
 28 30  1  0  0  0  0
 28 27  1  0  0  0  0
 30 31  1  6  0  0  0
 32 30  1  1  0  0  0
 33 36  1  0  0  0  0
 35 43  1  1  0  0  0
 35 36  1  0  0  0  0
 35 40  1  0  0  0  0
 36 39  1  0  0  0  0
 37 36  1  0  0  0  0
 38 34  1  0  0  0  0
 39 41  1  1  0  0  0
 39 34  1  0  0  0  0
 40 32  1  1  0  0  0
 40 38  1  0  0  0  0
 42 43  1  0  0  0  0
 44 48  1  0  0  0  0
 45 48  1  0  0  0  0
 46 47  1  0  0  0  0
 46 44  1  0  0  0  0
 47 32  1  6  0  0  0
 47 45  1  0  0  0  0
 48 49  1  0  0  0  0
 49 51  1  0  0  0  0
 50 52  1  0  0  0  0
 51 50  1  0  0  0  0
 51 52  1  0  0  0  0
M  END
>  <MODEL>
5

>  <REMARK>
 VINA RESULT:      -7.2      3.056      5.614
  Name = 
  13 active torsions:
  status: ('A' for Active; 'I' for Inactive)
    1  A    between atoms: C_1  and  C_45
    2  A    between atoms: C_1  and  C_47
    3  A    between atoms: C_2  and  N_51
    4  A    between atoms: C_8  and  C_49
    5  A    between atoms: C_9  and  C_13
    6  A    between atoms: C_10  and  C_14
    7  A    between atoms: C_10  and  C_43
    8  A    between atoms: C_14  and  C_47
    9  A    between atoms: C_16  and  O_35
   10  A    between atoms: C_22  and  C_43
   11  A    between atoms: N_26  and  C_28
   12  A    between atoms: C_28  and  C_46
   13  A    between atoms: C_33  and  C_43
                            x       y       z     vdW  Elec       q    Type
                         _______ _______ _______ _____ _____    ______ ____

>  <TORSDO>
F 13

$$$$
=
 OpenBabel11062420143D

 52 57  0  0  1  0  0  0  0  0999 V2000
  195.7940  175.1770  140.9510 C   0  0  0  0  0  2  0  0  0  0  0  0
  195.9830  174.6570  144.2000 C   0  0  0  0  0  0  0  0  0  0  0  0
  196.7710  176.4080  142.8930 C   0  0  0  0  0  2  0  0  0  0  0  0
  196.0500  173.6240  144.9720 N   0  0  0  0  0  2  0  0  0  0  0  0
  195.4720  175.8880  142.2540 C   0  0  2  0  0  3  0  0  0  0  0  0
  194.8780  174.8790  143.2420 C   0  0  2  0  0  3  0  0  0  0  0  0
  197.0990  175.4880  143.9690 N   0  0  0  0  0  2  0  0  0  0  0  0
  193.6930  175.4660  143.9410 C   0  0  0  0  0  0  0  0  0  0  0  0
  193.4980  176.7090  143.8860 O   0  0  0  0  0  0  0  0  0  0  0  0
  192.7930  174.6210  144.6730 N   0  0  0  0  0  2  0  0  0  0  0  0
  191.6170  175.0950  145.3960 C   0  0  1  0  0  3  0  0  0  0  0  0
  189.7180  176.7500  146.6130 C   0  0  1  0  0  3  0  0  0  0  0  0
  190.4980  174.0380  145.3820 C   0  0  1  0  0  3  0  0  0  0  0  0
  192.0010  175.5690  146.8050 C   0  0  0  0  0  2  0  0  0  0  0  0
  189.4360  174.1920  146.4830 C   0  0  0  0  0  2  0  0  0  0  0  0
  189.0640  177.8810  147.0660 F   0  0  0  0  0  0  0  0  0  0  0  0
  190.9500  176.4690  147.4800 C   0  0  0  0  0  2  0  0  0  0  0  0
  188.7460  175.5620  146.5310 C   0  0  1  0  0  3  0  0  0  0  0  0
  187.8800  175.5830  147.6100 F   0  0  0  0  0  0  0  0  0  0  0  0
  188.8750  172.4100  142.3680 C   0  0  0  0  0  3  0  0  0  0  0  0
  189.8920  173.8660  144.0220 C   0  0  0  0  0  0  0  0  0  0  0  0
  189.7630  174.9480  143.1400 C   0  0  0  0  0  3  0  0  0  0  0  0
  189.4460  172.5980  143.6320 C   0  0  0  0  0  3  0  0  0  0  0  0
  188.7490  173.4910  141.4920 C   0  0  0  0  0  0  0  0  0  0  0  0
  188.1780  173.3050  140.2400 O   0  0  0  0  0  1  0  0  0  0  0  0
  189.1930  174.7590  141.8780 C   0  0  0  0  0  3  0  0  0  0  0  0
  194.5970  175.2190  140.0100 C   0  0  0  0  0  2  0  0  0  0  0  0
  194.8580  174.4920  138.6910 C   0  0  1  0  0  3  0  0  0  0  0  0
  195.7830  175.2800  137.7700 C   0  0  0  0  0  1  0  0  0  0  0  0
  195.2700  173.0250  138.8860 C   0  0  2  0  0  3  0  0  0  0  0  0
  196.4320  172.5880  137.9980 C   0  0  0  0  0  1  0  0  0  0  0  0
  194.0620  172.0680  138.8240 C   0  0  2  0  0  3  0  0  0  0  0  0
  192.3050  170.2850  136.8920 O   0  0  0  0  0  1  0  0  0  0  0  0
  191.1120  171.0560  139.5040 C   0  0  0  0  0  2  0  0  0  0  0  0
  192.1160  172.6450  137.2460 C   0  0  2  0  0  3  0  0  0  0  0  0
  191.3660  171.3160  137.0010 C   0  0  0  0  0  0  0  0  0  0  0  0
  190.6530  171.3960  135.8030 O   0  0  0  0  0  1  0  0  0  0  0  0
  191.7020  172.4410  139.7460 C   0  0  0  0  0  2  0  0  0  0  0  0
  190.3950  171.0200  138.1580 C   0  0  1  0  0  3  0  0  0  0  0  0
  192.7190  172.8230  138.6590 C   0  0  1  0  0  3  0  0  0  0  0  0
  189.7010  169.6800  137.9840 C   0  0  0  0  0  1  0  0  0  0  0  0
  192.4200  174.5500  135.9960 C   0  0  0  0  0  1  0  0  0  0  0  0
  191.4880  173.8050  136.7340 O   0  0  0  0  0  0  0  0  0  0  0  0
  195.2680  169.2270  140.9470 C   0  0  0  0  0  2  0  0  0  0  0  0
  194.8630  171.5340  141.1770 C   0  0  0  0  0  2  0  0  0  0  0  0
  194.7080  169.7170  139.6310 C   0  0  0  0  0  2  0  0  0  0  0  0
  194.0870  171.0420  139.9770 C   0  0  2  0  0  3  0  0  0  0  0  0
  195.4670  170.3780  141.8290 N   0  0  0  0  0  0  0  0  0  0  0  0
  194.7000  170.1260  143.0410 C   0  0  0  0  0  2  0  0  0  0  0  0
  193.3030  171.2580  144.7370 C   0  0  0  0  0  2  0  0  0  0  0  0
  193.7200  171.2600  143.2790 C   0  0  0  0  0  3  0  0  0  0  0  0
  192.3820  170.6780  143.6840 C   0  0  0  0  0  2  0  0  0  0  0  0
  2  4  2  0  0  0  0
  3  7  1  0  0  0  0
  5  1  1  6  0  0  0
  5  3  1  0  0  0  0
  5  6  1  0  0  0  0
  6  8  1  1  0  0  0
  6  2  1  0  0  0  0
  7  2  1  0  0  0  0
  8 10  1  0  0  0  0
  9  8  2  0  0  0  0
 11 10  1  1  0  0  0
 11 14  1  0  0  0  0
 12 16  1  1  0  0  0
 12 17  1  0  0  0  0
 13 21  1  6  0  0  0
 13 11  1  0  0  0  0
 13 15  1  0  0  0  0
 14 17  1  0  0  0  0
 15 18  1  0  0  0  0
 18 12  1  0  0  0  0
 18 19  1  1  0  0  0
 20 23  1  0  0  0  0
 22 21  1  0  0  0  0
 23 21  2  0  0  0  0
 24 26  1  0  0  0  0
 24 20  2  0  0  0  0
 25 24  1  0  0  0  0
 26 22  2  0  0  0  0
 27  1  1  0  0  0  0
 28 29  1  1  0  0  0
 28 30  1  0  0  0  0
 28 27  1  0  0  0  0
 30 31  1  6  0  0  0
 32 30  1  1  0  0  0
 33 36  1  0  0  0  0
 34 38  1  0  0  0  0
 35 43  1  1  0  0  0
 35 40  1  0  0  0  0
 36 35  1  0  0  0  0
 36 39  1  0  0  0  0
 37 36  1  0  0  0  0
 39 41  1  6  0  0  0
 39 34  1  0  0  0  0
 40 32  1  6  0  0  0
 40 38  1  0  0  0  0
 42 43  1  0  0  0  0
 44 48  1  0  0  0  0
 45 48  1  0  0  0  0
 46 47  1  0  0  0  0
 46 44  1  0  0  0  0
 47 32  1  6  0  0  0
 47 45  1  0  0  0  0
 48 49  1  0  0  0  0
 49 51  1  0  0  0  0
 51 52  1  0  0  0  0
 51 50  1  0  0  0  0
 52 50  1  0  0  0  0
M  END
>  <MODEL>
6

>  <REMARK>
 VINA RESULT:      -7.1      2.996      5.338
  Name = 
  13 active torsions:
  status: ('A' for Active; 'I' for Inactive)
    1  A    between atoms: C_1  and  C_45
    2  A    between atoms: C_1  and  C_47
    3  A    between atoms: C_2  and  N_51
    4  A    between atoms: C_8  and  C_49
    5  A    between atoms: C_9  and  C_13
    6  A    between atoms: C_10  and  C_14
    7  A    between atoms: C_10  and  C_43
    8  A    between atoms: C_14  and  C_47
    9  A    between atoms: C_16  and  O_35
   10  A    between atoms: C_22  and  C_43
   11  A    between atoms: N_26  and  C_28
   12  A    between atoms: C_28  and  C_46
   13  A    between atoms: C_33  and  C_43
                            x       y       z     vdW  Elec       q    Type
                         _______ _______ _______ _____ _____    ______ ____

>  <TORSDO>
F 13

$$$$
=
 OpenBabel11062420143D

 52 57  0  0  1  0  0  0  0  0999 V2000
  193.4250  176.3070  143.6100 C   0  0  0  0  0  2  0  0  0  0  0  0
  191.3970  174.8120  145.7340 C   0  0  0  0  0  0  0  0  0  0  0  0
  193.2450  176.1700  146.0980 C   0  0  0  0  0  2  0  0  0  0  0  0
  190.6960  173.7270  145.7420 N   0  0  0  0  0  2  0  0  0  0  0  0
  192.5550  176.6450  144.8080 C   0  0  2  0  0  3  0  0  0  0  0  0
  191.2400  175.8670  144.7090 C   0  0  2  0  0  3  0  0  0  0  0  0
  192.5760  174.9430  146.4950 N   0  0  0  0  0  2  0  0  0  0  0  0
  190.0810  176.7510  145.0450 C   0  0  0  0  0  0  0  0  0  0  0  0
  190.1730  177.9910  144.8450 O   0  0  0  0  0  0  0  0  0  0  0  0
  188.8800  176.1910  145.5960 N   0  0  0  0  0  2  0  0  0  0  0  0
  187.7010  176.9670  145.9660 C   0  0  1  0  0  3  0  0  0  0  0  0
  186.0330  178.9910  146.9390 C   0  0  1  0  0  3  0  0  0  0  0  0
  186.4700  176.5220  145.1530 C   0  0  1  0  0  3  0  0  0  0  0  0
  187.4820  176.9300  147.4850 C   0  0  0  0  0  2  0  0  0  0  0  0
  185.1100  176.8910  145.7660 C   0  0  0  0  0  2  0  0  0  0  0  0
  185.6070  180.1740  147.5140 F   0  0  0  0  0  0  0  0  0  0  0  0
  186.5530  178.0370  148.0190 C   0  0  0  0  0  2  0  0  0  0  0  0
  184.9190  178.3820  146.0720 C   0  0  1  0  0  3  0  0  0  0  0  0
  183.6910  178.5530  146.6870 F   0  0  0  0  0  0  0  0  0  0  0  0
  186.9690  176.2590  141.4050 C   0  0  0  0  0  3  0  0  0  0  0  0
  186.5720  176.9100  143.7090 C   0  0  0  0  0  0  0  0  0  0  0  0
  186.3710  178.2340  143.2930 C   0  0  0  0  0  3  0  0  0  0  0  0
  186.8700  175.9250  142.7600 C   0  0  0  0  0  3  0  0  0  0  0  0
  186.7680  177.5800  140.9950 C   0  0  0  0  0  0  0  0  0  0  0  0
  186.8620  177.9100  139.6500 O   0  0  0  0  0  1  0  0  0  0  0  0
  186.4690  178.5670  141.9390 C   0  0  0  0  0  3  0  0  0  0  0  0
  194.9000  176.4060  143.9760 C   0  0  0  0  0  2  0  0  0  0  0  0
  195.7800  175.4830  143.1330 C   0  0  1  0  0  3  0  0  0  0  0  0
  197.2660  175.7060  143.3940 C   0  0  0  0  0  1  0  0  0  0  0  0
  195.3460  174.0110  143.2020 C   0  0  2  0  0  3  0  0  0  0  0  0
  196.2610  173.1390  144.0580 C   0  0  0  0  0  1  0  0  0  0  0  0
  195.0710  173.4190  141.8060 C   0  0  2  0  0  3  0  0  0  0  0  0
  195.7340  171.9030  139.1110 O   0  0  0  0  0  1  0  0  0  0  0  0
  193.2640  173.5550  139.1780 C   0  0  0  0  0  2  0  0  0  0  0  0
  196.0960  174.2210  139.5880 C   0  0  2  0  0  3  0  0  0  0  0  0
  195.6790  173.1740  138.5310 C   0  0  0  0  0  0  0  0  0  0  0  0
  196.5720  173.2120  137.4580 O   0  0  0  0  0  1  0  0  0  0  0  0
  193.6530  174.7030  140.1030 C   0  0  0  0  0  2  0  0  0  0  0  0
  194.2540  173.4560  138.0220 C   0  0  1  0  0  3  0  0  0  0  0  0
  195.0560  174.5020  140.6980 C   0  0  1  0  0  3  0  0  0  0  0  0
  193.7860  172.3960  137.0380 C   0  0  0  0  0  1  0  0  0  0  0  0
  197.8680  175.6590  139.8600 C   0  0  0  0  0  1  0  0  0  0  0  0
  196.7330  175.3800  139.0850 O   0  0  0  0  0  0  0  0  0  0  0  0
  192.9380  170.4540  142.6380 C   0  0  0  0  0  2  0  0  0  0  0  0
  192.8910  172.7860  142.9500 C   0  0  0  0  0  2  0  0  0  0  0  0
  194.1560  171.0240  141.9460 C   0  0  0  0  0  2  0  0  0  0  0  0
  193.8400  172.4880  141.8130 C   0  0  2  0  0  3  0  0  0  0  0  0
  192.2520  171.5360  143.3460 N   0  0  0  0  0  0  0  0  0  0  0  0
  190.8870  171.5790  142.8410 C   0  0  0  0  0  2  0  0  0  0  0  0
  189.1070  173.2180  142.3370 C   0  0  0  0  0  2  0  0  0  0  0  0
  190.5960  172.9470  142.2510 C   0  0  0  0  0  3  0  0  0  0  0  0
  189.7230  172.7780  141.0250 C   0  0  0  0  0  2  0  0  0  0  0  0
  1 27  1  0  0  0  0
  2  4  2  0  0  0  0
  2  7  1  0  0  0  0
  3  7  1  0  0  0  0
  5  1  1  6  0  0  0
  5  3  1  0  0  0  0
  6  5  1  0  0  0  0
  6  8  1  1  0  0  0
  6  2  1  0  0  0  0
  8 10  1  0  0  0  0
  9  8  2  0  0  0  0
 11 10  1  1  0  0  0
 11 14  1  0  0  0  0
 12 16  1  1  0  0  0
 12 17  1  0  0  0  0
 13 21  1  6  0  0  0
 13 15  1  0  0  0  0
 13 11  1  0  0  0  0
 14 17  1  0  0  0  0
 15 18  1  0  0  0  0
 18 19  1  1  0  0  0
 18 12  1  0  0  0  0
 20 23  1  0  0  0  0
 22 21  1  0  0  0  0
 23 21  2  0  0  0  0
 24 20  2  0  0  0  0
 24 26  1  0  0  0  0
 25 24  1  0  0  0  0
 26 22  2  0  0  0  0
 28 30  1  0  0  0  0
 28 29  1  1  0  0  0
 28 27  1  0  0  0  0
 30 31  1  6  0  0  0
 32 30  1  1  0  0  0
 34 38  1  0  0  0  0
 35 43  1  6  0  0  0
 35 40  1  0  0  0  0
 36 33  1  0  0  0  0
 36 35  1  0  0  0  0
 37 36  1  0  0  0  0
 38 40  1  0  0  0  0
 39 41  1  6  0  0  0
 39 36  1  0  0  0  0
 39 34  1  0  0  0  0
 40 32  1  1  0  0  0
 43 42  1  0  0  0  0
 44 48  1  0  0  0  0
 45 48  1  0  0  0  0
 46 44  1  0  0  0  0
 47 32  1  1  0  0  0
 47 46  1  0  0  0  0
 47 45  1  0  0  0  0
 49 48  1  0  0  0  0
 51 50  1  0  0  0  0
 51 49  1  0  0  0  0
 52 51  1  0  0  0  0
 52 50  1  0  0  0  0
M  END
>  <MODEL>
7

>  <REMARK>
 VINA RESULT:      -7.1      1.354      1.966
  Name = 
  13 active torsions:
  status: ('A' for Active; 'I' for Inactive)
    1  A    between atoms: C_1  and  C_45
    2  A    between atoms: C_1  and  C_47
    3  A    between atoms: C_2  and  N_51
    4  A    between atoms: C_8  and  C_49
    5  A    between atoms: C_9  and  C_13
    6  A    between atoms: C_10  and  C_14
    7  A    between atoms: C_10  and  C_43
    8  A    between atoms: C_14  and  C_47
    9  A    between atoms: C_16  and  O_35
   10  A    between atoms: C_22  and  C_43
   11  A    between atoms: N_26  and  C_28
   12  A    between atoms: C_28  and  C_46
   13  A    between atoms: C_33  and  C_43
                            x       y       z     vdW  Elec       q    Type
                         _______ _______ _______ _____ _____    ______ ____

>  <TORSDO>
F 13

$$$$
=
 OpenBabel11062420143D

 52 57  0  0  1  0  0  0  0  0999 V2000
  191.8490  176.0740  147.2250 C   0  0  0  0  0  2  0  0  0  0  0  0
  193.4160  176.1610  144.3280 C   0  0  0  0  0  0  0  0  0  0  0  0
  194.1690  176.6170  146.4770 C   0  0  0  0  0  2  0  0  0  0  0  0
  193.0900  176.4090  143.1030 N   0  0  0  0  0  2  0  0  0  0  0  0
  193.1010  175.5150  146.5740 C   0  0  2  0  0  3  0  0  0  0  0  0
  192.7760  175.1000  145.1360 C   0  0  2  0  0  3  0  0  0  0  0  0
  194.1680  177.0730  145.0970 N   0  0  0  0  0  2  0  0  0  0  0  0
  193.3840  173.7700  144.8230 C   0  0  0  0  0  0  0  0  0  0  0  0
  192.7160  172.7230  145.0310 O   0  0  0  0  0  0  0  0  0  0  0  0
  194.7180  173.6890  144.3000 N   0  0  0  0  0  2  0  0  0  0  0  0
  195.4040  172.4430  143.9730 C   0  0  1  0  0  3  0  0  0  0  0  0
  196.2690  169.7820  144.0070 C   0  0  1  0  0  3  0  0  0  0  0  0
  195.8870  172.4460  142.5110 C   0  0  1  0  0  3  0  0  0  0  0  0
  196.5160  172.1530  144.9900 C   0  0  0  0  0  2  0  0  0  0  0  0
  197.0140  171.4510  142.1900 C   0  0  0  0  0  2  0  0  0  0  0  0
  196.4180  168.4580  144.3740 F   0  0  0  0  0  0  0  0  0  0  0  0
  197.0020  170.6910  145.0000 C   0  0  0  0  0  2  0  0  0  0  0  0
  196.7110  169.9910  142.5490 C   0  0  1  0  0  3  0  0  0  0  0  0
  197.8340  169.2270  142.2800 F   0  0  0  0  0  0  0  0  0  0  0  0
  193.0000  173.4800  140.2830 C   0  0  0  0  0  3  0  0  0  0  0  0
  194.7530  172.3620  141.5350 C   0  0  0  0  0  0  0  0  0  0  0  0
  194.3750  171.1400  140.9600 C   0  0  0  0  0  3  0  0  0  0  0  0
  194.0620  173.5300  141.1920 C   0  0  0  0  0  3  0  0  0  0  0  0
  192.6280  172.2600  139.7120 C   0  0  0  0  0  0  0  0  0  0  0  0
  191.5760  172.2110  138.8060 O   0  0  0  0  0  1  0  0  0  0  0  0
  193.3150  171.0910  140.0510 C   0  0  0  0  0  3  0  0  0  0  0  0
  190.6040  175.5890  146.4940 C   0  0  0  0  0  2  0  0  0  0  0  0
  189.6560  176.7290  146.1230 C   0  0  1  0  0  3  0  0  0  0  0  0
  189.7620  177.9050  147.0870 C   0  0  0  0  0  1  0  0  0  0  0  0
  189.7420  177.1240  144.6410 C   0  0  2  0  0  3  0  0  0  0  0  0
  190.4830  178.4350  144.3960 C   0  0  0  0  0  1  0  0  0  0  0  0
  188.3710  177.0570  143.9400 C   0  0  2  0  0  3  0  0  0  0  0  0
  186.5120  179.3140  142.7350 O   0  0  0  0  0  1  0  0  0  0  0  0
  185.2460  176.7060  143.3910 C   0  0  0  0  0  2  0  0  0  0  0  0
  186.6910  178.6680  145.0330 C   0  0  2  0  0  3  0  0  0  0  0  0
  185.7530  179.1320  143.8950 C   0  0  0  0  0  0  0  0  0  0  0  0
  185.1690  180.3530  144.2400 O   0  0  0  0  0  1  0  0  0  0  0  0
  186.0360  176.2480  144.6120 C   0  0  0  0  0  2  0  0  0  0  0  0
  184.6510  178.0880  143.6420 C   0  0  1  0  0  3  0  0  0  0  0  0
  187.1920  177.2080  144.9340 C   0  0  1  0  0  3  0  0  0  0  0  0
  183.7600  178.4810  142.4750 C   0  0  0  0  0  1  0  0  0  0  0  0
  186.1720  177.9240  147.1450 C   0  0  0  0  0  1  0  0  0  0  0  0
  186.3120  179.0630  146.3380 O   0  0  0  0  0  0  0  0  0  0  0  0
  188.4920  175.0750  140.7640 C   0  0  0  0  0  2  0  0  0  0  0  0
  189.5830  175.1080  142.8500 C   0  0  0  0  0  2  0  0  0  0  0  0
  187.8400  176.1570  141.5940 C   0  0  0  0  0  2  0  0  0  0  0  0
  188.2680  175.8380  143.0000 C   0  0  2  0  0  3  0  0  0  0  0  0
  189.6310  174.5350  141.5090 N   0  0  0  0  0  0  0  0  0  0  0  0
  189.4110  173.1030  141.6500 C   0  0  0  0  0  2  0  0  0  0  0  0
  190.4970  171.0410  142.4730 C   0  0  0  0  0  2  0  0  0  0  0  0
  190.3550  172.5340  142.6940 C   0  0  0  0  0  3  0  0  0  0  0  0
  189.5910  171.5620  143.5690 C   0  0  0  0  0  2  0  0  0  0  0  0
  2  7  1  0  0  0  0
  2  6  1  0  0  0  0
  3  5  1  0  0  0  0
  4  2  2  0  0  0  0
  5  1  1  6  0  0  0
  6  8  1  6  0  0  0
  6  5  1  0  0  0  0
  7  3  1  0  0  0  0
  8  9  2  0  0  0  0
 10  8  1  0  0  0  0
 11 10  1  1  0  0  0
 11 14  1  0  0  0  0
 12 16  1  1  0  0  0
 12 17  1  0  0  0  0
 13 21  1  6  0  0  0
 13 11  1  0  0  0  0
 14 17  1  0  0  0  0
 15 13  1  0  0  0  0
 15 18  1  0  0  0  0
 18 19  1  1  0  0  0
 18 12  1  0  0  0  0
 20 23  1  0  0  0  0
 22 21  1  0  0  0  0
 23 21  2  0  0  0  0
 24 26  1  0  0  0  0
 24 20  2  0  0  0  0
 25 24  1  0  0  0  0
 26 22  2  0  0  0  0
 27  1  1  0  0  0  0
 28 27  1  0  0  0  0
 28 29  1  1  0  0  0
 30 31  1  1  0  0  0
 30 28  1  0  0  0  0
 32 30  1  1  0  0  0
 33 36  1  0  0  0  0
 34 39  1  0  0  0  0
 34 38  1  0  0  0  0
 35 43  1  1  0  0  0
 36 37  1  0  0  0  0
 36 35  1  0  0  0  0
 38 40  1  0  0  0  0
 39 41  1  6  0  0  0
 39 36  1  0  0  0  0
 40 32  1  6  0  0  0
 40 35  1  0  0  0  0
 43 42  1  0  0  0  0
 44 48  1  0  0  0  0
 44 46  1  0  0  0  0
 45 47  1  0  0  0  0
 46 47  1  0  0  0  0
 47 32  1  1  0  0  0
 48 49  1  0  0  0  0
 48 45  1  0  0  0  0
 49 51  1  0  0  0  0
 50 51  1  0  0  0  0
 50 52  1  0  0  0  0
 51 52  1  0  0  0  0
M  END
>  <MODEL>
8

>  <REMARK>
 VINA RESULT:      -7.1      4.056      9.256
  Name = 
  13 active torsions:
  status: ('A' for Active; 'I' for Inactive)
    1  A    between atoms: C_1  and  C_45
    2  A    between atoms: C_1  and  C_47
    3  A    between atoms: C_2  and  N_51
    4  A    between atoms: C_8  and  C_49
    5  A    between atoms: C_9  and  C_13
    6  A    between atoms: C_10  and  C_14
    7  A    between atoms: C_10  and  C_43
    8  A    between atoms: C_14  and  C_47
    9  A    between atoms: C_16  and  O_35
   10  A    between atoms: C_22  and  C_43
   11  A    between atoms: N_26  and  C_28
   12  A    between atoms: C_28  and  C_46
   13  A    between atoms: C_33  and  C_43
                            x       y       z     vdW  Elec       q    Type
                         _______ _______ _______ _____ _____    ______ ____

>  <TORSDO>
F 13

$$$$
=
 OpenBabel11062420143D

 52 57  0  0  1  0  0  0  0  0999 V2000
  191.5390  172.0450  140.0150 C   0  0  0  0  0  2  0  0  0  0  0  0
  189.1590  173.9600  141.2510 C   0  0  0  0  0  0  0  0  0  0  0  0
  189.7070  171.7450  141.6860 C   0  0  0  0  0  2  0  0  0  0  0  0
  188.4460  174.9480  140.8230 N   0  0  0  0  0  2  0  0  0  0  0  0
  191.0070  172.5000  141.3630 C   0  0  2  0  0  3  0  0  0  0  0  0
  190.6380  173.9840  141.2810 C   0  0  2  0  0  3  0  0  0  0  0  0
  188.6170  172.6690  141.4220 N   0  0  0  0  0  2  0  0  0  0  0  0
  191.1220  174.7130  142.4940 C   0  0  0  0  0  0  0  0  0  0  0  0
  191.9330  175.6670  142.3570 O   0  0  0  0  0  0  0  0  0  0  0  0
  190.6730  174.3220  143.8000 N   0  0  0  0  0  2  0  0  0  0  0  0
  191.0930  174.9600  145.0430 C   0  0  1  0  0  3  0  0  0  0  0  0
  192.5060  176.4780  146.9220 C   0  0  1  0  0  3  0  0  0  0  0  0
  189.9180  175.0670  146.0330 C   0  0  1  0  0  3  0  0  0  0  0  0
  192.3270  174.2570  145.6250 C   0  0  0  0  0  2  0  0  0  0  0  0
  190.3150  175.2530  147.5060 C   0  0  0  0  0  2  0  0  0  0  0  0
  193.4580  177.3040  147.4890 F   0  0  0  0  0  0  0  0  0  0  0  0
  193.0980  175.0870  146.6690 C   0  0  0  0  0  2  0  0  0  0  0  0
  191.2330  176.4510  147.7840 C   0  0  1  0  0  3  0  0  0  0  0  0
  191.5690  176.4480  149.1270 F   0  0  0  0  0  0  0  0  0  0  0  0
  186.6590  176.9930  145.8320 C   0  0  0  0  0  3  0  0  0  0  0  0
  188.8860  176.0580  145.5880 C   0  0  0  0  0  0  0  0  0  0  0  0
  189.1460  176.9650  144.5510 C   0  0  0  0  0  3  0  0  0  0  0  0
  187.6400  176.0770  146.2270 C   0  0  0  0  0  3  0  0  0  0  0  0
  186.9230  177.8950  144.7980 C   0  0  0  0  0  0  0  0  0  0  0  0
  185.9510  178.8070  144.4100 O   0  0  0  0  0  1  0  0  0  0  0  0
  188.1660  177.8810  144.1580 C   0  0  0  0  0  3  0  0  0  0  0  0
  191.9870  170.5910  140.0800 C   0  0  0  0  0  2  0  0  0  0  0  0
  192.8380  170.2910  141.3140 C   0  0  1  0  0  3  0  0  0  0  0  0
  192.3070  169.1000  142.1060 C   0  0  0  0  0  1  0  0  0  0  0  0
  194.3400  170.2160  141.0030 C   0  0  2  0  0  3  0  0  0  0  0  0
  194.9270  168.8130  141.1300 C   0  0  0  0  0  1  0  0  0  0  0  0
  195.1460  171.2860  141.7670 C   0  0  2  0  0  3  0  0  0  0  0  0
  197.4350  171.5700  143.9300 O   0  0  0  0  0  1  0  0  0  0  0  0
  195.6610  173.9160  143.5000 C   0  0  0  0  0  2  0  0  0  0  0  0
  195.1130  171.1530  144.3350 C   0  0  2  0  0  3  0  0  0  0  0  0
  196.3920  171.8790  144.8090 C   0  0  0  0  0  0  0  0  0  0  0  0
  196.7380  171.4300  146.0850 O   0  0  0  0  0  1  0  0  0  0  0  0
  194.3230  173.2670  143.1650 C   0  0  0  0  0  2  0  0  0  0  0  0
  196.1690  173.4020  144.8430 C   0  0  1  0  0  3  0  0  0  0  0  0
  194.4410  171.7380  143.0690 C   0  0  1  0  0  3  0  0  0  0  0  0
  197.4350  174.1480  145.2310 C   0  0  0  0  0  1  0  0  0  0  0  0
  193.7850  169.4610  145.1460 C   0  0  0  0  0  1  0  0  0  0  0  0
  194.2050  170.7830  145.3540 O   0  0  0  0  0  0  0  0  0  0  0  0
  197.2960  173.2390  139.4010 C   0  0  0  0  0  2  0  0  0  0  0  0
  195.1750  172.2190  139.4030 C   0  0  0  0  0  2  0  0  0  0  0  0
  197.0720  172.6730  140.7850 C   0  0  0  0  0  2  0  0  0  0  0  0
  195.5880  172.4380  140.8400 C   0  0  2  0  0  3  0  0  0  0  0  0
  196.1780  172.8400  138.5450 N   0  0  0  0  0  0  0  0  0  0  0  0
  195.5870  174.0620  138.0170 C   0  0  0  0  0  2  0  0  0  0  0  0
  193.7080  174.2120  136.4190 C   0  0  0  0  0  2  0  0  0  0  0  0
  194.0890  173.8820  137.8490 C   0  0  0  0  0  3  0  0  0  0  0  0
  193.4660  175.2230  137.5210 C   0  0  0  0  0  2  0  0  0  0  0  0
  1 27  1  0  0  0  0
  2  6  1  0  0  0  0
  2  7  1  0  0  0  0
  4  2  2  0  0  0  0
  5  1  1  6  0  0  0
  5  3  1  0  0  0  0
  6  5  1  0  0  0  0
  6  8  1  1  0  0  0
  7  3  1  0  0  0  0
  8 10  1  0  0  0  0
  9  8  2  0  0  0  0
 11 10  1  6  0  0  0
 11 14  1  0  0  0  0
 11 13  1  0  0  0  0
 12 16  1  1  0  0  0
 12 18  1  0  0  0  0
 13 21  1  6  0  0  0
 13 15  1  0  0  0  0
 14 17  1  0  0  0  0
 15 18  1  0  0  0  0
 17 12  1  0  0  0  0
 18 19  1  1  0  0  0
 20 23  1  0  0  0  0
 21 23  2  0  0  0  0
 22 21  1  0  0  0  0
 24 20  2  0  0  0  0
 25 24  1  0  0  0  0
 26 22  2  0  0  0  0
 26 24  1  0  0  0  0
 27 28  1  0  0  0  0
 28 29  1  6  0  0  0
 30 31  1  1  0  0  0
 30 28  1  0  0  0  0
 32 30  1  6  0  0  0
 33 36  1  0  0  0  0
 34 39  1  0  0  0  0
 35 36  1  0  0  0  0
 35 43  1  1  0  0  0
 36 39  1  0  0  0  0
 36 37  1  0  0  0  0
 38 34  1  0  0  0  0
 39 41  1  6  0  0  0
 40 32  1  6  0  0  0
 40 38  1  0  0  0  0
 40 35  1  0  0  0  0
 42 43  1  0  0  0  0
 44 46  1  0  0  0  0
 45 47  1  0  0  0  0
 46 47  1  0  0  0  0
 47 32  1  1  0  0  0
 48 44  1  0  0  0  0
 48 45  1  0  0  0  0
 49 48  1  0  0  0  0
 50 52  1  0  0  0  0
 50 51  1  0  0  0  0
 51 49  1  0  0  0  0
 52 51  1  0  0  0  0
M  END
>  <MODEL>
9

>  <REMARK>
 VINA RESULT:      -7.1      2.830      5.189
  Name = 
  13 active torsions:
  status: ('A' for Active; 'I' for Inactive)
    1  A    between atoms: C_1  and  C_45
    2  A    between atoms: C_1  and  C_47
    3  A    between atoms: C_2  and  N_51
    4  A    between atoms: C_8  and  C_49
    5  A    between atoms: C_9  and  C_13
    6  A    between atoms: C_10  and  C_14
    7  A    between atoms: C_10  and  C_43
    8  A    between atoms: C_14  and  C_47
    9  A    between atoms: C_16  and  O_35
   10  A    between atoms: C_22  and  C_43
   11  A    between atoms: N_26  and  C_28
   12  A    between atoms: C_28  and  C_46
   13  A    between atoms: C_33  and  C_43
                            x       y       z     vdW  Elec       q    Type
                         _______ _______ _______ _____ _____    ______ ____

>  <TORSDO>
F 13

$$$$
