=
 OpenBabel11062419583D

 28 31  0  0  1  0  0  0  0  0999 V2000
  188.0170  176.4340  144.9990 C   0  0  2  0  0  3  0  0  0  0  0  0
  188.1810  175.5750  141.4350 C   0  0  0  0  0  0  0  0  0  0  0  0
  189.0000  173.4190  140.8840 N   0  0  0  0  0  0  0  0  0  0  0  0
  188.7420  174.0290  143.1960 C   0  0  0  0  0  3  0  0  0  0  0  0
  187.8510  176.3560  143.5540 N   0  0  0  0  0  0  0  0  0  0  0  0
  187.5270  177.4900  142.6790 C   0  0  1  0  0  3  0  0  0  0  0  0
  189.1020  173.0970  142.2100 C   0  0  0  0  0  0  0  0  0  0  0  0
  187.7030  176.9760  141.2350 C   0  0  2  0  0  3  0  0  0  0  0  0
  188.2850  175.2710  142.7590 C   0  0  0  0  0  0  0  0  0  0  0  0
  189.5760  171.8120  142.5920 N   0  0  0  0  0  1  0  0  0  0  0  0
  186.3120  177.1730  141.8200 C   0  0  2  0  0  3  0  0  0  0  0  0
  185.7720  178.3620  141.3320 O   0  0  0  0  0  1  0  0  0  0  0  0
  188.5500  174.6400  140.4710 C   0  0  0  0  0  3  0  0  0  0  0  0
  186.6680  176.6630  145.6680 C   0  0  0  0  0  2  0  0  0  0  0  0
  186.7400  177.8250  146.6050 C   0  0  0  0  0  3  0  0  0  0  0  0
  185.7280  178.6710  146.7900 C   0  0  0  0  0  0  0  0  0  0  0  0
  185.8860  179.7280  147.6760 O   0  0  0  0  0  1  0  0  0  0  0  0
  184.4330  178.5290  146.0540 C   0  0  0  0  0  2  0  0  0  0  0  0
  185.5720  180.0480  144.4380 O   0  0  0  0  0  1  0  0  0  0  0  0
  184.5200  179.1880  144.7200 C   0  0  0  0  0  0  0  0  0  0  0  0
  183.6570  178.9400  143.8380 O   0  0  0  0  0  0  0  0  0  0  0  0
  189.0020  177.5460  145.3460 C   0  0  0  0  0  2  0  0  0  0  0  0
  191.2170  175.3710  147.6640 C   0  0  0  0  0  2  0  0  0  0  0  0
  191.1990  176.4710  144.8540 C   0  0  0  0  0  2  0  0  0  0  0  0
  192.4790  175.4840  146.7980 C   0  0  0  0  0  2  0  0  0  0  0  0
  192.1460  175.3540  145.3140 C   0  0  0  0  0  2  0  0  0  0  0  0
  190.2740  176.9870  145.9630 C   0  0  0  0  0  3  0  0  0  0  0  0
  189.9480  175.8840  146.9690 C   0  0  0  0  0  2  0  0  0  0  0  0
  1 22  1  6  0  0  0
  1 14  1  0  0  0  0
  2  9  1  0  0  0  0
  3  7  2  0  0  0  0
  5  1  1  0  0  0  0
  6  5  1  1  0  0  0
  7 10  1  0  0  0  0
  7  4  1  0  0  0  0
  8  2  1  1  0  0  0
  8 11  1  0  0  0  0
  8  6  1  0  0  0  0
  9  4  2  0  0  0  0
  9  5  1  0  0  0  0
 11 12  1  6  0  0  0
 11  6  1  0  0  0  0
 13  3  1  0  0  0  0
 13  2  2  0  0  0  0
 14 15  1  0  0  0  0
 15 16  2  0  0  0  0
 16 17  1  0  0  0  0
 18 16  1  0  0  0  0
 19 20  1  0  0  0  0
 20 18  1  0  0  0  0
 21 20  2  0  0  0  0
 22 27  1  0  0  0  0
 24 26  1  0  0  0  0
 24 27  1  0  0  0  0
 25 23  1  0  0  0  0
 26 25  1  0  0  0  0
 27 28  1  0  0  0  0
 28 23  1  0  0  0  0
M  END
>  <MODEL>
1

>  <REMARK>
 VINA RESULT:      -7.4      0.000      0.000
  Name = 
  7 active torsions:
  status: ('A' for Active; 'I' for Inactive)
    1  A    between atoms: N_5  and  C_8
    2  A    between atoms: C_6  and  C_18
    3  A    between atoms: C_8  and  C_18
    4  A    between atoms: C_8  and  C_25
    5  A    between atoms: C_10  and  C_19
    6  A    between atoms: C_11  and  C_19
    7  A    between atoms: C_24  and  C_25
                            x       y       z     vdW  Elec       q    Type
                         _______ _______ _______ _____ _____    ______ ____

>  <TORSDO>
F 7

$$$$
=
 OpenBabel11062419583D

 28 31  0  0  1  0  0  0  0  0999 V2000
  189.0090  176.1850  144.9950 C   0  0  2  0  0  3  0  0  0  0  0  0
  191.8080  173.8110  145.0650 C   0  0  0  0  0  0  0  0  0  0  0  0
  191.6120  171.8770  143.7090 N   0  0  0  0  0  0  0  0  0  0  0  0
  189.8840  173.5490  143.6380 C   0  0  0  0  0  3  0  0  0  0  0  0
  190.2970  175.5200  145.1470 N   0  0  0  0  0  0  0  0  0  0  0  0
  191.3130  175.8660  146.1500 C   0  0  1  0  0  3  0  0  0  0  0  0
  190.4200  172.3240  143.2070 C   0  0  0  0  0  0  0  0  0  0  0  0
  192.3700  174.7450  146.0870 C   0  0  2  0  0  3  0  0  0  0  0  0
  190.6180  174.2660  144.5810 C   0  0  0  0  0  0  0  0  0  0  0  0
  189.7190  171.5450  142.2460 N   0  0  0  0  0  1  0  0  0  0  0  0
  192.6580  176.1130  145.4850 C   0  0  2  0  0  3  0  0  0  0  0  0
  193.4740  176.8350  146.3550 O   0  0  0  0  0  1  0  0  0  0  0  0
  192.3200  172.5910  144.6320 C   0  0  0  0  0  3  0  0  0  0  0  0
  189.2100  177.5960  144.4570 C   0  0  0  0  0  2  0  0  0  0  0  0
  189.1020  177.6070  142.9670 C   0  0  0  0  0  3  0  0  0  0  0  0
  187.9910  177.9610  142.3230 C   0  0  0  0  0  0  0  0  0  0  0  0
  187.9780  177.9350  140.9350 O   0  0  0  0  0  1  0  0  0  0  0  0
  186.7470  178.3630  143.0520 C   0  0  0  0  0  2  0  0  0  0  0  0
  185.9890  175.9870  143.0460 O   0  0  0  0  0  1  0  0  0  0  0  0
  185.6870  177.3310  142.8760 C   0  0  0  0  0  0  0  0  0  0  0  0
  184.5090  177.6800  142.6030 O   0  0  0  0  0  0  0  0  0  0  0  0
  188.2760  176.2030  146.3330 C   0  0  0  0  0  2  0  0  0  0  0  0
  184.6540  177.5760  146.4090 C   0  0  0  0  0  2  0  0  0  0  0  0
  187.4010  178.2450  147.4670 C   0  0  0  0  0  2  0  0  0  0  0  0
  185.0460  178.9740  146.9060 C   0  0  0  0  0  2  0  0  0  0  0  0
  186.1140  178.8970  147.9930 C   0  0  0  0  0  2  0  0  0  0  0  0
  187.1590  177.2330  146.3400 C   0  0  0  0  0  3  0  0  0  0  0  0
  185.7980  176.5540  146.4880 C   0  0  0  0  0  2  0  0  0  0  0  0
  1 14  1  1  0  0  0
  1  5  1  0  0  0  0
  1 22  1  0  0  0  0
  3 13  2  0  0  0  0
  4  9  1  0  0  0  0
  6  5  1  6  0  0  0
  7  4  2  0  0  0  0
  7  3  1  0  0  0  0
  8  2  1  6  0  0  0
  8  6  1  0  0  0  0
  9  2  2  0  0  0  0
  9  5  1  0  0  0  0
 10  7  1  0  0  0  0
 11  8  1  0  0  0  0
 11  6  1  0  0  0  0
 11 12  1  1  0  0  0
 13  2  1  0  0  0  0
 15 14  1  0  0  0  0
 16 15  2  0  0  0  0
 16 18  1  0  0  0  0
 17 16  1  0  0  0  0
 20 19  1  0  0  0  0
 20 18  1  0  0  0  0
 21 20  2  0  0  0  0
 22 27  1  0  0  0  0
 23 28  1  0  0  0  0
 23 25  1  0  0  0  0
 24 26  1  0  0  0  0
 25 26  1  0  0  0  0
 27 28  1  0  0  0  0
 27 24  1  0  0  0  0
M  END
>  <MODEL>
2

>  <REMARK>
 VINA RESULT:      -7.0      2.236      5.031
  Name = 
  7 active torsions:
  status: ('A' for Active; 'I' for Inactive)
    1  A    between atoms: N_5  and  C_8
    2  A    between atoms: C_6  and  C_18
    3  A    between atoms: C_8  and  C_18
    4  A    between atoms: C_8  and  C_25
    5  A    between atoms: C_10  and  C_19
    6  A    between atoms: C_11  and  C_19
    7  A    between atoms: C_24  and  C_25
                            x       y       z     vdW  Elec       q    Type
                         _______ _______ _______ _____ _____    ______ ____

>  <TORSDO>
F 7

$$$$
=
 OpenBabel11062419583D

 28 31  0  0  1  0  0  0  0  0999 V2000
  188.4940  177.1750  143.9540 C   0  0  2  0  0  3  0  0  0  0  0  0
  185.0870  178.3910  144.5730 C   0  0  0  0  0  0  0  0  0  0  0  0
  183.6880  178.6810  142.6810 N   0  0  0  0  0  0  0  0  0  0  0  0
  185.8960  177.7740  142.3890 C   0  0  0  0  0  3  0  0  0  0  0  0
  187.2050  177.5430  144.5260 N   0  0  0  0  0  0  0  0  0  0  0  0
  186.9800  177.9170  145.9280 C   0  0  1  0  0  3  0  0  0  0  0  0
  184.6620  178.1830  141.8590 C   0  0  0  0  0  0  0  0  0  0  0  0
  185.5360  178.4570  145.9960 C   0  0  2  0  0  3  0  0  0  0  0  0
  186.0690  177.9010  143.7660 C   0  0  0  0  0  0  0  0  0  0  0  0
  184.4240  178.0800  140.4610 N   0  0  0  0  0  1  0  0  0  0  0  0
  185.8700  177.0730  146.5350 C   0  0  2  0  0  3  0  0  0  0  0  0
  185.9570  177.1300  147.9250 O   0  0  0  0  0  1  0  0  0  0  0  0
  183.8710  178.7980  144.0290 C   0  0  0  0  0  3  0  0  0  0  0  0
  188.6200  175.6590  143.8820 C   0  0  0  0  0  2  0  0  0  0  0  0
  188.8860  175.2220  142.4780 C   0  0  0  0  0  3  0  0  0  0  0  0
  189.7930  174.2980  142.1650 C   0  0  0  0  0  0  0  0  0  0  0  0
  189.9780  173.9590  140.8320 O   0  0  0  0  0  1  0  0  0  0  0  0
  190.6340  173.6310  143.2070 C   0  0  0  0  0  2  0  0  0  0  0  0
  189.5910  172.2390  144.9930 O   0  0  0  0  0  1  0  0  0  0  0  0
  189.9860  172.3720  143.6690 C   0  0  0  0  0  0  0  0  0  0  0  0
  189.7670  171.4400  142.8510 O   0  0  0  0  0  0  0  0  0  0  0  0
  189.6200  177.7840  144.7840 C   0  0  0  0  0  2  0  0  0  0  0  0
  192.7630  175.6700  145.5980 C   0  0  0  0  0  2  0  0  0  0  0  0
  190.3430  176.8360  146.9750 C   0  0  0  0  0  2  0  0  0  0  0  0
  192.2490  175.1760  146.9580 C   0  0  0  0  0  2  0  0  0  0  0  0
  191.5640  176.2980  147.7330 C   0  0  0  0  0  2  0  0  0  0  0  0
  190.4610  176.7090  145.4510 C   0  0  0  0  0  3  0  0  0  0  0  0
  191.9190  176.8040  145.0000 C   0  0  0  0  0  2  0  0  0  0  0  0
  1 14  1  1  0  0  0
  1  5  1  0  0  0  0
  1 22  1  0  0  0  0
  3 13  2  0  0  0  0
  4  9  1  0  0  0  0
  6  5  1  6  0  0  0
  6  8  1  0  0  0  0
  6 11  1  0  0  0  0
  7  4  2  0  0  0  0
  7  3  1  0  0  0  0
  8  2  1  6  0  0  0
  8 11  1  0  0  0  0
  9  5  1  0  0  0  0
  9  2  2  0  0  0  0
 10  7  1  0  0  0  0
 11 12  1  1  0  0  0
 13  2  1  0  0  0  0
 15 14  1  0  0  0  0
 16 15  2  0  0  0  0
 16 18  1  0  0  0  0
 17 16  1  0  0  0  0
 18 20  1  0  0  0  0
 20 19  1  0  0  0  0
 21 20  2  0  0  0  0
 22 27  1  0  0  0  0
 23 25  1  0  0  0  0
 24 26  1  0  0  0  0
 25 26  1  0  0  0  0
 27 24  1  0  0  0  0
 28 27  1  0  0  0  0
 28 23  1  0  0  0  0
M  END
>  <MODEL>
3

>  <REMARK>
 VINA RESULT:      -7.0      3.026      5.801
  Name = 
  7 active torsions:
  status: ('A' for Active; 'I' for Inactive)
    1  A    between atoms: N_5  and  C_8
    2  A    between atoms: C_6  and  C_18
    3  A    between atoms: C_8  and  C_18
    4  A    between atoms: C_8  and  C_25
    5  A    between atoms: C_10  and  C_19
    6  A    between atoms: C_11  and  C_19
    7  A    between atoms: C_24  and  C_25
                            x       y       z     vdW  Elec       q    Type
                         _______ _______ _______ _____ _____    ______ ____

>  <TORSDO>
F 7

$$$$
=
 OpenBabel11062419583D

 28 31  0  0  1  0  0  0  0  0999 V2000
  188.8010  176.9280  144.7730 C   0  0  2  0  0  3  0  0  0  0  0  0
  188.7730  174.6360  141.9060 C   0  0  0  0  0  0  0  0  0  0  0  0
  187.6770  175.3830  139.9420 N   0  0  0  0  0  0  0  0  0  0  0  0
  187.8530  176.8620  141.8310 C   0  0  0  0  0  3  0  0  0  0  0  0
  189.0610  175.8710  143.8040 N   0  0  0  0  0  0  0  0  0  0  0  0
  189.6180  174.5500  144.1250 C   0  0  1  0  0  3  0  0  0  0  0  0
  187.4290  176.5990  140.5180 C   0  0  0  0  0  0  0  0  0  0  0  0
  189.4730  173.7050  142.8420 C   0  0  2  0  0  3  0  0  0  0  0  0
  188.5260  175.8390  142.4960 C   0  0  0  0  0  0  0  0  0  0  0  0
  186.7360  177.6030  139.7860 N   0  0  0  0  0  1  0  0  0  0  0  0
  190.8310  174.2560  143.2550 C   0  0  2  0  0  3  0  0  0  0  0  0
  191.5800  173.2380  143.8410 O   0  0  0  0  0  1  0  0  0  0  0  0
  188.3380  174.3910  140.6060 C   0  0  0  0  0  3  0  0  0  0  0  0
  190.1150  177.4490  145.3410 C   0  0  0  0  0  2  0  0  0  0  0  0
  190.3730  176.8570  146.6880 C   0  0  0  0  0  3  0  0  0  0  0  0
  191.4690  176.1560  146.9750 C   0  0  0  0  0  0  0  0  0  0  0  0
  191.6220  175.6370  148.2530 O   0  0  0  0  0  1  0  0  0  0  0  0
  192.5300  175.8920  145.9520 C   0  0  0  0  0  2  0  0  0  0  0  0
  194.1030  177.4610  147.0840 O   0  0  0  0  0  1  0  0  0  0  0  0
  193.8740  176.2210  146.5040 C   0  0  0  0  0  0  0  0  0  0  0  0
  194.7940  175.3620  146.4730 O   0  0  0  0  0  0  0  0  0  0  0  0
  187.8900  176.4040  145.8780 C   0  0  0  0  0  2  0  0  0  0  0  0
  184.7430  178.2050  147.2410 C   0  0  0  0  0  2  0  0  0  0  0  0
  186.5570  178.2330  144.8280 C   0  0  0  0  0  2  0  0  0  0  0  0
  184.3410  178.8220  145.8930 C   0  0  0  0  0  2  0  0  0  0  0  0
  185.5590  179.3560  145.1440 C   0  0  0  0  0  2  0  0  0  0  0  0
  186.5330  177.0860  145.8480 C   0  0  0  0  0  3  0  0  0  0  0  0
  186.1500  177.5910  147.2390 C   0  0  0  0  0  2  0  0  0  0  0  0
  1 14  1  1  0  0  0
  1 22  1  0  0  0  0
  2  9  1  0  0  0  0
  3  7  2  0  0  0  0
  3 13  1  0  0  0  0
  4  9  2  0  0  0  0
  5  1  1  0  0  0  0
  6  5  1  6  0  0  0
  7  4  1  0  0  0  0
  8  2  1  6  0  0  0
  8 11  1  0  0  0  0
  8  6  1  0  0  0  0
  9  5  1  0  0  0  0
 10  7  1  0  0  0  0
 11 12  1  1  0  0  0
 11  6  1  0  0  0  0
 13  2  2  0  0  0  0
 14 15  1  0  0  0  0
 15 16  2  0  0  0  0
 16 17  1  0  0  0  0
 18 20  1  0  0  0  0
 18 16  1  0  0  0  0
 20 19  1  0  0  0  0
 21 20  2  0  0  0  0
 24 26  1  0  0  0  0
 24 27  1  0  0  0  0
 25 23  1  0  0  0  0
 26 25  1  0  0  0  0
 27 22  1  0  0  0  0
 27 28  1  0  0  0  0
 28 23  1  0  0  0  0
M  END
>  <MODEL>
4

>  <REMARK>
 VINA RESULT:      -7.0      3.479      5.925
  Name = 
  7 active torsions:
  status: ('A' for Active; 'I' for Inactive)
    1  A    between atoms: N_5  and  C_8
    2  A    between atoms: C_6  and  C_18
    3  A    between atoms: C_8  and  C_18
    4  A    between atoms: C_8  and  C_25
    5  A    between atoms: C_10  and  C_19
    6  A    between atoms: C_11  and  C_19
    7  A    between atoms: C_24  and  C_25
                            x       y       z     vdW  Elec       q    Type
                         _______ _______ _______ _____ _____    ______ ____

>  <TORSDO>
F 7

$$$$
=
 OpenBabel11062419583D

 28 31  0  0  1  0  0  0  0  0999 V2000
  189.5010  176.9350  144.5270 C   0  0  2  0  0  3  0  0  0  0  0  0
  188.4500  174.8730  141.6770 C   0  0  0  0  0  0  0  0  0  0  0  0
  189.1950  172.6230  141.6450 N   0  0  0  0  0  0  0  0  0  0  0  0
  189.7300  174.0170  143.5300 C   0  0  0  0  0  3  0  0  0  0  0  0
  188.8360  176.3630  143.3630 N   0  0  0  0  0  0  0  0  0  0  0  0
  188.1270  177.1340  142.3320 C   0  0  1  0  0  3  0  0  0  0  0  0
  189.7900  172.7810  142.8670 C   0  0  0  0  0  0  0  0  0  0  0  0
  187.8170  176.1380  141.1960 C   0  0  2  0  0  3  0  0  0  0  0  0
  189.0460  175.0480  142.8900 C   0  0  0  0  0  0  0  0  0  0  0  0
  190.4750  171.6890  143.4680 N   0  0  0  0  0  1  0  0  0  0  0  0
  186.7160  176.5990  142.1410 C   0  0  2  0  0  3  0  0  0  0  0  0
  185.9410  177.5670  141.5050 O   0  0  0  0  0  1  0  0  0  0  0  0
  188.5260  173.6420  141.0310 C   0  0  0  0  0  3  0  0  0  0  0  0
  188.5680  177.9080  145.2350 C   0  0  0  0  0  2  0  0  0  0  0  0
  187.6130  177.1690  146.1160 C   0  0  0  0  0  3  0  0  0  0  0  0
  186.4500  177.6810  146.5140 C   0  0  0  0  0  0  0  0  0  0  0  0
  185.6270  176.9250  147.3390 O   0  0  0  0  0  1  0  0  0  0  0  0
  186.0120  179.0560  146.1170 C   0  0  0  0  0  2  0  0  0  0  0  0
  184.4900  178.0340  144.4270 O   0  0  0  0  0  1  0  0  0  0  0  0
  185.3950  179.0330  144.7620 C   0  0  0  0  0  0  0  0  0  0  0  0
  185.6690  179.9370  143.9300 O   0  0  0  0  0  0  0  0  0  0  0  0
  190.7940  177.6220  144.0970 C   0  0  0  0  0  2  0  0  0  0  0  0
  192.7890  175.7220  146.8210 C   0  0  0  0  0  2  0  0  0  0  0  0
  192.7580  176.1070  143.8270 C   0  0  0  0  0  2  0  0  0  0  0  0
  193.9930  175.4120  145.9200 C   0  0  0  0  0  2  0  0  0  0  0  0
  193.5470  174.9890  144.5240 C   0  0  0  0  0  2  0  0  0  0  0  0
  192.0000  177.0210  144.7990 C   0  0  0  0  0  3  0  0  0  0  0  0
  191.5730  176.2610  146.0540 C   0  0  0  0  0  2  0  0  0  0  0  0
  1 22  1  6  0  0  0
  1 14  1  0  0  0  0
  2  9  1  0  0  0  0
  3  7  2  0  0  0  0
  5  1  1  0  0  0  0
  6  5  1  1  0  0  0
  7 10  1  0  0  0  0
  7  4  1  0  0  0  0
  8  2  1  1  0  0  0
  8 11  1  0  0  0  0
  8  6  1  0  0  0  0
  9  5  1  0  0  0  0
  9  4  2  0  0  0  0
 11 12  1  6  0  0  0
 11  6  1  0  0  0  0
 13  3  1  0  0  0  0
 13  2  2  0  0  0  0
 14 15  1  0  0  0  0
 15 16  2  0  0  0  0
 16 17  1  0  0  0  0
 18 16  1  0  0  0  0
 19 20  1  0  0  0  0
 20 18  1  0  0  0  0
 21 20  2  0  0  0  0
 22 27  1  0  0  0  0
 24 26  1  0  0  0  0
 24 27  1  0  0  0  0
 25 23  1  0  0  0  0
 26 25  1  0  0  0  0
 27 28  1  0  0  0  0
 28 23  1  0  0  0  0
M  END
>  <MODEL>
5

>  <REMARK>
 VINA RESULT:      -6.6      1.212      1.575
  Name = 
  7 active torsions:
  status: ('A' for Active; 'I' for Inactive)
    1  A    between atoms: N_5  and  C_8
    2  A    between atoms: C_6  and  C_18
    3  A    between atoms: C_8  and  C_18
    4  A    between atoms: C_8  and  C_25
    5  A    between atoms: C_10  and  C_19
    6  A    between atoms: C_11  and  C_19
    7  A    between atoms: C_24  and  C_25
                            x       y       z     vdW  Elec       q    Type
                         _______ _______ _______ _____ _____    ______ ____

>  <TORSDO>
F 7

$$$$
=
 OpenBabel11062419583D

 28 31  0  0  1  0  0  0  0  0999 V2000
  188.3210  176.7950  143.4360 C   0  0  2  0  0  3  0  0  0  0  0  0
  184.9970  178.1680  144.1730 C   0  0  0  0  0  0  0  0  0  0  0  0
  184.5850  178.8480  146.4060 N   0  0  0  0  0  0  0  0  0  0  0  0
  186.7710  178.0490  145.7990 C   0  0  0  0  0  3  0  0  0  0  0  0
  186.9910  177.3900  143.3810 N   0  0  0  0  0  0  0  0  0  0  0  0
  186.0670  177.2860  142.2430 C   0  0  1  0  0  3  0  0  0  0  0  0
  185.8750  178.5560  146.7550 C   0  0  0  0  0  0  0  0  0  0  0  0
  184.7180  177.8450  142.7410 C   0  0  2  0  0  3  0  0  0  0  0  0
  186.2830  177.8650  144.5070 C   0  0  0  0  0  0  0  0  0  0  0  0
  186.3130  178.7660  148.0920 N   0  0  0  0  0  1  0  0  0  0  0  0
  185.5980  178.6660  141.8080 C   0  0  2  0  0  3  0  0  0  0  0  0
  185.0890  178.5900  140.5130 O   0  0  0  0  0  1  0  0  0  0  0  0
  184.1210  178.6630  145.1350 C   0  0  0  0  0  3  0  0  0  0  0  0
  189.3570  177.8640  143.7600 C   0  0  0  0  0  2  0  0  0  0  0  0
  190.6870  177.2380  144.0260 C   0  0  0  0  0  3  0  0  0  0  0  0
  191.1030  176.9130  145.2490 C   0  0  0  0  0  0  0  0  0  0  0  0
  192.3590  176.3410  145.4030 O   0  0  0  0  0  1  0  0  0  0  0  0
  190.2670  177.1660  146.4640 C   0  0  0  0  0  2  0  0  0  0  0  0
  190.8160  175.2910  148.0130 O   0  0  0  0  0  1  0  0  0  0  0  0
  189.9210  175.8800  147.1310 C   0  0  0  0  0  0  0  0  0  0  0  0
  188.8020  175.3430  146.9200 O   0  0  0  0  0  0  0  0  0  0  0  0
  188.6340  176.1060  142.1120 C   0  0  0  0  0  2  0  0  0  0  0  0
  189.6560  172.4450  141.3610 C   0  0  0  0  0  2  0  0  0  0  0  0
  189.0760  174.2450  143.7140 C   0  0  0  0  0  2  0  0  0  0  0  0
  189.3160  171.9160  142.7610 C   0  0  0  0  0  2  0  0  0  0  0  0
  189.7750  172.8840  143.8470 C   0  0  0  0  0  2  0  0  0  0  0  0
  188.6850  174.5960  142.2720 C   0  0  0  0  0  3  0  0  0  0  0  0
  189.6590  173.9780  141.2690 C   0  0  0  0  0  2  0  0  0  0  0  0
  1 22  1  6  0  0  0
  1 14  1  0  0  0  0
  2  9  2  0  0  0  0
  2 13  1  0  0  0  0
  3  7  1  0  0  0  0
  4  7  2  0  0  0  0
  5  1  1  0  0  0  0
  5  9  1  0  0  0  0
  6  8  1  0  0  0  0
  6  5  1  1  0  0  0
  7 10  1  0  0  0  0
  8  2  1  1  0  0  0
  9  4  1  0  0  0  0
 11 12  1  6  0  0  0
 11  6  1  0  0  0  0
 11  8  1  0  0  0  0
 13  3  2  0  0  0  0
 14 15  1  0  0  0  0
 15 16  2  0  0  0  0
 16 17  1  0  0  0  0
 16 18  1  0  0  0  0
 18 20  1  0  0  0  0
 20 19  1  0  0  0  0
 21 20  2  0  0  0  0
 22 27  1  0  0  0  0
 23 25  1  0  0  0  0
 24 26  1  0  0  0  0
 25 26  1  0  0  0  0
 27 24  1  0  0  0  0
 28 23  1  0  0  0  0
 28 27  1  0  0  0  0
M  END
>  <MODEL>
6

>  <REMARK>
 VINA RESULT:      -6.5      2.786      5.611
  Name = 
  7 active torsions:
  status: ('A' for Active; 'I' for Inactive)
    1  A    between atoms: N_5  and  C_8
    2  A    between atoms: C_6  and  C_18
    3  A    between atoms: C_8  and  C_18
    4  A    between atoms: C_8  and  C_25
    5  A    between atoms: C_10  and  C_19
    6  A    between atoms: C_11  and  C_19
    7  A    between atoms: C_24  and  C_25
                            x       y       z     vdW  Elec       q    Type
                         _______ _______ _______ _____ _____    ______ ____

>  <TORSDO>
F 7

$$$$
=
 OpenBabel11062419583D

 28 31  0  0  1  0  0  0  0  0999 V2000
  189.0500  177.1060  143.7120 C   0  0  2  0  0  3  0  0  0  0  0  0
  185.5420  178.1850  143.6940 C   0  0  0  0  0  0  0  0  0  0  0  0
  184.4540  178.2720  141.5890 N   0  0  0  0  0  0  0  0  0  0  0  0
  186.7150  177.4610  141.7170 C   0  0  0  0  0  3  0  0  0  0  0  0
  187.6730  177.4460  144.0440 N   0  0  0  0  0  0  0  0  0  0  0  0
  187.2110  177.9050  145.3610 C   0  0  1  0  0  3  0  0  0  0  0  0
  185.5650  177.7690  140.9700 C   0  0  0  0  0  0  0  0  0  0  0  0
  185.7550  178.3730  145.1600 C   0  0  2  0  0  3  0  0  0  0  0  0
  186.6590  177.6920  143.0900 C   0  0  0  0  0  0  0  0  0  0  0  0
  185.5590  177.5570  139.5640 N   0  0  0  0  0  1  0  0  0  0  0  0
  186.0520  177.0490  145.8490 C   0  0  2  0  0  3  0  0  0  0  0  0
  185.9140  177.2060  147.2270 O   0  0  0  0  0  1  0  0  0  0  0  0
  184.4140  178.4910  142.9360 C   0  0  0  0  0  3  0  0  0  0  0  0
  189.2230  175.5930  143.6880 C   0  0  0  0  0  2  0  0  0  0  0  0
  190.2730  175.2030  142.6980 C   0  0  0  0  0  3  0  0  0  0  0  0
  190.0490  174.3430  141.7060 C   0  0  0  0  0  0  0  0  0  0  0  0
  191.0860  174.0330  140.8360 O   0  0  0  0  0  1  0  0  0  0  0  0
  188.7200  173.6840  141.5140 C   0  0  0  0  0  2  0  0  0  0  0  0
  188.1120  172.6300  139.3370 O   0  0  0  0  0  0  0  0  0  0  0  0
  188.2940  173.7820  140.0900 C   0  0  0  0  0  0  0  0  0  0  0  0
  188.0670  174.9090  139.5770 O   0  0  0  0  0  1  0  0  0  0  0  0
  189.9990  177.7560  144.7140 C   0  0  0  0  0  2  0  0  0  0  0  0
  192.7440  175.5800  146.3690 C   0  0  0  0  0  2  0  0  0  0  0  0
  190.2090  177.0470  147.0970 C   0  0  0  0  0  2  0  0  0  0  0  0
  191.9410  175.2900  147.6440 C   0  0  0  0  0  2  0  0  0  0  0  0
  191.2150  176.5370  148.1380 C   0  0  0  0  0  2  0  0  0  0  0  0
  190.6060  176.7250  145.6510 C   0  0  0  0  0  3  0  0  0  0  0  0
  192.1260  176.6780  145.4920 C   0  0  0  0  0  2  0  0  0  0  0  0
  1 14  1  1  0  0  0
  1  5  1  0  0  0  0
  1 22  1  0  0  0  0
  3 13  1  0  0  0  0
  4  9  2  0  0  0  0
  6  5  1  6  0  0  0
  6 11  1  0  0  0  0
  7  3  2  0  0  0  0
  7  4  1  0  0  0  0
  8  2  1  6  0  0  0
  8  6  1  0  0  0  0
  8 11  1  0  0  0  0
  9  2  1  0  0  0  0
  9  5  1  0  0  0  0
 10  7  1  0  0  0  0
 11 12  1  1  0  0  0
 13  2  2  0  0  0  0
 15 14  1  0  0  0  0
 16 15  2  0  0  0  0
 17 16  1  0  0  0  0
 18 16  1  0  0  0  0
 19 20  2  0  0  0  0
 20 18  1  0  0  0  0
 21 20  1  0  0  0  0
 22 27  1  0  0  0  0
 23 25  1  0  0  0  0
 24 26  1  0  0  0  0
 25 26  1  0  0  0  0
 27 24  1  0  0  0  0
 28 27  1  0  0  0  0
 28 23  1  0  0  0  0
M  END
>  <MODEL>
7

>  <REMARK>
 VINA RESULT:      -6.5      2.631      5.423
  Name = 
  7 active torsions:
  status: ('A' for Active; 'I' for Inactive)
    1  A    between atoms: N_5  and  C_8
    2  A    between atoms: C_6  and  C_18
    3  A    between atoms: C_8  and  C_18
    4  A    between atoms: C_8  and  C_25
    5  A    between atoms: C_10  and  C_19
    6  A    between atoms: C_11  and  C_19
    7  A    between atoms: C_24  and  C_25
                            x       y       z     vdW  Elec       q    Type
                         _______ _______ _______ _____ _____    ______ ____

>  <TORSDO>
F 7

$$$$
=
 OpenBabel11062419583D

 28 31  0  0  1  0  0  0  0  0999 V2000
  189.0710  176.6390  143.1330 C   0  0  2  0  0  3  0  0  0  0  0  0
  190.3400  175.9650  146.5110 C   0  0  0  0  0  0  0  0  0  0  0  0
  192.6830  176.1230  146.8310 N   0  0  0  0  0  0  0  0  0  0  0  0
  191.7460  176.6650  144.6830 C   0  0  0  0  0  3  0  0  0  0  0  0
  189.2420  176.4380  144.5660 N   0  0  0  0  0  0  0  0  0  0  0  0
  188.1980  175.9590  145.4820 C   0  0  1  0  0  3  0  0  0  0  0  0
  192.8540  176.5330  145.5370 C   0  0  0  0  0  0  0  0  0  0  0  0
  188.9090  175.6700  146.8210 C   0  0  2  0  0  3  0  0  0  0  0  0
  190.4950  176.3640  145.2170 C   0  0  0  0  0  0  0  0  0  0  0  0
  194.1580  176.8250  145.0510 N   0  0  0  0  0  1  0  0  0  0  0  0
  188.0410  176.9110  146.6580 C   0  0  2  0  0  3  0  0  0  0  0  0
  186.8060  176.6910  147.2650 O   0  0  0  0  0  1  0  0  0  0  0  0
  191.4500  175.8330  147.3400 C   0  0  0  0  0  3  0  0  0  0  0  0
  188.5020  178.0260  142.8650 C   0  0  0  0  0  2  0  0  0  0  0  0
  187.3250  177.9400  141.9480 C   0  0  0  0  0  3  0  0  0  0  0  0
  186.1600  178.5310  142.2070 C   0  0  0  0  0  0  0  0  0  0  0  0
  185.1170  178.3910  141.3000 O   0  0  0  0  0  1  0  0  0  0  0  0
  185.9330  179.3210  143.4570 C   0  0  0  0  0  2  0  0  0  0  0  0
  185.1300  177.1730  144.4360 O   0  0  0  0  0  0  0  0  0  0  0  0
  185.0680  178.5590  144.4010 C   0  0  0  0  0  0  0  0  0  0  0  0
  184.3050  179.1740  145.1910 O   0  0  0  0  0  1  0  0  0  0  0  0
  188.1670  175.5510  142.5630 C   0  0  0  0  0  2  0  0  0  0  0  0
  189.7180  172.0330  142.0850 C   0  0  0  0  0  2  0  0  0  0  0  0
  188.5270  174.2740  140.4500 C   0  0  0  0  0  2  0  0  0  0  0  0
  189.9480  172.1860  140.5750 C   0  0  0  0  0  2  0  0  0  0  0  0
  188.7570  172.8590  139.8990 C   0  0  0  0  0  2  0  0  0  0  0  0
  188.9760  174.4450  141.9080 C   0  0  0  0  0  3  0  0  0  0  0  0
  188.8360  173.1370  142.6860 C   0  0  0  0  0  2  0  0  0  0  0  0
  1 22  1  1  0  0  0
  1  5  1  0  0  0  0
  2 13  1  0  0  0  0
  3 13  2  0  0  0  0
  4  9  1  0  0  0  0
  4  7  2  0  0  0  0
  5  9  1  0  0  0  0
  6  5  1  6  0  0  0
  6 11  1  0  0  0  0
  6  8  1  0  0  0  0
  7  3  1  0  0  0  0
  8  2  1  6  0  0  0
  9  2  2  0  0  0  0
 10  7  1  0  0  0  0
 11  8  1  0  0  0  0
 11 12  1  1  0  0  0
 14  1  1  0  0  0  0
 15 16  2  0  0  0  0
 15 14  1  0  0  0  0
 16 18  1  0  0  0  0
 17 16  1  0  0  0  0
 18 20  1  0  0  0  0
 20 19  2  0  0  0  0
 20 21  1  0  0  0  0
 23 28  1  0  0  0  0
 24 27  1  0  0  0  0
 25 23  1  0  0  0  0
 26 24  1  0  0  0  0
 26 25  1  0  0  0  0
 27 22  1  0  0  0  0
 27 28  1  0  0  0  0
M  END
>  <MODEL>
8

>  <REMARK>
 VINA RESULT:      -6.4      2.144      5.158
  Name = 
  7 active torsions:
  status: ('A' for Active; 'I' for Inactive)
    1  A    between atoms: N_5  and  C_8
    2  A    between atoms: C_6  and  C_18
    3  A    between atoms: C_8  and  C_18
    4  A    between atoms: C_8  and  C_25
    5  A    between atoms: C_10  and  C_19
    6  A    between atoms: C_11  and  C_19
    7  A    between atoms: C_24  and  C_25
                            x       y       z     vdW  Elec       q    Type
                         _______ _______ _______ _____ _____    ______ ____

>  <TORSDO>
F 7

$$$$
=
 OpenBabel11062419583D

 28 31  0  0  1  0  0  0  0  0999 V2000
  188.5360  176.6150  143.4640 C   0  0  2  0  0  3  0  0  0  0  0  0
  185.2330  178.0030  144.2640 C   0  0  0  0  0  0  0  0  0  0  0  0
  184.8750  178.7060  146.4990 N   0  0  0  0  0  0  0  0  0  0  0  0
  187.0450  177.8970  145.8500 C   0  0  0  0  0  3  0  0  0  0  0  0
  187.2070  177.2120  143.4340 N   0  0  0  0  0  0  0  0  0  0  0  0
  186.2560  177.0980  142.3200 C   0  0  1  0  0  3  0  0  0  0  0  0
  186.1730  178.4160  146.8210 C   0  0  0  0  0  0  0  0  0  0  0  0
  184.9200  177.6650  142.8430 C   0  0  2  0  0  3  0  0  0  0  0  0
  186.5260  177.7000  144.5720 C   0  0  0  0  0  0  0  0  0  0  0  0
  186.6420  178.6380  148.1450 N   0  0  0  0  0  1  0  0  0  0  0  0
  185.7790  178.4740  141.8810 C   0  0  2  0  0  3  0  0  0  0  0  0
  185.2400  178.3860  140.5990 O   0  0  0  0  0  1  0  0  0  0  0  0
  184.3810  178.5100  145.2420 C   0  0  0  0  0  3  0  0  0  0  0  0
  189.5970  177.7070  143.4900 C   0  0  0  0  0  2  0  0  0  0  0  0
  190.5490  177.4840  144.6200 C   0  0  0  0  0  3  0  0  0  0  0  0
  191.7670  176.9710  144.4510 C   0  0  0  0  0  0  0  0  0  0  0  0
  192.5820  176.7920  145.5610 O   0  0  0  0  0  1  0  0  0  0  0  0
  192.2740  176.5610  143.1050 C   0  0  0  0  0  2  0  0  0  0  0  0
  194.7320  176.1530  143.1940 O   0  0  0  0  0  0  0  0  0  0  0  0
  193.4410  175.6460  143.2470 C   0  0  0  0  0  0  0  0  0  0  0  0
  193.2560  174.4170  143.4480 O   0  0  0  0  0  1  0  0  0  0  0  0
  188.7170  175.6960  142.2590 C   0  0  0  0  0  2  0  0  0  0  0  0
  190.4960  172.2550  142.2620 C   0  0  0  0  0  2  0  0  0  0  0  0
  189.3100  174.2430  144.1990 C   0  0  0  0  0  2  0  0  0  0  0  0
  190.0970  171.8940  143.7000 C   0  0  0  0  0  2  0  0  0  0  0  0
  190.2320  173.0950  144.6310 C   0  0  0  0  0  2  0  0  0  0  0  0
  189.0340  174.2740  142.6900 C   0  0  0  0  0  3  0  0  0  0  0  0
  190.2200  173.7210  141.8990 C   0  0  0  0  0  2  0  0  0  0  0  0
  1 22  1  6  0  0  0
  1 14  1  0  0  0  0
  2  9  2  0  0  0  0
  2 13  1  0  0  0  0
  3  7  1  0  0  0  0
  4  7  2  0  0  0  0
  5  1  1  0  0  0  0
  5  9  1  0  0  0  0
  6  8  1  0  0  0  0
  6  5  1  1  0  0  0
  7 10  1  0  0  0  0
  8  2  1  1  0  0  0
  9  4  1  0  0  0  0
 11 12  1  6  0  0  0
 11  6  1  0  0  0  0
 11  8  1  0  0  0  0
 13  3  2  0  0  0  0
 14 15  1  0  0  0  0
 16 15  2  0  0  0  0
 16 17  1  0  0  0  0
 18 20  1  0  0  0  0
 18 16  1  0  0  0  0
 19 20  2  0  0  0  0
 20 21  1  0  0  0  0
 22 27  1  0  0  0  0
 23 25  1  0  0  0  0
 24 26  1  0  0  0  0
 25 26  1  0  0  0  0
 27 24  1  0  0  0  0
 28 23  1  0  0  0  0
 28 27  1  0  0  0  0
M  END
>  <MODEL>
9

>  <REMARK>
 VINA RESULT:      -6.4      3.392      6.039
  Name = 
  7 active torsions:
  status: ('A' for Active; 'I' for Inactive)
    1  A    between atoms: N_5  and  C_8
    2  A    between atoms: C_6  and  C_18
    3  A    between atoms: C_8  and  C_18
    4  A    between atoms: C_8  and  C_25
    5  A    between atoms: C_10  and  C_19
    6  A    between atoms: C_11  and  C_19
    7  A    between atoms: C_24  and  C_25
                            x       y       z     vdW  Elec       q    Type
                         _______ _______ _______ _____ _____    ______ ____

>  <TORSDO>
F 7

$$$$
