=
 OpenBabel11062420543D

 50 56  0  0  1  0  0  0  0  0999 V2000
  188.8470  176.7350  141.9520 N   0  0  0  0  0  2  0  0  0  0  0  0
  190.0500  174.5200  142.0230 C   0  0  0  0  0  0  0  0  0  0  0  0
  189.7530  175.9560  142.5300 C   0  0  2  0  0  3  0  0  0  0  0  0
  190.3700  176.2910  143.8910 C   0  0  0  0  0  2  0  0  0  0  0  0
  191.8810  171.7490  144.2190 C   0  0  0  0  0  2  0  0  0  0  0  0
  191.0130  174.0110  144.3590 C   0  0  2  0  0  3  0  0  0  0  0  0
  191.8650  175.7000  145.7500 O   0  0  0  0  0  0  0  0  0  0  0  0
  190.8200  173.5960  143.0060 N   0  0  0  0  0  0  0  0  0  0  0  0
  192.8970  174.9380  146.4270 C   0  0  0  0  0  2  0  0  0  0  0  0
  193.3280  173.6460  145.6630 C   0  0  1  0  0  3  0  0  0  0  0  0
  191.5300  175.3510  144.3870 C   0  0  2  0  0  3  0  0  0  0  0  0
  189.9790  174.2050  140.8170 O   0  0  0  0  0  0  0  0  0  0  0  0
  191.0730  172.1300  142.9320 C   0  0  1  0  0  3  0  0  0  0  0  0
  192.0260  173.0860  144.9910 C   0  0  2  0  0  3  0  0  0  0  0  0
  191.8450  171.8300  141.6690 C   0  0  0  0  0  3  0  0  0  0  0  0
  190.9420  171.0530  140.6660 C   0  0  0  0  0  2  0  0  0  0  0  0
  192.0380  170.2940  141.4640 C   0  0  0  0  0  2  0  0  0  0  0  0
  194.3510  174.0010  144.7890 O   0  0  0  0  0  0  0  0  0  0  0  0
  196.2620  174.3630  146.0400 O   0  0  0  0  0  1  0  0  0  0  0  0
  195.6070  173.5300  145.1110 C   0  0  1  0  0  0  0  0  0  0  0  0
  195.4090  172.2220  145.7390 O   0  0  0  0  0  0  0  0  0  0  0  0
  195.8750  171.1580  144.9350 C   0  0  0  0  0  1  0  0  0  0  0  0
  196.4470  173.3300  143.7590 C   0  0  0  0  0  2  0  0  0  0  0  0
  197.7630  174.0370  143.5820 C   0  0  0  0  0  2  0  0  0  0  0  0
  197.4840  175.4770  142.4640 S   0  0  0  0  0  0  0  0  0  0  0  0
  195.3830  176.6110  141.1630 C   0  0  0  0  0  2  0  0  0  0  0  0
  195.8750  175.2880  141.4670 C   0  0  2  0  0  3  0  0  0  0  0  0
  194.5500  175.7170  141.9870 N   0  0  0  0  0  0  0  0  0  0  0  0
  193.5030  175.1980  141.0630 C   0  0  0  0  0  1  0  0  0  0  0  0
  187.7360  176.2090  141.0270 C   0  0  0  0  0  2  0  0  0  0  0  0
  186.9560  177.4770  140.2850 C   0  0  2  0  0  3  0  0  0  0  0  0
  185.5500  177.5760  140.6430 O   0  0  0  0  0  0  0  0  0  0  0  0
  185.0200  178.2960  141.6900 C   0  0  0  0  0  0  0  0  0  0  0  0
  185.0240  179.1730  143.7130 C   0  0  2  0  0  3  0  0  0  0  0  0
  183.6550  178.6050  143.5020 N   0  0  0  0  0  0  0  0  0  0  0  0
  185.8410  178.8470  142.5860 N   0  0  0  0  0  0  0  0  0  0  0  0
  183.6520  178.1960  142.2710 C   0  0  0  0  0  0  0  0  0  0  0  0
  182.4050  177.8330  141.5540 O   0  0  0  0  0  0  0  0  0  0  0  0
  180.4280  178.2170  140.1520 C   0  0  0  0  0  2  0  0  0  0  0  0
  179.0840  178.9730  140.0630 C   0  0  0  0  0  2  0  0  0  0  0  0
  178.3940  179.1930  141.3550 N   0  0  0  0  0  2  0  0  0  0  0  0
  180.6270  179.3690  142.3660 C   0  0  0  0  0  2  0  0  0  0  0  0
  181.4250  178.8100  141.1500 C   0  0  0  0  0  3  0  0  0  0  0  0
  179.2180  178.7550  142.4860 C   0  0  0  0  0  2  0  0  0  0  0  0
  185.7480  179.2690  145.4400 S   0  0  0  0  0  0  0  0  0  0  0  0
  186.9140  176.5510  144.9460 N   0  0  0  0  0  0  0  0  0  0  0  0
  186.4040  177.6360  145.1650 C   0  0  0  0  0  0  0  0  0  0  0  0
  186.6360  177.0910  138.7770 C   0  0  0  0  0  2  0  0  0  0  0  0
  186.9980  175.7670  138.0850 C   0  0  0  0  0  3  0  0  0  0  0  0
  186.9600  175.6950  136.8170 O   0  0  0  0  0  0  0  0  0  0  0  0
  2  3  1  0  0  0  0
  2  8  1  0  0  0  0
  3  1  1  1  0  0  0
  3  4  1  0  0  0  0
  6  8  1  6  0  0  0
  6 11  1  0  0  0  0
  6 14  1  0  0  0  0
  7  9  1  0  0  0  0
 10 18  1  6  0  0  0
 10  9  1  0  0  0  0
 11  4  1  1  0  0  0
 11  7  1  0  0  0  0
 12  2  2  0  0  0  0
 13 15  1  6  0  0  0
 13  8  1  0  0  0  0
 13  5  1  0  0  0  0
 14  5  1  6  0  0  0
 14 10  1  0  0  0  0
 16 17  1  0  0  0  0
 16 15  1  0  0  0  0
 17 15  1  0  0  0  0
 18 20  1  0  0  0  0
 20 21  1  0  0  0  0
 20 19  1  1  0  0  0
 22 21  1  0  0  0  0
 23 20  1  0  0  0  0
 24 23  1  0  0  0  0
 25 24  1  0  0  0  0
 26 27  1  0  0  0  0
 26 28  1  0  0  0  0
 27 28  1  0  0  0  0
 27 25  1  1  0  0  0
 29 28  1  0  0  0  0
 30  1  1  0  0  0  0
 31 48  1  6  0  0  0
 31 32  1  0  0  0  0
 31 30  1  0  0  0  0
 32 33  1  0  0  0  0
 33 37  1  0  0  0  0
 33 36  2  0  0  0  0
 34 45  1  1  0  0  0
 35 34  1  0  0  0  0
 36 34  1  0  0  0  0
 37 35  2  0  0  0  0
 38 37  1  0  0  0  0
 39 43  1  0  0  0  0
 40 39  1  0  0  0  0
 40 41  1  0  0  0  0
 41 44  1  0  0  0  0
 42 44  1  0  0  0  0
 43 38  1  0  0  0  0
 43 42  1  0  0  0  0
 46 47  3  0  0  0  0
 47 45  1  0  0  0  0
 49 48  1  0  0  0  0
 50 49  2  0  0  0  0
M  END
>  <MODEL>
1

>  <REMARK>
 VINA RESULT:      -6.1      0.000      0.000
  Name = 
  18 active torsions:
  status: ('A' for Active; 'I' for Inactive)
    1  A    between atoms: N_1  and  C_33
    2  A    between atoms: C_8  and  O_34
    3  A    between atoms: C_9  and  S_21
    4  A    between atoms: S_10  and  C_11
    5  A    between atoms: S_10  and  C_26
    6  A    between atoms: C_13  and  C_23
    7  A    between atoms: C_15  and  C_39
    8  A    between atoms: S_21  and  C_47
    9  A    between atoms: C_23  and  C_28
   10  A    between atoms: O_25  and  C_43
   11  A    between atoms: C_27  and  O_44
   12  A    between atoms: C_28  and  C_33
   13  A    between atoms: C_28  and  O_34
   14  A    between atoms: C_32  and  C_43
   15  A    between atoms: C_32  and  C_47
   16  A    between atoms: C_41  and  O_49
   17  A    between atoms: C_43  and  O_44
   18  A    between atoms: C_48  and  O_49
                            x       y       z     vdW  Elec       q    Type
                         _______ _______ _______ _____ _____    ______ ____

>  <TORSDO>
F 18

$$$$
=
 OpenBabel11062420543D

 50 56  0  0  1  0  0  0  0  0999 V2000
  190.2100  171.3340  142.5680 N   0  0  0  0  0  2  0  0  0  0  0  0
  189.2320  173.6360  142.2380 C   0  0  0  0  0  0  0  0  0  0  0  0
  189.8220  172.4870  143.0990 C   0  0  2  0  0  3  0  0  0  0  0  0
  190.1750  172.8840  144.5350 C   0  0  0  0  0  2  0  0  0  0  0  0
  189.0380  177.4200  143.4580 C   0  0  0  0  0  2  0  0  0  0  0  0
  189.8810  175.2490  144.1400 C   0  0  2  0  0  3  0  0  0  0  0  0
  190.1090  174.5270  146.3620 O   0  0  0  0  0  0  0  0  0  0  0  0
  189.1940  175.0370  142.9050 N   0  0  0  0  0  0  0  0  0  0  0  0
  189.6820  175.7360  147.0390 C   0  0  0  0  0  2  0  0  0  0  0  0
  188.8330  176.6940  146.1430 C   0  0  1  0  0  3  0  0  0  0  0  0
  189.5300  174.2150  145.0740 C   0  0  2  0  0  3  0  0  0  0  0  0
  188.5430  173.4250  141.2180 O   0  0  0  0  0  0  0  0  0  0  0  0
  188.9030  176.3690  142.3050 C   0  0  1  0  0  3  0  0  0  0  0  0
  189.4360  176.5790  144.6980 C   0  0  2  0  0  3  0  0  0  0  0  0
  187.5120  176.3470  141.7170 C   0  0  0  0  0  3  0  0  0  0  0  0
  187.5920  176.2460  140.1650 C   0  0  0  0  0  2  0  0  0  0  0  0
  187.2410  177.6050  140.8330 C   0  0  0  0  0  2  0  0  0  0  0  0
  187.5010  176.3110  146.2700 O   0  0  0  0  0  0  0  0  0  0  0  0
  185.5510  176.7860  147.4180 O   0  0  0  0  0  1  0  0  0  0  0  0
  186.6290  177.3010  146.6710 C   0  0  1  0  0  0  0  0  0  0  0  0
  187.3930  178.1990  147.5410 O   0  0  0  0  0  0  0  0  0  0  0  0
  186.5910  179.2100  148.1160 C   0  0  0  0  0  1  0  0  0  0  0  0
  186.1490  178.1230  145.3780 C   0  0  0  0  0  2  0  0  0  0  0  0
  185.3140  177.4460  144.3270 C   0  0  0  0  0  2  0  0  0  0  0  0
  184.6270  178.7520  143.2230 S   0  0  0  0  0  0  0  0  0  0  0  0
  183.7880  178.3580  140.6660 C   0  0  0  0  0  2  0  0  0  0  0  0
  183.3500  178.0400  142.0040 C   0  0  2  0  0  3  0  0  0  0  0  0
  182.5000  178.8960  141.1380 N   0  0  0  0  0  0  0  0  0  0  0  0
  181.4630  178.0300  140.5110 C   0  0  0  0  0  1  0  0  0  0  0  0
  190.5080  171.1440  141.0700 C   0  0  0  0  0  2  0  0  0  0  0  0
  192.0450  171.6750  140.7180 C   0  0  2  0  0  3  0  0  0  0  0  0
  192.1000  173.0840  140.3630 O   0  0  0  0  0  0  0  0  0  0  0  0
  193.2200  173.8840  140.3590 C   0  0  0  0  0  0  0  0  0  0  0  0
  194.9860  174.8400  139.4500 C   0  0  2  0  0  3  0  0  0  0  0  0
  195.4130  174.3690  140.8060 N   0  0  0  0  0  0  0  0  0  0  0  0
  193.6450  174.4070  139.2080 N   0  0  0  0  0  0  0  0  0  0  0  0
  194.3290  173.9110  141.3530 C   0  0  0  0  0  0  0  0  0  0  0  0
  194.2320  173.6150  142.8030 O   0  0  0  0  0  0  0  0  0  0  0  0
  193.7480  174.0330  145.1730 C   0  0  0  0  0  2  0  0  0  0  0  0
  193.4460  175.1320  146.2130 C   0  0  0  0  0  2  0  0  0  0  0  0
  194.1010  176.4380  145.9640 N   0  0  0  0  0  2  0  0  0  0  0  0
  193.8590  175.9500  143.5670 C   0  0  0  0  0  2  0  0  0  0  0  0
  193.4920  174.4440  143.7210 C   0  0  0  0  0  3  0  0  0  0  0  0
  194.8050  176.4490  144.6780 C   0  0  0  0  0  2  0  0  0  0  0  0
  196.2350  174.9510  138.0560 S   0  0  0  0  0  0  0  0  0  0  0  0
  193.9860  175.6980  136.2200 N   0  0  0  0  0  0  0  0  0  0  0  0
  194.8750  175.3600  136.9810 C   0  0  0  0  0  0  0  0  0  0  0  0
  192.4460  171.1990  139.2550 C   0  0  0  0  0  2  0  0  0  0  0  0
  191.5550  171.2690  138.0050 C   0  0  0  0  0  3  0  0  0  0  0  0
  191.6960  170.3990  137.0890 O   0  0  0  0  0  0  0  0  0  0  0  0
  2  8  1  0  0  0  0
  2  3  1  0  0  0  0
  3  1  1  6  0  0  0
  3  4  1  0  0  0  0
  6  8  1  6  0  0  0
  6 14  1  0  0  0  0
  6 11  1  0  0  0  0
  7  9  1  0  0  0  0
 10 18  1  6  0  0  0
 10  9  1  0  0  0  0
 11  4  1  6  0  0  0
 11  7  1  0  0  0  0
 12  2  2  0  0  0  0
 13 15  1  1  0  0  0
 13  8  1  0  0  0  0
 13  5  1  0  0  0  0
 14  5  1  6  0  0  0
 14 10  1  0  0  0  0
 16 17  1  0  0  0  0
 16 15  1  0  0  0  0
 17 15  1  0  0  0  0
 18 20  1  0  0  0  0
 20 19  1  1  0  0  0
 20 21  1  0  0  0  0
 21 22  1  0  0  0  0
 23 20  1  0  0  0  0
 24 23  1  0  0  0  0
 25 24  1  0  0  0  0
 26 28  1  0  0  0  0
 26 27  1  0  0  0  0
 27 25  1  1  0  0  0
 28 27  1  0  0  0  0
 29 28  1  0  0  0  0
 30  1  1  0  0  0  0
 31 48  1  6  0  0  0
 31 30  1  0  0  0  0
 32 31  1  0  0  0  0
 33 32  1  0  0  0  0
 33 37  1  0  0  0  0
 34 45  1  6  0  0  0
 34 35  1  0  0  0  0
 35 37  2  0  0  0  0
 36 34  1  0  0  0  0
 36 33  2  0  0  0  0
 37 38  1  0  0  0  0
 38 43  1  0  0  0  0
 39 40  1  0  0  0  0
 41 40  1  0  0  0  0
 42 43  1  0  0  0  0
 42 44  1  0  0  0  0
 43 39  1  0  0  0  0
 44 41  1  0  0  0  0
 46 47  3  0  0  0  0
 47 45  1  0  0  0  0
 49 48  1  0  0  0  0
 50 49  2  0  0  0  0
M  END
>  <MODEL>
2

>  <REMARK>
 VINA RESULT:      -6.1      2.711      9.892
  Name = 
  18 active torsions:
  status: ('A' for Active; 'I' for Inactive)
    1  A    between atoms: N_1  and  C_33
    2  A    between atoms: C_8  and  O_34
    3  A    between atoms: C_9  and  S_21
    4  A    between atoms: S_10  and  C_11
    5  A    between atoms: S_10  and  C_26
    6  A    between atoms: C_13  and  C_23
    7  A    between atoms: C_15  and  C_39
    8  A    between atoms: S_21  and  C_47
    9  A    between atoms: C_23  and  C_28
   10  A    between atoms: O_25  and  C_43
   11  A    between atoms: C_27  and  O_44
   12  A    between atoms: C_28  and  C_33
   13  A    between atoms: C_28  and  O_34
   14  A    between atoms: C_32  and  C_43
   15  A    between atoms: C_32  and  C_47
   16  A    between atoms: C_41  and  O_49
   17  A    between atoms: C_43  and  O_44
   18  A    between atoms: C_48  and  O_49
                            x       y       z     vdW  Elec       q    Type
                         _______ _______ _______ _____ _____    ______ ____

>  <TORSDO>
F 18

$$$$
=
 OpenBabel11062420543D

 50 56  0  0  1  0  0  0  0  0999 V2000
  193.0990  169.7230  144.1200 N   0  0  0  0  0  2  0  0  0  0  0  0
  191.7070  171.5440  143.0670 C   0  0  0  0  0  0  0  0  0  0  0  0
  192.6760  170.9810  144.1410 C   0  0  2  0  0  3  0  0  0  0  0  0
  193.3150  172.0420  145.0410 C   0  0  0  0  0  2  0  0  0  0  0  0
  191.2170  175.4330  142.3730 C   0  0  0  0  0  2  0  0  0  0  0  0
  192.5480  173.8970  143.6980 C   0  0  2  0  0  3  0  0  0  0  0  0
  193.4510  174.3720  145.8130 O   0  0  0  0  0  0  0  0  0  0  0  0
  191.6130  173.0910  142.9790 N   0  0  0  0  0  0  0  0  0  0  0  0
  193.0200  175.7510  145.9400 C   0  0  0  0  0  2  0  0  0  0  0  0
  191.8260  176.1260  145.0050 C   0  0  1  0  0  3  0  0  0  0  0  0
  192.6210  173.4550  145.0630 C   0  0  2  0  0  3  0  0  0  0  0  0
  190.8240  170.8460  142.5270 O   0  0  0  0  0  0  0  0  0  0  0  0
  190.9650  173.9480  141.9460 C   0  0  1  0  0  3  0  0  0  0  0  0
  192.0500  175.3220  143.6760 C   0  0  2  0  0  3  0  0  0  0  0  0
  189.4930  173.6160  141.8890 C   0  0  0  0  0  3  0  0  0  0  0  0
  189.1400  173.0010  140.5030 C   0  0  0  0  0  2  0  0  0  0  0  0
  188.7500  174.4730  140.8160 C   0  0  0  0  0  2  0  0  0  0  0  0
  190.6520  175.8350  145.6930 O   0  0  0  0  0  0  0  0  0  0  0  0
  190.0270  177.5300  147.1350 O   0  0  0  0  0  1  0  0  0  0  0  0
  189.7970  176.8980  145.8970 C   0  0  1  0  0  0  0  0  0  0  0  0
  190.0810  177.8670  144.8360 O   0  0  0  0  0  0  0  0  0  0  0  0
  189.0680  177.9070  143.8520 C   0  0  0  0  0  1  0  0  0  0  0  0
  188.2850  176.3860  145.7350 C   0  0  0  0  0  2  0  0  0  0  0  0
  187.3990  176.2690  146.9450 C   0  0  0  0  0  2  0  0  0  0  0  0
  185.9370  177.3610  146.6820 S   0  0  0  0  0  0  0  0  0  0  0  0
  185.5730  179.1030  144.6260 C   0  0  0  0  0  2  0  0  0  0  0  0
  185.6210  177.6750  144.8320 C   0  0  2  0  0  3  0  0  0  0  0  0
  184.3740  178.3010  144.3230 N   0  0  0  0  0  0  0  0  0  0  0  0
  184.3600  178.1640  142.8400 C   0  0  0  0  0  1  0  0  0  0  0  0
  193.0310  168.8220  142.8740 C   0  0  0  0  0  2  0  0  0  0  0  0
  194.5230  168.7410  142.1410 C   0  0  2  0  0  3  0  0  0  0  0  0
  195.3570  169.9030  142.4050 O   0  0  0  0  0  0  0  0  0  0  0  0
  196.4680  169.9460  143.2150 C   0  0  0  0  0  0  0  0  0  0  0  0
  197.6960  169.3640  144.9520 C   0  0  2  0  0  3  0  0  0  0  0  0
  197.8090  170.8530  144.8360 N   0  0  0  0  0  0  0  0  0  0  0  0
  196.7630  168.8920  143.9760 N   0  0  0  0  0  0  0  0  0  0  0  0
  197.1680  171.1500  143.7480 C   0  0  0  0  0  0  0  0  0  0  0  0
  197.2750  172.4770  143.0950 O   0  0  0  0  0  0  0  0  0  0  0  0
  196.8100  174.6250  144.1900 C   0  0  0  0  0  2  0  0  0  0  0  0
  196.0860  175.9790  144.0310 C   0  0  0  0  0  2  0  0  0  0  0  0
  196.0140  176.5000  142.6460 N   0  0  0  0  0  2  0  0  0  0  0  0
  195.8770  174.1580  141.9140 C   0  0  0  0  0  2  0  0  0  0  0  0
  196.2910  173.5150  143.2720 C   0  0  0  0  0  3  0  0  0  0  0  0
  196.5380  175.5310  141.6790 C   0  0  0  0  0  2  0  0  0  0  0  0
  197.8500  168.5370  146.6270 S   0  0  0  0  0  0  0  0  0  0  0  0
  194.9770  169.2910  147.0330 N   0  0  0  0  0  0  0  0  0  0  0  0
  196.1390  168.9500  146.8960 C   0  0  0  0  0  0  0  0  0  0  0  0
  194.3720  169.0890  140.5980 C   0  0  0  0  0  2  0  0  0  0  0  0
  193.0800  169.5280  139.8910 C   0  0  0  0  0  3  0  0  0  0  0  0
  192.9190  169.2550  138.6600 O   0  0  0  0  0  0  0  0  0  0  0  0
  2  3  1  0  0  0  0
  3  1  1  6  0  0  0
  3  4  1  0  0  0  0
  6  8  1  6  0  0  0
  6 11  1  0  0  0  0
  7  9  1  0  0  0  0
  8  2  1  0  0  0  0
 10 18  1  1  0  0  0
 10  9  1  0  0  0  0
 11  4  1  6  0  0  0
 11  7  1  0  0  0  0
 12  2  2  0  0  0  0
 13 15  1  1  0  0  0
 13  5  1  0  0  0  0
 13  8  1  0  0  0  0
 14  5  1  1  0  0  0
 14  6  1  0  0  0  0
 14 10  1  0  0  0  0
 16 17  1  0  0  0  0
 16 15  1  0  0  0  0
 17 15  1  0  0  0  0
 18 20  1  0  0  0  0
 20 19  1  1  0  0  0
 21 20  1  0  0  0  0
 22 21  1  0  0  0  0
 23 20  1  0  0  0  0
 23 24  1  0  0  0  0
 25 24  1  0  0  0  0
 26 27  1  0  0  0  0
 27 25  1  1  0  0  0
 28 26  1  0  0  0  0
 28 27  1  0  0  0  0
 29 28  1  0  0  0  0
 30  1  1  0  0  0  0
 31 48  1  6  0  0  0
 31 32  1  0  0  0  0
 31 30  1  0  0  0  0
 32 33  1  0  0  0  0
 33 37  1  0  0  0  0
 33 36  2  0  0  0  0
 34 45  1  1  0  0  0
 35 34  1  0  0  0  0
 36 34  1  0  0  0  0
 37 35  2  0  0  0  0
 38 43  1  0  0  0  0
 38 37  1  0  0  0  0
 40 39  1  0  0  0  0
 41 40  1  0  0  0  0
 42 43  1  0  0  0  0
 43 39  1  0  0  0  0
 44 42  1  0  0  0  0
 44 41  1  0  0  0  0
 45 47  1  0  0  0  0
 47 46  3  0  0  0  0
 49 48  1  0  0  0  0
 50 49  2  0  0  0  0
M  END
>  <MODEL>
3

>  <REMARK>
 VINA RESULT:      -6.0      3.409     10.720
  Name = 
  18 active torsions:
  status: ('A' for Active; 'I' for Inactive)
    1  A    between atoms: N_1  and  C_33
    2  A    between atoms: C_8  and  O_34
    3  A    between atoms: C_9  and  S_21
    4  A    between atoms: S_10  and  C_11
    5  A    between atoms: S_10  and  C_26
    6  A    between atoms: C_13  and  C_23
    7  A    between atoms: C_15  and  C_39
    8  A    between atoms: S_21  and  C_47
    9  A    between atoms: C_23  and  C_28
   10  A    between atoms: O_25  and  C_43
   11  A    between atoms: C_27  and  O_44
   12  A    between atoms: C_28  and  C_33
   13  A    between atoms: C_28  and  O_34
   14  A    between atoms: C_32  and  C_43
   15  A    between atoms: C_32  and  C_47
   16  A    between atoms: C_41  and  O_49
   17  A    between atoms: C_43  and  O_44
   18  A    between atoms: C_48  and  O_49
                            x       y       z     vdW  Elec       q    Type
                         _______ _______ _______ _____ _____    ______ ____

>  <TORSDO>
F 18

$$$$
=
 OpenBabel11062420543D

 50 56  0  0  1  0  0  0  0  0999 V2000
  194.3570  174.8010  140.8740 N   0  0  0  0  0  2  0  0  0  0  0  0
  191.9390  174.2530  141.3360 C   0  0  0  0  0  0  0  0  0  0  0  0
  193.2550  175.0400  141.5740 C   0  0  2  0  0  3  0  0  0  0  0  0
  193.1050  176.2770  142.4640 C   0  0  0  0  0  2  0  0  0  0  0  0
  188.3670  175.5300  142.5410 C   0  0  0  0  0  2  0  0  0  0  0  0
  190.6910  176.2190  142.4400 C   0  0  2  0  0  3  0  0  0  0  0  0
  191.7400  177.6580  143.9700 O   0  0  0  0  0  0  0  0  0  0  0  0
  190.6500  174.8860  141.9260 N   0  0  0  0  0  0  0  0  0  0  0  0
  190.5990  177.9690  144.8090 C   0  0  0  0  0  2  0  0  0  0  0  0
  189.4370  176.9300  144.7020 C   0  0  1  0  0  3  0  0  0  0  0  0
  191.8020  176.3570  143.3410 C   0  0  2  0  0  3  0  0  0  0  0  0
  191.9270  173.0540  140.9880 O   0  0  0  0  0  0  0  0  0  0  0  0
  189.2230  174.5210  141.7030 C   0  0  1  0  0  3  0  0  0  0  0  0
  189.4120  176.4630  143.2040 C   0  0  2  0  0  3  0  0  0  0  0  0
  189.0090  173.0930  142.1440 C   0  0  0  0  0  3  0  0  0  0  0  0
  188.7690  172.1840  140.9020 C   0  0  0  0  0  2  0  0  0  0  0  0
  187.5700  172.5940  141.8010 C   0  0  0  0  0  2  0  0  0  0  0  0
  189.6850  175.9310  145.6400 O   0  0  0  0  0  0  0  0  0  0  0  0
  188.6190  174.9230  147.4260 O   0  0  0  0  0  1  0  0  0  0  0  0
  189.1210  176.1220  146.8830 C   0  0  1  0  0  0  0  0  0  0  0  0
  190.1970  176.5970  147.7570 O   0  0  0  0  0  0  0  0  0  0  0  0
  191.2630  175.6750  147.8550 C   0  0  0  0  0  1  0  0  0  0  0  0
  188.0030  177.2680  146.7740 C   0  0  0  0  0  2  0  0  0  0  0  0
  186.5590  176.9340  147.0280 C   0  0  0  0  0  2  0  0  0  0  0  0
  185.5570  178.4350  146.6540 S   0  0  0  0  0  0  0  0  0  0  0  0
  184.6070  178.4580  144.1060 C   0  0  0  0  0  2  0  0  0  0  0  0
  185.7430  178.9670  144.8370 C   0  0  2  0  0  3  0  0  0  0  0  0
  185.9560  177.9980  143.7320 N   0  0  0  0  0  0  0  0  0  0  0  0
  186.3040  178.7670  142.5040 C   0  0  0  0  0  1  0  0  0  0  0  0
  194.3660  174.0560  139.5270 C   0  0  0  0  0  2  0  0  0  0  0  0
  195.4210  172.7710  139.5880 C   0  0  2  0  0  3  0  0  0  0  0  0
  196.0770  172.6250  140.8780 O   0  0  0  0  0  0  0  0  0  0  0  0
  195.6980  171.7830  141.8980 C   0  0  0  0  0  0  0  0  0  0  0  0
  194.2660  170.5810  143.0660 C   0  0  2  0  0  3  0  0  0  0  0  0
  195.1380  171.2820  144.0610 N   0  0  0  0  0  0  0  0  0  0  0  0
  194.6100  171.0270  141.7520 N   0  0  0  0  0  0  0  0  0  0  0  0
  196.0320  171.8920  143.3460 C   0  0  0  0  0  0  0  0  0  0  0  0
  197.2670  172.4670  143.9340 O   0  0  0  0  0  0  0  0  0  0  0  0
  196.6570  174.7990  143.4730 C   0  0  0  0  0  2  0  0  0  0  0  0
  196.2210  176.1310  144.1220 C   0  0  0  0  0  2  0  0  0  0  0  0
  195.3910  175.9990  145.3410 N   0  0  0  0  0  2  0  0  0  0  0  0
  196.6690  173.9580  145.8310 C   0  0  0  0  0  2  0  0  0  0  0  0
  197.3380  173.8180  144.4300 C   0  0  0  0  0  3  0  0  0  0  0  0
  195.2690  174.5990  145.7600 C   0  0  0  0  0  2  0  0  0  0  0  0
  192.4990  170.1390  143.5090 S   0  0  0  0  0  0  0  0  0  0  0  0
  192.3060  172.9230  144.6070 N   0  0  0  0  0  0  0  0  0  0  0  0
  192.3430  171.7840  144.1760 C   0  0  0  0  0  0  0  0  0  0  0  0
  196.7710  173.1600  138.8440 C   0  0  0  0  0  2  0  0  0  0  0  0
  196.9360  173.4050  137.3360 C   0  0  0  0  0  3  0  0  0  0  0  0
  196.0190  173.0300  136.5400 O   0  0  0  0  0  0  0  0  0  0  0  0
  2  3  1  0  0  0  0
  2  8  1  0  0  0  0
  3  1  1  6  0  0  0
  3  4  1  0  0  0  0
  6  8  1  1  0  0  0
  6 14  1  0  0  0  0
  6 11  1  0  0  0  0
  7  9  1  0  0  0  0
 10  9  1  0  0  0  0
 10 18  1  1  0  0  0
 11  4  1  6  0  0  0
 11  7  1  0  0  0  0
 12  2  2  0  0  0  0
 13  8  1  0  0  0  0
 13 15  1  1  0  0  0
 13  5  1  0  0  0  0
 14  5  1  1  0  0  0
 14 10  1  0  0  0  0
 16 17  1  0  0  0  0
 16 15  1  0  0  0  0
 17 15  1  0  0  0  0
 18 20  1  0  0  0  0
 20 19  1  1  0  0  0
 20 21  1  0  0  0  0
 21 22  1  0  0  0  0
 23 20  1  0  0  0  0
 23 24  1  0  0  0  0
 25 24  1  0  0  0  0
 26 27  1  0  0  0  0
 27 25  1  1  0  0  0
 28 26  1  0  0  0  0
 28 27  1  0  0  0  0
 29 28  1  0  0  0  0
 30 31  1  0  0  0  0
 30  1  1  0  0  0  0
 31 48  1  6  0  0  0
 31 32  1  0  0  0  0
 32 33  1  0  0  0  0
 33 37  1  0  0  0  0
 34 45  1  1  0  0  0
 34 35  1  0  0  0  0
 36 33  2  0  0  0  0
 36 34  1  0  0  0  0
 37 38  1  0  0  0  0
 37 35  2  0  0  0  0
 38 43  1  0  0  0  0
 39 40  1  0  0  0  0
 39 43  1  0  0  0  0
 40 41  1  0  0  0  0
 41 44  1  0  0  0  0
 43 42  1  0  0  0  0
 44 42  1  0  0  0  0
 45 47  1  0  0  0  0
 47 46  3  0  0  0  0
 49 48  1  0  0  0  0
 50 49  2  0  0  0  0
M  END
>  <MODEL>
4

>  <REMARK>
 VINA RESULT:      -5.9      3.531     10.011
  Name = 
  18 active torsions:
  status: ('A' for Active; 'I' for Inactive)
    1  A    between atoms: N_1  and  C_33
    2  A    between atoms: C_8  and  O_34
    3  A    between atoms: C_9  and  S_21
    4  A    between atoms: S_10  and  C_11
    5  A    between atoms: S_10  and  C_26
    6  A    between atoms: C_13  and  C_23
    7  A    between atoms: C_15  and  C_39
    8  A    between atoms: S_21  and  C_47
    9  A    between atoms: C_23  and  C_28
   10  A    between atoms: O_25  and  C_43
   11  A    between atoms: C_27  and  O_44
   12  A    between atoms: C_28  and  C_33
   13  A    between atoms: C_28  and  O_34
   14  A    between atoms: C_32  and  C_43
   15  A    between atoms: C_32  and  C_47
   16  A    between atoms: C_41  and  O_49
   17  A    between atoms: C_43  and  O_44
   18  A    between atoms: C_48  and  O_49
                            x       y       z     vdW  Elec       q    Type
                         _______ _______ _______ _____ _____    ______ ____

>  <TORSDO>
F 18

$$$$
=
 OpenBabel11062420543D

 50 56  0  0  1  0  0  0  0  0999 V2000
  191.1150  171.8270  142.6310 N   0  0  0  0  0  2  0  0  0  0  0  0
  190.5110  174.2710  142.4760 C   0  0  0  0  0  0  0  0  0  0  0  0
  190.5700  172.8980  143.1960 C   0  0  2  0  0  3  0  0  0  0  0  0
  190.2120  172.9420  144.6830 C   0  0  0  0  0  2  0  0  0  0  0  0
  189.9180  177.7210  144.3720 C   0  0  0  0  0  2  0  0  0  0  0  0
  190.2420  175.3540  144.7990 C   0  0  2  0  0  3  0  0  0  0  0  0
  189.3510  174.1780  146.6260 O   0  0  0  0  0  0  0  0  0  0  0  0
  190.2190  175.5010  143.3780 N   0  0  0  0  0  0  0  0  0  0  0  0
  188.7040  175.2800  147.3120 C   0  0  0  0  0  2  0  0  0  0  0  0
  188.4270  176.5160  146.3970 C   0  0  1  0  0  3  0  0  0  0  0  0
  189.4440  174.2220  145.1830 C   0  0  2  0  0  3  0  0  0  0  0  0
  190.3830  174.3770  141.2390 O   0  0  0  0  0  0  0  0  0  0  0  0
  190.3050  176.9540  143.0620 C   0  0  1  0  0  3  0  0  0  0  0  0
  189.6410  176.6000  145.4060 C   0  0  2  0  0  3  0  0  0  0  0  0
  189.3630  177.2650  141.9240 C   0  0  0  0  0  3  0  0  0  0  0  0
  188.2620  178.2560  142.4010 C   0  0  0  0  0  2  0  0  0  0  0  0
  187.9180  176.7520  142.2160 C   0  0  0  0  0  2  0  0  0  0  0  0
  187.1810  176.3260  145.8080 O   0  0  0  0  0  0  0  0  0  0  0  0
  185.1270  176.4930  146.8580 O   0  0  0  0  0  1  0  0  0  0  0  0
  186.1830  177.1810  146.2270 C   0  0  1  0  0  0  0  0  0  0  0  0
  186.7920  178.0770  147.2130 O   0  0  0  0  0  0  0  0  0  0  0  0
  185.9840  179.2000  147.4990 C   0  0  0  0  0  1  0  0  0  0  0  0
  185.6900  178.0550  144.9740 C   0  0  0  0  0  2  0  0  0  0  0  0
  184.9400  177.3960  143.8490 C   0  0  0  0  0  2  0  0  0  0  0  0
  184.2430  178.7250  142.7790 S   0  0  0  0  0  0  0  0  0  0  0  0
  183.1270  178.0660  140.3890 C   0  0  0  0  0  2  0  0  0  0  0  0
  182.7450  178.1090  141.7810 C   0  0  2  0  0  3  0  0  0  0  0  0
  182.0280  178.9600  140.7970 N   0  0  0  0  0  0  0  0  0  0  0  0
  180.7800  178.2510  140.3980 C   0  0  0  0  0  1  0  0  0  0  0  0
  192.0840  171.8950  141.4360 C   0  0  0  0  0  2  0  0  0  0  0  0
  193.4800  171.0570  141.7790 C   0  0  2  0  0  3  0  0  0  0  0  0
  194.5950  171.9200  142.1360 O   0  0  0  0  0  0  0  0  0  0  0  0
  195.1220  172.0980  143.3950 C   0  0  0  0  0  0  0  0  0  0  0  0
  196.0900  171.4430  145.2640 C   0  0  2  0  0  3  0  0  0  0  0  0
  194.9980  172.3870  145.6630 N   0  0  0  0  0  0  0  0  0  0  0  0
  196.0320  171.2360  143.8510 N   0  0  0  0  0  0  0  0  0  0  0  0
  194.5220  172.8350  144.5430 C   0  0  0  0  0  0  0  0  0  0  0  0
  193.6240  174.0130  144.4720 O   0  0  0  0  0  0  0  0  0  0  0  0
  195.5660  175.5140  144.4670 C   0  0  0  0  0  2  0  0  0  0  0  0
  196.2810  176.6330  143.6800 C   0  0  0  0  0  2  0  0  0  0  0  0
  196.1530  176.5520  142.2070 N   0  0  0  0  0  2  0  0  0  0  0  0
  193.9180  175.6050  142.5860 C   0  0  0  0  0  2  0  0  0  0  0  0
  194.0900  175.3280  144.1100 C   0  0  0  0  0  3  0  0  0  0  0  0
  195.2400  175.4780  141.8040 C   0  0  0  0  0  2  0  0  0  0  0  0
  196.6170  170.0680  146.4250 S   0  0  0  0  0  0  0  0  0  0  0  0
  194.0960  168.6820  145.5810 N   0  0  0  0  0  0  0  0  0  0  0  0
  195.1260  169.2140  145.9550 C   0  0  0  0  0  0  0  0  0  0  0  0
  194.1610  170.5870  140.4220 C   0  0  0  0  0  2  0  0  0  0  0  0
  194.2830  169.1380  139.9260 C   0  0  0  0  0  3  0  0  0  0  0  0
  194.4370  168.2000  140.7700 O   0  0  0  0  0  0  0  0  0  0  0  0
  2  3  1  0  0  0  0
  2  8  1  0  0  0  0
  3  1  1  1  0  0  0
  3  4  1  0  0  0  0
  6  8  1  6  0  0  0
  6 11  1  0  0  0  0
  6 14  1  0  0  0  0
  7  9  1  0  0  0  0
 10 18  1  6  0  0  0
 10  9  1  0  0  0  0
 11  4  1  1  0  0  0
 11  7  1  0  0  0  0
 12  2  2  0  0  0  0
 13 15  1  6  0  0  0
 13  8  1  0  0  0  0
 13  5  1  0  0  0  0
 14  5  1  6  0  0  0
 14 10  1  0  0  0  0
 15 17  1  0  0  0  0
 15 16  1  0  0  0  0
 17 16  1  0  0  0  0
 18 20  1  0  0  0  0
 20 19  1  1  0  0  0
 20 21  1  0  0  0  0
 21 22  1  0  0  0  0
 23 20  1  0  0  0  0
 24 23  1  0  0  0  0
 25 24  1  0  0  0  0
 26 28  1  0  0  0  0
 26 27  1  0  0  0  0
 27 25  1  1  0  0  0
 28 27  1  0  0  0  0
 29 28  1  0  0  0  0
 30 31  1  0  0  0  0
 30  1  1  0  0  0  0
 31 48  1  6  0  0  0
 31 32  1  0  0  0  0
 32 33  1  0  0  0  0
 33 36  2  0  0  0  0
 33 37  1  0  0  0  0
 34 35  1  0  0  0  0
 34 45  1  1  0  0  0
 36 34  1  0  0  0  0
 37 35  2  0  0  0  0
 38 37  1  0  0  0  0
 40 39  1  0  0  0  0
 41 40  1  0  0  0  0
 42 43  1  0  0  0  0
 43 39  1  0  0  0  0
 43 38  1  0  0  0  0
 44 41  1  0  0  0  0
 44 42  1  0  0  0  0
 46 47  3  0  0  0  0
 47 45  1  0  0  0  0
 49 48  1  0  0  0  0
 49 50  2  0  0  0  0
M  END
>  <MODEL>
5

>  <REMARK>
 VINA RESULT:      -5.9      2.965     10.623
  Name = 
  18 active torsions:
  status: ('A' for Active; 'I' for Inactive)
    1  A    between atoms: N_1  and  C_33
    2  A    between atoms: C_8  and  O_34
    3  A    between atoms: C_9  and  S_21
    4  A    between atoms: S_10  and  C_11
    5  A    between atoms: S_10  and  C_26
    6  A    between atoms: C_13  and  C_23
    7  A    between atoms: C_15  and  C_39
    8  A    between atoms: S_21  and  C_47
    9  A    between atoms: C_23  and  C_28
   10  A    between atoms: O_25  and  C_43
   11  A    between atoms: C_27  and  O_44
   12  A    between atoms: C_28  and  C_33
   13  A    between atoms: C_28  and  O_34
   14  A    between atoms: C_32  and  C_43
   15  A    between atoms: C_32  and  C_47
   16  A    between atoms: C_41  and  O_49
   17  A    between atoms: C_43  and  O_44
   18  A    between atoms: C_48  and  O_49
                            x       y       z     vdW  Elec       q    Type
                         _______ _______ _______ _____ _____    ______ ____

>  <TORSDO>
F 18

$$$$
=
 OpenBabel11062420543D

 50 56  0  0  1  0  0  0  0  0999 V2000
  183.6950  178.1270  141.0290 N   0  0  0  0  0  2  0  0  0  0  0  0
  184.7310  178.0540  143.3280 C   0  0  0  0  0  0  0  0  0  0  0  0
  184.7420  177.8350  141.7910 C   0  0  2  0  0  3  0  0  0  0  0  0
  186.1220  177.5310  141.2020 C   0  0  0  0  0  2  0  0  0  0  0  0
  188.0320  178.2560  145.5430 C   0  0  0  0  0  2  0  0  0  0  0  0
  187.3060  178.0770  143.2340 C   0  0  2  0  0  3  0  0  0  0  0  0
  188.5000  177.0010  141.5230 O   0  0  0  0  0  0  0  0  0  0  0  0
  186.1170  178.0520  144.0260 N   0  0  0  0  0  0  0  0  0  0  0  0
  189.6810  176.6210  142.2750 C   0  0  0  0  0  2  0  0  0  0  0  0
  189.4610  176.5920  143.8210 C   0  0  1  0  0  3  0  0  0  0  0  0
  187.2320  177.0670  142.2150 C   0  0  2  0  0  3  0  0  0  0  0  0
  183.6980  177.9210  144.0170 O   0  0  0  0  0  0  0  0  0  0  0  0
  186.4810  178.4390  145.4180 C   0  0  1  0  0  3  0  0  0  0  0  0
  188.4750  177.7710  144.1390 C   0  0  2  0  0  3  0  0  0  0  0  0
  185.7270  177.5570  146.3840 C   0  0  0  0  0  3  0  0  0  0  0  0
  184.6130  178.3800  147.0970 C   0  0  0  0  0  2  0  0  0  0  0  0
  185.9190  178.0250  147.8620 C   0  0  0  0  0  2  0  0  0  0  0  0
  189.0040  175.3200  144.1520 O   0  0  0  0  0  0  0  0  0  0  0  0
  188.6980  174.9060  146.4060 O   0  0  0  0  0  1  0  0  0  0  0  0
  189.5470  174.7650  145.2910 C   0  0  1  0  0  0  0  0  0  0  0  0
  189.7030  173.3330  145.0210 O   0  0  0  0  0  0  0  0  0  0  0  0
  189.5890  173.0250  143.6470 C   0  0  0  0  0  1  0  0  0  0  0  0
  191.0000  175.4020  145.5360 C   0  0  0  0  0  2  0  0  0  0  0  0
  192.2280  174.5450  145.3970 C   0  0  0  0  0  2  0  0  0  0  0  0
  192.9530  174.8630  143.7320 S   0  0  0  0  0  0  0  0  0  0  0  0
  195.1240  173.5190  144.6690 C   0  0  0  0  0  2  0  0  0  0  0  0
  194.8320  174.5660  143.7180 C   0  0  2  0  0  3  0  0  0  0  0  0
  195.7030  174.8570  144.8860 N   0  0  0  0  0  0  0  0  0  0  0  0
  197.1200  174.7460  144.4440 C   0  0  0  0  0  1  0  0  0  0  0  0
  182.5520  179.0580  141.4710 C   0  0  0  0  0  2  0  0  0  0  0  0
  181.0820  178.3130  141.2410 C   0  0  2  0  0  3  0  0  0  0  0  0
  180.4630  178.6450  139.9670 O   0  0  0  0  0  0  0  0  0  0  0  0
  179.3560  178.0430  139.4140 C   0  0  0  0  0  0  0  0  0  0  0  0
  178.2960  176.4990  138.2500 C   0  0  2  0  0  3  0  0  0  0  0  0
  177.6940  177.8110  137.8560 N   0  0  0  0  0  0  0  0  0  0  0  0
  179.3900  176.7380  139.1390 N   0  0  0  0  0  0  0  0  0  0  0  0
  178.2600  178.6830  138.6320 C   0  0  0  0  0  0  0  0  0  0  0  0
  177.7490  180.0660  138.7850 O   0  0  0  0  0  0  0  0  0  0  0  0
  177.8370  182.2280  137.6270 C   0  0  0  0  0  2  0  0  0  0  0  0
  178.3630  183.6770  137.7180 C   0  0  0  0  0  2  0  0  0  0  0  0
  178.4340  184.2390  139.0870 N   0  0  0  0  0  2  0  0  0  0  0  0
  178.9500  181.9620  139.8530 C   0  0  0  0  0  2  0  0  0  0  0  0
  178.5610  181.2300  138.5330 C   0  0  0  0  0  3  0  0  0  0  0  0
  178.1100  183.2310  140.1000 C   0  0  0  0  0  2  0  0  0  0  0  0
  178.3310  175.0750  137.0310 S   0  0  0  0  0  0  0  0  0  0  0  0
  181.1740  175.8720  136.5100 N   0  0  0  0  0  0  0  0  0  0  0  0
  180.0220  175.5190  136.6870 C   0  0  0  0  0  0  0  0  0  0  0  0
  179.9680  179.0730  142.0820 C   0  0  0  0  0  2  0  0  0  0  0  0
  178.7640  178.4240  142.7820 C   0  0  0  0  0  3  0  0  0  0  0  0
  178.6520  177.1580  142.7880 O   0  0  0  0  0  0  0  0  0  0  0  0
  1 30  1  0  0  0  0
  2 12  2  0  0  0  0
  2  8  1  0  0  0  0
  3  1  1  6  0  0  0
  3  2  1  0  0  0  0
  4  3  1  0  0  0  0
  6  8  1  1  0  0  0
  6 14  1  0  0  0  0
  7 11  1  0  0  0  0
  7  9  1  0  0  0  0
  8 13  1  0  0  0  0
  9 10  1  0  0  0  0
 10 14  1  0  0  0  0
 10 18  1  6  0  0  0
 11  4  1  6  0  0  0
 11  6  1  0  0  0  0
 13  5  1  0  0  0  0
 13 15  1  1  0  0  0
 14  5  1  1  0  0  0
 15 16  1  0  0  0  0
 15 17  1  0  0  0  0
 16 17  1  0  0  0  0
 18 20  1  0  0  0  0
 20 23  1  0  0  0  0
 20 19  1  1  0  0  0
 21 20  1  0  0  0  0
 22 21  1  0  0  0  0
 24 23  1  0  0  0  0
 25 24  1  0  0  0  0
 26 28  1  0  0  0  0
 27 25  1  1  0  0  0
 27 26  1  0  0  0  0
 27 28  1  0  0  0  0
 29 28  1  0  0  0  0
 31 30  1  6  0  0  0
 31 48  1  0  0  0  0
 32 31  1  0  0  0  0
 33 32  1  0  0  0  0
 34 45  1  6  0  0  0
 34 36  1  0  0  0  0
 35 34  1  0  0  0  0
 35 37  2  0  0  0  0
 36 33  2  0  0  0  0
 37 38  1  0  0  0  0
 37 33  1  0  0  0  0
 39 40  1  0  0  0  0
 39 43  1  0  0  0  0
 40 41  1  0  0  0  0
 41 44  1  0  0  0  0
 42 44  1  0  0  0  0
 43 38  1  0  0  0  0
 43 42  1  0  0  0  0
 46 47  3  0  0  0  0
 47 45  1  0  0  0  0
 48 49  1  0  0  0  0
 49 50  2  0  0  0  0
M  END
>  <MODEL>
6

>  <REMARK>
 VINA RESULT:      -5.8      3.362      7.031
  Name = 
  18 active torsions:
  status: ('A' for Active; 'I' for Inactive)
    1  A    between atoms: N_1  and  C_33
    2  A    between atoms: C_8  and  O_34
    3  A    between atoms: C_9  and  S_21
    4  A    between atoms: S_10  and  C_11
    5  A    between atoms: S_10  and  C_26
    6  A    between atoms: C_13  and  C_23
    7  A    between atoms: C_15  and  C_39
    8  A    between atoms: S_21  and  C_47
    9  A    between atoms: C_23  and  C_28
   10  A    between atoms: O_25  and  C_43
   11  A    between atoms: C_27  and  O_44
   12  A    between atoms: C_28  and  C_33
   13  A    between atoms: C_28  and  O_34
   14  A    between atoms: C_32  and  C_43
   15  A    between atoms: C_32  and  C_47
   16  A    between atoms: C_41  and  O_49
   17  A    between atoms: C_43  and  O_44
   18  A    between atoms: C_48  and  O_49
                            x       y       z     vdW  Elec       q    Type
                         _______ _______ _______ _____ _____    ______ ____

>  <TORSDO>
F 18

$$$$
=
 OpenBabel11062420543D

 50 56  0  0  1  0  0  0  0  0999 V2000
  190.5680  177.2580  145.4480 N   0  0  0  0  0  2  0  0  0  0  0  0
  191.4540  174.9480  144.9560 C   0  0  0  0  0  0  0  0  0  0  0  0
  191.5780  176.4920  145.0540 C   0  0  2  0  0  3  0  0  0  0  0  0
  193.0080  177.0240  144.9340 C   0  0  0  0  0  2  0  0  0  0  0  0
  194.5860  172.4940  144.8470 C   0  0  0  0  0  2  0  0  0  0  0  0
  194.0240  174.8400  145.1080 C   0  0  2  0  0  3  0  0  0  0  0  0
  195.3870  176.6360  144.4530 O   0  0  0  0  0  0  0  0  0  0  0  0
  192.7890  174.1610  144.8720 N   0  0  0  0  0  0  0  0  0  0  0  0
  196.5360  175.8880  143.9790 C   0  0  0  0  0  2  0  0  0  0  0  0
  196.2180  174.3990  143.6280 C   0  0  1  0  0  3  0  0  0  0  0  0
  194.0750  176.0420  144.3230 C   0  0  2  0  0  3  0  0  0  0  0  0
  190.3880  174.3780  144.6430 O   0  0  0  0  0  0  0  0  0  0  0  0
  193.0390  172.6970  144.9850 C   0  0  1  0  0  3  0  0  0  0  0  0
  195.1470  173.9290  144.6750 C   0  0  2  0  0  3  0  0  0  0  0  0
  192.2750  171.9840  143.8950 C   0  0  0  0  0  3  0  0  0  0  0  0
  192.4300  170.4440  144.0560 C   0  0  0  0  0  2  0  0  0  0  0  0
  193.2280  171.1880  142.9490 C   0  0  0  0  0  2  0  0  0  0  0  0
  195.8130  174.3630  142.2970 O   0  0  0  0  0  0  0  0  0  0  0  0
  197.9410  173.5220  141.9640 O   0  0  0  0  0  1  0  0  0  0  0  0
  196.6440  173.6780  141.4360 C   0  0  1  0  0  0  0  0  0  0  0  0
  196.0610  172.3450  141.2710 O   0  0  0  0  0  0  0  0  0  0  0  0
  196.8840  171.3230  141.7950 C   0  0  0  0  0  1  0  0  0  0  0  0
  196.6410  174.4210  140.0130 C   0  0  0  0  0  2  0  0  0  0  0  0
  195.7820  173.8960  138.8960 C   0  0  0  0  0  2  0  0  0  0  0  0
  194.3120  174.9980  138.7470 S   0  0  0  0  0  0  0  0  0  0  0  0
  193.5960  175.7480  136.2330 C   0  0  0  0  0  2  0  0  0  0  0  0
  193.3400  174.6590  137.1470 C   0  0  2  0  0  3  0  0  0  0  0  0
  192.2140  175.5150  136.6910 N   0  0  0  0  0  0  0  0  0  0  0  0
  191.5390  174.8230  135.5580 C   0  0  0  0  0  1  0  0  0  0  0  0
  189.3480  176.7270  146.2210 C   0  0  0  0  0  2  0  0  0  0  0  0
  187.9620  176.9440  145.3260 C   0  0  2  0  0  3  0  0  0  0  0  0
  188.1290  177.8770  144.2230 O   0  0  0  0  0  0  0  0  0  0  0  0
  187.7300  177.6850  142.9200 C   0  0  0  0  0  0  0  0  0  0  0  0
  186.3610  177.8790  141.2030 C   0  0  2  0  0  3  0  0  0  0  0  0
  186.8630  176.4680  141.1850 N   0  0  0  0  0  0  0  0  0  0  0  0
  186.8620  178.5350  142.3700 N   0  0  0  0  0  0  0  0  0  0  0  0
  187.7430  176.4180  142.1360 C   0  0  0  0  0  0  0  0  0  0  0  0
  188.6990  175.2930  142.2800 O   0  0  0  0  0  0  0  0  0  0  0  0
  190.6800  174.2990  141.2260 C   0  0  0  0  0  2  0  0  0  0  0  0
  191.1900  173.0940  140.4070 C   0  0  0  0  0  2  0  0  0  0  0  0
  190.5070  171.8080  140.6790 N   0  0  0  0  0  2  0  0  0  0  0  0
  188.4730  173.1270  141.0820 C   0  0  0  0  0  2  0  0  0  0  0  0
  189.1670  174.5200  141.1570 C   0  0  0  0  0  3  0  0  0  0  0  0
  189.3740  171.9840  141.5920 C   0  0  0  0  0  2  0  0  0  0  0  0
  184.6630  178.2830  140.5180 S   0  0  0  0  0  0  0  0  0  0  0  0
  183.7760  178.4860  143.3740 N   0  0  0  0  0  0  0  0  0  0  0  0
  184.0970  178.3840  142.2040 C   0  0  0  0  0  0  0  0  0  0  0  0
  186.9720  177.9080  146.1100 C   0  0  0  0  0  2  0  0  0  0  0  0
  185.7540  177.4740  146.9420 C   0  0  0  0  0  3  0  0  0  0  0  0
  184.5920  177.5510  146.4330 O   0  0  0  0  0  0  0  0  0  0  0  0
  1 30  1  0  0  0  0
  2  3  1  0  0  0  0
  3  1  1  1  0  0  0
  4  3  1  0  0  0  0
  5 13  1  0  0  0  0
  6  8  1  6  0  0  0
  8  2  1  0  0  0  0
  8 13  1  0  0  0  0
  9  7  1  0  0  0  0
 10 18  1  6  0  0  0
 10  9  1  0  0  0  0
 10 14  1  0  0  0  0
 11  7  1  0  0  0  0
 11  4  1  1  0  0  0
 11  6  1  0  0  0  0
 12  2  2  0  0  0  0
 13 15  1  6  0  0  0
 14  5  1  6  0  0  0
 14  6  1  0  0  0  0
 15 16  1  0  0  0  0
 17 15  1  0  0  0  0
 17 16  1  0  0  0  0
 20 19  1  1  0  0  0
 20 18  1  0  0  0  0
 21 20  1  0  0  0  0
 21 22  1  0  0  0  0
 23 20  1  0  0  0  0
 24 23  1  0  0  0  0
 25 24  1  0  0  0  0
 26 28  1  0  0  0  0
 26 27  1  0  0  0  0
 27 25  1  1  0  0  0
 28 27  1  0  0  0  0
 29 28  1  0  0  0  0
 31 48  1  1  0  0  0
 31 30  1  0  0  0  0
 32 31  1  0  0  0  0
 33 32  1  0  0  0  0
 34 45  1  1  0  0  0
 34 36  1  0  0  0  0
 35 34  1  0  0  0  0
 35 37  2  0  0  0  0
 36 33  2  0  0  0  0
 37 38  1  0  0  0  0
 37 33  1  0  0  0  0
 40 41  1  0  0  0  0
 40 39  1  0  0  0  0
 41 44  1  0  0  0  0
 42 43  1  0  0  0  0
 42 44  1  0  0  0  0
 43 39  1  0  0  0  0
 43 38  1  0  0  0  0
 45 47  1  0  0  0  0
 47 46  3  0  0  0  0
 48 49  1  0  0  0  0
 50 49  2  0  0  0  0
M  END
>  <MODEL>
7

>  <REMARK>
 VINA RESULT:      -5.8      2.920      5.931
  Name = 
  18 active torsions:
  status: ('A' for Active; 'I' for Inactive)
    1  A    between atoms: N_1  and  C_33
    2  A    between atoms: C_8  and  O_34
    3  A    between atoms: C_9  and  S_21
    4  A    between atoms: S_10  and  C_11
    5  A    between atoms: S_10  and  C_26
    6  A    between atoms: C_13  and  C_23
    7  A    between atoms: C_15  and  C_39
    8  A    between atoms: S_21  and  C_47
    9  A    between atoms: C_23  and  C_28
   10  A    between atoms: O_25  and  C_43
   11  A    between atoms: C_27  and  O_44
   12  A    between atoms: C_28  and  C_33
   13  A    between atoms: C_28  and  O_34
   14  A    between atoms: C_32  and  C_43
   15  A    between atoms: C_32  and  C_47
   16  A    between atoms: C_41  and  O_49
   17  A    between atoms: C_43  and  O_44
   18  A    between atoms: C_48  and  O_49
                            x       y       z     vdW  Elec       q    Type
                         _______ _______ _______ _____ _____    ______ ____

>  <TORSDO>
F 18

$$$$
=
 OpenBabel11062420543D

 50 56  0  0  1  0  0  0  0  0999 V2000
  190.1270  171.5260  142.1040 N   0  0  0  0  0  2  0  0  0  0  0  0
  189.0650  173.8010  141.8670 C   0  0  0  0  0  0  0  0  0  0  0  0
  189.6710  172.6290  142.6840 C   0  0  2  0  0  3  0  0  0  0  0  0
  189.9560  172.9570  144.1520 C   0  0  0  0  0  2  0  0  0  0  0  0
  188.6670  177.4970  143.2900 C   0  0  0  0  0  2  0  0  0  0  0  0
  189.5760  175.3260  143.8800 C   0  0  2  0  0  3  0  0  0  0  0  0
  189.7540  174.4860  146.0660 O   0  0  0  0  0  0  0  0  0  0  0  0
  188.9440  175.1590  142.6100 N   0  0  0  0  0  0  0  0  0  0  0  0
  189.2520  175.6360  146.7930 C   0  0  0  0  0  2  0  0  0  0  0  0
  188.3970  176.6090  145.9200 C   0  0  1  0  0  3  0  0  0  0  0  0
  189.2360  174.2270  144.7410 C   0  0  2  0  0  3  0  0  0  0  0  0
  188.4220  173.6220  140.8110 O   0  0  0  0  0  0  0  0  0  0  0  0
  188.6180  176.5110  142.0750 C   0  0  1  0  0  3  0  0  0  0  0  0
  189.0550  176.6030  144.4960 C   0  0  2  0  0  3  0  0  0  0  0  0
  187.2510  176.4670  141.4350 C   0  0  0  0  0  3  0  0  0  0  0  0
  187.3890  176.5090  139.8840 C   0  0  0  0  0  2  0  0  0  0  0  0
  186.9390  177.7820  140.6540 C   0  0  0  0  0  2  0  0  0  0  0  0
  187.0780  176.1670  145.9750 O   0  0  0  0  0  0  0  0  0  0  0  0
  185.0460  176.8240  146.8590 O   0  0  0  0  0  1  0  0  0  0  0  0
  186.1150  177.1530  146.0030 C   0  0  1  0  0  0  0  0  0  0  0  0
  186.7670  178.3520  146.5340 O   0  0  0  0  0  0  0  0  0  0  0  0
  186.1440  178.8350  147.7070 C   0  0  0  0  0  1  0  0  0  0  0  0
  185.6350  177.4510  144.5010 C   0  0  0  0  0  2  0  0  0  0  0  0
  184.3810  178.2450  144.2580 C   0  0  0  0  0  2  0  0  0  0  0  0
  184.2160  178.4980  142.4390 S   0  0  0  0  0  0  0  0  0  0  0  0
  182.4940  177.9920  140.3960 C   0  0  0  0  0  2  0  0  0  0  0  0
  182.4540  178.1110  141.8350 C   0  0  2  0  0  3  0  0  0  0  0  0
  181.6650  179.0520  140.9980 N   0  0  0  0  0  0  0  0  0  0  0  0
  180.2670  178.5420  140.9250 C   0  0  0  0  0  1  0  0  0  0  0  0
  190.4870  171.4350  140.6100 C   0  0  0  0  0  2  0  0  0  0  0  0
  192.0850  171.0110  140.4280 C   0  0  2  0  0  3  0  0  0  0  0  0
  192.9800  171.7540  141.3010 O   0  0  0  0  0  0  0  0  0  0  0  0
  193.5860  171.2840  142.4440 C   0  0  0  0  0  0  0  0  0  0  0  0
  193.9140  169.8440  144.0810 C   0  0  2  0  0  3  0  0  0  0  0  0
  193.9530  171.2050  144.7030 N   0  0  0  0  0  0  0  0  0  0  0  0
  193.5770  169.9750  142.6980 N   0  0  0  0  0  0  0  0  0  0  0  0
  193.8650  172.0290  143.7040 C   0  0  0  0  0  0  0  0  0  0  0  0
  194.1590  173.4760  143.8360 O   0  0  0  0  0  0  0  0  0  0  0  0
  193.3420  174.2400  146.0210 C   0  0  0  0  0  2  0  0  0  0  0  0
  192.8590  175.4730  146.8160 C   0  0  0  0  0  2  0  0  0  0  0  0
  193.4900  176.7580  146.4360 N   0  0  0  0  0  2  0  0  0  0  0  0
  193.5950  175.8780  144.1440 C   0  0  0  0  0  2  0  0  0  0  0  0
  193.2700  174.3960  144.5000 C   0  0  0  0  0  3  0  0  0  0  0  0
  194.3620  176.6050  145.2670 C   0  0  0  0  0  2  0  0  0  0  0  0
  193.3420  168.3670  145.0830 S   0  0  0  0  0  0  0  0  0  0  0  0
  196.0070  168.4330  146.4540 N   0  0  0  0  0  0  0  0  0  0  0  0
  194.9430  168.3810  145.8640 C   0  0  0  0  0  0  0  0  0  0  0  0
  192.6640  171.6870  139.1110 C   0  0  0  0  0  2  0  0  0  0  0  0
  192.4370  171.2030  137.6700 C   0  0  0  0  0  3  0  0  0  0  0  0
  191.6940  171.8810  136.8940 O   0  0  0  0  0  0  0  0  0  0  0  0
  2  8  1  0  0  0  0
  2  3  1  0  0  0  0
  3  1  1  6  0  0  0
  3  4  1  0  0  0  0
  6  8  1  6  0  0  0
  6 14  1  0  0  0  0
  6 11  1  0  0  0  0
  7  9  1  0  0  0  0
 10 18  1  6  0  0  0
 10  9  1  0  0  0  0
 11  4  1  6  0  0  0
 11  7  1  0  0  0  0
 12  2  2  0  0  0  0
 13 15  1  1  0  0  0
 13  8  1  0  0  0  0
 13  5  1  0  0  0  0
 14  5  1  6  0  0  0
 14 10  1  0  0  0  0
 16 17  1  0  0  0  0
 16 15  1  0  0  0  0
 17 15  1  0  0  0  0
 18 20  1  0  0  0  0
 20 21  1  0  0  0  0
 20 19  1  1  0  0  0
 21 22  1  0  0  0  0
 23 20  1  0  0  0  0
 24 23  1  0  0  0  0
 25 24  1  0  0  0  0
 26 28  1  0  0  0  0
 26 27  1  0  0  0  0
 27 25  1  6  0  0  0
 28 27  1  0  0  0  0
 29 28  1  0  0  0  0
 30  1  1  0  0  0  0
 31 48  1  6  0  0  0
 31 30  1  0  0  0  0
 31 32  1  0  0  0  0
 32 33  1  0  0  0  0
 33 36  2  0  0  0  0
 33 37  1  0  0  0  0
 34 35  1  0  0  0  0
 34 45  1  1  0  0  0
 36 34  1  0  0  0  0
 37 38  1  0  0  0  0
 37 35  2  0  0  0  0
 38 43  1  0  0  0  0
 39 40  1  0  0  0  0
 41 40  1  0  0  0  0
 42 43  1  0  0  0  0
 42 44  1  0  0  0  0
 43 39  1  0  0  0  0
 44 41  1  0  0  0  0
 45 47  1  0  0  0  0
 47 46  3  0  0  0  0
 49 48  1  0  0  0  0
 50 49  2  0  0  0  0
M  END
>  <MODEL>
8

>  <REMARK>
 VINA RESULT:      -5.8      3.110     10.236
  Name = 
  18 active torsions:
  status: ('A' for Active; 'I' for Inactive)
    1  A    between atoms: N_1  and  C_33
    2  A    between atoms: C_8  and  O_34
    3  A    between atoms: C_9  and  S_21
    4  A    between atoms: S_10  and  C_11
    5  A    between atoms: S_10  and  C_26
    6  A    between atoms: C_13  and  C_23
    7  A    between atoms: C_15  and  C_39
    8  A    between atoms: S_21  and  C_47
    9  A    between atoms: C_23  and  C_28
   10  A    between atoms: O_25  and  C_43
   11  A    between atoms: C_27  and  O_44
   12  A    between atoms: C_28  and  C_33
   13  A    between atoms: C_28  and  O_34
   14  A    between atoms: C_32  and  C_43
   15  A    between atoms: C_32  and  C_47
   16  A    between atoms: C_41  and  O_49
   17  A    between atoms: C_43  and  O_44
   18  A    between atoms: C_48  and  O_49
                            x       y       z     vdW  Elec       q    Type
                         _______ _______ _______ _____ _____    ______ ____

>  <TORSDO>
F 18

$$$$
=
 OpenBabel11062420543D

 50 56  0  0  1  0  0  0  0  0999 V2000
  190.7700  171.1180  140.3180 N   0  0  0  0  0  2  0  0  0  0  0  0
  189.8080  173.3110  141.1110 C   0  0  0  0  0  0  0  0  0  0  0  0
  190.7070  172.0540  141.2570 C   0  0  2  0  0  3  0  0  0  0  0  0
  191.7070  172.1180  142.4140 C   0  0  0  0  0  2  0  0  0  0  0  0
  190.3060  176.6300  143.2510 C   0  0  0  0  0  2  0  0  0  0  0  0
  191.3190  174.4610  142.8530 C   0  0  2  0  0  3  0  0  0  0  0  0
  192.5550  173.2390  144.4310 O   0  0  0  0  0  0  0  0  0  0  0  0
  190.1240  174.4900  142.0700 N   0  0  0  0  0  0  0  0  0  0  0  0
  192.5280  174.1890  145.5270 C   0  0  0  0  0  2  0  0  0  0  0  0
  191.3800  175.2420  145.4190 C   0  0  1  0  0  3  0  0  0  0  0  0
  191.4280  173.1960  143.5260 C   0  0  2  0  0  3  0  0  0  0  0  0
  188.7130  173.2870  140.5110 O   0  0  0  0  0  0  0  0  0  0  0  0
  189.6150  175.8900  142.0560 C   0  0  1  0  0  3  0  0  0  0  0  0
  191.2230  175.5560  143.8890 C   0  0  2  0  0  3  0  0  0  0  0  0
  188.1120  175.8660  142.1960 C   0  0  0  0  0  3  0  0  0  0  0  0
  187.4510  176.5460  140.9610 C   0  0  0  0  0  2  0  0  0  0  0  0
  187.5210  177.3060  142.3150 C   0  0  0  0  0  2  0  0  0  0  0  0
  190.2580  174.7000  146.0390 O   0  0  0  0  0  0  0  0  0  0  0  0
  188.9010  174.5670  147.9060 O   0  0  0  0  0  1  0  0  0  0  0  0
  189.8480  175.3300  147.1940 C   0  0  1  0  0  0  0  0  0  0  0  0
  191.0390  175.4700  148.0350 O   0  0  0  0  0  0  0  0  0  0  0  0
  191.2550  176.8010  148.4540 C   0  0  0  0  0  1  0  0  0  0  0  0
  189.3080  176.7950  146.8210 C   0  0  0  0  0  2  0  0  0  0  0  0
  188.0710  176.9460  145.9800 C   0  0  0  0  0  2  0  0  0  0  0  0
  186.8380  177.9090  146.9550 S   0  0  0  0  0  0  0  0  0  0  0  0
  184.2630  178.1790  146.1210 C   0  0  0  0  0  2  0  0  0  0  0  0
  185.5560  178.7510  145.8280 C   0  0  2  0  0  3  0  0  0  0  0  0
  184.8170  178.0220  144.7640 N   0  0  0  0  0  0  0  0  0  0  0  0
  184.0990  179.0270  143.9310 C   0  0  0  0  0  1  0  0  0  0  0  0
  190.3180  171.3380  138.8640 C   0  0  0  0  0  2  0  0  0  0  0  0
  191.5130  172.1100  138.0010 C   0  0  2  0  0  3  0  0  0  0  0  0
  192.5640  172.6630  138.8420 O   0  0  0  0  0  0  0  0  0  0  0  0
  193.8560  172.2020  138.9460 C   0  0  0  0  0  0  0  0  0  0  0  0
  195.4400  170.8460  139.6630 C   0  0  2  0  0  3  0  0  0  0  0  0
  196.0010  172.2310  139.7480 N   0  0  0  0  0  0  0  0  0  0  0  0
  194.0710  170.9230  139.2580 N   0  0  0  0  0  0  0  0  0  0  0  0
  195.0910  172.9900  139.2210 C   0  0  0  0  0  0  0  0  0  0  0  0
  195.3520  174.3980  138.8340 O   0  0  0  0  0  0  0  0  0  0  0  0
  194.3090  175.2280  140.8950 C   0  0  0  0  0  2  0  0  0  0  0  0
  194.5620  176.0300  142.1900 C   0  0  0  0  0  2  0  0  0  0  0  0
  195.9270  175.9110  142.7520 N   0  0  0  0  0  2  0  0  0  0  0  0
  196.7210  175.7170  140.4350 C   0  0  0  0  0  2  0  0  0  0  0  0
  195.3260  175.4850  139.7800 C   0  0  0  0  0  3  0  0  0  0  0  0
  196.8090  175.1480  141.8650 C   0  0  0  0  0  2  0  0  0  0  0  0
  196.0260  169.5180  140.8500 S   0  0  0  0  0  0  0  0  0  0  0  0
  195.2660  171.4340  143.0280 N   0  0  0  0  0  0  0  0  0  0  0  0
  195.5860  170.6250  142.1750 C   0  0  0  0  0  0  0  0  0  0  0  0
  190.9970  173.5450  137.5500 C   0  0  0  0  0  2  0  0  0  0  0  0
  189.5950  173.8740  137.0140 C   0  0  0  0  0  3  0  0  0  0  0  0
  189.2740  173.5090  135.8400 O   0  0  0  0  0  0  0  0  0  0  0  0
  2  3  1  0  0  0  0
  2  8  1  0  0  0  0
  3  1  1  6  0  0  0
  3  4  1  0  0  0  0
  6  8  1  6  0  0  0
  6 11  1  0  0  0  0
  6 14  1  0  0  0  0
  7  9  1  0  0  0  0
 10  9  1  0  0  0  0
 10 18  1  6  0  0  0
 11  4  1  6  0  0  0
 11  7  1  0  0  0  0
 12  2  2  0  0  0  0
 13  8  1  0  0  0  0
 13 15  1  1  0  0  0
 13  5  1  0  0  0  0
 14  5  1  1  0  0  0
 14 10  1  0  0  0  0
 15 17  1  0  0  0  0
 16 15  1  0  0  0  0
 16 17  1  0  0  0  0
 18 20  1  0  0  0  0
 20 19  1  1  0  0  0
 20 21  1  0  0  0  0
 21 22  1  0  0  0  0
 23 20  1  0  0  0  0
 24 23  1  0  0  0  0
 24 25  1  0  0  0  0
 27 26  1  0  0  0  0
 27 25  1  1  0  0  0
 28 27  1  0  0  0  0
 28 26  1  0  0  0  0
 29 28  1  0  0  0  0
 30  1  1  0  0  0  0
 31 48  1  1  0  0  0
 31 32  1  0  0  0  0
 31 30  1  0  0  0  0
 32 33  1  0  0  0  0
 33 37  1  0  0  0  0
 33 36  2  0  0  0  0
 34 35  1  0  0  0  0
 34 45  1  1  0  0  0
 36 34  1  0  0  0  0
 37 35  2  0  0  0  0
 38 37  1  0  0  0  0
 38 43  1  0  0  0  0
 39 40  1  0  0  0  0
 40 41  1  0  0  0  0
 42 44  1  0  0  0  0
 43 42  1  0  0  0  0
 43 39  1  0  0  0  0
 44 41  1  0  0  0  0
 45 47  1  0  0  0  0
 47 46  3  0  0  0  0
 49 48  1  0  0  0  0
 50 49  2  0  0  0  0
M  END
>  <MODEL>
9

>  <REMARK>
 VINA RESULT:      -5.7      3.079      9.628
  Name = 
  18 active torsions:
  status: ('A' for Active; 'I' for Inactive)
    1  A    between atoms: N_1  and  C_33
    2  A    between atoms: C_8  and  O_34
    3  A    between atoms: C_9  and  S_21
    4  A    between atoms: S_10  and  C_11
    5  A    between atoms: S_10  and  C_26
    6  A    between atoms: C_13  and  C_23
    7  A    between atoms: C_15  and  C_39
    8  A    between atoms: S_21  and  C_47
    9  A    between atoms: C_23  and  C_28
   10  A    between atoms: O_25  and  C_43
   11  A    between atoms: C_27  and  O_44
   12  A    between atoms: C_28  and  C_33
   13  A    between atoms: C_28  and  O_34
   14  A    between atoms: C_32  and  C_43
   15  A    between atoms: C_32  and  C_47
   16  A    between atoms: C_41  and  O_49
   17  A    between atoms: C_43  and  O_44
   18  A    between atoms: C_48  and  O_49
                            x       y       z     vdW  Elec       q    Type
                         _______ _______ _______ _____ _____    ______ ____

>  <TORSDO>
F 18

$$$$
