=
 OpenBabel11062420403D

 60 66  0  0  1  0  0  0  0  0999 V2000
  188.8280  176.0730  141.5770 C   0  0  0  0  0  1  0  0  0  0  0  0
  187.1570  174.9870  142.8530 O   0  0  0  0  0  1  0  0  0  0  0  0
  188.4390  174.8050  142.3280 C   0  0  1  0  0  0  0  0  0  0  0  0
  188.4280  173.5930  141.3830 C   0  0  0  0  0  2  0  0  0  0  0  0
  189.0760  171.9220  138.7760 O   0  0  0  0  0  0  0  0  0  0  0  0
  188.3400  174.2080  138.4980 C   0  0  0  0  0  1  0  0  0  0  0  0
  189.4030  173.2640  139.0450 C   0  0  1  0  0  3  0  0  0  0  0  0
  192.0170  172.4340  140.8500 C   0  0  0  0  0  2  0  0  0  0  0  0
  191.2310  171.6930  137.5890 C   0  0  1  0  0  3  0  0  0  0  0  0
  190.5190  172.3130  141.1070 C   0  0  0  0  0  2  0  0  0  0  0  0
  189.7010  173.4730  140.5410 C   0  0  2  0  0  3  0  0  0  0  0  0
  189.7010  171.5630  137.5630 C   0  0  0  0  0  2  0  0  0  0  0  0
  191.7860  171.2010  138.7800 O   0  0  0  0  0  0  0  0  0  0  0  0
  192.4020  172.3130  139.3760 C   0  0  2  0  0  3  0  0  0  0  0  0
  191.8770  171.0510  136.3660 C   0  0  0  0  0  2  0  0  0  0  0  0
  192.3670  172.0750  135.3500 C   0  0  0  0  0  2  0  0  0  0  0  0
  191.3250  174.2080  135.1910 O   0  0  0  0  0  0  0  0  0  0  0  0
  192.6790  174.4590  134.8980 C   0  0  0  0  0  2  0  0  0  0  0  0
  192.2770  173.4750  135.9240 C   0  0  2  0  0  3  0  0  0  0  0  0
  193.9120  172.1710  139.2910 C   0  0  0  0  0  2  0  0  0  0  0  0
  194.2840  170.8290  139.4880 O   0  0  0  0  0  0  0  0  0  0  0  0
  195.1950  169.0730  142.0370 C   0  0  0  0  0  2  0  0  0  0  0  0
  195.1970  170.3480  142.7450 N   0  0  0  0  0  0  0  0  0  0  0  0
  195.0980  171.3820  141.7180 C   0  0  0  0  0  2  0  0  0  0  0  0
  195.6980  169.3120  140.6380 C   0  0  0  0  0  2  0  0  0  0  0  0
  196.6510  171.3830  139.7410 C   0  0  0  0  0  1  0  0  0  0  0  0
  195.3990  170.7620  140.3550 C   0  0  1  0  0  0  0  0  0  0  0  0
  196.4910  170.5230  143.3970 C   0  0  0  0  0  2  0  0  0  0  0  0
  195.4740  171.4750  145.4450 C   0  0  0  0  0  2  0  0  0  0  0  0
  197.3660  170.1040  145.9290 O   0  0  0  0  0  1  0  0  0  0  0  0
  196.9580  171.4340  145.7630 C   0  0  1  0  0  3  0  0  0  0  0  0
  196.4770  171.7290  144.3390 C   0  0  1  0  0  3  0  0  0  0  0  0
  189.4220  174.5790  143.4990 C   0  0  2  0  0  3  0  0  0  0  0  0
  190.5060  172.5140  144.5560 C   0  0  0  0  0  1  0  0  0  0  0  0
  189.2260  173.3030  144.3430 C   0  0  0  0  0  2  0  0  0  0  0  0
  189.7820  175.8530  144.2890 C   0  0  2  0  0  3  0  0  0  0  0  0
  192.1510  175.2670  143.6290 N   0  0  0  0  0  2  0  0  0  0  0  0
  191.2340  176.2200  144.1840 C   0  0  0  0  0  0  0  0  0  0  0  0
  191.6210  177.3710  144.5270 O   0  0  0  0  0  0  0  0  0  0  0  0
  196.2940  176.2920  143.5770 C   0  0  0  0  0  2  0  0  0  0  0  0
  194.1310  175.8900  142.3790 C   0  0  0  0  0  3  0  0  0  0  0  0
  193.5740  175.4170  143.5050 C   0  0  0  0  0  0  0  0  0  0  0  0
  195.6260  176.0020  142.2250 C   0  0  2  0  0  0  0  0  0  0  0  0
  193.9250  174.3710  145.6980 F   0  0  0  0  0  0  0  0  0  0  0  0
  196.1740  174.7040  141.6530 C   0  0  0  0  0  1  0  0  0  0  0  0
  195.9150  177.0390  141.3410 O   0  0  0  0  0  1  0  0  0  0  0  0
  194.4320  175.0820  144.6610 C   0  0  0  0  0  0  0  0  0  0  0  0
  195.7160  175.4480  144.6820 C   0  0  0  0  0  3  0  0  0  0  0  0
  189.2040  175.9250  145.7120 C   0  0  1  0  0  3  0  0  0  0  0  0
  190.1490  175.3990  146.7940 C   0  0  0  0  0  1  0  0  0  0  0  0
  189.1560  177.7720  147.2630 O   0  0  0  0  0  1  0  0  0  0  0  0
  188.6690  177.3260  146.0290 C   0  0  2  0  0  3  0  0  0  0  0  0
  186.6380  177.9880  144.6930 C   0  0  0  0  0  2  0  0  0  0  0  0
  184.2310  178.2660  146.5900 C   0  0  0  0  0  2  0  0  0  0  0  0
  185.4200  178.3650  147.5210 C   0  0  0  0  0  3  0  0  0  0  0  0
  187.1410  177.3590  146.0110 C   0  0  2  0  0  3  0  0  0  0  0  0
  184.6900  178.9080  145.3130 C   0  0  2  0  0  3  0  0  0  0  0  0
  184.2300  178.5140  144.0470 O   0  0  0  0  0  0  0  0  0  0  0  0
  185.1730  177.6730  144.6560 C   0  0  1  0  0  3  0  0  0  0  0  0
  186.6410  178.0120  147.2300 N   0  0  0  0  0  0  0  0  0  0  0  0
  3  1  1  6  0  0  0
  3  2  1  0  0  0  0
  3 33  1  0  0  0  0
  4  3  1  0  0  0  0
  5  7  1  0  0  0  0
  7  6  1  1  0  0  0
  7 11  1  0  0  0  0
  8 10  1  0  0  0  0
  9 15  1  6  0  0  0
  9 13  1  0  0  0  0
 11 10  1  0  0  0  0
 11  4  1  1  0  0  0
 12  9  1  0  0  0  0
 12  5  1  0  0  0  0
 13 14  1  0  0  0  0
 14 20  1  1  0  0  0
 14  8  1  0  0  0  0
 16 15  1  0  0  0  0
 17 19  1  0  0  0  0
 18 17  1  0  0  0  0
 18 19  1  0  0  0  0
 19 16  1  6  0  0  0
 20 21  1  0  0  0  0
 21 27  1  0  0  0  0
 22 23  1  0  0  0  0
 23 28  1  0  0  0  0
 24 23  1  0  0  0  0
 25 22  1  0  0  0  0
 27 26  1  6  0  0  0
 27 25  1  0  0  0  0
 27 24  1  0  0  0  0
 29 31  1  0  0  0  0
 31 30  1  6  0  0  0
 32 28  1  6  0  0  0
 32 29  1  0  0  0  0
 32 31  1  0  0  0  0
 33 36  1  0  0  0  0
 33 35  1  1  0  0  0
 35 34  1  0  0  0  0
 36 38  1  1  0  0  0
 36 49  1  0  0  0  0
 37 38  1  0  0  0  0
 38 39  2  0  0  0  0
 40 48  1  0  0  0  0
 41 42  2  0  0  0  0
 42 37  1  0  0  0  0
 42 47  1  0  0  0  0
 43 45  1  6  0  0  0
 43 41  1  0  0  0  0
 43 40  1  0  0  0  0
 46 43  1  0  0  0  0
 47 48  2  0  0  0  0
 47 44  1  0  0  0  0
 49 52  1  0  0  0  0
 49 50  1  1  0  0  0
 52 51  1  1  0  0  0
 53 56  1  0  0  0  0
 54 55  1  0  0  0  0
 56 52  1  6  0  0  0
 56 60  1  0  0  0  0
 57 54  1  1  0  0  0
 58 59  1  0  0  0  0
 58 57  1  0  0  0  0
 59 53  1  6  0  0  0
 59 57  1  0  0  0  0
 60 55  2  0  0  0  0
M  END
>  <MODEL>
1

>  <REMARK>
 VINA RESULT:      -6.5      0.000      0.000
  Name = 
  18 active torsions:
  status: ('A' for Active; 'I' for Inactive)
    1  A    between atoms: C_9  and  N_11
    2  A    between atoms: C_19  and  C_48
    3  A    between atoms: C_19  and  C_51
    4  A    between atoms: C_25  and  C_27
    5  A    between atoms: C_25  and  C_29
    6  A    between atoms: C_26  and  C_30
    7  A    between atoms: C_29  and  C_30
    8  A    between atoms: C_30  and  C_45
    9  A    between atoms: C_32  and  C_58
   10  A    between atoms: C_34  and  C_36
   11  A    between atoms: C_36  and  C_39
   12  A    between atoms: C_37  and  C_39
   13  A    between atoms: N_40  and  C_58
   14  A    between atoms: C_42  and  O_56
   15  A    between atoms: C_42  and  C_60
   16  A    between atoms: C_45  and  C_48
   17  A    between atoms: C_45  and  C_49
   18  A    between atoms: C_50  and  O_56
                            x       y       z     vdW  Elec       q    Type
                         _______ _______ _______ _____ _____    ______ ____

>  <TORSDO>
F 18

$$$$
=
 OpenBabel11062420403D

 60 66  0  0  1  0  0  0  0  0999 V2000
  192.5100  171.2030  144.2700 C   0  0  0  0  0  1  0  0  0  0  0  0
  193.0080  169.0100  143.5310 O   0  0  0  0  0  1  0  0  0  0  0  0
  193.3610  170.3490  143.3370 C   0  0  1  0  0  0  0  0  0  0  0  0
  193.1080  170.7280  141.8690 C   0  0  0  0  0  2  0  0  0  0  0  0
  191.4710  171.3430  139.2320 O   0  0  0  0  0  0  0  0  0  0  0  0
  190.9690  169.2980  140.4220 C   0  0  0  0  0  1  0  0  0  0  0  0
  190.9880  170.8210  140.4470 C   0  0  1  0  0  3  0  0  0  0  0  0
  190.8400  173.7870  141.8470 C   0  0  0  0  0  2  0  0  0  0  0  0
  189.3530  172.5930  138.9900 C   0  0  1  0  0  3  0  0  0  0  0  0
  192.0170  172.9010  141.4550 C   0  0  0  0  0  2  0  0  0  0  0  0
  191.7540  171.4080  141.6460 C   0  0  2  0  0  3  0  0  0  0  0  0
  190.3590  171.5930  138.4010 C   0  0  0  0  0  2  0  0  0  0  0  0
  189.9850  173.6940  139.5840 O   0  0  0  0  0  0  0  0  0  0  0  0
  189.6210  173.6320  140.9380 C   0  0  2  0  0  3  0  0  0  0  0  0
  188.3180  173.0310  137.9600 C   0  0  0  0  0  2  0  0  0  0  0  0
  188.6450  174.3780  137.3300 C   0  0  0  0  0  2  0  0  0  0  0  0
  190.2550  175.2000  135.7840 O   0  0  0  0  0  0  0  0  0  0  0  0
  189.0240  175.3580  135.1210 C   0  0  0  0  0  2  0  0  0  0  0  0
  189.2990  174.1860  135.9770 C   0  0  2  0  0  3  0  0  0  0  0  0
  188.6440  174.7500  141.2600 C   0  0  0  0  0  2  0  0  0  0  0  0
  189.3080  175.7960  141.9260 O   0  0  0  0  0  0  0  0  0  0  0  0
  188.9050  177.7400  144.4700 C   0  0  0  0  0  2  0  0  0  0  0  0
  187.6650  177.0000  144.6700 N   0  0  0  0  0  0  0  0  0  0  0  0
  187.4530  176.2270  143.4480 C   0  0  0  0  0  2  0  0  0  0  0  0
  189.1200  177.9070  142.9890 C   0  0  0  0  0  2  0  0  0  0  0  0
  187.5550  177.3340  141.1940 C   0  0  0  0  0  1  0  0  0  0  0  0
  188.3710  176.7660  142.3520 C   0  0  1  0  0  0  0  0  0  0  0  0
  186.5610  177.9480  144.7660 C   0  0  0  0  0  2  0  0  0  0  0  0
  185.4140  178.7100  146.8240 C   0  0  0  0  0  2  0  0  0  0  0  0
  184.2030  179.2840  144.8510 O   0  0  0  0  0  1  0  0  0  0  0  0
  184.2750  178.3470  145.8890 C   0  0  1  0  0  3  0  0  0  0  0  0
  185.5800  177.5470  145.8700 C   0  0  1  0  0  3  0  0  0  0  0  0
  194.8530  170.5220  143.6990 C   0  0  2  0  0  3  0  0  0  0  0  0
  196.3140  168.6340  144.6230 C   0  0  0  0  0  1  0  0  0  0  0  0
  195.3630  169.7730  144.9470 C   0  0  0  0  0  2  0  0  0  0  0  0
  195.3970  171.9520  143.5110 C   0  0  2  0  0  3  0  0  0  0  0  0
  195.5990  173.4030  141.4500 N   0  0  0  0  0  2  0  0  0  0  0  0
  195.9530  172.1940  142.1370 C   0  0  0  0  0  0  0  0  0  0  0  0
  196.7620  171.3700  141.6290 O   0  0  0  0  0  0  0  0  0  0  0  0
  196.3820  175.0640  137.5980 C   0  0  0  0  0  2  0  0  0  0  0  0
  195.3200  173.3170  139.0440 C   0  0  0  0  0  3  0  0  0  0  0  0
  195.9830  173.7760  140.1170 C   0  0  0  0  0  0  0  0  0  0  0  0
  195.7500  173.6650  137.6430 C   0  0  2  0  0  0  0  0  0  0  0  0
  197.9400  174.9890  140.9690 F   0  0  0  0  0  0  0  0  0  0  0  0
  196.7540  172.6350  137.1510 C   0  0  0  0  0  1  0  0  0  0  0  0
  194.6360  173.6400  136.8070 O   0  0  0  0  0  1  0  0  0  0  0  0
  197.1060  174.7200  139.9350 C   0  0  0  0  0  0  0  0  0  0  0  0
  197.3270  175.2920  138.7480 C   0  0  0  0  0  3  0  0  0  0  0  0
  196.2750  172.4750  144.6590 C   0  0  1  0  0  3  0  0  0  0  0  0
  197.7590  172.1330  144.5110 C   0  0  0  0  0  1  0  0  0  0  0  0
  196.4150  174.3130  146.2150 O   0  0  0  0  0  1  0  0  0  0  0  0
  196.0370  173.9680  144.9120 C   0  0  2  0  0  3  0  0  0  0  0  0
  194.5100  175.7440  143.9840 C   0  0  0  0  0  2  0  0  0  0  0  0
  191.6930  175.3680  145.1650 C   0  0  0  0  0  2  0  0  0  0  0  0
  192.5790  174.6110  146.1310 C   0  0  0  0  0  3  0  0  0  0  0  0
  194.5810  174.3540  144.6550 C   0  0  2  0  0  3  0  0  0  0  0  0
  192.5340  176.5210  144.6990 C   0  0  2  0  0  3  0  0  0  0  0  0
  192.4200  177.0870  143.4200 O   0  0  0  0  0  0  0  0  0  0  0  0
  193.0960  175.8610  143.5010 C   0  0  1  0  0  3  0  0  0  0  0  0
  193.8060  174.2350  145.8980 N   0  0  0  0  0  0  0  0  0  0  0  0
  3  2  1  0  0  0  0
  3 33  1  0  0  0  0
  3  1  1  1  0  0  0
  4  3  1  0  0  0  0
  5  7  1  0  0  0  0
  7  6  1  6  0  0  0
  7 11  1  0  0  0  0
  9 15  1  6  0  0  0
  9 13  1  0  0  0  0
 10 11  1  0  0  0  0
 10  8  1  0  0  0  0
 11  4  1  6  0  0  0
 12  9  1  0  0  0  0
 12  5  1  0  0  0  0
 13 14  1  0  0  0  0
 14 20  1  1  0  0  0
 14  8  1  0  0  0  0
 16 15  1  0  0  0  0
 17 19  1  0  0  0  0
 18 17  1  0  0  0  0
 18 19  1  0  0  0  0
 19 16  1  1  0  0  0
 20 21  1  0  0  0  0
 21 27  1  0  0  0  0
 22 23  1  0  0  0  0
 23 28  1  0  0  0  0
 24 23  1  0  0  0  0
 25 22  1  0  0  0  0
 27 26  1  6  0  0  0
 27 25  1  0  0  0  0
 27 24  1  0  0  0  0
 31 30  1  6  0  0  0
 31 29  1  0  0  0  0
 32 28  1  6  0  0  0
 32 31  1  0  0  0  0
 32 29  1  0  0  0  0
 33 35  1  1  0  0  0
 34 35  1  0  0  0  0
 36 38  1  6  0  0  0
 36 33  1  0  0  0  0
 36 49  1  0  0  0  0
 37 38  1  0  0  0  0
 39 38  2  0  0  0  0
 40 43  1  0  0  0  0
 40 48  1  0  0  0  0
 41 42  2  0  0  0  0
 42 37  1  0  0  0  0
 43 45  1  6  0  0  0
 43 41  1  0  0  0  0
 46 43  1  0  0  0  0
 47 42  1  0  0  0  0
 47 44  1  0  0  0  0
 48 47  2  0  0  0  0
 49 50  1  6  0  0  0
 49 52  1  0  0  0  0
 52 51  1  1  0  0  0
 53 56  1  0  0  0  0
 54 55  1  0  0  0  0
 56 52  1  1  0  0  0
 56 60  1  0  0  0  0
 57 54  1  6  0  0  0
 58 59  1  0  0  0  0
 58 57  1  0  0  0  0
 59 53  1  1  0  0  0
 59 57  1  0  0  0  0
 60 55  2  0  0  0  0
M  END
>  <MODEL>
2

>  <REMARK>
 VINA RESULT:      -6.2      2.292      7.559
  Name = 
  18 active torsions:
  status: ('A' for Active; 'I' for Inactive)
    1  A    between atoms: C_9  and  N_11
    2  A    between atoms: C_19  and  C_48
    3  A    between atoms: C_19  and  C_51
    4  A    between atoms: C_25  and  C_27
    5  A    between atoms: C_25  and  C_29
    6  A    between atoms: C_26  and  C_30
    7  A    between atoms: C_29  and  C_30
    8  A    between atoms: C_30  and  C_45
    9  A    between atoms: C_32  and  C_58
   10  A    between atoms: C_34  and  C_36
   11  A    between atoms: C_36  and  C_39
   12  A    between atoms: C_37  and  C_39
   13  A    between atoms: N_40  and  C_58
   14  A    between atoms: C_42  and  O_56
   15  A    between atoms: C_42  and  C_60
   16  A    between atoms: C_45  and  C_48
   17  A    between atoms: C_45  and  C_49
   18  A    between atoms: C_50  and  O_56
                            x       y       z     vdW  Elec       q    Type
                         _______ _______ _______ _____ _____    ______ ____

>  <TORSDO>
F 18

$$$$
=
 OpenBabel11062420403D

 60 66  0  0  1  0  0  0  0  0999 V2000
  189.1420  174.8380  140.7350 C   0  0  0  0  0  1  0  0  0  0  0  0
  187.6470  174.0100  142.3720 O   0  0  0  0  0  1  0  0  0  0  0  0
  188.9010  173.7750  141.8000 C   0  0  1  0  0  0  0  0  0  0  0  0
  188.9140  172.3690  141.1800 C   0  0  0  0  0  2  0  0  0  0  0  0
  190.0830  170.4400  138.9600 O   0  0  0  0  0  0  0  0  0  0  0  0
  190.2410  172.8230  138.5830 C   0  0  0  0  0  1  0  0  0  0  0  0
  190.6430  171.6360  139.4480 C   0  0  1  0  0  3  0  0  0  0  0  0
  191.8750  170.1620  142.1100 C   0  0  0  0  0  2  0  0  0  0  0  0
  192.3650  169.5120  138.7740 C   0  0  1  0  0  3  0  0  0  0  0  0
  190.4470  170.5090  141.7050 C   0  0  0  0  0  2  0  0  0  0  0  0
  190.3260  171.8270  140.9420 C   0  0  2  0  0  3  0  0  0  0  0  0
  191.0270  169.8450  138.0980 C   0  0  0  0  0  2  0  0  0  0  0  0
  192.1910  168.9430  140.0430 O   0  0  0  0  0  0  0  0  0  0  0  0
  192.7930  169.8500  140.9300 C   0  0  2  0  0  3  0  0  0  0  0  0
  193.2470  168.6400  137.8870 C   0  0  0  0  0  2  0  0  0  0  0  0
  194.5980  169.2780  137.5880 C   0  0  0  0  0  2  0  0  0  0  0  0
  194.3630  171.4070  136.5520 O   0  0  0  0  0  0  0  0  0  0  0  0
  195.6610  171.4260  137.0970 C   0  0  0  0  0  2  0  0  0  0  0  0
  194.5340  170.7770  137.7990 C   0  0  2  0  0  3  0  0  0  0  0  0
  194.0820  169.2580  141.4750 C   0  0  0  0  0  2  0  0  0  0  0  0
  193.9780  169.0700  142.8650 O   0  0  0  0  0  0  0  0  0  0  0  0
  195.0350  169.4250  145.8930 C   0  0  0  0  0  2  0  0  0  0  0  0
  194.8520  170.8500  145.6480 N   0  0  0  0  0  0  0  0  0  0  0  0
  194.6490  170.9910  144.2080 C   0  0  0  0  0  2  0  0  0  0  0  0
  195.5430  168.7910  144.6250 C   0  0  0  0  0  2  0  0  0  0  0  0
  196.2450  169.9370  142.5770 C   0  0  0  0  0  1  0  0  0  0  0  0
  195.0670  169.6940  143.5160 C   0  0  1  0  0  0  0  0  0  0  0  0
  196.0920  171.5470  145.9690 C   0  0  0  0  0  2  0  0  0  0  0  0
  197.2020  173.7470  146.2130 C   0  0  0  0  0  2  0  0  0  0  0  0
  197.9410  172.5740  144.2730 O   0  0  0  0  0  1  0  0  0  0  0  0
  197.0670  173.5760  144.7110 C   0  0  1  0  0  3  0  0  0  0  0  0
  195.9860  173.0410  145.6550 C   0  0  1  0  0  3  0  0  0  0  0  0
  189.9760  173.8990  142.9030 C   0  0  2  0  0  3  0  0  0  0  0  0
  190.1440  172.2280  144.8350 C   0  0  0  0  0  1  0  0  0  0  0  0
  189.5510  173.5350  144.3400 C   0  0  0  0  0  2  0  0  0  0  0  0
  190.8920  175.1320  142.7700 C   0  0  2  0  0  3  0  0  0  0  0  0
  193.1360  175.6870  141.7450 N   0  0  0  0  0  2  0  0  0  0  0  0
  192.3240  174.7740  142.4960 C   0  0  0  0  0  0  0  0  0  0  0  0
  192.8120  173.7120  142.9720 O   0  0  0  0  0  0  0  0  0  0  0  0
  197.1690  175.7430  140.3520 C   0  0  0  0  0  2  0  0  0  0  0  0
  194.8010  174.9550  140.1440 C   0  0  0  0  0  3  0  0  0  0  0  0
  194.4980  175.4900  141.3370 C   0  0  0  0  0  0  0  0  0  0  0  0
  196.2270  174.7000  139.7330 C   0  0  2  0  0  0  0  0  0  0  0  0
  195.3120  176.2280  143.5330 F   0  0  0  0  0  0  0  0  0  0  0  0
  196.6420  173.3080  140.1810 C   0  0  0  0  0  1  0  0  0  0  0  0
  196.3190  174.7690  138.3440 O   0  0  0  0  0  1  0  0  0  0  0  0
  195.5840  175.9290  142.2390 C   0  0  0  0  0  0  0  0  0  0  0  0
  196.8430  176.0060  141.7990 C   0  0  0  0  0  3  0  0  0  0  0  0
  190.6960  176.2120  143.8460 C   0  0  1  0  0  3  0  0  0  0  0  0
  191.9550  176.5130  144.6610 C   0  0  0  0  0  1  0  0  0  0  0  0
  190.5270  178.6180  143.9230 O   0  0  0  0  0  1  0  0  0  0  0  0
  190.0580  177.4770  143.2610 C   0  0  2  0  0  3  0  0  0  0  0  0
  187.9220  178.1690  142.1170 C   0  0  0  0  0  2  0  0  0  0  0  0
  185.6090  178.0480  144.1440 C   0  0  0  0  0  2  0  0  0  0  0  0
  186.8400  178.1060  145.0240 C   0  0  0  0  0  3  0  0  0  0  0  0
  188.5320  177.4130  143.3180 C   0  0  2  0  0  3  0  0  0  0  0  0
  185.9610  178.8750  142.9410 C   0  0  2  0  0  3  0  0  0  0  0  0
  185.4570  178.6150  141.6570 O   0  0  0  0  0  0  0  0  0  0  0  0
  186.4780  177.7670  142.1080 C   0  0  1  0  0  3  0  0  0  0  0  0
  188.0620  177.8720  144.6330 N   0  0  0  0  0  0  0  0  0  0  0  0
  3  1  1  6  0  0  0
  3  2  1  0  0  0  0
  3 33  1  0  0  0  0
  4  3  1  0  0  0  0
  5  7  1  0  0  0  0
  7  6  1  6  0  0  0
  7 11  1  0  0  0  0
  9 15  1  6  0  0  0
  9 13  1  0  0  0  0
 10  8  1  0  0  0  0
 11  4  1  6  0  0  0
 11 10  1  0  0  0  0
 12  9  1  0  0  0  0
 12  5  1  0  0  0  0
 13 14  1  0  0  0  0
 14 20  1  1  0  0  0
 14  8  1  0  0  0  0
 16 15  1  0  0  0  0
 17 18  1  0  0  0  0
 17 19  1  0  0  0  0
 18 19  1  0  0  0  0
 19 16  1  6  0  0  0
 20 21  1  0  0  0  0
 21 27  1  0  0  0  0
 23 22  1  0  0  0  0
 23 28  1  0  0  0  0
 24 23  1  0  0  0  0
 25 22  1  0  0  0  0
 27 26  1  6  0  0  0
 27 24  1  0  0  0  0
 27 25  1  0  0  0  0
 31 30  1  1  0  0  0
 31 32  1  0  0  0  0
 31 29  1  0  0  0  0
 32 28  1  1  0  0  0
 32 29  1  0  0  0  0
 33 35  1  1  0  0  0
 35 34  1  0  0  0  0
 36 38  1  1  0  0  0
 36 33  1  0  0  0  0
 36 49  1  0  0  0  0
 37 38  1  0  0  0  0
 38 39  2  0  0  0  0
 40 48  1  0  0  0  0
 41 42  2  0  0  0  0
 42 37  1  0  0  0  0
 42 47  1  0  0  0  0
 43 41  1  0  0  0  0
 43 45  1  1  0  0  0
 43 40  1  0  0  0  0
 46 43  1  0  0  0  0
 47 44  1  0  0  0  0
 48 47  2  0  0  0  0
 49 50  1  6  0  0  0
 52 49  1  0  0  0  0
 52 51  1  1  0  0  0
 53 56  1  0  0  0  0
 54 55  1  0  0  0  0
 56 52  1  1  0  0  0
 56 60  1  0  0  0  0
 57 54  1  1  0  0  0
 58 59  1  0  0  0  0
 58 57  1  0  0  0  0
 59 53  1  6  0  0  0
 59 57  1  0  0  0  0
 60 55  2  0  0  0  0
M  END
>  <MODEL>
3

>  <REMARK>
 VINA RESULT:      -6.1      2.189      2.868
  Name = 
  18 active torsions:
  status: ('A' for Active; 'I' for Inactive)
    1  A    between atoms: C_9  and  N_11
    2  A    between atoms: C_19  and  C_48
    3  A    between atoms: C_19  and  C_51
    4  A    between atoms: C_25  and  C_27
    5  A    between atoms: C_25  and  C_29
    6  A    between atoms: C_26  and  C_30
    7  A    between atoms: C_29  and  C_30
    8  A    between atoms: C_30  and  C_45
    9  A    between atoms: C_32  and  C_58
   10  A    between atoms: C_34  and  C_36
   11  A    between atoms: C_36  and  C_39
   12  A    between atoms: C_37  and  C_39
   13  A    between atoms: N_40  and  C_58
   14  A    between atoms: C_42  and  O_56
   15  A    between atoms: C_42  and  C_60
   16  A    between atoms: C_45  and  C_48
   17  A    between atoms: C_45  and  C_49
   18  A    between atoms: C_50  and  O_56
                            x       y       z     vdW  Elec       q    Type
                         _______ _______ _______ _____ _____    ______ ____

>  <TORSDO>
F 18

$$$$
=
 OpenBabel11062420403D

 60 66  0  0  1  0  0  0  0  0999 V2000
  189.2170  174.5320  140.6600 C   0  0  0  0  0  1  0  0  0  0  0  0
  187.6540  173.7270  142.2450 O   0  0  0  0  0  1  0  0  0  0  0  0
  189.0010  173.6410  141.8780 C   0  0  1  0  0  0  0  0  0  0  0  0
  189.3400  172.1790  141.5510 C   0  0  0  0  0  2  0  0  0  0  0  0
  190.4950  169.7910  139.8250 O   0  0  0  0  0  0  0  0  0  0  0  0
  189.2810  171.5360  138.6710 C   0  0  0  0  0  1  0  0  0  0  0  0
  190.4960  171.1640  139.5110 C   0  0  1  0  0  3  0  0  0  0  0  0
  193.1220  171.7550  141.3920 C   0  0  0  0  0  2  0  0  0  0  0  0
  192.7110  169.6010  138.7480 C   0  0  1  0  0  3  0  0  0  0  0  0
  191.6770  171.4100  141.7350 C   0  0  0  0  0  2  0  0  0  0  0  0
  190.6540  172.0220  140.7800 C   0  0  2  0  0  3  0  0  0  0  0  0
  191.2530  169.1260  138.8380 C   0  0  0  0  0  2  0  0  0  0  0  0
  193.2920  169.7730  140.0130 O   0  0  0  0  0  0  0  0  0  0  0  0
  193.6080  171.1390  140.0800 C   0  0  2  0  0  3  0  0  0  0  0  0
  193.5520  168.6840  137.8670 C   0  0  0  0  0  2  0  0  0  0  0  0
  193.8190  169.2740  136.4870 C   0  0  0  0  0  2  0  0  0  0  0  0
  192.6770  170.9120  135.1950 O   0  0  0  0  0  0  0  0  0  0  0  0
  193.9920  171.4030  135.2940 C   0  0  0  0  0  2  0  0  0  0  0  0
  193.3360  170.7080  136.4220 C   0  0  2  0  0  3  0  0  0  0  0  0
  195.1140  171.3230  140.0000 C   0  0  0  0  0  2  0  0  0  0  0  0
  195.5050  172.4460  140.7510 O   0  0  0  0  0  0  0  0  0  0  0  0
  194.0260  174.8990  139.2650 C   0  0  0  0  0  2  0  0  0  0  0  0
  194.4610  174.2430  138.0380 N   0  0  0  0  0  0  0  0  0  0  0  0
  195.4320  173.2300  138.4430 C   0  0  0  0  0  2  0  0  0  0  0  0
  195.1130  174.7400  140.2950 C   0  0  0  0  0  2  0  0  0  0  0  0
  197.3580  173.8230  139.9470 C   0  0  0  0  0  1  0  0  0  0  0  0
  195.8670  173.5020  139.8820 C   0  0  1  0  0  0  0  0  0  0  0  0
  195.1800  175.2110  137.2160 C   0  0  0  0  0  2  0  0  0  0  0  0
  196.0760  175.5760  134.9370 C   0  0  0  0  0  2  0  0  0  0  0  0
  197.7190  175.9550  136.6240 O   0  0  0  0  0  1  0  0  0  0  0  0
  197.2570  175.0070  135.7030 C   0  0  1  0  0  3  0  0  0  0  0  0
  195.8330  174.5350  136.0090 C   0  0  1  0  0  3  0  0  0  0  0  0
  189.8640  174.1560  143.0510 C   0  0  2  0  0  3  0  0  0  0  0  0
  190.0950  172.5010  144.9900 C   0  0  0  0  0  1  0  0  0  0  0  0
  189.4210  173.7600  144.4740 C   0  0  0  0  0  2  0  0  0  0  0  0
  190.3690  175.6040  142.8890 C   0  0  2  0  0  3  0  0  0  0  0  0
  192.6040  174.9830  143.8940 N   0  0  0  0  0  2  0  0  0  0  0  0
  191.8670  175.7100  142.9020 C   0  0  0  0  0  0  0  0  0  0  0  0
  192.4600  176.3840  142.0160 O   0  0  0  0  0  0  0  0  0  0  0  0
  196.8630  175.2480  143.8620 C   0  0  0  0  0  2  0  0  0  0  0  0
  194.7630  173.8900  144.0120 C   0  0  0  0  0  3  0  0  0  0  0  0
  194.0250  175.0080  144.0980 C   0  0  0  0  0  0  0  0  0  0  0  0
  196.2470  173.9030  144.2740 C   0  0  2  0  0  0  0  0  0  0  0  0
  193.9440  177.3850  144.7070 F   0  0  0  0  0  0  0  0  0  0  0  0
  196.5010  173.6570  145.7530 C   0  0  0  0  0  1  0  0  0  0  0  0
  196.8460  172.8820  143.5400 O   0  0  0  0  0  1  0  0  0  0  0  0
  194.6860  176.3030  144.3650 C   0  0  0  0  0  0  0  0  0  0  0  0
  196.0150  176.4130  144.3010 C   0  0  0  0  0  3  0  0  0  0  0  0
  189.6440  176.6510  143.7510 C   0  0  1  0  0  3  0  0  0  0  0  0
  190.5100  177.8560  144.1220 C   0  0  0  0  0  1  0  0  0  0  0  0
  188.3930  178.3330  142.5570 O   0  0  0  0  0  1  0  0  0  0  0  0
  188.3040  177.0580  143.1300 C   0  0  2  0  0  3  0  0  0  0  0  0
  186.3910  178.3420  144.1490 C   0  0  0  0  0  2  0  0  0  0  0  0
  185.6940  177.1110  146.8820 C   0  0  0  0  0  2  0  0  0  0  0  0
  187.0990  176.6100  146.6230 C   0  0  0  0  0  3  0  0  0  0  0  0
  187.1730  177.0100  144.1570 C   0  0  2  0  0  3  0  0  0  0  0  0
  185.6550  178.4770  146.2620 C   0  0  2  0  0  3  0  0  0  0  0  0
  184.4940  179.0330  145.7030 O   0  0  0  0  0  0  0  0  0  0  0  0
  185.1480  178.0580  144.9370 C   0  0  1  0  0  3  0  0  0  0  0  0
  187.7060  176.6210  145.4690 N   0  0  0  0  0  0  0  0  0  0  0  0
  3  1  1  6  0  0  0
  3  2  1  0  0  0  0
  3 33  1  0  0  0  0
  4  3  1  0  0  0  0
  7  6  1  1  0  0  0
  7  5  1  0  0  0  0
  7 11  1  0  0  0  0
  8 10  1  0  0  0  0
  9 15  1  6  0  0  0
  9 12  1  0  0  0  0
  9 13  1  0  0  0  0
 11  4  1  1  0  0  0
 11 10  1  0  0  0  0
 12  5  1  0  0  0  0
 13 14  1  0  0  0  0
 14 20  1  1  0  0  0
 14  8  1  0  0  0  0
 16 15  1  0  0  0  0
 17 18  1  0  0  0  0
 17 19  1  0  0  0  0
 18 19  1  0  0  0  0
 19 16  1  6  0  0  0
 20 21  1  0  0  0  0
 22 25  1  0  0  0  0
 23 24  1  0  0  0  0
 23 22  1  0  0  0  0
 24 27  1  0  0  0  0
 27 26  1  1  0  0  0
 27 25  1  0  0  0  0
 27 21  1  0  0  0  0
 28 23  1  0  0  0  0
 29 31  1  0  0  0  0
 29 32  1  0  0  0  0
 31 32  1  0  0  0  0
 31 30  1  1  0  0  0
 32 28  1  1  0  0  0
 33 35  1  1  0  0  0
 35 34  1  0  0  0  0
 36 38  1  1  0  0  0
 36 33  1  0  0  0  0
 36 49  1  0  0  0  0
 37 42  1  0  0  0  0
 38 37  1  0  0  0  0
 39 38  2  0  0  0  0
 40 43  1  0  0  0  0
 40 48  1  0  0  0  0
 41 42  2  0  0  0  0
 41 43  1  0  0  0  0
 42 47  1  0  0  0  0
 43 45  1  1  0  0  0
 46 43  1  0  0  0  0
 47 44  1  0  0  0  0
 48 47  2  0  0  0  0
 49 50  1  6  0  0  0
 52 51  1  1  0  0  0
 52 49  1  0  0  0  0
 53 56  1  0  0  0  0
 55 54  1  0  0  0  0
 56 52  1  6  0  0  0
 56 60  1  0  0  0  0
 57 54  1  1  0  0  0
 58 57  1  0  0  0  0
 59 53  1  6  0  0  0
 59 58  1  0  0  0  0
 59 57  1  0  0  0  0
 60 55  2  0  0  0  0
M  END
>  <MODEL>
4

>  <REMARK>
 VINA RESULT:      -6.0      2.300      3.943
  Name = 
  18 active torsions:
  status: ('A' for Active; 'I' for Inactive)
    1  A    between atoms: C_9  and  N_11
    2  A    between atoms: C_19  and  C_48
    3  A    between atoms: C_19  and  C_51
    4  A    between atoms: C_25  and  C_27
    5  A    between atoms: C_25  and  C_29
    6  A    between atoms: C_26  and  C_30
    7  A    between atoms: C_29  and  C_30
    8  A    between atoms: C_30  and  C_45
    9  A    between atoms: C_32  and  C_58
   10  A    between atoms: C_34  and  C_36
   11  A    between atoms: C_36  and  C_39
   12  A    between atoms: C_37  and  C_39
   13  A    between atoms: N_40  and  C_58
   14  A    between atoms: C_42  and  O_56
   15  A    between atoms: C_42  and  C_60
   16  A    between atoms: C_45  and  C_48
   17  A    between atoms: C_45  and  C_49
   18  A    between atoms: C_50  and  O_56
                            x       y       z     vdW  Elec       q    Type
                         _______ _______ _______ _____ _____    ______ ____

>  <TORSDO>
F 18

$$$$
=
 OpenBabel11062420403D

 60 66  0  0  1  0  0  0  0  0999 V2000
  188.4830  174.9970  141.0640 C   0  0  0  0  0  1  0  0  0  0  0  0
  187.2480  173.3250  142.1950 O   0  0  0  0  0  1  0  0  0  0  0  0
  188.5410  173.6500  141.7740 C   0  0  1  0  0  0  0  0  0  0  0  0
  189.0510  172.5550  140.8230 C   0  0  0  0  0  2  0  0  0  0  0  0
  190.7120  171.5080  138.3420 O   0  0  0  0  0  0  0  0  0  0  0  0
  189.7520  173.7230  138.2050 C   0  0  0  0  0  1  0  0  0  0  0  0
  190.7300  172.7950  138.9130 C   0  0  1  0  0  3  0  0  0  0  0  0
  192.7640  171.8730  141.3190 C   0  0  0  0  0  2  0  0  0  0  0  0
  193.1340  171.7270  137.9070 C   0  0  1  0  0  3  0  0  0  0  0  0
  191.2970  171.5610  141.0480 C   0  0  0  0  0  2  0  0  0  0  0  0
  190.5220  172.7270  140.4370 C   0  0  2  0  0  3  0  0  0  0  0  0
  191.7240  171.4610  137.3610 C   0  0  0  0  0  2  0  0  0  0  0  0
  193.3680  171.0620  139.1200 O   0  0  0  0  0  0  0  0  0  0  0  0
  193.5940  172.0860  140.0540 C   0  0  2  0  0  3  0  0  0  0  0  0
  194.2120  171.4070  136.8770 C   0  0  0  0  0  2  0  0  0  0  0  0
  194.7790  170.0020  137.0320 C   0  0  0  0  0  2  0  0  0  0  0  0
  195.1100  169.0500  134.8770 O   0  0  0  0  0  0  0  0  0  0  0  0
  195.8840  168.2470  135.7350 C   0  0  0  0  0  2  0  0  0  0  0  0
  195.7750  169.7080  135.9290 C   0  0  2  0  0  3  0  0  0  0  0  0
  195.0610  172.1080  140.4470 C   0  0  0  0  0  2  0  0  0  0  0  0
  195.6170  170.8230  140.3160 O   0  0  0  0  0  0  0  0  0  0  0  0
  195.8790  168.8350  142.8440 C   0  0  0  0  0  2  0  0  0  0  0  0
  195.8650  170.0590  143.6370 N   0  0  0  0  0  0  0  0  0  0  0  0
  196.0510  171.1570  142.6920 C   0  0  0  0  0  2  0  0  0  0  0  0
  196.6510  169.1030  141.5790 C   0  0  0  0  0  2  0  0  0  0  0  0
  197.9370  171.1150  141.0290 C   0  0  0  0  0  1  0  0  0  0  0  0
  196.5420  170.5900  141.3600 C   0  0  1  0  0  0  0  0  0  0  0  0
  197.0260  170.0610  144.5200 C   0  0  0  0  0  2  0  0  0  0  0  0
  195.3170  169.9350  146.3080 C   0  0  0  0  0  2  0  0  0  0  0  0
  196.9170  168.1730  146.4630 O   0  0  0  0  0  1  0  0  0  0  0  0
  196.5800  169.4300  146.9800 C   0  0  1  0  0  3  0  0  0  0  0  0
  196.6510  170.5380  145.9260 C   0  0  1  0  0  3  0  0  0  0  0  0
  189.4500  173.7630  143.0180 C   0  0  2  0  0  3  0  0  0  0  0  0
  190.6310  171.9500  144.3870 C   0  0  0  0  0  1  0  0  0  0  0  0
  189.3200  172.6560  144.0840 C   0  0  0  0  0  2  0  0  0  0  0  0
  189.6170  175.1960  143.5620 C   0  0  2  0  0  3  0  0  0  0  0  0
  192.0640  174.9360  144.1450 N   0  0  0  0  0  2  0  0  0  0  0  0
  191.0330  175.6900  143.4920 C   0  0  0  0  0  0  0  0  0  0  0  0
  191.3100  176.7210  142.8180 O   0  0  0  0  0  0  0  0  0  0  0  0
  196.0510  176.4480  143.9790 C   0  0  0  0  0  2  0  0  0  0  0  0
  194.3830  174.6400  143.5100 C   0  0  0  0  0  3  0  0  0  0  0  0
  193.4550  175.2820  144.2360 C   0  0  0  0  0  0  0  0  0  0  0  0
  195.8490  174.9640  143.6390 C   0  0  2  0  0  0  0  0  0  0  0  0
  192.9890  176.8840  146.0370 F   0  0  0  0  0  0  0  0  0  0  0  0
  196.4640  174.1020  144.7290 C   0  0  0  0  0  1  0  0  0  0  0  0
  196.4840  174.6820  142.4310 O   0  0  0  0  0  1  0  0  0  0  0  0
  193.8570  176.3990  145.1150 C   0  0  0  0  0  0  0  0  0  0  0  0
  195.0850  176.9200  145.0340 C   0  0  0  0  0  3  0  0  0  0  0  0
  188.9060  175.4770  144.8950 C   0  0  1  0  0  3  0  0  0  0  0  0
  189.6480  174.9400  146.1200 C   0  0  0  0  0  1  0  0  0  0  0  0
  189.3390  177.5780  146.0000 O   0  0  0  0  0  1  0  0  0  0  0  0
  188.5380  176.9590  145.0330 C   0  0  2  0  0  3  0  0  0  0  0  0
  186.3790  178.0360  144.3060 C   0  0  0  0  0  2  0  0  0  0  0  0
  184.4760  178.2060  146.7180 C   0  0  0  0  0  2  0  0  0  0  0  0
  185.8360  178.0250  147.3600 C   0  0  0  0  0  3  0  0  0  0  0  0
  187.0580  177.1400  145.3670 C   0  0  2  0  0  3  0  0  0  0  0  0
  184.7420  179.0140  145.4820 C   0  0  2  0  0  3  0  0  0  0  0  0
  183.9810  178.8940  144.3080 O   0  0  0  0  0  0  0  0  0  0  0  0
  184.9100  177.8740  144.5550 C   0  0  1  0  0  3  0  0  0  0  0  0
  186.9120  177.6130  146.7500 N   0  0  0  0  0  0  0  0  0  0  0  0
  3  1  1  6  0  0  0
  3  2  1  0  0  0  0
  3 33  1  0  0  0  0
  4  3  1  0  0  0  0
  5  7  1  0  0  0  0
  7  6  1  6  0  0  0
  7 11  1  0  0  0  0
  9 15  1  6  0  0  0
  9 13  1  0  0  0  0
 10  8  1  0  0  0  0
 11  4  1  6  0  0  0
 11 10  1  0  0  0  0
 12  9  1  0  0  0  0
 12  5  1  0  0  0  0
 13 14  1  0  0  0  0
 14 20  1  1  0  0  0
 14  8  1  0  0  0  0
 15 16  1  0  0  0  0
 17 18  1  0  0  0  0
 17 19  1  0  0  0  0
 18 19  1  0  0  0  0
 19 16  1  1  0  0  0
 21 20  1  0  0  0  0
 21 27  1  0  0  0  0
 22 23  1  0  0  0  0
 23 28  1  0  0  0  0
 24 23  1  0  0  0  0
 25 22  1  0  0  0  0
 27 26  1  6  0  0  0
 27 25  1  0  0  0  0
 27 24  1  0  0  0  0
 29 31  1  0  0  0  0
 31 30  1  6  0  0  0
 32 28  1  6  0  0  0
 32 29  1  0  0  0  0
 32 31  1  0  0  0  0
 33 36  1  0  0  0  0
 33 35  1  1  0  0  0
 35 34  1  0  0  0  0
 36 38  1  1  0  0  0
 36 49  1  0  0  0  0
 37 42  1  0  0  0  0
 38 37  1  0  0  0  0
 39 38  2  0  0  0  0
 40 48  1  0  0  0  0
 41 43  1  0  0  0  0
 41 42  2  0  0  0  0
 42 47  1  0  0  0  0
 43 40  1  0  0  0  0
 43 45  1  1  0  0  0
 46 43  1  0  0  0  0
 47 44  1  0  0  0  0
 48 47  2  0  0  0  0
 49 52  1  0  0  0  0
 49 50  1  1  0  0  0
 52 51  1  1  0  0  0
 53 56  1  0  0  0  0
 54 55  1  0  0  0  0
 56 52  1  6  0  0  0
 56 60  1  0  0  0  0
 57 54  1  1  0  0  0
 58 59  1  0  0  0  0
 58 57  1  0  0  0  0
 59 53  1  6  0  0  0
 59 57  1  0  0  0  0
 60 55  2  0  0  0  0
M  END
>  <MODEL>
5

>  <REMARK>
 VINA RESULT:      -6.0      1.687      2.054
  Name = 
  18 active torsions:
  status: ('A' for Active; 'I' for Inactive)
    1  A    between atoms: C_9  and  N_11
    2  A    between atoms: C_19  and  C_48
    3  A    between atoms: C_19  and  C_51
    4  A    between atoms: C_25  and  C_27
    5  A    between atoms: C_25  and  C_29
    6  A    between atoms: C_26  and  C_30
    7  A    between atoms: C_29  and  C_30
    8  A    between atoms: C_30  and  C_45
    9  A    between atoms: C_32  and  C_58
   10  A    between atoms: C_34  and  C_36
   11  A    between atoms: C_36  and  C_39
   12  A    between atoms: C_37  and  C_39
   13  A    between atoms: N_40  and  C_58
   14  A    between atoms: C_42  and  O_56
   15  A    between atoms: C_42  and  C_60
   16  A    between atoms: C_45  and  C_48
   17  A    between atoms: C_45  and  C_49
   18  A    between atoms: C_50  and  O_56
                            x       y       z     vdW  Elec       q    Type
                         _______ _______ _______ _____ _____    ______ ____

>  <TORSDO>
F 18

$$$$
=
 OpenBabel11062420403D

 60 66  0  0  1  0  0  0  0  0999 V2000
  187.8890  175.1690  141.5220 C   0  0  0  0  0  1  0  0  0  0  0  0
  187.1670  173.0920  142.3990 O   0  0  0  0  0  1  0  0  0  0  0  0
  188.3090  173.7720  141.9650 C   0  0  1  0  0  0  0  0  0  0  0  0
  188.9420  172.9980  140.7980 C   0  0  0  0  0  2  0  0  0  0  0  0
  190.4430  172.5630  138.0470 O   0  0  0  0  0  0  0  0  0  0  0  0
  188.6360  174.1680  138.1060 C   0  0  0  0  0  1  0  0  0  0  0  0
  190.0170  173.7780  138.6160 C   0  0  1  0  0  3  0  0  0  0  0  0
  192.6250  173.9470  140.6030 C   0  0  0  0  0  2  0  0  0  0  0  0
  192.4390  173.7330  137.1800 C   0  0  1  0  0  3  0  0  0  0  0  0
  191.4010  173.0390  140.6010 C   0  0  0  0  0  2  0  0  0  0  0  0
  190.1180  173.7360  140.1520 C   0  0  2  0  0  3  0  0  0  0  0  0
  191.2000  172.8700  136.8980 C   0  0  0  0  0  2  0  0  0  0  0  0
  193.1320  173.3090  138.3240 O   0  0  0  0  0  0  0  0  0  0  0  0
  193.0630  174.3960  139.2100 C   0  0  2  0  0  3  0  0  0  0  0  0
  193.3610  173.8170  135.9680 C   0  0  0  0  0  2  0  0  0  0  0  0
  192.8140  174.7220  134.8710 C   0  0  0  0  0  2  0  0  0  0  0  0
  193.5550  176.6420  136.0640 O   0  0  0  0  0  0  0  0  0  0  0  0
  192.7080  177.1580  135.0650 C   0  0  0  0  0  2  0  0  0  0  0  0
  193.6050  176.0120  134.8060 C   0  0  2  0  0  3  0  0  0  0  0  0
  194.4290  175.0490  139.3290 C   0  0  0  0  0  2  0  0  0  0  0  0
  195.3780  174.3270  138.5840 O   0  0  0  0  0  0  0  0  0  0  0  0
  196.7460  171.5540  139.5060 C   0  0  0  0  0  2  0  0  0  0  0  0
  196.3370  171.9530  140.8470 N   0  0  0  0  0  0  0  0  0  0  0  0
  195.9390  173.3550  140.7490 C   0  0  0  0  0  2  0  0  0  0  0  0
  197.1740  172.7880  138.7570 C   0  0  0  0  0  2  0  0  0  0  0  0
  197.4490  175.0470  139.6640 C   0  0  0  0  0  1  0  0  0  0  0  0
  196.4430  173.9250  139.4240 C   0  0  1  0  0  0  0  0  0  0  0  0
  197.5000  171.9060  141.7270 C   0  0  0  0  0  2  0  0  0  0  0  0
  195.9490  170.8560  143.3480 C   0  0  0  0  0  2  0  0  0  0  0  0
  197.9370  169.5740  143.0390 O   0  0  0  0  0  1  0  0  0  0  0  0
  197.3250  170.5060  143.8860 C   0  0  1  0  0  3  0  0  0  0  0  0
  197.0790  171.8520  143.1980 C   0  0  1  0  0  3  0  0  0  0  0  0
  189.2950  173.8830  143.1500 C   0  0  2  0  0  3  0  0  0  0  0  0
  190.6910  171.9260  144.0290 C   0  0  0  0  0  1  0  0  0  0  0  0
  189.3750  172.6800  144.1110 C   0  0  0  0  0  2  0  0  0  0  0  0
  189.3430  175.2730  143.8160 C   0  0  2  0  0  3  0  0  0  0  0  0
  191.7500  175.2980  144.5900 N   0  0  0  0  0  2  0  0  0  0  0  0
  190.7120  175.8880  143.7950 C   0  0  0  0  0  0  0  0  0  0  0  0
  190.9510  176.8730  143.0430 O   0  0  0  0  0  0  0  0  0  0  0  0
  195.5100  177.3040  144.8050 C   0  0  0  0  0  2  0  0  0  0  0  0
  194.0280  175.5510  143.8050 C   0  0  0  0  0  3  0  0  0  0  0  0
  193.0950  175.7790  144.7420 C   0  0  0  0  0  0  0  0  0  0  0  0
  195.4520  176.0090  143.9820 C   0  0  2  0  0  0  0  0  0  0  0  0
  192.5970  176.6020  147.0000 F   0  0  0  0  0  0  0  0  0  0  0  0
  196.2500  174.9220  144.6840 C   0  0  0  0  0  1  0  0  0  0  0  0
  196.0140  176.2390  142.7280 O   0  0  0  0  0  1  0  0  0  0  0  0
  193.4370  176.5780  145.9360 C   0  0  0  0  0  0  0  0  0  0  0  0
  194.5860  177.2580  145.9930 C   0  0  0  0  0  3  0  0  0  0  0  0
  188.6140  175.3770  145.1660 C   0  0  1  0  0  3  0  0  0  0  0  0
  189.2960  174.6110  146.3000 C   0  0  0  0  0  1  0  0  0  0  0  0
  188.8540  177.1440  146.7920 O   0  0  0  0  0  1  0  0  0  0  0  0
  188.3220  176.8360  145.5330 C   0  0  2  0  0  3  0  0  0  0  0  0
  186.4330  177.7320  144.1270 C   0  0  0  0  0  2  0  0  0  0  0  0
  184.1190  178.5790  145.9710 C   0  0  0  0  0  2  0  0  0  0  0  0
  185.3110  178.5430  146.9040 C   0  0  0  0  0  3  0  0  0  0  0  0
  186.8230  177.1340  145.4970 C   0  0  2  0  0  3  0  0  0  0  0  0
  184.6790  179.0250  144.6520 C   0  0  2  0  0  3  0  0  0  0  0  0
  184.1520  178.6160  143.4170 O   0  0  0  0  0  0  0  0  0  0  0  0
  184.9350  177.6760  144.1010 C   0  0  1  0  0  3  0  0  0  0  0  0
  186.4510  177.9600  146.6540 N   0  0  0  0  0  0  0  0  0  0  0  0
  3  1  1  6  0  0  0
  3  2  1  0  0  0  0
  3 33  1  0  0  0  0
  4  3  1  0  0  0  0
  5  7  1  0  0  0  0
  7  6  1  1  0  0  0
  7 11  1  0  0  0  0
  9 15  1  6  0  0  0
  9 13  1  0  0  0  0
 10  8  1  0  0  0  0
 11 10  1  0  0  0  0
 11  4  1  1  0  0  0
 12  9  1  0  0  0  0
 12  5  1  0  0  0  0
 13 14  1  0  0  0  0
 14 20  1  1  0  0  0
 14  8  1  0  0  0  0
 16 15  1  0  0  0  0
 18 17  1  0  0  0  0
 19 16  1  1  0  0  0
 19 18  1  0  0  0  0
 19 17  1  0  0  0  0
 21 20  1  0  0  0  0
 21 27  1  0  0  0  0
 22 23  1  0  0  0  0
 23 28  1  0  0  0  0
 24 23  1  0  0  0  0
 25 27  1  0  0  0  0
 25 22  1  0  0  0  0
 27 26  1  1  0  0  0
 27 24  1  0  0  0  0
 29 31  1  0  0  0  0
 31 30  1  6  0  0  0
 32 28  1  6  0  0  0
 32 29  1  0  0  0  0
 32 31  1  0  0  0  0
 33 36  1  0  0  0  0
 33 35  1  1  0  0  0
 34 35  1  0  0  0  0
 36 38  1  1  0  0  0
 36 49  1  0  0  0  0
 37 42  1  0  0  0  0
 38 37  1  0  0  0  0
 39 38  2  0  0  0  0
 40 48  1  0  0  0  0
 41 43  1  0  0  0  0
 41 42  2  0  0  0  0
 42 47  1  0  0  0  0
 43 45  1  1  0  0  0
 43 40  1  0  0  0  0
 46 43  1  0  0  0  0
 47 48  2  0  0  0  0
 47 44  1  0  0  0  0
 49 52  1  0  0  0  0
 49 50  1  1  0  0  0
 52 51  1  1  0  0  0
 53 56  1  0  0  0  0
 54 55  1  0  0  0  0
 56 52  1  6  0  0  0
 56 60  1  0  0  0  0
 57 54  1  1  0  0  0
 58 59  1  0  0  0  0
 58 57  1  0  0  0  0
 59 53  1  6  0  0  0
 59 57  1  0  0  0  0
 60 55  2  0  0  0  0
M  END
>  <MODEL>
6

>  <REMARK>
 VINA RESULT:      -5.9      1.633      2.082
  Name = 
  18 active torsions:
  status: ('A' for Active; 'I' for Inactive)
    1  A    between atoms: C_9  and  N_11
    2  A    between atoms: C_19  and  C_48
    3  A    between atoms: C_19  and  C_51
    4  A    between atoms: C_25  and  C_27
    5  A    between atoms: C_25  and  C_29
    6  A    between atoms: C_26  and  C_30
    7  A    between atoms: C_29  and  C_30
    8  A    between atoms: C_30  and  C_45
    9  A    between atoms: C_32  and  C_58
   10  A    between atoms: C_34  and  C_36
   11  A    between atoms: C_36  and  C_39
   12  A    between atoms: C_37  and  C_39
   13  A    between atoms: N_40  and  C_58
   14  A    between atoms: C_42  and  O_56
   15  A    between atoms: C_42  and  C_60
   16  A    between atoms: C_45  and  C_48
   17  A    between atoms: C_45  and  C_49
   18  A    between atoms: C_50  and  O_56
                            x       y       z     vdW  Elec       q    Type
                         _______ _______ _______ _____ _____    ______ ____

>  <TORSDO>
F 18

$$$$
=
 OpenBabel11062420403D

 60 66  0  0  1  0  0  0  0  0999 V2000
  189.3210  175.0330  140.8750 C   0  0  0  0  0  1  0  0  0  0  0  0
  187.5190  174.4070  142.2750 O   0  0  0  0  0  1  0  0  0  0  0  0
  188.7960  174.0070  141.8730 C   0  0  1  0  0  0  0  0  0  0  0  0
  188.7070  172.6150  141.2280 C   0  0  0  0  0  2  0  0  0  0  0  0
  189.3790  170.5460  138.9300 O   0  0  0  0  0  0  0  0  0  0  0  0
  189.2410  172.8870  138.3390 C   0  0  0  0  0  1  0  0  0  0  0  0
  189.9550  171.8120  139.1490 C   0  0  1  0  0  3  0  0  0  0  0  0
  191.9730  170.6710  141.4730 C   0  0  0  0  0  2  0  0  0  0  0  0
  191.5910  169.7300  138.1920 C   0  0  1  0  0  3  0  0  0  0  0  0
  190.4660  170.9000  141.4520 C   0  0  0  0  0  2  0  0  0  0  0  0
  190.0410  172.1300  140.6530 C   0  0  2  0  0  3  0  0  0  0  0  0
  190.0980  169.9230  137.8890 C   0  0  0  0  0  2  0  0  0  0  0  0
  191.8130  169.2770  139.5010 O   0  0  0  0  0  0  0  0  0  0  0  0
  192.5590  170.2970  140.1120 C   0  0  2  0  0  3  0  0  0  0  0  0
  192.2660  168.8250  137.1660 C   0  0  0  0  0  2  0  0  0  0  0  0
  193.4700  169.4810  136.5020 C   0  0  0  0  0  2  0  0  0  0  0  0
  192.5940  171.3210  135.2750 O   0  0  0  0  0  0  0  0  0  0  0  0
  193.9860  171.5260  135.2620 C   0  0  0  0  0  2  0  0  0  0  0  0
  193.2920  170.9850  136.4490 C   0  0  2  0  0  3  0  0  0  0  0  0
  193.9900  169.8310  140.3240 C   0  0  0  0  0  2  0  0  0  0  0  0
  194.5350  170.4460  141.4650 O   0  0  0  0  0  0  0  0  0  0  0  0
  194.0430  168.6530  144.1030 C   0  0  0  0  0  2  0  0  0  0  0  0
  195.1720  169.3940  144.6540 N   0  0  0  0  0  0  0  0  0  0  0  0
  195.7880  170.0910  143.5270 C   0  0  0  0  0  2  0  0  0  0  0  0
  194.3140  168.4000  142.6430 C   0  0  0  0  0  2  0  0  0  0  0  0
  196.3890  168.8530  141.4230 C   0  0  0  0  0  1  0  0  0  0  0  0
  195.2590  169.4960  142.2230 C   0  0  1  0  0  0  0  0  0  0  0  0
  196.1610  168.4440  145.1520 C   0  0  0  0  0  2  0  0  0  0  0  0
  196.4210  170.2240  146.8530 C   0  0  0  0  0  2  0  0  0  0  0  0
  195.6600  168.1730  147.8030 O   0  0  0  0  0  1  0  0  0  0  0  0
  196.8020  168.9560  147.5960 C   0  0  1  0  0  3  0  0  0  0  0  0
  197.1430  169.1190  146.1120 C   0  0  1  0  0  3  0  0  0  0  0  0
  189.7170  173.9800  143.1140 C   0  0  2  0  0  3  0  0  0  0  0  0
  189.9180  171.9980  144.7210 C   0  0  0  0  0  1  0  0  0  0  0  0
  189.1740  173.2760  144.3740 C   0  0  0  0  0  2  0  0  0  0  0  0
  190.4950  175.2870  143.3630 C   0  0  2  0  0  3  0  0  0  0  0  0
  192.8740  175.7550  142.6430 N   0  0  0  0  0  2  0  0  0  0  0  0
  191.9720  175.0710  143.5240 C   0  0  0  0  0  0  0  0  0  0  0  0
  192.4060  174.3420  144.4590 O   0  0  0  0  0  0  0  0  0  0  0  0
  197.1160  175.9670  142.2310 C   0  0  0  0  0  2  0  0  0  0  0  0
  194.9180  174.9150  141.6500 C   0  0  0  0  0  3  0  0  0  0  0  0
  194.3030  175.6270  142.6080 C   0  0  0  0  0  0  0  0  0  0  0  0
  196.4140  174.7360  141.6380 C   0  0  2  0  0  0  0  0  0  0  0  0
  194.5120  176.8360  144.7340 F   0  0  0  0  0  0  0  0  0  0  0  0
  196.7820  173.5010  142.4430 C   0  0  0  0  0  1  0  0  0  0  0  0
  196.8390  174.5580  140.3230 O   0  0  0  0  0  1  0  0  0  0  0  0
  195.1090  176.3340  143.6250 C   0  0  0  0  0  0  0  0  0  0  0  0
  196.4310  176.4570  143.4800 C   0  0  0  0  0  3  0  0  0  0  0  0
  189.8690  176.2340  144.4000 C   0  0  1  0  0  3  0  0  0  0  0  0
  190.8840  177.1250  145.1190 C   0  0  0  0  0  1  0  0  0  0  0  0
  189.1760  177.9580  142.8620 O   0  0  0  0  0  1  0  0  0  0  0  0
  188.7060  177.0320  143.8010 C   0  0  2  0  0  3  0  0  0  0  0  0
  187.4590  176.7190  145.9680 C   0  0  0  0  0  2  0  0  0  0  0  0
  185.4910  179.0540  146.3430 C   0  0  0  0  0  2  0  0  0  0  0  0
  185.7860  179.0840  144.8580 C   0  0  0  0  0  3  0  0  0  0  0  0
  187.8900  177.7340  144.8860 C   0  0  2  0  0  3  0  0  0  0  0  0
  185.5380  177.6000  146.7130 C   0  0  2  0  0  3  0  0  0  0  0  0
  185.9490  177.1420  147.9740 O   0  0  0  0  0  0  0  0  0  0  0  0
  186.9640  177.5620  147.1040 C   0  0  1  0  0  3  0  0  0  0  0  0
  186.7840  178.4820  144.2730 N   0  0  0  0  0  0  0  0  0  0  0  0
  3  1  1  6  0  0  0
  3  2  1  0  0  0  0
  3 33  1  0  0  0  0
  4  3  1  0  0  0  0
  5  7  1  0  0  0  0
  7  6  1  6  0  0  0
  7 11  1  0  0  0  0
  9 15  1  6  0  0  0
  9 13  1  0  0  0  0
 10  8  1  0  0  0  0
 11  4  1  1  0  0  0
 11 10  1  0  0  0  0
 12  9  1  0  0  0  0
 12  5  1  0  0  0  0
 13 14  1  0  0  0  0
 14 20  1  1  0  0  0
 14  8  1  0  0  0  0
 16 15  1  0  0  0  0
 17 19  1  0  0  0  0
 18 17  1  0  0  0  0
 18 19  1  0  0  0  0
 19 16  1  6  0  0  0
 20 21  1  0  0  0  0
 21 27  1  0  0  0  0
 22 23  1  0  0  0  0
 23 28  1  0  0  0  0
 24 23  1  0  0  0  0
 25 22  1  0  0  0  0
 27 26  1  6  0  0  0
 27 25  1  0  0  0  0
 27 24  1  0  0  0  0
 29 31  1  0  0  0  0
 31 30  1  6  0  0  0
 32 28  1  6  0  0  0
 32 29  1  0  0  0  0
 32 31  1  0  0  0  0
 33 36  1  0  0  0  0
 33 35  1  1  0  0  0
 35 34  1  0  0  0  0
 36 38  1  1  0  0  0
 36 49  1  0  0  0  0
 37 38  1  0  0  0  0
 38 39  2  0  0  0  0
 40 48  1  0  0  0  0
 41 42  2  0  0  0  0
 42 37  1  0  0  0  0
 42 47  1  0  0  0  0
 43 41  1  0  0  0  0
 43 40  1  0  0  0  0
 43 45  1  1  0  0  0
 46 43  1  0  0  0  0
 47 44  1  0  0  0  0
 48 47  2  0  0  0  0
 49 50  1  6  0  0  0
 52 51  1  6  0  0  0
 52 49  1  0  0  0  0
 55 54  1  0  0  0  0
 56 52  1  6  0  0  0
 56 53  1  0  0  0  0
 57 54  1  1  0  0  0
 57 59  1  0  0  0  0
 57 58  1  0  0  0  0
 59 53  1  6  0  0  0
 59 58  1  0  0  0  0
 60 55  2  0  0  0  0
 60 56  1  0  0  0  0
M  END
>  <MODEL>
7

>  <REMARK>
 VINA RESULT:      -5.5      1.899      2.269
  Name = 
  18 active torsions:
  status: ('A' for Active; 'I' for Inactive)
    1  A    between atoms: C_9  and  N_11
    2  A    between atoms: C_19  and  C_48
    3  A    between atoms: C_19  and  C_51
    4  A    between atoms: C_25  and  C_27
    5  A    between atoms: C_25  and  C_29
    6  A    between atoms: C_26  and  C_30
    7  A    between atoms: C_29  and  C_30
    8  A    between atoms: C_30  and  C_45
    9  A    between atoms: C_32  and  C_58
   10  A    between atoms: C_34  and  C_36
   11  A    between atoms: C_36  and  C_39
   12  A    between atoms: C_37  and  C_39
   13  A    between atoms: N_40  and  C_58
   14  A    between atoms: C_42  and  O_56
   15  A    between atoms: C_42  and  C_60
   16  A    between atoms: C_45  and  C_48
   17  A    between atoms: C_45  and  C_49
   18  A    between atoms: C_50  and  O_56
                            x       y       z     vdW  Elec       q    Type
                         _______ _______ _______ _____ _____    ______ ____

>  <TORSDO>
F 18

$$$$
=
 OpenBabel11062420403D

 60 66  0  0  1  0  0  0  0  0999 V2000
  188.4030  174.9090  141.0570 C   0  0  0  0  0  1  0  0  0  0  0  0
  187.3830  173.2250  142.3710 O   0  0  0  0  0  1  0  0  0  0  0  0
  188.5860  173.5610  141.7440 C   0  0  1  0  0  0  0  0  0  0  0  0
  188.9400  172.4710  140.7190 C   0  0  0  0  0  2  0  0  0  0  0  0
  190.2820  171.5320  138.0130 O   0  0  0  0  0  0  0  0  0  0  0  0
  189.5060  173.8170  138.1550 C   0  0  0  0  0  1  0  0  0  0  0  0
  190.4600  172.7550  138.6860 C   0  0  1  0  0  3  0  0  0  0  0  0
  192.6110  171.4620  140.8030 C   0  0  0  0  0  2  0  0  0  0  0  0
  192.6670  171.6020  137.3720 C   0  0  1  0  0  3  0  0  0  0  0  0
  191.1040  171.2900  140.6460 C   0  0  0  0  0  2  0  0  0  0  0  0
  190.3810  172.5640  140.2120 C   0  0  2  0  0  3  0  0  0  0  0  0
  191.1970  171.4970  136.9400 C   0  0  0  0  0  2  0  0  0  0  0  0
  192.9490  170.8130  138.4960 O   0  0  0  0  0  0  0  0  0  0  0  0
  193.3420  171.7250  139.4870 C   0  0  2  0  0  3  0  0  0  0  0  0
  193.6200  171.2960  136.2210 C   0  0  0  0  0  2  0  0  0  0  0  0
  194.1360  172.5530  135.5310 C   0  0  0  0  0  2  0  0  0  0  0  0
  195.0340  174.7050  136.0020 O   0  0  0  0  0  0  0  0  0  0  0  0
  196.1660  173.8890  135.8170 C   0  0  0  0  0  2  0  0  0  0  0  0
  194.9510  173.3890  136.4960 C   0  0  2  0  0  3  0  0  0  0  0  0
  194.8350  171.5980  139.7410 C   0  0  0  0  0  2  0  0  0  0  0  0
  195.2240  170.2480  139.6740 O   0  0  0  0  0  0  0  0  0  0  0  0
  195.0820  168.8490  142.5780 C   0  0  0  0  0  2  0  0  0  0  0  0
  195.5130  170.1490  143.0780 N   0  0  0  0  0  0  0  0  0  0  0  0
  195.9450  170.9100  141.9070 C   0  0  0  0  0  2  0  0  0  0  0  0
  195.7850  168.5890  141.2720 C   0  0  0  0  0  2  0  0  0  0  0  0
  197.5730  169.9250  140.2640 C   0  0  0  0  0  1  0  0  0  0  0  0
  196.1190  169.9540  140.7280 C   0  0  1  0  0  0  0  0  0  0  0  0
  196.6920  169.9640  143.9180 C   0  0  0  0  0  2  0  0  0  0  0  0
  197.5600  169.2340  146.1190 C   0  0  0  0  0  2  0  0  0  0  0  0
  196.8310  171.5050  146.1440 O   0  0  0  0  0  1  0  0  0  0  0  0
  196.4440  170.2010  146.4730 C   0  0  1  0  0  3  0  0  0  0  0  0
  196.3260  169.2940  145.2440 C   0  0  1  0  0  3  0  0  0  0  0  0
  189.6870  173.6780  142.8220 C   0  0  2  0  0  3  0  0  0  0  0  0
  190.9620  171.8660  144.1040 C   0  0  0  0  0  1  0  0  0  0  0  0
  189.6640  172.6420  143.9640 C   0  0  0  0  0  2  0  0  0  0  0  0
  190.0230  175.1240  143.2400 C   0  0  2  0  0  3  0  0  0  0  0  0
  192.4820  174.5690  143.0400 N   0  0  0  0  0  2  0  0  0  0  0  0
  191.4260  175.5270  142.8860 C   0  0  0  0  0  0  0  0  0  0  0  0
  191.6520  176.6730  142.4090 O   0  0  0  0  0  0  0  0  0  0  0  0
  196.6840  174.5640  142.2970 C   0  0  0  0  0  2  0  0  0  0  0  0
  194.7410  174.9470  143.8300 C   0  0  0  0  0  3  0  0  0  0  0  0
  193.8820  174.7900  142.8110 C   0  0  0  0  0  0  0  0  0  0  0  0
  196.2020  175.2290  143.5940 C   0  0  2  0  0  0  0  0  0  0  0  0
  193.5170  174.9020  140.3860 F   0  0  0  0  0  0  0  0  0  0  0  0
  196.4200  176.7310  143.5100 C   0  0  0  0  0  1  0  0  0  0  0  0
  196.9400  174.7290  144.6650 O   0  0  0  0  0  1  0  0  0  0  0  0
  194.3860  174.8010  141.4210 C   0  0  0  0  0  0  0  0  0  0  0  0
  195.6970  174.7420  141.1730 C   0  0  0  0  0  3  0  0  0  0  0  0
  189.5830  175.5140  144.6600 C   0  0  1  0  0  3  0  0  0  0  0  0
  190.3800  174.8230  145.7690 C   0  0  0  0  0  1  0  0  0  0  0  0
  190.4630  177.4540  145.7920 O   0  0  0  0  0  1  0  0  0  0  0  0
  189.5330  177.0360  144.8340 C   0  0  2  0  0  3  0  0  0  0  0  0
  187.9110  177.3830  146.7310 C   0  0  0  0  0  2  0  0  0  0  0  0
  185.0510  177.5070  145.6020 C   0  0  0  0  0  2  0  0  0  0  0  0
  185.8310  176.8240  144.4980 C   0  0  0  0  0  3  0  0  0  0  0  0
  188.1280  177.5110  145.2060 C   0  0  2  0  0  3  0  0  0  0  0  0
  185.7010  177.0430  146.8730 C   0  0  2  0  0  3  0  0  0  0  0  0
  185.7680  177.8300  148.0320 O   0  0  0  0  0  0  0  0  0  0  0  0
  186.6590  178.1620  147.0030 C   0  0  1  0  0  3  0  0  0  0  0  0
  187.1300  176.8110  144.3860 N   0  0  0  0  0  0  0  0  0  0  0  0
  3  1  1  6  0  0  0
  3  2  1  0  0  0  0
  3 33  1  0  0  0  0
  4  3  1  0  0  0  0
  5  7  1  0  0  0  0
  7  6  1  6  0  0  0
  7 11  1  0  0  0  0
  9 15  1  6  0  0  0
  9 13  1  0  0  0  0
 10  8  1  0  0  0  0
 11 10  1  0  0  0  0
 11  4  1  6  0  0  0
 12  9  1  0  0  0  0
 12  5  1  0  0  0  0
 13 14  1  0  0  0  0
 14 20  1  1  0  0  0
 14  8  1  0  0  0  0
 16 15  1  0  0  0  0
 17 19  1  0  0  0  0
 18 17  1  0  0  0  0
 18 19  1  0  0  0  0
 19 16  1  6  0  0  0
 21 20  1  0  0  0  0
 21 27  1  0  0  0  0
 22 23  1  0  0  0  0
 23 28  1  0  0  0  0
 24 23  1  0  0  0  0
 25 22  1  0  0  0  0
 27 26  1  6  0  0  0
 27 25  1  0  0  0  0
 27 24  1  0  0  0  0
 29 31  1  0  0  0  0
 31 30  1  6  0  0  0
 32 28  1  6  0  0  0
 32 29  1  0  0  0  0
 32 31  1  0  0  0  0
 33 36  1  0  0  0  0
 33 35  1  1  0  0  0
 35 34  1  0  0  0  0
 36 38  1  1  0  0  0
 36 49  1  0  0  0  0
 38 37  1  0  0  0  0
 39 38  2  0  0  0  0
 40 43  1  0  0  0  0
 42 37  1  0  0  0  0
 42 41  2  0  0  0  0
 43 45  1  6  0  0  0
 43 41  1  0  0  0  0
 43 46  1  0  0  0  0
 44 47  1  0  0  0  0
 47 42  1  0  0  0  0
 48 47  2  0  0  0  0
 48 40  1  0  0  0  0
 49 52  1  0  0  0  0
 49 50  1  1  0  0  0
 52 51  1  1  0  0  0
 55 54  1  0  0  0  0
 56 52  1  1  0  0  0
 56 53  1  0  0  0  0
 57 54  1  6  0  0  0
 57 59  1  0  0  0  0
 57 58  1  0  0  0  0
 59 53  1  1  0  0  0
 59 58  1  0  0  0  0
 60 55  2  0  0  0  0
 60 56  1  0  0  0  0
M  END
>  <MODEL>
8

>  <REMARK>
 VINA RESULT:      -5.5      1.766      2.144
  Name = 
  18 active torsions:
  status: ('A' for Active; 'I' for Inactive)
    1  A    between atoms: C_9  and  N_11
    2  A    between atoms: C_19  and  C_48
    3  A    between atoms: C_19  and  C_51
    4  A    between atoms: C_25  and  C_27
    5  A    between atoms: C_25  and  C_29
    6  A    between atoms: C_26  and  C_30
    7  A    between atoms: C_29  and  C_30
    8  A    between atoms: C_30  and  C_45
    9  A    between atoms: C_32  and  C_58
   10  A    between atoms: C_34  and  C_36
   11  A    between atoms: C_36  and  C_39
   12  A    between atoms: C_37  and  C_39
   13  A    between atoms: N_40  and  C_58
   14  A    between atoms: C_42  and  O_56
   15  A    between atoms: C_42  and  C_60
   16  A    between atoms: C_45  and  C_48
   17  A    between atoms: C_45  and  C_49
   18  A    between atoms: C_50  and  O_56
                            x       y       z     vdW  Elec       q    Type
                         _______ _______ _______ _____ _____    ______ ____

>  <TORSDO>
F 18

$$$$
=
 OpenBabel11062420403D

 60 66  0  0  1  0  0  0  0  0999 V2000
  193.2350  172.2340  144.5960 C   0  0  0  0  0  1  0  0  0  0  0  0
  194.7280  170.7830  143.4700 O   0  0  0  0  0  1  0  0  0  0  0  0
  194.4140  172.1350  143.6350 C   0  0  1  0  0  0  0  0  0  0  0  0
  194.0550  172.7390  142.2680 C   0  0  0  0  0  2  0  0  0  0  0  0
  192.3390  172.3080  139.6450 O   0  0  0  0  0  0  0  0  0  0  0  0
  192.6560  170.4120  141.1120 C   0  0  0  0  0  1  0  0  0  0  0  0
  192.0820  171.8120  140.9370 C   0  0  1  0  0  3  0  0  0  0  0  0
  190.7790  174.6530  141.9420 C   0  0  0  0  0  2  0  0  0  0  0  0
  189.9060  172.5980  139.3320 C   0  0  1  0  0  3  0  0  0  0  0  0
  192.2120  174.2450  141.6200 C   0  0  0  0  0  2  0  0  0  0  0  0
  192.5470  172.8080  142.0150 C   0  0  2  0  0  3  0  0  0  0  0  0
  191.2280  171.9930  138.8360 C   0  0  0  0  0  2  0  0  0  0  0  0
  190.0540  173.9290  139.7490 O   0  0  0  0  0  0  0  0  0  0  0  0
  189.7270  173.9160  141.1140 C   0  0  2  0  0  3  0  0  0  0  0  0
  188.7940  172.4580  138.2980 C   0  0  0  0  0  2  0  0  0  0  0  0
  189.3030  172.5580  136.8650 C   0  0  0  0  0  2  0  0  0  0  0  0
  189.5940  174.0340  135.0230 O   0  0  0  0  0  0  0  0  0  0  0  0
  190.6150  174.3950  135.9220 C   0  0  0  0  0  2  0  0  0  0  0  0
  189.2710  173.9970  136.3920 C   0  0  2  0  0  3  0  0  0  0  0  0
  188.3890  174.6040  141.3280 C   0  0  0  0  0  2  0  0  0  0  0  0
  188.3600  175.8310  140.6420 O   0  0  0  0  0  0  0  0  0  0  0  0
  188.0490  177.6520  143.2880 C   0  0  0  0  0  2  0  0  0  0  0  0
  186.9310  176.7700  143.6010 N   0  0  0  0  0  0  0  0  0  0  0  0
  186.6620  176.0090  142.3830 C   0  0  0  0  0  2  0  0  0  0  0  0
  188.0660  177.8800  141.7990 C   0  0  0  0  0  2  0  0  0  0  0  0
  186.3730  177.1760  140.1750 C   0  0  0  0  0  1  0  0  0  0  0  0
  187.3780  176.6760  141.2090 C   0  0  1  0  0  0  0  0  0  0  0  0
  185.7480  177.5830  143.8590 C   0  0  0  0  0  2  0  0  0  0  0  0
  184.9390  179.7930  144.6290 C   0  0  0  0  0  2  0  0  0  0  0  0
  184.2530  178.0270  146.0770 O   0  0  0  0  0  1  0  0  0  0  0  0
  185.2080  179.0380  145.9180 C   0  0  1  0  0  3  0  0  0  0  0  0
  186.0970  178.8200  144.6900 C   0  0  1  0  0  3  0  0  0  0  0  0
  195.6380  172.8530  144.2480 C   0  0  2  0  0  3  0  0  0  0  0  0
  197.1940  173.2360  146.2430 C   0  0  0  0  0  1  0  0  0  0  0  0
  196.1330  172.3480  145.6180 C   0  0  0  0  0  2  0  0  0  0  0  0
  195.6450  174.3840  144.0590 C   0  0  2  0  0  3  0  0  0  0  0  0
  193.2130  174.9380  144.4750 N   0  0  0  0  0  2  0  0  0  0  0  0
  194.5860  175.0810  144.8640 C   0  0  0  0  0  0  0  0  0  0  0  0
  194.9050  175.7320  145.8970 O   0  0  0  0  0  0  0  0  0  0  0  0
  190.2880  177.1630  146.6440 C   0  0  0  0  0  2  0  0  0  0  0  0
  191.4110  174.9930  146.0940 C   0  0  0  0  0  3  0  0  0  0  0  0
  192.0780  175.5730  145.0840 C   0  0  0  0  0  0  0  0  0  0  0  0
  190.1900  175.6320  146.7020 C   0  0  2  0  0  0  0  0  0  0  0  0
  192.1570  177.3960  143.4420 F   0  0  0  0  0  0  0  0  0  0  0  0
  188.9510  175.1700  145.9520 C   0  0  0  0  0  1  0  0  0  0  0  0
  190.0830  175.2310  148.0330 O   0  0  0  0  0  1  0  0  0  0  0  0
  191.6700  176.9120  144.6110 C   0  0  0  0  0  0  0  0  0  0  0  0
  190.7980  177.6430  145.3110 C   0  0  0  0  0  3  0  0  0  0  0  0
  195.7610  174.8620  142.6020 C   0  0  1  0  0  3  0  0  0  0  0  0
  195.1180  176.2260  142.3440 C   0  0  0  0  0  1  0  0  0  0  0  0
  197.8620  176.0110  142.3090 O   0  0  0  0  0  1  0  0  0  0  0  0
  197.2080  174.7900  142.1030 C   0  0  2  0  0  3  0  0  0  0  0  0
  197.5750  175.6260  139.7540 C   0  0  0  0  0  2  0  0  0  0  0  0
  196.3550  173.6170  137.7680 C   0  0  0  0  0  2  0  0  0  0  0  0
  195.6610  173.2820  139.0710 C   0  0  0  0  0  3  0  0  0  0  0  0
  197.2730  174.3890  140.6290 C   0  0  2  0  0  3  0  0  0  0  0  0
  196.5710  175.1010  137.8200 C   0  0  2  0  0  3  0  0  0  0  0  0
  197.6620  175.7400  137.2110 O   0  0  0  0  0  0  0  0  0  0  0  0
  197.9270  175.0640  138.4100 C   0  0  1  0  0  3  0  0  0  0  0  0
  196.0530  173.6590  140.2560 N   0  0  0  0  0  0  0  0  0  0  0  0
  2  3  1  0  0  0  0
  3 33  1  0  0  0  0
  3  1  1  1  0  0  0
  4  3  1  0  0  0  0
  5  7  1  0  0  0  0
  7  6  1  1  0  0  0
  7 11  1  0  0  0  0
  9 15  1  6  0  0  0
  9 13  1  0  0  0  0
 10  8  1  0  0  0  0
 10 11  1  0  0  0  0
 11  4  1  6  0  0  0
 12  9  1  0  0  0  0
 12  5  1  0  0  0  0
 13 14  1  0  0  0  0
 14 20  1  6  0  0  0
 14  8  1  0  0  0  0
 16 15  1  0  0  0  0
 17 18  1  0  0  0  0
 17 19  1  0  0  0  0
 18 19  1  0  0  0  0
 19 16  1  1  0  0  0
 21 27  1  0  0  0  0
 21 20  1  0  0  0  0
 22 23  1  0  0  0  0
 23 28  1  0  0  0  0
 24 23  1  0  0  0  0
 25 22  1  0  0  0  0
 27 26  1  6  0  0  0
 27 25  1  0  0  0  0
 27 24  1  0  0  0  0
 29 32  1  0  0  0  0
 29 31  1  0  0  0  0
 31 30  1  6  0  0  0
 32 28  1  6  0  0  0
 32 31  1  0  0  0  0
 33 35  1  1  0  0  0
 35 34  1  0  0  0  0
 36 33  1  0  0  0  0
 36 38  1  6  0  0  0
 37 38  1  0  0  0  0
 37 42  1  0  0  0  0
 38 39  2  0  0  0  0
 40 43  1  0  0  0  0
 41 43  1  0  0  0  0
 42 41  2  0  0  0  0
 43 45  1  6  0  0  0
 43 46  1  0  0  0  0
 44 47  1  0  0  0  0
 47 42  1  0  0  0  0
 47 48  2  0  0  0  0
 48 40  1  0  0  0  0
 49 50  1  1  0  0  0
 49 36  1  0  0  0  0
 52 51  1  6  0  0  0
 52 49  1  0  0  0  0
 53 56  1  0  0  0  0
 54 55  1  0  0  0  0
 55 60  2  0  0  0  0
 56 52  1  1  0  0  0
 57 54  1  6  0  0  0
 57 59  1  0  0  0  0
 58 57  1  0  0  0  0
 58 59  1  0  0  0  0
 59 53  1  1  0  0  0
 60 56  1  0  0  0  0
M  END
>  <MODEL>
9

>  <REMARK>
 VINA RESULT:      -5.4      2.186      8.652
  Name = 
  18 active torsions:
  status: ('A' for Active; 'I' for Inactive)
    1  A    between atoms: C_9  and  N_11
    2  A    between atoms: C_19  and  C_48
    3  A    between atoms: C_19  and  C_51
    4  A    between atoms: C_25  and  C_27
    5  A    between atoms: C_25  and  C_29
    6  A    between atoms: C_26  and  C_30
    7  A    between atoms: C_29  and  C_30
    8  A    between atoms: C_30  and  C_45
    9  A    between atoms: C_32  and  C_58
   10  A    between atoms: C_34  and  C_36
   11  A    between atoms: C_36  and  C_39
   12  A    between atoms: C_37  and  C_39
   13  A    between atoms: N_40  and  C_58
   14  A    between atoms: C_42  and  O_56
   15  A    between atoms: C_42  and  C_60
   16  A    between atoms: C_45  and  C_48
   17  A    between atoms: C_45  and  C_49
   18  A    between atoms: C_50  and  O_56
                            x       y       z     vdW  Elec       q    Type
                         _______ _______ _______ _____ _____    ______ ____

>  <TORSDO>
F 18

$$$$
