=
 OpenBabel11062418263D

 48 53  0  0  1  0  0  0  0  0999 V2000
  189.1720  174.4420  141.9420 C   0  0  1  0  0  3  0  0  0  0  0  0
  187.9630  176.2970  143.2930 C   0  0  2  0  0  0  0  0  0  0  0  0
  190.1250  176.6120  147.4370 N   0  0  0  0  0  0  0  0  0  0  0  0
  186.7490  175.8760  142.6230 N   0  0  0  0  0  0  0  0  0  0  0  0
  186.3770  179.3940  142.7750 N   0  0  0  0  0  1  0  0  0  0  0  0
  189.4300  176.1080  145.3600 C   0  0  0  0  0  0  0  0  0  0  0  0
  190.6620  172.6890  142.5360 C   0  0  2  0  0  3  0  0  0  0  0  0
  189.2680  175.6350  142.9220 C   0  0  1  0  0  3  0  0  0  0  0  0
  189.3820  172.2890  142.9710 O   0  0  0  0  0  0  0  0  0  0  0  0
  195.0210  173.5290  145.3340 C   0  0  0  0  0  1  0  0  0  0  0  0
  189.1280  176.1400  146.7650 C   0  0  0  0  0  0  0  0  0  0  0  0
  192.7190  171.8750  141.3420 N   0  0  0  0  0  0  0  0  0  0  0  0
  186.8350  178.0510  142.8820 C   0  0  0  0  0  0  0  0  0  0  0  0
  188.6240  175.3910  144.3120 C   0  0  2  0  0  3  0  0  0  0  0  0
  191.1810  176.9300  146.4720 C   0  0  2  0  0  3  0  0  0  0  0  0
  193.4750  176.0200  145.6970 C   0  0  2  0  0  3  0  0  0  0  0  0
  191.6930  174.8490  141.8080 C   0  0  0  0  0  2  0  0  0  0  0  0
  194.5160  171.2470  139.9940 O   0  0  0  0  0  0  0  0  0  0  0  0
  191.4390  170.4140  142.6560 O   0  0  0  0  0  1  0  0  0  0  0  0
  195.1980  174.9400  143.3430 C   0  0  0  0  0  1  0  0  0  0  0  0
  190.5330  173.8760  141.6060 C   0  0  2  0  0  3  0  0  0  0  0  0
  193.0850  174.9450  144.6880 C   0  0  0  0  0  2  0  0  0  0  0  0
  190.6330  176.5360  145.1750 N   0  0  0  0  0  0  0  0  0  0  0  0
  187.9560  177.7400  143.4470 N   0  0  0  0  0  0  0  0  0  0  0  0
  191.3700  171.5340  141.8250 C   0  0  1  0  0  3  0  0  0  0  0  0
  192.4350  176.1110  146.8060 C   0  0  0  0  0  2  0  0  0  0  0  0
  188.4490  173.2260  142.4960 C   0  0  2  0  0  3  0  0  0  0  0  0
  186.0940  176.9350  142.3820 N   0  0  0  0  0  0  0  0  0  0  0  0
  193.4900  173.0090  141.8710 C   0  0  2  0  0  3  0  0  0  0  0  0
  193.6370  172.9250  143.3990 C   0  0  0  0  0  2  0  0  0  0  0  0
  193.2900  171.1270  140.2560 C   0  0  0  0  0  0  0  0  0  0  0  0
  193.6470  177.2480  145.0620 O   0  0  0  0  0  1  0  0  0  0  0  0
  194.2430  174.1080  144.1690 C   0  0  0  0  0  0  0  0  0  0  0  0
  187.5810  172.5900  141.4260 C   0  0  0  0  0  1  0  0  0  0  0  0
  193.0100  174.3310  141.2560 C   0  0  0  0  0  2  0  0  0  0  0  0
  187.9490  175.6710  147.3410 O   0  0  0  0  0  0  0  0  0  0  0  0
  186.7120  176.3360  147.1590 C   0  0  0  0  0  2  0  0  0  0  0  0
  186.8940  177.8360  147.2180 C   0  0  0  0  0  2  0  0  0  0  0  0
  185.6020  178.4540  147.4630 N   0  0  0  0  0  2  0  0  0  0  0  0
  184.6400  177.7940  146.5880 C   0  0  0  0  0  2  0  0  0  0  0  0
  184.0940  178.8000  145.5940 C   0  0  0  0  0  1  0  0  0  0  0  0
  192.4710  170.1920  139.4190 C   0  0  0  0  0  2  0  0  0  0  0  0
  191.9300  170.8640  138.2880 O   0  0  0  0  0  0  0  0  0  0  0  0
  190.6990  171.5410  138.2550 C   0  0  0  0  0  0  0  0  0  0  0  0
  189.6470  170.8520  138.3110 O   0  0  0  0  0  0  0  0  0  0  0  0
  191.5950  173.7470  138.0790 O   0  0  0  0  0  0  0  0  0  0  0  0
  189.2340  173.6520  138.1280 C   0  0  0  0  0  1  0  0  0  0  0  0
  190.5820  173.0090  138.1550 C   0  0  0  0  0  0  0  0  0  0  0  0
  1 27  1  0  0  0  0
  1  8  1  0  0  0  0
  2 24  1  0  0  0  0
  2 14  1  0  0  0  0
  4  2  1  0  0  0  0
  5 13  1  0  0  0  0
  6 11  1  0  0  0  0
  7  9  1  0  0  0  0
  8  2  1  0  0  0  0
  8 14  1  0  0  0  0
 11 36  1  0  0  0  0
 11  3  2  0  0  0  0
 12 25  1  0  0  0  0
 12 29  1  0  0  0  0
 13 24  2  0  0  0  0
 14  6  1  0  0  0  0
 15 26  1  0  0  0  0
 15  3  1  0  0  0  0
 16 26  1  0  0  0  0
 18 31  2  0  0  0  0
 20 33  1  0  0  0  0
 21 17  1  0  0  0  0
 21  1  1  0  0  0  0
 21  7  1  0  0  0  0
 22 16  1  0  0  0  0
 23  6  2  0  0  0  0
 23 15  1  0  0  0  0
 25  7  1  0  0  0  0
 25 19  1  0  0  0  0
 27  9  1  0  0  0  0
 28  4  2  0  0  0  0
 28 13  1  0  0  0  0
 29 30  1  0  0  0  0
 30 33  1  0  0  0  0
 31 12  1  0  0  0  0
 32 16  1  0  0  0  0
 33 22  1  0  0  0  0
 33 10  1  0  0  0  0
 34 27  1  0  0  0  0
 35 17  1  0  0  0  0
 35 29  1  0  0  0  0
 37 38  1  0  0  0  0
 37 36  1  0  0  0  0
 38 39  1  0  0  0  0
 40 39  1  0  0  0  0
 41 40  1  0  0  0  0
 42 31  1  0  0  0  0
 43 42  1  0  0  0  0
 44 43  1  0  0  0  0
 44 45  2  0  0  0  0
 46 48  2  0  0  0  0
 47 48  1  0  0  0  0
 48 44  1  0  0  0  0
M  END
>  <MODEL>
1

>  <REMARK>
 VINA RESULT:      -7.4      0.000      0.000
  Name = 
  9 active torsions:
  status: ('A' for Active; 'I' for Inactive)
    1  A    between atoms: C_9  and  N_35
    2  A    between atoms: C_13  and  O_14
    3  A    between atoms: O_14  and  C_40
    4  A    between atoms: C_24  and  N_35
    5  A    between atoms: C_24  and  C_40
    6  A    between atoms: O_29  and  C_32
    7  A    between atoms: O_29  and  C_33
    8  A    between atoms: C_32  and  C_44
    9  A    between atoms: C_33  and  C_43
                            x       y       z     vdW  Elec       q    Type
                         _______ _______ _______ _____ _____    ______ ____

>  <TORSDO>
F 9

$$$$
=
 OpenBabel11062418263D

 48 53  0  0  1  0  0  0  0  0999 V2000
  189.6790  173.0800  142.0920 C   0  0  1  0  0  3  0  0  0  0  0  0
  191.4390  171.5530  140.9530 C   0  0  2  0  0  0  0  0  0  0  0  0
  195.6610  173.2580  142.0560 N   0  0  0  0  0  0  0  0  0  0  0  0
  190.4760  171.3850  139.8830 N   0  0  0  0  0  0  0  0  0  0  0  0
  191.9300  168.1660  140.1390 N   0  0  0  0  0  1  0  0  0  0  0  0
  193.4700  172.8180  141.8090 C   0  0  0  0  0  0  0  0  0  0  0  0
  189.7670  175.2560  143.0430 C   0  0  2  0  0  3  0  0  0  0  0  0
  191.0490  172.3660  142.1630 C   0  0  1  0  0  3  0  0  0  0  0  0
  189.8040  175.4310  141.6450 O   0  0  0  0  0  0  0  0  0  0  0  0
  193.3190  176.6030  146.6640 C   0  0  0  0  0  1  0  0  0  0  0  0
  194.7100  173.1910  141.1840 C   0  0  0  0  0  0  0  0  0  0  0  0
  188.6910  176.1210  145.1430 N   0  0  0  0  0  0  0  0  0  0  0  0
  191.5740  169.5340  140.3020 C   0  0  0  0  0  0  0  0  0  0  0  0
  192.1130  172.8930  141.1660 C   0  0  2  0  0  3  0  0  0  0  0  0
  195.0760  172.9170  143.3560 C   0  0  2  0  0  3  0  0  0  0  0  0
  194.3790  174.0750  145.5610 C   0  0  2  0  0  3  0  0  0  0  0  0
  190.1140  173.3290  144.6000 C   0  0  0  0  0  2  0  0  0  0  0  0
  187.5050  176.6970  147.0680 O   0  0  0  0  0  0  0  0  0  0  0  0
  189.1100  177.5530  143.3350 O   0  0  0  0  0  1  0  0  0  0  0  0
  192.0920  174.6930  147.5780 C   0  0  0  0  0  1  0  0  0  0  0  0
  189.3670  173.8330  143.3660 C   0  0  2  0  0  3  0  0  0  0  0  0
  192.9820  174.5950  145.2390 C   0  0  0  0  0  2  0  0  0  0  0  0
  193.6590  172.6830  143.0790 N   0  0  0  0  0  0  0  0  0  0  0  0
  192.1410  170.3030  141.1740 N   0  0  0  0  0  0  0  0  0  0  0  0
  188.7830  176.2400  143.6780 C   0  0  1  0  0  3  0  0  0  0  0  0
  195.2570  174.0990  144.3170 C   0  0  0  0  0  2  0  0  0  0  0  0
  189.5930  174.1770  141.0440 C   0  0  2  0  0  3  0  0  0  0  0  0
  190.5680  170.1750  139.5130 N   0  0  0  0  0  0  0  0  0  0  0  0
  189.7340  175.4820  145.9570 C   0  0  2  0  0  3  0  0  0  0  0  0
  191.1110  176.1200  145.7070 C   0  0  0  0  0  2  0  0  0  0  0  0
  187.5030  176.5730  145.8150 C   0  0  0  0  0  0  0  0  0  0  0  0
  194.3090  172.7940  146.1060 O   0  0  0  0  0  1  0  0  0  0  0  0
  192.3660  175.4760  146.3140 C   0  0  0  0  0  0  0  0  0  0  0  0
  188.2370  174.1560  140.3630 C   0  0  0  0  0  1  0  0  0  0  0  0
  189.6180  173.9520  145.8940 C   0  0  0  0  0  2  0  0  0  0  0  0
  194.8640  173.5030  139.8340 O   0  0  0  0  0  0  0  0  0  0  0  0
  196.1040  173.9340  139.3030 C   0  0  0  0  0  2  0  0  0  0  0  0
  196.1940  175.4430  139.3050 C   0  0  0  0  0  2  0  0  0  0  0  0
  197.0300  175.8600  140.4180 N   0  0  0  0  0  2  0  0  0  0  0  0
  196.2040  176.6920  141.2840 C   0  0  0  0  0  2  0  0  0  0  0  0
  196.8680  176.8150  142.6420 C   0  0  0  0  0  1  0  0  0  0  0  0
  186.2500  176.9140  145.0680 C   0  0  0  0  0  2  0  0  0  0  0  0
  186.0780  178.3220  144.9780 O   0  0  0  0  0  0  0  0  0  0  0  0
  185.6130  179.0150  143.8480 C   0  0  0  0  0  0  0  0  0  0  0  0
  185.5320  180.2700  143.9190 O   0  0  0  0  0  0  0  0  0  0  0  0
  184.0450  177.9230  142.4160 O   0  0  0  0  0  0  0  0  0  0  0  0
  186.2040  178.1790  141.4870 C   0  0  0  0  0  1  0  0  0  0  0  0
  185.2140  178.3490  142.5930 C   0  0  0  0  0  0  0  0  0  0  0  0
  1  8  1  0  0  0  0
  1 21  1  0  0  0  0
  2 14  1  0  0  0  0
  2 24  1  0  0  0  0
  2  8  1  0  0  0  0
  3 15  1  0  0  0  0
  4  2  1  0  0  0  0
  5 13  1  0  0  0  0
  6 23  2  0  0  0  0
  7 21  1  0  0  0  0
  7 25  1  0  0  0  0
  9  7  1  0  0  0  0
 11  6  1  0  0  0  0
 11  3  2  0  0  0  0
 12 31  1  0  0  0  0
 12 29  1  0  0  0  0
 13 24  2  0  0  0  0
 14  6  1  0  0  0  0
 14  8  1  0  0  0  0
 15 26  1  0  0  0  0
 16 32  1  0  0  0  0
 17 35  1  0  0  0  0
 19 25  1  0  0  0  0
 21 17  1  0  0  0  0
 22 16  1  0  0  0  0
 22 33  1  0  0  0  0
 23 15  1  0  0  0  0
 25 12  1  0  0  0  0
 26 16  1  0  0  0  0
 27  9  1  0  0  0  0
 27  1  1  0  0  0  0
 28  4  2  0  0  0  0
 28 13  1  0  0  0  0
 30 29  1  0  0  0  0
 30 33  1  0  0  0  0
 31 18  2  0  0  0  0
 33 10  1  0  0  0  0
 33 20  1  0  0  0  0
 34 27  1  0  0  0  0
 35 29  1  0  0  0  0
 36 11  1  0  0  0  0
 37 38  1  0  0  0  0
 37 36  1  0  0  0  0
 38 39  1  0  0  0  0
 39 40  1  0  0  0  0
 40 41  1  0  0  0  0
 42 31  1  0  0  0  0
 43 42  1  0  0  0  0
 44 45  2  0  0  0  0
 44 43  1  0  0  0  0
 46 48  2  0  0  0  0
 47 48  1  0  0  0  0
 48 44  1  0  0  0  0
M  END
>  <MODEL>
2

>  <REMARK>
 VINA RESULT:      -7.2      2.697      7.966
  Name = 
  9 active torsions:
  status: ('A' for Active; 'I' for Inactive)
    1  A    between atoms: C_9  and  N_35
    2  A    between atoms: C_13  and  O_14
    3  A    between atoms: O_14  and  C_40
    4  A    between atoms: C_24  and  N_35
    5  A    between atoms: C_24  and  C_40
    6  A    between atoms: O_29  and  C_32
    7  A    between atoms: O_29  and  C_33
    8  A    between atoms: C_32  and  C_44
    9  A    between atoms: C_33  and  C_43
                            x       y       z     vdW  Elec       q    Type
                         _______ _______ _______ _____ _____    ______ ____

>  <TORSDO>
F 9

$$$$
=
 OpenBabel11062418263D

 48 53  0  0  1  0  0  0  0  0999 V2000
  192.4450  175.3580  144.8440 C   0  0  1  0  0  3  0  0  0  0  0  0
  189.9830  176.1040  145.1730 C   0  0  2  0  0  0  0  0  0  0  0  0
  187.9090  175.8970  140.9770 N   0  0  0  0  0  0  0  0  0  0  0  0
  190.4790  176.9950  146.2020 N   0  0  0  0  0  0  0  0  0  0  0  0
  187.4040  175.8760  147.5550 N   0  0  0  0  0  1  0  0  0  0  0  0
  189.3030  175.8310  142.7390 C   0  0  0  0  0  0  0  0  0  0  0  0
  193.8470  175.1290  142.9390 C   0  0  2  0  0  3  0  0  0  0  0  0
  190.9520  175.1750  144.4840 C   0  0  1  0  0  3  0  0  0  0  0  0
  193.7340  176.5120  143.1870 O   0  0  0  0  0  0  0  0  0  0  0  0
  192.4180  172.3720  138.7090 C   0  0  0  0  0  1  0  0  0  0  0  0
  188.4860  176.6320  141.8690 C   0  0  0  0  0  0  0  0  0  0  0  0
  195.5030  173.3190  142.3900 N   0  0  0  0  0  0  0  0  0  0  0  0
  188.5440  176.1140  146.7390 C   0  0  0  0  0  0  0  0  0  0  0  0
  190.3140  176.3620  143.7170 C   0  0  2  0  0  3  0  0  0  0  0  0
  188.3320  174.5150  141.2220 C   0  0  2  0  0  3  0  0  0  0  0  0
  189.8880  172.7240  140.1930 C   0  0  2  0  0  3  0  0  0  0  0  0
  192.6060  173.0870  143.6790 C   0  0  0  0  0  2  0  0  0  0  0  0
  197.0420  171.5800  142.1680 O   0  0  0  0  0  0  0  0  0  0  0  0
  195.8120  175.5060  141.6010 O   0  0  0  0  0  1  0  0  0  0  0  0
  192.3190  170.8270  140.6040 C   0  0  0  0  0  1  0  0  0  0  0  0
  193.3250  174.3560  144.1320 C   0  0  2  0  0  3  0  0  0  0  0  0
  191.2480  173.0840  140.7810 C   0  0  0  0  0  2  0  0  0  0  0  0
  189.2480  174.6000  142.3580 N   0  0  0  0  0  0  0  0  0  0  0  0
  188.6980  175.5640  145.5780 N   0  0  0  0  0  0  0  0  0  0  0  0
  195.3040  174.7530  142.6610 C   0  0  1  0  0  3  0  0  0  0  0  0
  189.0510  173.9780  139.9780 C   0  0  0  0  0  2  0  0  0  0  0  0
  193.0440  176.6820  144.3990 C   0  0  2  0  0  3  0  0  0  0  0  0
  189.6120  176.9830  147.1280 N   0  0  0  0  0  0  0  0  0  0  0  0
  194.4120  172.4300  141.9690 C   0  0  2  0  0  3  0  0  0  0  0  0
  193.7030  172.9650  140.7140 C   0  0  0  0  0  2  0  0  0  0  0  0
  196.7950  172.7310  142.6160 C   0  0  0  0  0  0  0  0  0  0  0  0
  189.2280  171.8090  141.0110 O   0  0  0  0  0  1  0  0  0  0  0  0
  192.4160  172.2870  140.2220 C   0  0  0  0  0  0  0  0  0  0  0  0
  193.9890  177.2200  145.4570 C   0  0  0  0  0  1  0  0  0  0  0  0
  193.5510  172.0120  143.1700 C   0  0  0  0  0  2  0  0  0  0  0  0
  188.3730  178.0200  141.9300 O   0  0  0  0  0  0  0  0  0  0  0  0
  187.1530  178.6570  142.2630 C   0  0  0  0  0  2  0  0  0  0  0  0
  186.7260  178.2980  143.6690 C   0  0  0  0  0  2  0  0  0  0  0  0
  186.0160  179.4280  144.2430 N   0  0  0  0  0  2  0  0  0  0  0  0
  185.6930  179.0740  145.6200 C   0  0  0  0  0  2  0  0  0  0  0  0
  184.2310  178.6850  145.7090 C   0  0  0  0  0  1  0  0  0  0  0  0
  197.8750  173.4500  143.3660 C   0  0  0  0  0  2  0  0  0  0  0  0
  197.9400  173.0040  144.7140 O   0  0  0  0  0  0  0  0  0  0  0  0
  196.8340  172.7370  145.5380 C   0  0  0  0  0  0  0  0  0  0  0  0
  196.2530  173.7140  146.0780 O   0  0  0  0  0  0  0  0  0  0  0  0
  195.1210  171.1650  146.0820 O   0  0  0  0  0  0  0  0  0  0  0  0
  197.2510  170.2040  145.7240 C   0  0  0  0  0  1  0  0  0  0  0  0
  196.3270  171.3760  145.8010 C   0  0  0  0  0  0  0  0  0  0  0  0
  2 24  1  0  0  0  0
  2  4  1  0  0  0  0
  3 15  1  0  0  0  0
  3 11  2  0  0  0  0
  4 28  2  0  0  0  0
  6 14  1  0  0  0  0
  7  9  1  0  0  0  0
  7 21  1  0  0  0  0
  8  1  1  0  0  0  0
  8  2  1  0  0  0  0
  9 27  1  0  0  0  0
 10 33  1  0  0  0  0
 11 36  1  0  0  0  0
 11  6  1  0  0  0  0
 12 31  1  0  0  0  0
 12 25  1  0  0  0  0
 13 28  1  0  0  0  0
 13  5  1  0  0  0  0
 14  8  1  0  0  0  0
 14  2  1  0  0  0  0
 15 23  1  0  0  0  0
 16 22  1  0  0  0  0
 16 32  1  0  0  0  0
 17 21  1  0  0  0  0
 18 31  2  0  0  0  0
 19 25  1  0  0  0  0
 21  1  1  0  0  0  0
 23  6  2  0  0  0  0
 24 13  2  0  0  0  0
 25  7  1  0  0  0  0
 26 16  1  0  0  0  0
 26 15  1  0  0  0  0
 27  1  1  0  0  0  0
 27 34  1  0  0  0  0
 29 12  1  0  0  0  0
 29 35  1  0  0  0  0
 30 29  1  0  0  0  0
 31 42  1  0  0  0  0
 33 20  1  0  0  0  0
 33 30  1  0  0  0  0
 33 22  1  0  0  0  0
 35 17  1  0  0  0  0
 36 37  1  0  0  0  0
 37 38  1  0  0  0  0
 38 39  1  0  0  0  0
 39 40  1  0  0  0  0
 40 41  1  0  0  0  0
 42 43  1  0  0  0  0
 43 44  1  0  0  0  0
 44 48  1  0  0  0  0
 44 45  2  0  0  0  0
 47 48  1  0  0  0  0
 48 46  2  0  0  0  0
M  END
>  <MODEL>
3

>  <REMARK>
 VINA RESULT:      -7.0      2.433      5.919
  Name = 
  9 active torsions:
  status: ('A' for Active; 'I' for Inactive)
    1  A    between atoms: C_9  and  N_35
    2  A    between atoms: C_13  and  O_14
    3  A    between atoms: O_14  and  C_40
    4  A    between atoms: C_24  and  N_35
    5  A    between atoms: C_24  and  C_40
    6  A    between atoms: O_29  and  C_32
    7  A    between atoms: O_29  and  C_33
    8  A    between atoms: C_32  and  C_44
    9  A    between atoms: C_33  and  C_43
                            x       y       z     vdW  Elec       q    Type
                         _______ _______ _______ _____ _____    ______ ____

>  <TORSDO>
F 9

$$$$
=
 OpenBabel11062418263D

 48 53  0  0  1  0  0  0  0  0999 V2000
  192.7720  175.0030  144.3070 C   0  0  1  0  0  3  0  0  0  0  0  0
  190.4410  175.4090  145.3700 C   0  0  2  0  0  0  0  0  0  0  0  0
  187.4190  176.0690  141.8510 N   0  0  0  0  0  0  0  0  0  0  0  0
  191.1440  176.0570  146.4590 N   0  0  0  0  0  0  0  0  0  0  0  0
  188.5250  174.3520  148.1250 N   0  0  0  0  0  1  0  0  0  0  0  0
  189.2000  175.6940  143.1700 C   0  0  0  0  0  0  0  0  0  0  0  0
  193.6770  175.3900  142.1450 C   0  0  2  0  0  3  0  0  0  0  0  0
  191.2420  174.7770  144.2580 C   0  0  1  0  0  3  0  0  0  0  0  0
  193.5840  176.6500  142.7690 O   0  0  0  0  0  0  0  0  0  0  0  0
  191.3500  173.6610  137.7700 C   0  0  0  0  0  1  0  0  0  0  0  0
  188.1720  176.6070  142.7520 C   0  0  0  0  0  0  0  0  0  0  0  0
  195.2050  173.9390  140.7750 N   0  0  0  0  0  0  0  0  0  0  0  0
  189.4260  174.8920  147.1650 C   0  0  0  0  0  0  0  0  0  0  0  0
  190.4020  176.0540  144.0000 C   0  0  2  0  0  3  0  0  0  0  0  0
  187.9310  174.7150  141.6180 C   0  0  2  0  0  3  0  0  0  0  0  0
  189.2450  173.3920  139.8260 C   0  0  2  0  0  3  0  0  0  0  0  0
  192.7150  173.1220  142.5760 C   0  0  0  0  0  2  0  0  0  0  0  0
  196.6960  172.4620  139.7570 O   0  0  0  0  0  0  0  0  0  0  0  0
  195.2460  176.2720  140.5470 O   0  0  0  0  0  1  0  0  0  0  0  0
  191.7610  171.6880  139.1580 C   0  0  0  0  0  1  0  0  0  0  0  0
  193.4830  174.2980  143.1750 C   0  0  2  0  0  3  0  0  0  0  0  0
  190.6950  173.7190  140.1660 C   0  0  0  0  0  2  0  0  0  0  0  0
  189.0920  174.5970  142.4980 N   0  0  0  0  0  0  0  0  0  0  0  0
  189.3100  174.6680  145.8960 N   0  0  0  0  0  0  0  0  0  0  0  0
  195.0330  175.2330  141.4550 C   0  0  1  0  0  3  0  0  0  0  0  0
  188.3430  174.5770  140.1470 C   0  0  0  0  0  2  0  0  0  0  0  0
  193.2040  176.4460  144.1070 C   0  0  2  0  0  3  0  0  0  0  0  0
  190.5280  175.7310  147.5200 N   0  0  0  0  0  0  0  0  0  0  0  0
  194.0720  173.0860  140.3910 C   0  0  2  0  0  3  0  0  0  0  0  0
  193.0640  173.8500  139.5170 C   0  0  0  0  0  2  0  0  0  0  0  0
  196.5300  173.4360  140.5380 C   0  0  0  0  0  0  0  0  0  0  0  0
  188.8320  172.2440  140.4990 O   0  0  0  0  0  1  0  0  0  0  0  0
  191.7170  173.2000  139.1670 C   0  0  0  0  0  0  0  0  0  0  0  0
  194.3600  176.7870  145.0280 C   0  0  0  0  0  1  0  0  0  0  0  0
  193.5410  172.3020  141.6000 C   0  0  0  0  0  2  0  0  0  0  0  0
  188.0350  177.9190  143.2030 O   0  0  0  0  0  0  0  0  0  0  0  0
  187.3620  178.2270  144.4110 C   0  0  0  0  0  2  0  0  0  0  0  0
  186.0550  178.9360  144.1320 C   0  0  0  0  0  2  0  0  0  0  0  0
  184.9610  178.0150  144.3870 N   0  0  0  0  0  2  0  0  0  0  0  0
  184.0620  178.6700  145.3290 C   0  0  0  0  0  2  0  0  0  0  0  0
  184.4490  178.2850  146.7430 C   0  0  0  0  0  1  0  0  0  0  0  0
  197.7370  174.0420  141.1880 C   0  0  0  0  0  2  0  0  0  0  0  0
  197.9400  173.5000  142.4870 O   0  0  0  0  0  0  0  0  0  0  0  0
  197.4280  174.0350  143.6810 C   0  0  0  0  0  0  0  0  0  0  0  0
  197.5790  175.2680  143.8860 O   0  0  0  0  0  0  0  0  0  0  0  0
  196.0510  172.2170  144.3890 O   0  0  0  0  0  0  0  0  0  0  0  0
  196.8330  173.5920  146.1450 C   0  0  0  0  0  1  0  0  0  0  0  0
  196.7310  173.2270  144.7000 C   0  0  0  0  0  0  0  0  0  0  0  0
  2 24  1  0  0  0  0
  2  4  1  0  0  0  0
  3 11  2  0  0  0  0
  4 28  2  0  0  0  0
  6 14  1  0  0  0  0
  7  9  1  0  0  0  0
  7 21  1  0  0  0  0
  8  1  1  0  0  0  0
  8  2  1  0  0  0  0
  9 27  1  0  0  0  0
 10 33  1  0  0  0  0
 11  6  1  0  0  0  0
 11 36  1  0  0  0  0
 12 25  1  0  0  0  0
 13 28  1  0  0  0  0
 13  5  1  0  0  0  0
 14  8  1  0  0  0  0
 14  2  1  0  0  0  0
 15  3  1  0  0  0  0
 15 23  1  0  0  0  0
 16 26  1  0  0  0  0
 16 22  1  0  0  0  0
 16 32  1  0  0  0  0
 17 21  1  0  0  0  0
 18 31  2  0  0  0  0
 19 25  1  0  0  0  0
 20 33  1  0  0  0  0
 21  1  1  0  0  0  0
 23  6  2  0  0  0  0
 24 13  2  0  0  0  0
 25  7  1  0  0  0  0
 26 15  1  0  0  0  0
 27  1  1  0  0  0  0
 27 34  1  0  0  0  0
 29 12  1  0  0  0  0
 29 35  1  0  0  0  0
 30 29  1  0  0  0  0
 31 12  1  0  0  0  0
 31 42  1  0  0  0  0
 33 30  1  0  0  0  0
 33 22  1  0  0  0  0
 35 17  1  0  0  0  0
 36 37  1  0  0  0  0
 38 39  1  0  0  0  0
 38 37  1  0  0  0  0
 39 40  1  0  0  0  0
 40 41  1  0  0  0  0
 42 43  1  0  0  0  0
 43 44  1  0  0  0  0
 44 45  2  0  0  0  0
 44 48  1  0  0  0  0
 46 48  2  0  0  0  0
 48 47  1  0  0  0  0
M  END
>  <MODEL>
4

>  <REMARK>
 VINA RESULT:      -7.0      2.335      5.866
  Name = 
  9 active torsions:
  status: ('A' for Active; 'I' for Inactive)
    1  A    between atoms: C_9  and  N_35
    2  A    between atoms: C_13  and  O_14
    3  A    between atoms: O_14  and  C_40
    4  A    between atoms: C_24  and  N_35
    5  A    between atoms: C_24  and  C_40
    6  A    between atoms: O_29  and  C_32
    7  A    between atoms: O_29  and  C_33
    8  A    between atoms: C_32  and  C_44
    9  A    between atoms: C_33  and  C_43
                            x       y       z     vdW  Elec       q    Type
                         _______ _______ _______ _____ _____    ______ ____

>  <TORSDO>
F 9

$$$$
=
 OpenBabel11062418263D

 48 53  0  0  1  0  0  0  0  0999 V2000
  190.6070  172.9970  141.9910 C   0  0  1  0  0  3  0  0  0  0  0  0
  191.7320  172.1920  139.7970 C   0  0  2  0  0  0  0  0  0  0  0  0
  195.3320  175.0710  138.9600 N   0  0  0  0  0  0  0  0  0  0  0  0
  190.4060  171.8010  139.3600 N   0  0  0  0  0  0  0  0  0  0  0  0
  192.4470  169.2020  138.0860 N   0  0  0  0  0  1  0  0  0  0  0  0
  193.5430  173.9750  139.7670 C   0  0  0  0  0  0  0  0  0  0  0  0
  190.7080  175.0160  143.2390 C   0  0  2  0  0  3  0  0  0  0  0  0
  191.9060  172.7520  141.1870 C   0  0  1  0  0  3  0  0  0  0  0  0
  189.9220  175.2900  142.1020 O   0  0  0  0  0  0  0  0  0  0  0  0
  195.2510  177.1670  144.7480 C   0  0  0  0  0  1  0  0  0  0  0  0
  194.1030  174.7660  138.7050 C   0  0  0  0  0  0  0  0  0  0  0  0
  190.8140  175.3440  145.7290 N   0  0  0  0  0  0  0  0  0  0  0  0
  191.9400  170.3720  138.7190 C   0  0  0  0  0  0  0  0  0  0  0  0
  192.0840  173.6590  139.9420 C   0  0  2  0  0  3  0  0  0  0  0  0
  195.6630  174.4720  140.2560 C   0  0  2  0  0  3  0  0  0  0  0  0
  196.0640  175.1910  142.7080 C   0  0  2  0  0  3  0  0  0  0  0  0
  192.2890  173.1960  143.9070 C   0  0  0  0  0  2  0  0  0  0  0  0
  190.8020  175.3780  148.0610 O   0  0  0  0  0  0  0  0  0  0  0  0
  189.8190  176.9580  144.3490 O   0  0  0  0  0  1  0  0  0  0  0  0
  195.2130  174.9070  145.6860 C   0  0  0  0  0  1  0  0  0  0  0  0
  190.8920  173.5200  143.3800 C   0  0  2  0  0  3  0  0  0  0  0  0
  194.6490  175.2610  143.2720 C   0  0  0  0  0  2  0  0  0  0  0  0
  194.4300  173.8190  140.6920 N   0  0  0  0  0  0  0  0  0  0  0  0
  192.7020  171.2180  139.3330 N   0  0  0  0  0  0  0  0  0  0  0  0
  190.0490  175.5890  144.4950 C   0  0  1  0  0  3  0  0  0  0  0  0
  196.0710  175.5800  141.2350 C   0  0  0  0  0  2  0  0  0  0  0  0
  189.7060  174.0800  141.4210 C   0  0  2  0  0  3  0  0  0  0  0  0
  190.5510  170.7120  138.7260 N   0  0  0  0  0  0  0  0  0  0  0  0
  192.2460  175.0160  145.7250 C   0  0  2  0  0  3  0  0  0  0  0  0
  193.0640  176.0740  144.9660 C   0  0  0  0  0  2  0  0  0  0  0  0
  190.1330  175.3470  146.9950 C   0  0  0  0  0  0  0  0  0  0  0  0
  196.6030  173.9200  142.8980 O   0  0  0  0  0  1  0  0  0  0  0  0
  194.5520  175.8230  144.6810 C   0  0  0  0  0  0  0  0  0  0  0  0
  188.2480  173.6760  141.5400 C   0  0  0  0  0  1  0  0  0  0  0  0
  192.4680  173.5370  145.3770 C   0  0  0  0  0  2  0  0  0  0  0  0
  193.4060  175.2030  137.5800 O   0  0  0  0  0  0  0  0  0  0  0  0
  193.3790  174.4530  136.3800 C   0  0  0  0  0  2  0  0  0  0  0  0
  192.0850  173.6780  136.2590 C   0  0  0  0  0  2  0  0  0  0  0  0
  190.9850  174.5420  136.6530 N   0  0  0  0  0  2  0  0  0  0  0  0
  189.7540  173.7930  136.4350 C   0  0  0  0  0  2  0  0  0  0  0  0
  188.7410  174.1710  137.4980 C   0  0  0  0  0  1  0  0  0  0  0  0
  188.6380  175.3230  147.0920 C   0  0  0  0  0  2  0  0  0  0  0  0
  188.1070  176.6420  147.0900 O   0  0  0  0  0  0  0  0  0  0  0  0
  186.8970  177.0310  146.4910 C   0  0  0  0  0  0  0  0  0  0  0  0
  186.5950  176.5130  145.3840 O   0  0  0  0  0  0  0  0  0  0  0  0
  186.3390  178.7880  148.0080 O   0  0  0  0  0  0  0  0  0  0  0  0
  184.5640  178.1120  146.6010 C   0  0  0  0  0  1  0  0  0  0  0  0
  185.9720  178.0120  147.0910 C   0  0  0  0  0  0  0  0  0  0  0  0
  1 21  1  0  0  0  0
  2 14  1  0  0  0  0
  2  8  1  0  0  0  0
  3 15  1  0  0  0  0
  4  2  1  0  0  0  0
  5 13  1  0  0  0  0
  6 14  1  0  0  0  0
  6 23  2  0  0  0  0
  7 21  1  0  0  0  0
  7 25  1  0  0  0  0
  8  1  1  0  0  0  0
  9  7  1  0  0  0  0
 11  3  2  0  0  0  0
 11  6  1  0  0  0  0
 12 31  1  0  0  0  0
 13 28  1  0  0  0  0
 13 24  2  0  0  0  0
 14  8  1  0  0  0  0
 15 23  1  0  0  0  0
 15 26  1  0  0  0  0
 16 32  1  0  0  0  0
 16 22  1  0  0  0  0
 17 35  1  0  0  0  0
 19 25  1  0  0  0  0
 21 17  1  0  0  0  0
 22 33  1  0  0  0  0
 24  2  1  0  0  0  0
 25 12  1  0  0  0  0
 26 16  1  0  0  0  0
 27 34  1  0  0  0  0
 27  1  1  0  0  0  0
 27  9  1  0  0  0  0
 28  4  2  0  0  0  0
 29 12  1  0  0  0  0
 30 29  1  0  0  0  0
 31 42  1  0  0  0  0
 31 18  2  0  0  0  0
 33 10  1  0  0  0  0
 33 30  1  0  0  0  0
 33 20  1  0  0  0  0
 35 29  1  0  0  0  0
 36 11  1  0  0  0  0
 37 36  1  0  0  0  0
 38 37  1  0  0  0  0
 38 39  1  0  0  0  0
 40 39  1  0  0  0  0
 40 41  1  0  0  0  0
 43 42  1  0  0  0  0
 44 43  1  0  0  0  0
 44 48  1  0  0  0  0
 45 44  2  0  0  0  0
 47 48  1  0  0  0  0
 48 46  2  0  0  0  0
M  END
>  <MODEL>
5

>  <REMARK>
 VINA RESULT:      -6.9      2.834      8.003
  Name = 
  9 active torsions:
  status: ('A' for Active; 'I' for Inactive)
    1  A    between atoms: C_9  and  N_35
    2  A    between atoms: C_13  and  O_14
    3  A    between atoms: O_14  and  C_40
    4  A    between atoms: C_24  and  N_35
    5  A    between atoms: C_24  and  C_40
    6  A    between atoms: O_29  and  C_32
    7  A    between atoms: O_29  and  C_33
    8  A    between atoms: C_32  and  C_44
    9  A    between atoms: C_33  and  C_43
                            x       y       z     vdW  Elec       q    Type
                         _______ _______ _______ _____ _____    ______ ____

>  <TORSDO>
F 9

$$$$
=
 OpenBabel11062418263D

 48 53  0  0  1  0  0  0  0  0999 V2000
  191.3540  173.2730  141.9660 C   0  0  1  0  0  3  0  0  0  0  0  0
  189.7650  175.1510  142.7880 C   0  0  2  0  0  0  0  0  0  0  0  0
  191.2160  176.4100  147.0610 N   0  0  0  0  0  0  0  0  0  0  0  0
  188.7190  174.4740  142.0480 N   0  0  0  0  0  0  0  0  0  0  0  0
  187.9640  177.8930  141.5150 N   0  0  0  0  0  1  0  0  0  0  0  0
  190.9060  175.4910  145.0330 C   0  0  0  0  0  0  0  0  0  0  0  0
  192.9080  171.8470  143.0600 C   0  0  2  0  0  3  0  0  0  0  0  0
  191.1730  174.6110  142.7210 C   0  0  1  0  0  3  0  0  0  0  0  0
  191.6250  171.3600  143.3840 O   0  0  0  0  0  0  0  0  0  0  0  0
  196.6720  173.6840  146.2210 C   0  0  0  0  0  1  0  0  0  0  0  0
  190.3890  175.7120  146.3570 C   0  0  0  0  0  0  0  0  0  0  0  0
  195.1980  171.1220  142.3190 N   0  0  0  0  0  0  0  0  0  0  0  0
  188.5370  176.6550  141.9220 C   0  0  0  0  0  0  0  0  0  0  0  0
  190.3510  174.5160  144.0330 C   0  0  2  0  0  3  0  0  0  0  0  0
  192.3700  176.7010  146.2050 C   0  0  2  0  0  3  0  0  0  0  0  0
  194.8380  175.9810  145.9210 C   0  0  2  0  0  3  0  0  0  0  0  0
  193.8090  173.9740  142.1020 C   0  0  0  0  0  2  0  0  0  0  0  0
  197.2370  170.5200  141.3590 O   0  0  0  0  0  0  0  0  0  0  0  0
  193.8900  169.7410  143.6890 O   0  0  0  0  0  1  0  0  0  0  0  0
  197.0060  174.7650  144.0510 C   0  0  0  0  0  1  0  0  0  0  0  0
  192.8020  172.8400  141.9230 C   0  0  2  0  0  3  0  0  0  0  0  0
  194.7220  174.7160  145.0780 C   0  0  0  0  0  2  0  0  0  0  0  0
  192.0730  176.0350  144.9380 N   0  0  0  0  0  0  0  0  0  0  0  0
  189.5840  176.5870  142.6780 N   0  0  0  0  0  0  0  0  0  0  0  0
  193.8340  170.6930  142.6700 C   0  0  1  0  0  3  0  0  0  0  0  0
  193.6350  176.1170  146.8460 C   0  0  0  0  0  2  0  0  0  0  0  0
  190.6840  172.0800  142.6280 C   0  0  2  0  0  3  0  0  0  0  0  0
  188.0020  175.3860  141.5350 N   0  0  0  0  0  0  0  0  0  0  0  0
  195.7560  172.4160  142.7340 C   0  0  2  0  0  3  0  0  0  0  0  0
  195.6730  172.6020  144.2580 C   0  0  0  0  0  2  0  0  0  0  0  0
  196.0050  170.2880  141.4710 C   0  0  0  0  0  0  0  0  0  0  0  0
  194.9770  177.1010  145.1040 O   0  0  0  0  0  1  0  0  0  0  0  0
  196.0270  173.9620  144.8780 C   0  0  0  0  0  0  0  0  0  0  0  0
  190.0630  171.1720  141.5820 C   0  0  0  0  0  1  0  0  0  0  0  0
  195.2430  173.5490  141.8330 C   0  0  0  0  0  2  0  0  0  0  0  0
  189.1900  175.1940  146.8440 O   0  0  0  0  0  0  0  0  0  0  0  0
  188.0370  176.0000  146.9990 C   0  0  0  0  0  2  0  0  0  0  0  0
  187.5100  176.4490  145.6540 C   0  0  0  0  0  2  0  0  0  0  0  0
  187.1030  177.8400  145.7530 N   0  0  0  0  0  2  0  0  0  0  0  0
  186.0820  177.9130  146.7920 C   0  0  0  0  0  2  0  0  0  0  0  0
  184.7100  177.8060  146.1550 C   0  0  0  0  0  1  0  0  0  0  0  0
  195.4270  169.1320  140.7130 C   0  0  0  0  0  2  0  0  0  0  0  0
  194.8770  169.5610  139.4740 O   0  0  0  0  0  0  0  0  0  0  0  0
  193.5350  169.9160  139.2580 C   0  0  0  0  0  0  0  0  0  0  0  0
  192.6480  169.0690  139.5420 O   0  0  0  0  0  0  0  0  0  0  0  0
  191.9140  171.4790  138.4650 O   0  0  0  0  0  0  0  0  0  0  0  0
  194.1340  172.2900  138.4660 C   0  0  0  0  0  1  0  0  0  0  0  0
  193.1170  171.2240  138.7160 C   0  0  0  0  0  0  0  0  0  0  0  0
  1 27  1  0  0  0  0
  1  8  1  0  0  0  0
  2 14  1  0  0  0  0
  4  2  1  0  0  0  0
  5 13  1  0  0  0  0
  6 11  1  0  0  0  0
  7  9  1  0  0  0  0
  8  2  1  0  0  0  0
  8 14  1  0  0  0  0
 11 36  1  0  0  0  0
 11  3  2  0  0  0  0
 12 25  1  0  0  0  0
 12 29  1  0  0  0  0
 13 24  2  0  0  0  0
 14  6  1  0  0  0  0
 15 26  1  0  0  0  0
 15  3  1  0  0  0  0
 16 26  1  0  0  0  0
 18 31  2  0  0  0  0
 20 33  1  0  0  0  0
 21  1  1  0  0  0  0
 21 17  1  0  0  0  0
 21  7  1  0  0  0  0
 22 16  1  0  0  0  0
 23  6  2  0  0  0  0
 23 15  1  0  0  0  0
 24  2  1  0  0  0  0
 25  7  1  0  0  0  0
 25 19  1  0  0  0  0
 27  9  1  0  0  0  0
 28 13  1  0  0  0  0
 28  4  2  0  0  0  0
 29 30  1  0  0  0  0
 30 33  1  0  0  0  0
 31 12  1  0  0  0  0
 32 16  1  0  0  0  0
 33 22  1  0  0  0  0
 33 10  1  0  0  0  0
 34 27  1  0  0  0  0
 35 17  1  0  0  0  0
 35 29  1  0  0  0  0
 36 37  1  0  0  0  0
 38 39  1  0  0  0  0
 38 37  1  0  0  0  0
 39 40  1  0  0  0  0
 41 40  1  0  0  0  0
 42 31  1  0  0  0  0
 43 42  1  0  0  0  0
 44 43  1  0  0  0  0
 44 45  2  0  0  0  0
 46 48  2  0  0  0  0
 47 48  1  0  0  0  0
 48 44  1  0  0  0  0
M  END
>  <MODEL>
6

>  <REMARK>
 VINA RESULT:      -6.7      1.801      2.431
  Name = 
  9 active torsions:
  status: ('A' for Active; 'I' for Inactive)
    1  A    between atoms: C_9  and  N_35
    2  A    between atoms: C_13  and  O_14
    3  A    between atoms: O_14  and  C_40
    4  A    between atoms: C_24  and  N_35
    5  A    between atoms: C_24  and  C_40
    6  A    between atoms: O_29  and  C_32
    7  A    between atoms: O_29  and  C_33
    8  A    between atoms: C_32  and  C_44
    9  A    between atoms: C_33  and  C_43
                            x       y       z     vdW  Elec       q    Type
                         _______ _______ _______ _____ _____    ______ ____

>  <TORSDO>
F 9

$$$$
=
 OpenBabel11062418263D

 48 53  0  0  1  0  0  0  0  0999 V2000
  190.6820  173.2160  142.0540 C   0  0  1  0  0  3  0  0  0  0  0  0
  191.9900  172.3420  139.9930 C   0  0  2  0  0  0  0  0  0  0  0  0
  195.6250  175.2240  139.3440 N   0  0  0  0  0  0  0  0  0  0  0  0
  190.7080  171.9210  139.4640 N   0  0  0  0  0  0  0  0  0  0  0  0
  192.8650  169.2970  138.4620 N   0  0  0  0  0  1  0  0  0  0  0  0
  193.7840  174.1410  140.0430 C   0  0  0  0  0  0  0  0  0  0  0  0
  190.6650  175.2820  143.2290 C   0  0  2  0  0  3  0  0  0  0  0  0
  192.0450  172.9560  141.3700 C   0  0  1  0  0  3  0  0  0  0  0  0
  189.9730  175.5040  142.0210 O   0  0  0  0  0  0  0  0  0  0  0  0
  195.0520  177.5360  145.0210 C   0  0  0  0  0  1  0  0  0  0  0  0
  194.4240  174.8970  139.0010 C   0  0  0  0  0  0  0  0  0  0  0  0
  190.5640  175.7050  145.7040 N   0  0  0  0  0  0  0  0  0  0  0  0
  192.3000  170.4840  139.0060 C   0  0  0  0  0  0  0  0  0  0  0  0
  192.3180  173.8170  140.1090 C   0  0  2  0  0  3  0  0  0  0  0  0
  195.8530  174.6780  140.6850 C   0  0  2  0  0  3  0  0  0  0  0  0
  196.0460  175.4930  143.1320 C   0  0  2  0  0  3  0  0  0  0  0  0
  192.1990  173.5050  144.0930 C   0  0  0  0  0  2  0  0  0  0  0  0
  190.3590  175.8260  148.0250 O   0  0  0  0  0  0  0  0  0  0  0  0
  189.6740  177.2550  144.1870 O   0  0  0  0  0  1  0  0  0  0  0  0
  194.9540  175.3130  146.0390 C   0  0  0  0  0  1  0  0  0  0  0  0
  190.8480  173.7950  143.4410 C   0  0  2  0  0  3  0  0  0  0  0  0
  194.5880  175.5700  143.5750 C   0  0  0  0  0  2  0  0  0  0  0  0
  194.5920  174.0300  141.0430 N   0  0  0  0  0  0  0  0  0  0  0  0
  193.0020  171.3610  139.6470 N   0  0  0  0  0  0  0  0  0  0  0  0
  189.9000  175.8950  144.4030 C   0  0  1  0  0  3  0  0  0  0  0  0
  196.1710  175.8270  141.6510 C   0  0  0  0  0  2  0  0  0  0  0  0
  189.8240  174.2670  141.3710 C   0  0  2  0  0  3  0  0  0  0  0  0
  190.9120  170.8100  138.8860 N   0  0  0  0  0  0  0  0  0  0  0  0
  191.9930  175.3910  145.8300 C   0  0  2  0  0  3  0  0  0  0  0  0
  192.8630  176.4290  145.1010 C   0  0  0  0  0  2  0  0  0  0  0  0
  189.7810  175.7480  146.9090 C   0  0  0  0  0  0  0  0  0  0  0  0
  196.5760  174.2360  143.4140 O   0  0  0  0  0  1  0  0  0  0  0  0
  194.3710  176.1830  144.9490 C   0  0  0  0  0  0  0  0  0  0  0  0
  188.3640  173.8530  141.3860 C   0  0  0  0  0  1  0  0  0  0  0  0
  192.2540  173.9030  145.5580 C   0  0  0  0  0  2  0  0  0  0  0  0
  193.8190  175.2850  137.8070 O   0  0  0  0  0  0  0  0  0  0  0  0
  193.7740  174.4280  136.6800 C   0  0  0  0  0  2  0  0  0  0  0  0
  194.3440  175.1160  135.4590 C   0  0  0  0  0  2  0  0  0  0  0  0
  194.8010  176.4410  135.8400 N   0  0  0  0  0  2  0  0  0  0  0  0
  196.0930  176.6480  135.1980 C   0  0  0  0  0  2  0  0  0  0  0  0
  197.1680  175.9320  135.9920 C   0  0  0  0  0  1  0  0  0  0  0  0
  188.2830  175.7110  146.8840 C   0  0  0  0  0  2  0  0  0  0  0  0
  187.7420  177.0270  146.8740 O   0  0  0  0  0  0  0  0  0  0  0  0
  186.4770  177.3830  146.3790 C   0  0  0  0  0  0  0  0  0  0  0  0
  185.4940  177.3010  147.1620 O   0  0  0  0  0  0  0  0  0  0  0  0
  186.2170  179.0620  144.7020 O   0  0  0  0  0  0  0  0  0  0  0  0
  186.0500  176.8450  143.8990 C   0  0  0  0  0  1  0  0  0  0  0  0
  186.2450  177.8410  144.9960 C   0  0  0  0  0  0  0  0  0  0  0  0
  1 21  1  0  0  0  0
  2 14  1  0  0  0  0
  2  8  1  0  0  0  0
  3 15  1  0  0  0  0
  4  2  1  0  0  0  0
  5 13  1  0  0  0  0
  6 14  1  0  0  0  0
  6 23  2  0  0  0  0
  7 21  1  0  0  0  0
  7 25  1  0  0  0  0
  8  1  1  0  0  0  0
  9  7  1  0  0  0  0
 11  3  2  0  0  0  0
 11  6  1  0  0  0  0
 12 29  1  0  0  0  0
 12 31  1  0  0  0  0
 13 24  2  0  0  0  0
 14  8  1  0  0  0  0
 15 23  1  0  0  0  0
 15 26  1  0  0  0  0
 16 32  1  0  0  0  0
 16 22  1  0  0  0  0
 17 35  1  0  0  0  0
 19 25  1  0  0  0  0
 21 17  1  0  0  0  0
 22 33  1  0  0  0  0
 24  2  1  0  0  0  0
 25 12  1  0  0  0  0
 26 16  1  0  0  0  0
 27 34  1  0  0  0  0
 27  9  1  0  0  0  0
 27  1  1  0  0  0  0
 28 13  1  0  0  0  0
 28  4  2  0  0  0  0
 30 29  1  0  0  0  0
 31 18  2  0  0  0  0
 33 10  1  0  0  0  0
 33 30  1  0  0  0  0
 33 20  1  0  0  0  0
 35 29  1  0  0  0  0
 36 11  1  0  0  0  0
 37 36  1  0  0  0  0
 38 39  1  0  0  0  0
 38 37  1  0  0  0  0
 40 39  1  0  0  0  0
 40 41  1  0  0  0  0
 42 31  1  0  0  0  0
 43 42  1  0  0  0  0
 44 43  1  0  0  0  0
 44 45  2  0  0  0  0
 46 48  2  0  0  0  0
 47 48  1  0  0  0  0
 48 44  1  0  0  0  0
M  END
>  <MODEL>
7

>  <REMARK>
 VINA RESULT:      -6.5      2.974      8.385
  Name = 
  9 active torsions:
  status: ('A' for Active; 'I' for Inactive)
    1  A    between atoms: C_9  and  N_35
    2  A    between atoms: C_13  and  O_14
    3  A    between atoms: O_14  and  C_40
    4  A    between atoms: C_24  and  N_35
    5  A    between atoms: C_24  and  C_40
    6  A    between atoms: O_29  and  C_32
    7  A    between atoms: O_29  and  C_33
    8  A    between atoms: C_32  and  C_44
    9  A    between atoms: C_33  and  C_43
                            x       y       z     vdW  Elec       q    Type
                         _______ _______ _______ _____ _____    ______ ____

>  <TORSDO>
F 9

$$$$
=
 OpenBabel11062418263D

 48 53  0  0  1  0  0  0  0  0999 V2000
  193.1240  171.0240  142.6380 C   0  0  1  0  0  3  0  0  0  0  0  0
  194.6900  171.0590  144.7040 C   0  0  2  0  0  0  0  0  0  0  0  0
  194.9110  175.4970  146.1890 N   0  0  0  0  0  0  0  0  0  0  0  0
  195.4280  169.9920  144.0580 N   0  0  0  0  0  0  0  0  0  0  0  0
  195.5310  169.0550  147.4720 N   0  0  0  0  0  1  0  0  0  0  0  0
  194.4960  173.5560  145.1330 C   0  0  0  0  0  0  0  0  0  0  0  0
  192.2930  172.7080  141.1830 C   0  0  2  0  0  3  0  0  0  0  0  0
  193.4390  171.5840  144.0450 C   0  0  1  0  0  3  0  0  0  0  0  0
  193.6440  172.5120  140.8340 O   0  0  0  0  0  0  0  0  0  0  0  0
  189.9010  177.0300  142.9560 C   0  0  0  0  0  1  0  0  0  0  0  0
  195.4650  174.5510  145.5060 C   0  0  0  0  0  0  0  0  0  0  0  0
  189.9910  172.9780  140.2100 N   0  0  0  0  0  0  0  0  0  0  0  0
  195.3040  169.7100  146.2290 C   0  0  0  0  0  0  0  0  0  0  0  0
  194.7160  172.4600  144.1280 C   0  0  2  0  0  3  0  0  0  0  0  0
  193.4890  175.1620  146.3100 C   0  0  2  0  0  3  0  0  0  0  0  0
  191.2050  175.9220  145.3650 C   0  0  2  0  0  3  0  0  0  0  0  0
  190.8590  172.1010  143.1410 C   0  0  0  0  0  2  0  0  0  0  0  0
  187.8180  172.9410  139.3620 O   0  0  0  0  0  0  0  0  0  0  0  0
  191.8760  173.7680  139.0620 O   0  0  0  0  0  1  0  0  0  0  0  0
  188.6230  175.1310  143.8210 C   0  0  0  0  0  1  0  0  0  0  0  0
  191.8330  171.5820  142.0840 C   0  0  2  0  0  3  0  0  0  0  0  0
  191.1170  175.1580  144.0480 C   0  0  0  0  0  2  0  0  0  0  0  0
  193.3350  173.9120  145.5680 N   0  0  0  0  0  0  0  0  0  0  0  0
  194.6540  170.8240  146.1360 N   0  0  0  0  0  0  0  0  0  0  0  0
  191.4210  172.7710  139.9270 C   0  0  1  0  0  3  0  0  0  0  0  0
  192.6520  176.2810  145.6770 C   0  0  0  0  0  2  0  0  0  0  0  0
  194.1260  171.4120  141.5650 C   0  0  2  0  0  3  0  0  0  0  0  0
  195.7790  169.1960  144.9810 N   0  0  0  0  0  0  0  0  0  0  0  0
  189.5030  173.5260  141.4830 C   0  0  2  0  0  3  0  0  0  0  0  0
  190.1590  174.8790  141.8010 C   0  0  0  0  0  2  0  0  0  0  0  0
  189.0120  172.5600  139.2430 C   0  0  0  0  0  0  0  0  0  0  0  0
  190.6330  175.1820  146.3980 O   0  0  0  0  0  1  0  0  0  0  0  0
  189.9300  175.5300  143.1730 C   0  0  0  0  0  0  0  0  0  0  0  0
  194.3810  170.2450  140.6280 C   0  0  0  0  0  1  0  0  0  0  0  0
  189.4920  172.4470  142.5760 C   0  0  0  0  0  2  0  0  0  0  0  0
  196.8080  174.5390  145.1320 O   0  0  0  0  0  0  0  0  0  0  0  0
  197.2240  174.9040  143.8290 C   0  0  0  0  0  2  0  0  0  0  0  0
  196.8140  176.3250  143.5110 C   0  0  0  0  0  2  0  0  0  0  0  0
  196.4630  176.4060  142.1040 N   0  0  0  0  0  2  0  0  0  0  0  0
  195.4410  175.3950  141.8600 C   0  0  0  0  0  2  0  0  0  0  0  0
  194.0780  175.9700  142.1890 C   0  0  0  0  0  1  0  0  0  0  0  0
  189.3680  171.6850  138.0810 C   0  0  0  0  0  2  0  0  0  0  0  0
  189.2220  172.3860  136.8530 O   0  0  0  0  0  0  0  0  0  0  0  0
  190.2350  173.1110  136.2030 C   0  0  0  0  0  0  0  0  0  0  0  0
  191.2550  172.4810  135.8190 O   0  0  0  0  0  0  0  0  0  0  0  0
  191.1870  175.2900  135.9950 O   0  0  0  0  0  0  0  0  0  0  0  0
  188.8520  175.2050  135.6330 C   0  0  0  0  0  1  0  0  0  0  0  0
  190.1630  174.5640  135.9550 C   0  0  0  0  0  0  0  0  0  0  0  0
  1  8  1  0  0  0  0
  2 24  1  0  0  0  0
  3 15  1  0  0  0  0
  4  2  1  0  0  0  0
  4 28  2  0  0  0  0
  6 11  1  0  0  0  0
  6 23  2  0  0  0  0
  7 21  1  0  0  0  0
  8 14  1  0  0  0  0
  8  2  1  0  0  0  0
  9  7  1  0  0  0  0
  9 27  1  0  0  0  0
 10 33  1  0  0  0  0
 11  3  2  0  0  0  0
 12 29  1  0  0  0  0
 13  5  1  0  0  0  0
 14  2  1  0  0  0  0
 14  6  1  0  0  0  0
 16 26  1  0  0  0  0
 16 32  1  0  0  0  0
 19 25  1  0  0  0  0
 21  1  1  0  0  0  0
 21 17  1  0  0  0  0
 22 16  1  0  0  0  0
 23 15  1  0  0  0  0
 24 13  2  0  0  0  0
 25 12  1  0  0  0  0
 25  7  1  0  0  0  0
 26 15  1  0  0  0  0
 27  1  1  0  0  0  0
 28 13  1  0  0  0  0
 29 30  1  0  0  0  0
 29 35  1  0  0  0  0
 30 33  1  0  0  0  0
 31 18  2  0  0  0  0
 31 12  1  0  0  0  0
 33 20  1  0  0  0  0
 33 22  1  0  0  0  0
 34 27  1  0  0  0  0
 35 17  1  0  0  0  0
 36 11  1  0  0  0  0
 37 36  1  0  0  0  0
 38 37  1  0  0  0  0
 39 38  1  0  0  0  0
 40 39  1  0  0  0  0
 40 41  1  0  0  0  0
 42 31  1  0  0  0  0
 43 42  1  0  0  0  0
 44 43  1  0  0  0  0
 45 44  2  0  0  0  0
 47 48  1  0  0  0  0
 48 46  2  0  0  0  0
 48 44  1  0  0  0  0
M  END
>  <MODEL>
8

>  <REMARK>
 VINA RESULT:      -6.5      3.327      6.893
  Name = 
  9 active torsions:
  status: ('A' for Active; 'I' for Inactive)
    1  A    between atoms: C_9  and  N_35
    2  A    between atoms: C_13  and  O_14
    3  A    between atoms: O_14  and  C_40
    4  A    between atoms: C_24  and  N_35
    5  A    between atoms: C_24  and  C_40
    6  A    between atoms: O_29  and  C_32
    7  A    between atoms: O_29  and  C_33
    8  A    between atoms: C_32  and  C_44
    9  A    between atoms: C_33  and  C_43
                            x       y       z     vdW  Elec       q    Type
                         _______ _______ _______ _____ _____    ______ ____

>  <TORSDO>
F 9

$$$$
=
 OpenBabel11062418263D

 48 53  0  0  1  0  0  0  0  0999 V2000
  193.6710  171.0280  142.4220 C   0  0  1  0  0  3  0  0  0  0  0  0
  195.2540  171.2290  144.4660 C   0  0  2  0  0  0  0  0  0  0  0  0
  195.0320  175.6670  145.9480 N   0  0  0  0  0  0  0  0  0  0  0  0
  196.0900  170.2440  143.8090 N   0  0  0  0  0  0  0  0  0  0  0  0
  196.3380  169.3260  147.2200 N   0  0  0  0  0  1  0  0  0  0  0  0
  194.8070  173.6930  144.8980 C   0  0  0  0  0  0  0  0  0  0  0  0
  192.6480  172.6140  140.9790 C   0  0  2  0  0  3  0  0  0  0  0  0
  193.9460  171.6200  143.8250 C   0  0  1  0  0  3  0  0  0  0  0  0
  194.0070  172.5600  140.6110 O   0  0  0  0  0  0  0  0  0  0  0  0
  189.8450  176.6660  142.7870 C   0  0  0  0  0  1  0  0  0  0  0  0
  195.6720  174.7840  145.2570 C   0  0  0  0  0  0  0  0  0  0  0  0
  190.3170  172.6410  140.0390 N   0  0  0  0  0  0  0  0  0  0  0  0
  196.0270  169.9530  145.9810 C   0  0  0  0  0  0  0  0  0  0  0  0
  195.1250  172.6240  143.8890 C   0  0  2  0  0  3  0  0  0  0  0  0
  193.6550  175.1870  146.0890 C   0  0  2  0  0  3  0  0  0  0  0  0
  191.2900  175.7030  145.1770 C   0  0  2  0  0  3  0  0  0  0  0  0
  191.3130  171.8630  142.9570 C   0  0  0  0  0  2  0  0  0  0  0  0
  188.1480  172.3780  139.2220 O   0  0  0  0  0  0  0  0  0  0  0  0
  192.0930  173.6220  138.8640 O   0  0  0  0  0  1  0  0  0  0  0  0
  188.7840  174.6450  143.6690 C   0  0  0  0  0  1  0  0  0  0  0  0
  192.3210  171.4480  141.8860 C   0  0  2  0  0  3  0  0  0  0  0  0
  191.2640  174.9330  143.8610 C   0  0  0  0  0  2  0  0  0  0  0  0
  193.6210  173.9260  145.3500 N   0  0  0  0  0  0  0  0  0  0  0  0
  195.2630  170.9930  145.8980 N   0  0  0  0  0  0  0  0  0  0  0  0
  191.7570  172.5850  139.7360 C   0  0  1  0  0  3  0  0  0  0  0  0
  192.6960  176.2110  145.4690 C   0  0  0  0  0  2  0  0  0  0  0  0
  194.6120  171.5170  141.3350 C   0  0  2  0  0  3  0  0  0  0  0  0
  196.5350  169.4900  144.7270 N   0  0  0  0  0  0  0  0  0  0  0  0
  189.7920  173.1370  141.3190 C   0  0  2  0  0  3  0  0  0  0  0  0
  190.3080  174.5520  141.6280 C   0  0  0  0  0  2  0  0  0  0  0  0
  189.3740  172.1230  139.0860 C   0  0  0  0  0  0  0  0  0  0  0  0
  190.8130  174.9090  146.2180 O   0  0  0  0  0  1  0  0  0  0  0  0
  190.0330  175.1770  143.0040 C   0  0  0  0  0  0  0  0  0  0  0  0
  194.9730  170.3820  140.3940 C   0  0  0  0  0  1  0  0  0  0  0  0
  189.9100  172.0640  142.4120 C   0  0  0  0  0  2  0  0  0  0  0  0
  197.0040  174.9120  144.8640 O   0  0  0  0  0  0  0  0  0  0  0  0
  197.3610  175.2910  143.5480 C   0  0  0  0  0  2  0  0  0  0  0  0
  196.9350  176.7140  143.2640 C   0  0  0  0  0  2  0  0  0  0  0  0
  196.4170  176.7840  141.9080 N   0  0  0  0  0  2  0  0  0  0  0  0
  195.6260  175.5790  141.6910 C   0  0  0  0  0  2  0  0  0  0  0  0
  194.1550  175.9450  141.6460 C   0  0  0  0  0  1  0  0  0  0  0  0
  189.8020  171.2880  137.9190 C   0  0  0  0  0  2  0  0  0  0  0  0
  189.5980  169.9050  138.1800 O   0  0  0  0  0  0  0  0  0  0  0  0
  190.5880  168.9100  138.1220 C   0  0  0  0  0  0  0  0  0  0  0  0
  190.7760  168.3320  137.0200 O   0  0  0  0  0  0  0  0  0  0  0  0
  192.6090  168.1680  139.1530 O   0  0  0  0  0  0  0  0  0  0  0  0
  190.8190  168.5220  140.6560 C   0  0  0  0  0  1  0  0  0  0  0  0
  191.4080  168.5110  139.2820 C   0  0  0  0  0  0  0  0  0  0  0  0
  1  8  1  0  0  0  0
  2 24  1  0  0  0  0
  3 15  1  0  0  0  0
  4  2  1  0  0  0  0
  4 28  2  0  0  0  0
  6 11  1  0  0  0  0
  6 23  2  0  0  0  0
  7 21  1  0  0  0  0
  8 14  1  0  0  0  0
  8  2  1  0  0  0  0
  9  7  1  0  0  0  0
  9 27  1  0  0  0  0
 10 33  1  0  0  0  0
 11  3  2  0  0  0  0
 12 29  1  0  0  0  0
 13  5  1  0  0  0  0
 14  2  1  0  0  0  0
 14  6  1  0  0  0  0
 16 26  1  0  0  0  0
 16 32  1  0  0  0  0
 19 25  1  0  0  0  0
 21  1  1  0  0  0  0
 21 17  1  0  0  0  0
 22 16  1  0  0  0  0
 23 15  1  0  0  0  0
 24 13  2  0  0  0  0
 25 12  1  0  0  0  0
 25  7  1  0  0  0  0
 26 15  1  0  0  0  0
 27  1  1  0  0  0  0
 28 13  1  0  0  0  0
 29 30  1  0  0  0  0
 29 35  1  0  0  0  0
 30 33  1  0  0  0  0
 31 18  2  0  0  0  0
 31 12  1  0  0  0  0
 33 20  1  0  0  0  0
 33 22  1  0  0  0  0
 34 27  1  0  0  0  0
 35 17  1  0  0  0  0
 36 11  1  0  0  0  0
 37 36  1  0  0  0  0
 38 37  1  0  0  0  0
 39 38  1  0  0  0  0
 40 39  1  0  0  0  0
 41 40  1  0  0  0  0
 42 43  1  0  0  0  0
 42 31  1  0  0  0  0
 44 43  1  0  0  0  0
 44 48  1  0  0  0  0
 45 44  2  0  0  0  0
 46 48  2  0  0  0  0
 48 47  1  0  0  0  0
M  END
>  <MODEL>
9

>  <REMARK>
 VINA RESULT:      -6.5      3.495      7.109
  Name = 
  9 active torsions:
  status: ('A' for Active; 'I' for Inactive)
    1  A    between atoms: C_9  and  N_35
    2  A    between atoms: C_13  and  O_14
    3  A    between atoms: O_14  and  C_40
    4  A    between atoms: C_24  and  N_35
    5  A    between atoms: C_24  and  C_40
    6  A    between atoms: O_29  and  C_32
    7  A    between atoms: O_29  and  C_33
    8  A    between atoms: C_32  and  C_44
    9  A    between atoms: C_33  and  C_43
                            x       y       z     vdW  Elec       q    Type
                         _______ _______ _______ _____ _____    ______ ____

>  <TORSDO>
F 9

$$$$
