=
 OpenBabel11072409063D

 47 51  0  0  1  0  0  0  0  0999 V2000
  189.0310  173.4740  141.9700 C   0  0  0  0  0  2  0  0  0  0  0  0
  187.6930  176.1690  140.6800 O   0  0  0  0  0  1  0  0  0  0  0  0
  189.4010  175.2320  143.6000 O   0  0  0  0  0  0  0  0  0  0  0  0
  188.3680  176.0120  144.1630 C   0  0  2  0  0  3  0  0  0  0  0  0
  187.5790  176.6680  143.0340 C   0  0  1  0  0  3  0  0  0  0  0  0
  188.2170  177.9120  142.6110 N   0  0  0  0  0  1  0  0  0  0  0  0
  189.0360  174.9740  142.2630 C   0  0  2  0  0  3  0  0  0  0  0  0
  187.7000  175.6200  141.9640 C   0  0  2  0  0  3  0  0  0  0  0  0
  188.9100  176.9870  145.2180 C   0  0  2  0  0  3  0  0  0  0  0  0
  189.4560  174.6000  146.8240 C   0  0  0  0  0  1  0  0  0  0  0  0
  191.3960  175.9750  145.5900 O   0  0  0  0  0  0  0  0  0  0  0  0
  190.3260  177.0320  147.5170 O   0  0  0  0  0  0  0  0  0  0  0  0
  190.0880  176.1770  146.3030 S   0  0  0  0  0  0  0  0  0  0  0  0
  187.7680  177.5640  146.0440 C   0  0  0  0  0  2  0  0  0  0  0  0
  185.3510  176.9190  146.2530 C   0  0  0  0  0  3  0  0  0  0  0  0
  186.6420  176.5910  146.1340 C   0  0  0  0  0  3  0  0  0  0  0  0
  185.0320  178.9690  147.4280 O   0  0  0  0  0  1  0  0  0  0  0  0
  184.8140  178.2520  146.3000 N   0  0  0  0  0  0  0  0  0  0  0  0
  183.9830  178.8060  145.2280 C   0  0  0  0  0  2  0  0  0  0  0  0
  184.6350  178.6840  143.8550 C   0  0  0  0  0  2  0  0  0  0  0  0
  183.9670  178.2730  141.4470 C   0  0  0  0  0  0  0  0  0  0  0  0
  183.6410  178.3650  142.8350 N   0  0  0  0  0  2  0  0  0  0  0  0
  185.2710  178.4900  141.0080 O   0  0  0  0  0  1  0  0  0  0  0  0
  183.0660  177.9960  140.6140 O   0  0  0  0  0  0  0  0  0  0  0  0
  189.5050  173.1590  140.5570 C   0  0  0  0  0  2  0  0  0  0  0  0
  191.3960  170.5990  142.3880 C   0  0  0  0  0  2  0  0  0  0  0  0
  190.6390  172.1490  140.5950 C   0  0  2  0  0  3  0  0  0  0  0  0
  192.6450  169.1360  143.8240 O   0  0  0  0  0  1  0  0  0  0  0  0
  194.3190  171.6510  143.0190 C   0  0  2  0  0  0  0  0  0  0  0  0
  191.1990  172.0700  142.0050 C   0  0  2  0  0  3  0  0  0  0  0  0
  191.9310  172.7960  140.1110 C   0  0  0  0  0  2  0  0  0  0  0  0
  192.6580  174.1440  142.0900 C   0  0  0  0  0  1  0  0  0  0  0  0
  192.4890  172.7440  141.5190 C   0  0  1  0  0  0  0  0  0  0  0  0
  192.1090  170.4220  143.7330 C   0  0  1  0  0  3  0  0  0  0  0  0
  193.7640  171.8820  141.5940 C   0  0  0  0  0  2  0  0  0  0  0  0
  195.0930  170.4840  143.0030 O   0  0  0  0  0  1  0  0  0  0  0  0
  193.1780  171.4800  144.0510 C   0  0  0  0  0  2  0  0  0  0  0  0
  196.1820  174.0070  145.2760 C   0  0  2  0  0  0  0  0  0  0  0  0
  195.0950  176.1230  144.8900 C   0  0  0  0  0  2  0  0  0  0  0  0
  197.1330  173.7980  146.4360 C   0  0  0  0  0  1  0  0  0  0  0  0
  195.0140  174.8560  145.7190 C   0  0  0  0  0  2  0  0  0  0  0  0
  195.6740  172.6570  144.7720 C   0  0  0  0  0  2  0  0  0  0  0  0
  195.1580  172.8080  143.4070 N   0  0  1  0  0  0  0  0  0  0  0  0
  196.3060  172.9560  142.4960 C   0  0  0  0  0  2  0  0  0  0  0  0
  195.9230  175.8420  143.7280 N   0  0  0  0  0  2  0  0  0  0  0  0
  196.8640  174.8250  144.1750 C   0  0  2  0  0  3  0  0  0  0  0  0
  197.3440  173.9780  142.9910 C   0  0  0  0  0  2  0  0  0  0  0  0
  3  4  1  0  0  0  0
  4  9  1  1  0  0  0
  5  6  1  6  0  0  0
  5  4  1  0  0  0  0
  7  1  1  1  0  0  0
  7  3  1  0  0  0  0
  8  2  1  6  0  0  0
  8  7  1  0  0  0  0
  8  5  1  0  0  0  0
  9 14  1  1  0  0  0
  9 13  1  0  0  0  0
 11 13  2  0  0  0  0
 13 10  1  0  0  0  0
 13 12  2  0  0  0  0
 14 16  1  0  0  0  0
 15 18  1  0  0  0  0
 16 15  2  0  0  0  0
 18 17  1  0  0  0  0
 19 18  1  0  0  0  0
 20 19  1  0  0  0  0
 21 22  1  0  0  0  0
 22 20  1  0  0  0  0
 23 21  1  0  0  0  0
 24 21  2  0  0  0  0
 25  1  1  0  0  0  0
 26 34  1  0  0  0  0
 27 25  1  1  0  0  0
 27 30  1  0  0  0  0
 29 36  1  6  0  0  0
 29 43  1  0  0  0  0
 29 37  1  0  0  0  0
 30 26  1  6  0  0  0
 31 27  1  0  0  0  0
 31 33  1  0  0  0  0
 33 35  1  0  0  0  0
 33 30  1  0  0  0  0
 33 32  1  1  0  0  0
 34 28  1  6  0  0  0
 34 37  1  0  0  0  0
 35 29  1  0  0  0  0
 38 41  1  0  0  0  0
 38 40  1  1  0  0  0
 39 41  1  0  0  0  0
 42 38  1  0  0  0  0
 43 44  1  6  0  0  0
 43 42  1  0  0  0  0
 44 47  1  0  0  0  0
 45 46  1  0  0  0  0
 45 39  1  0  0  0  0
 46 47  1  6  0  0  0
 46 38  1  0  0  0  0
M  END
>  <MODEL>
1

>  <REMARK>
 VINA RESULT:      -7.6      0.000      0.000
  Name = 
  12 active torsions:
  status: ('A' for Active; 'I' for Inactive)
    1  A    between atoms: C_3  and  C_13
    2  A    between atoms: C_3  and  C_34
    3  A    between atoms: C_5  and  C_38
    4  A    between atoms: C_11  and  N_28
    5  A    between atoms: C_13  and  C_15
    6  A    between atoms: C_13  and  S_32
    7  A    between atoms: C_14  and  N_17
    8  A    between atoms: N_17  and  C_45
    9  A    between atoms: N_18  and  C_29
   10  A    between atoms: C_29  and  C_45
   11  A    between atoms: C_36  and  C_38
   12  A    between atoms: C_36  and  C_40
                            x       y       z     vdW  Elec       q    Type
                         _______ _______ _______ _____ _____    ______ ____

>  <TORSDO>
F 12

$$$$
=
 OpenBabel11072409063D

 47 51  0  0  1  0  0  0  0  0999 V2000
  193.3890  176.6110  146.0110 C   0  0  0  0  0  2  0  0  0  0  0  0
  191.4170  175.5540  148.4010 O   0  0  0  0  0  1  0  0  0  0  0  0
  191.2200  176.2930  144.9740 O   0  0  0  0  0  0  0  0  0  0  0  0
  190.0360  176.9150  145.4250 C   0  0  2  0  0  3  0  0  0  0  0  0
  189.8330  176.5720  146.8980 C   0  0  1  0  0  3  0  0  0  0  0  0
  189.1520  175.2880  147.0420 N   0  0  0  0  0  1  0  0  0  0  0  0
  191.9910  176.0050  146.1180 C   0  0  2  0  0  3  0  0  0  0  0  0
  191.2590  176.4710  147.3590 C   0  0  2  0  0  3  0  0  0  0  0  0
  188.8430  176.5770  144.5170 C   0  0  2  0  0  3  0  0  0  0  0  0
  187.9170  176.2410  141.7600 C   0  0  0  0  0  1  0  0  0  0  0  0
  189.6820  178.1310  142.4620 O   0  0  0  0  0  0  0  0  0  0  0  0
  190.4530  175.8110  142.4900 O   0  0  0  0  0  0  0  0  0  0  0  0
  189.2890  176.7160  142.7850 S   0  0  0  0  0  0  0  0  0  0  0  0
  187.6690  177.5000  144.8190 C   0  0  0  0  0  2  0  0  0  0  0  0
  185.3020  177.2260  145.6100 C   0  0  0  0  0  3  0  0  0  0  0  0
  186.4600  176.7080  145.1850 C   0  0  0  0  0  3  0  0  0  0  0  0
  185.1260  179.1390  147.0220 O   0  0  0  0  0  1  0  0  0  0  0  0
  185.0070  178.6240  145.7760 N   0  0  0  0  0  0  0  0  0  0  0  0
  184.5080  179.4600  144.6810 C   0  0  0  0  0  2  0  0  0  0  0  0
  183.9830  178.6420  143.5060 C   0  0  0  0  0  2  0  0  0  0  0  0
  184.5900  178.3090  141.0710 C   0  0  0  0  0  0  0  0  0  0  0  0
  184.9550  178.6170  142.4170 N   0  0  0  0  0  2  0  0  0  0  0  0
  183.2690  178.0150  140.7420 O   0  0  0  0  0  1  0  0  0  0  0  0
  185.4720  178.3020  140.1740 O   0  0  0  0  0  0  0  0  0  0  0  0
  194.4740  175.6470  146.4760 C   0  0  0  0  0  2  0  0  0  0  0  0
  195.3430  175.8950  142.9170 C   0  0  0  0  0  2  0  0  0  0  0  0
  195.2800  175.1470  145.2900 C   0  0  2  0  0  3  0  0  0  0  0  0
  195.5960  176.0600  140.5360 O   0  0  0  0  0  1  0  0  0  0  0  0
  194.2880  173.3430  141.3620 C   0  0  2  0  0  0  0  0  0  0  0  0
  194.4590  175.3020  144.0200 C   0  0  2  0  0  3  0  0  0  0  0  0
  195.1670  173.6310  145.1840 C   0  0  0  0  0  2  0  0  0  0  0  0
  192.9010  173.3060  144.1740 C   0  0  0  0  0  1  0  0  0  0  0  0
  194.3260  173.7760  143.9310 C   0  0  1  0  0  0  0  0  0  0  0  0
  194.6480  175.9390  141.5530 C   0  0  1  0  0  3  0  0  0  0  0  0
  195.0030  173.1160  142.7140 C   0  0  0  0  0  2  0  0  0  0  0  0
  195.2280  173.1780  140.3370 O   0  0  0  0  0  1  0  0  0  0  0  0
  193.6920  174.7690  141.2670 C   0  0  0  0  0  2  0  0  0  0  0  0
  190.9770  171.9300  140.2850 C   0  0  2  0  0  0  0  0  0  0  0  0
  189.8850  171.4210  142.3720 C   0  0  0  0  0  2  0  0  0  0  0  0
  190.2240  171.9380  138.9700 C   0  0  0  0  0  1  0  0  0  0  0  0
  190.1170  172.5340  141.3700 C   0  0  0  0  0  2  0  0  0  0  0  0
  192.2700  172.7340  140.1460 C   0  0  0  0  0  2  0  0  0  0  0  0
  193.2000  172.3490  141.2140 N   0  0  1  0  0  0  0  0  0  0  0  0
  193.7420  171.0180  140.8930 C   0  0  0  0  0  2  0  0  0  0  0  0
  190.9100  170.4110  142.1600 N   0  0  0  0  0  2  0  0  0  0  0  0
  191.2280  170.4910  140.7420 C   0  0  2  0  0  3  0  0  0  0  0  0
  192.6580  170.0060  140.4820 C   0  0  0  0  0  2  0  0  0  0  0  0
  1 25  1  0  0  0  0
  3  4  1  0  0  0  0
  3  7  1  0  0  0  0
  4  9  1  6  0  0  0
  4  5  1  0  0  0  0
  5  6  1  6  0  0  0
  5  8  1  0  0  0  0
  7  1  1  6  0  0  0
  7  8  1  0  0  0  0
  8  2  1  1  0  0  0
  9 14  1  1  0  0  0
 10 13  1  0  0  0  0
 11 13  2  0  0  0  0
 12 13  2  0  0  0  0
 13  9  1  0  0  0  0
 14 16  1  0  0  0  0
 15 18  1  0  0  0  0
 16 15  2  0  0  0  0
 18 17  1  0  0  0  0
 19 18  1  0  0  0  0
 20 19  1  0  0  0  0
 21 22  1  0  0  0  0
 22 20  1  0  0  0  0
 23 21  1  0  0  0  0
 24 21  2  0  0  0  0
 27 25  1  1  0  0  0
 29 36  1  6  0  0  0
 29 35  1  0  0  0  0
 30 26  1  6  0  0  0
 30 27  1  0  0  0  0
 31 27  1  0  0  0  0
 33 30  1  0  0  0  0
 33 32  1  1  0  0  0
 33 31  1  0  0  0  0
 34 28  1  6  0  0  0
 34 26  1  0  0  0  0
 35 33  1  0  0  0  0
 37 29  1  0  0  0  0
 37 34  1  0  0  0  0
 38 40  1  6  0  0  0
 38 46  1  0  0  0  0
 38 41  1  0  0  0  0
 41 39  1  0  0  0  0
 42 38  1  0  0  0  0
 43 42  1  6  0  0  0
 43 29  1  0  0  0  0
 44 43  1  0  0  0  0
 45 39  1  0  0  0  0
 46 47  1  1  0  0  0
 46 45  1  0  0  0  0
 47 44  1  0  0  0  0
M  END
>  <MODEL>
2

>  <REMARK>
 VINA RESULT:      -7.5      2.188      5.114
  Name = 
  12 active torsions:
  status: ('A' for Active; 'I' for Inactive)
    1  A    between atoms: C_3  and  C_13
    2  A    between atoms: C_3  and  C_34
    3  A    between atoms: C_5  and  C_38
    4  A    between atoms: C_11  and  N_28
    5  A    between atoms: C_13  and  C_15
    6  A    between atoms: C_13  and  S_32
    7  A    between atoms: C_14  and  N_17
    8  A    between atoms: N_17  and  C_45
    9  A    between atoms: N_18  and  C_29
   10  A    between atoms: C_29  and  C_45
   11  A    between atoms: C_36  and  C_38
   12  A    between atoms: C_36  and  C_40
                            x       y       z     vdW  Elec       q    Type
                         _______ _______ _______ _____ _____    ______ ____

>  <TORSDO>
F 12

$$$$
=
 OpenBabel11072409063D

 47 51  0  0  1  0  0  0  0  0999 V2000
  193.3430  176.4560  146.0830 C   0  0  0  0  0  2  0  0  0  0  0  0
  191.2250  175.4630  148.3730 O   0  0  0  0  0  1  0  0  0  0  0  0
  191.2550  176.0590  144.9130 O   0  0  0  0  0  0  0  0  0  0  0  0
  190.0340  176.6780  145.2550 C   0  0  2  0  0  3  0  0  0  0  0  0
  189.7340  176.3920  146.7240 C   0  0  1  0  0  3  0  0  0  0  0  0
  189.0640  175.1030  146.8740 N   0  0  0  0  0  1  0  0  0  0  0  0
  191.9490  175.8310  146.1190 C   0  0  2  0  0  3  0  0  0  0  0  0
  191.1260  176.3340  147.2850 C   0  0  2  0  0  3  0  0  0  0  0  0
  188.9120  176.2830  144.2830 C   0  0  2  0  0  3  0  0  0  0  0  0
  189.1840  178.1530  142.0460 C   0  0  0  0  0  1  0  0  0  0  0  0
  190.8920  176.1270  142.4400 O   0  0  0  0  0  0  0  0  0  0  0  0
  188.6340  175.5590  141.6960 O   0  0  0  0  0  0  0  0  0  0  0  0
  189.4360  176.4760  142.5780 S   0  0  0  0  0  0  0  0  0  0  0  0
  187.6700  177.1280  144.5340 C   0  0  0  0  0  2  0  0  0  0  0  0
  185.5660  177.0290  143.1670 C   0  0  0  0  0  3  0  0  0  0  0  0
  186.4580  176.4560  143.9830 C   0  0  0  0  0  3  0  0  0  0  0  0
  185.7930  178.5320  141.3300 O   0  0  0  0  0  1  0  0  0  0  0  0
  185.6180  178.3750  142.6640 N   0  0  0  0  0  0  0  0  0  0  0  0
  185.5790  179.5480  143.5410 C   0  0  0  0  0  2  0  0  0  0  0  0
  184.5720  179.4010  144.6770 C   0  0  0  0  0  2  0  0  0  0  0  0
  185.1620  178.3230  146.8900 C   0  0  0  0  0  0  0  0  0  0  0  0
  185.2450  179.4140  145.9710 N   0  0  0  0  0  2  0  0  0  0  0  0
  184.4210  177.1860  146.5780 O   0  0  0  0  0  0  0  0  0  0  0  0
  185.7620  178.3930  147.9930 O   0  0  0  0  0  1  0  0  0  0  0  0
  194.4280  175.4750  146.5090 C   0  0  0  0  0  2  0  0  0  0  0  0
  195.4040  176.0230  143.0120 C   0  0  0  0  0  2  0  0  0  0  0  0
  195.2940  175.0980  145.3190 C   0  0  2  0  0  3  0  0  0  0  0  0
  195.7300  176.3740  140.6590 O   0  0  0  0  0  1  0  0  0  0  0  0
  194.5180  173.5500  141.2370 C   0  0  2  0  0  0  0  0  0  0  0  0
  194.5110  175.3120  144.0350 C   0  0  2  0  0  3  0  0  0  0  0  0
  195.2530  173.5910  145.1000 C   0  0  0  0  0  2  0  0  0  0  0  0
  193.0400  173.2460  143.9860 C   0  0  0  0  0  1  0  0  0  0  0  0
  194.4500  173.7930  143.8310 C   0  0  1  0  0  0  0  0  0  0  0  0
  194.7540  176.1380  141.6290 C   0  0  1  0  0  3  0  0  0  0  0  0
  195.1960  173.2540  142.5950 C   0  0  0  0  0  2  0  0  0  0  0  0
  195.4980  173.5010  140.2380 O   0  0  0  0  0  1  0  0  0  0  0  0
  193.8620  174.9530  141.2240 C   0  0  0  0  0  2  0  0  0  0  0  0
  191.2070  172.1300  140.1670 C   0  0  2  0  0  0  0  0  0  0  0  0
  190.3530  171.1300  142.1870 C   0  0  0  0  0  2  0  0  0  0  0  0
  190.3320  172.3420  138.9490 C   0  0  0  0  0  1  0  0  0  0  0  0
  190.4220  172.4360  141.4210 C   0  0  0  0  0  2  0  0  0  0  0  0
  192.4310  173.0420  140.0920 C   0  0  0  0  0  2  0  0  0  0  0  0
  193.4810  172.5250  140.9770 N   0  0  1  0  0  0  0  0  0  0  0  0
  194.0680  171.3310  140.3450 C   0  0  0  0  0  2  0  0  0  0  0  0
  191.4120  170.2660  141.6880 N   0  0  0  0  0  2  0  0  0  0  0  0
  191.5860  170.6520  140.2950 C   0  0  2  0  0  3  0  0  0  0  0  0
  193.0110  170.3410  139.8240 C   0  0  0  0  0  2  0  0  0  0  0  0
  1 25  1  0  0  0  0
  3  4  1  0  0  0  0
  3  7  1  0  0  0  0
  4  9  1  6  0  0  0
  4  5  1  0  0  0  0
  5  6  1  6  0  0  0
  5  8  1  0  0  0  0
  7  1  1  6  0  0  0
  7  8  1  0  0  0  0
  8  2  1  1  0  0  0
  9 14  1  1  0  0  0
 10 13  1  0  0  0  0
 11 13  2  0  0  0  0
 12 13  2  0  0  0  0
 13  9  1  0  0  0  0
 15 16  2  0  0  0  0
 16 14  1  0  0  0  0
 17 18  1  0  0  0  0
 18 15  1  0  0  0  0
 18 19  1  0  0  0  0
 19 20  1  0  0  0  0
 20 22  1  0  0  0  0
 21 24  1  0  0  0  0
 22 21  1  0  0  0  0
 23 21  2  0  0  0  0
 27 25  1  1  0  0  0
 29 36  1  6  0  0  0
 29 35  1  0  0  0  0
 30 26  1  6  0  0  0
 30 27  1  0  0  0  0
 31 27  1  0  0  0  0
 33 32  1  1  0  0  0
 33 30  1  0  0  0  0
 33 31  1  0  0  0  0
 34 28  1  6  0  0  0
 34 26  1  0  0  0  0
 35 33  1  0  0  0  0
 37 29  1  0  0  0  0
 37 34  1  0  0  0  0
 38 40  1  6  0  0  0
 38 46  1  0  0  0  0
 38 41  1  0  0  0  0
 41 39  1  0  0  0  0
 42 38  1  0  0  0  0
 43 42  1  6  0  0  0
 43 29  1  0  0  0  0
 44 43  1  0  0  0  0
 45 39  1  0  0  0  0
 46 47  1  1  0  0  0
 46 45  1  0  0  0  0
 47 44  1  0  0  0  0
M  END
>  <MODEL>
3

>  <REMARK>
 VINA RESULT:      -7.2      2.282      5.514
  Name = 
  12 active torsions:
  status: ('A' for Active; 'I' for Inactive)
    1  A    between atoms: C_3  and  C_13
    2  A    between atoms: C_3  and  C_34
    3  A    between atoms: C_5  and  C_38
    4  A    between atoms: C_11  and  N_28
    5  A    between atoms: C_13  and  C_15
    6  A    between atoms: C_13  and  S_32
    7  A    between atoms: C_14  and  N_17
    8  A    between atoms: N_17  and  C_45
    9  A    between atoms: N_18  and  C_29
   10  A    between atoms: C_29  and  C_45
   11  A    between atoms: C_36  and  C_38
   12  A    between atoms: C_36  and  C_40
                            x       y       z     vdW  Elec       q    Type
                         _______ _______ _______ _____ _____    ______ ____

>  <TORSDO>
F 12

$$$$
=
 OpenBabel11072409063D

 47 51  0  0  1  0  0  0  0  0999 V2000
  193.6020  176.1820  146.5070 C   0  0  0  0  0  2  0  0  0  0  0  0
  191.4330  175.1190  148.7170 O   0  0  0  0  0  1  0  0  0  0  0  0
  191.5030  175.9630  145.3100 O   0  0  0  0  0  0  0  0  0  0  0  0
  190.3090  176.6090  145.6950 C   0  0  2  0  0  3  0  0  0  0  0  0
  189.9910  176.2300  147.1390 C   0  0  1  0  0  3  0  0  0  0  0  0
  189.2650  174.9640  147.1940 N   0  0  0  0  0  1  0  0  0  0  0  0
  192.1820  175.6180  146.4960 C   0  0  2  0  0  3  0  0  0  0  0  0
  191.3770  176.0710  147.6960 C   0  0  2  0  0  3  0  0  0  0  0  0
  189.1750  176.3350  144.6950 C   0  0  2  0  0  3  0  0  0  0  0  0
  188.4110  176.6790  141.8900 C   0  0  0  0  0  1  0  0  0  0  0  0
  190.7590  177.5370  142.8550 O   0  0  0  0  0  0  0  0  0  0  0  0
  190.4480  175.1210  142.6480 O   0  0  0  0  0  0  0  0  0  0  0  0
  189.7700  176.4150  143.0050 S   0  0  0  0  0  0  0  0  0  0  0  0
  188.0450  177.3390  144.8880 C   0  0  0  0  0  2  0  0  0  0  0  0
  185.6120  177.2440  145.5030 C   0  0  0  0  0  3  0  0  0  0  0  0
  186.7780  176.6400  145.2480 C   0  0  0  0  0  3  0  0  0  0  0  0
  185.9890  179.4270  146.3860 O   0  0  0  0  0  1  0  0  0  0  0  0
  185.3640  178.6600  145.4620 N   0  0  0  0  0  0  0  0  0  0  0  0
  184.4080  179.2660  144.5310 C   0  0  0  0  0  2  0  0  0  0  0  0
  184.0530  178.3460  143.3680 C   0  0  0  0  0  2  0  0  0  0  0  0
  184.9620  178.3300  141.0050 C   0  0  0  0  0  0  0  0  0  0  0  0
  185.1580  178.2620  142.4190 N   0  0  0  0  0  2  0  0  0  0  0  0
  183.6840  178.4820  140.4720 O   0  0  0  0  0  1  0  0  0  0  0  0
  185.9540  178.2490  140.2360 O   0  0  0  0  0  0  0  0  0  0  0  0
  193.9110  176.9940  145.2560 C   0  0  0  0  0  2  0  0  0  0  0  0
  196.0680  176.5040  142.3250 C   0  0  0  0  0  2  0  0  0  0  0  0
  195.2510  176.5780  144.6750 C   0  0  2  0  0  3  0  0  0  0  0  0
  197.2320  176.0250  140.2810 O   0  0  0  0  0  1  0  0  0  0  0  0
  196.6140  173.4120  141.8840 C   0  0  2  0  0  0  0  0  0  0  0  0
  195.0360  175.9440  143.3100 C   0  0  2  0  0  3  0  0  0  0  0  0
  195.6700  175.2280  145.2430 C   0  0  0  0  0  2  0  0  0  0  0  0
  194.2630  173.6140  143.9490 C   0  0  0  0  0  1  0  0  0  0  0  0
  195.4340  174.5820  143.8920 C   0  0  1  0  0  0  0  0  0  0  0  0
  196.0340  175.8040  140.9620 C   0  0  1  0  0  3  0  0  0  0  0  0
  196.7270  173.9640  143.3240 C   0  0  0  0  0  2  0  0  0  0  0  0
  197.8970  173.3880  141.3230 O   0  0  0  0  0  1  0  0  0  0  0  0
  195.7030  174.3040  141.0050 C   0  0  0  0  0  2  0  0  0  0  0  0
  194.4360  170.4990  140.9430 C   0  0  2  0  0  0  0  0  0  0  0  0
  193.1910  170.0630  142.9600 C   0  0  0  0  0  2  0  0  0  0  0  0
  194.0510  169.8770  139.6170 C   0  0  0  0  0  1  0  0  0  0  0  0
  193.1920  170.9030  141.6990 C   0  0  0  0  0  2  0  0  0  0  0  0
  195.3130  171.7280  140.7050 C   0  0  0  0  0  2  0  0  0  0  0  0
  196.0570  172.0410  141.9300 N   0  0  1  0  0  0  0  0  0  0  0  0
  197.1280  171.0430  142.0860 C   0  0  0  0  0  2  0  0  0  0  0  0
  194.5460  169.5790  143.1720 N   0  0  0  0  0  2  0  0  0  0  0  0
  195.1150  169.4590  141.8380 C   0  0  2  0  0  3  0  0  0  0  0  0
  196.6410  169.5960  141.8890 C   0  0  0  0  0  2  0  0  0  0  0  0
  3  4  1  0  0  0  0
  3  7  1  0  0  0  0
  4  9  1  6  0  0  0
  4  5  1  0  0  0  0
  5  6  1  6  0  0  0
  5  8  1  0  0  0  0
  7  1  1  6  0  0  0
  7  8  1  0  0  0  0
  8  2  1  1  0  0  0
  9 14  1  6  0  0  0
 10 13  1  0  0  0  0
 11 13  2  0  0  0  0
 12 13  2  0  0  0  0
 13  9  1  0  0  0  0
 14 16  1  0  0  0  0
 16 15  2  0  0  0  0
 18 15  1  0  0  0  0
 18 17  1  0  0  0  0
 19 18  1  0  0  0  0
 20 19  1  0  0  0  0
 21 22  1  0  0  0  0
 22 20  1  0  0  0  0
 23 21  1  0  0  0  0
 24 21  2  0  0  0  0
 25  1  1  0  0  0  0
 27 31  1  0  0  0  0
 27 25  1  1  0  0  0
 29 36  1  6  0  0  0
 29 43  1  0  0  0  0
 29 35  1  0  0  0  0
 30 26  1  6  0  0  0
 30 33  1  0  0  0  0
 30 27  1  0  0  0  0
 33 32  1  1  0  0  0
 33 31  1  0  0  0  0
 34 28  1  1  0  0  0
 34 37  1  0  0  0  0
 34 26  1  0  0  0  0
 35 33  1  0  0  0  0
 37 29  1  0  0  0  0
 38 40  1  6  0  0  0
 38 41  1  0  0  0  0
 38 46  1  0  0  0  0
 39 45  1  0  0  0  0
 41 39  1  0  0  0  0
 42 38  1  0  0  0  0
 43 42  1  6  0  0  0
 43 44  1  0  0  0  0
 46 47  1  1  0  0  0
 46 45  1  0  0  0  0
 47 44  1  0  0  0  0
M  END
>  <MODEL>
4

>  <REMARK>
 VINA RESULT:      -6.9      2.293      4.962
  Name = 
  12 active torsions:
  status: ('A' for Active; 'I' for Inactive)
    1  A    between atoms: C_3  and  C_13
    2  A    between atoms: C_3  and  C_34
    3  A    between atoms: C_5  and  C_38
    4  A    between atoms: C_11  and  N_28
    5  A    between atoms: C_13  and  C_15
    6  A    between atoms: C_13  and  S_32
    7  A    between atoms: C_14  and  N_17
    8  A    between atoms: N_17  and  C_45
    9  A    between atoms: N_18  and  C_29
   10  A    between atoms: C_29  and  C_45
   11  A    between atoms: C_36  and  C_38
   12  A    between atoms: C_36  and  C_40
                            x       y       z     vdW  Elec       q    Type
                         _______ _______ _______ _____ _____    ______ ____

>  <TORSDO>
F 12

$$$$
=
 OpenBabel11072409063D

 47 51  0  0  1  0  0  0  0  0999 V2000
  193.4390  174.6490  145.9300 C   0  0  0  0  0  2  0  0  0  0  0  0
  191.2630  175.3030  148.2860 O   0  0  0  0  0  1  0  0  0  0  0  0
  191.2600  174.3990  144.8940 O   0  0  0  0  0  0  0  0  0  0  0  0
  190.2790  175.4140  144.8760 C   0  0  2  0  0  3  0  0  0  0  0  0
  189.9960  175.8470  146.3110 C   0  0  1  0  0  3  0  0  0  0  0  0
  189.0060  174.9710  146.9310 N   0  0  0  0  0  1  0  0  0  0  0  0
  191.9320  174.5030  146.1290 C   0  0  2  0  0  3  0  0  0  0  0  0
  191.3480  175.6440  146.9340 C   0  0  2  0  0  3  0  0  0  0  0  0
  189.0380  174.9810  144.0790 C   0  0  2  0  0  3  0  0  0  0  0  0
  189.7420  172.6310  142.4810 C   0  0  0  0  0  1  0  0  0  0  0  0
  188.4070  174.7160  141.4580 O   0  0  0  0  0  0  0  0  0  0  0  0
  190.7660  175.0550  142.0060 O   0  0  0  0  0  0  0  0  0  0  0  0
  189.4910  174.3900  142.4470 S   0  0  0  0  0  0  0  0  0  0  0  0
  188.0610  176.1410  143.9500 C   0  0  0  0  0  2  0  0  0  0  0  0
  188.1320  178.1110  142.3940 C   0  0  0  0  0  3  0  0  0  0  0  0
  188.7150  177.3080  143.2910 C   0  0  0  0  0  3  0  0  0  0  0  0
  186.5990  177.9180  140.5780 O   0  0  0  0  0  1  0  0  0  0  0  0
  186.7790  178.0100  141.9170 N   0  0  0  0  0  0  0  0  0  0  0  0
  185.6190  178.0930  142.8090 C   0  0  0  0  0  2  0  0  0  0  0  0
  185.5380  179.4250  143.5470 C   0  0  0  0  0  2  0  0  0  0  0  0
  185.0850  178.9980  146.0000 C   0  0  0  0  0  0  0  0  0  0  0  0
  185.9860  179.2800  144.9280 N   0  0  0  0  0  2  0  0  0  0  0  0
  183.7210  178.8480  145.7620 O   0  0  0  0  0  0  0  0  0  0  0  0
  185.5300  178.8860  147.1720 O   0  0  0  0  0  1  0  0  0  0  0  0
  194.0940  173.3460  145.4890 C   0  0  0  0  0  2  0  0  0  0  0  0
  195.5570  175.5830  142.9720 C   0  0  0  0  0  2  0  0  0  0  0  0
  195.1680  173.6200  144.4510 C   0  0  2  0  0  3  0  0  0  0  0  0
  196.2170  177.0740  141.2100 O   0  0  0  0  0  1  0  0  0  0  0  0
  195.1910  174.3460  140.0760 C   0  0  2  0  0  0  0  0  0  0  0  0
  194.5810  174.4540  143.3240 C   0  0  2  0  0  3  0  0  0  0  0  0
  195.3000  172.4290  143.5080 C   0  0  0  0  0  2  0  0  0  0  0  0
  193.3310  172.6980  141.9880 C   0  0  0  0  0  1  0  0  0  0  0  0
  194.6920  173.2460  142.3850 C   0  0  1  0  0  0  0  0  0  0  0  0
  195.1260  176.3820  141.7370 C   0  0  1  0  0  3  0  0  0  0  0  0
  195.6700  173.4040  141.2040 C   0  0  0  0  0  2  0  0  0  0  0  0
  196.3180  174.8080  139.3830 O   0  0  0  0  0  1  0  0  0  0  0  0
  194.4210  175.5650  140.6420 C   0  0  0  0  0  2  0  0  0  0  0  0
  192.2480  173.6750  137.8390 C   0  0  2  0  0  0  0  0  0  0  0  0
  191.1480  171.8170  138.9100 C   0  0  0  0  0  2  0  0  0  0  0  0
  191.5800  174.4700  136.7360 C   0  0  0  0  0  1  0  0  0  0  0  0
  191.2360  173.3300  138.9060 C   0  0  0  0  0  2  0  0  0  0  0  0
  193.3840  174.4930  138.4530 C   0  0  0  0  0  2  0  0  0  0  0  0
  194.3060  173.5950  139.1570 N   0  0  1  0  0  0  0  0  0  0  0  0
  195.0930  172.8620  138.1500 C   0  0  0  0  0  2  0  0  0  0  0  0
  192.3470  171.3010  138.2670 N   0  0  0  0  0  2  0  0  0  0  0  0
  192.7240  172.3220  137.3010 C   0  0  2  0  0  3  0  0  0  0  0  0
  194.2300  172.2690  137.0220 C   0  0  0  0  0  2  0  0  0  0  0  0
  3  7  1  0  0  0  0
  4  9  1  1  0  0  0
  4  3  1  0  0  0  0
  4  5  1  0  0  0  0
  5  6  1  1  0  0  0
  5  8  1  0  0  0  0
  7  1  1  6  0  0  0
  7  8  1  0  0  0  0
  8  2  1  1  0  0  0
  9 14  1  6  0  0  0
 11 13  2  0  0  0  0
 12 13  2  0  0  0  0
 13 10  1  0  0  0  0
 13  9  1  0  0  0  0
 15 16  2  0  0  0  0
 16 14  1  0  0  0  0
 17 18  1  0  0  0  0
 18 15  1  0  0  0  0
 18 19  1  0  0  0  0
 19 20  1  0  0  0  0
 20 22  1  0  0  0  0
 21 24  1  0  0  0  0
 22 21  1  0  0  0  0
 23 21  2  0  0  0  0
 25  1  1  0  0  0  0
 27 25  1  1  0  0  0
 29 36  1  6  0  0  0
 29 37  1  0  0  0  0
 29 35  1  0  0  0  0
 30 26  1  6  0  0  0
 30 27  1  0  0  0  0
 31 27  1  0  0  0  0
 33 32  1  6  0  0  0
 33 30  1  0  0  0  0
 33 31  1  0  0  0  0
 34 28  1  6  0  0  0
 34 26  1  0  0  0  0
 35 33  1  0  0  0  0
 37 34  1  0  0  0  0
 38 40  1  6  0  0  0
 38 42  1  0  0  0  0
 38 41  1  0  0  0  0
 41 39  1  0  0  0  0
 42 43  1  0  0  0  0
 43 44  1  6  0  0  0
 43 29  1  0  0  0  0
 45 39  1  0  0  0  0
 46 47  1  1  0  0  0
 46 38  1  0  0  0  0
 46 45  1  0  0  0  0
 47 44  1  0  0  0  0
M  END
>  <MODEL>
5

>  <REMARK>
 VINA RESULT:      -6.8      2.770      5.765
  Name = 
  12 active torsions:
  status: ('A' for Active; 'I' for Inactive)
    1  A    between atoms: C_3  and  C_13
    2  A    between atoms: C_3  and  C_34
    3  A    between atoms: C_5  and  C_38
    4  A    between atoms: C_11  and  N_28
    5  A    between atoms: C_13  and  C_15
    6  A    between atoms: C_13  and  S_32
    7  A    between atoms: C_14  and  N_17
    8  A    between atoms: N_17  and  C_45
    9  A    between atoms: N_18  and  C_29
   10  A    between atoms: C_29  and  C_45
   11  A    between atoms: C_36  and  C_38
   12  A    between atoms: C_36  and  C_40
                            x       y       z     vdW  Elec       q    Type
                         _______ _______ _______ _____ _____    ______ ____

>  <TORSDO>
F 12

$$$$
=
 OpenBabel11072409063D

 47 51  0  0  1  0  0  0  0  0999 V2000
  192.7580  173.3930  144.3700 C   0  0  0  0  0  2  0  0  0  0  0  0
  193.2570  175.6580  142.0590 O   0  0  0  0  0  1  0  0  0  0  0  0
  191.5520  175.3620  145.1140 O   0  0  0  0  0  0  0  0  0  0  0  0
  190.5630  176.0130  144.3460 C   0  0  2  0  0  3  0  0  0  0  0  0
  191.1630  176.3940  142.9960 C   0  0  1  0  0  3  0  0  0  0  0  0
  191.8640  177.6720  143.0830 N   0  0  0  0  0  1  0  0  0  0  0  0
  192.5290  174.8950  144.2110 C   0  0  2  0  0  3  0  0  0  0  0  0
  192.1370  175.2670  142.7970 C   0  0  2  0  0  3  0  0  0  0  0  0
  189.9290  177.1800  145.1190 C   0  0  2  0  0  3  0  0  0  0  0  0
  190.8370  176.8590  147.8840 C   0  0  0  0  0  1  0  0  0  0  0  0
  188.3150  177.5200  147.2680 O   0  0  0  0  0  0  0  0  0  0  0  0
  189.0290  175.2370  146.7640 O   0  0  0  0  0  0  0  0  0  0  0  0
  189.4590  176.6780  146.7760 S   0  0  0  0  0  0  0  0  0  0  0  0
  188.7070  177.7060  144.3780 C   0  0  0  0  0  2  0  0  0  0  0  0
  186.7860  176.6850  143.1240 C   0  0  0  0  0  3  0  0  0  0  0  0
  187.8180  176.5810  143.9690 C   0  0  0  0  0  3  0  0  0  0  0  0
  186.7890  178.0670  141.1810 O   0  0  0  0  0  1  0  0  0  0  0  0
  186.3570  177.8820  142.4510 N   0  0  0  0  0  0  0  0  0  0  0  0
  185.5630  178.9190  143.1150 C   0  0  0  0  0  2  0  0  0  0  0  0
  184.4380  178.3440  143.9680 C   0  0  0  0  0  2  0  0  0  0  0  0
  184.8280  178.1370  146.4610 C   0  0  0  0  0  0  0  0  0  0  0  0
  184.4670  178.9080  145.3140 N   0  0  0  0  0  2  0  0  0  0  0  0
  185.1700  176.7930  146.3340 O   0  0  0  0  0  0  0  0  0  0  0  0
  184.8330  178.6780  147.5960 O   0  0  0  0  0  1  0  0  0  0  0  0
  191.4670  172.5940  144.2470 C   0  0  0  0  0  2  0  0  0  0  0  0
  193.5680  170.6840  141.9200 C   0  0  0  0  0  2  0  0  0  0  0  0
  191.7010  171.3350  143.4300 C   0  0  2  0  0  3  0  0  0  0  0  0
  194.9530  169.7020  140.2230 O   0  0  0  0  0  1  0  0  0  0  0  0
  192.1240  170.4330  139.1080 C   0  0  2  0  0  0  0  0  0  0  0  0
  192.4380  171.6930  142.1500 C   0  0  2  0  0  3  0  0  0  0  0  0
  190.4530  170.9960  142.6240 C   0  0  0  0  0  2  0  0  0  0  0  0
  190.5560  172.6180  140.7210 C   0  0  0  0  0  1  0  0  0  0  0  0
  191.1720  171.3750  141.3440 C   0  0  1  0  0  0  0  0  0  0  0  0
  194.2670  170.8670  140.5680 C   0  0  1  0  0  3  0  0  0  0  0  0
  191.2770  170.1800  140.3770 C   0  0  0  0  0  2  0  0  0  0  0  0
  192.5700  169.1970  138.6250 O   0  0  0  0  0  1  0  0  0  0  0  0
  193.3550  171.3220  139.4170 C   0  0  0  0  0  2  0  0  0  0  0  0
  191.2390  172.7850  136.3150 C   0  0  2  0  0  0  0  0  0  0  0  0
  189.5190  174.1700  137.2790 C   0  0  0  0  0  2  0  0  0  0  0  0
  191.9160  173.1450  135.0080 C   0  0  0  0  0  1  0  0  0  0  0  0
  191.0210  174.0320  137.1390 C   0  0  0  0  0  2  0  0  0  0  0  0
  192.1090  171.7990  137.0950 C   0  0  0  0  0  2  0  0  0  0  0  0
  191.2850  171.1010  138.0880 N   0  0  1  0  0  0  0  0  0  0  0  0
  190.4410  170.1240  137.3790 C   0  0  0  0  0  2  0  0  0  0  0  0
  188.9250  172.8720  136.9980 N   0  0  0  0  0  2  0  0  0  0  0  0
  189.8320  172.2420  136.0500 C   0  0  2  0  0  3  0  0  0  0  0  0
  189.7360  170.7150  136.1450 C   0  0  0  0  0  2  0  0  0  0  0  0
  4  3  1  0  0  0  0
  4  9  1  1  0  0  0
  5  6  1  1  0  0  0
  5  4  1  0  0  0  0
  7  1  1  6  0  0  0
  7  3  1  0  0  0  0
  8  2  1  6  0  0  0
  8  5  1  0  0  0  0
  8  7  1  0  0  0  0
  9 14  1  6  0  0  0
  9 13  1  0  0  0  0
 12 13  2  0  0  0  0
 13 11  2  0  0  0  0
 13 10  1  0  0  0  0
 15 16  2  0  0  0  0
 16 14  1  0  0  0  0
 17 18  1  0  0  0  0
 18 19  1  0  0  0  0
 18 15  1  0  0  0  0
 19 20  1  0  0  0  0
 20 22  1  0  0  0  0
 21 24  1  0  0  0  0
 22 21  1  0  0  0  0
 23 21  2  0  0  0  0
 25  1  1  0  0  0  0
 27 25  1  1  0  0  0
 29 36  1  6  0  0  0
 29 37  1  0  0  0  0
 29 35  1  0  0  0  0
 30 26  1  6  0  0  0
 30 27  1  0  0  0  0
 31 27  1  0  0  0  0
 33 32  1  6  0  0  0
 33 30  1  0  0  0  0
 33 31  1  0  0  0  0
 34 28  1  6  0  0  0
 34 26  1  0  0  0  0
 35 33  1  0  0  0  0
 37 34  1  0  0  0  0
 38 40  1  6  0  0  0
 38 42  1  0  0  0  0
 38 41  1  0  0  0  0
 41 39  1  0  0  0  0
 43 42  1  6  0  0  0
 43 29  1  0  0  0  0
 44 43  1  0  0  0  0
 45 39  1  0  0  0  0
 46 47  1  1  0  0  0
 46 38  1  0  0  0  0
 46 45  1  0  0  0  0
 47 44  1  0  0  0  0
M  END
>  <MODEL>
6

>  <REMARK>
 VINA RESULT:      -6.5      2.889      5.671
  Name = 
  12 active torsions:
  status: ('A' for Active; 'I' for Inactive)
    1  A    between atoms: C_3  and  C_13
    2  A    between atoms: C_3  and  C_34
    3  A    between atoms: C_5  and  C_38
    4  A    between atoms: C_11  and  N_28
    5  A    between atoms: C_13  and  C_15
    6  A    between atoms: C_13  and  S_32
    7  A    between atoms: C_14  and  N_17
    8  A    between atoms: N_17  and  C_45
    9  A    between atoms: N_18  and  C_29
   10  A    between atoms: C_29  and  C_45
   11  A    between atoms: C_36  and  C_38
   12  A    between atoms: C_36  and  C_40
                            x       y       z     vdW  Elec       q    Type
                         _______ _______ _______ _____ _____    ______ ____

>  <TORSDO>
F 12

$$$$
=
 OpenBabel11072409063D

 47 51  0  0  1  0  0  0  0  0999 V2000
  188.2100  172.6790  139.1470 C   0  0  0  0  0  2  0  0  0  0  0  0
  190.1810  172.7060  136.5340 O   0  0  0  0  0  1  0  0  0  0  0  0
  190.1280  171.3280  139.7630 O   0  0  0  0  0  0  0  0  0  0  0  0
  191.4610  171.7910  139.7180 C   0  0  2  0  0  3  0  0  0  0  0  0
  191.7570  172.2940  138.3090 C   0  0  1  0  0  3  0  0  0  0  0  0
  192.1650  171.1940  137.4400 N   0  0  0  0  0  1  0  0  0  0  0  0
  189.4520  171.9240  138.6780 C   0  0  2  0  0  3  0  0  0  0  0  0
  190.4050  172.8130  137.9090 C   0  0  2  0  0  3  0  0  0  0  0  0
  192.4420  170.7300  140.2410 C   0  0  2  0  0  3  0  0  0  0  0  0
  193.1680  169.3180  142.7000 C   0  0  0  0  0  1  0  0  0  0  0  0
  191.0460  170.9470  142.5520 O   0  0  0  0  0  0  0  0  0  0  0  0
  190.9060  168.8140  141.3650 O   0  0  0  0  0  0  0  0  0  0  0  0
  191.8190  169.9520  141.7320 S   0  0  0  0  0  0  0  0  0  0  0  0
  193.8010  171.3570  140.5200 C   0  0  0  0  0  2  0  0  0  0  0  0
  194.3500  173.7940  140.7700 C   0  0  0  0  0  3  0  0  0  0  0  0
  193.6400  172.7140  141.1160 C   0  0  0  0  0  3  0  0  0  0  0  0
  194.9730  173.9230  138.4720 O   0  0  0  0  0  1  0  0  0  0  0  0
  195.3760  173.8500  139.7630 N   0  0  0  0  0  0  0  0  0  0  0  0
  196.8010  173.7400  140.0820 C   0  0  0  0  0  2  0  0  0  0  0  0
  197.2950  174.8750  140.9730 C   0  0  0  0  0  2  0  0  0  0  0  0
  197.1340  175.3430  143.4560 C   0  0  0  0  0  0  0  0  0  0  0  0
  197.3630  174.4470  142.3670 N   0  0  0  0  0  2  0  0  0  0  0  0
  196.8310  176.6820  143.2230 O   0  0  0  0  0  0  0  0  0  0  0  0
  197.2090  174.9160  144.6370 O   0  0  0  0  0  1  0  0  0  0  0  0
  188.5150  174.1260  139.5120 C   0  0  0  0  0  2  0  0  0  0  0  0
  187.6850  176.6490  142.0470 C   0  0  0  0  0  2  0  0  0  0  0  0
  187.8870  174.4770  140.8490 C   0  0  2  0  0  3  0  0  0  0  0  0
  187.4470  178.3910  143.6810 O   0  0  0  0  0  1  0  0  0  0  0  0
  189.3840  176.1460  144.6760 C   0  0  2  0  0  0  0  0  0  0  0  0
  188.6680  175.6110  141.4920 C   0  0  2  0  0  3  0  0  0  0  0  0
  188.3830  173.5190  141.9260 C   0  0  0  0  0  2  0  0  0  0  0  0
  190.6770  174.3790  142.4310 C   0  0  0  0  0  1  0  0  0  0  0  0
  189.1840  174.6380  142.5600 C   0  0  1  0  0  0  0  0  0  0  0  0
  188.3740  177.7520  142.8570 C   0  0  1  0  0  3  0  0  0  0  0  0
  188.7220  174.9210  144.0020 C   0  0  0  0  0  2  0  0  0  0  0  0
  188.5370  176.5940  145.6980 O   0  0  0  0  0  1  0  0  0  0  0  0
  189.6010  177.3000  143.6670 C   0  0  0  0  0  2  0  0  0  0  0  0
  193.0920  176.2030  145.2780 C   0  0  2  0  0  0  0  0  0  0  0  0
  193.8120  174.0330  144.5180 C   0  0  0  0  0  2  0  0  0  0  0  0
  194.0790  177.3150  145.5700 C   0  0  0  0  0  1  0  0  0  0  0  0
  193.5260  175.4440  144.0460 C   0  0  0  0  0  2  0  0  0  0  0  0
  191.6990  176.7910  145.0550 C   0  0  0  0  0  2  0  0  0  0  0  0
  190.6910  175.7420  145.2430 N   0  0  1  0  0  0  0  0  0  0  0  0
  190.5760  175.4680  146.6860 C   0  0  0  0  0  2  0  0  0  0  0  0
  193.1380  173.8450  145.7930 N   0  0  0  0  0  2  0  0  0  0  0  0
  193.1170  175.1660  146.4040 C   0  0  2  0  0  3  0  0  0  0  0  0
  191.9390  175.2900  147.3780 C   0  0  0  0  0  2  0  0  0  0  0  0
  1 25  1  0  0  0  0
  4  3  1  0  0  0  0
  4  9  1  6  0  0  0
  5  6  1  6  0  0  0
  5  4  1  0  0  0  0
  7  1  1  1  0  0  0
  7  3  1  0  0  0  0
  8  2  1  6  0  0  0
  8  5  1  0  0  0  0
  8  7  1  0  0  0  0
  9 14  1  1  0  0  0
  9 13  1  0  0  0  0
 12 13  2  0  0  0  0
 13 11  2  0  0  0  0
 13 10  1  0  0  0  0
 14 16  1  0  0  0  0
 15 16  2  0  0  0  0
 17 18  1  0  0  0  0
 18 19  1  0  0  0  0
 18 15  1  0  0  0  0
 19 20  1  0  0  0  0
 20 22  1  0  0  0  0
 21 24  1  0  0  0  0
 22 21  1  0  0  0  0
 23 21  2  0  0  0  0
 26 34  1  0  0  0  0
 27 25  1  6  0  0  0
 27 30  1  0  0  0  0
 27 31  1  0  0  0  0
 29 43  1  0  0  0  0
 29 36  1  1  0  0  0
 30 26  1  1  0  0  0
 30 33  1  0  0  0  0
 31 33  1  0  0  0  0
 33 32  1  6  0  0  0
 33 35  1  0  0  0  0
 34 37  1  0  0  0  0
 34 28  1  1  0  0  0
 35 29  1  0  0  0  0
 37 29  1  0  0  0  0
 38 40  1  1  0  0  0
 38 46  1  0  0  0  0
 39 45  1  0  0  0  0
 41 39  1  0  0  0  0
 41 38  1  0  0  0  0
 42 38  1  0  0  0  0
 43 42  1  1  0  0  0
 43 44  1  0  0  0  0
 44 47  1  0  0  0  0
 45 46  1  0  0  0  0
 46 47  1  1  0  0  0
M  END
>  <MODEL>
7

>  <REMARK>
 VINA RESULT:      -6.5      3.258      8.369
  Name = 
  12 active torsions:
  status: ('A' for Active; 'I' for Inactive)
    1  A    between atoms: C_3  and  C_13
    2  A    between atoms: C_3  and  C_34
    3  A    between atoms: C_5  and  C_38
    4  A    between atoms: C_11  and  N_28
    5  A    between atoms: C_13  and  C_15
    6  A    between atoms: C_13  and  S_32
    7  A    between atoms: C_14  and  N_17
    8  A    between atoms: N_17  and  C_45
    9  A    between atoms: N_18  and  C_29
   10  A    between atoms: C_29  and  C_45
   11  A    between atoms: C_36  and  C_38
   12  A    between atoms: C_36  and  C_40
                            x       y       z     vdW  Elec       q    Type
                         _______ _______ _______ _____ _____    ______ ____

>  <TORSDO>
F 12

$$$$
=
 OpenBabel11072409063D

 47 51  0  0  1  0  0  0  0  0999 V2000
  189.3080  171.9030  141.8440 C   0  0  0  0  0  2  0  0  0  0  0  0
  190.4090  170.2170  139.2630 O   0  0  0  0  0  1  0  0  0  0  0  0
  191.7110  171.7480  142.1420 O   0  0  0  0  0  0  0  0  0  0  0  0
  192.6500  172.1900  141.1860 C   0  0  2  0  0  3  0  0  0  0  0  0
  192.3620  171.4960  139.8580 C   0  0  1  0  0  3  0  0  0  0  0  0
  193.0060  170.1860  139.8090 N   0  0  0  0  0  1  0  0  0  0  0  0
  190.6130  171.2280  141.4260 C   0  0  2  0  0  3  0  0  0  0  0  0
  190.8690  171.3500  139.9390 C   0  0  2  0  0  3  0  0  0  0  0  0
  194.0900  172.0280  141.6960 C   0  0  2  0  0  3  0  0  0  0  0  0
  195.8150  171.8560  144.0560 C   0  0  0  0  0  1  0  0  0  0  0  0
  193.4430  173.1000  144.0990 O   0  0  0  0  0  0  0  0  0  0  0  0
  193.4260  170.6620  143.9280 O   0  0  0  0  0  0  0  0  0  0  0  0
  194.1320  171.9130  143.4860 S   0  0  0  0  0  0  0  0  0  0  0  0
  194.9500  173.1990  141.2390 C   0  0  0  0  0  2  0  0  0  0  0  0
  194.5680  175.6660  140.9660 C   0  0  0  0  0  3  0  0  0  0  0  0
  194.1100  174.4110  141.0140 C   0  0  0  0  0  3  0  0  0  0  0  0
  196.7950  175.7250  140.1140 O   0  0  0  0  0  1  0  0  0  0  0  0
  195.9400  176.0750  141.1050 N   0  0  0  0  0  0  0  0  0  0  0  0
  196.4420  176.7600  142.2990 C   0  0  0  0  0  2  0  0  0  0  0  0
  196.4620  175.8610  143.5300 C   0  0  0  0  0  2  0  0  0  0  0  0
  195.2480  175.6050  145.7360 C   0  0  0  0  0  0  0  0  0  0  0  0
  195.4300  176.2600  144.4800 N   0  0  0  0  0  2  0  0  0  0  0  0
  196.0650  174.5400  146.1060 O   0  0  0  0  0  0  0  0  0  0  0  0
  194.3390  175.9930  146.5140 O   0  0  0  0  0  1  0  0  0  0  0  0
  188.7730  172.8420  140.7710 C   0  0  0  0  0  2  0  0  0  0  0  0
  190.8560  175.1740  142.6960 C   0  0  0  0  0  2  0  0  0  0  0  0
  189.3720  174.2280  140.9370 C   0  0  2  0  0  3  0  0  0  0  0  0
  192.0520  176.6020  144.2100 O   0  0  0  0  0  1  0  0  0  0  0  0
  189.0490  177.4420  143.9760 C   0  0  2  0  0  0  0  0  0  0  0  0
  189.4800  174.5580  142.4170 C   0  0  2  0  0  3  0  0  0  0  0  0
  188.2890  175.2880  140.7750 C   0  0  0  0  0  2  0  0  0  0  0  0
  187.0920  175.2080  142.9700 C   0  0  0  0  0  1  0  0  0  0  0  0
  188.3730  175.6070  142.2540 C   0  0  1  0  0  0  0  0  0  0  0  0
  191.0000  175.6880  144.1320 C   0  0  1  0  0  3  0  0  0  0  0  0
  188.7940  177.0690  142.4970 C   0  0  0  0  0  2  0  0  0  0  0  0
  189.9000  178.5540  144.0060 O   0  0  0  0  0  1  0  0  0  0  0  0
  189.7210  176.2790  144.7470 C   0  0  0  0  0  2  0  0  0  0  0  0
  186.6260  178.1740  146.7530 C   0  0  2  0  0  0  0  0  0  0  0  0
  184.9920  176.4150  146.5410 C   0  0  0  0  0  2  0  0  0  0  0  0
  186.6900  179.0620  147.9790 C   0  0  0  0  0  1  0  0  0  0  0  0
  186.3310  176.7510  147.1660 C   0  0  0  0  0  2  0  0  0  0  0  0
  187.9580  178.2250  146.0050 C   0  0  0  0  0  2  0  0  0  0  0  0
  187.7600  177.7750  144.6230 N   0  0  1  0  0  0  0  0  0  0  0  0
  187.0620  178.8440  143.8880 C   0  0  0  0  0  2  0  0  0  0  0  0
  184.7570  177.3600  145.4600 N   0  0  0  0  0  2  0  0  0  0  0  0
  185.4420  178.5770  145.8700 C   0  0  2  0  0  3  0  0  0  0  0  0
  185.8450  179.4050  144.6450 C   0  0  0  0  0  2  0  0  0  0  0  0
  4  9  1  1  0  0  0
  4  3  1  0  0  0  0
  5  6  1  1  0  0  0
  5  8  1  0  0  0  0
  5  4  1  0  0  0  0
  7  1  1  1  0  0  0
  7  3  1  0  0  0  0
  8  2  1  6  0  0  0
  8  7  1  0  0  0  0
  9 14  1  1  0  0  0
  9 13  1  0  0  0  0
 13 12  2  0  0  0  0
 13 10  1  0  0  0  0
 13 11  2  0  0  0  0
 15 16  2  0  0  0  0
 15 18  1  0  0  0  0
 16 14  1  0  0  0  0
 17 18  1  0  0  0  0
 18 19  1  0  0  0  0
 19 20  1  0  0  0  0
 20 22  1  0  0  0  0
 21 23  2  0  0  0  0
 21 24  1  0  0  0  0
 22 21  1  0  0  0  0
 25  1  1  0  0  0  0
 26 34  1  0  0  0  0
 27 25  1  1  0  0  0
 27 30  1  0  0  0  0
 29 36  1  1  0  0  0
 29 43  1  0  0  0  0
 29 37  1  0  0  0  0
 30 26  1  6  0  0  0
 31 27  1  0  0  0  0
 31 33  1  0  0  0  0
 33 30  1  0  0  0  0
 33 35  1  0  0  0  0
 33 32  1  1  0  0  0
 34 28  1  6  0  0  0
 34 37  1  0  0  0  0
 35 29  1  0  0  0  0
 38 41  1  0  0  0  0
 38 40  1  1  0  0  0
 39 41  1  0  0  0  0
 42 38  1  0  0  0  0
 43 44  1  6  0  0  0
 43 42  1  0  0  0  0
 44 47  1  0  0  0  0
 45 46  1  0  0  0  0
 45 39  1  0  0  0  0
 46 47  1  6  0  0  0
 46 38  1  0  0  0  0
M  END
>  <MODEL>
8

>  <REMARK>
 VINA RESULT:      -6.4      2.687      8.941
  Name = 
  12 active torsions:
  status: ('A' for Active; 'I' for Inactive)
    1  A    between atoms: C_3  and  C_13
    2  A    between atoms: C_3  and  C_34
    3  A    between atoms: C_5  and  C_38
    4  A    between atoms: C_11  and  N_28
    5  A    between atoms: C_13  and  C_15
    6  A    between atoms: C_13  and  S_32
    7  A    between atoms: C_14  and  N_17
    8  A    between atoms: N_17  and  C_45
    9  A    between atoms: N_18  and  C_29
   10  A    between atoms: C_29  and  C_45
   11  A    between atoms: C_36  and  C_38
   12  A    between atoms: C_36  and  C_40
                            x       y       z     vdW  Elec       q    Type
                         _______ _______ _______ _____ _____    ______ ____

>  <TORSDO>
F 12

$$$$
=
 OpenBabel11072409063D

 47 51  0  0  1  0  0  0  0  0999 V2000
  194.9070  176.0890  143.2700 C   0  0  0  0  0  2  0  0  0  0  0  0
  194.8710  175.6760  146.5170 O   0  0  0  0  0  1  0  0  0  0  0  0
  192.5960  175.6250  143.8440 O   0  0  0  0  0  0  0  0  0  0  0  0
  191.8540  176.3760  144.7800 C   0  0  2  0  0  3  0  0  0  0  0  0
  192.6050  176.3850  146.1080 C   0  0  1  0  0  3  0  0  0  0  0  0
  192.2880  175.1940  146.8900 N   0  0  0  0  0  1  0  0  0  0  0  0
  193.9230  175.5760  144.3190 C   0  0  2  0  0  3  0  0  0  0  0  0
  194.0270  176.3380  145.6230 C   0  0  2  0  0  3  0  0  0  0  0  0
  190.4000  175.8860  144.8680 C   0  0  2  0  0  3  0  0  0  0  0  0
  189.7160  177.6530  142.6360 C   0  0  0  0  0  1  0  0  0  0  0  0
  190.2060  175.0400  142.3010 O   0  0  0  0  0  0  0  0  0  0  0  0
  188.1270  175.6540  143.4310 O   0  0  0  0  0  0  0  0  0  0  0  0
  189.5820  176.0000  143.2760 S   0  0  0  0  0  0  0  0  0  0  0  0
  189.6290  176.6990  145.8990 C   0  0  0  0  0  2  0  0  0  0  0  0
  187.6200  176.0410  147.2550 C   0  0  0  0  0  3  0  0  0  0  0  0
  188.8560  175.8000  146.8040 C   0  0  0  0  0  3  0  0  0  0  0  0
  187.0130  178.3080  147.6750 O   0  0  0  0  0  1  0  0  0  0  0  0
  186.8100  177.1880  146.9420 N   0  0  0  0  0  0  0  0  0  0  0  0
  185.7410  177.1500  145.9410 C   0  0  0  0  0  2  0  0  0  0  0  0
  186.0140  178.0640  144.7510 C   0  0  0  0  0  2  0  0  0  0  0  0
  185.0400  178.2720  142.4240 C   0  0  0  0  0  0  0  0  0  0  0  0
  184.8830  178.0660  143.8290 N   0  0  0  0  0  2  0  0  0  0  0  0
  186.3010  178.4810  141.8730 O   0  0  0  0  0  1  0  0  0  0  0  0
  184.0260  178.2650  141.6790 O   0  0  0  0  0  0  0  0  0  0  0  0
  196.2190  175.3150  143.2800 C   0  0  0  0  0  2  0  0  0  0  0  0
  195.5800  175.2970  139.6650 C   0  0  0  0  0  2  0  0  0  0  0  0
  196.4960  174.7280  141.9070 C   0  0  2  0  0  3  0  0  0  0  0  0
  194.8520  175.2840  137.3770 O   0  0  0  0  0  1  0  0  0  0  0  0
  194.0690  172.6340  138.8420 C   0  0  2  0  0  0  0  0  0  0  0  0
  195.2310  174.7870  141.0680 C   0  0  2  0  0  3  0  0  0  0  0  0
  196.3980  173.2080  141.9590 C   0  0  0  0  0  2  0  0  0  0  0  0
  193.9280  172.8060  141.9700 C   0  0  0  0  0  1  0  0  0  0  0  0
  195.1220  173.2580  141.1430 C   0  0  1  0  0  0  0  0  0  0  0  0
  194.3950  175.2380  138.6950 C   0  0  1  0  0  3  0  0  0  0  0  0
  195.2730  172.5100  139.8050 C   0  0  0  0  0  2  0  0  0  0  0  0
  194.5240  172.3940  137.5390 O   0  0  0  0  0  1  0  0  0  0  0  0
  193.4420  174.0490  138.8980 C   0  0  0  0  0  2  0  0  0  0  0  0
  190.6540  171.1180  139.2320 C   0  0  2  0  0  0  0  0  0  0  0  0
  190.4420  170.8320  141.6160 C   0  0  0  0  0  2  0  0  0  0  0  0
  189.4640  170.9880  138.3030 C   0  0  0  0  0  1  0  0  0  0  0  0
  190.2400  171.8340  140.4970 C   0  0  0  0  0  2  0  0  0  0  0  0
  191.7690  171.9020  138.5400 C   0  0  0  0  0  2  0  0  0  0  0  0
  193.0450  171.6310  139.2120 N   0  0  1  0  0  0  0  0  0  0  0  0
  193.4790  170.2730  138.8420 C   0  0  0  0  0  2  0  0  0  0  0  0
  191.3530  169.8050  141.1340 N   0  0  0  0  0  2  0  0  0  0  0  0
  191.1140  169.7350  139.7000 C   0  0  2  0  0  3  0  0  0  0  0  0
  192.3610  169.2240  138.9700 C   0  0  0  0  0  2  0  0  0  0  0  0
  1 25  1  0  0  0  0
  3  7  1  0  0  0  0
  3  4  1  0  0  0  0
  4  9  1  1  0  0  0
  4  5  1  0  0  0  0
  5  6  1  1  0  0  0
  7  1  1  6  0  0  0
  7  8  1  0  0  0  0
  8  5  1  0  0  0  0
  8  2  1  1  0  0  0
  9 14  1  1  0  0  0
 10 13  1  0  0  0  0
 11 13  2  0  0  0  0
 13 12  2  0  0  0  0
 13  9  1  0  0  0  0
 14 16  1  0  0  0  0
 16 15  2  0  0  0  0
 18 15  1  0  0  0  0
 18 17  1  0  0  0  0
 19 18  1  0  0  0  0
 20 19  1  0  0  0  0
 21 22  1  0  0  0  0
 22 20  1  0  0  0  0
 23 21  1  0  0  0  0
 24 21  2  0  0  0  0
 27 31  1  0  0  0  0
 27 25  1  1  0  0  0
 29 36  1  6  0  0  0
 29 37  1  0  0  0  0
 29 43  1  0  0  0  0
 29 35  1  0  0  0  0
 30 26  1  6  0  0  0
 30 33  1  0  0  0  0
 30 27  1  0  0  0  0
 33 31  1  0  0  0  0
 33 32  1  1  0  0  0
 34 28  1  6  0  0  0
 34 37  1  0  0  0  0
 34 26  1  0  0  0  0
 35 33  1  0  0  0  0
 38 40  1  6  0  0  0
 38 46  1  0  0  0  0
 38 41  1  0  0  0  0
 41 39  1  0  0  0  0
 42 38  1  0  0  0  0
 43 42  1  6  0  0  0
 44 47  1  0  0  0  0
 44 43  1  0  0  0  0
 45 39  1  0  0  0  0
 46 47  1  6  0  0  0
 46 45  1  0  0  0  0
M  END
>  <MODEL>
9

>  <REMARK>
 VINA RESULT:      -6.4      2.781      5.667
  Name = 
  12 active torsions:
  status: ('A' for Active; 'I' for Inactive)
    1  A    between atoms: C_3  and  C_13
    2  A    between atoms: C_3  and  C_34
    3  A    between atoms: C_5  and  C_38
    4  A    between atoms: C_11  and  N_28
    5  A    between atoms: C_13  and  C_15
    6  A    between atoms: C_13  and  S_32
    7  A    between atoms: C_14  and  N_17
    8  A    between atoms: N_17  and  C_45
    9  A    between atoms: N_18  and  C_29
   10  A    between atoms: C_29  and  C_45
   11  A    between atoms: C_36  and  C_38
   12  A    between atoms: C_36  and  C_40
                            x       y       z     vdW  Elec       q    Type
                         _______ _______ _______ _____ _____    ______ ____

>  <TORSDO>
F 12

$$$$
