=
 OpenBabel11072409033D

 47 50  0  0  1  0  0  0  0  0999 V2000
  192.9440  174.7560  145.0920 C   0  0  0  0  0  0  0  0  0  0  0  0
  192.1370  174.3860  142.9990 N   0  0  0  0  0  0  0  0  0  0  0  0
  189.4490  174.9820  144.1070 F   0  0  0  0  0  0  0  0  0  0  0  0
  191.8130  174.7270  144.3370 C   0  0  0  0  0  0  0  0  0  0  0  0
  190.4860  175.2980  146.2730 C   0  0  0  0  0  0  0  0  0  0  0  0
  192.9210  175.0620  146.4470 C   0  0  0  0  0  3  0  0  0  0  0  0
  194.0860  174.4660  144.3080 N   0  0  0  0  0  0  0  0  0  0  0  0
  191.6780  175.3310  147.0350 C   0  0  0  0  0  3  0  0  0  0  0  0
  190.5570  175.0030  144.8880 C   0  0  0  0  0  0  0  0  0  0  0  0
  193.5990  174.2470  142.9420 C   0  0  0  0  0  3  0  0  0  0  0  0
  188.5080  176.7850  146.8030 N   0  0  0  0  0  2  0  0  0  0  0  0
  188.6890  174.6320  147.6680 O   0  0  0  0  0  0  0  0  0  0  0  0
  189.2000  175.5420  146.9600 C   0  0  0  0  0  0  0  0  0  0  0  0
  187.1630  177.0030  147.3180 C   0  0  0  0  0  2  0  0  0  0  0  0
  186.3870  177.9380  146.3920 C   0  0  2  0  0  3  0  0  0  0  0  0
  185.8200  179.1250  147.1500 C   0  0  0  0  0  1  0  0  0  0  0  0
  184.1120  177.8880  145.7140 F   0  0  0  0  0  0  0  0  0  0  0  0
  185.3120  177.2140  145.5750 C   0  0  1  0  0  3  0  0  0  0  0  0
  185.6570  177.0400  144.0900 C   0  0  2  0  0  3  0  0  0  0  0  0
  187.5540  177.7690  142.6670 C   0  0  0  0  0  0  0  0  0  0  0  0
  184.0260  178.4990  140.8010 Cl  0  0  0  0  0  0  0  0  0  0  0  0
  189.2560  178.1140  142.4560 Cl  0  0  0  0  0  0  0  0  0  0  0  0
  187.1190  177.3320  143.8580 C   0  0  0  0  0  3  0  0  0  0  0  0
  185.1720  177.6490  141.8620 C   0  0  2  0  0  3  0  0  0  0  0  0
  184.8330  177.9120  143.2580 N   0  0  0  0  0  2  0  0  0  0  0  0
  186.5940  178.1280  141.5640 C   0  0  0  0  0  2  0  0  0  0  0  0
  191.3240  174.7380  141.8390 C   0  0  0  0  0  2  0  0  0  0  0  0
  190.9630  172.3660  141.9340 O   0  0  0  0  0  1  0  0  0  0  0  0
  189.1550  173.0360  138.7080 C   0  0  1  0  0  3  0  0  0  0  0  0
  190.6610  173.5070  141.1860 C   0  0  1  0  0  0  0  0  0  0  0  0
  189.1210  173.6640  141.1630 C   0  0  1  0  0  3  0  0  0  0  0  0
  188.7400  174.9890  140.9320 O   0  0  0  0  0  1  0  0  0  0  0  0
  189.3980  171.8300  138.0450 O   0  0  0  0  0  1  0  0  0  0  0  0
  188.5050  172.7770  140.0800 C   0  0  0  0  0  2  0  0  0  0  0  0
  190.3340  173.8210  138.7680 O   0  0  0  0  0  0  0  0  0  0  0  0
  191.1850  173.2640  139.7410 C   0  0  1  0  0  3  0  0  0  0  0  0
  193.4790  172.5000  139.7910 O   0  0  0  0  0  1  0  0  0  0  0  0
  192.6600  173.5730  139.4370 C   0  0  1  0  0  3  0  0  0  0  0  0
  192.9010  173.9550  137.9830 C   0  0  0  0  0  2  0  0  0  0  0  0
  193.8680  175.1270  137.8650 C   0  0  1  0  0  3  0  0  0  0  0  0
  195.1760  174.6540  137.9640 O   0  0  0  0  0  1  0  0  0  0  0  0
  193.6770  175.8700  136.5440 C   0  0  1  0  0  3  0  0  0  0  0  0
  194.8870  175.7900  135.7430 N   0  0  0  0  0  1  0  0  0  0  0  0
  192.5260  175.2690  135.7490 C   0  0  0  0  0  2  0  0  0  0  0  0
  192.0690  177.4850  135.0020 O   0  0  0  0  0  0  0  0  0  0  0  0
  191.6180  176.3370  135.2450 C   0  0  0  0  0  0  0  0  0  0  0  0
  190.2740  176.0650  135.0360 O   0  0  0  0  0  1  0  0  0  0  0  0
  1  6  1  0  0  0  0
  2  4  1  0  0  0  0
  3  9  1  0  0  0  0
  4  9  1  0  0  0  0
  4  1  2  0  0  0  0
  5 13  1  0  0  0  0
  5  8  1  0  0  0  0
  6  8  2  0  0  0  0
  7  1  1  0  0  0  0
  9  5  2  0  0  0  0
 10  2  1  0  0  0  0
 10  7  2  0  0  0  0
 11 13  1  0  0  0  0
 11 14  1  0  0  0  0
 13 12  2  0  0  0  0
 15 16  1  1  0  0  0
 15 14  1  0  0  0  0
 18 17  1  6  0  0  0
 18 15  1  0  0  0  0
 19 18  1  1  0  0  0
 20 23  2  0  0  0  0
 22 20  1  0  0  0  0
 23 19  1  0  0  0  0
 24 21  1  6  0  0  0
 24 25  1  0  0  0  0
 25 19  1  0  0  0  0
 26 24  1  0  0  0  0
 26 20  1  0  0  0  0
 27  2  1  0  0  0  0
 29 33  1  1  0  0  0
 29 35  1  0  0  0  0
 29 34  1  0  0  0  0
 30 27  1  0  0  0  0
 30 28  1  1  0  0  0
 31 32  1  6  0  0  0
 31 30  1  0  0  0  0
 34 31  1  0  0  0  0
 35 36  1  0  0  0  0
 36 38  1  1  0  0  0
 36 30  1  0  0  0  0
 38 37  1  6  0  0  0
 39 38  1  0  0  0  0
 40 41  1  6  0  0  0
 40 39  1  0  0  0  0
 42 43  1  6  0  0  0
 42 40  1  0  0  0  0
 44 42  1  0  0  0  0
 45 46  2  0  0  0  0
 46 44  1  0  0  0  0
 47 46  1  0  0  0  0
M  END
>  <MODEL>
1

>  <REMARK>
 VINA RESULT:      -7.3      0.000      0.000
  Name = 
  13 active torsions:
  status: ('A' for Active; 'I' for Inactive)
    1  A    between atoms: C_5  and  C_18
    2  A    between atoms: N_7  and  C_18
    3  A    between atoms: C_8  and  C_12
    4  A    between atoms: C_10  and  C_14
    5  A    between atoms: C_10  and  C_29
    6  A    between atoms: C_12  and  C_36
    7  A    between atoms: C_14  and  C_23
    8  A    between atoms: N_19  and  C_33
    9  A    between atoms: C_20  and  C_23
   10  A    between atoms: C_28  and  C_31
   11  A    between atoms: C_29  and  C_41
   12  A    between atoms: C_33  and  C_36
   13  A    between atoms: C_38  and  C_41
                            x       y       z     vdW  Elec       q    Type
                         _______ _______ _______ _____ _____    ______ ____

>  <TORSDO>
F 13

$$$$
=
 OpenBabel11072409033D

 47 50  0  0  1  0  0  0  0  0999 V2000
  192.5650  174.5130  145.6190 C   0  0  0  0  0  0  0  0  0  0  0  0
  191.8630  173.9650  143.5270 N   0  0  0  0  0  0  0  0  0  0  0  0
  189.4300  175.5650  144.1010 F   0  0  0  0  0  0  0  0  0  0  0  0
  191.5540  174.6660  144.7210 C   0  0  0  0  0  0  0  0  0  0  0  0
  190.3250  176.0100  146.3080 C   0  0  0  0  0  0  0  0  0  0  0  0
  192.5270  175.0950  146.8800 C   0  0  0  0  0  3  0  0  0  0  0  0
  193.6130  173.7330  145.0770 N   0  0  0  0  0  0  0  0  0  0  0  0
  191.3930  175.8440  147.2210 C   0  0  0  0  0  3  0  0  0  0  0  0
  190.4130  175.4180  145.0220 C   0  0  0  0  0  0  0  0  0  0  0  0
  193.1990  173.3840  143.7130 C   0  0  0  0  0  3  0  0  0  0  0  0
  187.8220  176.2090  146.6270 N   0  0  0  0  0  2  0  0  0  0  0  0
  189.2760  177.9150  147.2510 O   0  0  0  0  0  0  0  0  0  0  0  0
  189.1330  176.7710  146.7420 C   0  0  0  0  0  0  0  0  0  0  0  0
  186.6430  176.8480  147.1970 C   0  0  0  0  0  2  0  0  0  0  0  0
  186.1800  177.9960  146.3020 C   0  0  2  0  0  3  0  0  0  0  0  0
  185.9110  179.2540  147.1090 C   0  0  0  0  0  1  0  0  0  0  0  0
  184.0440  178.6280  145.4800 F   0  0  0  0  0  0  0  0  0  0  0  0
  184.9880  177.6200  145.4150 C   0  0  1  0  0  3  0  0  0  0  0  0
  185.3570  177.3280  143.9540 C   0  0  2  0  0  3  0  0  0  0  0  0
  187.2820  177.9300  142.5100 C   0  0  0  0  0  0  0  0  0  0  0  0
  183.7910  178.5380  140.5330 Cl  0  0  0  0  0  0  0  0  0  0  0  0
  188.9900  178.2460  142.3020 Cl  0  0  0  0  0  0  0  0  0  0  0  0
  186.8240  177.5910  143.7240 C   0  0  0  0  0  3  0  0  0  0  0  0
  184.9130  177.7650  141.6770 C   0  0  2  0  0  3  0  0  0  0  0  0
  184.5540  178.1390  143.0430 N   0  0  0  0  0  2  0  0  0  0  0  0
  186.3430  178.2100  141.3670 C   0  0  0  0  0  2  0  0  0  0  0  0
  191.3100  174.2890  142.2160 C   0  0  0  0  0  2  0  0  0  0  0  0
  190.3630  172.1120  142.5760 O   0  0  0  0  0  1  0  0  0  0  0  0
  189.0230  172.6930  139.1130 C   0  0  1  0  0  3  0  0  0  0  0  0
  190.4110  173.1650  141.6590 C   0  0  1  0  0  0  0  0  0  0  0  0
  188.9650  173.6760  141.4480 C   0  0  1  0  0  3  0  0  0  0  0  0
  188.9450  175.0030  141.0090 O   0  0  0  0  0  1  0  0  0  0  0  0
  189.0050  171.3780  138.6410 O   0  0  0  0  0  1  0  0  0  0  0  0
  188.2290  172.8070  140.4290 C   0  0  0  0  0  2  0  0  0  0  0  0
  190.3520  173.1780  139.1990 O   0  0  0  0  0  0  0  0  0  0  0  0
  190.9630  172.5890  140.3220 C   0  0  1  0  0  3  0  0  0  0  0  0
  192.9800  171.3060  140.6900 O   0  0  0  0  0  1  0  0  0  0  0  0
  192.4870  172.4910  140.1430 C   0  0  1  0  0  3  0  0  0  0  0  0
  192.9250  172.6170  138.6900 C   0  0  0  0  0  2  0  0  0  0  0  0
  193.9380  173.7410  138.5060 C   0  0  1  0  0  3  0  0  0  0  0  0
  193.2760  174.8900  138.0760 O   0  0  0  0  0  1  0  0  0  0  0  0
  194.6900  174.0230  139.8060 C   0  0  1  0  0  3  0  0  0  0  0  0
  196.0070  173.4110  139.7670 N   0  0  0  0  0  1  0  0  0  0  0  0
  194.8560  175.5210  140.0190 C   0  0  0  0  0  2  0  0  0  0  0  0
  193.8360  176.5190  141.9270 O   0  0  0  0  0  0  0  0  0  0  0  0
  194.8010  175.8570  141.4690 C   0  0  0  0  0  0  0  0  0  0  0  0
  195.8140  175.4350  142.3180 O   0  0  0  0  0  1  0  0  0  0  0  0
  1  6  1  0  0  0  0
  2 10  1  0  0  0  0
  2  4  1  0  0  0  0
  3  9  1  0  0  0  0
  4  9  1  0  0  0  0
  4  1  2  0  0  0  0
  5 13  1  0  0  0  0
  5  8  1  0  0  0  0
  6  8  2  0  0  0  0
  7  1  1  0  0  0  0
  9  5  2  0  0  0  0
 10  7  2  0  0  0  0
 11 13  1  0  0  0  0
 11 14  1  0  0  0  0
 13 12  2  0  0  0  0
 15 16  1  1  0  0  0
 15 14  1  0  0  0  0
 18 17  1  6  0  0  0
 18 15  1  0  0  0  0
 19 18  1  1  0  0  0
 20 23  2  0  0  0  0
 22 20  1  0  0  0  0
 23 19  1  0  0  0  0
 24 21  1  6  0  0  0
 24 25  1  0  0  0  0
 25 19  1  0  0  0  0
 26 24  1  0  0  0  0
 26 20  1  0  0  0  0
 27  2  1  0  0  0  0
 29 33  1  1  0  0  0
 29 35  1  0  0  0  0
 29 34  1  0  0  0  0
 30 27  1  0  0  0  0
 30 28  1  1  0  0  0
 31 32  1  6  0  0  0
 31 30  1  0  0  0  0
 34 31  1  0  0  0  0
 35 36  1  0  0  0  0
 36 38  1  6  0  0  0
 36 30  1  0  0  0  0
 38 37  1  6  0  0  0
 39 38  1  0  0  0  0
 40 41  1  1  0  0  0
 40 39  1  0  0  0  0
 40 42  1  0  0  0  0
 42 43  1  6  0  0  0
 42 44  1  0  0  0  0
 44 46  1  0  0  0  0
 46 45  2  0  0  0  0
 46 47  1  0  0  0  0
M  END
>  <MODEL>
2

>  <REMARK>
 VINA RESULT:      -7.3      1.734      2.467
  Name = 
  13 active torsions:
  status: ('A' for Active; 'I' for Inactive)
    1  A    between atoms: C_5  and  C_18
    2  A    between atoms: N_7  and  C_18
    3  A    between atoms: C_8  and  C_12
    4  A    between atoms: C_10  and  C_14
    5  A    between atoms: C_10  and  C_29
    6  A    between atoms: C_12  and  C_36
    7  A    between atoms: C_14  and  C_23
    8  A    between atoms: N_19  and  C_33
    9  A    between atoms: C_20  and  C_23
   10  A    between atoms: C_28  and  C_31
   11  A    between atoms: C_29  and  C_41
   12  A    between atoms: C_33  and  C_36
   13  A    between atoms: C_38  and  C_41
                            x       y       z     vdW  Elec       q    Type
                         _______ _______ _______ _____ _____    ______ ____

>  <TORSDO>
F 13

$$$$
=
 OpenBabel11072409033D

 47 50  0  0  1  0  0  0  0  0999 V2000
  193.3760  175.4900  145.8170 C   0  0  0  0  0  0  0  0  0  0  0  0
  193.1970  173.9890  144.1190 N   0  0  0  0  0  0  0  0  0  0  0  0
  190.2860  173.9330  144.6950 F   0  0  0  0  0  0  0  0  0  0  0  0
  192.5010  174.7170  145.1190 C   0  0  0  0  0  0  0  0  0  0  0  0
  190.6790  175.5080  146.4930 C   0  0  0  0  0  0  0  0  0  0  0  0
  192.9670  176.3100  146.8620 C   0  0  0  0  0  3  0  0  0  0  0  0
  194.6910  175.3510  145.3160 N   0  0  0  0  0  0  0  0  0  0  0  0
  191.6070  176.3100  147.1980 C   0  0  0  0  0  3  0  0  0  0  0  0
  191.1350  174.7010  145.4190 C   0  0  0  0  0  0  0  0  0  0  0  0
  194.6040  174.4050  144.1970 C   0  0  0  0  0  3  0  0  0  0  0  0
  188.3930  176.5910  146.5720 N   0  0  0  0  0  2  0  0  0  0  0  0
  188.8120  174.5400  147.5880 O   0  0  0  0  0  0  0  0  0  0  0  0
  189.2650  175.5130  146.9260 C   0  0  0  0  0  0  0  0  0  0  0  0
  186.9590  176.5550  146.8280 C   0  0  0  0  0  2  0  0  0  0  0  0
  186.3250  177.8970  146.4660 C   0  0  2  0  0  3  0  0  0  0  0  0
  185.9520  178.6870  147.7080 C   0  0  0  0  0  1  0  0  0  0  0  0
  184.0130  178.2880  146.0940 F   0  0  0  0  0  0  0  0  0  0  0  0
  185.1440  177.7590  145.5000 C   0  0  1  0  0  3  0  0  0  0  0  0
  185.3740  178.4020  144.1250 C   0  0  2  0  0  3  0  0  0  0  0  0
  184.2310  178.2290  141.9300 C   0  0  0  0  0  0  0  0  0  0  0  0
  188.2530  177.9810  141.4510 Cl  0  0  0  0  0  0  0  0  0  0  0  0
  182.7740  178.0340  140.9820 Cl  0  0  0  0  0  0  0  0  0  0  0  0
  184.1410  178.2550  143.2680 C   0  0  0  0  0  3  0  0  0  0  0  0
  186.7200  178.5010  142.1890 C   0  0  2  0  0  3  0  0  0  0  0  0
  186.5250  177.8020  143.4560 N   0  0  0  0  0  2  0  0  0  0  0  0
  185.5660  178.1950  141.2330 C   0  0  0  0  0  2  0  0  0  0  0  0
  192.5830  173.4770  142.8980 C   0  0  0  0  0  2  0  0  0  0  0  0
  194.4260  172.0090  142.4370 O   0  0  0  0  0  1  0  0  0  0  0  0
  191.6510  169.5190  141.9640 C   0  0  1  0  0  3  0  0  0  0  0  0
  193.0360  172.0390  142.5670 C   0  0  1  0  0  0  0  0  0  0  0  0
  192.6450  171.0680  143.7070 C   0  0  1  0  0  3  0  0  0  0  0  0
  191.4120  171.4040  144.2730 O   0  0  0  0  0  1  0  0  0  0  0  0
  192.2270  168.7040  140.9860 O   0  0  0  0  0  1  0  0  0  0  0  0
  192.5770  169.6300  143.1910 C   0  0  0  0  0  2  0  0  0  0  0  0
  191.2710  170.7690  141.4150 O   0  0  0  0  0  0  0  0  0  0  0  0
  192.4350  171.5370  141.2210 C   0  0  1  0  0  3  0  0  0  0  0  0
  193.3470  172.5280  139.2130 O   0  0  0  0  0  1  0  0  0  0  0  0
  192.2530  172.5500  140.0790 C   0  0  1  0  0  3  0  0  0  0  0  0
  190.9640  172.3410  139.2970 C   0  0  0  0  0  2  0  0  0  0  0  0
  190.3840  173.6630  138.8090 C   0  0  1  0  0  3  0  0  0  0  0  0
  190.3290  173.6530  137.4160 O   0  0  0  0  0  1  0  0  0  0  0  0
  188.9900  173.9020  139.3880 C   0  0  1  0  0  3  0  0  0  0  0  0
  188.0230  174.0660  138.3170 N   0  0  0  0  0  1  0  0  0  0  0  0
  188.5600  172.7300  140.2580 C   0  0  0  0  0  2  0  0  0  0  0  0
  188.1350  174.3550  141.9490 O   0  0  0  0  0  0  0  0  0  0  0  0
  188.4000  173.1570  141.6770 C   0  0  0  0  0  0  0  0  0  0  0  0
  188.5350  172.2310  142.7000 O   0  0  0  0  0  1  0  0  0  0  0  0
  1  6  1  0  0  0  0
  2 10  1  0  0  0  0
  2  4  1  0  0  0  0
  3  9  1  0  0  0  0
  4  9  1  0  0  0  0
  4  1  2  0  0  0  0
  5 13  1  0  0  0  0
  5  8  1  0  0  0  0
  6  8  2  0  0  0  0
  7  1  1  0  0  0  0
  9  5  2  0  0  0  0
 10  7  2  0  0  0  0
 11 14  1  0  0  0  0
 11 13  1  0  0  0  0
 13 12  2  0  0  0  0
 15 14  1  0  0  0  0
 15 16  1  1  0  0  0
 18 17  1  1  0  0  0
 18 15  1  0  0  0  0
 19 18  1  1  0  0  0
 20 23  2  0  0  0  0
 22 20  1  0  0  0  0
 23 19  1  0  0  0  0
 24 21  1  6  0  0  0
 24 25  1  0  0  0  0
 25 19  1  0  0  0  0
 26 20  1  0  0  0  0
 26 24  1  0  0  0  0
 27  2  1  0  0  0  0
 29 33  1  6  0  0  0
 29 34  1  0  0  0  0
 30 28  1  6  0  0  0
 30 27  1  0  0  0  0
 30 31  1  0  0  0  0
 31 32  1  6  0  0  0
 34 31  1  0  0  0  0
 35 29  1  0  0  0  0
 36 38  1  6  0  0  0
 36 35  1  0  0  0  0
 36 30  1  0  0  0  0
 38 37  1  6  0  0  0
 39 38  1  0  0  0  0
 40 41  1  6  0  0  0
 40 39  1  0  0  0  0
 40 42  1  0  0  0  0
 42 43  1  6  0  0  0
 42 44  1  0  0  0  0
 44 46  1  0  0  0  0
 46 45  2  0  0  0  0
 46 47  1  0  0  0  0
M  END
>  <MODEL>
3

>  <REMARK>
 VINA RESULT:      -7.2      2.237      3.873
  Name = 
  13 active torsions:
  status: ('A' for Active; 'I' for Inactive)
    1  A    between atoms: C_5  and  C_18
    2  A    between atoms: N_7  and  C_18
    3  A    between atoms: C_8  and  C_12
    4  A    between atoms: C_10  and  C_14
    5  A    between atoms: C_10  and  C_29
    6  A    between atoms: C_12  and  C_36
    7  A    between atoms: C_14  and  C_23
    8  A    between atoms: N_19  and  C_33
    9  A    between atoms: C_20  and  C_23
   10  A    between atoms: C_28  and  C_31
   11  A    between atoms: C_29  and  C_41
   12  A    between atoms: C_33  and  C_36
   13  A    between atoms: C_38  and  C_41
                            x       y       z     vdW  Elec       q    Type
                         _______ _______ _______ _____ _____    ______ ____

>  <TORSDO>
F 13

$$$$
=
 OpenBabel11072409033D

 47 50  0  0  1  0  0  0  0  0999 V2000
  193.1220  175.7250  145.5050 C   0  0  0  0  0  0  0  0  0  0  0  0
  192.6930  174.8100  143.4680 N   0  0  0  0  0  0  0  0  0  0  0  0
  189.8350  174.7700  144.2720 F   0  0  0  0  0  0  0  0  0  0  0  0
  192.1350  175.2510  144.6960 C   0  0  0  0  0  0  0  0  0  0  0  0
  190.4910  175.7120  146.4050 C   0  0  0  0  0  0  0  0  0  0  0  0
  192.8610  176.2230  146.7760 C   0  0  0  0  0  3  0  0  0  0  0  0
  194.3810  175.6580  144.8640 N   0  0  0  0  0  0  0  0  0  0  0  0
  191.5330  176.2090  147.2230 C   0  0  0  0  0  3  0  0  0  0  0  0
  190.7980  175.2340  145.1050 C   0  0  0  0  0  0  0  0  0  0  0  0
  194.1320  175.0940  143.5330 C   0  0  0  0  0  3  0  0  0  0  0  0
  188.2350  176.7940  146.7880 N   0  0  0  0  0  2  0  0  0  0  0  0
  188.7050  174.6410  147.5370 O   0  0  0  0  0  0  0  0  0  0  0  0
  189.1170  175.6780  146.9500 C   0  0  0  0  0  0  0  0  0  0  0  0
  186.8270  176.7390  147.1560 C   0  0  0  0  0  2  0  0  0  0  0  0
  186.0830  177.9410  146.5770 C   0  0  2  0  0  3  0  0  0  0  0  0
  185.1480  178.5610  147.6020 C   0  0  0  0  0  1  0  0  0  0  0  0
  184.0480  178.0480  145.3570 F   0  0  0  0  0  0  0  0  0  0  0  0
  185.3610  177.6220  145.2630 C   0  0  1  0  0  3  0  0  0  0  0  0
  186.0270  178.2190  144.0170 C   0  0  2  0  0  3  0  0  0  0  0  0
  185.5050  178.1630  141.5920 C   0  0  0  0  0  0  0  0  0  0  0  0
  189.4480  177.4260  142.2040 Cl  0  0  0  0  0  0  0  0  0  0  0  0
  184.3440  178.1370  140.2830 Cl  0  0  0  0  0  0  0  0  0  0  0  0
  185.0620  178.2130  142.8570 C   0  0  0  0  0  3  0  0  0  0  0  0
  187.8470  178.1350  142.5150 C   0  0  2  0  0  3  0  0  0  0  0  0
  187.2350  177.4770  143.6670 N   0  0  0  0  0  2  0  0  0  0  0  0
  186.9640  177.9610  141.2780 C   0  0  0  0  0  2  0  0  0  0  0  0
  191.9520  174.7230  142.2140 C   0  0  0  0  0  2  0  0  0  0  0  0
  191.9600  172.4150  142.8760 O   0  0  0  0  0  1  0  0  0  0  0  0
  190.6950  171.9430  139.3680 C   0  0  1  0  0  3  0  0  0  0  0  0
  191.6240  173.2670  141.8210 C   0  0  1  0  0  0  0  0  0  0  0  0
  190.1100  173.1040  141.5430 C   0  0  1  0  0  3  0  0  0  0  0  0
  189.5730  174.2370  140.9240 O   0  0  0  0  0  1  0  0  0  0  0  0
  191.2440  170.6900  139.0840 O   0  0  0  0  0  1  0  0  0  0  0  0
  189.8520  171.8860  140.6560 C   0  0  0  0  0  2  0  0  0  0  0  0
  191.7020  172.9400  139.3830 O   0  0  0  0  0  0  0  0  0  0  0  0
  192.4370  172.8050  140.5760 C   0  0  1  0  0  3  0  0  0  0  0  0
  194.7890  172.4690  141.0260 O   0  0  0  0  0  1  0  0  0  0  0  0
  193.8750  173.3230  140.4090 C   0  0  1  0  0  3  0  0  0  0  0  0
  194.2650  173.5410  138.9540 C   0  0  0  0  0  2  0  0  0  0  0  0
  194.6510  174.9910  138.6880 C   0  0  1  0  0  3  0  0  0  0  0  0
  194.5600  175.7140  139.8770 O   0  0  0  0  0  1  0  0  0  0  0  0
  196.0650  175.0910  138.1190 C   0  0  1  0  0  3  0  0  0  0  0  0
  196.9390  174.1310  138.7730 N   0  0  0  0  0  1  0  0  0  0  0  0
  196.0650  174.8090  136.6240 C   0  0  0  0  0  2  0  0  0  0  0  0
  197.0060  176.6810  135.4890 O   0  0  0  0  0  0  0  0  0  0  0  0
  195.9640  176.0770  135.8480 C   0  0  0  0  0  0  0  0  0  0  0  0
  194.7200  176.5900  135.5140 O   0  0  0  0  0  1  0  0  0  0  0  0
  1  6  1  0  0  0  0
  2 10  1  0  0  0  0
  2  4  1  0  0  0  0
  3  9  1  0  0  0  0
  4  9  1  0  0  0  0
  4  1  2  0  0  0  0
  5 13  1  0  0  0  0
  5  8  1  0  0  0  0
  6  8  2  0  0  0  0
  7  1  1  0  0  0  0
  9  5  2  0  0  0  0
 10  7  2  0  0  0  0
 11 13  1  0  0  0  0
 11 14  1  0  0  0  0
 13 12  2  0  0  0  0
 15 14  1  0  0  0  0
 15 16  1  1  0  0  0
 18 17  1  1  0  0  0
 18 15  1  0  0  0  0
 19 18  1  1  0  0  0
 20 23  2  0  0  0  0
 22 20  1  0  0  0  0
 23 19  1  0  0  0  0
 24 21  1  6  0  0  0
 24 25  1  0  0  0  0
 25 19  1  0  0  0  0
 26 20  1  0  0  0  0
 26 24  1  0  0  0  0
 27  2  1  0  0  0  0
 29 33  1  1  0  0  0
 29 35  1  0  0  0  0
 29 34  1  0  0  0  0
 30 27  1  0  0  0  0
 30 28  1  1  0  0  0
 31 32  1  6  0  0  0
 31 30  1  0  0  0  0
 34 31  1  0  0  0  0
 35 36  1  0  0  0  0
 36 38  1  6  0  0  0
 36 30  1  0  0  0  0
 38 37  1  6  0  0  0
 39 38  1  0  0  0  0
 40 39  1  0  0  0  0
 40 41  1  1  0  0  0
 42 40  1  0  0  0  0
 42 43  1  1  0  0  0
 44 42  1  0  0  0  0
 45 46  2  0  0  0  0
 46 44  1  0  0  0  0
 47 46  1  0  0  0  0
M  END
>  <MODEL>
4

>  <REMARK>
 VINA RESULT:      -7.0      1.738      2.269
  Name = 
  13 active torsions:
  status: ('A' for Active; 'I' for Inactive)
    1  A    between atoms: C_5  and  C_18
    2  A    between atoms: N_7  and  C_18
    3  A    between atoms: C_8  and  C_12
    4  A    between atoms: C_10  and  C_14
    5  A    between atoms: C_10  and  C_29
    6  A    between atoms: C_12  and  C_36
    7  A    between atoms: C_14  and  C_23
    8  A    between atoms: N_19  and  C_33
    9  A    between atoms: C_20  and  C_23
   10  A    between atoms: C_28  and  C_31
   11  A    between atoms: C_29  and  C_41
   12  A    between atoms: C_33  and  C_36
   13  A    between atoms: C_38  and  C_41
                            x       y       z     vdW  Elec       q    Type
                         _______ _______ _______ _____ _____    ______ ____

>  <TORSDO>
F 13

$$$$
=
 OpenBabel11072409033D

 47 50  0  0  1  0  0  0  0  0999 V2000
  193.3700  175.6840  146.1690 C   0  0  0  0  0  0  0  0  0  0  0  0
  193.2390  174.3690  144.3190 N   0  0  0  0  0  0  0  0  0  0  0  0
  190.3040  174.3220  144.7620 F   0  0  0  0  0  0  0  0  0  0  0  0
  192.5130  175.0070  145.3580 C   0  0  0  0  0  0  0  0  0  0  0  0
  190.6460  175.6960  146.7270 C   0  0  0  0  0  0  0  0  0  0  0  0
  192.9300  176.4030  147.2730 C   0  0  0  0  0  3  0  0  0  0  0  0
  194.7030  175.5660  145.7120 N   0  0  0  0  0  0  0  0  0  0  0  0
  191.5560  176.4010  147.5490 C   0  0  0  0  0  3  0  0  0  0  0  0
  191.1350  174.9930  145.5960 C   0  0  0  0  0  0  0  0  0  0  0  0
  194.6480  174.7410  144.5000 C   0  0  0  0  0  3  0  0  0  0  0  0
  188.3950  176.8420  146.8770 N   0  0  0  0  0  2  0  0  0  0  0  0
  188.7010  174.6460  147.5840 O   0  0  0  0  0  0  0  0  0  0  0  0
  189.2140  175.6900  147.0980 C   0  0  0  0  0  0  0  0  0  0  0  0
  186.9500  176.8240  147.0650 C   0  0  0  0  0  2  0  0  0  0  0  0
  186.3040  177.9850  146.3130 C   0  0  2  0  0  3  0  0  0  0  0  0
  185.8990  179.1020  147.2590 C   0  0  0  0  0  1  0  0  0  0  0  0
  184.1470  178.5040  145.4660 F   0  0  0  0  0  0  0  0  0  0  0  0
  185.1420  177.5450  145.4160 C   0  0  1  0  0  3  0  0  0  0  0  0
  185.5390  177.2640  143.9610 C   0  0  2  0  0  3  0  0  0  0  0  0
  187.4780  177.9030  142.5510 C   0  0  0  0  0  0  0  0  0  0  0  0
  184.0110  178.4570  140.5180 Cl  0  0  0  0  0  0  0  0  0  0  0  0
  189.1840  178.2480  142.3720 Cl  0  0  0  0  0  0  0  0  0  0  0  0
  187.0060  177.5520  143.7560 C   0  0  0  0  0  3  0  0  0  0  0  0
  185.1260  177.7000  141.6780 C   0  0  2  0  0  3  0  0  0  0  0  0
  184.7380  178.0630  143.0390 N   0  0  0  0  0  2  0  0  0  0  0  0
  186.5530  178.1700  141.3930 C   0  0  0  0  0  2  0  0  0  0  0  0
  192.6710  173.9970  143.0270 C   0  0  0  0  0  2  0  0  0  0  0  0
  193.1050  171.8300  143.9630 O   0  0  0  0  0  1  0  0  0  0  0  0
  192.0440  170.7100  140.5360 C   0  0  1  0  0  3  0  0  0  0  0  0
  192.6390  172.4700  142.8120 C   0  0  1  0  0  0  0  0  0  0  0  0
  191.1920  171.9850  142.5530 C   0  0  1  0  0  3  0  0  0  0  0  0
  190.4640  172.9110  141.8000 O   0  0  0  0  0  1  0  0  0  0  0  0
  192.8300  169.5620  140.4070 O   0  0  0  0  0  1  0  0  0  0  0  0
  191.1950  170.6430  141.8190 C   0  0  0  0  0  2  0  0  0  0  0  0
  192.8410  171.8770  140.4320 O   0  0  0  0  0  0  0  0  0  0  0  0
  193.5570  172.0300  141.6350 C   0  0  1  0  0  3  0  0  0  0  0  0
  195.9460  172.1250  142.0020 O   0  0  0  0  0  1  0  0  0  0  0  0
  194.8730  172.7930  141.4100 C   0  0  1  0  0  3  0  0  0  0  0  0
  195.1670  173.0510  139.9390 C   0  0  0  0  0  2  0  0  0  0  0  0
  195.2700  174.5430  139.6420 C   0  0  1  0  0  3  0  0  0  0  0  0
  194.1990  175.2040  140.2420 O   0  0  0  0  0  1  0  0  0  0  0  0
  196.5920  175.1170  140.1500 C   0  0  1  0  0  3  0  0  0  0  0  0
  197.3670  175.6490  139.0420 N   0  0  0  0  0  1  0  0  0  0  0  0
  196.3450  176.2340  141.1530 C   0  0  0  0  0  2  0  0  0  0  0  0
  197.6660  174.9340  142.6510 O   0  0  0  0  0  0  0  0  0  0  0  0
  197.2130  176.0680  142.3520 C   0  0  0  0  0  0  0  0  0  0  0  0
  197.5290  177.1660  143.1390 O   0  0  0  0  0  1  0  0  0  0  0  0
  1  6  1  0  0  0  0
  2 10  1  0  0  0  0
  2  4  1  0  0  0  0
  3  9  1  0  0  0  0
  4  9  1  0  0  0  0
  4  1  2  0  0  0  0
  5 13  1  0  0  0  0
  5  8  1  0  0  0  0
  6  8  2  0  0  0  0
  7  1  1  0  0  0  0
  9  5  2  0  0  0  0
 10  7  2  0  0  0  0
 11 14  1  0  0  0  0
 11 13  1  0  0  0  0
 13 12  2  0  0  0  0
 15 14  1  0  0  0  0
 15 16  1  1  0  0  0
 18 17  1  6  0  0  0
 18 15  1  0  0  0  0
 19 18  1  1  0  0  0
 20 23  2  0  0  0  0
 22 20  1  0  0  0  0
 23 19  1  0  0  0  0
 24 21  1  6  0  0  0
 24 25  1  0  0  0  0
 25 19  1  0  0  0  0
 26 24  1  0  0  0  0
 26 20  1  0  0  0  0
 27  2  1  0  0  0  0
 29 33  1  1  0  0  0
 29 34  1  0  0  0  0
 30 27  1  0  0  0  0
 30 28  1  1  0  0  0
 31 32  1  6  0  0  0
 31 30  1  0  0  0  0
 34 31  1  0  0  0  0
 35 29  1  0  0  0  0
 35 36  1  0  0  0  0
 36 38  1  6  0  0  0
 36 30  1  0  0  0  0
 38 37  1  6  0  0  0
 39 38  1  0  0  0  0
 40 39  1  0  0  0  0
 40 42  1  0  0  0  0
 40 41  1  1  0  0  0
 42 43  1  6  0  0  0
 42 44  1  0  0  0  0
 44 46  1  0  0  0  0
 46 45  2  0  0  0  0
 46 47  1  0  0  0  0
M  END
>  <MODEL>
5

>  <REMARK>
 VINA RESULT:      -6.9      2.539      3.456
  Name = 
  13 active torsions:
  status: ('A' for Active; 'I' for Inactive)
    1  A    between atoms: C_5  and  C_18
    2  A    between atoms: N_7  and  C_18
    3  A    between atoms: C_8  and  C_12
    4  A    between atoms: C_10  and  C_14
    5  A    between atoms: C_10  and  C_29
    6  A    between atoms: C_12  and  C_36
    7  A    between atoms: C_14  and  C_23
    8  A    between atoms: N_19  and  C_33
    9  A    between atoms: C_20  and  C_23
   10  A    between atoms: C_28  and  C_31
   11  A    between atoms: C_29  and  C_41
   12  A    between atoms: C_33  and  C_36
   13  A    between atoms: C_38  and  C_41
                            x       y       z     vdW  Elec       q    Type
                         _______ _______ _______ _____ _____    ______ ____

>  <TORSDO>
F 13

$$$$
=
 OpenBabel11072409033D

 47 50  0  0  1  0  0  0  0  0999 V2000
  191.8290  176.3200  144.3250 C   0  0  0  0  0  0  0  0  0  0  0  0
  189.8210  176.9510  143.4660 N   0  0  0  0  0  0  0  0  0  0  0  0
  189.2850  174.0630  143.0330 F   0  0  0  0  0  0  0  0  0  0  0  0
  190.6740  175.8590  143.7730 C   0  0  0  0  0  0  0  0  0  0  0  0
  191.4790  173.5880  143.9430 C   0  0  0  0  0  0  0  0  0  0  0  0
  192.8500  175.4650  144.7230 C   0  0  0  0  0  3  0  0  0  0  0  0
  191.8080  177.7290  144.4460 N   0  0  0  0  0  0  0  0  0  0  0  0
  192.6670  174.0910  144.5240 C   0  0  0  0  0  3  0  0  0  0  0  0
  190.4520  174.4930  143.5710 C   0  0  0  0  0  0  0  0  0  0  0  0
  190.5090  178.1650  143.9220 C   0  0  0  0  0  3  0  0  0  0  0  0
  192.4950  171.3650  143.2880 N   0  0  0  0  0  2  0  0  0  0  0  0
  190.2640  171.5520  143.9230 O   0  0  0  0  0  0  0  0  0  0  0  0
  191.3640  172.1320  143.7120 C   0  0  0  0  0  0  0  0  0  0  0  0
  192.4730  169.9100  143.2150 C   0  0  0  0  0  2  0  0  0  0  0  0
  192.8070  169.4470  141.7990 C   0  0  2  0  0  3  0  0  0  0  0  0
  193.7980  170.3830  141.1280 C   0  0  0  0  0  1  0  0  0  0  0  0
  190.4420  169.2420  141.7460 F   0  0  0  0  0  0  0  0  0  0  0  0
  191.5620  169.2170  140.9350 C   0  0  1  0  0  3  0  0  0  0  0  0
  191.4050  170.2130  139.7780 C   0  0  2  0  0  3  0  0  0  0  0  0
  189.5630  171.6870  139.0130 C   0  0  0  0  0  0  0  0  0  0  0  0
  191.1910  169.7140  135.8640 Cl  0  0  0  0  0  0  0  0  0  0  0  0
  188.1940  172.7200  139.3590 Cl  0  0  0  0  0  0  0  0  0  0  0  0
  190.2300  171.1250  140.0310 C   0  0  0  0  0  3  0  0  0  0  0  0
  191.1510  170.5160  137.4510 C   0  0  2  0  0  3  0  0  0  0  0  0
  191.2320  169.5120  138.5090 N   0  0  0  0  0  2  0  0  0  0  0  0
  189.8560  171.3190  137.5820 C   0  0  0  0  0  2  0  0  0  0  0  0
  188.3690  176.8520  143.3490 C   0  0  0  0  0  2  0  0  0  0  0  0
  188.6980  178.6660  141.8110 O   0  0  0  0  0  1  0  0  0  0  0  0
  185.3330  177.5410  140.5720 C   0  0  1  0  0  3  0  0  0  0  0  0
  187.8190  177.6300  142.1350 C   0  0  1  0  0  0  0  0  0  0  0  0
  187.7020  176.7030  140.9010 C   0  0  1  0  0  3  0  0  0  0  0  0
  187.3140  175.4090  141.2600 O   0  0  0  0  0  1  0  0  0  0  0  0
  184.8150  178.7660  140.1450 O   0  0  0  0  0  1  0  0  0  0  0  0
  186.6910  177.2630  139.9000 C   0  0  0  0  0  2  0  0  0  0  0  0
  185.3670  177.4770  141.9870 O   0  0  0  0  0  0  0  0  0  0  0  0
  186.4350  178.2750  142.4390 C   0  0  1  0  0  3  0  0  0  0  0  0
  185.8120  180.1580  143.8220 O   0  0  0  0  0  1  0  0  0  0  0  0
  186.1740  178.8110  143.8560 C   0  0  1  0  0  3  0  0  0  0  0  0
  185.1240  178.0080  144.6120 C   0  0  0  0  0  2  0  0  0  0  0  0
  185.0340  178.4380  146.0710 C   0  0  1  0  0  3  0  0  0  0  0  0
  184.0660  177.6690  146.7160 O   0  0  0  0  0  1  0  0  0  0  0  0
  186.3820  178.2850  146.7750 C   0  0  1  0  0  3  0  0  0  0  0  0
  186.3740  179.0080  148.0360 N   0  0  0  0  0  1  0  0  0  0  0  0
  186.6820  176.8200  147.0550 C   0  0  0  0  0  2  0  0  0  0  0  0
  188.9610  177.4840  146.8530 O   0  0  0  0  0  1  0  0  0  0  0  0
  188.1350  176.5370  146.8880 C   0  0  0  0  0  0  0  0  0  0  0  0
  188.5800  175.2280  146.7760 O   0  0  0  0  0  0  0  0  0  0  0  0
  1  7  1  0  0  0  0
  1  6  1  0  0  0  0
  2  4  1  0  0  0  0
  2 10  1  0  0  0  0
  3  9  1  0  0  0  0
  4  1  2  0  0  0  0
  5  8  1  0  0  0  0
  8  6  2  0  0  0  0
  9  4  1  0  0  0  0
  9  5  2  0  0  0  0
 10  7  2  0  0  0  0
 11 13  1  0  0  0  0
 13 12  2  0  0  0  0
 13  5  1  0  0  0  0
 14 11  1  0  0  0  0
 15 16  1  6  0  0  0
 15 14  1  0  0  0  0
 18 17  1  1  0  0  0
 18 15  1  0  0  0  0
 19 23  1  0  0  0  0
 19 18  1  1  0  0  0
 20 22  1  0  0  0  0
 20 23  2  0  0  0  0
 24 21  1  6  0  0  0
 24 26  1  0  0  0  0
 24 25  1  0  0  0  0
 25 19  1  0  0  0  0
 26 20  1  0  0  0  0
 27  2  1  0  0  0  0
 29 33  1  1  0  0  0
 29 35  1  0  0  0  0
 30 28  1  6  0  0  0
 30 36  1  0  0  0  0
 30 27  1  0  0  0  0
 31 32  1  1  0  0  0
 31 30  1  0  0  0  0
 34 29  1  0  0  0  0
 34 31  1  0  0  0  0
 35 36  1  0  0  0  0
 36 38  1  1  0  0  0
 38 37  1  6  0  0  0
 38 39  1  0  0  0  0
 39 40  1  0  0  0  0
 40 41  1  1  0  0  0
 40 42  1  0  0  0  0
 42 44  1  0  0  0  0
 42 43  1  1  0  0  0
 45 46  1  0  0  0  0
 46 44  1  0  0  0  0
 47 46  2  0  0  0  0
M  END
>  <MODEL>
6

>  <REMARK>
 VINA RESULT:      -6.7      3.965      8.786
  Name = 
  13 active torsions:
  status: ('A' for Active; 'I' for Inactive)
    1  A    between atoms: C_5  and  C_18
    2  A    between atoms: N_7  and  C_18
    3  A    between atoms: C_8  and  C_12
    4  A    between atoms: C_10  and  C_14
    5  A    between atoms: C_10  and  C_29
    6  A    between atoms: C_12  and  C_36
    7  A    between atoms: C_14  and  C_23
    8  A    between atoms: N_19  and  C_33
    9  A    between atoms: C_20  and  C_23
   10  A    between atoms: C_28  and  C_31
   11  A    between atoms: C_29  and  C_41
   12  A    between atoms: C_33  and  C_36
   13  A    between atoms: C_38  and  C_41
                            x       y       z     vdW  Elec       q    Type
                         _______ _______ _______ _____ _____    ______ ____

>  <TORSDO>
F 13

$$$$
=
 OpenBabel11072409033D

 47 50  0  0  1  0  0  0  0  0999 V2000
  190.0350  173.0140  139.5800 C   0  0  0  0  0  0  0  0  0  0  0  0
  189.7560  174.3730  141.3810 N   0  0  0  0  0  0  0  0  0  0  0  0
  192.5310  173.6510  142.1490 F   0  0  0  0  0  0  0  0  0  0  0  0
  190.6420  173.5020  140.6960 C   0  0  0  0  0  0  0  0  0  0  0  0
  192.6280  172.2200  140.1970 C   0  0  0  0  0  0  0  0  0  0  0  0
  190.6740  172.1320  138.7170 C   0  0  0  0  0  3  0  0  0  0  0  0
  188.7320  173.5450  139.4370 N   0  0  0  0  0  0  0  0  0  0  0  0
  191.9790  171.7340  139.0380 C   0  0  0  0  0  3  0  0  0  0  0  0
  191.9480  173.1370  141.0400 C   0  0  0  0  0  0  0  0  0  0  0  0
  188.5320  174.4490  140.5740 C   0  0  0  0  0  3  0  0  0  0  0  0
  194.2410  170.9870  141.7070 N   0  0  0  0  0  2  0  0  0  0  0  0
  194.9250  171.9280  139.6920 O   0  0  0  0  0  0  0  0  0  0  0  0
  193.9860  171.7250  140.5090 C   0  0  0  0  0  0  0  0  0  0  0  0
  195.5180  170.3360  141.9700 C   0  0  0  0  0  2  0  0  0  0  0  0
  196.3630  171.1930  142.9110 C   0  0  2  0  0  3  0  0  0  0  0  0
  197.3240  170.3410  143.7230 C   0  0  0  0  0  1  0  0  0  0  0  0
  195.3830  171.5290  145.0470 F   0  0  0  0  0  0  0  0  0  0  0  0
  195.5220  172.1130  143.8010 C   0  0  1  0  0  3  0  0  0  0  0  0
  196.0770  173.5370  143.9390 C   0  0  2  0  0  3  0  0  0  0  0  0
  195.3160  175.5730  145.1360 C   0  0  0  0  0  0  0  0  0  0  0  0
  196.4450  176.5000  141.3510 Cl  0  0  0  0  0  0  0  0  0  0  0  0
  194.5400  176.3340  146.5060 Cl  0  0  0  0  0  0  0  0  0  0  0  0
  195.4310  174.2370  145.1090 C   0  0  0  0  0  3  0  0  0  0  0  0
  196.4620  175.6190  142.8960 C   0  0  2  0  0  3  0  0  0  0  0  0
  195.8580  174.3020  142.7150 N   0  0  0  0  0  2  0  0  0  0  0  0
  195.6870  176.4170  143.9450 C   0  0  0  0  0  2  0  0  0  0  0  0
  190.1840  175.4370  142.2840 C   0  0  0  0  0  2  0  0  0  0  0  0
  189.3260  173.8360  143.8530 O   0  0  0  0  0  1  0  0  0  0  0  0
  190.2130  176.5410  146.3070 C   0  0  1  0  0  3  0  0  0  0  0  0
  189.9270  175.0940  143.7660 C   0  0  1  0  0  0  0  0  0  0  0  0
  191.2580  175.0390  144.5540 C   0  0  1  0  0  3  0  0  0  0  0  0
  192.1640  176.0060  144.1060 O   0  0  0  0  0  1  0  0  0  0  0  0
  189.2230  176.3230  147.2690 O   0  0  0  0  0  1  0  0  0  0  0  0
  191.0100  175.2490  146.0480 C   0  0  0  0  0  2  0  0  0  0  0  0
  189.6570  177.1190  145.1390 O   0  0  0  0  0  0  0  0  0  0  0  0
  188.9620  176.1140  144.4380 C   0  0  1  0  0  3  0  0  0  0  0  0
  186.8190  175.7620  143.3740 O   0  0  0  0  0  1  0  0  0  0  0  0
  187.8210  176.7070  143.5950 C   0  0  1  0  0  3  0  0  0  0  0  0
  187.2240  177.9690  144.2030 C   0  0  0  0  0  2  0  0  0  0  0  0
  186.2400  177.6400  145.3200 C   0  0  1  0  0  3  0  0  0  0  0  0
  186.6280  178.3050  146.4830 O   0  0  0  0  0  1  0  0  0  0  0  0
  184.8160  178.0400  144.9360 C   0  0  1  0  0  3  0  0  0  0  0  0
  184.0910  178.4990  146.1080 N   0  0  0  0  0  1  0  0  0  0  0  0
  184.8290  179.1560  143.9020 C   0  0  0  0  0  2  0  0  0  0  0  0
  183.2070  178.2910  142.3860 O   0  0  0  0  0  1  0  0  0  0  0  0
  184.3980  178.6470  142.5700 C   0  0  0  0  0  0  0  0  0  0  0  0
  185.3100  178.5700  141.5270 O   0  0  0  0  0  0  0  0  0  0  0  0
  1  4  1  0  0  0  0
  2 27  1  0  0  0  0
  4  9  2  0  0  0  0
  4  2  1  0  0  0  0
  5 13  1  0  0  0  0
  5  9  1  0  0  0  0
  6  8  1  0  0  0  0
  6  1  2  0  0  0  0
  7  1  1  0  0  0  0
  7 10  2  0  0  0  0
  8  5  2  0  0  0  0
  9  3  1  0  0  0  0
 10  2  1  0  0  0  0
 11 14  1  0  0  0  0
 12 13  2  0  0  0  0
 13 11  1  0  0  0  0
 14 15  1  0  0  0  0
 15 16  1  1  0  0  0
 15 18  1  0  0  0  0
 18 17  1  1  0  0  0
 19 18  1  6  0  0  0
 19 23  1  0  0  0  0
 20 22  1  0  0  0  0
 23 20  2  0  0  0  0
 24 21  1  6  0  0  0
 24 26  1  0  0  0  0
 25 24  1  0  0  0  0
 25 19  1  0  0  0  0
 26 20  1  0  0  0  0
 27 30  1  0  0  0  0
 29 33  1  1  0  0  0
 30 28  1  1  0  0  0
 30 36  1  0  0  0  0
 30 31  1  0  0  0  0
 31 32  1  6  0  0  0
 31 34  1  0  0  0  0
 34 29  1  0  0  0  0
 35 29  1  0  0  0  0
 36 38  1  6  0  0  0
 36 35  1  0  0  0  0
 38 37  1  1  0  0  0
 38 39  1  0  0  0  0
 39 40  1  0  0  0  0
 40 41  1  1  0  0  0
 42 40  1  0  0  0  0
 42 43  1  1  0  0  0
 44 42  1  0  0  0  0
 45 46  1  0  0  0  0
 46 44  1  0  0  0  0
 47 46  2  0  0  0  0
M  END
>  <MODEL>
7

>  <REMARK>
 VINA RESULT:      -6.7      4.083      9.259
  Name = 
  13 active torsions:
  status: ('A' for Active; 'I' for Inactive)
    1  A    between atoms: C_5  and  C_18
    2  A    between atoms: N_7  and  C_18
    3  A    between atoms: C_8  and  C_12
    4  A    between atoms: C_10  and  C_14
    5  A    between atoms: C_10  and  C_29
    6  A    between atoms: C_12  and  C_36
    7  A    between atoms: C_14  and  C_23
    8  A    between atoms: N_19  and  C_33
    9  A    between atoms: C_20  and  C_23
   10  A    between atoms: C_28  and  C_31
   11  A    between atoms: C_29  and  C_41
   12  A    between atoms: C_33  and  C_36
   13  A    between atoms: C_38  and  C_41
                            x       y       z     vdW  Elec       q    Type
                         _______ _______ _______ _____ _____    ______ ____

>  <TORSDO>
F 13

$$$$
=
 OpenBabel11072409033D

 47 50  0  0  1  0  0  0  0  0999 V2000
  191.6540  176.2330  143.8590 C   0  0  0  0  0  0  0  0  0  0  0  0
  189.6480  177.1270  143.2740 N   0  0  0  0  0  0  0  0  0  0  0  0
  188.6770  174.3370  142.9810 F   0  0  0  0  0  0  0  0  0  0  0  0
  190.3820  175.9310  143.4820 C   0  0  0  0  0  0  0  0  0  0  0  0
  190.8940  173.5720  143.5870 C   0  0  0  0  0  0  0  0  0  0  0  0
  192.5980  175.2500  144.1300 C   0  0  0  0  0  3  0  0  0  0  0  0
  191.8390  177.6320  143.9520 N   0  0  0  0  0  0  0  0  0  0  0  0
  192.2080  173.9120  143.9870 C   0  0  0  0  0  3  0  0  0  0  0  0
  189.9540  174.6070  143.3420 C   0  0  0  0  0  0  0  0  0  0  0  0
  190.5490  178.2380  143.6040 C   0  0  0  0  0  3  0  0  0  0  0  0
  191.0410  171.4130  142.2760 N   0  0  0  0  0  2  0  0  0  0  0  0
  189.8570  171.5540  144.2740 O   0  0  0  0  0  0  0  0  0  0  0  0
  190.5550  172.1440  143.4060 C   0  0  0  0  0  0  0  0  0  0  0  0
  190.8760  169.9710  142.1460 C   0  0  0  0  0  2  0  0  0  0  0  0
  190.8960  169.5670  140.6730 C   0  0  2  0  0  3  0  0  0  0  0  0
  191.7730  168.3490  140.4440 C   0  0  0  0  0  1  0  0  0  0  0  0
  192.4580  170.4230  139.1030 F   0  0  0  0  0  0  0  0  0  0  0  0
  191.2680  170.7250  139.7400 C   0  0  1  0  0  3  0  0  0  0  0  0
  190.1870  171.0780  138.7110 C   0  0  2  0  0  3  0  0  0  0  0  0
  190.1670  171.2940  136.2390 C   0  0  0  0  0  0  0  0  0  0  0  0
  188.2520  174.4380  137.9470 Cl  0  0  0  0  0  0  0  0  0  0  0  0
  190.7250  170.7870  134.6610 Cl  0  0  0  0  0  0  0  0  0  0  0  0
  190.6270  170.6620  137.3290 C   0  0  0  0  0  3  0  0  0  0  0  0
  188.8190  172.7600  137.7780 C   0  0  2  0  0  3  0  0  0  0  0  0
  189.8940  172.5080  138.7340 N   0  0  0  0  0  2  0  0  0  0  0  0
  189.3170  172.5320  136.3500 C   0  0  0  0  0  2  0  0  0  0  0  0
  188.1940  177.2240  143.3620 C   0  0  0  0  0  2  0  0  0  0  0  0
  188.4140  179.0240  141.7890 O   0  0  0  0  0  1  0  0  0  0  0  0
  185.0370  177.7900  140.6930 C   0  0  1  0  0  3  0  0  0  0  0  0
  187.5770  177.9690  142.1600 C   0  0  1  0  0  0  0  0  0  0  0  0
  187.4400  177.0220  140.9430 C   0  0  1  0  0  3  0  0  0  0  0  0
  187.1010  175.7240  141.3340 O   0  0  0  0  0  1  0  0  0  0  0  0
  184.4700  178.9950  140.2710 O   0  0  0  0  0  1  0  0  0  0  0  0
  186.3770  177.5400  139.9740 C   0  0  0  0  0  2  0  0  0  0  0  0
  185.1270  177.7470  142.1070 O   0  0  0  0  0  0  0  0  0  0  0  0
  186.1890  178.5810  142.5070 C   0  0  1  0  0  3  0  0  0  0  0  0
  185.5660  180.4660  143.8880 O   0  0  0  0  0  1  0  0  0  0  0  0
  185.9660  179.1300  143.9260 C   0  0  1  0  0  3  0  0  0  0  0  0
  184.9680  178.3090  144.7320 C   0  0  0  0  0  2  0  0  0  0  0  0
  185.0520  178.6300  146.2190 C   0  0  1  0  0  3  0  0  0  0  0  0
  184.0660  177.9140  146.8980 O   0  0  0  0  0  1  0  0  0  0  0  0
  186.4310  178.2880  146.7810 C   0  0  1  0  0  3  0  0  0  0  0  0
  186.5500  178.7680  148.1470 N   0  0  0  0  0  1  0  0  0  0  0  0
  186.6590  176.7830  146.7710 C   0  0  0  0  0  2  0  0  0  0  0  0
  188.4860  175.2910  147.1070 O   0  0  0  0  0  1  0  0  0  0  0  0
  188.1110  176.4690  146.8810 C   0  0  0  0  0  0  0  0  0  0  0  0
  189.0530  177.4750  146.7280 O   0  0  0  0  0  0  0  0  0  0  0  0
  1  7  1  0  0  0  0
  1  6  1  0  0  0  0
  2 27  1  0  0  0  0
  2  4  1  0  0  0  0
  2 10  1  0  0  0  0
  3  9  1  0  0  0  0
  4  1  2  0  0  0  0
  5  8  1  0  0  0  0
  8  6  2  0  0  0  0
  9  4  1  0  0  0  0
  9  5  2  0  0  0  0
 10  7  2  0  0  0  0
 11 13  1  0  0  0  0
 13  5  1  0  0  0  0
 13 12  2  0  0  0  0
 14 11  1  0  0  0  0
 15 16  1  1  0  0  0
 15 14  1  0  0  0  0
 18 17  1  6  0  0  0
 18 15  1  0  0  0  0
 19 25  1  0  0  0  0
 19 18  1  1  0  0  0
 20 26  1  0  0  0  0
 20 23  2  0  0  0  0
 22 20  1  0  0  0  0
 23 19  1  0  0  0  0
 24 21  1  6  0  0  0
 24 25  1  0  0  0  0
 26 24  1  0  0  0  0
 29 33  1  1  0  0  0
 29 35  1  0  0  0  0
 30 28  1  6  0  0  0
 30 36  1  0  0  0  0
 30 27  1  0  0  0  0
 31 32  1  1  0  0  0
 31 30  1  0  0  0  0
 34 29  1  0  0  0  0
 34 31  1  0  0  0  0
 35 36  1  0  0  0  0
 36 38  1  1  0  0  0
 38 37  1  6  0  0  0
 38 39  1  0  0  0  0
 39 40  1  0  0  0  0
 40 42  1  0  0  0  0
 40 41  1  1  0  0  0
 42 43  1  1  0  0  0
 44 42  1  0  0  0  0
 44 46  1  0  0  0  0
 46 45  1  0  0  0  0
 47 46  2  0  0  0  0
M  END
>  <MODEL>
8

>  <REMARK>
 VINA RESULT:      -6.7      3.884      8.811
  Name = 
  13 active torsions:
  status: ('A' for Active; 'I' for Inactive)
    1  A    between atoms: C_5  and  C_18
    2  A    between atoms: N_7  and  C_18
    3  A    between atoms: C_8  and  C_12
    4  A    between atoms: C_10  and  C_14
    5  A    between atoms: C_10  and  C_29
    6  A    between atoms: C_12  and  C_36
    7  A    between atoms: C_14  and  C_23
    8  A    between atoms: N_19  and  C_33
    9  A    between atoms: C_20  and  C_23
   10  A    between atoms: C_28  and  C_31
   11  A    between atoms: C_29  and  C_41
   12  A    between atoms: C_33  and  C_36
   13  A    between atoms: C_38  and  C_41
                            x       y       z     vdW  Elec       q    Type
                         _______ _______ _______ _____ _____    ______ ____

>  <TORSDO>
F 13

$$$$
=
 OpenBabel11072409033D

 47 50  0  0  1  0  0  0  0  0999 V2000
  189.9060  173.6900  140.7220 C   0  0  0  0  0  0  0  0  0  0  0  0
  192.1660  173.9340  140.7580 N   0  0  0  0  0  0  0  0  0  0  0  0
  191.7560  175.8870  142.9550 F   0  0  0  0  0  0  0  0  0  0  0  0
  190.9340  174.3420  141.3310 C   0  0  0  0  0  0  0  0  0  0  0  0
  189.3700  175.5240  142.7420 C   0  0  0  0  0  0  0  0  0  0  0  0
  188.5810  173.8990  141.0840 C   0  0  0  0  0  3  0  0  0  0  0  0
  190.3840  172.7970  139.7350 N   0  0  0  0  0  0  0  0  0  0  0  0
  188.3200  174.8270  142.1010 C   0  0  0  0  0  3  0  0  0  0  0  0
  190.7110  175.2650  142.3570 C   0  0  0  0  0  0  0  0  0  0  0  0
  191.8460  172.9120  139.7530 C   0  0  0  0  0  3  0  0  0  0  0  0
  188.0480  176.2450  144.7760 N   0  0  0  0  0  2  0  0  0  0  0  0
  189.6340  177.6340  143.7910 O   0  0  0  0  0  0  0  0  0  0  0  0
  189.0290  176.5280  143.7740 C   0  0  0  0  0  0  0  0  0  0  0  0
  187.8050  177.1310  145.9060 C   0  0  0  0  0  2  0  0  0  0  0  0
  186.6880  178.1180  145.5730 C   0  0  2  0  0  3  0  0  0  0  0  0
  186.1580  178.7980  146.8240 C   0  0  0  0  0  1  0  0  0  0  0  0
  184.4050  177.4690  145.4970 F   0  0  0  0  0  0  0  0  0  0  0  0
  185.5640  177.4920  144.7420 C   0  0  1  0  0  3  0  0  0  0  0  0
  185.3100  178.1890  143.3980 C   0  0  2  0  0  3  0  0  0  0  0  0
  183.3460  178.3620  141.8920 C   0  0  0  0  0  0  0  0  0  0  0  0
  186.6900  177.5110  139.7580 Cl  0  0  0  0  0  0  0  0  0  0  0  0
  181.6170  178.4720  141.6490 Cl  0  0  0  0  0  0  0  0  0  0  0  0
  183.8270  178.3040  143.1430 C   0  0  0  0  0  3  0  0  0  0  0  0
  185.7210  178.2140  141.0740 C   0  0  2  0  0  3  0  0  0  0  0  0
  185.9520  177.4640  142.3060 N   0  0  0  0  0  2  0  0  0  0  0  0
  184.2400  178.1660  140.6970 C   0  0  0  0  0  2  0  0  0  0  0  0
  193.4540  174.0060  141.4410 C   0  0  0  0  0  2  0  0  0  0  0  0
  192.8560  171.7370  141.9500 O   0  0  0  0  0  1  0  0  0  0  0  0
  196.4420  171.5910  143.0690 C   0  0  1  0  0  3  0  0  0  0  0  0
  193.9320  172.6290  141.9490 C   0  0  1  0  0  0  0  0  0  0  0  0
  195.0260  172.0530  141.0180 C   0  0  1  0  0  3  0  0  0  0  0  0
  195.8660  173.0550  140.5260 O   0  0  0  0  0  1  0  0  0  0  0  0
  196.3300  170.6590  144.1030 O   0  0  0  0  0  1  0  0  0  0  0  0
  195.8720  171.0160  141.7580 C   0  0  0  0  0  2  0  0  0  0  0  0
  195.8720  172.8320  143.4480 O   0  0  0  0  0  0  0  0  0  0  0  0
  194.4710  172.7050  143.4080 C   0  0  1  0  0  3  0  0  0  0  0  0
  192.6940  173.0740  145.0060 O   0  0  0  0  0  1  0  0  0  0  0  0
  193.7920  173.6740  144.3890 C   0  0  1  0  0  3  0  0  0  0  0  0
  194.7460  174.2220  145.4410 C   0  0  0  0  0  2  0  0  0  0  0  0
  194.7390  175.7460  145.4640 C   0  0  1  0  0  3  0  0  0  0  0  0
  194.4050  176.2220  144.1960 O   0  0  0  0  0  1  0  0  0  0  0  0
  193.7500  176.2770  146.5010 C   0  0  1  0  0  3  0  0  0  0  0  0
  194.2410  177.5210  147.0720 N   0  0  0  0  0  1  0  0  0  0  0  0
  192.3900  176.5350  145.8680 C   0  0  0  0  0  2  0  0  0  0  0  0
  190.8770  177.0920  147.6220 O   0  0  0  0  0  1  0  0  0  0  0  0
  191.2940  176.2150  146.8240 C   0  0  0  0  0  0  0  0  0  0  0  0
  190.7260  174.9490  146.8320 O   0  0  0  0  0  0  0  0  0  0  0  0
  1  6  2  0  0  0  0
  1  4  1  0  0  0  0
  2  4  1  0  0  0  0
  2 27  1  0  0  0  0
  4  9  2  0  0  0  0
  5 13  1  0  0  0  0
  6  8  1  0  0  0  0
  7 10  2  0  0  0  0
  7  1  1  0  0  0  0
  8  5  2  0  0  0  0
  9  5  1  0  0  0  0
  9  3  1  0  0  0  0
 10  2  1  0  0  0  0
 11 14  1  0  0  0  0
 13 12  2  0  0  0  0
 13 11  1  0  0  0  0
 15 14  1  0  0  0  0
 15 16  1  1  0  0  0
 18 17  1  1  0  0  0
 18 15  1  0  0  0  0
 19 18  1  1  0  0  0
 20 23  2  0  0  0  0
 22 20  1  0  0  0  0
 23 19  1  0  0  0  0
 24 21  1  6  0  0  0
 24 25  1  0  0  0  0
 25 19  1  0  0  0  0
 26 24  1  0  0  0  0
 26 20  1  0  0  0  0
 27 30  1  0  0  0  0
 29 35  1  0  0  0  0
 29 33  1  1  0  0  0
 30 28  1  6  0  0  0
 30 36  1  0  0  0  0
 31 32  1  1  0  0  0
 31 34  1  0  0  0  0
 31 30  1  0  0  0  0
 34 29  1  0  0  0  0
 36 35  1  0  0  0  0
 36 38  1  6  0  0  0
 38 37  1  1  0  0  0
 38 39  1  0  0  0  0
 39 40  1  0  0  0  0
 40 41  1  6  0  0  0
 40 42  1  0  0  0  0
 42 43  1  6  0  0  0
 44 42  1  0  0  0  0
 44 46  1  0  0  0  0
 46 47  2  0  0  0  0
 46 45  1  0  0  0  0
M  END
>  <MODEL>
9

>  <REMARK>
 VINA RESULT:      -6.6      3.137      6.124
  Name = 
  13 active torsions:
  status: ('A' for Active; 'I' for Inactive)
    1  A    between atoms: C_5  and  C_18
    2  A    between atoms: N_7  and  C_18
    3  A    between atoms: C_8  and  C_12
    4  A    between atoms: C_10  and  C_14
    5  A    between atoms: C_10  and  C_29
    6  A    between atoms: C_12  and  C_36
    7  A    between atoms: C_14  and  C_23
    8  A    between atoms: N_19  and  C_33
    9  A    between atoms: C_20  and  C_23
   10  A    between atoms: C_28  and  C_31
   11  A    between atoms: C_29  and  C_41
   12  A    between atoms: C_33  and  C_36
   13  A    between atoms: C_38  and  C_41
                            x       y       z     vdW  Elec       q    Type
                         _______ _______ _______ _____ _____    ______ ____

>  <TORSDO>
F 13

$$$$
