=
 OpenBabel11062421233D

 51 53  0  0  1  0  0  0  0  0999 V2000
  191.1110  178.6040  143.9340 C   0  0  0  0  0  1  0  0  0  0  0  0
  190.4500  177.4410  144.6620 C   0  0  1  0  0  3  0  0  0  0  0  0
  188.9180  177.5630  142.6240 C   0  0  0  0  0  2  0  0  0  0  0  0
  189.5240  176.6700  143.7070 C   0  0  1  0  0  3  0  0  0  0  0  0
  189.3650  173.7100  141.7070 O   0  0  0  0  0  0  0  0  0  0  0  0
  188.1810  174.4360  141.9420 C   0  0  1  0  0  3  0  0  0  0  0  0
  189.2500  174.2950  142.9820 C   0  0  2  0  0  3  0  0  0  0  0  0
  188.1980  175.7070  141.0940 C   0  0  2  0  0  3  0  0  0  0  0  0
  187.7280  176.9090  141.9270 C   0  0  2  0  0  3  0  0  0  0  0  0
  190.2250  175.4620  143.0990 C   0  0  0  0  0  2  0  0  0  0  0  0
  187.3760  175.5020  139.9820 O   0  0  0  0  0  1  0  0  0  0  0  0
  187.0240  177.9620  141.0710 C   0  0  0  0  0  2  0  0  0  0  0  0
  185.6330  178.2780  141.6080 C   0  0  1  0  0  3  0  0  0  0  0  0
  184.6130  178.1630  140.5160 C   0  0  0  0  0  0  0  0  0  0  0  0
  184.8560  177.5220  139.5010 O   0  0  0  0  0  0  0  0  0  0  0  0
  183.3040  178.8610  140.6630 C   0  0  0  0  0  2  0  0  0  0  0  0
  182.1940  177.8540  140.9060 C   0  0  0  0  0  2  0  0  0  0  0  0
  181.0350  178.2740  140.2520 O   0  0  0  0  0  0  0  0  0  0  0  0
  180.7200  179.4990  140.8430 C   0  0  0  0  0  1  0  0  0  0  0  0
  185.2850  177.3660  142.7760 C   0  0  0  0  0  2  0  0  0  0  0  0
  184.5990  178.1270  143.8080 N   0  0  0  0  0  2  0  0  0  0  0  0
  185.6250  178.7420  144.6290 C   0  0  0  0  0  2  0  0  0  0  0  0
  185.2960  178.5110  146.0890 C   0  0  0  0  0  2  0  0  0  0  0  0
  186.9310  176.6730  146.2110 C   0  0  0  0  0  2  0  0  0  0  0  0
  186.4170  176.9290  147.6120 C   0  0  0  0  0  2  0  0  0  0  0  0
  185.4770  177.0470  146.4260 C   0  0  0  0  0  3  0  0  0  0  0  0
  192.6590  176.4580  144.9300 C   0  0  0  0  0  0  0  0  0  0  0  0
  191.1960  176.0830  146.7960 C   0  0  0  0  0  1  0  0  0  0  0  0
  191.4650  176.6280  145.4330 C   0  0  0  0  0  0  0  0  0  0  0  0
  193.8460  176.2890  144.4190 C   0  0  0  0  0  3  0  0  0  0  0  0
  195.0620  176.3460  145.2770 C   0  0  0  0  0  2  0  0  0  0  0  0
  195.2280  175.1380  145.9590 O   0  0  0  0  0  0  0  0  0  0  0  0
  195.7450  174.2610  145.0020 C   0  0  2  0  0  3  0  0  0  0  0  0
  195.8640  172.8630  145.6020 C   0  0  0  0  0  2  0  0  0  0  0  0
  195.7320  171.7480  144.5550 C   0  0  1  0  0  3  0  0  0  0  0  0
  196.5690  170.5250  144.9170 C   0  0  0  0  0  2  0  0  0  0  0  0
  195.8430  169.2570  144.6060 C   0  0  0  0  0  3  0  0  0  0  0  0
  195.4980  168.5040  145.5010 O   0  0  0  0  0  0  0  0  0  0  0  0
  194.3410  171.3500  144.3800 N   0  0  0  0  0  2  0  0  0  0  0  0
  192.7460  172.8340  143.3260 C   0  0  0  0  0  1  0  0  0  0  0  0
  193.8930  171.8760  143.1010 C   0  0  0  0  0  2  0  0  0  0  0  0
  197.1130  174.7480  144.5360 C   0  0  0  0  0  2  0  0  0  0  0  0
  197.3550  174.4130  143.0680 C   0  0  0  0  0  2  0  0  0  0  0  0
  196.7070  176.4790  142.0800 O   0  0  0  0  0  0  0  0  0  0  0  0
  196.4970  175.2380  142.1640 C   0  0  0  0  0  0  0  0  0  0  0  0
  195.4960  174.6270  141.4070 O   0  0  0  0  0  0  0  0  0  0  0  0
  194.4780  175.3740  140.7580 C   0  0  0  0  0  2  0  0  0  0  0  0
  193.3380  174.4760  138.7000 C   0  0  0  0  0  0  0  0  0  0  0  0
  193.5480  174.4640  140.1120 N   0  0  0  0  0  2  0  0  0  0  0  0
  193.9700  175.2750  137.9640 O   0  0  0  0  0  0  0  0  0  0  0  0
  192.3910  173.5910  138.1200 N   0  0  0  0  0  1  0  0  0  0  0  0
  2  1  1  6  0  0  0
  2 29  1  0  0  0  0
  3  4  1  0  0  0  0
  4  2  1  6  0  0  0
  5  7  1  0  0  0  0
  6  5  1  6  0  0  0
  6  7  1  0  0  0  0
  7 10  1  6  0  0  0
  8 11  1  6  0  0  0
  8  9  1  0  0  0  0
  8  6  1  0  0  0  0
  9 12  1  6  0  0  0
  9  3  1  0  0  0  0
 10  4  1  0  0  0  0
 13 12  1  6  0  0  0
 13 20  1  0  0  0  0
 14 16  1  0  0  0  0
 14 13  1  0  0  0  0
 15 14  2  0  0  0  0
 16 17  1  0  0  0  0
 18 19  1  0  0  0  0
 18 17  1  0  0  0  0
 20 21  1  0  0  0  0
 21 22  1  0  0  0  0
 22 23  1  0  0  0  0
 23 26  1  0  0  0  0
 24 26  1  0  0  0  0
 24 25  1  0  0  0  0
 26 25  1  0  0  0  0
 27 29  2  0  0  0  0
 29 28  1  0  0  0  0
 30 27  2  0  0  0  0
 30 31  1  0  0  0  0
 31 32  1  0  0  0  0
 33 42  1  1  0  0  0
 33 34  1  0  0  0  0
 33 32  1  0  0  0  0
 35 36  1  1  0  0  0
 35 34  1  0  0  0  0
 37 36  1  0  0  0  0
 37 38  2  0  0  0  0
 39 35  1  0  0  0  0
 41 40  1  0  0  0  0
 41 39  1  0  0  0  0
 43 42  1  0  0  0  0
 44 45  2  0  0  0  0
 45 43  1  0  0  0  0
 46 45  1  0  0  0  0
 47 46  1  0  0  0  0
 48 49  1  0  0  0  0
 49 47  1  0  0  0  0
 50 48  2  0  0  0  0
 51 48  1  0  0  0  0
M  END
>  <MODEL>
1

>  <REMARK>
 VINA RESULT:      -5.3      0.000      0.000
  Name = 
  28 active torsions:
  status: ('A' for Active; 'I' for Inactive)
    1  A    between atoms: C_2  and  C_38
    2  A    between atoms: C_3  and  O_7
    3  A    between atoms: C_3  and  C_33
    4  A    between atoms: C_4  and  C_33
    5  A    between atoms: C_4  and  C_39
    6  A    between atoms: N_5  and  C_47
    7  A    between atoms: N_5  and  C_48
    8  A    between atoms: N_9  and  C_15
    9  A    between atoms: C_13  and  C_24
   10  A    between atoms: C_13  and  C_47
   11  A    between atoms: C_15  and  O_36
   12  A    between atoms: C_18  and  O_36
   13  A    between atoms: C_18  and  C_45
   14  A    between atoms: C_19  and  C_51
   15  A    between atoms: C_21  and  C_23
   16  A    between atoms: C_21  and  C_43
   17  A    between atoms: C_22  and  C_28
   18  A    between atoms: C_22  and  O_30
   19  A    between atoms: C_22  and  C_40
   20  A    between atoms: C_23  and  N_49
   21  A    between atoms: C_28  and  C_45
   22  A    between atoms: C_29  and  O_30
   23  A    between atoms: C_29  and  C_50
   24  A    between atoms: C_34  and  C_38
   25  A    between atoms: C_39  and  C_44
   26  A    between atoms: C_39  and  C_51
   27  A    between atoms: C_40  and  C_47
   28  A    between atoms: C_44  and  N_49
                            x       y       z     vdW  Elec       q    Type
                         _______ _______ _______ _____ _____    ______ ____

>  <TORSDO>
F 28

$$$$
=
 OpenBabel11062421233D

 51 53  0  0  1  0  0  0  0  0999 V2000
  189.6790  172.0960  142.7740 C   0  0  0  0  0  1  0  0  0  0  0  0
  190.2930  172.9280  141.6560 C   0  0  1  0  0  3  0  0  0  0  0  0
  192.6470  172.0060  141.3060 C   0  0  0  0  0  2  0  0  0  0  0  0
  191.2110  172.0570  140.7840 C   0  0  1  0  0  3  0  0  0  0  0  0
  191.4020  168.8460  139.2190 O   0  0  0  0  0  0  0  0  0  0  0  0
  192.3400  169.8350  138.8610 C   0  0  1  0  0  3  0  0  0  0  0  0
  190.9140  170.1670  139.1770 C   0  0  2  0  0  3  0  0  0  0  0  0
  193.3580  169.9890  139.9900 C   0  0  2  0  0  3  0  0  0  0  0  0
  193.6290  171.4770  140.2640 C   0  0  2  0  0  3  0  0  0  0  0  0
  190.6420  170.6560  140.5950 C   0  0  0  0  0  2  0  0  0  0  0  0
  194.5260  169.3160  139.6220 O   0  0  0  0  0  1  0  0  0  0  0  0
  195.0520  171.7190  140.7650 C   0  0  0  0  0  2  0  0  0  0  0  0
  195.0790  171.9670  142.2680 C   0  0  1  0  0  3  0  0  0  0  0  0
  195.7090  170.8070  142.9770 C   0  0  0  0  0  0  0  0  0  0  0  0
  196.9230  170.7530  143.1270 O   0  0  0  0  0  0  0  0  0  0  0  0
  194.8440  169.7010  143.4790 C   0  0  0  0  0  2  0  0  0  0  0  0
  193.8840  170.2200  144.5350 C   0  0  0  0  0  2  0  0  0  0  0  0
  192.6850  169.5080  144.4620 O   0  0  0  0  0  0  0  0  0  0  0  0
  193.0550  168.2380  144.0150 C   0  0  0  0  0  1  0  0  0  0  0  0
  195.8100  173.2640  142.5880 C   0  0  0  0  0  2  0  0  0  0  0  0
  196.5910  173.6870  141.4380 N   0  0  0  0  0  2  0  0  0  0  0  0
  196.4570  175.1290  141.3460 C   0  0  0  0  0  2  0  0  0  0  0  0
  195.7860  175.4820  140.0350 C   0  0  0  0  0  2  0  0  0  0  0  0
  195.0700  174.2480  138.0270 C   0  0  0  0  0  2  0  0  0  0  0  0
  196.1580  175.2170  137.6120 C   0  0  0  0  0  2  0  0  0  0  0  0
  196.2370  174.5200  138.9580 C   0  0  0  0  0  3  0  0  0  0  0  0
  188.4400  174.5030  141.6340 C   0  0  0  0  0  0  0  0  0  0  0  0
  189.1380  173.7970  139.4490 C   0  0  0  0  0  1  0  0  0  0  0  0
  189.2420  173.7440  140.9370 C   0  0  0  0  0  0  0  0  0  0  0  0
  187.6380  175.2540  142.3380 C   0  0  0  0  0  3  0  0  0  0  0  0
  187.2570  176.6140  141.8670 C   0  0  0  0  0  2  0  0  0  0  0  0
  188.0080  177.5840  142.5350 O   0  0  0  0  0  0  0  0  0  0  0  0
  187.9110  177.2370  143.8850 C   0  0  2  0  0  3  0  0  0  0  0  0
  186.9040  178.1520  144.5770 C   0  0  0  0  0  2  0  0  0  0  0  0
  185.6460  177.4100  145.0500 C   0  0  1  0  0  3  0  0  0  0  0  0
  185.7390  177.0140  146.5200 C   0  0  0  0  0  2  0  0  0  0  0  0
  186.6930  177.8960  147.2600 C   0  0  0  0  0  3  0  0  0  0  0  0
  186.2810  178.7690  148.0050 O   0  0  0  0  0  0  0  0  0  0  0  0
  184.4480  178.2110  144.8360 N   0  0  0  0  0  2  0  0  0  0  0  0
  183.8530  178.1990  142.4900 C   0  0  0  0  0  1  0  0  0  0  0  0
  184.6150  178.9200  143.5790 C   0  0  0  0  0  2  0  0  0  0  0  0
  189.2770  177.3640  144.5530 C   0  0  0  0  0  2  0  0  0  0  0  0
  190.3880  177.5390  143.5230 C   0  0  0  0  0  2  0  0  0  0  0  0
  192.0010  176.2050  142.3910 O   0  0  0  0  0  0  0  0  0  0  0  0
  191.1820  176.2850  143.3480 C   0  0  0  0  0  0  0  0  0  0  0  0
  191.0290  175.2330  144.2520 O   0  0  0  0  0  0  0  0  0  0  0  0
  192.1330  174.6520  144.9280 C   0  0  0  0  0  2  0  0  0  0  0  0
  193.9480  176.2700  145.5810 C   0  0  0  0  0  0  0  0  0  0  0  0
  192.7040  175.6230  145.8460 N   0  0  0  0  0  2  0  0  0  0  0  0
  194.5880  176.0250  144.5270 O   0  0  0  0  0  0  0  0  0  0  0  0
  194.4820  177.1860  146.5270 N   0  0  0  0  0  1  0  0  0  0  0  0
  2  1  1  1  0  0  0
  4  3  1  0  0  0  0
  4  2  1  1  0  0  0
  6  7  1  0  0  0  0
  6  5  1  1  0  0  0
  6  8  1  0  0  0  0
  7  5  1  0  0  0  0
  7 10  1  1  0  0  0
  8 11  1  6  0  0  0
  8  9  1  0  0  0  0
  9 12  1  1  0  0  0
  9  3  1  0  0  0  0
 10  4  1  0  0  0  0
 13 12  1  6  0  0  0
 13 20  1  0  0  0  0
 13 14  1  0  0  0  0
 14 15  2  0  0  0  0
 14 16  1  0  0  0  0
 16 17  1  0  0  0  0
 18 17  1  0  0  0  0
 19 18  1  0  0  0  0
 21 20  1  0  0  0  0
 22 21  1  0  0  0  0
 23 22  1  0  0  0  0
 24 26  1  0  0  0  0
 25 24  1  0  0  0  0
 25 26  1  0  0  0  0
 26 23  1  0  0  0  0
 27 30  2  0  0  0  0
 28 29  1  0  0  0  0
 29 27  2  0  0  0  0
 29  2  1  0  0  0  0
 31 30  1  0  0  0  0
 31 32  1  0  0  0  0
 32 33  1  0  0  0  0
 33 42  1  1  0  0  0
 33 34  1  0  0  0  0
 35 34  1  1  0  0  0
 35 36  1  0  0  0  0
 36 37  1  0  0  0  0
 37 38  2  0  0  0  0
 39 35  1  0  0  0  0
 40 41  1  0  0  0  0
 41 39  1  0  0  0  0
 43 42  1  0  0  0  0
 44 45  2  0  0  0  0
 45 43  1  0  0  0  0
 45 46  1  0  0  0  0
 46 47  1  0  0  0  0
 47 49  1  0  0  0  0
 48 49  1  0  0  0  0
 48 51  1  0  0  0  0
 50 48  2  0  0  0  0
M  END
>  <MODEL>
2

>  <REMARK>
 VINA RESULT:      -5.0      3.058     10.091
  Name = 
  28 active torsions:
  status: ('A' for Active; 'I' for Inactive)
    1  A    between atoms: C_2  and  C_38
    2  A    between atoms: C_3  and  O_7
    3  A    between atoms: C_3  and  C_33
    4  A    between atoms: C_4  and  C_33
    5  A    between atoms: C_4  and  C_39
    6  A    between atoms: N_5  and  C_47
    7  A    between atoms: N_5  and  C_48
    8  A    between atoms: N_9  and  C_15
    9  A    between atoms: C_13  and  C_24
   10  A    between atoms: C_13  and  C_47
   11  A    between atoms: C_15  and  O_36
   12  A    between atoms: C_18  and  O_36
   13  A    between atoms: C_18  and  C_45
   14  A    between atoms: C_19  and  C_51
   15  A    between atoms: C_21  and  C_23
   16  A    between atoms: C_21  and  C_43
   17  A    between atoms: C_22  and  C_28
   18  A    between atoms: C_22  and  O_30
   19  A    between atoms: C_22  and  C_40
   20  A    between atoms: C_23  and  N_49
   21  A    between atoms: C_28  and  C_45
   22  A    between atoms: C_29  and  O_30
   23  A    between atoms: C_29  and  C_50
   24  A    between atoms: C_34  and  C_38
   25  A    between atoms: C_39  and  C_44
   26  A    between atoms: C_39  and  C_51
   27  A    between atoms: C_40  and  C_47
   28  A    between atoms: C_44  and  N_49
                            x       y       z     vdW  Elec       q    Type
                         _______ _______ _______ _____ _____    ______ ____

>  <TORSDO>
F 28

$$$$
=
 OpenBabel11062421233D

 51 53  0  0  1  0  0  0  0  0999 V2000
  192.2270  174.0100  145.3070 C   0  0  0  0  0  1  0  0  0  0  0  0
  193.0320  175.2150  144.8390 C   0  0  1  0  0  3  0  0  0  0  0  0
  194.1610  173.5580  143.2600 C   0  0  0  0  0  2  0  0  0  0  0  0
  194.3470  174.7580  144.1870 C   0  0  1  0  0  3  0  0  0  0  0  0
  197.2010  175.9950  142.4210 O   0  0  0  0  0  0  0  0  0  0  0  0
  197.2290  174.6780  142.9220 C   0  0  1  0  0  3  0  0  0  0  0  0
  196.5570  175.7960  143.6580 C   0  0  2  0  0  3  0  0  0  0  0  0
  196.3460  173.7910  142.0450 C   0  0  2  0  0  3  0  0  0  0  0  0
  195.4810  172.8710  142.9200 C   0  0  2  0  0  3  0  0  0  0  0  0
  195.0480  175.9060  143.4710 C   0  0  0  0  0  2  0  0  0  0  0  0
  197.1730  173.0570  141.1920 O   0  0  0  0  0  1  0  0  0  0  0  0
  195.1770  171.5410  142.2300 C   0  0  0  0  0  2  0  0  0  0  0  0
  193.7030  171.4300  141.8570 C   0  0  1  0  0  3  0  0  0  0  0  0
  193.5330  171.5170  140.3710 C   0  0  0  0  0  0  0  0  0  0  0  0
  194.4670  171.8560  139.6560 O   0  0  0  0  0  0  0  0  0  0  0  0
  192.2040  171.2090  139.7690 C   0  0  0  0  0  2  0  0  0  0  0  0
  191.1900  172.2690  140.1600 C   0  0  0  0  0  2  0  0  0  0  0  0
  189.9550  171.6650  140.3960 O   0  0  0  0  0  0  0  0  0  0  0  0
  189.7960  171.7140  141.7820 C   0  0  0  0  0  1  0  0  0  0  0  0
  193.1040  170.1410  142.4010 C   0  0  0  0  0  2  0  0  0  0  0  0
  194.1370  169.3550  143.0560 N   0  0  0  0  0  2  0  0  0  0  0  0
  193.7870  169.2900  144.4630 C   0  0  0  0  0  2  0  0  0  0  0  0
  194.9760  168.7770  145.2470 C   0  0  0  0  0  2  0  0  0  0  0  0
  196.0500  169.0260  147.4500 C   0  0  0  0  0  2  0  0  0  0  0  0
  196.8430  169.8460  146.4530 C   0  0  0  0  0  2  0  0  0  0  0  0
  195.3320  169.7650  146.3370 C   0  0  0  0  0  3  0  0  0  0  0  0
  191.3420  175.6990  143.1580 C   0  0  0  0  0  0  0  0  0  0  0  0
  192.1670  177.6470  144.2940 C   0  0  0  0  0  1  0  0  0  0  0  0
  192.1750  176.1750  144.0450 C   0  0  0  0  0  0  0  0  0  0  0  0
  190.5170  175.2170  142.2710 C   0  0  0  0  0  3  0  0  0  0  0  0
  189.1520  175.7890  142.1080 C   0  0  0  0  0  2  0  0  0  0  0  0
  188.3480  175.4340  143.1940 O   0  0  0  0  0  0  0  0  0  0  0  0
  187.4610  176.5030  143.3410 C   0  0  2  0  0  3  0  0  0  0  0  0
  186.6520  176.3240  144.6220 C   0  0  0  0  0  2  0  0  0  0  0  0
  187.2180  177.1230  145.8050 C   0  0  1  0  0  3  0  0  0  0  0  0
  186.3270  178.3060  146.1700 C   0  0  0  0  0  2  0  0  0  0  0  0
  185.6340  178.0830  147.4750 C   0  0  0  0  0  3  0  0  0  0  0  0
  184.5670  178.6230  147.7120 O   0  0  0  0  0  0  0  0  0  0  0  0
  187.4030  176.2750  146.9750 N   0  0  0  0  0  2  0  0  0  0  0  0
  189.8070  176.5490  146.9260 C   0  0  0  0  0  1  0  0  0  0  0  0
  188.6620  175.5690  146.8090 C   0  0  0  0  0  2  0  0  0  0  0  0
  186.5250  176.5710  142.1380 C   0  0  0  0  0  2  0  0  0  0  0  0
  186.1720  178.0130  141.7860 C   0  0  0  0  0  2  0  0  0  0  0  0
  184.8120  179.3480  143.2120 O   0  0  0  0  0  0  0  0  0  0  0  0
  184.8530  178.4150  142.3620 C   0  0  0  0  0  0  0  0  0  0  0  0
  183.6850  177.7780  141.9390 O   0  0  0  0  0  0  0  0  0  0  0  0
  182.7560  178.4050  141.0690 C   0  0  0  0  0  2  0  0  0  0  0  0
  180.2510  178.4900  141.3070 C   0  0  0  0  0  0  0  0  0  0  0  0
  181.5590  178.7570  141.8120 N   0  0  0  0  0  2  0  0  0  0  0  0
  180.0950  177.9230  140.1960 O   0  0  0  0  0  0  0  0  0  0  0  0
  179.1100  178.8870  142.0550 N   0  0  0  0  0  1  0  0  0  0  0  0
  2  1  1  6  0  0  0
  3  4  1  0  0  0  0
  4  2  1  6  0  0  0
  5  7  1  0  0  0  0
  6  5  1  6  0  0  0
  6  7  1  0  0  0  0
  7 10  1  6  0  0  0
  8 11  1  6  0  0  0
  8  9  1  0  0  0  0
  8  6  1  0  0  0  0
  9 12  1  6  0  0  0
  9  3  1  0  0  0  0
 10  4  1  0  0  0  0
 13 12  1  6  0  0  0
 13 20  1  0  0  0  0
 14 13  1  0  0  0  0
 15 14  2  0  0  0  0
 16 17  1  0  0  0  0
 16 14  1  0  0  0  0
 17 18  1  0  0  0  0
 18 19  1  0  0  0  0
 20 21  1  0  0  0  0
 21 22  1  0  0  0  0
 22 23  1  0  0  0  0
 23 26  1  0  0  0  0
 25 24  1  0  0  0  0
 26 25  1  0  0  0  0
 26 24  1  0  0  0  0
 27 29  2  0  0  0  0
 29 28  1  0  0  0  0
 29  2  1  0  0  0  0
 30 27  2  0  0  0  0
 31 30  1  0  0  0  0
 31 32  1  0  0  0  0
 32 33  1  0  0  0  0
 33 42  1  6  0  0  0
 33 34  1  0  0  0  0
 35 34  1  6  0  0  0
 35 36  1  0  0  0  0
 35 39  1  0  0  0  0
 36 37  1  0  0  0  0
 37 38  2  0  0  0  0
 41 40  1  0  0  0  0
 41 39  1  0  0  0  0
 43 42  1  0  0  0  0
 43 45  1  0  0  0  0
 45 44  2  0  0  0  0
 46 45  1  0  0  0  0
 47 49  1  0  0  0  0
 47 46  1  0  0  0  0
 48 49  1  0  0  0  0
 48 51  1  0  0  0  0
 50 48  2  0  0  0  0
M  END
>  <MODEL>
3

>  <REMARK>
 VINA RESULT:      -4.8      2.499     10.347
  Name = 
  28 active torsions:
  status: ('A' for Active; 'I' for Inactive)
    1  A    between atoms: C_2  and  C_38
    2  A    between atoms: C_3  and  O_7
    3  A    between atoms: C_3  and  C_33
    4  A    between atoms: C_4  and  C_33
    5  A    between atoms: C_4  and  C_39
    6  A    between atoms: N_5  and  C_47
    7  A    between atoms: N_5  and  C_48
    8  A    between atoms: N_9  and  C_15
    9  A    between atoms: C_13  and  C_24
   10  A    between atoms: C_13  and  C_47
   11  A    between atoms: C_15  and  O_36
   12  A    between atoms: C_18  and  O_36
   13  A    between atoms: C_18  and  C_45
   14  A    between atoms: C_19  and  C_51
   15  A    between atoms: C_21  and  C_23
   16  A    between atoms: C_21  and  C_43
   17  A    between atoms: C_22  and  C_28
   18  A    between atoms: C_22  and  O_30
   19  A    between atoms: C_22  and  C_40
   20  A    between atoms: C_23  and  N_49
   21  A    between atoms: C_28  and  C_45
   22  A    between atoms: C_29  and  O_30
   23  A    between atoms: C_29  and  C_50
   24  A    between atoms: C_34  and  C_38
   25  A    between atoms: C_39  and  C_44
   26  A    between atoms: C_39  and  C_51
   27  A    between atoms: C_40  and  C_47
   28  A    between atoms: C_44  and  N_49
                            x       y       z     vdW  Elec       q    Type
                         _______ _______ _______ _____ _____    ______ ____

>  <TORSDO>
F 28

$$$$
=
 OpenBabel11062421233D

 51 53  0  0  1  0  0  0  0  0999 V2000
  190.1040  177.2700  145.3300 C   0  0  0  0  0  1  0  0  0  0  0  0
  188.9400  176.2880  145.3180 C   0  0  1  0  0  3  0  0  0  0  0  0
  187.7670  177.6170  143.4810 C   0  0  0  0  0  2  0  0  0  0  0  0
  188.2870  176.2500  143.9270 C   0  0  1  0  0  3  0  0  0  0  0  0
  188.8250  175.0880  140.5870 O   0  0  0  0  0  0  0  0  0  0  0  0
  187.5390  175.5310  140.9550 C   0  0  1  0  0  3  0  0  0  0  0  0
  188.4280  174.7890  141.9050 C   0  0  2  0  0  3  0  0  0  0  0  0
  187.5430  177.0570  141.0440 C   0  0  2  0  0  3  0  0  0  0  0  0
  186.7980  177.5180  142.3070 C   0  0  2  0  0  3  0  0  0  0  0  0
  189.2210  175.6470  142.8850 C   0  0  0  0  0  2  0  0  0  0  0  0
  186.9500  177.5650  139.8850 O   0  0  0  0  0  1  0  0  0  0  0  0
  186.1250  178.8770  142.1120 C   0  0  0  0  0  2  0  0  0  0  0  0
  184.6610  178.8390  142.5360 C   0  0  1  0  0  3  0  0  0  0  0  0
  183.8090  178.3110  141.4230 C   0  0  0  0  0  0  0  0  0  0  0  0
  184.3060  178.0140  140.3440 O   0  0  0  0  0  0  0  0  0  0  0  0
  182.3390  178.1710  141.6310 C   0  0  0  0  0  2  0  0  0  0  0  0
  181.6140  178.1850  140.2970 C   0  0  0  0  0  2  0  0  0  0  0  0
  180.4160  178.8900  140.4270 O   0  0  0  0  0  0  0  0  0  0  0  0
  180.3480  179.2230  141.7820 C   0  0  0  0  0  1  0  0  0  0  0  0
  184.4850  178.0080  143.7990 C   0  0  0  0  0  2  0  0  0  0  0  0
  183.7310  178.7640  144.7850 N   0  0  0  0  0  2  0  0  0  0  0  0
  184.1560  178.2940  146.0910 C   0  0  0  0  0  2  0  0  0  0  0  0
  185.5360  178.8390  146.3890 C   0  0  0  0  0  2  0  0  0  0  0  0
  186.3810  176.9860  147.7750 C   0  0  0  0  0  2  0  0  0  0  0  0
  187.4250  178.0830  147.7840 C   0  0  0  0  0  2  0  0  0  0  0  0
  185.9490  178.4400  147.7890 C   0  0  0  0  0  3  0  0  0  0  0  0
  189.5560  173.9420  145.1330 C   0  0  0  0  0  0  0  0  0  0  0  0
  189.5810  174.7770  147.3830 C   0  0  0  0  0  1  0  0  0  0  0  0
  189.3360  174.9600  145.9220 C   0  0  0  0  0  0  0  0  0  0  0  0
  189.7690  172.9300  144.3390 C   0  0  0  0  0  3  0  0  0  0  0  0
  190.8940  171.9870  144.5890 C   0  0  0  0  0  2  0  0  0  0  0  0
  192.0960  172.6890  144.7000 O   0  0  0  0  0  0  0  0  0  0  0  0
  192.4800  172.9440  143.3820 C   0  0  2  0  0  3  0  0  0  0  0  0
  193.2790  171.7600  142.8440 C   0  0  0  0  0  2  0  0  0  0  0  0
  192.9980  171.4710  141.3620 C   0  0  1  0  0  3  0  0  0  0  0  0
  191.5640  171.0050  141.1360 C   0  0  0  0  0  2  0  0  0  0  0  0
  190.7830  172.0100  140.3530 C   0  0  0  0  0  3  0  0  0  0  0  0
  189.5950  171.8390  140.1330 O   0  0  0  0  0  0  0  0  0  0  0  0
  193.2650  172.6410  140.5360 N   0  0  0  0  0  2  0  0  0  0  0  0
  194.8500  170.9080  139.9510 C   0  0  0  0  0  1  0  0  0  0  0  0
  194.3670  172.3090  139.6490 C   0  0  0  0  0  2  0  0  0  0  0  0
  193.3250  174.2140  143.3230 C   0  0  0  0  0  2  0  0  0  0  0  0
  192.9800  175.1670  144.4620 C   0  0  0  0  0  2  0  0  0  0  0  0
  193.9150  175.6820  146.5880 O   0  0  0  0  0  0  0  0  0  0  0  0
  194.1360  175.3660  145.3870 C   0  0  0  0  0  0  0  0  0  0  0  0
  195.4390  175.1760  144.9230 O   0  0  0  0  0  0  0  0  0  0  0  0
  196.2940  174.1790  145.4600 C   0  0  0  0  0  2  0  0  0  0  0  0
  196.1790  171.6780  145.7300 C   0  0  0  0  0  0  0  0  0  0  0  0
  195.5410  172.9530  145.6610 N   0  0  0  0  0  2  0  0  0  0  0  0
  197.4290  171.5800  145.6310 O   0  0  0  0  0  0  0  0  0  0  0  0
  195.3960  170.5040  145.8910 N   0  0  0  0  0  1  0  0  0  0  0  0
  2  1  1  6  0  0  0
  2 29  1  0  0  0  0
  3  4  1  0  0  0  0
  4  2  1  1  0  0  0
  5  7  1  0  0  0  0
  6  5  1  6  0  0  0
  6  8  1  0  0  0  0
  6  7  1  0  0  0  0
  7 10  1  1  0  0  0
  8 11  1  6  0  0  0
  8  9  1  0  0  0  0
  9 12  1  6  0  0  0
  9  3  1  0  0  0  0
 10  4  1  0  0  0  0
 13 12  1  6  0  0  0
 13 20  1  0  0  0  0
 14 16  1  0  0  0  0
 14 13  1  0  0  0  0
 15 14  2  0  0  0  0
 17 18  1  0  0  0  0
 17 16  1  0  0  0  0
 18 19  1  0  0  0  0
 20 21  1  0  0  0  0
 21 22  1  0  0  0  0
 22 23  1  0  0  0  0
 23 26  1  0  0  0  0
 24 25  1  0  0  0  0
 24 26  1  0  0  0  0
 25 26  1  0  0  0  0
 27 29  2  0  0  0  0
 29 28  1  0  0  0  0
 30 31  1  0  0  0  0
 30 27  2  0  0  0  0
 31 32  1  0  0  0  0
 33 34  1  1  0  0  0
 33 32  1  0  0  0  0
 35 36  1  1  0  0  0
 35 34  1  0  0  0  0
 37 36  1  0  0  0  0
 38 37  2  0  0  0  0
 39 35  1  0  0  0  0
 41 40  1  0  0  0  0
 41 39  1  0  0  0  0
 42 33  1  0  0  0  0
 42 43  1  0  0  0  0
 43 45  1  0  0  0  0
 45 44  2  0  0  0  0
 46 45  1  0  0  0  0
 46 47  1  0  0  0  0
 47 49  1  0  0  0  0
 48 51  1  0  0  0  0
 49 48  1  0  0  0  0
 50 48  2  0  0  0  0
M  END
>  <MODEL>
4

>  <REMARK>
 VINA RESULT:      -4.8      1.932      4.015
  Name = 
  28 active torsions:
  status: ('A' for Active; 'I' for Inactive)
    1  A    between atoms: C_2  and  C_38
    2  A    between atoms: C_3  and  O_7
    3  A    between atoms: C_3  and  C_33
    4  A    between atoms: C_4  and  C_33
    5  A    between atoms: C_4  and  C_39
    6  A    between atoms: N_5  and  C_47
    7  A    between atoms: N_5  and  C_48
    8  A    between atoms: N_9  and  C_15
    9  A    between atoms: C_13  and  C_24
   10  A    between atoms: C_13  and  C_47
   11  A    between atoms: C_15  and  O_36
   12  A    between atoms: C_18  and  O_36
   13  A    between atoms: C_18  and  C_45
   14  A    between atoms: C_19  and  C_51
   15  A    between atoms: C_21  and  C_23
   16  A    between atoms: C_21  and  C_43
   17  A    between atoms: C_22  and  C_28
   18  A    between atoms: C_22  and  O_30
   19  A    between atoms: C_22  and  C_40
   20  A    between atoms: C_23  and  N_49
   21  A    between atoms: C_28  and  C_45
   22  A    between atoms: C_29  and  O_30
   23  A    between atoms: C_29  and  C_50
   24  A    between atoms: C_34  and  C_38
   25  A    between atoms: C_39  and  C_44
   26  A    between atoms: C_39  and  C_51
   27  A    between atoms: C_40  and  C_47
   28  A    between atoms: C_44  and  N_49
                            x       y       z     vdW  Elec       q    Type
                         _______ _______ _______ _____ _____    ______ ____

>  <TORSDO>
F 28

$$$$
=
 OpenBabel11062421233D

 51 53  0  0  1  0  0  0  0  0999 V2000
  192.1940  173.7970  144.7700 C   0  0  0  0  0  1  0  0  0  0  0  0
  192.8290  175.0730  144.2350 C   0  0  1  0  0  3  0  0  0  0  0  0
  194.3320  173.6150  142.7760 C   0  0  0  0  0  2  0  0  0  0  0  0
  194.2590  174.7940  143.7460 C   0  0  1  0  0  3  0  0  0  0  0  0
  197.1430  176.4130  142.3830 O   0  0  0  0  0  0  0  0  0  0  0  0
  197.2640  175.0910  142.8550 C   0  0  1  0  0  3  0  0  0  0  0  0
  196.3790  176.0970  143.5230 C   0  0  2  0  0  3  0  0  0  0  0  0
  196.6070  174.1410  141.8530 C   0  0  2  0  0  3  0  0  0  0  0  0
  195.7550  173.0960  142.5920 C   0  0  2  0  0  3  0  0  0  0  0  0
  194.9020  176.0400  143.1490 C   0  0  0  0  0  2  0  0  0  0  0  0
  197.6140  173.5380  141.0960 O   0  0  0  0  0  1  0  0  0  0  0  0
  195.6980  171.7670  141.8400 C   0  0  0  0  0  2  0  0  0  0  0  0
  194.4720  171.6880  140.9380 C   0  0  1  0  0  3  0  0  0  0  0  0
  194.8740  171.8080  139.4990 C   0  0  0  0  0  0  0  0  0  0  0  0
  195.8220  171.1690  139.0620 O   0  0  0  0  0  0  0  0  0  0  0  0
  194.1210  172.7360  138.6060 C   0  0  0  0  0  2  0  0  0  0  0  0
  193.8400  174.0450  139.3230 C   0  0  0  0  0  2  0  0  0  0  0  0
  194.0300  175.1070  138.4380 O   0  0  0  0  0  0  0  0  0  0  0  0
  195.3730  175.0200  138.0640 C   0  0  0  0  0  1  0  0  0  0  0  0
  193.7030  170.3970  141.1840 C   0  0  0  0  0  2  0  0  0  0  0  0
  192.6200  170.2770  140.2220 N   0  0  0  0  0  2  0  0  0  0  0  0
  191.4450  170.8680  140.8350 C   0  0  0  0  0  2  0  0  0  0  0  0
  190.4890  171.3130  139.7480 C   0  0  0  0  0  2  0  0  0  0  0  0
  189.6990  169.7980  137.9750 C   0  0  0  0  0  2  0  0  0  0  0  0
  189.9340  171.1570  137.3500 C   0  0  0  0  0  2  0  0  0  0  0  0
  190.8620  170.6520  138.4390 C   0  0  0  0  0  3  0  0  0  0  0  0
  191.1210  175.0770  142.5040 C   0  0  0  0  0  0  0  0  0  0  0  0
  191.7780  177.2710  143.2240 C   0  0  0  0  0  1  0  0  0  0  0  0
  191.9060  175.7850  143.2720 C   0  0  0  0  0  0  0  0  0  0  0  0
  190.3450  174.3640  141.7370 C   0  0  0  0  0  3  0  0  0  0  0  0
  188.9400  174.7820  141.4730 C   0  0  0  0  0  2  0  0  0  0  0  0
  188.1900  174.7220  142.6500 O   0  0  0  0  0  0  0  0  0  0  0  0
  187.8580  176.0510  142.9250 C   0  0  2  0  0  3  0  0  0  0  0  0
  187.0060  176.1130  144.1890 C   0  0  0  0  0  2  0  0  0  0  0  0
  187.7470  176.7350  145.3820 C   0  0  1  0  0  3  0  0  0  0  0  0
  186.9220  176.6630  146.6630 C   0  0  0  0  0  2  0  0  0  0  0  0
  186.8270  178.0000  147.3240 C   0  0  0  0  0  3  0  0  0  0  0  0
  185.8450  178.7050  147.1620 O   0  0  0  0  0  0  0  0  0  0  0  0
  189.0360  176.0910  145.5970 N   0  0  0  0  0  2  0  0  0  0  0  0
  190.7200  176.4270  147.3010 C   0  0  0  0  0  1  0  0  0  0  0  0
  189.9230  177.0760  146.1930 C   0  0  0  0  0  2  0  0  0  0  0  0
  187.0930  176.6500  141.7490 C   0  0  0  0  0  2  0  0  0  0  0  0
  187.1490  178.1730  141.7640 C   0  0  0  0  0  2  0  0  0  0  0  0
  185.8560  179.4590  143.2940 O   0  0  0  0  0  0  0  0  0  0  0  0
  185.8630  178.7700  142.2370 C   0  0  0  0  0  0  0  0  0  0  0  0
  184.6950  178.5820  141.4950 O   0  0  0  0  0  0  0  0  0  0  0  0
  183.4800  178.1590  142.0950 C   0  0  0  0  0  2  0  0  0  0  0  0
  181.1490  178.6610  141.2860 C   0  0  0  0  0  0  0  0  0  0  0  0
  182.4410  178.0880  141.0830 N   0  0  0  0  0  2  0  0  0  0  0  0
  180.8750  179.2630  142.3550 O   0  0  0  0  0  0  0  0  0  0  0  0
  180.1540  178.5340  140.2800 N   0  0  0  0  0  1  0  0  0  0  0  0
  2  1  1  6  0  0  0
  3  4  1  0  0  0  0
  4  2  1  6  0  0  0
  5  7  1  0  0  0  0
  6  5  1  6  0  0  0
  6  7  1  0  0  0  0
  7 10  1  6  0  0  0
  8 11  1  1  0  0  0
  8  9  1  0  0  0  0
  8  6  1  0  0  0  0
  9 12  1  6  0  0  0
  9  3  1  0  0  0  0
 10  4  1  0  0  0  0
 13 20  1  6  0  0  0
 13 12  1  0  0  0  0
 14 13  1  0  0  0  0
 15 14  2  0  0  0  0
 16 17  1  0  0  0  0
 16 14  1  0  0  0  0
 18 17  1  0  0  0  0
 19 18  1  0  0  0  0
 21 22  1  0  0  0  0
 21 20  1  0  0  0  0
 23 22  1  0  0  0  0
 24 26  1  0  0  0  0
 25 24  1  0  0  0  0
 25 26  1  0  0  0  0
 26 23  1  0  0  0  0
 27 29  2  0  0  0  0
 28 29  1  0  0  0  0
 29  2  1  0  0  0  0
 30 27  2  0  0  0  0
 31 30  1  0  0  0  0
 31 32  1  0  0  0  0
 32 33  1  0  0  0  0
 33 42  1  6  0  0  0
 33 34  1  0  0  0  0
 35 34  1  6  0  0  0
 35 39  1  0  0  0  0
 35 36  1  0  0  0  0
 36 37  1  0  0  0  0
 38 37  2  0  0  0  0
 39 41  1  0  0  0  0
 41 40  1  0  0  0  0
 42 43  1  0  0  0  0
 43 45  1  0  0  0  0
 45 44  2  0  0  0  0
 46 47  1  0  0  0  0
 46 45  1  0  0  0  0
 48 50  2  0  0  0  0
 49 48  1  0  0  0  0
 49 47  1  0  0  0  0
 51 48  1  0  0  0  0
M  END
>  <MODEL>
5

>  <REMARK>
 VINA RESULT:      -4.7      2.815     10.170
  Name = 
  28 active torsions:
  status: ('A' for Active; 'I' for Inactive)
    1  A    between atoms: C_2  and  C_38
    2  A    between atoms: C_3  and  O_7
    3  A    between atoms: C_3  and  C_33
    4  A    between atoms: C_4  and  C_33
    5  A    between atoms: C_4  and  C_39
    6  A    between atoms: N_5  and  C_47
    7  A    between atoms: N_5  and  C_48
    8  A    between atoms: N_9  and  C_15
    9  A    between atoms: C_13  and  C_24
   10  A    between atoms: C_13  and  C_47
   11  A    between atoms: C_15  and  O_36
   12  A    between atoms: C_18  and  O_36
   13  A    between atoms: C_18  and  C_45
   14  A    between atoms: C_19  and  C_51
   15  A    between atoms: C_21  and  C_23
   16  A    between atoms: C_21  and  C_43
   17  A    between atoms: C_22  and  C_28
   18  A    between atoms: C_22  and  O_30
   19  A    between atoms: C_22  and  C_40
   20  A    between atoms: C_23  and  N_49
   21  A    between atoms: C_28  and  C_45
   22  A    between atoms: C_29  and  O_30
   23  A    between atoms: C_29  and  C_50
   24  A    between atoms: C_34  and  C_38
   25  A    between atoms: C_39  and  C_44
   26  A    between atoms: C_39  and  C_51
   27  A    between atoms: C_40  and  C_47
   28  A    between atoms: C_44  and  N_49
                            x       y       z     vdW  Elec       q    Type
                         _______ _______ _______ _____ _____    ______ ____

>  <TORSDO>
F 28

$$$$
=
 OpenBabel11062421233D

 51 53  0  0  1  0  0  0  0  0999 V2000
  189.9190  177.4150  145.3750 C   0  0  0  0  0  1  0  0  0  0  0  0
  188.8230  176.3570  145.3560 C   0  0  1  0  0  3  0  0  0  0  0  0
  187.7130  177.6330  143.4440 C   0  0  0  0  0  2  0  0  0  0  0  0
  188.1850  176.2740  143.9600 C   0  0  1  0  0  3  0  0  0  0  0  0
  188.7240  174.9400  140.6860 O   0  0  0  0  0  0  0  0  0  0  0  0
  187.4490  175.4380  141.0150 C   0  0  1  0  0  3  0  0  0  0  0  0
  188.3030  174.7160  142.0110 C   0  0  2  0  0  3  0  0  0  0  0  0
  187.4990  176.9660  141.0330 C   0  0  2  0  0  3  0  0  0  0  0  0
  186.7540  177.5090  142.2630 C   0  0  2  0  0  3  0  0  0  0  0  0
  189.1110  175.5940  142.9590 C   0  0  0  0  0  2  0  0  0  0  0  0
  186.9350  177.4360  139.8440 O   0  0  0  0  0  1  0  0  0  0  0  0
  186.1260  178.8760  141.9970 C   0  0  0  0  0  2  0  0  0  0  0  0
  184.6630  178.9100  142.4230 C   0  0  1  0  0  3  0  0  0  0  0  0
  183.7880  178.3780  141.3290 C   0  0  0  0  0  0  0  0  0  0  0  0
  184.2560  178.1140  140.2290 O   0  0  0  0  0  0  0  0  0  0  0  0
  182.3300  178.1940  141.5840 C   0  0  0  0  0  2  0  0  0  0  0  0
  181.5840  178.0200  140.2730 C   0  0  0  0  0  2  0  0  0  0  0  0
  180.3280  178.6210  140.3710 O   0  0  0  0  0  0  0  0  0  0  0  0
  180.2550  179.0730  141.6910 C   0  0  0  0  0  1  0  0  0  0  0  0
  184.4580  178.1300  143.7140 C   0  0  0  0  0  2  0  0  0  0  0  0
  183.7420  178.9500  144.6770 N   0  0  0  0  0  2  0  0  0  0  0  0
  184.1330  178.4870  145.9960 C   0  0  0  0  0  2  0  0  0  0  0  0
  185.5710  178.8840  146.2550 C   0  0  0  0  0  2  0  0  0  0  0  0
  186.2490  177.2280  147.9490 C   0  0  0  0  0  2  0  0  0  0  0  0
  187.3500  178.2630  147.8470 C   0  0  0  0  0  2  0  0  0  0  0  0
  185.8970  178.6860  147.7200 C   0  0  0  0  0  3  0  0  0  0  0  0
  189.9920  174.2280  145.2330 C   0  0  0  0  0  0  0  0  0  0  0  0
  189.1010  174.7210  147.4060 C   0  0  0  0  0  1  0  0  0  0  0  0
  189.3010  175.0590  145.9660 C   0  0  0  0  0  0  0  0  0  0  0  0
  190.6760  173.4010  144.4920 C   0  0  0  0  0  3  0  0  0  0  0  0
  191.8490  172.6700  145.0480 C   0  0  0  0  0  2  0  0  0  0  0  0
  192.8040  173.5760  145.5160 O   0  0  0  0  0  0  0  0  0  0  0  0
  193.8630  173.4710  144.6120 C   0  0  2  0  0  3  0  0  0  0  0  0
  194.9580  172.5900  145.2080 C   0  0  0  0  0  2  0  0  0  0  0  0
  195.3770  171.4420  144.2780 C   0  0  1  0  0  3  0  0  0  0  0  0
  194.3650  170.3000  144.2960 C   0  0  0  0  0  2  0  0  0  0  0  0
  193.7420  170.1060  142.9510 C   0  0  0  0  0  3  0  0  0  0  0  0
  192.8520  169.2880  142.7920 O   0  0  0  0  0  0  0  0  0  0  0  0
  195.5590  171.9100  142.9110 N   0  0  0  0  0  2  0  0  0  0  0  0
  197.7200  171.2610  143.7870 C   0  0  0  0  0  1  0  0  0  0  0  0
  196.9550  171.7030  142.5600 C   0  0  0  0  0  2  0  0  0  0  0  0
  194.4200  174.8570  144.3010 C   0  0  0  0  0  2  0  0  0  0  0  0
  195.8070  175.0500  144.9040 C   0  0  0  0  0  2  0  0  0  0  0  0
  197.9410  174.9980  143.8510 O   0  0  0  0  0  0  0  0  0  0  0  0
  196.7930  175.5210  143.8850 C   0  0  0  0  0  0  0  0  0  0  0  0
  196.4280  176.5100  142.9680 O   0  0  0  0  0  0  0  0  0  0  0  0
  196.3930  176.2680  141.5700 C   0  0  0  0  0  2  0  0  0  0  0  0
  195.2680  174.6520  140.0010 C   0  0  0  0  0  0  0  0  0  0  0  0
  195.6920  175.0220  141.3120 N   0  0  0  0  0  2  0  0  0  0  0  0
  195.5040  175.3970  139.0160 O   0  0  0  0  0  0  0  0  0  0  0  0
  194.5540  173.4400  139.8050 N   0  0  0  0  0  1  0  0  0  0  0  0
  2  1  1  6  0  0  0
  2 29  1  0  0  0  0
  3  4  1  0  0  0  0
  4  2  1  1  0  0  0
  5  7  1  0  0  0  0
  6  5  1  6  0  0  0
  6  8  1  0  0  0  0
  6  7  1  0  0  0  0
  7 10  1  1  0  0  0
  8 11  1  6  0  0  0
  8  9  1  0  0  0  0
  9 12  1  6  0  0  0
  9  3  1  0  0  0  0
 10  4  1  0  0  0  0
 13 12  1  6  0  0  0
 13 20  1  0  0  0  0
 14 16  1  0  0  0  0
 14 13  1  0  0  0  0
 15 14  2  0  0  0  0
 17 18  1  0  0  0  0
 17 16  1  0  0  0  0
 18 19  1  0  0  0  0
 20 21  1  0  0  0  0
 21 22  1  0  0  0  0
 22 23  1  0  0  0  0
 23 26  1  0  0  0  0
 25 24  1  0  0  0  0
 26 25  1  0  0  0  0
 26 24  1  0  0  0  0
 27 29  2  0  0  0  0
 29 28  1  0  0  0  0
 30 31  1  0  0  0  0
 30 27  2  0  0  0  0
 31 32  1  0  0  0  0
 33 42  1  1  0  0  0
 33 34  1  0  0  0  0
 33 32  1  0  0  0  0
 35 36  1  6  0  0  0
 35 34  1  0  0  0  0
 37 36  1  0  0  0  0
 38 37  2  0  0  0  0
 39 35  1  0  0  0  0
 41 39  1  0  0  0  0
 41 40  1  0  0  0  0
 42 43  1  0  0  0  0
 44 45  2  0  0  0  0
 45 43  1  0  0  0  0
 46 45  1  0  0  0  0
 47 46  1  0  0  0  0
 48 49  1  0  0  0  0
 49 47  1  0  0  0  0
 50 48  2  0  0  0  0
 51 48  1  0  0  0  0
M  END
>  <MODEL>
6

>  <REMARK>
 VINA RESULT:      -4.6      1.656      2.306
  Name = 
  28 active torsions:
  status: ('A' for Active; 'I' for Inactive)
    1  A    between atoms: C_2  and  C_38
    2  A    between atoms: C_3  and  O_7
    3  A    between atoms: C_3  and  C_33
    4  A    between atoms: C_4  and  C_33
    5  A    between atoms: C_4  and  C_39
    6  A    between atoms: N_5  and  C_47
    7  A    between atoms: N_5  and  C_48
    8  A    between atoms: N_9  and  C_15
    9  A    between atoms: C_13  and  C_24
   10  A    between atoms: C_13  and  C_47
   11  A    between atoms: C_15  and  O_36
   12  A    between atoms: C_18  and  O_36
   13  A    between atoms: C_18  and  C_45
   14  A    between atoms: C_19  and  C_51
   15  A    between atoms: C_21  and  C_23
   16  A    between atoms: C_21  and  C_43
   17  A    between atoms: C_22  and  C_28
   18  A    between atoms: C_22  and  O_30
   19  A    between atoms: C_22  and  C_40
   20  A    between atoms: C_23  and  N_49
   21  A    between atoms: C_28  and  C_45
   22  A    between atoms: C_29  and  O_30
   23  A    between atoms: C_29  and  C_50
   24  A    between atoms: C_34  and  C_38
   25  A    between atoms: C_39  and  C_44
   26  A    between atoms: C_39  and  C_51
   27  A    between atoms: C_40  and  C_47
   28  A    between atoms: C_44  and  N_49
                            x       y       z     vdW  Elec       q    Type
                         _______ _______ _______ _____ _____    ______ ____

>  <TORSDO>
F 28

$$$$
=
 OpenBabel11062421233D

 51 53  0  0  1  0  0  0  0  0999 V2000
  191.1030  172.4510  144.6470 C   0  0  0  0  0  1  0  0  0  0  0  0
  192.0950  173.1110  143.6980 C   0  0  1  0  0  3  0  0  0  0  0  0
  194.2920  172.7620  142.4460 C   0  0  0  0  0  2  0  0  0  0  0  0
  193.2180  172.1280  143.3300 C   0  0  1  0  0  3  0  0  0  0  0  0
  195.4580  169.7360  144.7640 O   0  0  0  0  0  0  0  0  0  0  0  0
  195.3130  169.7780  143.3640 C   0  0  1  0  0  3  0  0  0  0  0  0
  194.1630  170.0240  144.2910 C   0  0  2  0  0  3  0  0  0  0  0  0
  196.0470  171.0060  142.8230 C   0  0  2  0  0  3  0  0  0  0  0  0
  195.1830  171.7220  141.7720 C   0  0  2  0  0  3  0  0  0  0  0  0
  193.8300  171.4860  144.5690 C   0  0  0  0  0  2  0  0  0  0  0  0
  197.2650  170.5860  142.2830 O   0  0  0  0  0  1  0  0  0  0  0  0
  196.0310  172.4190  140.7090 C   0  0  0  0  0  2  0  0  0  0  0  0
  195.1910  173.3610  139.8550 C   0  0  1  0  0  3  0  0  0  0  0  0
  196.0030  174.5470  139.4320 C   0  0  0  0  0  0  0  0  0  0  0  0
  196.6970  175.1470  140.2420 O   0  0  0  0  0  0  0  0  0  0  0  0
  195.9410  175.0070  138.0150 C   0  0  0  0  0  2  0  0  0  0  0  0
  197.2580  174.7310  137.3120 C   0  0  0  0  0  2  0  0  0  0  0  0
  197.0550  174.7320  135.9310 O   0  0  0  0  0  0  0  0  0  0  0  0
  197.9410  175.6960  135.4440 C   0  0  0  0  0  1  0  0  0  0  0  0
  194.6220  172.6300  138.6460 C   0  0  0  0  0  2  0  0  0  0  0  0
  193.2410  173.0310  138.4330 N   0  0  0  0  0  2  0  0  0  0  0  0
  192.5010  171.8270  138.1020 C   0  0  0  0  0  2  0  0  0  0  0  0
  192.7490  170.7820  139.1690 C   0  0  0  0  0  2  0  0  0  0  0  0
  190.3940  171.1590  139.7850 C   0  0  0  0  0  2  0  0  0  0  0  0
  190.8270  169.8420  140.3940 C   0  0  0  0  0  2  0  0  0  0  0  0
  191.8010  171.0030  140.3280 C   0  0  0  0  0  3  0  0  0  0  0  0
  190.0800  173.8060  142.5260 C   0  0  0  0  0  0  0  0  0  0  0  0
  192.1110  174.5500  141.4870 C   0  0  0  0  0  1  0  0  0  0  0  0
  191.3860  173.7960  142.5510 C   0  0  0  0  0  0  0  0  0  0  0  0
  188.7760  173.8050  142.5050 C   0  0  0  0  0  3  0  0  0  0  0  0
  188.0200  175.0170  142.0840 C   0  0  0  0  0  2  0  0  0  0  0  0
  188.7610  176.1680  142.3610 O   0  0  0  0  0  0  0  0  0  0  0  0
  188.2430  176.6400  143.5700 C   0  0  2  0  0  3  0  0  0  0  0  0
  187.5240  177.9650  143.3360 C   0  0  0  0  0  2  0  0  0  0  0  0
  186.0220  177.8960  143.6480 C   0  0  1  0  0  3  0  0  0  0  0  0
  185.7270  178.2600  145.1000 C   0  0  0  0  0  2  0  0  0  0  0  0
  185.4300  177.0430  145.9160 C   0  0  0  0  0  3  0  0  0  0  0  0
  186.2260  176.6450  146.7490 O   0  0  0  0  0  0  0  0  0  0  0  0
  185.2580  178.7650  142.7640 N   0  0  0  0  0  2  0  0  0  0  0  0
  183.5570  178.3020  141.1060 C   0  0  0  0  0  1  0  0  0  0  0  0
  184.9720  178.0140  141.5530 C   0  0  0  0  0  2  0  0  0  0  0  0
  189.3720  176.8290  144.5790 C   0  0  0  0  0  2  0  0  0  0  0  0
  190.2540  178.0180  144.2140 C   0  0  0  0  0  2  0  0  0  0  0  0
  192.0500  177.5620  142.7210 O   0  0  0  0  0  0  0  0  0  0  0  0
  191.6570  177.5960  143.9200 C   0  0  0  0  0  0  0  0  0  0  0  0
  192.5200  177.2700  144.9680 O   0  0  0  0  0  0  0  0  0  0  0  0
  193.1110  175.9860  145.0880 C   0  0  0  0  0  2  0  0  0  0  0  0
  195.5510  175.4220  144.8260 C   0  0  0  0  0  0  0  0  0  0  0  0
  194.3300  175.9380  144.2990 N   0  0  0  0  0  2  0  0  0  0  0  0
  195.6050  174.9750  145.9990 O   0  0  0  0  0  0  0  0  0  0  0  0
  196.7250  175.4300  144.0260 N   0  0  0  0  0  1  0  0  0  0  0  0
  2  1  1  6  0  0  0
  3  4  1  0  0  0  0
  4  2  1  1  0  0  0
  4 10  1  0  0  0  0
  6  7  1  0  0  0  0
  6  5  1  1  0  0  0
  7 10  1  1  0  0  0
  7  5  1  0  0  0  0
  8 11  1  6  0  0  0
  8  6  1  0  0  0  0
  9 12  1  6  0  0  0
  9  3  1  0  0  0  0
  9  8  1  0  0  0  0
 13 20  1  6  0  0  0
 13 12  1  0  0  0  0
 14 13  1  0  0  0  0
 14 15  2  0  0  0  0
 16 14  1  0  0  0  0
 17 16  1  0  0  0  0
 18 17  1  0  0  0  0
 19 18  1  0  0  0  0
 21 20  1  0  0  0  0
 22 21  1  0  0  0  0
 22 23  1  0  0  0  0
 23 26  1  0  0  0  0
 24 26  1  0  0  0  0
 24 25  1  0  0  0  0
 26 25  1  0  0  0  0
 27 29  2  0  0  0  0
 28 29  1  0  0  0  0
 29  2  1  0  0  0  0
 30 27  2  0  0  0  0
 31 32  1  0  0  0  0
 31 30  1  0  0  0  0
 32 33  1  0  0  0  0
 33 34  1  6  0  0  0
 33 42  1  0  0  0  0
 35 34  1  6  0  0  0
 35 36  1  0  0  0  0
 36 37  1  0  0  0  0
 37 38  2  0  0  0  0
 39 35  1  0  0  0  0
 40 41  1  0  0  0  0
 41 39  1  0  0  0  0
 43 42  1  0  0  0  0
 44 45  2  0  0  0  0
 45 43  1  0  0  0  0
 45 46  1  0  0  0  0
 46 47  1  0  0  0  0
 48 50  2  0  0  0  0
 49 48  1  0  0  0  0
 49 47  1  0  0  0  0
 51 48  1  0  0  0  0
M  END
>  <MODEL>
7

>  <REMARK>
 VINA RESULT:      -4.4      2.712      9.834
  Name = 
  28 active torsions:
  status: ('A' for Active; 'I' for Inactive)
    1  A    between atoms: C_2  and  C_38
    2  A    between atoms: C_3  and  O_7
    3  A    between atoms: C_3  and  C_33
    4  A    between atoms: C_4  and  C_33
    5  A    between atoms: C_4  and  C_39
    6  A    between atoms: N_5  and  C_47
    7  A    between atoms: N_5  and  C_48
    8  A    between atoms: N_9  and  C_15
    9  A    between atoms: C_13  and  C_24
   10  A    between atoms: C_13  and  C_47
   11  A    between atoms: C_15  and  O_36
   12  A    between atoms: C_18  and  O_36
   13  A    between atoms: C_18  and  C_45
   14  A    between atoms: C_19  and  C_51
   15  A    between atoms: C_21  and  C_23
   16  A    between atoms: C_21  and  C_43
   17  A    between atoms: C_22  and  C_28
   18  A    between atoms: C_22  and  O_30
   19  A    between atoms: C_22  and  C_40
   20  A    between atoms: C_23  and  N_49
   21  A    between atoms: C_28  and  C_45
   22  A    between atoms: C_29  and  O_30
   23  A    between atoms: C_29  and  C_50
   24  A    between atoms: C_34  and  C_38
   25  A    between atoms: C_39  and  C_44
   26  A    between atoms: C_39  and  C_51
   27  A    between atoms: C_40  and  C_47
   28  A    between atoms: C_44  and  N_49
                            x       y       z     vdW  Elec       q    Type
                         _______ _______ _______ _____ _____    ______ ____

>  <TORSDO>
F 28

$$$$
=
 OpenBabel11062421233D

 51 53  0  0  1  0  0  0  0  0999 V2000
  192.3490  174.3320  145.1560 C   0  0  0  0  0  1  0  0  0  0  0  0
  192.9840  175.5550  144.5080 C   0  0  1  0  0  3  0  0  0  0  0  0
  194.3270  174.0190  142.9750 C   0  0  0  0  0  2  0  0  0  0  0  0
  194.3690  175.2020  143.9420 C   0  0  1  0  0  3  0  0  0  0  0  0
  197.2540  176.6670  142.4170 O   0  0  0  0  0  0  0  0  0  0  0  0
  197.3320  175.3410  142.8870 C   0  0  1  0  0  3  0  0  0  0  0  0
  196.5380  176.3930  143.5990 C   0  0  2  0  0  3  0  0  0  0  0  0
  196.5730  174.4250  141.9270 C   0  0  2  0  0  3  0  0  0  0  0  0
  195.7100  173.4270  142.7150 C   0  0  2  0  0  3  0  0  0  0  0  0
  195.0420  176.4120  143.3060 C   0  0  0  0  0  2  0  0  0  0  0  0
  197.5040  173.7690  141.1190 O   0  0  0  0  0  1  0  0  0  0  0  0
  195.5430  172.1010  141.9730 C   0  0  0  0  0  2  0  0  0  0  0  0
  194.0920  171.8660  141.5700 C   0  0  1  0  0  3  0  0  0  0  0  0
  193.9290  172.0280  140.0890 C   0  0  0  0  0  0  0  0  0  0  0  0
  193.9250  173.1420  139.5810 O   0  0  0  0  0  0  0  0  0  0  0  0
  193.7450  170.8180  139.2380 C   0  0  0  0  0  2  0  0  0  0  0  0
  192.6980  171.0790  138.1690 C   0  0  0  0  0  2  0  0  0  0  0  0
  193.3240  171.2060  136.9290 O   0  0  0  0  0  0  0  0  0  0  0  0
  192.3240  171.6750  136.0740 C   0  0  0  0  0  1  0  0  0  0  0  0
  193.6210  170.4910  142.0240 C   0  0  0  0  0  2  0  0  0  0  0  0
  193.4680  170.4750  143.4690 N   0  0  0  0  0  2  0  0  0  0  0  0
  194.2480  169.3560  143.9620 C   0  0  0  0  0  2  0  0  0  0  0  0
  194.7130  169.6570  145.3710 C   0  0  0  0  0  2  0  0  0  0  0  0
  197.0410  169.8540  146.1520 C   0  0  0  0  0  2  0  0  0  0  0  0
  196.2900  168.9930  147.1470 C   0  0  0  0  0  2  0  0  0  0  0  0
  195.9800  168.8850  145.6650 C   0  0  0  0  0  3  0  0  0  0  0  0
  191.1340  175.5270  142.9290 C   0  0  0  0  0  0  0  0  0  0  0  0
  191.9670  177.7270  143.4080 C   0  0  0  0  0  1  0  0  0  0  0  0
  192.0200  176.2440  143.5690 C   0  0  0  0  0  0  0  0  0  0  0  0
  190.2580  174.8040  142.2900 C   0  0  0  0  0  3  0  0  0  0  0  0
  188.8590  175.2830  142.1090 C   0  0  0  0  0  2  0  0  0  0  0  0
  188.1570  175.1850  143.3120 O   0  0  0  0  0  0  0  0  0  0  0  0
  187.4310  176.3760  143.3960 C   0  0  2  0  0  3  0  0  0  0  0  0
  186.6730  176.4210  144.7190 C   0  0  0  0  0  2  0  0  0  0  0  0
  187.5910  176.6480  145.9290 C   0  0  1  0  0  3  0  0  0  0  0  0
  188.9520  177.1960  145.5130 C   0  0  0  0  0  2  0  0  0  0  0  0
  189.9710  176.9920  146.5880 C   0  0  0  0  0  3  0  0  0  0  0  0
  190.3270  175.8680  146.9000 O   0  0  0  0  0  0  0  0  0  0  0  0
  186.9780  177.5480  146.8960 N   0  0  0  0  0  2  0  0  0  0  0  0
  184.8520  178.5760  147.4270 C   0  0  0  0  0  1  0  0  0  0  0  0
  185.7220  178.0100  146.3280 C   0  0  0  0  0  2  0  0  0  0  0  0
  186.4520  176.4710  142.2290 C   0  0  0  0  0  2  0  0  0  0  0  0
  186.2680  177.9130  141.7700 C   0  0  0  0  0  2  0  0  0  0  0  0
  185.4940  179.5400  143.3250 O   0  0  0  0  0  0  0  0  0  0  0  0
  185.1880  178.6040  142.5370 C   0  0  0  0  0  0  0  0  0  0  0  0
  183.8550  178.2260  142.3560 O   0  0  0  0  0  0  0  0  0  0  0  0
  183.3210  177.9310  141.0750 C   0  0  0  0  0  2  0  0  0  0  0  0
  181.0160  178.9360  140.9570 C   0  0  0  0  0  0  0  0  0  0  0  0
  182.4140  178.9920  140.6740 N   0  0  0  0  0  2  0  0  0  0  0  0
  180.5260  177.9610  141.5820 O   0  0  0  0  0  0  0  0  0  0  0  0
  180.1630  179.9810  140.5120 N   0  0  0  0  0  1  0  0  0  0  0  0
  2  1  1  6  0  0  0
  3  4  1  0  0  0  0
  4  2  1  6  0  0  0
  5  7  1  0  0  0  0
  6  5  1  6  0  0  0
  6  7  1  0  0  0  0
  7 10  1  6  0  0  0
  8 11  1  1  0  0  0
  8  9  1  0  0  0  0
  8  6  1  0  0  0  0
  9 12  1  6  0  0  0
  9  3  1  0  0  0  0
 10  4  1  0  0  0  0
 13 12  1  6  0  0  0
 13 20  1  0  0  0  0
 14 13  1  0  0  0  0
 15 14  2  0  0  0  0
 16 14  1  0  0  0  0
 17 16  1  0  0  0  0
 18 17  1  0  0  0  0
 19 18  1  0  0  0  0
 20 21  1  0  0  0  0
 21 22  1  0  0  0  0
 22 23  1  0  0  0  0
 23 26  1  0  0  0  0
 24 25  1  0  0  0  0
 26 24  1  0  0  0  0
 26 25  1  0  0  0  0
 27 29  2  0  0  0  0
 28 29  1  0  0  0  0
 29  2  1  0  0  0  0
 30 27  2  0  0  0  0
 31 30  1  0  0  0  0
 31 32  1  0  0  0  0
 32 33  1  0  0  0  0
 33 42  1  6  0  0  0
 33 34  1  0  0  0  0
 35 34  1  6  0  0  0
 35 39  1  0  0  0  0
 36 35  1  0  0  0  0
 36 37  1  0  0  0  0
 37 38  2  0  0  0  0
 41 39  1  0  0  0  0
 41 40  1  0  0  0  0
 43 42  1  0  0  0  0
 43 45  1  0  0  0  0
 45 44  2  0  0  0  0
 46 45  1  0  0  0  0
 47 46  1  0  0  0  0
 48 50  2  0  0  0  0
 49 48  1  0  0  0  0
 49 47  1  0  0  0  0
 51 48  1  0  0  0  0
M  END
>  <MODEL>
8

>  <REMARK>
 VINA RESULT:      -4.3      2.400     10.332
  Name = 
  28 active torsions:
  status: ('A' for Active; 'I' for Inactive)
    1  A    between atoms: C_2  and  C_38
    2  A    between atoms: C_3  and  O_7
    3  A    between atoms: C_3  and  C_33
    4  A    between atoms: C_4  and  C_33
    5  A    between atoms: C_4  and  C_39
    6  A    between atoms: N_5  and  C_47
    7  A    between atoms: N_5  and  C_48
    8  A    between atoms: N_9  and  C_15
    9  A    between atoms: C_13  and  C_24
   10  A    between atoms: C_13  and  C_47
   11  A    between atoms: C_15  and  O_36
   12  A    between atoms: C_18  and  O_36
   13  A    between atoms: C_18  and  C_45
   14  A    between atoms: C_19  and  C_51
   15  A    between atoms: C_21  and  C_23
   16  A    between atoms: C_21  and  C_43
   17  A    between atoms: C_22  and  C_28
   18  A    between atoms: C_22  and  O_30
   19  A    between atoms: C_22  and  C_40
   20  A    between atoms: C_23  and  N_49
   21  A    between atoms: C_28  and  C_45
   22  A    between atoms: C_29  and  O_30
   23  A    between atoms: C_29  and  C_50
   24  A    between atoms: C_34  and  C_38
   25  A    between atoms: C_39  and  C_44
   26  A    between atoms: C_39  and  C_51
   27  A    between atoms: C_40  and  C_47
   28  A    between atoms: C_44  and  N_49
                            x       y       z     vdW  Elec       q    Type
                         _______ _______ _______ _____ _____    ______ ____

>  <TORSDO>
F 28

$$$$
=
 OpenBabel11062421233D

 51 53  0  0  1  0  0  0  0  0999 V2000
  192.0750  176.7050  143.1770 C   0  0  0  0  0  1  0  0  0  0  0  0
  192.4320  175.6150  144.1790 C   0  0  1  0  0  3  0  0  0  0  0  0
  194.1800  173.8650  143.5510 C   0  0  0  0  0  2  0  0  0  0  0  0
  193.9280  175.2740  144.0880 C   0  0  1  0  0  3  0  0  0  0  0  0
  197.0480  176.5560  142.9000 O   0  0  0  0  0  0  0  0  0  0  0  0
  197.0540  175.4410  143.7600 C   0  0  1  0  0  3  0  0  0  0  0  0
  196.0650  176.5550  143.9080 C   0  0  2  0  0  3  0  0  0  0  0  0
  196.6020  174.2060  142.9810 C   0  0  2  0  0  3  0  0  0  0  0  0
  195.6050  173.3860  143.8150 C   0  0  2  0  0  3  0  0  0  0  0  0
  194.6940  176.3170  143.2850 C   0  0  0  0  0  2  0  0  0  0  0  0
  197.7340  173.4550  142.6540 O   0  0  0  0  0  1  0  0  0  0  0  0
  195.6850  171.8920  143.5010 C   0  0  0  0  0  2  0  0  0  0  0  0
  196.6910  171.1860  144.4020 C   0  0  1  0  0  3  0  0  0  0  0  0
  196.0220  170.6960  145.6500 C   0  0  0  0  0  0  0  0  0  0  0  0
  196.6760  170.4670  146.6590 O   0  0  0  0  0  0  0  0  0  0  0  0
  194.5480  170.4650  145.6450 C   0  0  0  0  0  2  0  0  0  0  0  0
  194.2470  168.9840  145.4980 C   0  0  0  0  0  2  0  0  0  0  0  0
  192.9440  168.8200  145.0260 O   0  0  0  0  0  0  0  0  0  0  0  0
  193.0920  168.1800  143.7940 C   0  0  0  0  0  1  0  0  0  0  0  0
  197.3690  170.0410  143.6610 C   0  0  0  0  0  2  0  0  0  0  0  0
  197.1200  170.1620  142.2340 N   0  0  0  0  0  2  0  0  0  0  0  0
  197.1780  168.8210  141.6830 C   0  0  0  0  0  2  0  0  0  0  0  0
  195.7700  168.3330  141.4140 C   0  0  0  0  0  2  0  0  0  0  0  0
  193.8630  168.4270  139.8570 C   0  0  0  0  0  2  0  0  0  0  0  0
  193.9480  169.7630  140.5650 C   0  0  0  0  0  2  0  0  0  0  0  0
  195.2180  169.0240  140.1850 C   0  0  0  0  0  3  0  0  0  0  0  0
  190.8370  176.7040  145.6590 C   0  0  0  0  0  0  0  0  0  0  0  0
  192.4380  175.3290  146.8010 C   0  0  0  0  0  1  0  0  0  0  0  0
  191.8870  175.9340  145.5530 C   0  0  0  0  0  0  0  0  0  0  0  0
  189.7930  177.4790  145.7560 C   0  0  0  0  0  3  0  0  0  0  0  0
  188.7160  177.1870  146.7420 C   0  0  0  0  0  2  0  0  0  0  0  0
  187.9720  176.0790  146.3300 O   0  0  0  0  0  0  0  0  0  0  0  0
  187.1120  176.5760  145.3480 C   0  0  2  0  0  3  0  0  0  0  0  0
  185.6790  176.5680  145.8720 C   0  0  0  0  0  2  0  0  0  0  0  0
  185.0200  177.9550  145.8380 C   0  0  1  0  0  3  0  0  0  0  0  0
  184.6030  178.4190  147.2300 C   0  0  0  0  0  2  0  0  0  0  0  0
  185.7750  178.9250  148.0080 C   0  0  0  0  0  3  0  0  0  0  0  0
  186.2050  180.0510  147.8210 O   0  0  0  0  0  0  0  0  0  0  0  0
  185.9050  178.9450  145.2400 N   0  0  0  0  0  2  0  0  0  0  0  0
  184.4570  178.8760  143.3020 C   0  0  0  0  0  1  0  0  0  0  0  0
  185.1040  179.7610  144.3420 C   0  0  0  0  0  2  0  0  0  0  0  0
  187.2120  175.7200  144.0880 C   0  0  0  0  0  2  0  0  0  0  0  0
  186.5170  176.3860  142.9050 C   0  0  0  0  0  2  0  0  0  0  0  0
  187.4370  177.1750  140.8570 O   0  0  0  0  0  0  0  0  0  0  0  0
  187.2820  176.1940  141.6360 C   0  0  0  0  0  0  0  0  0  0  0  0
  187.8350  174.9470  141.3380 O   0  0  0  0  0  0  0  0  0  0  0  0
  189.2340  174.7550  141.1990 C   0  0  0  0  0  2  0  0  0  0  0  0
  189.8970  172.8010  139.7560 C   0  0  0  0  0  0  0  0  0  0  0  0
  189.5130  173.3410  141.0200 N   0  0  0  0  0  2  0  0  0  0  0  0
  190.0190  173.5460  138.7500 O   0  0  0  0  0  0  0  0  0  0  0  0
  190.1240  171.4050  139.6230 N   0  0  0  0  0  1  0  0  0  0  0  0
  2  1  1  6  0  0  0
  2 29  1  0  0  0  0
  3  9  1  0  0  0  0
  3  4  1  0  0  0  0
  4  2  1  6  0  0  0
  5  7  1  0  0  0  0
  6  5  1  6  0  0  0
  6  7  1  0  0  0  0
  7 10  1  6  0  0  0
  8 11  1  1  0  0  0
  8  6  1  0  0  0  0
  8  9  1  0  0  0  0
  9 12  1  6  0  0  0
 10  4  1  0  0  0  0
 13 12  1  6  0  0  0
 13 14  1  0  0  0  0
 14 15  2  0  0  0  0
 16 14  1  0  0  0  0
 17 16  1  0  0  0  0
 18 17  1  0  0  0  0
 19 18  1  0  0  0  0
 20 13  1  0  0  0  0
 21 20  1  0  0  0  0
 22 21  1  0  0  0  0
 23 22  1  0  0  0  0
 24 26  1  0  0  0  0
 24 25  1  0  0  0  0
 26 25  1  0  0  0  0
 26 23  1  0  0  0  0
 27 30  2  0  0  0  0
 29 27  2  0  0  0  0
 29 28  1  0  0  0  0
 30 31  1  0  0  0  0
 32 31  1  0  0  0  0
 33 42  1  6  0  0  0
 33 34  1  0  0  0  0
 33 32  1  0  0  0  0
 35 34  1  1  0  0  0
 35 36  1  0  0  0  0
 36 37  1  0  0  0  0
 38 37  2  0  0  0  0
 39 35  1  0  0  0  0
 40 41  1  0  0  0  0
 41 39  1  0  0  0  0
 43 42  1  0  0  0  0
 44 45  2  0  0  0  0
 45 43  1  0  0  0  0
 46 45  1  0  0  0  0
 47 46  1  0  0  0  0
 48 49  1  0  0  0  0
 49 47  1  0  0  0  0
 50 48  2  0  0  0  0
 51 48  1  0  0  0  0
M  END
>  <MODEL>
9

>  <REMARK>
 VINA RESULT:      -4.3      2.604     10.653
  Name = 
  28 active torsions:
  status: ('A' for Active; 'I' for Inactive)
    1  A    between atoms: C_2  and  C_38
    2  A    between atoms: C_3  and  O_7
    3  A    between atoms: C_3  and  C_33
    4  A    between atoms: C_4  and  C_33
    5  A    between atoms: C_4  and  C_39
    6  A    between atoms: N_5  and  C_47
    7  A    between atoms: N_5  and  C_48
    8  A    between atoms: N_9  and  C_15
    9  A    between atoms: C_13  and  C_24
   10  A    between atoms: C_13  and  C_47
   11  A    between atoms: C_15  and  O_36
   12  A    between atoms: C_18  and  O_36
   13  A    between atoms: C_18  and  C_45
   14  A    between atoms: C_19  and  C_51
   15  A    between atoms: C_21  and  C_23
   16  A    between atoms: C_21  and  C_43
   17  A    between atoms: C_22  and  C_28
   18  A    between atoms: C_22  and  O_30
   19  A    between atoms: C_22  and  C_40
   20  A    between atoms: C_23  and  N_49
   21  A    between atoms: C_28  and  C_45
   22  A    between atoms: C_29  and  O_30
   23  A    between atoms: C_29  and  C_50
   24  A    between atoms: C_34  and  C_38
   25  A    between atoms: C_39  and  C_44
   26  A    between atoms: C_39  and  C_51
   27  A    between atoms: C_40  and  C_47
   28  A    between atoms: C_44  and  N_49
                            x       y       z     vdW  Elec       q    Type
                         _______ _______ _______ _____ _____    ______ ____

>  <TORSDO>
F 28

$$$$
