=
 OpenBabel11072408333D

 26 28  0  0  1  0  0  0  0  0999 V2000
  188.0600  177.6060  141.8550 C   0  0  2  0  0  3  0  0  0  0  0  0
  185.2900  179.4310  143.7130 C   0  0  0  0  0  3  0  0  0  0  0  0
  186.8450  177.1020  144.0190 C   0  0  0  0  0  3  0  0  0  0  0  0
  184.4690  177.5900  146.8610 C   0  0  0  0  0  3  0  0  0  0  0  0
  187.0270  177.9280  142.8930 C   0  0  0  0  0  0  0  0  0  0  0  0
  184.1950  178.7910  145.9420 C   0  0  0  0  0  3  0  0  0  0  0  0
  186.2460  179.0900  142.7450 C   0  0  0  0  0  3  0  0  0  0  0  0
  185.5660  176.7360  146.2110 C   0  0  0  0  0  2  0  0  0  0  0  0
  185.1360  178.5970  144.8200 C   0  0  0  0  0  0  0  0  0  0  0  0
  185.8900  177.4640  144.9670 C   0  0  0  0  0  0  0  0  0  0  0  0
  187.8300  175.5190  140.7000 O   0  0  0  0  0  1  0  0  0  0  0  0
  186.5710  177.2520  139.8880 O   0  0  0  0  0  0  0  0  0  0  0  0
  187.4950  176.7300  140.7830 C   0  0  0  0  0  0  0  0  0  0  0  0
  189.2300  176.9790  142.4620 N   0  0  0  0  0  2  0  0  0  0  0  0
  190.2430  178.0070  142.6800 C   0  0  0  0  0  2  0  0  0  0  0  0
  190.5150  178.2000  144.1680 C   0  0  0  0  0  2  0  0  0  0  0  0
  189.8840  176.9660  146.2130 C   0  0  0  0  0  3  0  0  0  0  0  0
  192.5800  176.0470  143.8230 F   0  0  0  0  0  0  0  0  0  0  0  0
  192.1640  175.2610  146.0360 C   0  0  2  0  0  3  0  0  0  0  0  0
  190.6150  176.8690  144.8970 C   0  0  2  0  0  3  0  0  0  0  0  0
  192.0760  176.4310  145.0540 C   0  0  2  0  0  3  0  0  0  0  0  0
  190.3360  176.3970  147.3390 C   0  0  0  0  0  3  0  0  0  0  0  0
  191.6680  175.7000  147.4140 C   0  0  0  0  0  2  0  0  0  0  0  0
  194.5330  175.6140  146.5400 O   0  0  0  0  0  0  0  0  0  0  0  0
  193.8070  173.5870  145.8230 O   0  0  0  0  0  0  0  0  0  0  0  0
  193.5320  174.7650  146.1320 N   0  0  0  0  0  0  0  0  0  0  0  0
  1 13  1  6  0  0  0
  1 14  1  0  0  0  0
  1  5  1  0  0  0  0
  2  9  1  0  0  0  0
  3 10  1  0  0  0  0
  5  3  2  0  0  0  0
  6  4  2  0  0  0  0
  7  5  1  0  0  0  0
  7  2  2  0  0  0  0
  8  4  1  0  0  0  0
  9 10  2  0  0  0  0
  9  6  1  0  0  0  0
 10  8  1  0  0  0  0
 11 13  1  0  0  0  0
 12 13  2  0  0  0  0
 14 15  1  0  0  0  0
 15 16  1  0  0  0  0
 17 22  2  0  0  0  0
 19 26  1  1  0  0  0
 19 23  1  0  0  0  0
 20 16  1  1  0  0  0
 20 21  1  0  0  0  0
 20 17  1  0  0  0  0
 21 18  1  6  0  0  0
 21 19  1  0  0  0  0
 22 23  1  0  0  0  0
 25 26  2  0  0  0  0
 26 24  2  0  0  0  0
M  END
>  <MODEL>
1

>  <REMARK>
 VINA RESULT:      -7.2      0.000      0.000
  Name = 
  7 active torsions:
  status: ('A' for Active; 'I' for Inactive)
    1  A    between atoms: CA_1  and  C_11
    2  A    between atoms: CA_1  and  N_19
    3  A    between atoms: CA_1  and  C_21
    4  A    between atoms: C_5  and  C_13
    5  A    between atoms: C_5  and  C_26
    6  A    between atoms: C_10  and  N_23
    7  A    between atoms: N_19  and  C_26
                            x       y       z     vdW  Elec       q    Type
                         _______ _______ _______ _____ _____    ______ ____

>  <TORSDO>
F 7

$$$$
=
 OpenBabel11072408333D

 26 28  0  0  1  0  0  0  0  0999 V2000
  189.1250  173.3570  142.7830 C   0  0  2  0  0  3  0  0  0  0  0  0
  191.8860  175.4470  144.3510 C   0  0  0  0  0  3  0  0  0  0  0  0
  189.5150  174.1560  145.1530 C   0  0  0  0  0  3  0  0  0  0  0  0
  191.2440  175.8250  148.0150 C   0  0  0  0  0  3  0  0  0  0  0  0
  189.9210  174.1100  143.8060 C   0  0  0  0  0  0  0  0  0  0  0  0
  192.1460  176.1330  146.8090 C   0  0  0  0  0  3  0  0  0  0  0  0
  191.1060  174.7590  143.4110 C   0  0  0  0  0  3  0  0  0  0  0  0
  190.0530  174.9960  147.5160 C   0  0  0  0  0  2  0  0  0  0  0  0
  191.4620  175.4720  145.6800 C   0  0  0  0  0  0  0  0  0  0  0  0
  190.3080  174.8470  146.0690 C   0  0  0  0  0  0  0  0  0  0  0  0
  189.9800  172.0040  140.9990 O   0  0  0  0  0  0  0  0  0  0  0  0
  190.5560  171.3440  143.1160 O   0  0  0  0  0  1  0  0  0  0  0  0
  189.8990  172.1980  142.2410 C   0  0  0  0  0  0  0  0  0  0  0  0
  188.7020  174.2390  141.7000 N   0  0  0  0  0  2  0  0  0  0  0  0
  187.5200  174.9730  142.1390 C   0  0  0  0  0  2  0  0  0  0  0  0
  187.5320  176.4020  141.6020 C   0  0  0  0  0  2  0  0  0  0  0  0
  188.6300  177.5820  143.4740 C   0  0  0  0  0  3  0  0  0  0  0  0
  184.9690  177.2220  142.9350 F   0  0  0  0  0  0  0  0  0  0  0  0
  186.1680  177.8940  144.8830 C   0  0  2  0  0  3  0  0  0  0  0  0
  187.3360  177.4190  142.7160 C   0  0  2  0  0  3  0  0  0  0  0  0
  186.1580  177.0330  143.6180 C   0  0  2  0  0  3  0  0  0  0  0  0
  188.6780  177.7300  144.8050 C   0  0  0  0  0  3  0  0  0  0  0  0
  187.4520  177.6400  145.6740 C   0  0  0  0  0  2  0  0  0  0  0  0
  183.9590  178.5030  145.7410 O   0  0  0  0  0  0  0  0  0  0  0  0
  184.9590  176.5830  146.4200 O   0  0  0  0  0  0  0  0  0  0  0  0
  185.0050  177.6110  145.7140 N   0  0  0  0  0  0  0  0  0  0  0  0
  1 14  1  6  0  0  0
  1  5  1  0  0  0  0
  2  9  1  0  0  0  0
  3 10  1  0  0  0  0
  5  3  2  0  0  0  0
  6  4  2  0  0  0  0
  7  5  1  0  0  0  0
  7  2  2  0  0  0  0
  8  4  1  0  0  0  0
  9 10  2  0  0  0  0
  9  6  1  0  0  0  0
 10  8  1  0  0  0  0
 11 13  2  0  0  0  0
 13  1  1  0  0  0  0
 13 12  1  0  0  0  0
 14 15  1  0  0  0  0
 16 15  1  0  0  0  0
 17 22  2  0  0  0  0
 19 23  1  0  0  0  0
 19 26  1  1  0  0  0
 20 16  1  6  0  0  0
 20 17  1  0  0  0  0
 20 21  1  0  0  0  0
 21 18  1  6  0  0  0
 21 19  1  0  0  0  0
 22 23  1  0  0  0  0
 26 24  2  0  0  0  0
 26 25  2  0  0  0  0
M  END
>  <MODEL>
2

>  <REMARK>
 VINA RESULT:      -7.0      3.502      6.296
  Name = 
  7 active torsions:
  status: ('A' for Active; 'I' for Inactive)
    1  A    between atoms: CA_1  and  C_11
    2  A    between atoms: CA_1  and  N_19
    3  A    between atoms: CA_1  and  C_21
    4  A    between atoms: C_5  and  C_13
    5  A    between atoms: C_5  and  C_26
    6  A    between atoms: C_10  and  N_23
    7  A    between atoms: N_19  and  C_26
                            x       y       z     vdW  Elec       q    Type
                         _______ _______ _______ _____ _____    ______ ____

>  <TORSDO>
F 7

$$$$
=
 OpenBabel11072408333D

 26 28  0  0  1  0  0  0  0  0999 V2000
  185.7790  178.0860  141.9130 C   0  0  2  0  0  3  0  0  0  0  0  0
  185.5140  179.9790  145.1990 C   0  0  0  0  0  3  0  0  0  0  0  0
  185.9030  177.3300  144.3260 C   0  0  0  0  0  3  0  0  0  0  0  0
  185.9490  177.6030  148.0520 C   0  0  0  0  0  3  0  0  0  0  0  0
  185.7320  178.3640  143.3850 C   0  0  0  0  0  0  0  0  0  0  0  0
  185.7080  179.0460  147.5800 C   0  0  0  0  0  2  0  0  0  0  0  0
  185.5350  179.6850  143.8280 C   0  0  0  0  0  3  0  0  0  0  0  0
  186.0500  176.7080  146.8090 C   0  0  0  0  0  3  0  0  0  0  0  0
  185.6920  178.9360  146.1070 C   0  0  0  0  0  0  0  0  0  0  0  0
  185.8790  177.6480  145.6830 C   0  0  0  0  0  0  0  0  0  0  0  0
  184.3300  178.6670  140.0950 O   0  0  0  0  0  0  0  0  0  0  0  0
  183.2910  177.9680  142.0130 O   0  0  0  0  0  1  0  0  0  0  0  0
  184.4340  178.2680  141.2850 C   0  0  0  0  0  0  0  0  0  0  0  0
  186.2860  176.7430  141.6520 N   0  0  0  0  0  2  0  0  0  0  0  0
  187.6560  176.8540  141.1630 C   0  0  0  0  0  2  0  0  0  0  0  0
  188.6150  176.0440  142.0300 C   0  0  0  0  0  2  0  0  0  0  0  0
  190.2200  177.8010  142.6910 C   0  0  0  0  0  3  0  0  0  0  0  0
  188.5350  175.3840  144.9590 F   0  0  0  0  0  0  0  0  0  0  0  0
  190.4210  176.7890  145.3520 C   0  0  2  0  0  3  0  0  0  0  0  0
  189.1480  176.8660  143.1940 C   0  0  2  0  0  3  0  0  0  0  0  0
  189.6270  175.9640  144.3370 C   0  0  2  0  0  3  0  0  0  0  0  0
  191.3340  178.0690  143.3870 C   0  0  0  0  0  3  0  0  0  0  0  0
  191.6640  177.3780  144.6840 C   0  0  0  0  0  2  0  0  0  0  0  0
  191.3230  174.7150  146.2860 O   0  0  0  0  0  0  0  0  0  0  0  0
  190.6540  176.3920  147.6610 O   0  0  0  0  0  0  0  0  0  0  0  0
  190.8080  175.9730  146.4950 N   0  0  0  0  0  0  0  0  0  0  0  0
  1 13  1  1  0  0  0
  1  5  1  0  0  0  0
  2  9  1  0  0  0  0
  3 10  1  0  0  0  0
  5  7  1  0  0  0  0
  5  3  2  0  0  0  0
  6  4  1  0  0  0  0
  7  2  2  0  0  0  0
  8  4  2  0  0  0  0
  9  6  1  0  0  0  0
 10  9  2  0  0  0  0
 10  8  1  0  0  0  0
 11 13  2  0  0  0  0
 13 12  1  0  0  0  0
 14  1  1  0  0  0  0
 15 14  1  0  0  0  0
 15 16  1  0  0  0  0
 17 20  1  0  0  0  0
 17 22  2  0  0  0  0
 19 26  1  1  0  0  0
 20 16  1  6  0  0  0
 20 21  1  0  0  0  0
 21 18  1  1  0  0  0
 21 19  1  0  0  0  0
 22 23  1  0  0  0  0
 23 19  1  0  0  0  0
 24 26  2  0  0  0  0
 26 25  2  0  0  0  0
M  END
>  <MODEL>
3

>  <REMARK>
 VINA RESULT:      -7.0      2.151      2.960
  Name = 
  7 active torsions:
  status: ('A' for Active; 'I' for Inactive)
    1  A    between atoms: CA_1  and  C_11
    2  A    between atoms: CA_1  and  N_19
    3  A    between atoms: CA_1  and  C_21
    4  A    between atoms: C_5  and  C_13
    5  A    between atoms: C_5  and  C_26
    6  A    between atoms: C_10  and  N_23
    7  A    between atoms: N_19  and  C_26
                            x       y       z     vdW  Elec       q    Type
                         _______ _______ _______ _____ _____    ______ ____

>  <TORSDO>
F 7

$$$$
=
 OpenBabel11072408333D

 26 28  0  0  1  0  0  0  0  0999 V2000
  186.9190  178.3290  141.8740 C   0  0  2  0  0  3  0  0  0  0  0  0
  185.3880  179.7630  145.0450 C   0  0  0  0  0  3  0  0  0  0  0  0
  186.7020  177.4110  144.2230 C   0  0  0  0  0  3  0  0  0  0  0  0
  185.8210  177.3350  147.8540 C   0  0  0  0  0  3  0  0  0  0  0  0
  186.4620  178.4440  143.2970 C   0  0  0  0  0  0  0  0  0  0  0  0
  185.2940  178.6970  147.3750 C   0  0  0  0  0  2  0  0  0  0  0  0
  185.8030  179.6160  143.7130 C   0  0  0  0  0  3  0  0  0  0  0  0
  186.4520  176.6210  146.6500 C   0  0  0  0  0  3  0  0  0  0  0  0
  185.6440  178.7260  145.9410 C   0  0  0  0  0  0  0  0  0  0  0  0
  186.2810  177.5820  145.5410 C   0  0  0  0  0  0  0  0  0  0  0  0
  186.0910  177.3270  139.8610 O   0  0  0  0  0  0  0  0  0  0  0  0
  184.5160  177.8190  141.4510 O   0  0  0  0  0  1  0  0  0  0  0  0
  185.8280  177.8040  140.9960 C   0  0  0  0  0  0  0  0  0  0  0  0
  188.1040  177.4830  141.7750 N   0  0  0  0  0  2  0  0  0  0  0  0
  189.2830  178.3160  141.9900 C   0  0  0  0  0  2  0  0  0  0  0  0
  190.3610  177.5510  142.7520 C   0  0  0  0  0  2  0  0  0  0  0  0
  190.0610  177.3270  145.1940 C   0  0  0  0  0  3  0  0  0  0  0  0
  189.6680  174.6300  142.6640 F   0  0  0  0  0  0  0  0  0  0  0  0
  189.8820  174.4830  145.0340 C   0  0  2  0  0  3  0  0  0  0  0  0
  189.7630  176.6940  143.8570 C   0  0  2  0  0  3  0  0  0  0  0  0
  190.2520  175.2440  143.7590 C   0  0  2  0  0  3  0  0  0  0  0  0
  190.3810  176.6110  146.2820 C   0  0  0  0  0  3  0  0  0  0  0  0
  190.5770  175.1190  146.2390 C   0  0  0  0  0  2  0  0  0  0  0  0
  191.5310  172.7420  144.5480 O   0  0  0  0  0  0  0  0  0  0  0  0
  189.4170  172.1780  145.1520 O   0  0  0  0  0  0  0  0  0  0  0  0
  190.2530  173.0780  144.9280 N   0  0  0  0  0  0  0  0  0  0  0  0
  1 13  1  6  0  0  0
  1  5  1  0  0  0  0
  2  9  1  0  0  0  0
  3 10  1  0  0  0  0
  5  7  1  0  0  0  0
  5  3  2  0  0  0  0
  6  4  1  0  0  0  0
  7  2  2  0  0  0  0
  8  4  2  0  0  0  0
  9  6  1  0  0  0  0
 10  9  2  0  0  0  0
 10  8  1  0  0  0  0
 11 13  2  0  0  0  0
 13 12  1  0  0  0  0
 14  1  1  0  0  0  0
 14 15  1  0  0  0  0
 15 16  1  0  0  0  0
 17 22  2  0  0  0  0
 19 26  1  6  0  0  0
 19 23  1  0  0  0  0
 20 16  1  6  0  0  0
 20 17  1  0  0  0  0
 21 18  1  6  0  0  0
 21 20  1  0  0  0  0
 21 19  1  0  0  0  0
 23 22  1  0  0  0  0
 24 26  2  0  0  0  0
 26 25  2  0  0  0  0
M  END
>  <MODEL>
4

>  <REMARK>
 VINA RESULT:      -6.9      1.948      2.230
  Name = 
  7 active torsions:
  status: ('A' for Active; 'I' for Inactive)
    1  A    between atoms: CA_1  and  C_11
    2  A    between atoms: CA_1  and  N_19
    3  A    between atoms: CA_1  and  C_21
    4  A    between atoms: C_5  and  C_13
    5  A    between atoms: C_5  and  C_26
    6  A    between atoms: C_10  and  N_23
    7  A    between atoms: N_19  and  C_26
                            x       y       z     vdW  Elec       q    Type
                         _______ _______ _______ _____ _____    ______ ____

>  <TORSDO>
F 7

$$$$
=
 OpenBabel11072408333D

 26 28  0  0  1  0  0  0  0  0999 V2000
  189.0500  176.6380  143.5650 C   0  0  2  0  0  3  0  0  0  0  0  0
  185.3420  177.2930  144.0930 C   0  0  0  0  0  3  0  0  0  0  0  0
  187.7450  177.5250  145.5450 C   0  0  0  0  0  3  0  0  0  0  0  0
  184.7910  178.6870  147.5180 C   0  0  0  0  0  3  0  0  0  0  0  0
  187.7620  177.0270  144.2280 C   0  0  0  0  0  0  0  0  0  0  0  0
  184.1870  178.2450  146.1750 C   0  0  0  0  0  3  0  0  0  0  0  0
  186.5580  176.9120  143.5080 C   0  0  0  0  0  3  0  0  0  0  0  0
  186.3060  178.4480  147.4570 C   0  0  0  0  0  2  0  0  0  0  0  0
  185.3560  177.7880  145.3970 C   0  0  0  0  0  0  0  0  0  0  0  0
  186.5230  177.8980  146.1030 C   0  0  0  0  0  0  0  0  0  0  0  0
  190.7490  178.2820  143.1750 O   0  0  0  0  0  1  0  0  0  0  0  0
  188.9850  178.3060  141.7130 O   0  0  0  0  0  0  0  0  0  0  0  0
  189.6450  177.7910  142.8210 C   0  0  0  0  0  0  0  0  0  0  0  0
  188.8530  175.5020  142.6710 N   0  0  0  0  0  2  0  0  0  0  0  0
  190.0060  174.6160  142.7900 C   0  0  0  0  0  2  0  0  0  0  0  0
  189.7390  173.5040  143.8000 C   0  0  0  0  0  2  0  0  0  0  0  0
  189.6090  174.1560  146.1800 C   0  0  0  0  0  3  0  0  0  0  0  0
  192.6790  174.0490  144.0850 F   0  0  0  0  0  0  0  0  0  0  0  0
  192.3070  175.0850  146.2000 C   0  0  2  0  0  3  0  0  0  0  0  0
  190.5380  173.7070  145.0790 C   0  0  2  0  0  3  0  0  0  0  0  0
  191.7090  174.6700  144.8540 C   0  0  2  0  0  3  0  0  0  0  0  0
  189.9530  175.0800  147.0890 C   0  0  0  0  0  3  0  0  0  0  0  0
  191.2570  175.8280  147.0270 C   0  0  0  0  0  2  0  0  0  0  0  0
  193.4220  176.9830  145.1320 O   0  0  0  0  0  0  0  0  0  0  0  0
  194.5460  175.6840  146.6150 O   0  0  0  0  0  0  0  0  0  0  0  0
  193.4810  175.9270  146.0100 N   0  0  0  0  0  0  0  0  0  0  0  0
  1 14  1  6  0  0  0
  1  5  1  0  0  0  0
  2  9  1  0  0  0  0
  3 10  1  0  0  0  0
  5  3  2  0  0  0  0
  6  4  2  0  0  0  0
  7  2  2  0  0  0  0
  7  5  1  0  0  0  0
  8  4  1  0  0  0  0
  9 10  2  0  0  0  0
  9  6  1  0  0  0  0
 10  8  1  0  0  0  0
 12 13  2  0  0  0  0
 13 11  1  0  0  0  0
 13  1  1  0  0  0  0
 14 15  1  0  0  0  0
 15 16  1  0  0  0  0
 17 22  2  0  0  0  0
 19 26  1  6  0  0  0
 19 23  1  0  0  0  0
 20 16  1  6  0  0  0
 20 17  1  0  0  0  0
 21 18  1  6  0  0  0
 21 20  1  0  0  0  0
 21 19  1  0  0  0  0
 23 22  1  0  0  0  0
 24 26  2  0  0  0  0
 26 25  2  0  0  0  0
M  END
>  <MODEL>
5

>  <REMARK>
 VINA RESULT:      -6.9      2.008      2.405
  Name = 
  7 active torsions:
  status: ('A' for Active; 'I' for Inactive)
    1  A    between atoms: CA_1  and  C_11
    2  A    between atoms: CA_1  and  N_19
    3  A    between atoms: CA_1  and  C_21
    4  A    between atoms: C_5  and  C_13
    5  A    between atoms: C_5  and  C_26
    6  A    between atoms: C_10  and  N_23
    7  A    between atoms: N_19  and  C_26
                            x       y       z     vdW  Elec       q    Type
                         _______ _______ _______ _____ _____    ______ ____

>  <TORSDO>
F 7

$$$$
=
 OpenBabel11072408333D

 26 28  0  0  1  0  0  0  0  0999 V2000
  189.7020  176.7200  144.6240 C   0  0  2  0  0  3  0  0  0  0  0  0
  186.6700  176.7820  146.9170 C   0  0  0  0  0  3  0  0  0  0  0  0
  187.4990  177.9610  144.4970 C   0  0  0  0  0  3  0  0  0  0  0  0
  184.0540  179.0290  145.4740 C   0  0  0  0  0  3  0  0  0  0  0  0
  188.3550  177.0750  145.1780 C   0  0  0  0  0  0  0  0  0  0  0  0
  184.4810  178.0810  146.6060 C   0  0  0  0  0  3  0  0  0  0  0  0
  187.9360  176.4900  146.3880 C   0  0  0  0  0  2  0  0  0  0  0  0
  185.2130  179.1230  144.4720 C   0  0  0  0  0  3  0  0  0  0  0  0
  185.8420  177.6590  146.2170 C   0  0  0  0  0  0  0  0  0  0  0  0
  186.2460  178.2340  145.0430 C   0  0  0  0  0  0  0  0  0  0  0  0
  190.9130  178.6650  143.9200 O   0  0  0  0  0  1  0  0  0  0  0  0
  189.7300  177.5800  142.2850 O   0  0  0  0  0  0  0  0  0  0  0  0
  190.1470  177.7180  143.6020 C   0  0  0  0  0  0  0  0  0  0  0  0
  189.6940  175.3770  144.0560 N   0  0  0  0  0  2  0  0  0  0  0  0
  191.0570  174.8560  144.0820 C   0  0  0  0  0  2  0  0  0  0  0  0
  191.3410  174.1310  145.3940 C   0  0  0  0  0  2  0  0  0  0  0  0
  192.4720  175.7590  146.8680 C   0  0  0  0  0  3  0  0  0  0  0  0
  194.0980  173.5630  144.3460 F   0  0  0  0  0  0  0  0  0  0  0  0
  194.9500  175.4790  145.4810 C   0  0  2  0  0  3  0  0  0  0  0  0
  192.6770  174.5510  145.9880 C   0  0  2  0  0  3  0  0  0  0  0  0
  193.7230  174.7790  144.8910 C   0  0  2  0  0  3  0  0  0  0  0  0
  193.3450  176.7750  146.9210 C   0  0  0  0  0  3  0  0  0  0  0  0
  194.5530  176.8510  146.0270 C   0  0  0  0  0  2  0  0  0  0  0  0
  197.0670  174.7590  144.4880 O   0  0  0  0  0  0  0  0  0  0  0  0
  195.9490  176.5380  143.6310 O   0  0  0  0  0  0  0  0  0  0  0  0
  195.9980  175.6240  144.4790 N   0  0  0  0  0  0  0  0  0  0  0  0
  1 13  1  6  0  0  0
  1  5  1  0  0  0  0
  3 10  1  0  0  0  0
  3  5  2  0  0  0  0
  4  6  2  0  0  0  0
  5  7  1  0  0  0  0
  7  2  1  0  0  0  0
  8 10  2  0  0  0  0
  8  4  1  0  0  0  0
  9  6  1  0  0  0  0
  9  2  2  0  0  0  0
 10  9  1  0  0  0  0
 12 13  2  0  0  0  0
 13 11  1  0  0  0  0
 14 15  1  0  0  0  0
 14  1  1  0  0  0  0
 15 16  1  0  0  0  0
 17 22  2  0  0  0  0
 19 26  1  6  0  0  0
 19 23  1  0  0  0  0
 20 16  1  6  0  0  0
 20 17  1  0  0  0  0
 21 18  1  1  0  0  0
 21 19  1  0  0  0  0
 21 20  1  0  0  0  0
 23 22  1  0  0  0  0
 25 26  2  0  0  0  0
 26 24  2  0  0  0  0
M  END
>  <MODEL>
6

>  <REMARK>
 VINA RESULT:      -6.8      2.261      3.283
  Name = 
  7 active torsions:
  status: ('A' for Active; 'I' for Inactive)
    1  A    between atoms: CA_1  and  C_11
    2  A    between atoms: CA_1  and  N_19
    3  A    between atoms: CA_1  and  C_21
    4  A    between atoms: C_5  and  C_13
    5  A    between atoms: C_5  and  C_26
    6  A    between atoms: C_10  and  N_23
    7  A    between atoms: N_19  and  C_26
                            x       y       z     vdW  Elec       q    Type
                         _______ _______ _______ _____ _____    ______ ____

>  <TORSDO>
F 7

$$$$
=
 OpenBabel11072408333D

 26 28  0  0  1  0  0  0  0  0999 V2000
  189.8770  176.5900  145.9850 C   0  0  2  0  0  3  0  0  0  0  0  0
  186.3320  176.6650  147.3580 C   0  0  0  0  0  3  0  0  0  0  0  0
  187.8200  177.9020  145.3100 C   0  0  0  0  0  3  0  0  0  0  0  0
  184.2610  179.0410  145.3480 C   0  0  0  0  0  3  0  0  0  0  0  0
  188.4370  176.9660  146.1630 C   0  0  0  0  0  0  0  0  0  0  0  0
  184.3410  178.0420  146.5120 C   0  0  0  0  0  3  0  0  0  0  0  0
  187.6890  176.3530  147.1850 C   0  0  0  0  0  2  0  0  0  0  0  0
  185.6530  179.1330  144.7070 C   0  0  0  0  0  3  0  0  0  0  0  0
  185.7470  177.5910  146.4950 C   0  0  0  0  0  0  0  0  0  0  0  0
  186.4700  178.1940  145.5020 C   0  0  0  0  0  0  0  0  0  0  0  0
  190.8450  175.1400  147.6300 O   0  0  0  0  0  0  0  0  0  0  0  0
  190.8180  177.3690  148.1580 O   0  0  0  0  0  1  0  0  0  0  0  0
  190.5310  176.3140  147.3020 C   0  0  0  0  0  0  0  0  0  0  0  0
  190.6020  177.6300  145.2640 N   0  0  0  0  0  2  0  0  0  0  0  0
  191.3370  177.0060  144.1680 C   0  0  0  0  0  2  0  0  0  0  0  0
  190.7240  177.3720  142.8200 C   0  0  0  0  0  2  0  0  0  0  0  0
  189.5860  175.2690  142.1970 C   0  0  0  0  0  3  0  0  0  0  0  0
  188.0790  178.6680  142.2310 F   0  0  0  0  0  0  0  0  0  0  0  0
  187.2890  176.6550  141.2260 C   0  0  2  0  0  3  0  0  0  0  0  0
  189.3730  176.7020  142.6190 C   0  0  2  0  0  3  0  0  0  0  0  0
  188.5030  177.4920  141.6350 C   0  0  2  0  0  3  0  0  0  0  0  0
  188.8220  174.6610  141.2790 C   0  0  0  0  0  3  0  0  0  0  0  0
  187.7510  175.3860  140.5090 C   0  0  0  0  0  2  0  0  0  0  0  0
  186.6850  177.5340  139.0240 O   0  0  0  0  0  0  0  0  0  0  0  0
  185.3920  177.9920  140.8310 O   0  0  0  0  0  0  0  0  0  0  0  0
  186.3970  177.4200  140.3630 N   0  0  0  0  0  0  0  0  0  0  0  0
  1 14  1  1  0  0  0
  1  5  1  0  0  0  0
  1 13  1  0  0  0  0
  3 10  1  0  0  0  0
  3  5  2  0  0  0  0
  4  6  2  0  0  0  0
  5  7  1  0  0  0  0
  7  2  1  0  0  0  0
  8  4  1  0  0  0  0
  8 10  2  0  0  0  0
  9  6  1  0  0  0  0
  9  2  2  0  0  0  0
 10  9  1  0  0  0  0
 13 11  2  0  0  0  0
 13 12  1  0  0  0  0
 15 14  1  0  0  0  0
 16 15  1  0  0  0  0
 17 20  1  0  0  0  0
 19 26  1  6  0  0  0
 19 21  1  0  0  0  0
 20 16  1  6  0  0  0
 21 18  1  1  0  0  0
 21 20  1  0  0  0  0
 22 17  2  0  0  0  0
 23 19  1  0  0  0  0
 23 22  1  0  0  0  0
 24 26  2  0  0  0  0
 26 25  2  0  0  0  0
M  END
>  <MODEL>
7

>  <REMARK>
 VINA RESULT:      -6.7      2.213      5.832
  Name = 
  7 active torsions:
  status: ('A' for Active; 'I' for Inactive)
    1  A    between atoms: CA_1  and  C_11
    2  A    between atoms: CA_1  and  N_19
    3  A    between atoms: CA_1  and  C_21
    4  A    between atoms: C_5  and  C_13
    5  A    between atoms: C_5  and  C_26
    6  A    between atoms: C_10  and  N_23
    7  A    between atoms: N_19  and  C_26
                            x       y       z     vdW  Elec       q    Type
                         _______ _______ _______ _____ _____    ______ ____

>  <TORSDO>
F 7

$$$$
=
 OpenBabel11072408333D

 26 28  0  0  1  0  0  0  0  0999 V2000
  188.5950  175.6210  142.6980 C   0  0  2  0  0  3  0  0  0  0  0  0
  190.2120  174.5800  145.9780 C   0  0  0  0  0  3  0  0  0  0  0  0
  190.8030  176.2330  143.7750 C   0  0  0  0  0  3  0  0  0  0  0  0
  193.5030  176.3120  146.3570 C   0  0  0  0  0  3  0  0  0  0  0  0
  189.5960  175.5090  143.8090 C   0  0  0  0  0  0  0  0  0  0  0  0
  192.4640  175.3420  146.9400 C   0  0  0  0  0  2  0  0  0  0  0  0
  189.3070  174.6830  144.9120 C   0  0  0  0  0  3  0  0  0  0  0  0
  192.9860  176.7980  144.9960 C   0  0  0  0  0  3  0  0  0  0  0  0
  191.3970  175.3130  145.9190 C   0  0  0  0  0  0  0  0  0  0  0  0
  191.6860  176.1140  144.8470 C   0  0  0  0  0  0  0  0  0  0  0  0
  189.6060  174.4250  140.8840 O   0  0  0  0  0  0  0  0  0  0  0  0
  187.8030  173.4080  141.8680 O   0  0  0  0  0  1  0  0  0  0  0  0
  188.6990  174.4630  141.7570 C   0  0  0  0  0  0  0  0  0  0  0  0
  188.7550  176.8800  141.9780 N   0  0  0  0  0  2  0  0  0  0  0  0
  187.4390  177.3270  141.5320 C   0  0  0  0  0  2  0  0  0  0  0  0
  186.9300  178.4760  142.3970 C   0  0  0  0  0  2  0  0  0  0  0  0
  184.5740  178.5330  143.1370 C   0  0  0  0  0  3  0  0  0  0  0  0
  187.5120  177.5630  145.1980 F   0  0  0  0  0  0  0  0  0  0  0  0
  185.2930  178.1210  145.8670 C   0  0  2  0  0  3  0  0  0  0  0  0
  185.9460  177.9900  143.4500 C   0  0  2  0  0  3  0  0  0  0  0  0
  186.4240  178.3500  144.8620 C   0  0  2  0  0  3  0  0  0  0  0  0
  183.7270  178.9610  144.0850 C   0  0  0  0  0  3  0  0  0  0  0  0
  184.1120  179.0360  145.5380 C   0  0  0  0  0  2  0  0  0  0  0  0
  185.9390  177.3040  148.0810 O   0  0  0  0  0  0  0  0  0  0  0  0
  185.9460  179.5290  147.6380 O   0  0  0  0  0  0  0  0  0  0  0  0
  185.7500  178.3670  147.2290 N   0  0  0  0  0  0  0  0  0  0  0  0
  1 13  1  6  0  0  0
  1  5  1  0  0  0  0
  3  5  2  0  0  0  0
  3 10  1  0  0  0  0
  4  6  1  0  0  0  0
  5  7  1  0  0  0  0
  7  2  2  0  0  0  0
  8  4  2  0  0  0  0
  9  2  1  0  0  0  0
  9  6  1  0  0  0  0
 10  8  1  0  0  0  0
 10  9  2  0  0  0  0
 11 13  2  0  0  0  0
 13 12  1  0  0  0  0
 14  1  1  0  0  0  0
 15 14  1  0  0  0  0
 15 16  1  0  0  0  0
 17 20  1  0  0  0  0
 17 22  2  0  0  0  0
 19 26  1  1  0  0  0
 20 16  1  6  0  0  0
 20 21  1  0  0  0  0
 21 18  1  1  0  0  0
 21 19  1  0  0  0  0
 22 23  1  0  0  0  0
 23 19  1  0  0  0  0
 26 25  2  0  0  0  0
 26 24  2  0  0  0  0
M  END
>  <MODEL>
8

>  <REMARK>
 VINA RESULT:      -6.7      3.092      6.386
  Name = 
  7 active torsions:
  status: ('A' for Active; 'I' for Inactive)
    1  A    between atoms: CA_1  and  C_11
    2  A    between atoms: CA_1  and  N_19
    3  A    between atoms: CA_1  and  C_21
    4  A    between atoms: C_5  and  C_13
    5  A    between atoms: C_5  and  C_26
    6  A    between atoms: C_10  and  N_23
    7  A    between atoms: N_19  and  C_26
                            x       y       z     vdW  Elec       q    Type
                         _______ _______ _______ _____ _____    ______ ____

>  <TORSDO>
F 7

$$$$
=
 OpenBabel11072408333D

 26 28  0  0  1  0  0  0  0  0999 V2000
  187.7930  177.7280  141.8890 C   0  0  2  0  0  3  0  0  0  0  0  0
  185.6440  179.5420  144.4490 C   0  0  0  0  0  3  0  0  0  0  0  0
  187.1680  177.1790  144.2800 C   0  0  0  0  0  3  0  0  0  0  0  0
  185.6220  177.6180  147.6540 C   0  0  0  0  0  3  0  0  0  0  0  0
  187.0720  178.0360  143.1680 C   0  0  0  0  0  0  0  0  0  0  0  0
  185.1490  178.8510  146.8680 C   0  0  0  0  0  2  0  0  0  0  0  0
  186.3070  179.2140  143.2570 C   0  0  0  0  0  3  0  0  0  0  0  0
  186.4910  176.7660  146.7190 C   0  0  0  0  0  3  0  0  0  0  0  0
  185.7620  178.6770  145.5360 C   0  0  0  0  0  0  0  0  0  0  0  0
  186.5000  177.5270  145.4540 C   0  0  0  0  0  0  0  0  0  0  0  0
  187.0170  176.5870  139.9300 O   0  0  0  0  0  0  0  0  0  0  0  0
  185.7070  178.3200  140.6580 O   0  0  0  0  0  1  0  0  0  0  0  0
  186.8310  177.5110  140.7650 C   0  0  0  0  0  0  0  0  0  0  0  0
  188.6620  176.5680  142.0480 N   0  0  0  0  0  2  0  0  0  0  0  0
  189.9290  177.0150  142.6170 C   0  0  0  0  0  2  0  0  0  0  0  0
  190.9320  175.8680  142.6930 C   0  0  0  0  0  2  0  0  0  0  0  0
  190.2550  174.1790  144.3640 C   0  0  0  0  0  3  0  0  0  0  0  0
  191.9050  177.4370  145.0610 F   0  0  0  0  0  0  0  0  0  0  0  0
  190.7800  175.9450  146.5420 C   0  0  2  0  0  3  0  0  0  0  0  0
  191.1260  175.3870  144.1230 C   0  0  2  0  0  3  0  0  0  0  0  0
  190.8710  176.5180  145.1260 C   0  0  2  0  0  3  0  0  0  0  0  0
  189.6050  173.9700  145.5180 C   0  0  0  0  0  3  0  0  0  0  0  0
  189.6000  174.9770  146.6360 C   0  0  0  0  0  2  0  0  0  0  0  0
  191.5060  177.0800  148.5850 O   0  0  0  0  0  0  0  0  0  0  0  0
  189.7070  177.8430  147.4310 O   0  0  0  0  0  0  0  0  0  0  0  0
  190.6320  177.0110  147.5260 N   0  0  0  0  0  0  0  0  0  0  0  0
  1 13  1  6  0  0  0
  1 14  1  0  0  0  0
  1  5  1  0  0  0  0
  2  9  1  0  0  0  0
  3 10  1  0  0  0  0
  5  7  1  0  0  0  0
  5  3  2  0  0  0  0
  6  4  1  0  0  0  0
  7  2  2  0  0  0  0
  8  4  2  0  0  0  0
  9  6  1  0  0  0  0
 10  9  2  0  0  0  0
 10  8  1  0  0  0  0
 11 13  2  0  0  0  0
 12 13  1  0  0  0  0
 14 15  1  0  0  0  0
 15 16  1  0  0  0  0
 17 22  2  0  0  0  0
 19 23  1  0  0  0  0
 19 26  1  1  0  0  0
 20 16  1  6  0  0  0
 20 17  1  0  0  0  0
 20 21  1  0  0  0  0
 21 18  1  1  0  0  0
 21 19  1  0  0  0  0
 22 23  1  0  0  0  0
 25 26  2  0  0  0  0
 26 24  2  0  0  0  0
M  END
>  <MODEL>
9

>  <REMARK>
 VINA RESULT:      -6.7      2.017      2.228
  Name = 
  7 active torsions:
  status: ('A' for Active; 'I' for Inactive)
    1  A    between atoms: CA_1  and  C_11
    2  A    between atoms: CA_1  and  N_19
    3  A    between atoms: CA_1  and  C_21
    4  A    between atoms: C_5  and  C_13
    5  A    between atoms: C_5  and  C_26
    6  A    between atoms: C_10  and  N_23
    7  A    between atoms: N_19  and  C_26
                            x       y       z     vdW  Elec       q    Type
                         _______ _______ _______ _____ _____    ______ ____

>  <TORSDO>
F 7

$$$$
