=
 OpenBabel11062423093D

 28 32  0  0  1  0  0  0  0  0999 V2000
  185.5790  176.9160  146.9200 N   0  0  0  0  0  0  0  0  0  0  0  0
  189.1230  175.9840  146.2330 C   0  0  0  0  0  2  0  0  0  0  0  0
  184.6760  178.7250  145.6020 C   0  0  0  0  0  3  0  0  0  0  0  0
  187.2570  177.0750  143.8860 C   0  0  2  0  0  3  0  0  0  0  0  0
  186.0490  179.0580  145.0990 C   0  0  0  0  0  2  0  0  0  0  0  0
  187.9170  175.8520  144.1300 O   0  0  0  0  0  0  0  0  0  0  0  0
  186.7580  176.9690  146.3760 C   0  0  0  0  0  0  0  0  0  0  0  0
  187.7670  176.0380  146.7890 N   0  0  0  0  0  2  0  0  0  0  0  0
  184.4880  177.7430  146.4860 C   0  0  0  0  0  3  0  0  0  0  0  0
  189.1650  176.1590  144.7010 C   0  0  2  0  0  3  0  0  0  0  0  0
  187.0160  177.8710  145.1950 C   0  0  1  0  0  3  0  0  0  0  0  0
  191.8090  173.5980  145.2560 O   0  0  0  0  0  0  0  0  0  0  0  0
  193.4870  176.8410  144.7840 C   0  0  2  0  0  3  0  0  0  0  0  0
  193.0140  174.3150  145.0050 C   0  0  1  0  0  3  0  0  0  0  0  0
  190.2780  175.2990  144.0710 C   0  0  2  0  0  3  0  0  0  0  0  0
  190.5420  173.9900  144.7990 C   0  0  0  0  0  0  0  0  0  0  0  0
  191.4490  176.0230  143.7440 O   0  0  0  0  0  0  0  0  0  0  0  0
  193.9800  176.3890  143.5530 O   0  0  0  0  0  1  0  0  0  0  0  0
  192.9500  175.6990  145.6510 C   0  0  2  0  0  3  0  0  0  0  0  0
  191.9790  176.6180  144.9120 C   0  0  1  0  0  3  0  0  0  0  0  0
  189.5770  173.2040  144.9900 O   0  0  0  0  0  0  0  0  0  0  0  0
  195.3830  174.1920  145.7900 O   0  0  0  0  0  1  0  0  0  0  0  0
  194.0630  172.3190  145.7700 O   0  0  0  0  0  0  0  0  0  0  0  0
  194.1740  173.5520  145.5480 C   0  0  0  0  0  0  0  0  0  0  0  0
  185.9700  176.7810  143.1270 C   0  0  0  0  0  2  0  0  0  0  0  0
  186.4060  178.5880  141.6640 O   0  0  0  0  0  0  0  0  0  0  0  0
  186.0820  177.2500  141.6870 C   0  0  0  0  0  3  0  0  0  0  0  0
  185.1350  178.2180  141.4390 O   0  0  0  0  0  0  0  0  0  0  0  0
  2  8  1  0  0  0  0
  3  9  2  0  0  0  0
  4 25  1  1  0  0  0
  4  6  1  0  0  0  0
  4 11  1  0  0  0  0
  5  3  1  0  0  0  0
  6 10  1  0  0  0  0
  7  8  1  0  0  0  0
  7  1  2  0  0  0  0
  9  1  1  0  0  0  0
 10  2  1  1  0  0  0
 11  5  1  6  0  0  0
 11  7  1  0  0  0  0
 13 18  1  6  0  0  0
 13 20  1  0  0  0  0
 13 19  1  0  0  0  0
 14 12  1  0  0  0  0
 14 24  1  1  0  0  0
 14 19  1  0  0  0  0
 15 17  1  1  0  0  0
 15 10  1  0  0  0  0
 15 16  1  0  0  0  0
 16 21  2  0  0  0  0
 16 12  1  0  0  0  0
 17 20  1  0  0  0  0
 20 19  1  0  0  0  0
 24 23  2  0  0  0  0
 24 22  1  0  0  0  0
 26 27  1  0  0  0  0
 27 25  1  0  0  0  0
 28 26  1  0  0  0  0
 28 27  1  0  0  0  0
M  END
>  <MODEL>
1

>  <REMARK>
 VINA RESULT:      -7.5      0.000      0.000
  Name = 
  4 active torsions:
  status: ('A' for Active; 'I' for Inactive)
    1  A    between atoms: C_4  and  C_12
    2  A    between atoms: C_5  and  C_27
    3  A    between atoms: C_14  and  C_15
    4  A    between atoms: C_14  and  C_16
                            x       y       z     vdW  Elec       q    Type
                         _______ _______ _______ _____ _____    ______ ____

>  <TORSDO>
F 4

$$$$
=
 OpenBabel11062423093D

 28 32  0  0  1  0  0  0  0  0999 V2000
  192.4200  176.9720  144.2880 N   0  0  0  0  0  0  0  0  0  0  0  0
  188.8020  177.8260  143.9980 C   0  0  0  0  0  2  0  0  0  0  0  0
  193.1650  176.2040  146.4500 C   0  0  0  0  0  3  0  0  0  0  0  0
  189.7590  175.5030  145.9640 C   0  0  2  0  0  3  0  0  0  0  0  0
  191.8600  176.6200  147.0610 C   0  0  0  0  0  2  0  0  0  0  0  0
  188.9460  175.5440  144.8110 O   0  0  0  0  0  0  0  0  0  0  0  0
  191.1880  177.1530  144.6600 C   0  0  0  0  0  0  0  0  0  0  0  0
  190.2230  177.6110  143.7040 N   0  0  0  0  0  2  0  0  0  0  0  0
  193.4180  176.4180  145.1580 C   0  0  0  0  0  3  0  0  0  0  0  0
  188.1840  176.7230  144.8810 C   0  0  2  0  0  3  0  0  0  0  0  0
  190.7290  176.7110  146.0270 C   0  0  1  0  0  3  0  0  0  0  0  0
  185.5940  176.8910  142.2130 O   0  0  0  0  0  0  0  0  0  0  0  0
  184.8710  179.5720  144.6300 C   0  0  2  0  0  3  0  0  0  0  0  0
  184.6770  177.8600  142.7100 C   0  0  1  0  0  3  0  0  0  0  0  0
  186.7190  176.4490  144.4890 C   0  0  2  0  0  3  0  0  0  0  0  0
  186.5100  176.1840  143.0070 C   0  0  0  0  0  0  0  0  0  0  0  0
  185.7930  177.3630  145.0470 O   0  0  0  0  0  0  0  0  0  0  0  0
  183.7240  178.8760  145.0340 O   0  0  0  0  0  1  0  0  0  0  0  0
  185.4330  179.0470  143.3070 C   0  0  2  0  0  3  0  0  0  0  0  0
  186.1100  178.6750  144.6250 C   0  0  1  0  0  3  0  0  0  0  0  0
  187.1810  175.2700  142.4590 O   0  0  0  0  0  0  0  0  0  0  0  0
  182.4320  178.5160  141.8290 O   0  0  0  0  0  1  0  0  0  0  0  0
  184.2710  178.5280  140.4610 O   0  0  0  0  0  0  0  0  0  0  0  0
  183.7900  178.3250  141.6060 C   0  0  0  0  0  0  0  0  0  0  0  0
  190.4820  174.1630  145.9920 C   0  0  0  0  0  2  0  0  0  0  0  0
  189.6300  172.2980  144.8130 O   0  0  0  0  0  0  0  0  0  0  0  0
  190.3520  173.4590  144.6540 C   0  0  0  0  0  3  0  0  0  0  0  0
  190.9670  172.2280  144.7140 O   0  0  0  0  0  0  0  0  0  0  0  0
  1  7  2  0  0  0  0
  1  9  1  0  0  0  0
  3  5  1  0  0  0  0
  4 25  1  6  0  0  0
  4 11  1  0  0  0  0
  6 10  1  0  0  0  0
  6  4  1  0  0  0  0
  7 11  1  0  0  0  0
  8  2  1  0  0  0  0
  8  7  1  0  0  0  0
  9  3  2  0  0  0  0
 10  2  1  6  0  0  0
 11  5  1  1  0  0  0
 12 14  1  0  0  0  0
 12 16  1  0  0  0  0
 13 18  1  1  0  0  0
 14 24  1  6  0  0  0
 14 19  1  0  0  0  0
 15 16  1  6  0  0  0
 15 10  1  0  0  0  0
 15 17  1  0  0  0  0
 19 20  1  0  0  0  0
 19 13  1  0  0  0  0
 20 13  1  0  0  0  0
 20 17  1  0  0  0  0
 21 16  2  0  0  0  0
 23 24  2  0  0  0  0
 24 22  1  0  0  0  0
 27 28  1  0  0  0  0
 27 26  1  0  0  0  0
 27 25  1  0  0  0  0
 28 26  1  0  0  0  0
M  END
>  <MODEL>
2

>  <REMARK>
 VINA RESULT:      -7.4      2.486      7.589
  Name = 
  4 active torsions:
  status: ('A' for Active; 'I' for Inactive)
    1  A    between atoms: C_4  and  C_12
    2  A    between atoms: C_5  and  C_27
    3  A    between atoms: C_14  and  C_15
    4  A    between atoms: C_14  and  C_16
                            x       y       z     vdW  Elec       q    Type
                         _______ _______ _______ _____ _____    ______ ____

>  <TORSDO>
F 4

$$$$
=
 OpenBabel11062423093D

 28 32  0  0  1  0  0  0  0  0999 V2000
  184.7030  177.8470  146.2980 N   0  0  0  0  0  0  0  0  0  0  0  0
  188.1760  176.5880  146.8020 C   0  0  0  0  0  2  0  0  0  0  0  0
  184.3880  179.4210  144.4960 C   0  0  0  0  0  3  0  0  0  0  0  0
  187.1330  177.3200  143.8770 C   0  0  2  0  0  3  0  0  0  0  0  0
  185.8740  179.5680  144.3510 C   0  0  0  0  0  2  0  0  0  0  0  0
  187.5650  176.1290  144.4980 O   0  0  0  0  0  0  0  0  0  0  0  0
  185.9820  177.7240  146.1070 C   0  0  0  0  0  0  0  0  0  0  0  0
  186.7360  176.8300  146.9370 N   0  0  0  0  0  2  0  0  0  0  0  0
  183.8650  178.6400  145.4430 C   0  0  0  0  0  3  0  0  0  0  0  0
  188.6420  176.4640  145.3370 C   0  0  2  0  0  3  0  0  0  0  0  0
  186.6430  178.3650  144.9130 C   0  0  1  0  0  3  0  0  0  0  0  0
  192.1010  175.4970  146.3170 O   0  0  0  0  0  0  0  0  0  0  0  0
  192.2310  176.7100  142.8440 C   0  0  2  0  0  3  0  0  0  0  0  0
  192.8270  175.6050  145.0970 C   0  0  1  0  0  3  0  0  0  0  0  0
  189.7800  175.4330  145.1990 C   0  0  2  0  0  3  0  0  0  0  0  0
  190.7070  175.3630  146.4020 C   0  0  0  0  0  0  0  0  0  0  0  0
  190.4520  175.4820  143.9550 O   0  0  0  0  0  0  0  0  0  0  0  0
  192.5010  175.4040  142.4140 O   0  0  0  0  0  1  0  0  0  0  0  0
  192.4240  176.8790  144.3520 C   0  0  2  0  0  3  0  0  0  0  0  0
  191.0160  176.7660  143.7710 C   0  0  1  0  0  3  0  0  0  0  0  0
  190.2030  175.1570  147.5370 O   0  0  0  0  0  0  0  0  0  0  0  0
  195.2100  175.5350  144.3450 O   0  0  0  0  0  0  0  0  0  0  0  0
  194.6930  175.7010  146.5720 O   0  0  0  0  0  1  0  0  0  0  0  0
  194.2900  175.6230  145.3830 C   0  0  0  0  0  0  0  0  0  0  0  0
  186.0690  176.9650  142.8470 C   0  0  0  0  0  2  0  0  0  0  0  0
  187.4510  178.0620  141.2720 O   0  0  0  0  0  0  0  0  0  0  0  0
  186.6650  176.9460  141.4510 C   0  0  0  0  0  3  0  0  0  0  0  0
  186.2180  178.0380  140.7410 O   0  0  0  0  0  0  0  0  0  0  0  0
  2  8  1  0  0  0  0
  3  9  2  0  0  0  0
  4 25  1  6  0  0  0
  4  6  1  0  0  0  0
  4 11  1  0  0  0  0
  5  3  1  0  0  0  0
  6 10  1  0  0  0  0
  7  1  2  0  0  0  0
  7  8  1  0  0  0  0
  9  1  1  0  0  0  0
 10  2  1  1  0  0  0
 11  5  1  6  0  0  0
 11  7  1  0  0  0  0
 12 16  1  0  0  0  0
 13 18  1  1  0  0  0
 13 20  1  0  0  0  0
 13 19  1  0  0  0  0
 14 24  1  1  0  0  0
 14 12  1  0  0  0  0
 15 17  1  6  0  0  0
 15 10  1  0  0  0  0
 15 16  1  0  0  0  0
 16 21  2  0  0  0  0
 19 14  1  0  0  0  0
 20 17  1  0  0  0  0
 20 19  1  0  0  0  0
 22 24  2  0  0  0  0
 24 23  1  0  0  0  0
 26 27  1  0  0  0  0
 27 25  1  0  0  0  0
 28 26  1  0  0  0  0
 28 27  1  0  0  0  0
M  END
>  <MODEL>
3

>  <REMARK>
 VINA RESULT:      -7.3      1.452      1.666
  Name = 
  4 active torsions:
  status: ('A' for Active; 'I' for Inactive)
    1  A    between atoms: C_4  and  C_12
    2  A    between atoms: C_5  and  C_27
    3  A    between atoms: C_14  and  C_15
    4  A    between atoms: C_14  and  C_16
                            x       y       z     vdW  Elec       q    Type
                         _______ _______ _______ _____ _____    ______ ____

>  <TORSDO>
F 4

$$$$
=
 OpenBabel11062423093D

 28 32  0  0  1  0  0  0  0  0999 V2000
  185.6660  179.5300  145.9420 N   0  0  0  0  0  0  0  0  0  0  0  0
  186.4160  178.3280  142.4930 C   0  0  0  0  0  2  0  0  0  0  0  0
  185.2150  177.8280  147.5920 C   0  0  0  0  0  3  0  0  0  0  0  0
  187.2740  176.5930  145.0290 C   0  0  2  0  0  3  0  0  0  0  0  0
  185.1230  176.7900  146.5120 C   0  0  0  0  0  2  0  0  0  0  0  0
  187.9830  177.2430  143.9970 O   0  0  0  0  0  0  0  0  0  0  0  0
  185.8360  178.6890  144.9670 C   0  0  0  0  0  0  0  0  0  0  0  0
  186.1750  179.1790  143.6630 N   0  0  0  0  0  2  0  0  0  0  0  0
  185.4290  179.1110  147.2940 C   0  0  0  0  0  3  0  0  0  0  0  0
  187.2460  177.0680  142.8120 C   0  0  2  0  0  3  0  0  0  0  0  0
  185.8630  177.2050  145.2330 C   0  0  1  0  0  3  0  0  0  0  0  0
  187.6370  175.2120  139.6090 O   0  0  0  0  0  0  0  0  0  0  0  0
  189.4950  173.3640  142.1950 C   0  0  2  0  0  3  0  0  0  0  0  0
  188.5940  174.2070  139.9290 C   0  0  1  0  0  3  0  0  0  0  0  0
  188.1780  176.7020  141.6400 C   0  0  2  0  0  3  0  0  0  0  0  0
  187.4530  176.3960  140.3400 C   0  0  0  0  0  0  0  0  0  0  0  0
  189.1830  175.7640  141.9760 O   0  0  0  0  0  0  0  0  0  0  0  0
  190.6950  173.7330  141.5740 O   0  0  0  0  0  1  0  0  0  0  0  0
  188.2790  173.5930  141.2940 C   0  0  2  0  0  3  0  0  0  0  0  0
  188.5810  174.5680  142.4310 C   0  0  1  0  0  3  0  0  0  0  0  0
  186.6560  177.2540  139.8790 O   0  0  0  0  0  0  0  0  0  0  0  0
  188.1910  173.4510  137.5820 O   0  0  0  0  0  0  0  0  0  0  0  0
  188.9110  171.9710  139.1770 O   0  0  0  0  0  1  0  0  0  0  0  0
  188.5820  173.1490  138.8800 C   0  0  0  0  0  0  0  0  0  0  0  0
  188.1240  176.6330  146.2920 C   0  0  0  0  0  2  0  0  0  0  0  0
  188.9430  174.6930  147.3690 O   0  0  0  0  0  0  0  0  0  0  0  0
  189.1470  175.5130  146.2810 C   0  0  0  0  0  3  0  0  0  0  0  0
  189.9370  175.5940  147.4060 O   0  0  0  0  0  0  0  0  0  0  0  0
  1  9  1  0  0  0  0
  2  8  1  0  0  0  0
  4 11  1  0  0  0  0
  4 25  1  1  0  0  0
  5  3  1  0  0  0  0
  6  4  1  0  0  0  0
  7 11  1  0  0  0  0
  7  1  2  0  0  0  0
  8  7  1  0  0  0  0
  9  3  2  0  0  0  0
 10  2  1  6  0  0  0
 10  6  1  0  0  0  0
 11  5  1  1  0  0  0
 12 14  1  0  0  0  0
 12 16  1  0  0  0  0
 13 18  1  6  0  0  0
 13 20  1  0  0  0  0
 14 24  1  6  0  0  0
 14 19  1  0  0  0  0
 15 16  1  6  0  0  0
 15 17  1  0  0  0  0
 15 10  1  0  0  0  0
 17 20  1  0  0  0  0
 19 13  1  0  0  0  0
 19 20  1  0  0  0  0
 21 16  2  0  0  0  0
 22 24  2  0  0  0  0
 24 23  1  0  0  0  0
 26 28  1  0  0  0  0
 27 25  1  0  0  0  0
 27 26  1  0  0  0  0
 27 28  1  0  0  0  0
M  END
>  <MODEL>
4

>  <REMARK>
 VINA RESULT:      -7.1      3.145      5.522
  Name = 
  4 active torsions:
  status: ('A' for Active; 'I' for Inactive)
    1  A    between atoms: C_4  and  C_12
    2  A    between atoms: C_5  and  C_27
    3  A    between atoms: C_14  and  C_15
    4  A    between atoms: C_14  and  C_16
                            x       y       z     vdW  Elec       q    Type
                         _______ _______ _______ _____ _____    ______ ____

>  <TORSDO>
F 4

$$$$
=
 OpenBabel11062423093D

 28 32  0  0  1  0  0  0  0  0999 V2000
  193.8710  176.6020  143.7480 N   0  0  0  0  0  0  0  0  0  0  0  0
  190.2280  177.2820  143.3370 C   0  0  0  0  0  2  0  0  0  0  0  0
  194.6070  176.0390  145.9750 C   0  0  0  0  0  3  0  0  0  0  0  0
  191.2400  175.1640  145.4970 C   0  0  2  0  0  3  0  0  0  0  0  0
  193.2750  176.4490  146.5310 C   0  0  0  0  0  2  0  0  0  0  0  0
  190.4470  175.0800  144.3330 O   0  0  0  0  0  0  0  0  0  0  0  0
  192.6260  176.7610  144.0860 C   0  0  0  0  0  0  0  0  0  0  0  0
  191.6620  177.1020  143.0820 N   0  0  0  0  0  2  0  0  0  0  0  0
  194.8740  176.1590  144.6740 C   0  0  0  0  0  3  0  0  0  0  0  0
  189.6380  176.2290  144.2970 C   0  0  2  0  0  3  0  0  0  0  0  0
  192.1610  176.4120  145.4770 C   0  0  1  0  0  3  0  0  0  0  0  0
  186.8210  176.7870  141.9290 O   0  0  0  0  0  0  0  0  0  0  0  0
  185.9720  178.4860  145.0820 C   0  0  2  0  0  3  0  0  0  0  0  0
  185.8330  177.4140  142.7400 C   0  0  1  0  0  3  0  0  0  0  0  0
  188.1920  175.8650  143.9060 C   0  0  2  0  0  3  0  0  0  0  0  0
  187.8890  176.0240  142.4250 C   0  0  0  0  0  0  0  0  0  0  0  0
  187.2090  176.4200  144.7590 O   0  0  0  0  0  0  0  0  0  0  0  0
  184.9660  177.5370  145.3050 O   0  0  0  0  0  1  0  0  0  0  0  0
  186.4780  178.4710  143.6380 C   0  0  2  0  0  3  0  0  0  0  0  0
  187.3120  177.8300  144.7460 C   0  0  1  0  0  3  0  0  0  0  0  0
  188.6220  175.4260  141.5940 O   0  0  0  0  0  0  0  0  0  0  0  0
  183.5230  178.2930  142.3680 O   0  0  0  0  0  1  0  0  0  0  0  0
  185.0750  178.3400  140.6820 O   0  0  0  0  0  0  0  0  0  0  0  0
  184.7970  178.0460  141.8730 C   0  0  0  0  0  0  0  0  0  0  0  0
  192.0140  173.8610  145.6440 C   0  0  0  0  0  2  0  0  0  0  0  0
  192.8400  171.9890  144.4570 O   0  0  0  0  0  0  0  0  0  0  0  0
  192.0690  173.1220  144.3190 C   0  0  0  0  0  3  0  0  0  0  0  0
  193.3700  173.0730  143.8680 O   0  0  0  0  0  0  0  0  0  0  0  0
  1  7  2  0  0  0  0
  1  9  1  0  0  0  0
  3  5  1  0  0  0  0
  4 25  1  6  0  0  0
  6  4  1  0  0  0  0
  7 11  1  0  0  0  0
  8  2  1  0  0  0  0
  8  7  1  0  0  0  0
  9  3  2  0  0  0  0
 10  2  1  6  0  0  0
 10  6  1  0  0  0  0
 11  4  1  0  0  0  0
 11  5  1  1  0  0  0
 12 16  1  0  0  0  0
 12 14  1  0  0  0  0
 13 18  1  6  0  0  0
 14 24  1  6  0  0  0
 14 19  1  0  0  0  0
 15 16  1  6  0  0  0
 15 10  1  0  0  0  0
 15 17  1  0  0  0  0
 19 20  1  0  0  0  0
 19 13  1  0  0  0  0
 20 17  1  0  0  0  0
 20 13  1  0  0  0  0
 21 16  2  0  0  0  0
 23 24  2  0  0  0  0
 24 22  1  0  0  0  0
 27 26  1  0  0  0  0
 27 25  1  0  0  0  0
 28 27  1  0  0  0  0
 28 26  1  0  0  0  0
M  END
>  <MODEL>
5

>  <REMARK>
 VINA RESULT:      -7.0      2.337      7.628
  Name = 
  4 active torsions:
  status: ('A' for Active; 'I' for Inactive)
    1  A    between atoms: C_4  and  C_12
    2  A    between atoms: C_5  and  C_27
    3  A    between atoms: C_14  and  C_15
    4  A    between atoms: C_14  and  C_16
                            x       y       z     vdW  Elec       q    Type
                         _______ _______ _______ _____ _____    ______ ____

>  <TORSDO>
F 4

$$$$
=
 OpenBabel11062423093D

 28 32  0  0  1  0  0  0  0  0999 V2000
  185.5070  177.0330  147.0030 N   0  0  0  0  0  0  0  0  0  0  0  0
  189.1910  176.6450  146.5800 C   0  0  0  0  0  2  0  0  0  0  0  0
  184.4220  178.6050  145.5290 C   0  0  0  0  0  3  0  0  0  0  0  0
  187.3380  177.3040  144.0680 C   0  0  2  0  0  3  0  0  0  0  0  0
  185.7570  179.1280  145.0870 C   0  0  0  0  0  2  0  0  0  0  0  0
  188.1630  176.2160  144.4230 O   0  0  0  0  0  0  0  0  0  0  0  0
  186.6970  177.2460  146.5270 C   0  0  0  0  0  0  0  0  0  0  0  0
  187.8080  176.5100  147.0530 N   0  0  0  0  0  2  0  0  0  0  0  0
  184.3320  177.6520  146.4590 C   0  0  0  0  0  3  0  0  0  0  0  0
  189.3070  176.7470  145.0460 C   0  0  2  0  0  3  0  0  0  0  0  0
  186.8890  178.1160  145.3110 C   0  0  1  0  0  3  0  0  0  0  0  0
  191.0890  175.2690  142.1310 O   0  0  0  0  0  0  0  0  0  0  0  0
  189.9110  172.4890  144.2370 C   0  0  2  0  0  3  0  0  0  0  0  0
  191.1490  173.8830  142.4540 C   0  0  1  0  0  3  0  0  0  0  0  0
  190.5800  176.0450  144.5350 C   0  0  2  0  0  3  0  0  0  0  0  0
  190.8830  176.2940  143.0670 C   0  0  0  0  0  0  0  0  0  0  0  0
  190.6840  174.6880  144.9230 O   0  0  0  0  0  0  0  0  0  0  0  0
  191.2390  172.2080  144.5830 O   0  0  0  0  0  1  0  0  0  0  0  0
  189.8080  173.4150  143.0230 C   0  0  2  0  0  3  0  0  0  0  0  0
  189.5720  173.9680  144.4270 C   0  0  1  0  0  3  0  0  0  0  0  0
  190.9720  177.4840  142.6650 O   0  0  0  0  0  0  0  0  0  0  0  0
  190.6620  173.1450  140.1170 O   0  0  0  0  0  0  0  0  0  0  0  0
  192.5150  172.3710  141.2240 O   0  0  0  0  0  1  0  0  0  0  0  0
  191.4870  173.0960  141.2340 C   0  0  0  0  0  0  0  0  0  0  0  0
  186.1660  176.7710  143.2550 C   0  0  0  0  0  2  0  0  0  0  0  0
  186.3300  178.5120  141.6620 O   0  0  0  0  0  0  0  0  0  0  0  0
  186.3210  177.1410  141.7910 C   0  0  0  0  0  3  0  0  0  0  0  0
  185.2090  177.8340  141.3670 O   0  0  0  0  0  0  0  0  0  0  0  0
  2  8  1  0  0  0  0
  3  9  2  0  0  0  0
  4 25  1  1  0  0  0
  4  6  1  0  0  0  0
  4 11  1  0  0  0  0
  5  3  1  0  0  0  0
  6 10  1  0  0  0  0
  7  1  2  0  0  0  0
  7  8  1  0  0  0  0
  9  1  1  0  0  0  0
 10  2  1  1  0  0  0
 11  5  1  6  0  0  0
 11  7  1  0  0  0  0
 12 14  1  0  0  0  0
 12 16  1  0  0  0  0
 13 20  1  0  0  0  0
 13 18  1  1  0  0  0
 14 24  1  6  0  0  0
 14 19  1  0  0  0  0
 15 16  1  6  0  0  0
 15 17  1  0  0  0  0
 15 10  1  0  0  0  0
 19 13  1  0  0  0  0
 19 20  1  0  0  0  0
 20 17  1  0  0  0  0
 21 16  2  0  0  0  0
 22 24  2  0  0  0  0
 23 24  1  0  0  0  0
 26 27  1  0  0  0  0
 27 25  1  0  0  0  0
 28 26  1  0  0  0  0
 28 27  1  0  0  0  0
M  END
>  <MODEL>
6

>  <REMARK>
 VINA RESULT:      -6.9      1.920      3.060
  Name = 
  4 active torsions:
  status: ('A' for Active; 'I' for Inactive)
    1  A    between atoms: C_4  and  C_12
    2  A    between atoms: C_5  and  C_27
    3  A    between atoms: C_14  and  C_15
    4  A    between atoms: C_14  and  C_16
                            x       y       z     vdW  Elec       q    Type
                         _______ _______ _______ _____ _____    ______ ____

>  <TORSDO>
F 4

$$$$
=
 OpenBabel11062423093D

 28 32  0  0  1  0  0  0  0  0999 V2000
  185.8060  179.1990  144.4820 N   0  0  0  0  0  0  0  0  0  0  0  0
  187.3050  176.7900  142.0630 C   0  0  0  0  0  2  0  0  0  0  0  0
  185.2050  178.3080  146.6420 C   0  0  0  0  0  3  0  0  0  0  0  0
  187.8180  176.4620  145.1940 C   0  0  2  0  0  3  0  0  0  0  0  0
  185.4150  176.9100  146.1370 C   0  0  0  0  0  2  0  0  0  0  0  0
  188.6490  176.7200  144.0830 O   0  0  0  0  0  0  0  0  0  0  0  0
  186.2340  178.0640  144.0160 C   0  0  0  0  0  0  0  0  0  0  0  0
  186.7690  178.0040  142.6880 N   0  0  0  0  0  2  0  0  0  0  0  0
  185.3550  179.3590  145.8350 C   0  0  0  0  0  3  0  0  0  0  0  0
  188.1700  175.9400  143.0160 C   0  0  2  0  0  3  0  0  0  0  0  0
  186.3450  176.8590  144.9170 C   0  0  1  0  0  3  0  0  0  0  0  0
  189.2860  173.0750  140.9170 O   0  0  0  0  0  0  0  0  0  0  0  0
  190.6410  172.5640  144.3010 C   0  0  2  0  0  3  0  0  0  0  0  0
  190.1950  172.3830  141.7670 C   0  0  1  0  0  3  0  0  0  0  0  0
  189.3370  175.2720  142.2630 C   0  0  2  0  0  3  0  0  0  0  0  0
  188.9090  174.4170  141.0820 C   0  0  0  0  0  0  0  0  0  0  0  0
  190.2870  174.6520  143.1090 O   0  0  0  0  0  0  0  0  0  0  0  0
  191.9290  172.8090  143.8060 O   0  0  0  0  0  1  0  0  0  0  0  0
  189.6290  172.2950  143.1850 C   0  0  2  0  0  3  0  0  0  0  0  0
  189.6520  173.6530  143.8830 C   0  0  1  0  0  3  0  0  0  0  0  0
  188.1910  174.9410  140.1900 O   0  0  0  0  0  0  0  0  0  0  0  0
  190.6480  170.8190  139.8720 O   0  0  0  0  0  0  0  0  0  0  0  0
  190.4450  170.0290  142.0130 O   0  0  0  0  0  1  0  0  0  0  0  0
  190.4420  171.0140  141.2310 C   0  0  0  0  0  0  0  0  0  0  0  0
  188.4050  177.1740  146.4060 C   0  0  0  0  0  2  0  0  0  0  0  0
  190.3970  175.9980  146.9000 O   0  0  0  0  0  0  0  0  0  0  0  0
  189.9220  177.1650  146.3460 C   0  0  0  0  0  3  0  0  0  0  0  0
  190.4370  177.1290  147.6230 O   0  0  0  0  0  0  0  0  0  0  0  0
  1  9  1  0  0  0  0
  2  8  1  0  0  0  0
  4 25  1  1  0  0  0
  5  3  1  0  0  0  0
  6  4  1  0  0  0  0
  7  1  2  0  0  0  0
  7 11  1  0  0  0  0
  8  7  1  0  0  0  0
  9  3  2  0  0  0  0
 10  2  1  6  0  0  0
 10  6  1  0  0  0  0
 11  4  1  0  0  0  0
 11  5  1  1  0  0  0
 12 16  1  0  0  0  0
 12 14  1  0  0  0  0
 13 18  1  6  0  0  0
 14 24  1  6  0  0  0
 14 19  1  0  0  0  0
 15 16  1  6  0  0  0
 15 10  1  0  0  0  0
 15 17  1  0  0  0  0
 17 20  1  0  0  0  0
 19 20  1  0  0  0  0
 19 13  1  0  0  0  0
 20 13  1  0  0  0  0
 21 16  2  0  0  0  0
 22 24  2  0  0  0  0
 24 23  1  0  0  0  0
 26 28  1  0  0  0  0
 27 25  1  0  0  0  0
 27 26  1  0  0  0  0
 27 28  1  0  0  0  0
M  END
>  <MODEL>
7

>  <REMARK>
 VINA RESULT:      -6.8      2.869      4.554
  Name = 
  4 active torsions:
  status: ('A' for Active; 'I' for Inactive)
    1  A    between atoms: C_4  and  C_12
    2  A    between atoms: C_5  and  C_27
    3  A    between atoms: C_14  and  C_15
    4  A    between atoms: C_14  and  C_16
                            x       y       z     vdW  Elec       q    Type
                         _______ _______ _______ _____ _____    ______ ____

>  <TORSDO>
F 4

$$$$
=
 OpenBabel11062423093D

 28 32  0  0  1  0  0  0  0  0999 V2000
  192.5560  172.9280  145.0170 N   0  0  0  0  0  0  0  0  0  0  0  0
  189.4660  175.0010  144.7740 C   0  0  0  0  0  2  0  0  0  0  0  0
  194.1370  173.1530  143.2080 C   0  0  0  0  0  3  0  0  0  0  0  0
  192.2270  176.0750  143.5900 C   0  0  2  0  0  3  0  0  0  0  0  0
  193.1270  173.9180  142.4050 C   0  0  0  0  0  2  0  0  0  0  0  0
  191.3640  176.5060  144.6200 O   0  0  0  0  0  0  0  0  0  0  0  0
  191.7000  173.7650  144.5120 C   0  0  0  0  0  0  0  0  0  0  0  0
  190.4930  174.0560  145.2290 N   0  0  0  0  0  2  0  0  0  0  0  0
  193.8310  172.6650  144.4110 C   0  0  0  0  0  3  0  0  0  0  0  0
  190.0470  176.2970  144.1740 C   0  0  2  0  0  3  0  0  0  0  0  0
  192.0460  174.5650  143.2820 C   0  0  1  0  0  3  0  0  0  0  0  0
  187.0870  177.5720  146.0360 O   0  0  0  0  0  0  0  0  0  0  0  0
  186.1500  177.3490  142.4830 C   0  0  2  0  0  3  0  0  0  0  0  0
  186.1730  177.9160  144.9990 C   0  0  1  0  0  3  0  0  0  0  0  0
  189.1600  177.5120  144.5070 C   0  0  2  0  0  3  0  0  0  0  0  0
  188.4710  177.4300  145.8600 C   0  0  0  0  0  0  0  0  0  0  0  0
  188.3080  177.9100  143.4490 O   0  0  0  0  0  0  0  0  0  0  0  0
  186.1140  178.7480  142.4200 O   0  0  0  0  0  1  0  0  0  0  0  0
  186.1610  176.8300  143.9230 C   0  0  2  0  0  3  0  0  0  0  0  0
  187.4510  176.8390  143.1040 C   0  0  1  0  0  3  0  0  0  0  0  0
  189.1790  177.2400  146.8840 O   0  0  0  0  0  0  0  0  0  0  0  0
  183.9530  179.0610  145.0720 O   0  0  0  0  0  0  0  0  0  0  0  0
  184.4300  177.3470  146.5170 O   0  0  0  0  0  1  0  0  0  0  0  0
  184.8060  178.0840  145.5690 C   0  0  0  0  0  0  0  0  0  0  0  0
  193.6550  176.4310  143.9810 C   0  0  0  0  0  2  0  0  0  0  0  0
  194.9250  177.3620  145.7460 O   0  0  0  0  0  0  0  0  0  0  0  0
  193.7460  176.7070  145.4710 C   0  0  0  0  0  3  0  0  0  0  0  0
  194.8330  176.0470  146.0000 O   0  0  0  0  0  0  0  0  0  0  0  0
  2  8  1  0  0  0  0
  3  9  2  0  0  0  0
  4 25  1  1  0  0  0
  4  6  1  0  0  0  0
  5  3  1  0  0  0  0
  7  1  2  0  0  0  0
  7  8  1  0  0  0  0
  9  1  1  0  0  0  0
 10 15  1  0  0  0  0
 10  6  1  0  0  0  0
 10  2  1  1  0  0  0
 11  5  1  1  0  0  0
 11  4  1  0  0  0  0
 11  7  1  0  0  0  0
 13 18  1  1  0  0  0
 13 20  1  0  0  0  0
 13 19  1  0  0  0  0
 14 24  1  1  0  0  0
 14 12  1  0  0  0  0
 15 17  1  6  0  0  0
 15 16  1  0  0  0  0
 16 12  1  0  0  0  0
 16 21  2  0  0  0  0
 19 14  1  0  0  0  0
 20 17  1  0  0  0  0
 20 19  1  0  0  0  0
 22 24  2  0  0  0  0
 24 23  1  0  0  0  0
 25 27  1  0  0  0  0
 26 28  1  0  0  0  0
 27 26  1  0  0  0  0
 27 28  1  0  0  0  0
M  END
>  <MODEL>
8

>  <REMARK>
 VINA RESULT:      -6.8      2.346      7.591
  Name = 
  4 active torsions:
  status: ('A' for Active; 'I' for Inactive)
    1  A    between atoms: C_4  and  C_12
    2  A    between atoms: C_5  and  C_27
    3  A    between atoms: C_14  and  C_15
    4  A    between atoms: C_14  and  C_16
                            x       y       z     vdW  Elec       q    Type
                         _______ _______ _______ _____ _____    ______ ____

>  <TORSDO>
F 4

$$$$
=
 OpenBabel11062423093D

 28 32  0  0  1  0  0  0  0  0999 V2000
  194.0950  176.6850  144.3280 N   0  0  0  0  0  0  0  0  0  0  0  0
  190.4940  177.6530  144.3860 C   0  0  0  0  0  2  0  0  0  0  0  0
  194.7650  174.9710  145.8880 C   0  0  0  0  0  3  0  0  0  0  0  0
  191.3710  174.6570  145.0430 C   0  0  2  0  0  3  0  0  0  0  0  0
  193.4430  175.0770  146.5900 C   0  0  0  0  0  2  0  0  0  0  0  0
  190.5950  175.2550  144.0270 O   0  0  0  0  0  0  0  0  0  0  0  0
  192.8530  176.6950  144.7100 C   0  0  0  0  0  0  0  0  0  0  0  0
  191.9230  177.5710  144.0610 N   0  0  0  0  0  2  0  0  0  0  0  0
  195.0600  175.7640  144.8570 C   0  0  0  0  0  3  0  0  0  0  0  0
  189.8400  176.2770  144.6280 C   0  0  2  0  0  3  0  0  0  0  0  0
  192.3470  175.6710  145.6940 C   0  0  1  0  0  3  0  0  0  0  0  0
  187.0010  178.2360  143.2290 O   0  0  0  0  0  0  0  0  0  0  0  0
  186.2040  177.4840  146.7440 C   0  0  2  0  0  3  0  0  0  0  0  0
  186.0280  178.1860  144.2680 C   0  0  1  0  0  3  0  0  0  0  0  0
  188.3870  176.2530  144.1160 C   0  0  2  0  0  3  0  0  0  0  0  0
  188.0670  177.3340  143.0960 C   0  0  0  0  0  0  0  0  0  0  0  0
  187.4190  176.1210  145.1390 O   0  0  0  0  0  0  0  0  0  0  0  0
  185.1930  176.6160  146.3120 O   0  0  0  0  0  1  0  0  0  0  0  0
  186.6930  178.4090  145.6270 C   0  0  2  0  0  3  0  0  0  0  0  0
  187.5340  177.2030  146.0430 C   0  0  1  0  0  3  0  0  0  0  0  0
  188.7850  177.4190  142.0650 O   0  0  0  0  0  0  0  0  0  0  0  0
  185.3030  180.5760  144.1590 O   0  0  0  0  0  1  0  0  0  0  0  0
  183.8140  178.8850  143.7380 O   0  0  0  0  0  0  0  0  0  0  0  0
  184.9880  179.2290  144.0330 C   0  0  0  0  0  0  0  0  0  0  0  0
  192.0820  173.4470  144.4530 C   0  0  0  0  0  2  0  0  0  0  0  0
  190.8030  171.6700  143.5570 O   0  0  0  0  0  0  0  0  0  0  0  0
  191.3180  172.9110  143.2560 C   0  0  0  0  0  3  0  0  0  0  0  0
  191.9130  171.7540  142.8050 O   0  0  0  0  0  0  0  0  0  0  0  0
  1  7  2  0  0  0  0
  1  9  1  0  0  0  0
  3  5  1  0  0  0  0
  4 25  1  6  0  0  0
  4 11  1  0  0  0  0
  6 10  1  0  0  0  0
  6  4  1  0  0  0  0
  7 11  1  0  0  0  0
  8  2  1  0  0  0  0
  8  7  1  0  0  0  0
  9  3  2  0  0  0  0
 10  2  1  6  0  0  0
 11  5  1  6  0  0  0
 12 14  1  0  0  0  0
 13 18  1  6  0  0  0
 14 24  1  6  0  0  0
 14 19  1  0  0  0  0
 15 16  1  1  0  0  0
 15 10  1  0  0  0  0
 15 17  1  0  0  0  0
 16 12  1  0  0  0  0
 17 20  1  0  0  0  0
 19 20  1  0  0  0  0
 19 13  1  0  0  0  0
 20 13  1  0  0  0  0
 21 16  2  0  0  0  0
 23 24  2  0  0  0  0
 24 22  1  0  0  0  0
 27 26  1  0  0  0  0
 27 25  1  0  0  0  0
 28 27  1  0  0  0  0
 28 26  1  0  0  0  0
M  END
>  <MODEL>
9

>  <REMARK>
 VINA RESULT:      -6.7      2.568      7.549
  Name = 
  4 active torsions:
  status: ('A' for Active; 'I' for Inactive)
    1  A    between atoms: C_4  and  C_12
    2  A    between atoms: C_5  and  C_27
    3  A    between atoms: C_14  and  C_15
    4  A    between atoms: C_14  and  C_16
                            x       y       z     vdW  Elec       q    Type
                         _______ _______ _______ _____ _____    ______ ____

>  <TORSDO>
F 4

$$$$
