=
 OpenBabel11062422043D

 34 38  0  0  1  0  0  0  0  0999 V2000
  185.7910  177.6070  139.8020 C   0  0  0  0  0  1  0  0  0  0  0  0
  188.5600  176.6650  145.6640 C   0  0  0  0  0  0  0  0  0  0  0  0
  188.1840  176.0980  143.3250 C   0  0  0  0  0  0  0  0  0  0  0  0
  187.6060  177.6710  145.5780 C   0  0  0  0  0  3  0  0  0  0  0  0
  186.9440  177.9130  144.3730 C   0  0  0  0  0  0  0  0  0  0  0  0
  188.5850  175.2600  142.3780 C   0  0  0  0  0  3  0  0  0  0  0  0
  191.5480  175.1250  141.6600 O   0  0  0  0  0  0  0  0  0  0  0  0
  193.9800  176.4050  141.8120 O   0  0  0  0  0  1  0  0  0  0  0  0
  193.0480  175.9150  144.7560 N   0  0  2  0  0  0  0  0  0  0  0  0
  194.0700  175.7690  146.8870 C   0  0  0  0  0  3  0  0  0  0  0  0
  192.7960  175.5310  146.1500 C   0  0  1  0  0  3  0  0  0  0  0  0
  188.2900  175.1090  140.9530 C   0  0  0  0  0  0  0  0  0  0  0  0
  188.8270  175.8850  144.5440 C   0  0  0  0  0  3  0  0  0  0  0  0
  193.8280  173.8290  141.4790 O   0  0  0  0  0  0  0  0  0  0  0  0
  194.9390  176.3810  146.1120 C   0  0  0  0  0  3  0  0  0  0  0  0
  193.1530  174.9800  142.1930 P   0  0  2  0  0  0  0  0  0  0  0  0
  189.0060  174.0270  140.1910 C   0  0  0  0  0  0  0  0  0  0  0  0
  191.3030  175.9570  148.1270 C   0  0  0  0  0  2  0  0  0  0  0  0
  190.4420  175.5860  146.9420 C   0  0  1  0  0  3  0  0  0  0  0  0
  190.9860  173.8530  141.8000 C   0  0  0  0  0  2  0  0  0  0  0  0
  190.1810  173.4960  140.5880 C   0  0  0  0  0  3  0  0  0  0  0  0
  189.2860  176.4680  146.8790 N   0  0  0  0  0  2  0  0  0  0  0  0
  186.6460  176.9620  140.7810 N   0  0  0  0  0  0  0  0  0  0  0  0
  191.6960  176.4140  146.7320 C   0  0  2  0  0  3  0  0  0  0  0  0
  185.9990  178.9360  144.3350 O   0  0  0  0  0  1  0  0  0  0  0  0
  187.2340  177.1470  143.2150 C   0  0  0  0  0  0  0  0  0  0  0  0
  186.5750  177.4980  142.1040 C   0  0  0  0  0  3  0  0  0  0  0  0
  193.2300  174.6800  143.9970 C   0  0  0  0  0  2  0  0  0  0  0  0
  194.3390  176.6100  144.7740 C   0  0  0  0  0  2  0  0  0  0  0  0
  187.4420  175.8870  140.2840 C   0  0  0  0  0  3  0  0  0  0  0  0
  187.8160  172.3560  138.9600 O   0  0  0  0  0  0  0  0  0  0  0  0
  188.4130  173.4650  138.9430 C   0  0  0  0  0  0  0  0  0  0  0  0
  189.8650  174.0260  137.1630 O   0  0  0  0  0  1  0  0  0  0  0  0
  188.5580  174.1660  137.6290 C   0  0  0  0  0  2  0  0  0  0  0  0
  1 23  1  0  0  0  0
  2 22  1  0  0  0  0
  3 13  1  0  0  0  0
  4  2  1  0  0  0  0
  5  4  2  0  0  0  0
  6  3  2  0  0  0  0
  7 20  1  0  0  0  0
  7 16  1  0  0  0  0
  8 16  1  0  0  0  0
  9 28  1  6  0  0  0
  9 29  1  0  0  0  0
  9 11  1  0  0  0  0
 11 24  1  0  0  0  0
 11 10  1  1  0  0  0
 12  6  1  0  0  0  0
 13  2  2  0  0  0  0
 15 10  2  0  0  0  0
 16 14  2  6  0  0  0
 16 28  1  0  0  0  0
 17 21  2  0  0  0  0
 17 12  1  0  0  0  0
 19 18  1  1  0  0  0
 21 20  1  0  0  0  0
 22 19  1  0  0  0  0
 23 27  1  0  0  0  0
 24 19  1  0  0  0  0
 24 18  1  1  0  0  0
 25  5  1  0  0  0  0
 26  3  1  0  0  0  0
 26  5  1  0  0  0  0
 27 26  2  0  0  0  0
 29 15  1  0  0  0  0
 30 23  1  0  0  0  0
 30 12  2  0  0  0  0
 32 31  2  0  0  0  0
 32 17  1  0  0  0  0
 33 34  1  0  0  0  0
 34 32  1  0  0  0  0
M  END
>  <MODEL>
1

>  <REMARK>
 VINA RESULT:      -8.2      0.000      0.000
  Name = 
  2 active torsions:
  status: ('A' for Active; 'I' for Inactive)
    1  A    between atoms: C_19  and  C_33
    2  A    between atoms: C_20  and  C_33
                            x       y       z     vdW  Elec       q    Type
                         _______ _______ _______ _____ _____    ______ ____

>  <TORSDO>
F 2

$$$$
=
 OpenBabel11062422043D

 34 38  0  0  1  0  0  0  0  0999 V2000
  185.5850  178.0910  148.0530 C   0  0  0  0  0  1  0  0  0  0  0  0
  185.8940  177.9530  141.5120 C   0  0  0  0  0  0  0  0  0  0  0  0
  186.8720  177.7690  143.7350 C   0  0  0  0  0  0  0  0  0  0  0  0
  184.6810  178.3330  142.0720 C   0  0  0  0  0  3  0  0  0  0  0  0
  184.5430  178.4200  143.4580 C   0  0  0  0  0  0  0  0  0  0  0  0
  188.0080  177.4690  144.3530 C   0  0  0  0  0  3  0  0  0  0  0  0
  189.3160  174.7610  143.8420 O   0  0  0  0  0  0  0  0  0  0  0  0
  188.9420  172.2030  142.8970 O   0  0  0  0  0  0  0  0  0  0  0  0
  188.3260  174.1300  140.5130 N   0  0  2  0  0  0  0  0  0  0  0  0
  188.2650  173.9860  138.1500 C   0  0  0  0  0  3  0  0  0  0  0  0
  188.2360  174.9420  139.2940 C   0  0  1  0  0  3  0  0  0  0  0  0
  188.4040  177.3340  145.7550 C   0  0  0  0  0  0  0  0  0  0  0  0
  186.9750  177.6900  142.3470 C   0  0  0  0  0  3  0  0  0  0  0  0
  191.3090  173.2800  142.9780 O   0  0  0  0  0  1  0  0  0  0  0  0
  188.2020  172.7470  138.5880 C   0  0  0  0  0  3  0  0  0  0  0  0
  189.8570  173.6130  142.7140 P   0  0  2  0  0  0  0  0  0  0  0  0
  189.8200  176.9230  146.0550 C   0  0  0  0  0  0  0  0  0  0  0  0
  186.8430  176.6710  138.1130 C   0  0  0  0  0  2  0  0  0  0  0  0
  187.1870  177.1850  139.4920 C   0  0  1  0  0  3  0  0  0  0  0  0
  190.2420  175.8060  143.7930 C   0  0  0  0  0  2  0  0  0  0  0  0
  190.5990  176.2590  145.1760 C   0  0  0  0  0  3  0  0  0  0  0  0
  186.0120  177.7950  140.0960 N   0  0  0  0  0  2  0  0  0  0  0  0
  186.2110  177.9310  146.7550 N   0  0  0  0  0  0  0  0  0  0  0  0
  186.9150  175.7070  139.2860 C   0  0  2  0  0  3  0  0  0  0  0  0
  183.3050  178.8000  143.9730 O   0  0  0  0  0  1  0  0  0  0  0  0
  185.6270  178.1190  144.3200 C   0  0  0  0  0  0  0  0  0  0  0  0
  185.3670  178.1910  145.6310 C   0  0  0  0  0  3  0  0  0  0  0  0
  189.6990  174.2380  141.0020 C   0  0  0  0  0  2  0  0  0  0  0  0
  188.1290  172.7450  140.0700 C   0  0  0  0  0  2  0  0  0  0  0  0
  187.5810  177.5320  146.7820 C   0  0  0  0  0  3  0  0  0  0  0  0
  190.0370  178.2570  148.0280 O   0  0  0  0  0  0  0  0  0  0  0  0
  190.4440  177.2670  147.3640 C   0  0  0  0  0  0  0  0  0  0  0  0
  191.1590  175.2590  148.3890 O   0  0  0  0  0  1  0  0  0  0  0  0
  191.6030  176.4880  147.9020 C   0  0  0  0  0  2  0  0  0  0  0  0
  2  4  1  0  0  0  0
  2 13  2  0  0  0  0
  3 26  1  0  0  0  0
  3  6  2  0  0  0  0
  4  5  2  0  0  0  0
  5 25  1  0  0  0  0
  5 26  1  0  0  0  0
  6 12  1  0  0  0  0
  9 29  1  6  0  0  0
  9 28  1  0  0  0  0
 10 15  2  0  0  0  0
 11 10  1  6  0  0  0
 11  9  1  0  0  0  0
 12 17  1  0  0  0  0
 12 30  2  0  0  0  0
 13  3  1  0  0  0  0
 15 29  1  0  0  0  0
 16  8  2  1  0  0  0
 16 14  1  0  0  0  0
 16  7  1  0  0  0  0
 17 32  1  0  0  0  0
 19 18  1  6  0  0  0
 19 22  1  0  0  0  0
 20  7  1  0  0  0  0
 20 21  1  0  0  0  0
 21 17  2  0  0  0  0
 22  2  1  0  0  0  0
 23 30  1  0  0  0  0
 23  1  1  0  0  0  0
 24 18  1  6  0  0  0
 24 11  1  0  0  0  0
 24 19  1  0  0  0  0
 26 27  2  0  0  0  0
 27 23  1  0  0  0  0
 28 16  1  0  0  0  0
 32 34  1  0  0  0  0
 32 31  2  0  0  0  0
 34 33  1  0  0  0  0
M  END
>  <MODEL>
2

>  <REMARK>
 VINA RESULT:      -7.6      2.677      6.999
  Name = 
  2 active torsions:
  status: ('A' for Active; 'I' for Inactive)
    1  A    between atoms: C_19  and  C_33
    2  A    between atoms: C_20  and  C_33
                            x       y       z     vdW  Elec       q    Type
                         _______ _______ _______ _____ _____    ______ ____

>  <TORSDO>
F 2

$$$$
=
 OpenBabel11062422043D

 34 38  0  0  1  0  0  0  0  0999 V2000
  187.8170  174.5370  137.8110 C   0  0  0  0  0  1  0  0  0  0  0  0
  188.7050  175.6490  144.2050 C   0  0  0  0  0  0  0  0  0  0  0  0
  189.1920  174.4990  142.1140 C   0  0  0  0  0  0  0  0  0  0  0  0
  187.6690  176.3410  143.5880 C   0  0  0  0  0  3  0  0  0  0  0  0
  187.3930  176.1340  142.2360 C   0  0  0  0  0  0  0  0  0  0  0  0
  190.0090  173.5960  141.5860 C   0  0  0  0  0  3  0  0  0  0  0  0
  193.0240  174.0450  141.7340 O   0  0  0  0  0  0  0  0  0  0  0  0
  195.0260  175.8910  142.1390 O   0  0  0  0  0  0  0  0  0  0  0  0
  193.3080  175.8550  144.7510 N   0  0  2  0  0  0  0  0  0  0  0  0
  193.6120  176.4490  147.0240 C   0  0  0  0  0  3  0  0  0  0  0  0
  192.6970  175.7430  146.0820 C   0  0  1  0  0  3  0  0  0  0  0  0
  190.2110  173.0620  140.2390 C   0  0  0  0  0  0  0  0  0  0  0  0
  189.4420  174.7300  143.4660 C   0  0  0  0  0  3  0  0  0  0  0  0
  195.4310  173.3510  142.5330 O   0  0  0  0  0  1  0  0  0  0  0  0
  194.5630  177.0680  146.3590 C   0  0  0  0  0  3  0  0  0  0  0  0
  194.3780  174.4270  142.6850 P   0  0  2  0  0  0  0  0  0  0  0  0
  191.3050  172.0500  140.0340 C   0  0  0  0  0  0  0  0  0  0  0  0
  190.6050  176.2150  147.3930 C   0  0  0  0  0  2  0  0  0  0  0  0
  190.2410  175.3870  146.1830 C   0  0  1  0  0  3  0  0  0  0  0  0
  192.6730  172.7380  142.0830 C   0  0  0  0  0  2  0  0  0  0  0  0
  192.3670  171.9310  140.8580 C   0  0  0  0  0  3  0  0  0  0  0  0
  189.0310  175.9160  145.5700 N   0  0  0  0  0  2  0  0  0  0  0  0
  188.4150  174.3610  139.1210 N   0  0  0  0  0  0  0  0  0  0  0  0
  191.3350  176.4320  146.0780 C   0  0  2  0  0  3  0  0  0  0  0  0
  186.3480  176.8550  141.6610 O   0  0  0  0  0  1  0  0  0  0  0  0
  188.1610  175.2260  141.4630 C   0  0  0  0  0  0  0  0  0  0  0  0
  187.8370  175.1440  140.1680 C   0  0  0  0  0  3  0  0  0  0  0  0
  193.9300  174.5670  144.4540 C   0  0  0  0  0  2  0  0  0  0  0  0
  194.3880  176.8350  144.9040 C   0  0  0  0  0  2  0  0  0  0  0  0
  189.4980  173.4350  139.1780 C   0  0  0  0  0  3  0  0  0  0  0  0
  191.8200  171.3580  137.8030 O   0  0  0  0  0  0  0  0  0  0  0  0
  191.2440  171.0940  138.8910 C   0  0  0  0  0  0  0  0  0  0  0  0
  189.6730  169.6780  137.8320 O   0  0  0  0  0  1  0  0  0  0  0  0
  190.4530  169.8260  138.9790 C   0  0  0  0  0  2  0  0  0  0  0  0
  1 23  1  0  0  0  0
  2 22  1  0  0  0  0
  3 13  1  0  0  0  0
  4  2  1  0  0  0  0
  5  4  2  0  0  0  0
  6  3  2  0  0  0  0
  7 20  1  0  0  0  0
  7 16  1  0  0  0  0
  9 28  1  1  0  0  0
  9 29  1  0  0  0  0
  9 11  1  0  0  0  0
 11 10  1  1  0  0  0
 12  6  1  0  0  0  0
 13  2  2  0  0  0  0
 14 16  1  0  0  0  0
 15 10  2  0  0  0  0
 16  8  2  6  0  0  0
 16 28  1  0  0  0  0
 17 12  1  0  0  0  0
 17 21  2  0  0  0  0
 19 18  1  1  0  0  0
 21 20  1  0  0  0  0
 22 19  1  0  0  0  0
 23 30  1  0  0  0  0
 23 27  1  0  0  0  0
 24 11  1  0  0  0  0
 24 19  1  0  0  0  0
 24 18  1  1  0  0  0
 25  5  1  0  0  0  0
 26  3  1  0  0  0  0
 26  5  1  0  0  0  0
 27 26  2  0  0  0  0
 29 15  1  0  0  0  0
 30 12  2  0  0  0  0
 31 32  2  0  0  0  0
 32 34  1  0  0  0  0
 32 17  1  0  0  0  0
 33 34  1  0  0  0  0
M  END
>  <MODEL>
3

>  <REMARK>
 VINA RESULT:      -7.4      1.815      2.567
  Name = 
  2 active torsions:
  status: ('A' for Active; 'I' for Inactive)
    1  A    between atoms: C_19  and  C_33
    2  A    between atoms: C_20  and  C_33
                            x       y       z     vdW  Elec       q    Type
                         _______ _______ _______ _____ _____    ______ ____

>  <TORSDO>
F 2

$$$$
=
 OpenBabel11062422043D

 34 38  0  0  1  0  0  0  0  0999 V2000
  194.9390  177.9250  145.7700 C   0  0  0  0  0  1  0  0  0  0  0  0
  194.4240  171.4250  145.1400 C   0  0  0  0  0  0  0  0  0  0  0  0
  193.4960  173.6730  145.2640 C   0  0  0  0  0  0  0  0  0  0  0  0
  195.6910  171.9280  145.4060 C   0  0  0  0  0  3  0  0  0  0  0  0
  195.8800  173.2990  145.5880 C   0  0  0  0  0  0  0  0  0  0  0  0
  192.3510  174.3360  145.1630 C   0  0  0  0  0  3  0  0  0  0  0  0
  190.6980  174.0800  142.6100 O   0  0  0  0  0  0  0  0  0  0  0  0
  190.7200  173.3480  139.9570 O   0  0  0  0  0  0  0  0  0  0  0  0
  191.5030  170.7990  141.5890 N   0  0  2  0  0  0  0  0  0  0  0  0
  191.4760  168.4560  141.2460 C   0  0  0  0  0  3  0  0  0  0  0  0
  191.6590  169.5140  142.2810 C   0  0  1  0  0  3  0  0  0  0  0  0
  191.9810  175.7520  145.1940 C   0  0  0  0  0  0  0  0  0  0  0  0
  193.3430  172.2990  145.0850 C   0  0  0  0  0  3  0  0  0  0  0  0
  188.5100  173.3820  141.3300 O   0  0  0  0  0  1  0  0  0  0  0  0
  191.3960  168.9960  140.0490 C   0  0  0  0  0  3  0  0  0  0  0  0
  189.9850  173.0640  141.4530 P   0  0  2  0  0  0  0  0  0  0  0  0
  190.5340  176.1110  144.9930 C   0  0  0  0  0  0  0  0  0  0  0  0
  193.2220  168.1660  143.7160 C   0  0  0  0  0  2  0  0  0  0  0  0
  192.9860  169.5020  144.3800 C   0  0  1  0  0  3  0  0  0  0  0  0
  189.9090  173.9600  143.7580 C   0  0  0  0  0  2  0  0  0  0  0  0
  189.6520  175.3070  144.3640 C   0  0  0  0  0  3  0  0  0  0  0  0
  194.2460  170.0310  144.8830 N   0  0  0  0  0  2  0  0  0  0  0  0
  194.2600  176.6560  145.5860 N   0  0  0  0  0  0  0  0  0  0  0  0
  193.0650  169.4170  142.8680 C   0  0  2  0  0  3  0  0  0  0  0  0
  197.1700  173.7570  145.8470 O   0  0  0  0  0  1  0  0  0  0  0  0
  194.7910  174.2040  145.4990 C   0  0  0  0  0  0  0  0  0  0  0  0
  195.0970  175.4990  145.6430 C   0  0  0  0  0  3  0  0  0  0  0  0
  190.1700  171.3020  141.9110 C   0  0  0  0  0  2  0  0  0  0  0  0
  191.5110  170.4710  140.1590 C   0  0  0  0  0  2  0  0  0  0  0  0
  192.8530  176.7420  145.3680 C   0  0  0  0  0  3  0  0  0  0  0  0
  189.9260  178.4140  144.7770 O   0  0  0  0  0  0  0  0  0  0  0  0
  189.9970  177.3990  145.5190 C   0  0  0  0  0  0  0  0  0  0  0  0
  188.1920  177.4940  147.0430 O   0  0  0  0  0  1  0  0  0  0  0  0
  189.5820  177.5430  146.9490 C   0  0  0  0  0  2  0  0  0  0  0  0
  2  4  1  0  0  0  0
  3 26  1  0  0  0  0
  4  5  2  0  0  0  0
  5 25  1  0  0  0  0
  6 12  1  0  0  0  0
  6  3  2  0  0  0  0
  7 20  1  0  0  0  0
  9 29  1  6  0  0  0
  9 28  1  0  0  0  0
  9 11  1  0  0  0  0
 11 10  1  6  0  0  0
 11 24  1  0  0  0  0
 12 30  2  0  0  0  0
 13  2  2  0  0  0  0
 13  3  1  0  0  0  0
 14 16  1  0  0  0  0
 15 29  1  0  0  0  0
 15 10  2  0  0  0  0
 16  8  2  6  0  0  0
 16 28  1  0  0  0  0
 16  7  1  0  0  0  0
 17 12  1  0  0  0  0
 17 32  1  0  0  0  0
 19 18  1  1  0  0  0
 19 22  1  0  0  0  0
 20 21  1  0  0  0  0
 21 17  2  0  0  0  0
 22  2  1  0  0  0  0
 23 27  1  0  0  0  0
 23  1  1  0  0  0  0
 24 18  1  1  0  0  0
 24 19  1  0  0  0  0
 26  5  1  0  0  0  0
 26 27  2  0  0  0  0
 30 23  1  0  0  0  0
 31 32  2  0  0  0  0
 32 34  1  0  0  0  0
 34 33  1  0  0  0  0
M  END
>  <MODEL>
4

>  <REMARK>
 VINA RESULT:      -7.2      3.545      7.818
  Name = 
  2 active torsions:
  status: ('A' for Active; 'I' for Inactive)
    1  A    between atoms: C_19  and  C_33
    2  A    between atoms: C_20  and  C_33
                            x       y       z     vdW  Elec       q    Type
                         _______ _______ _______ _____ _____    ______ ____

>  <TORSDO>
F 2

$$$$
=
 OpenBabel11062422043D

 34 38  0  0  1  0  0  0  0  0999 V2000
  186.9210  176.9430  141.9050 C   0  0  0  0  0  1  0  0  0  0  0  0
  192.1990  175.2760  145.4090 C   0  0  0  0  0  0  0  0  0  0  0  0
  190.6900  175.0390  143.5120 C   0  0  0  0  0  0  0  0  0  0  0  0
  191.3660  176.2440  145.9560 C   0  0  0  0  0  3  0  0  0  0  0  0
  190.2020  176.6300  145.2880 C   0  0  0  0  0  0  0  0  0  0  0  0
  190.5350  174.3630  142.3800 C   0  0  0  0  0  3  0  0  0  0  0  0
  192.7420  174.4540  140.2750 O   0  0  0  0  0  0  0  0  0  0  0  0
  194.9740  175.7960  139.3830 O   0  0  0  0  0  1  0  0  0  0  0  0
  195.6110  174.8470  142.2940 N   0  0  2  0  0  0  0  0  0  0  0  0
  197.5510  174.4360  143.5890 C   0  0  0  0  0  3  0  0  0  0  0  0
  196.0710  174.2550  143.5560 C   0  0  1  0  0  3  0  0  0  0  0  0
  189.5660  174.4090  141.2850 C   0  0  0  0  0  0  0  0  0  0  0  0
  191.8440  174.6780  144.2040 C   0  0  0  0  0  3  0  0  0  0  0  0
  194.5810  173.2910  138.7980 O   0  0  0  0  0  0  0  0  0  0  0  0
  197.9410  175.1880  142.5830 C   0  0  0  0  0  3  0  0  0  0  0  0
  194.3940  174.2980  139.9130 P   0  0  2  0  0  0  0  0  0  0  0  0
  189.7670  173.4780  140.1200 C   0  0  0  0  0  0  0  0  0  0  0  0
  195.7740  174.3300  146.0520 C   0  0  0  0  0  2  0  0  0  0  0  0
  194.4260  174.1000  145.4110 C   0  0  1  0  0  3  0  0  0  0  0  0
  192.2780  173.1530  140.4890 C   0  0  0  0  0  2  0  0  0  0  0  0
  190.9640  172.9430  139.7990 C   0  0  0  0  0  3  0  0  0  0  0  0
  193.4240  174.9340  146.0590 N   0  0  0  0  0  2  0  0  0  0  0  0
  188.1240  176.1990  142.2250 N   0  0  0  0  0  0  0  0  0  0  0  0
  195.4390  175.0000  144.7290 C   0  0  2  0  0  3  0  0  0  0  0  0
  189.4020  177.6090  145.8740 O   0  0  0  0  0  1  0  0  0  0  0  0
  189.8500  176.0530  144.0420 C   0  0  0  0  0  0  0  0  0  0  0  0
  188.7400  176.5340  143.4700 C   0  0  0  0  0  3  0  0  0  0  0  0
  195.3450  173.7440  141.3740 C   0  0  0  0  0  2  0  0  0  0  0  0
  196.7650  175.5840  141.7690 C   0  0  0  0  0  2  0  0  0  0  0  0
  188.5270  175.2400  141.2480 C   0  0  0  0  0  3  0  0  0  0  0  0
  187.7430  172.2770  139.6960 O   0  0  0  0  0  0  0  0  0  0  0  0
  188.6130  173.0790  139.2650 C   0  0  0  0  0  0  0  0  0  0  0  0
  187.7460  174.7530  137.8370 O   0  0  0  0  0  1  0  0  0  0  0  0
  188.4820  173.5680  137.8570 C   0  0  0  0  0  2  0  0  0  0  0  0
  1 23  1  0  0  0  0
  2  4  1  0  0  0  0
  2 22  1  0  0  0  0
  3 26  1  0  0  0  0
  3 13  1  0  0  0  0
  5 25  1  0  0  0  0
  5  4  2  0  0  0  0
  6  3  2  0  0  0  0
  7 20  1  0  0  0  0
  8 16  1  0  0  0  0
  9 28  1  6  0  0  0
  9 11  1  0  0  0  0
 11 10  1  1  0  0  0
 11 24  1  0  0  0  0
 12  6  1  0  0  0  0
 13  2  2  0  0  0  0
 15 10  2  0  0  0  0
 16 14  2  6  0  0  0
 16  7  1  0  0  0  0
 16 28  1  0  0  0  0
 17 12  1  0  0  0  0
 19 18  1  1  0  0  0
 19 22  1  0  0  0  0
 21 17  2  0  0  0  0
 21 20  1  0  0  0  0
 23 27  1  0  0  0  0
 24 19  1  0  0  0  0
 24 18  1  1  0  0  0
 26  5  1  0  0  0  0
 27 26  2  0  0  0  0
 29  9  1  0  0  0  0
 29 15  1  0  0  0  0
 30 12  2  0  0  0  0
 30 23  1  0  0  0  0
 32 31  2  0  0  0  0
 32 17  1  0  0  0  0
 33 34  1  0  0  0  0
 34 32  1  0  0  0  0
M  END
>  <MODEL>
5

>  <REMARK>
 VINA RESULT:      -7.0      2.278      3.211
  Name = 
  2 active torsions:
  status: ('A' for Active; 'I' for Inactive)
    1  A    between atoms: C_19  and  C_33
    2  A    between atoms: C_20  and  C_33
                            x       y       z     vdW  Elec       q    Type
                         _______ _______ _______ _____ _____    ______ ____

>  <TORSDO>
F 2

$$$$
=
 OpenBabel11062422043D

 34 38  0  0  1  0  0  0  0  0999 V2000
  190.1630  176.6460  147.2860 C   0  0  0  0  0  1  0  0  0  0  0  0
  188.5630  175.0050  141.1490 C   0  0  0  0  0  0  0  0  0  0  0  0
  190.1560  175.3360  142.9620 C   0  0  0  0  0  0  0  0  0  0  0  0
  187.5430  175.5050  141.9480 C   0  0  0  0  0  3  0  0  0  0  0  0
  187.8080  175.9100  143.2580 C   0  0  0  0  0  0  0  0  0  0  0  0
  191.4400  175.1860  143.2630 C   0  0  0  0  0  3  0  0  0  0  0  0
  192.7220  172.4300  142.9940 O   0  0  0  0  0  0  0  0  0  0  0  0
  192.2640  169.7240  142.7910 O   0  0  0  0  0  1  0  0  0  0  0  0
  190.8510  171.0510  140.3370 N   0  0  2  0  0  0  0  0  0  0  0  0
  190.1150  170.3670  138.1930 C   0  0  0  0  0  3  0  0  0  0  0  0
  190.3560  171.5610  139.0530 C   0  0  1  0  0  3  0  0  0  0  0  0
  192.2360  175.3760  144.4760 C   0  0  0  0  0  0  0  0  0  0  0  0
  189.8560  174.9400  141.6600 C   0  0  0  0  0  3  0  0  0  0  0  0
  194.4730  170.7870  141.9220 O   0  0  0  0  0  0  0  0  0  0  0  0
  190.2660  169.2630  138.8910 C   0  0  0  0  0  3  0  0  0  0  0  0
  192.9880  171.0530  142.0370 P   0  0  2  0  0  0  0  0  0  0  0  0
  193.7020  175.0440  144.4220 C   0  0  0  0  0  0  0  0  0  0  0  0
  188.5660  172.9730  137.9930 C   0  0  0  0  0  2  0  0  0  0  0  0
  189.2610  173.7910  139.0570 C   0  0  1  0  0  3  0  0  0  0  0  0
  193.5220  173.4350  142.4410 C   0  0  0  0  0  2  0  0  0  0  0  0
  194.2340  174.1930  143.5190 C   0  0  0  0  0  3  0  0  0  0  0  0
  188.2740  174.5260  139.8350 N   0  0  0  0  0  2  0  0  0  0  0  0
  190.3930  176.1900  145.9280 N   0  0  0  0  0  0  0  0  0  0  0  0
  189.0410  172.3050  139.2730 C   0  0  2  0  0  3  0  0  0  0  0  0
  186.7510  176.3990  144.0220 O   0  0  0  0  0  1  0  0  0  0  0  0
  189.1150  175.8140  143.8010 C   0  0  0  0  0  0  0  0  0  0  0  0
  189.2430  176.1850  145.0800 C   0  0  0  0  0  3  0  0  0  0  0  0
  192.2960  171.2680  140.3570 C   0  0  0  0  0  2  0  0  0  0  0  0
  190.6280  169.6020  140.2900 C   0  0  0  0  0  2  0  0  0  0  0  0
  191.7350  175.8060  145.6320 C   0  0  0  0  0  3  0  0  0  0  0  0
  195.3660  174.9710  146.1380 O   0  0  0  0  0  0  0  0  0  0  0  0
  194.6550  175.6780  145.3760 C   0  0  0  0  0  0  0  0  0  0  0  0
  194.5660  177.5410  146.8300 O   0  0  0  0  0  1  0  0  0  0  0  0
  194.7570  177.1660  145.5000 C   0  0  0  0  0  2  0  0  0  0  0  0
  2 13  2  0  0  0  0
  2  4  1  0  0  0  0
  3  6  2  0  0  0  0
  3 26  1  0  0  0  0
  4  5  2  0  0  0  0
  5 26  1  0  0  0  0
  5 25  1  0  0  0  0
  6 12  1  0  0  0  0
  9 29  1  6  0  0  0
  9 28  1  0  0  0  0
 10 15  2  0  0  0  0
 11 10  1  6  0  0  0
 11 24  1  0  0  0  0
 11  9  1  0  0  0  0
 12 30  2  0  0  0  0
 13  3  1  0  0  0  0
 15 29  1  0  0  0  0
 16 14  2  6  0  0  0
 16  8  1  0  0  0  0
 16  7  1  0  0  0  0
 17 12  1  0  0  0  0
 17 32  1  0  0  0  0
 19 18  1  6  0  0  0
 19 24  1  0  0  0  0
 19 22  1  0  0  0  0
 20  7  1  0  0  0  0
 20 21  1  0  0  0  0
 21 17  2  0  0  0  0
 22  2  1  0  0  0  0
 23  1  1  0  0  0  0
 24 18  1  6  0  0  0
 26 27  2  0  0  0  0
 27 23  1  0  0  0  0
 28 16  1  0  0  0  0
 30 23  1  0  0  0  0
 32 34  1  0  0  0  0
 32 31  2  0  0  0  0
 34 33  1  0  0  0  0
M  END
>  <MODEL>
6

>  <REMARK>
 VINA RESULT:      -6.8      2.773      7.036
  Name = 
  2 active torsions:
  status: ('A' for Active; 'I' for Inactive)
    1  A    between atoms: C_19  and  C_33
    2  A    between atoms: C_20  and  C_33
                            x       y       z     vdW  Elec       q    Type
                         _______ _______ _______ _____ _____    ______ ____

>  <TORSDO>
F 2

$$$$
=
 OpenBabel11062422043D

 34 38  0  0  1  0  0  0  0  0999 V2000
  189.5860  172.6400  137.3930 C   0  0  0  0  0  1  0  0  0  0  0  0
  188.8740  175.3280  143.3230 C   0  0  0  0  0  0  0  0  0  0  0  0
  189.7430  173.6430  141.7950 C   0  0  0  0  0  0  0  0  0  0  0  0
  188.1430  175.8970  142.2880 C   0  0  0  0  0  3  0  0  0  0  0  0
  188.2130  175.3620  141.0010 C   0  0  0  0  0  0  0  0  0  0  0  0
  190.5440  172.5850  141.7550 C   0  0  0  0  0  3  0  0  0  0  0  0
  193.4410  172.8710  142.6690 O   0  0  0  0  0  0  0  0  0  0  0  0
  195.4900  174.6300  143.2000 O   0  0  0  0  0  0  0  0  0  0  0  0
  193.1470  175.3850  145.1280 N   0  0  2  0  0  0  0  0  0  0  0  0
  192.9100  176.5320  147.1870 C   0  0  0  0  0  3  0  0  0  0  0  0
  192.1940  175.6620  146.2100 C   0  0  1  0  0  3  0  0  0  0  0  0
  191.0250  171.7060  140.6890 C   0  0  0  0  0  0  0  0  0  0  0  0
  189.6520  174.2040  143.0680 C   0  0  0  0  0  3  0  0  0  0  0  0
  195.4310  172.2610  144.2750 O   0  0  0  0  0  1  0  0  0  0  0  0
  194.0780  176.8960  146.7040 C   0  0  0  0  0  3  0  0  0  0  0  0
  194.5300  173.4030  143.8580 P   0  0  2  0  0  0  0  0  0  0  0  0
  191.9880  170.6100  141.0540 C   0  0  0  0  0  0  0  0  0  0  0  0
  189.9100  176.5890  146.7040 C   0  0  0  0  0  2  0  0  0  0  0  0
  189.7750  175.4970  145.6680 C   0  0  1  0  0  3  0  0  0  0  0  0
  192.8380  171.7240  143.1940 C   0  0  0  0  0  2  0  0  0  0  0  0
  192.7650  170.6450  142.1570 C   0  0  0  0  0  3  0  0  0  0  0  0
  188.8550  175.9220  144.6230 N   0  0  0  0  0  2  0  0  0  0  0  0
  189.7830  172.7760  138.8230 N   0  0  0  0  0  0  0  0  0  0  0  0
  190.9880  176.4090  145.6480 C   0  0  2  0  0  3  0  0  0  0  0  0
  187.4660  175.9700  139.9940 O   0  0  0  0  0  1  0  0  0  0  0  0
  189.0310  174.2380  140.7210 C   0  0  0  0  0  0  0  0  0  0  0  0
  189.0570  173.8400  139.4430 C   0  0  0  0  0  3  0  0  0  0  0  0
  193.6480  174.0280  145.3340 C   0  0  0  0  0  2  0  0  0  0  0  0
  194.2690  176.3020  145.3580 C   0  0  0  0  0  2  0  0  0  0  0  0
  190.6780  171.8320  139.4100 C   0  0  0  0  0  3  0  0  0  0  0  0
  192.9890  169.3250  139.3030 O   0  0  0  0  0  0  0  0  0  0  0  0
  192.1070  169.3940  140.1990 C   0  0  0  0  0  0  0  0  0  0  0  0
  190.2440  168.2640  139.2800 O   0  0  0  0  0  1  0  0  0  0  0  0
  191.1530  168.2490  140.3380 C   0  0  0  0  0  2  0  0  0  0  0  0
  1 23  1  0  0  0  0
  2 22  1  0  0  0  0
  3 13  1  0  0  0  0
  4  2  1  0  0  0  0
  5  4  2  0  0  0  0
  6  3  2  0  0  0  0
  7 20  1  0  0  0  0
  7 16  1  0  0  0  0
  9 28  1  1  0  0  0
  9 29  1  0  0  0  0
  9 11  1  0  0  0  0
 11 10  1  1  0  0  0
 12 17  1  0  0  0  0
 12  6  1  0  0  0  0
 13  2  2  0  0  0  0
 15 10  2  0  0  0  0
 16  8  2  6  0  0  0
 16 14  1  0  0  0  0
 16 28  1  0  0  0  0
 17 21  2  0  0  0  0
 19 18  1  1  0  0  0
 21 20  1  0  0  0  0
 22 19  1  0  0  0  0
 23 30  1  0  0  0  0
 23 27  1  0  0  0  0
 24 19  1  0  0  0  0
 24 11  1  0  0  0  0
 24 18  1  1  0  0  0
 25  5  1  0  0  0  0
 26  5  1  0  0  0  0
 26  3  1  0  0  0  0
 27 26  2  0  0  0  0
 29 15  1  0  0  0  0
 30 12  2  0  0  0  0
 31 32  2  0  0  0  0
 32 34  1  0  0  0  0
 32 17  1  0  0  0  0
 33 34  1  0  0  0  0
M  END
>  <MODEL>
7

>  <REMARK>
 VINA RESULT:      -6.7      2.683      3.938
  Name = 
  2 active torsions:
  status: ('A' for Active; 'I' for Inactive)
    1  A    between atoms: C_19  and  C_33
    2  A    between atoms: C_20  and  C_33
                            x       y       z     vdW  Elec       q    Type
                         _______ _______ _______ _____ _____    ______ ____

>  <TORSDO>
F 2

$$$$
=
 OpenBabel11062422043D

 34 38  0  0  1  0  0  0  0  0999 V2000
  191.1460  178.6720  143.8880 C   0  0  0  0  0  1  0  0  0  0  0  0
  193.2850  172.5630  144.8960 C   0  0  0  0  0  0  0  0  0  0  0  0
  191.6510  174.1870  144.1070 C   0  0  0  0  0  0  0  0  0  0  0  0
  194.0660  173.5910  145.4100 C   0  0  0  0  0  3  0  0  0  0  0  0
  193.6620  174.9200  145.2670 C   0  0  0  0  0  0  0  0  0  0  0  0
  190.4900  174.2730  143.4700 C   0  0  0  0  0  3  0  0  0  0  0  0
  190.2180  173.0440  140.6900 O   0  0  0  0  0  0  0  0  0  0  0  0
  191.5680  172.1020  138.4840 O   0  0  0  0  0  0  0  0  0  0  0  0
  192.4790  170.3430  140.9030 N   0  0  2  0  0  0  0  0  0  0  0  0
  193.4310  168.1960  141.2120 C   0  0  0  0  0  3  0  0  0  0  0  0
  192.7900  169.3370  141.9260 C   0  0  1  0  0  3  0  0  0  0  0  0
  189.6610  175.3840  142.9990 C   0  0  0  0  0  0  0  0  0  0  0  0
  192.0850  172.8720  144.2650 C   0  0  0  0  0  3  0  0  0  0  0  0
  189.1400  171.3300  139.0130 O   0  0  0  0  0  1  0  0  0  0  0  0
  193.6540  168.5110  139.9550 C   0  0  0  0  0  3  0  0  0  0  0  0
  190.4470  171.6970  139.6830 P   0  0  2  0  0  0  0  0  0  0  0  0
  188.3940  175.0570  142.2560 C   0  0  0  0  0  0  0  0  0  0  0  0
  194.0100  168.9680  144.0940 C   0  0  0  0  0  2  0  0  0  0  0  0
  193.0660  170.1360  144.2630 C   0  0  1  0  0  3  0  0  0  0  0  0
  189.1340  172.7240  141.5110 C   0  0  0  0  0  2  0  0  0  0  0  0
  188.1920  173.8860  141.6180 C   0  0  0  0  0  3  0  0  0  0  0  0
  193.7360  171.2100  144.9810 N   0  0  0  0  0  2  0  0  0  0  0  0
  191.1010  177.2220  143.8430 N   0  0  0  0  0  0  0  0  0  0  0  0
  193.7720  169.9250  142.9360 C   0  0  2  0  0  3  0  0  0  0  0  0
  194.4820  175.9160  145.7930 O   0  0  0  0  0  1  0  0  0  0  0  0
  192.4580  175.2490  144.5930 C   0  0  0  0  0  0  0  0  0  0  0  0
  192.1960  176.5560  144.4750 C   0  0  0  0  0  3  0  0  0  0  0  0
  191.0460  170.2520  140.6330 C   0  0  0  0  0  2  0  0  0  0  0  0
  193.1800  169.8930  139.6950 C   0  0  0  0  0  2  0  0  0  0  0  0
  189.9720  176.6670  143.1710 C   0  0  0  0  0  3  0  0  0  0  0  0
  186.3920  176.0410  143.1170 O   0  0  0  0  0  0  0  0  0  0  0  0
  187.2700  176.0360  142.2150 C   0  0  0  0  0  0  0  0  0  0  0  0
  186.9590  178.2910  141.5760 O   0  0  0  0  0  1  0  0  0  0  0  0
  187.1170  176.9970  141.0790 C   0  0  0  0  0  2  0  0  0  0  0  0
  2 22  1  0  0  0  0
  2  4  1  0  0  0  0
  3 13  1  0  0  0  0
  3 26  1  0  0  0  0
  5  4  2  0  0  0  0
  5 25  1  0  0  0  0
  6  3  2  0  0  0  0
  7 20  1  0  0  0  0
  9 29  1  6  0  0  0
  9 11  1  0  0  0  0
 11 10  1  6  0  0  0
 11 24  1  0  0  0  0
 12 30  2  0  0  0  0
 12  6  1  0  0  0  0
 13  2  2  0  0  0  0
 14 16  1  0  0  0  0
 15 10  2  0  0  0  0
 16  8  2  6  0  0  0
 16 28  1  0  0  0  0
 16  7  1  0  0  0  0
 17 12  1  0  0  0  0
 19 18  1  1  0  0  0
 19 22  1  0  0  0  0
 20 21  1  0  0  0  0
 21 17  2  0  0  0  0
 23  1  1  0  0  0  0
 23 27  1  0  0  0  0
 24 18  1  1  0  0  0
 24 19  1  0  0  0  0
 26  5  1  0  0  0  0
 27 26  2  0  0  0  0
 28  9  1  0  0  0  0
 29 15  1  0  0  0  0
 30 23  1  0  0  0  0
 32 17  1  0  0  0  0
 32 31  2  0  0  0  0
 34 33  1  0  0  0  0
 34 32  1  0  0  0  0
M  END
>  <MODEL>
8

>  <REMARK>
 VINA RESULT:      -6.6      3.508      6.213
  Name = 
  2 active torsions:
  status: ('A' for Active; 'I' for Inactive)
    1  A    between atoms: C_19  and  C_33
    2  A    between atoms: C_20  and  C_33
                            x       y       z     vdW  Elec       q    Type
                         _______ _______ _______ _____ _____    ______ ____

>  <TORSDO>
F 2

$$$$
=
 OpenBabel11062422043D

 34 38  0  0  1  0  0  0  0  0999 V2000
  192.0520  177.1640  145.4090 C   0  0  0  0  0  1  0  0  0  0  0  0
  191.8880  170.9780  143.2590 C   0  0  0  0  0  0  0  0  0  0  0  0
  190.9550  173.2140  143.5090 C   0  0  0  0  0  0  0  0  0  0  0  0
  192.9570  171.3270  144.0750 C   0  0  0  0  0  3  0  0  0  0  0  0
  193.0470  172.6170  144.6030 C   0  0  0  0  0  0  0  0  0  0  0  0
  189.9240  173.9610  143.1360 C   0  0  0  0  0  3  0  0  0  0  0  0
  189.3550  174.3440  140.1630 O   0  0  0  0  0  0  0  0  0  0  0  0
  190.3810  174.1640  137.6150 O   0  0  0  0  0  0  0  0  0  0  0  0
  190.5230  171.2890  138.8350 N   0  0  2  0  0  0  0  0  0  0  0  0
  190.6550  169.0710  138.0140 C   0  0  0  0  0  3  0  0  0  0  0  0
  190.4230  169.8830  139.2440 C   0  0  1  0  0  3  0  0  0  0  0  0
  189.5530  175.3640  143.3310 C   0  0  0  0  0  0  0  0  0  0  0  0
  190.8970  171.9190  142.9980 C   0  0  0  0  0  3  0  0  0  0  0  0
  187.8170  174.0730  138.0480 O   0  0  0  0  0  1  0  0  0  0  0  0
  191.0240  169.8470  137.0180 C   0  0  0  0  0  3  0  0  0  0  0  0
  189.1410  173.6340  138.6350 P   0  0  2  0  0  0  0  0  0  0  0  0
  188.2840  175.8570  142.6910 C   0  0  0  0  0  0  0  0  0  0  0  0
  191.3480  168.1660  140.8310 C   0  0  0  0  0  2  0  0  0  0  0  0
  190.8640  169.3530  141.6300 C   0  0  1  0  0  3  0  0  0  0  0  0
  188.1940  174.0490  140.8830 C   0  0  0  0  0  2  0  0  0  0  0  0
  187.7130  175.2590  141.6240 C   0  0  0  0  0  3  0  0  0  0  0  0
  191.8360  169.6800  142.6630 N   0  0  0  0  0  2  0  0  0  0  0  0
  191.5070  176.0090  144.7200 N   0  0  0  0  0  0  0  0  0  0  0  0
  191.5060  169.5720  140.2730 C   0  0  2  0  0  3  0  0  0  0  0  0
  194.1400  172.9210  145.4110 O   0  0  0  0  0  1  0  0  0  0  0  0
  192.0610  173.5950  144.3130 C   0  0  0  0  0  0  0  0  0  0  0  0
  192.2750  174.8090  144.8340 C   0  0  0  0  0  3  0  0  0  0  0  0
  189.1610  171.8080  138.7420 C   0  0  0  0  0  2  0  0  0  0  0  0
  191.0720  171.2580  137.4750 C   0  0  0  0  0  2  0  0  0  0  0  0
  190.2840  176.2360  144.0220 C   0  0  0  0  0  3  0  0  0  0  0  0
  187.8060  178.1980  142.7920 O   0  0  0  0  0  0  0  0  0  0  0  0
  187.5730  177.0450  143.2430 C   0  0  0  0  0  0  0  0  0  0  0  0
  187.2810  177.1250  145.5890 O   0  0  0  0  0  1  0  0  0  0  0  0
  186.6120  176.9170  144.3830 C   0  0  0  0  0  2  0  0  0  0  0  0
  2  4  1  0  0  0  0
  3 26  1  0  0  0  0
  4  5  2  0  0  0  0
  5 25  1  0  0  0  0
  6 12  1  0  0  0  0
  6  3  2  0  0  0  0
  7 20  1  0  0  0  0
  9 29  1  6  0  0  0
  9 11  1  0  0  0  0
 11 10  1  6  0  0  0
 11 24  1  0  0  0  0
 12 30  2  0  0  0  0
 13  2  2  0  0  0  0
 13  3  1  0  0  0  0
 14 16  1  0  0  0  0
 15 29  1  0  0  0  0
 15 10  2  0  0  0  0
 16  8  2  6  0  0  0
 16 28  1  0  0  0  0
 16  7  1  0  0  0  0
 17 32  1  0  0  0  0
 17 12  1  0  0  0  0
 19 18  1  6  0  0  0
 19 22  1  0  0  0  0
 20 21  1  0  0  0  0
 21 17  2  0  0  0  0
 22  2  1  0  0  0  0
 23 27  1  0  0  0  0
 23  1  1  0  0  0  0
 24 18  1  6  0  0  0
 24 19  1  0  0  0  0
 26  5  1  0  0  0  0
 26 27  2  0  0  0  0
 28  9  1  0  0  0  0
 30 23  1  0  0  0  0
 31 32  2  0  0  0  0
 32 34  1  0  0  0  0
 34 33  1  0  0  0  0
M  END
>  <MODEL>
9

>  <REMARK>
 VINA RESULT:      -6.4      3.299      7.359
  Name = 
  2 active torsions:
  status: ('A' for Active; 'I' for Inactive)
    1  A    between atoms: C_19  and  C_33
    2  A    between atoms: C_20  and  C_33
                            x       y       z     vdW  Elec       q    Type
                         _______ _______ _______ _____ _____    ______ ____

>  <TORSDO>
F 2

$$$$
