=
 OpenBabel11062418483D

 37 40  0  0  1  0  0  0  0  0999 V2000
  190.6970  171.4580  142.1530 C   0  0  0  0  0  3  0  0  0  0  0  0
  189.9630  172.1240  141.1050 N   0  0  0  0  0  2  0  0  0  0  0  0
  190.0940  173.3730  141.3850 C   0  0  2  0  0  3  0  0  0  0  0  0
  190.7360  173.5310  142.6230 C   0  0  2  0  0  3  0  0  0  0  0  0
  191.1320  172.2550  143.0880 N   0  0  0  0  0  0  0  0  0  0  0  0
  189.0840  174.4070  141.2960 C   0  0  0  0  0  0  0  0  0  0  0  0
  188.1130  174.5180  140.2590 N   0  0  0  0  0  1  0  0  0  0  0  0
  189.1170  175.1180  142.4390 C   0  0  0  0  0  0  0  0  0  0  0  0
  190.1630  174.5110  143.3120 C   0  0  1  0  0  3  0  0  0  0  0  0
  187.3170  176.1140  143.7810 C   0  0  0  0  0  3  0  0  0  0  0  0
  185.5280  179.5140  143.7460 C   0  0  0  0  0  1  0  0  0  0  0  0
  189.4900  178.2490  142.6420 F   0  0  0  0  0  0  0  0  0  0  0  0
  188.2250  176.2550  142.8010 C   0  0  0  0  0  0  0  0  0  0  0  0
  186.7170  178.5750  143.6600 C   0  0  2  0  0  3  0  0  0  0  0  0
  188.3980  177.5860  142.1090 C   0  0  1  0  0  3  0  0  0  0  0  0
  187.1610  178.4730  142.2080 C   0  0  0  0  0  2  0  0  0  0  0  0
  186.3360  177.1850  144.1810 C   0  0  2  0  0  3  0  0  0  0  0  0
  186.1550  177.1820  145.6650 C   0  0  0  0  0  0  0  0  0  0  0  0
  185.0060  176.6340  146.2160 O   0  0  0  0  0  0  0  0  0  0  0  0
  187.0410  177.6650  146.4200 O   0  0  0  0  0  1  0  0  0  0  0  0
  190.2880  174.6740  144.7930 C   0  0  0  0  0  2  0  0  0  0  0  0
  191.6270  175.1660  147.5910 C   0  0  0  0  0  2  0  0  0  0  0  0
  190.3480  177.1410  147.1340 C   0  0  0  0  0  2  0  0  0  0  0  0
  191.2480  175.8130  145.1400 C   0  0  1  0  0  3  0  0  0  0  0  0
  190.3110  175.8050  147.7240 N   0  0  0  0  0  2  0  0  0  0  0  0
  190.4630  177.0490  145.6060 C   0  0  0  0  0  2  0  0  0  0  0  0
  192.2690  175.3890  146.2060 C   0  0  2  0  0  3  0  0  0  0  0  0
  193.0970  174.1860  145.7660 C   0  0  0  0  0  2  0  0  0  0  0  0
  193.8160  174.4660  144.4840 C   0  0  0  0  0  3  0  0  0  0  0  0
  195.0850  174.8880  144.4430 C   0  0  0  0  0  0  0  0  0  0  0  0
  195.7790  175.0950  145.6350 O   0  0  0  0  0  1  0  0  0  0  0  0
  195.7630  175.1520  143.1120 C   0  0  2  0  0  0  0  0  0  0  0  0
  195.8980  173.8380  142.3550 C   0  0  0  0  0  1  0  0  0  0  0  0
  197.1680  175.7260  143.3350 C   0  0  0  0  0  2  0  0  0  0  0  0
  197.1550  177.1250  143.3300 O   0  0  0  0  0  1  0  0  0  0  0  0
  194.9380  176.1010  142.2770 C   0  0  0  0  0  3  0  0  0  0  0  0
  194.8950  176.0310  140.9450 C   0  0  0  0  0  2  0  0  0  0  0  0
  1  5  2  0  0  0  0
  2  1  1  0  0  0  0
  3  2  1  1  0  0  0
  3  4  1  0  0  0  0
  4  5  1  1  0  0  0
  4  9  1  0  0  0  0
  6  3  1  0  0  0  0
  6  8  2  0  0  0  0
  7  6  1  0  0  0  0
  8 13  1  0  0  0  0
  8  9  1  0  0  0  0
  9 21  1  1  0  0  0
 10 17  1  0  0  0  0
 13 10  2  0  0  0  0
 14 11  1  6  0  0  0
 14 17  1  0  0  0  0
 15 16  1  0  0  0  0
 15 12  1  1  0  0  0
 15 13  1  0  0  0  0
 16 14  1  0  0  0  0
 17 18  1  1  0  0  0
 18 19  2  0  0  0  0
 18 20  1  0  0  0  0
 22 25  1  0  0  0  0
 23 25  1  0  0  0  0
 24 21  1  1  0  0  0
 24 26  1  0  0  0  0
 24 27  1  0  0  0  0
 26 23  1  0  0  0  0
 27 28  1  6  0  0  0
 27 22  1  0  0  0  0
 29 28  1  0  0  0  0
 30 29  2  0  0  0  0
 30 31  1  0  0  0  0
 32 33  1  6  0  0  0
 32 34  1  0  0  0  0
 32 30  1  0  0  0  0
 35 34  1  0  0  0  0
 36 32  1  0  0  0  0
 37 36  2  0  0  0  0
M  END
>  <MODEL>
1

>  <REMARK>
 VINA RESULT:      -7.3      0.000      0.000
  Name = 
  9 active torsions:
  status: ('A' for Active; 'I' for Inactive)
    1  A    between atoms: C_3  and  C_22
    2  A    between atoms: C_4  and  C_12
    3  A    between atoms: C_4  and  C_34
    4  A    between atoms: C_10  and  C_32
    5  A    between atoms: C_11  and  C_23
    6  A    between atoms: C_16  and  C_31
    7  A    between atoms: C_17  and  C_31
    8  A    between atoms: C_21  and  C_31
    9  A    between atoms: C_22  and  C_35
                            x       y       z     vdW  Elec       q    Type
                         _______ _______ _______ _____ _____    ______ ____

>  <TORSDO>
F 9

$$$$
=
 OpenBabel11062418483D

 37 40  0  0  1  0  0  0  0  0999 V2000
  191.0760  171.7440  141.9930 C   0  0  0  0  0  3  0  0  0  0  0  0
  190.2570  172.3620  140.9790 N   0  0  0  0  0  2  0  0  0  0  0  0
  190.3140  173.6160  141.2600 C   0  0  2  0  0  3  0  0  0  0  0  0
  190.9930  173.8140  142.4720 C   0  0  2  0  0  3  0  0  0  0  0  0
  191.4930  172.5670  142.9150 N   0  0  0  0  0  0  0  0  0  0  0  0
  189.2340  174.5790  141.2160 C   0  0  0  0  0  0  0  0  0  0  0  0
  188.2170  174.6260  140.2180 N   0  0  0  0  0  1  0  0  0  0  0  0
  189.2640  175.2880  142.3600 C   0  0  0  0  0  0  0  0  0  0  0  0
  190.3830  174.7510  143.1880 C   0  0  1  0  0  3  0  0  0  0  0  0
  187.4160  176.1360  143.7370 C   0  0  0  0  0  3  0  0  0  0  0  0
  185.4440  179.4320  143.8240 C   0  0  0  0  0  1  0  0  0  0  0  0
  189.4660  178.4260  142.6730 F   0  0  0  0  0  0  0  0  0  0  0  0
  188.3130  176.3610  142.7620 C   0  0  0  0  0  0  0  0  0  0  0  0
  186.6820  178.5630  143.7040 C   0  0  2  0  0  3  0  0  0  0  0  0
  188.4110  177.7240  142.1180 C   0  0  1  0  0  3  0  0  0  0  0  0
  187.1270  178.5370  142.2500 C   0  0  0  0  0  2  0  0  0  0  0  0
  186.3790  177.1370  144.1760 C   0  0  2  0  0  3  0  0  0  0  0  0
  186.2030  177.0710  145.6590 C   0  0  0  0  0  0  0  0  0  0  0  0
  185.0770  176.4580  146.1910 O   0  0  0  0  0  0  0  0  0  0  0  0
  187.0710  177.5610  146.4310 O   0  0  0  0  0  1  0  0  0  0  0  0
  190.5550  174.9190  144.6630 C   0  0  0  0  0  2  0  0  0  0  0  0
  192.7240  175.5390  146.8500 C   0  0  0  0  0  2  0  0  0  0  0  0
  190.7930  176.8100  147.4810 C   0  0  0  0  0  2  0  0  0  0  0  0
  191.1250  176.2990  144.9950 C   0  0  1  0  0  3  0  0  0  0  0  0
  191.4670  175.5200  147.6090 N   0  0  0  0  0  2  0  0  0  0  0  0
  190.2560  176.9940  146.0550 C   0  0  0  0  0  2  0  0  0  0  0  0
  192.5840  176.2120  145.4680 C   0  0  2  0  0  3  0  0  0  0  0  0
  193.4890  175.5600  144.4280 C   0  0  0  0  0  2  0  0  0  0  0  0
  194.4290  174.5850  145.0660 C   0  0  0  0  0  3  0  0  0  0  0  0
  195.1240  173.6830  144.3630 C   0  0  0  0  0  0  0  0  0  0  0  0
  194.9700  173.6250  142.9780 O   0  0  0  0  0  1  0  0  0  0  0  0
  196.0640  172.7230  145.0660 C   0  0  2  0  0  0  0  0  0  0  0  0
  196.9290  173.5030  146.0470 C   0  0  0  0  0  1  0  0  0  0  0  0
  196.9870  172.0400  144.0470 C   0  0  0  0  0  2  0  0  0  0  0  0
  197.8590  171.1420  144.6700 O   0  0  0  0  0  1  0  0  0  0  0  0
  195.2830  171.6860  145.8370 C   0  0  0  0  0  3  0  0  0  0  0  0
  194.3160  170.9560  145.2790 C   0  0  0  0  0  2  0  0  0  0  0  0
  1  5  2  0  0  0  0
  2  1  1  0  0  0  0
  3  2  1  1  0  0  0
  3  4  1  0  0  0  0
  4  5  1  1  0  0  0
  4  9  1  0  0  0  0
  6  3  1  0  0  0  0
  6  8  2  0  0  0  0
  7  6  1  0  0  0  0
  8 13  1  0  0  0  0
  8  9  1  0  0  0  0
  9 21  1  1  0  0  0
 10 17  1  0  0  0  0
 13 10  2  0  0  0  0
 14 11  1  6  0  0  0
 14 17  1  0  0  0  0
 15 16  1  0  0  0  0
 15 12  1  1  0  0  0
 15 13  1  0  0  0  0
 16 14  1  0  0  0  0
 17 18  1  1  0  0  0
 18 19  2  0  0  0  0
 18 20  1  0  0  0  0
 22 25  1  0  0  0  0
 23 25  1  0  0  0  0
 24 21  1  1  0  0  0
 24 27  1  0  0  0  0
 24 26  1  0  0  0  0
 26 23  1  0  0  0  0
 27 28  1  6  0  0  0
 27 22  1  0  0  0  0
 28 29  1  0  0  0  0
 30 32  1  0  0  0  0
 30 29  2  0  0  0  0
 31 30  1  0  0  0  0
 32 36  1  0  0  0  0
 32 33  1  1  0  0  0
 34 35  1  0  0  0  0
 34 32  1  0  0  0  0
 37 36  2  0  0  0  0
M  END
>  <MODEL>
2

>  <REMARK>
 VINA RESULT:      -7.0      1.512      2.187
  Name = 
  9 active torsions:
  status: ('A' for Active; 'I' for Inactive)
    1  A    between atoms: C_3  and  C_22
    2  A    between atoms: C_4  and  C_12
    3  A    between atoms: C_4  and  C_34
    4  A    between atoms: C_10  and  C_32
    5  A    between atoms: C_11  and  C_23
    6  A    between atoms: C_16  and  C_31
    7  A    between atoms: C_17  and  C_31
    8  A    between atoms: C_21  and  C_31
    9  A    between atoms: C_22  and  C_35
                            x       y       z     vdW  Elec       q    Type
                         _______ _______ _______ _____ _____    ______ ____

>  <TORSDO>
F 9

$$$$
=
 OpenBabel11062418483D

 37 40  0  0  1  0  0  0  0  0999 V2000
  188.8490  175.6680  147.1260 C   0  0  0  0  0  3  0  0  0  0  0  0
  190.1180  176.2570  147.4780 N   0  0  0  0  0  2  0  0  0  0  0  0
  190.7070  176.4190  146.3460 C   0  0  2  0  0  3  0  0  0  0  0  0
  189.9540  175.8330  145.3160 C   0  0  2  0  0  3  0  0  0  0  0  0
  188.7350  175.3660  145.8620 N   0  0  0  0  0  0  0  0  0  0  0  0
  192.1020  176.1850  146.0360 C   0  0  0  0  0  0  0  0  0  0  0  0
  193.1950  176.4970  146.8960 N   0  0  0  0  0  1  0  0  0  0  0  0
  192.1600  175.4750  144.8940 C   0  0  0  0  0  0  0  0  0  0  0  0
  190.7570  175.2120  144.4600 C   0  0  1  0  0  3  0  0  0  0  0  0
  194.0270  175.7430  143.3220 C   0  0  0  0  0  3  0  0  0  0  0  0
  196.8930  173.4610  142.1640 C   0  0  0  0  0  1  0  0  0  0  0  0
  194.6420  173.7520  145.8200 F   0  0  0  0  0  0  0  0  0  0  0  0
  193.3930  174.9760  144.2240 C   0  0  0  0  0  0  0  0  0  0  0  0
  195.9380  174.0830  143.1660 C   0  0  2  0  0  3  0  0  0  0  0  0
  193.9640  173.6340  144.6190 C   0  0  1  0  0  3  0  0  0  0  0  0
  194.8940  173.0500  143.5600 C   0  0  0  0  0  2  0  0  0  0  0  0
  195.2470  175.3070  142.5530 C   0  0  2  0  0  3  0  0  0  0  0  0
  196.1920  176.4550  142.4000 C   0  0  0  0  0  0  0  0  0  0  0  0
  196.3780  177.0300  141.1510 O   0  0  0  0  0  0  0  0  0  0  0  0
  196.8140  176.9120  143.3970 O   0  0  0  0  0  1  0  0  0  0  0  0
  190.3050  174.1480  143.5130 C   0  0  0  0  0  2  0  0  0  0  0  0
  188.4870  172.8390  141.3120 C   0  0  0  0  0  2  0  0  0  0  0  0
  190.6520  173.0610  140.3090 C   0  0  0  0  0  2  0  0  0  0  0  0
  190.0040  174.7340  142.1330 C   0  0  1  0  0  3  0  0  0  0  0  0
  189.7900  172.1930  141.1080 N   0  0  0  0  0  2  0  0  0  0  0  0
  191.0730  174.2930  141.1200 C   0  0  0  0  0  2  0  0  0  0  0  0
  188.6020  174.3410  141.6430 C   0  0  2  0  0  3  0  0  0  0  0  0
  187.5080  174.7950  142.6030 C   0  0  0  0  0  2  0  0  0  0  0  0
  186.8720  176.0660  142.1340 C   0  0  0  0  0  3  0  0  0  0  0  0
  186.1260  176.8400  142.9310 C   0  0  0  0  0  0  0  0  0  0  0  0
  185.9100  176.4560  144.2540 O   0  0  0  0  0  1  0  0  0  0  0  0
  185.5100  178.1190  142.4000 C   0  0  2  0  0  0  0  0  0  0  0  0
  184.0060  178.0830  142.6340 C   0  0  0  0  0  1  0  0  0  0  0  0
  185.7600  178.2430  140.8900 C   0  0  0  0  0  2  0  0  0  0  0  0
  184.5850  178.0370  140.1600 O   0  0  0  0  0  1  0  0  0  0  0  0
  186.0760  179.3190  143.1210 C   0  0  0  0  0  3  0  0  0  0  0  0
  185.4460  179.9050  144.1410 C   0  0  0  0  0  2  0  0  0  0  0  0
  1  2  1  0  0  0  0
  3  6  1  1  0  0  0
  3  2  1  0  0  0  0
  4  5  1  1  0  0  0
  4  3  1  0  0  0  0
  5  1  2  0  0  0  0
  6  7  1  0  0  0  0
  8  6  2  0  0  0  0
  9 21  1  1  0  0  0
  9  8  1  0  0  0  0
  9  4  1  0  0  0  0
 10 13  2  0  0  0  0
 13 15  1  0  0  0  0
 13  8  1  0  0  0  0
 14 11  1  6  0  0  0
 14 16  1  0  0  0  0
 15 12  1  1  0  0  0
 16 15  1  0  0  0  0
 17 18  1  1  0  0  0
 17 14  1  0  0  0  0
 17 10  1  0  0  0  0
 18 20  1  0  0  0  0
 19 18  2  0  0  0  0
 22 27  1  0  0  0  0
 23 25  1  0  0  0  0
 23 26  1  0  0  0  0
 24 21  1  1  0  0  0
 25 22  1  0  0  0  0
 26 24  1  0  0  0  0
 27 24  1  0  0  0  0
 27 28  1  1  0  0  0
 29 28  1  0  0  0  0
 29 30  2  0  0  0  0
 30 31  1  0  0  0  0
 32 33  1  1  0  0  0
 32 30  1  0  0  0  0
 32 36  1  0  0  0  0
 34 32  1  0  0  0  0
 35 34  1  0  0  0  0
 36 37  2  0  0  0  0
M  END
>  <MODEL>
3

>  <REMARK>
 VINA RESULT:      -6.9      2.142      8.440
  Name = 
  9 active torsions:
  status: ('A' for Active; 'I' for Inactive)
    1  A    between atoms: C_3  and  C_22
    2  A    between atoms: C_4  and  C_12
    3  A    between atoms: C_4  and  C_34
    4  A    between atoms: C_10  and  C_32
    5  A    between atoms: C_11  and  C_23
    6  A    between atoms: C_16  and  C_31
    7  A    between atoms: C_17  and  C_31
    8  A    between atoms: C_21  and  C_31
    9  A    between atoms: C_22  and  C_35
                            x       y       z     vdW  Elec       q    Type
                         _______ _______ _______ _____ _____    ______ ____

>  <TORSDO>
F 9

$$$$
=
 OpenBabel11062418483D

 37 40  0  0  1  0  0  0  0  0999 V2000
  184.6940  177.8700  141.0790 C   0  0  0  0  0  3  0  0  0  0  0  0
  184.6470  178.5180  142.3670 N   0  0  0  0  0  2  0  0  0  0  0  0
  185.8830  178.7400  142.6440 C   0  0  2  0  0  3  0  0  0  0  0  0
  186.7140  178.1410  141.6850 C   0  0  2  0  0  3  0  0  0  0  0  0
  185.8990  177.5950  140.6650 N   0  0  0  0  0  0  0  0  0  0  0  0
  186.5390  178.5900  143.9260 C   0  0  0  0  0  0  0  0  0  0  0  0
  185.9680  178.9380  145.1850 N   0  0  0  0  0  1  0  0  0  0  0  0
  187.6860  177.9130  143.7280 C   0  0  0  0  0  0  0  0  0  0  0  0
  187.7660  177.5870  142.2750 C   0  0  1  0  0  3  0  0  0  0  0  0
  188.3570  176.5020  145.6220 C   0  0  0  0  0  3  0  0  0  0  0  0
  191.4370  176.3990  147.9170 C   0  0  0  0  0  1  0  0  0  0  0  0
  190.8310  177.6320  143.8390 F   0  0  0  0  0  0  0  0  0  0  0  0
  188.6610  177.4990  144.7750 C   0  0  0  0  0  0  0  0  0  0  0  0
  190.6970  176.5400  146.6000 C   0  0  2  0  0  3  0  0  0  0  0  0
  190.0200  178.1570  144.8300 C   0  0  1  0  0  3  0  0  0  0  0  0
  190.7000  178.0030  146.1860 C   0  0  0  0  0  2  0  0  0  0  0  0
  189.2520  176.0490  146.7470 C   0  0  2  0  0  3  0  0  0  0  0  0
  189.1860  174.5610  146.8830 C   0  0  0  0  0  0  0  0  0  0  0  0
  189.6330  173.7560  145.8450 O   0  0  0  0  0  0  0  0  0  0  0  0
  188.7340  174.0330  147.9340 O   0  0  0  0  0  1  0  0  0  0  0  0
  188.6110  176.5240  141.6490 C   0  0  0  0  0  2  0  0  0  0  0  0
  190.0450  173.8210  140.9420 C   0  0  0  0  0  2  0  0  0  0  0  0
  187.7570  173.2450  141.3590 C   0  0  0  0  0  2  0  0  0  0  0  0
  188.7090  175.2970  142.5560 C   0  0  1  0  0  3  0  0  0  0  0  0
  188.7130  173.6700  140.3400 N   0  0  0  0  0  2  0  0  0  0  0  0
  187.4890  174.3840  142.3520 C   0  0  0  0  0  2  0  0  0  0  0  0
  190.0110  174.5170  142.3180 C   0  0  2  0  0  3  0  0  0  0  0  0
  191.2480  175.3790  142.5470 C   0  0  0  0  0  2  0  0  0  0  0  0
  192.1080  174.8100  143.6320 C   0  0  0  0  0  3  0  0  0  0  0  0
  193.4020  175.1200  143.7680 C   0  0  0  0  0  0  0  0  0  0  0  0
  193.9970  175.9990  142.8630 O   0  0  0  0  0  1  0  0  0  0  0  0
  194.2220  174.5140  144.8910 C   0  0  2  0  0  0  0  0  0  0  0  0
  194.4360  175.5650  145.9720 C   0  0  0  0  0  1  0  0  0  0  0  0
  195.5960  174.0730  144.3690 C   0  0  0  0  0  2  0  0  0  0  0  0
  196.6160  174.8960  144.8580 O   0  0  0  0  0  1  0  0  0  0  0  0
  193.4960  173.3410  145.5030 C   0  0  0  0  0  3  0  0  0  0  0  0
  193.9520  172.0900  145.4100 C   0  0  0  0  0  2  0  0  0  0  0  0
  1  2  1  0  0  0  0
  3  2  1  1  0  0  0
  3  6  1  0  0  0  0
  4  5  1  1  0  0  0
  4  9  1  0  0  0  0
  4  3  1  0  0  0  0
  5  1  2  0  0  0  0
  6  7  1  0  0  0  0
  8  6  2  0  0  0  0
  8 13  1  0  0  0  0
  9 21  1  1  0  0  0
  9  8  1  0  0  0  0
 10 17  1  0  0  0  0
 13 15  1  0  0  0  0
 13 10  2  0  0  0  0
 14 17  1  0  0  0  0
 14 11  1  1  0  0  0
 15 12  1  6  0  0  0
 15 16  1  0  0  0  0
 16 14  1  0  0  0  0
 17 18  1  6  0  0  0
 18 20  1  0  0  0  0
 19 18  2  0  0  0  0
 22 27  1  0  0  0  0
 23 26  1  0  0  0  0
 24 21  1  6  0  0  0
 25 22  1  0  0  0  0
 25 23  1  0  0  0  0
 26 24  1  0  0  0  0
 27 28  1  6  0  0  0
 27 24  1  0  0  0  0
 28 29  1  0  0  0  0
 29 30  2  0  0  0  0
 30 32  1  0  0  0  0
 31 30  1  0  0  0  0
 32 36  1  0  0  0  0
 32 33  1  1  0  0  0
 34 35  1  0  0  0  0
 34 32  1  0  0  0  0
 37 36  2  0  0  0  0
M  END
>  <MODEL>
4

>  <REMARK>
 VINA RESULT:      -6.9      2.339      5.201
  Name = 
  9 active torsions:
  status: ('A' for Active; 'I' for Inactive)
    1  A    between atoms: C_3  and  C_22
    2  A    between atoms: C_4  and  C_12
    3  A    between atoms: C_4  and  C_34
    4  A    between atoms: C_10  and  C_32
    5  A    between atoms: C_11  and  C_23
    6  A    between atoms: C_16  and  C_31
    7  A    between atoms: C_17  and  C_31
    8  A    between atoms: C_21  and  C_31
    9  A    between atoms: C_22  and  C_35
                            x       y       z     vdW  Elec       q    Type
                         _______ _______ _______ _____ _____    ______ ____

>  <TORSDO>
F 9

$$$$
=
 OpenBabel11062418483D

 37 40  0  0  1  0  0  0  0  0999 V2000
  188.8780  172.9790  140.7920 C   0  0  0  0  0  3  0  0  0  0  0  0
  189.9220  171.9840  140.7470 N   0  0  0  0  0  2  0  0  0  0  0  0
  190.4040  171.9900  141.9400 C   0  0  2  0  0  3  0  0  0  0  0  0
  189.8330  173.0290  142.6920 C   0  0  2  0  0  3  0  0  0  0  0  0
  188.8250  173.6440  141.9130 N   0  0  0  0  0  0  0  0  0  0  0  0
  191.7960  171.9020  142.3280 C   0  0  0  0  0  0  0  0  0  0  0  0
  192.7700  171.0680  141.7050 N   0  0  0  0  0  1  0  0  0  0  0  0
  192.0330  172.8600  143.2440 C   0  0  0  0  0  0  0  0  0  0  0  0
  190.7610  173.6150  143.4380 C   0  0  1  0  0  3  0  0  0  0  0  0
  194.1970  174.0180  143.3110 C   0  0  0  0  0  3  0  0  0  0  0  0
  197.2050  173.9210  145.6990 C   0  0  0  0  0  1  0  0  0  0  0  0
  192.9890  173.2460  146.2310 F   0  0  0  0  0  0  0  0  0  0  0  0
  193.3400  173.1620  143.8910 C   0  0  0  0  0  0  0  0  0  0  0  0
  195.7350  173.9360  145.3260 C   0  0  2  0  0  3  0  0  0  0  0  0
  193.6620  172.5560  145.2370 C   0  0  1  0  0  3  0  0  0  0  0  0
  195.1570  172.5460  145.5410 C   0  0  0  0  0  2  0  0  0  0  0  0
  195.5620  174.3450  143.8590 C   0  0  2  0  0  3  0  0  0  0  0  0
  195.8600  175.7960  143.6510 C   0  0  0  0  0  0  0  0  0  0  0  0
  195.3670  176.7330  144.5470 O   0  0  0  0  0  1  0  0  0  0  0  0
  196.5630  176.1730  142.6750 O   0  0  0  0  0  0  0  0  0  0  0  0
  190.6230  174.9850  144.0190 C   0  0  0  0  0  2  0  0  0  0  0  0
  189.9740  177.3410  145.9930 C   0  0  0  0  0  2  0  0  0  0  0  0
  190.2020  175.3940  147.3700 C   0  0  0  0  0  2  0  0  0  0  0  0
  189.4170  175.0640  144.9570 C   0  0  1  0  0  3  0  0  0  0  0  0
  190.9160  176.5090  146.7520 N   0  0  0  0  0  2  0  0  0  0  0  0
  189.7410  174.3930  146.3010 C   0  0  0  0  0  2  0  0  0  0  0  0
  188.9600  176.5140  145.1740 C   0  0  2  0  0  3  0  0  0  0  0  0
  188.5930  177.2050  143.8650 C   0  0  0  0  0  2  0  0  0  0  0  0
  187.3980  178.0890  144.0400 C   0  0  0  0  0  3  0  0  0  0  0  0
  186.1440  177.6210  144.0380 C   0  0  0  0  0  0  0  0  0  0  0  0
  185.9210  176.2560  143.8550 O   0  0  0  0  0  1  0  0  0  0  0  0
  184.9730  178.5650  144.2230 C   0  0  2  0  0  0  0  0  0  0  0  0
  185.4780  180.0010  144.1660 C   0  0  0  0  0  1  0  0  0  0  0  0
  184.3180  178.3400  145.5930 C   0  0  0  0  0  2  0  0  0  0  0  0
  185.2780  178.1950  146.6000 O   0  0  0  0  0  1  0  0  0  0  0  0
  183.9570  178.3730  143.1230 C   0  0  0  0  0  3  0  0  0  0  0  0
  184.3040  178.2700  141.8380 C   0  0  0  0  0  2  0  0  0  0  0  0
  1  5  2  0  0  0  0
  2  1  1  0  0  0  0
  3  2  1  6  0  0  0
  3  6  1  0  0  0  0
  3  4  1  0  0  0  0
  4  5  1  6  0  0  0
  4  9  1  0  0  0  0
  6  8  2  0  0  0  0
  7  6  1  0  0  0  0
  8  9  1  0  0  0  0
  8 13  1  0  0  0  0
  9 21  1  6  0  0  0
 10 17  1  0  0  0  0
 10 13  2  0  0  0  0
 13 15  1  0  0  0  0
 14 16  1  0  0  0  0
 14 11  1  6  0  0  0
 15 16  1  0  0  0  0
 15 12  1  1  0  0  0
 17 18  1  1  0  0  0
 17 14  1  0  0  0  0
 18 19  1  0  0  0  0
 20 18  2  0  0  0  0
 22 25  1  0  0  0  0
 24 21  1  6  0  0  0
 24 27  1  0  0  0  0
 24 26  1  0  0  0  0
 25 23  1  0  0  0  0
 26 23  1  0  0  0  0
 27 28  1  6  0  0  0
 27 22  1  0  0  0  0
 28 29  1  0  0  0  0
 30 29  2  0  0  0  0
 30 32  1  0  0  0  0
 31 30  1  0  0  0  0
 32 33  1  6  0  0  0
 32 34  1  0  0  0  0
 34 35  1  0  0  0  0
 36 32  1  0  0  0  0
 37 36  2  0  0  0  0
M  END
>  <MODEL>
5

>  <REMARK>
 VINA RESULT:      -6.9      1.946      7.809
  Name = 
  9 active torsions:
  status: ('A' for Active; 'I' for Inactive)
    1  A    between atoms: C_3  and  C_22
    2  A    between atoms: C_4  and  C_12
    3  A    between atoms: C_4  and  C_34
    4  A    between atoms: C_10  and  C_32
    5  A    between atoms: C_11  and  C_23
    6  A    between atoms: C_16  and  C_31
    7  A    between atoms: C_17  and  C_31
    8  A    between atoms: C_21  and  C_31
    9  A    between atoms: C_22  and  C_35
                            x       y       z     vdW  Elec       q    Type
                         _______ _______ _______ _____ _____    ______ ____

>  <TORSDO>
F 9

$$$$
=
 OpenBabel11062418483D

 37 40  0  0  1  0  0  0  0  0999 V2000
  195.1450  176.3540  145.1100 C   0  0  0  0  0  3  0  0  0  0  0  0
  194.5430  176.7430  146.3620 N   0  0  0  0  0  2  0  0  0  0  0  0
  193.4740  176.0310  146.4240 C   0  0  2  0  0  3  0  0  0  0  0  0
  193.2860  175.3270  145.2240 C   0  0  2  0  0  3  0  0  0  0  0  0
  194.4090  175.5500  144.3940 N   0  0  0  0  0  0  0  0  0  0  0  0
  192.1640  176.4440  146.8830 C   0  0  0  0  0  0  0  0  0  0  0  0
  191.9180  177.3020  147.9940 N   0  0  0  0  0  1  0  0  0  0  0  0
  191.2570  176.0250  145.9800 C   0  0  0  0  0  0  0  0  0  0  0  0
  192.0030  175.3410  144.8840 C   0  0  1  0  0  3  0  0  0  0  0  0
  189.2140  177.1020  145.1480 C   0  0  0  0  0  3  0  0  0  0  0  0
  185.5360  177.0720  146.2590 C   0  0  0  0  0  1  0  0  0  0  0  0
  188.7360  174.2110  146.5590 F   0  0  0  0  0  0  0  0  0  0  0  0
  189.7880  176.2630  146.0260 C   0  0  0  0  0  0  0  0  0  0  0  0
  186.8990  176.4710  145.9680 C   0  0  2  0  0  3  0  0  0  0  0  0
  188.9400  175.5010  147.0170 C   0  0  1  0  0  3  0  0  0  0  0  0
  187.5960  176.1690  147.2860 C   0  0  0  0  0  2  0  0  0  0  0  0
  187.7480  177.4490  145.1490 C   0  0  2  0  0  3  0  0  0  0  0  0
  187.2510  177.5680  143.7430 C   0  0  0  0  0  0  0  0  0  0  0  0
  186.5870  178.7200  143.3450 O   0  0  0  0  0  1  0  0  0  0  0  0
  187.4370  176.6350  142.9160 O   0  0  0  0  0  0  0  0  0  0  0  0
  191.5030  175.0790  143.5000 C   0  0  0  0  0  2  0  0  0  0  0  0
  190.8900  173.5820  140.8070 C   0  0  0  0  0  2  0  0  0  0  0  0
  188.8120  173.6360  142.0010 C   0  0  0  0  0  2  0  0  0  0  0  0
  190.9750  173.6500  143.3680 C   0  0  1  0  0  3  0  0  0  0  0  0
  189.6650  174.3540  141.0570 N   0  0  0  0  0  2  0  0  0  0  0  0
  189.4390  173.6430  143.4020 C   0  0  0  0  0  2  0  0  0  0  0  0
  191.4900  172.9700  142.0910 C   0  0  2  0  0  3  0  0  0  0  0  0
  193.0130  172.9230  142.0360 C   0  0  0  0  0  2  0  0  0  0  0  0
  193.5760  172.2670  143.2570 C   0  0  0  0  0  3  0  0  0  0  0  0
  194.8910  172.1160  143.4560 C   0  0  0  0  0  0  0  0  0  0  0  0
  195.7890  172.5720  142.4920 O   0  0  0  0  0  1  0  0  0  0  0  0
  195.4030  171.4460  144.7170 C   0  0  2  0  0  0  0  0  0  0  0  0
  196.6440  170.6310  144.3780 C   0  0  0  0  0  1  0  0  0  0  0  0
  194.3410  170.4920  145.2810 C   0  0  0  0  0  2  0  0  0  0  0  0
  194.8660  169.6850  146.2950 O   0  0  0  0  0  1  0  0  0  0  0  0
  195.7780  172.4790  145.7520 C   0  0  0  0  0  3  0  0  0  0  0  0
  196.9860  173.0440  145.7950 C   0  0  0  0  0  2  0  0  0  0  0  0
  1  2  1  0  0  0  0
  3  2  1  6  0  0  0
  3  6  1  0  0  0  0
  4  5  1  6  0  0  0
  4  3  1  0  0  0  0
  5  1  2  0  0  0  0
  6  7  1  0  0  0  0
  8 13  1  0  0  0  0
  8  6  2  0  0  0  0
  9 21  1  6  0  0  0
  9  4  1  0  0  0  0
  9  8  1  0  0  0  0
 10 17  1  0  0  0  0
 10 13  2  0  0  0  0
 13 15  1  0  0  0  0
 14 11  1  1  0  0  0
 14 16  1  0  0  0  0
 15 12  1  6  0  0  0
 15 16  1  0  0  0  0
 17 18  1  6  0  0  0
 17 14  1  0  0  0  0
 19 18  1  0  0  0  0
 20 18  2  0  0  0  0
 22 25  1  0  0  0  0
 22 27  1  0  0  0  0
 23 26  1  0  0  0  0
 24 26  1  0  0  0  0
 24 21  1  6  0  0  0
 25 23  1  0  0  0  0
 27 28  1  6  0  0  0
 27 24  1  0  0  0  0
 28 29  1  0  0  0  0
 29 30  2  0  0  0  0
 30 32  1  0  0  0  0
 31 30  1  0  0  0  0
 32 33  1  6  0  0  0
 32 34  1  0  0  0  0
 32 36  1  0  0  0  0
 34 35  1  0  0  0  0
 36 37  2  0  0  0  0
M  END
>  <MODEL>
6

>  <REMARK>
 VINA RESULT:      -6.7      2.689      5.111
  Name = 
  9 active torsions:
  status: ('A' for Active; 'I' for Inactive)
    1  A    between atoms: C_3  and  C_22
    2  A    between atoms: C_4  and  C_12
    3  A    between atoms: C_4  and  C_34
    4  A    between atoms: C_10  and  C_32
    5  A    between atoms: C_11  and  C_23
    6  A    between atoms: C_16  and  C_31
    7  A    between atoms: C_17  and  C_31
    8  A    between atoms: C_21  and  C_31
    9  A    between atoms: C_22  and  C_35
                            x       y       z     vdW  Elec       q    Type
                         _______ _______ _______ _____ _____    ______ ____

>  <TORSDO>
F 9

$$$$
=
 OpenBabel11062418483D

 37 40  0  0  1  0  0  0  0  0999 V2000
  192.0370  169.2080  141.2190 C   0  0  0  0  0  3  0  0  0  0  0  0
  192.6310  169.6510  142.4570 N   0  0  0  0  0  2  0  0  0  0  0  0
  191.6920  170.3230  143.0250 C   0  0  2  0  0  3  0  0  0  0  0  0
  190.5960  170.4570  142.1590 C   0  0  2  0  0  3  0  0  0  0  0  0
  190.8510  169.7000  140.9920 N   0  0  0  0  0  0  0  0  0  0  0  0
  191.8160  171.5690  143.7510 C   0  0  0  0  0  0  0  0  0  0  0  0
  192.8850  171.9020  144.6320 N   0  0  0  0  0  1  0  0  0  0  0  0
  190.8530  172.4020  143.3100 C   0  0  0  0  0  0  0  0  0  0  0  0
  190.0960  171.6840  142.2440 C   0  0  1  0  0  3  0  0  0  0  0  0
  189.6480  174.0910  144.6230 C   0  0  0  0  0  3  0  0  0  0  0  0
  189.8830  177.9150  144.9130 C   0  0  0  0  0  1  0  0  0  0  0  0
  192.7460  174.8430  143.9760 F   0  0  0  0  0  0  0  0  0  0  0  0
  190.6290  173.8070  143.7510 C   0  0  0  0  0  0  0  0  0  0  0  0
  190.4200  176.5010  144.7960 C   0  0  2  0  0  3  0  0  0  0  0  0
  191.5580  174.8960  143.2680 C   0  0  1  0  0  3  0  0  0  0  0  0
  190.9510  176.2900  143.3860 C   0  0  0  0  0  2  0  0  0  0  0  0
  189.3090  175.4850  145.0850 C   0  0  2  0  0  3  0  0  0  0  0  0
  188.9420  175.4660  146.5350 C   0  0  0  0  0  0  0  0  0  0  0  0
  187.7630  176.0670  146.9520 O   0  0  0  0  0  0  0  0  0  0  0  0
  189.6900  174.9030  147.3790 O   0  0  0  0  0  1  0  0  0  0  0  0
  189.2320  172.3090  141.1960 C   0  0  0  0  0  2  0  0  0  0  0  0
  187.8680  174.3290  139.2150 C   0  0  0  0  0  2  0  0  0  0  0  0
  189.9020  173.6520  138.1440 C   0  0  0  0  0  2  0  0  0  0  0  0
  189.8340  173.6250  140.7020 C   0  0  1  0  0  3  0  0  0  0  0  0
  188.4860  173.3390  138.3230 N   0  0  0  0  0  2  0  0  0  0  0  0
  190.6790  173.3850  139.4400 C   0  0  0  0  0  2  0  0  0  0  0  0
  188.7500  174.6790  140.4320 C   0  0  2  0  0  3  0  0  0  0  0  0
  187.9120  174.9740  141.6720 C   0  0  0  0  0  2  0  0  0  0  0  0
  187.1850  176.2750  141.5340 C   0  0  0  0  0  3  0  0  0  0  0  0
  186.3050  176.7120  142.4420 C   0  0  0  0  0  0  0  0  0  0  0  0
  186.0310  175.9320  143.5640 O   0  0  0  0  0  1  0  0  0  0  0  0
  185.6020  178.0420  142.2490 C   0  0  2  0  0  0  0  0  0  0  0  0
  184.1520  177.9080  142.6950 C   0  0  0  0  0  1  0  0  0  0  0  0
  185.6140  178.4400  140.7670 C   0  0  0  0  0  2  0  0  0  0  0  0
  184.4020  178.1270  140.1440 O   0  0  0  0  0  1  0  0  0  0  0  0
  186.2600  179.1150  143.0820 C   0  0  0  0  0  3  0  0  0  0  0  0
  185.5840  179.8500  143.9680 C   0  0  0  0  0  2  0  0  0  0  0  0
  1  2  1  0  0  0  0
  3  2  1  6  0  0  0
  3  6  1  0  0  0  0
  4  5  1  6  0  0  0
  4  9  1  0  0  0  0
  4  3  1  0  0  0  0
  5  1  2  0  0  0  0
  6  7  1  0  0  0  0
  8 13  1  0  0  0  0
  8  6  2  0  0  0  0
  9 21  1  6  0  0  0
  9  8  1  0  0  0  0
 10 17  1  0  0  0  0
 13 10  2  0  0  0  0
 14 11  1  6  0  0  0
 14 17  1  0  0  0  0
 15 16  1  0  0  0  0
 15 13  1  0  0  0  0
 15 12  1  1  0  0  0
 16 14  1  0  0  0  0
 17 18  1  1  0  0  0
 18 19  2  0  0  0  0
 18 20  1  0  0  0  0
 22 27  1  0  0  0  0
 23 25  1  0  0  0  0
 23 26  1  0  0  0  0
 24 21  1  6  0  0  0
 25 22  1  0  0  0  0
 26 24  1  0  0  0  0
 27 24  1  0  0  0  0
 27 28  1  1  0  0  0
 29 28  1  0  0  0  0
 29 30  2  0  0  0  0
 30 31  1  0  0  0  0
 32 30  1  0  0  0  0
 32 33  1  1  0  0  0
 32 36  1  0  0  0  0
 34 32  1  0  0  0  0
 35 34  1  0  0  0  0
 36 37  2  0  0  0  0
M  END
>  <MODEL>
7

>  <REMARK>
 VINA RESULT:      -6.6      3.245      7.000
  Name = 
  9 active torsions:
  status: ('A' for Active; 'I' for Inactive)
    1  A    between atoms: C_3  and  C_22
    2  A    between atoms: C_4  and  C_12
    3  A    between atoms: C_4  and  C_34
    4  A    between atoms: C_10  and  C_32
    5  A    between atoms: C_11  and  C_23
    6  A    between atoms: C_16  and  C_31
    7  A    between atoms: C_17  and  C_31
    8  A    between atoms: C_21  and  C_31
    9  A    between atoms: C_22  and  C_35
                            x       y       z     vdW  Elec       q    Type
                         _______ _______ _______ _____ _____    ______ ____

>  <TORSDO>
F 9

$$$$
=
 OpenBabel11062418483D

 37 40  0  0  1  0  0  0  0  0999 V2000
  183.8770  178.7790  145.7270 C   0  0  0  0  0  3  0  0  0  0  0  0
  184.5120  178.2980  146.9310 N   0  0  0  0  0  2  0  0  0  0  0  0
  185.7690  178.4130  146.6820 C   0  0  2  0  0  3  0  0  0  0  0  0
  185.9690  178.7940  145.3460 C   0  0  2  0  0  3  0  0  0  0  0  0
  184.7070  179.0420  144.7560 N   0  0  0  0  0  0  0  0  0  0  0  0
  186.8230  177.4800  147.0200 C   0  0  0  0  0  0  0  0  0  0  0  0
  186.9090  176.7460  148.2390 N   0  0  0  0  0  1  0  0  0  0  0  0
  187.5870  177.3040  145.9260 C   0  0  0  0  0  0  0  0  0  0  0  0
  186.9960  178.1280  144.8310 C   0  0  1  0  0  3  0  0  0  0  0  0
  189.9420  176.8780  145.3740 C   0  0  0  0  0  3  0  0  0  0  0  0
  192.1400  173.7280  145.3040 C   0  0  0  0  0  1  0  0  0  0  0  0
  188.6970  174.8760  147.6160 F   0  0  0  0  0  0  0  0  0  0  0  0
  188.7630  176.3980  145.8040 C   0  0  0  0  0  0  0  0  0  0  0  0
  191.0860  174.6670  145.8590 C   0  0  2  0  0  3  0  0  0  0  0  0
  188.6390  174.9560  146.2350 C   0  0  1  0  0  3  0  0  0  0  0  0
  189.7110  174.0590  145.6240 C   0  0  0  0  0  2  0  0  0  0  0  0
  191.1710  176.0310  145.1660 C   0  0  2  0  0  3  0  0  0  0  0  0
  192.3890  176.7890  145.5870 C   0  0  0  0  0  0  0  0  0  0  0  0
  193.1120  177.5060  144.6440 O   0  0  0  0  0  0  0  0  0  0  0  0
  192.7600  176.7900  146.7920 O   0  0  0  0  0  1  0  0  0  0  0  0
  187.2270  177.9530  143.3650 C   0  0  0  0  0  2  0  0  0  0  0  0
  187.4430  176.4180  140.6330 C   0  0  0  0  0  2  0  0  0  0  0  0
  185.5900  177.9180  140.3840 C   0  0  0  0  0  2  0  0  0  0  0  0
  186.1390  177.0800  142.7390 C   0  0  1  0  0  3  0  0  0  0  0  0
  187.0370  177.7720  140.2340 N   0  0  0  0  0  2  0  0  0  0  0  0
  185.2040  177.9350  141.8680 C   0  0  0  0  0  2  0  0  0  0  0  0
  186.7390  175.9300  141.9160 C   0  0  2  0  0  3  0  0  0  0  0  0
  187.6460  175.0340  142.7530 C   0  0  0  0  0  2  0  0  0  0  0  0
  188.9160  174.7230  142.0250 C   0  0  0  0  0  3  0  0  0  0  0  0
  189.4260  173.4870  141.9550 C   0  0  0  0  0  0  0  0  0  0  0  0
  188.7680  172.4350  142.5900 O   0  0  0  0  0  1  0  0  0  0  0  0
  190.7150  173.2330  141.1980 C   0  0  2  0  0  0  0  0  0  0  0  0
  191.7650  174.2380  141.6520 C   0  0  0  0  0  1  0  0  0  0  0  0
  190.4930  173.4160  139.6910 C   0  0  0  0  0  2  0  0  0  0  0  0
  190.2310  172.1960  139.0610 O   0  0  0  0  0  1  0  0  0  0  0  0
  191.2310  171.8430  141.4830 C   0  0  0  0  0  3  0  0  0  0  0  0
  192.3350  171.6220  142.2010 C   0  0  0  0  0  2  0  0  0  0  0  0
  1  2  1  0  0  0  0
  3  2  1  6  0  0  0
  3  6  1  0  0  0  0
  4  5  1  6  0  0  0
  4  3  1  0  0  0  0
  5  1  2  0  0  0  0
  6  7  1  0  0  0  0
  8  6  2  0  0  0  0
  9 21  1  6  0  0  0
  9  4  1  0  0  0  0
  9  8  1  0  0  0  0
 10 13  2  0  0  0  0
 13  8  1  0  0  0  0
 13 15  1  0  0  0  0
 14 11  1  6  0  0  0
 15 12  1  1  0  0  0
 16 14  1  0  0  0  0
 16 15  1  0  0  0  0
 17 10  1  0  0  0  0
 17 18  1  1  0  0  0
 17 14  1  0  0  0  0
 18 20  1  0  0  0  0
 19 18  2  0  0  0  0
 22 27  1  0  0  0  0
 23 26  1  0  0  0  0
 24 21  1  6  0  0  0
 25 23  1  0  0  0  0
 25 22  1  0  0  0  0
 26 24  1  0  0  0  0
 27 24  1  0  0  0  0
 27 28  1  1  0  0  0
 29 28  1  0  0  0  0
 30 29  2  0  0  0  0
 30 31  1  0  0  0  0
 32 36  1  0  0  0  0
 32 33  1  1  0  0  0
 32 30  1  0  0  0  0
 34 32  1  0  0  0  0
 35 34  1  0  0  0  0
 36 37  2  0  0  0  0
M  END
>  <MODEL>
8

>  <REMARK>
 VINA RESULT:      -6.6      3.338      6.964
  Name = 
  9 active torsions:
  status: ('A' for Active; 'I' for Inactive)
    1  A    between atoms: C_3  and  C_22
    2  A    between atoms: C_4  and  C_12
    3  A    between atoms: C_4  and  C_34
    4  A    between atoms: C_10  and  C_32
    5  A    between atoms: C_11  and  C_23
    6  A    between atoms: C_16  and  C_31
    7  A    between atoms: C_17  and  C_31
    8  A    between atoms: C_21  and  C_31
    9  A    between atoms: C_22  and  C_35
                            x       y       z     vdW  Elec       q    Type
                         _______ _______ _______ _____ _____    ______ ____

>  <TORSDO>
F 9

$$$$
=
 OpenBabel11062418483D

 37 40  0  0  1  0  0  0  0  0999 V2000
  192.7610  175.5100  146.9130 C   0  0  0  0  0  3  0  0  0  0  0  0
  192.1360  176.5440  147.7010 N   0  0  0  0  0  2  0  0  0  0  0  0
  190.8800  176.2790  147.6170 C   0  0  2  0  0  3  0  0  0  0  0  0
  190.6630  175.2330  146.7050 C   0  0  2  0  0  3  0  0  0  0  0  0
  191.9190  174.7430  146.2780 N   0  0  0  0  0  0  0  0  0  0  0  0
  189.7900  177.2170  147.4530 C   0  0  0  0  0  0  0  0  0  0  0  0
  189.7000  178.4880  148.0910 N   0  0  0  0  0  1  0  0  0  0  0  0
  188.9880  176.7550  146.4750 C   0  0  0  0  0  0  0  0  0  0  0  0
  189.5910  175.4890  145.9650 C   0  0  1  0  0  3  0  0  0  0  0  0
  187.7110  177.8030  144.6590 C   0  0  0  0  0  3  0  0  0  0  0  0
  184.2660  179.4910  144.4450 C   0  0  0  0  0  1  0  0  0  0  0  0
  185.8860  176.3910  146.9510 F   0  0  0  0  0  0  0  0  0  0  0  0
  187.7660  177.4200  145.9450 C   0  0  0  0  0  0  0  0  0  0  0  0
  185.2680  178.4430  144.8910 C   0  0  2  0  0  3  0  0  0  0  0  0
  186.5630  177.5930  146.8430 C   0  0  1  0  0  3  0  0  0  0  0  0
  185.6090  178.6780  146.3550 C   0  0  0  0  0  2  0  0  0  0  0  0
  186.5420  178.5300  144.0450 C   0  0  2  0  0  3  0  0  0  0  0  0
  186.3140  178.0410  142.6500 C   0  0  0  0  0  0  0  0  0  0  0  0
  185.3760  177.0450  142.4170 O   0  0  0  0  0  1  0  0  0  0  0  0
  186.9590  178.5310  141.6840 O   0  0  0  0  0  0  0  0  0  0  0  0
  189.3110  174.8410  144.6480 C   0  0  0  0  0  2  0  0  0  0  0  0
  189.9170  173.8050  141.7450 C   0  0  0  0  0  2  0  0  0  0  0  0
  189.4940  171.8420  143.0530 C   0  0  0  0  0  2  0  0  0  0  0  0
  190.4450  173.8940  144.2510 C   0  0  1  0  0  3  0  0  0  0  0  0
  188.8820  172.8820  142.2290 N   0  0  0  0  0  2  0  0  0  0  0  0
  189.9880  172.4320  144.3800 C   0  0  0  0  0  2  0  0  0  0  0  0
  190.9500  174.1770  142.8290 C   0  0  2  0  0  3  0  0  0  0  0  0
  191.4480  175.6090  142.6680 C   0  0  0  0  0  2  0  0  0  0  0  0
  192.7790  175.7940  143.3260 C   0  0  0  0  0  3  0  0  0  0  0  0
  193.9370  175.6470  142.6710 C   0  0  0  0  0  0  0  0  0  0  0  0
  193.9240  175.2940  141.3220 O   0  0  0  0  0  1  0  0  0  0  0  0
  195.2560  175.8510  143.3920 C   0  0  2  0  0  0  0  0  0  0  0  0
  195.0420  176.8060  144.5590 C   0  0  0  0  0  1  0  0  0  0  0  0
  196.2890  176.4750  142.4430 C   0  0  0  0  0  2  0  0  0  0  0  0
  197.4460  176.8590  143.1290 O   0  0  0  0  0  1  0  0  0  0  0  0
  195.7720  174.5410  143.9350 C   0  0  0  0  0  3  0  0  0  0  0  0
  195.9890  174.3410  145.2370 C   0  0  0  0  0  2  0  0  0  0  0  0
  1  2  1  0  0  0  0
  3  6  1  6  0  0  0
  3  2  1  0  0  0  0
  4  5  1  6  0  0  0
  4  3  1  0  0  0  0
  5  1  2  0  0  0  0
  6  7  1  0  0  0  0
  8  6  2  0  0  0  0
  9 21  1  6  0  0  0
  9  8  1  0  0  0  0
  9  4  1  0  0  0  0
 10 13  2  0  0  0  0
 13  8  1  0  0  0  0
 13 15  1  0  0  0  0
 14 11  1  6  0  0  0
 14 16  1  0  0  0  0
 15 12  1  6  0  0  0
 16 15  1  0  0  0  0
 17 18  1  6  0  0  0
 17 10  1  0  0  0  0
 17 14  1  0  0  0  0
 19 18  1  0  0  0  0
 20 18  2  0  0  0  0
 22 25  1  0  0  0  0
 22 27  1  0  0  0  0
 23 26  1  0  0  0  0
 24 26  1  0  0  0  0
 24 21  1  6  0  0  0
 25 23  1  0  0  0  0
 27 28  1  1  0  0  0
 27 24  1  0  0  0  0
 28 29  1  0  0  0  0
 30 29  2  0  0  0  0
 30 32  1  0  0  0  0
 31 30  1  0  0  0  0
 32 36  1  0  0  0  0
 32 33  1  1  0  0  0
 34 35  1  0  0  0  0
 34 32  1  0  0  0  0
 36 37  2  0  0  0  0
M  END
>  <MODEL>
9

>  <REMARK>
 VINA RESULT:      -6.5      2.107      4.533
  Name = 
  9 active torsions:
  status: ('A' for Active; 'I' for Inactive)
    1  A    between atoms: C_3  and  C_22
    2  A    between atoms: C_4  and  C_12
    3  A    between atoms: C_4  and  C_34
    4  A    between atoms: C_10  and  C_32
    5  A    between atoms: C_11  and  C_23
    6  A    between atoms: C_16  and  C_31
    7  A    between atoms: C_17  and  C_31
    8  A    between atoms: C_21  and  C_31
    9  A    between atoms: C_22  and  C_35
                            x       y       z     vdW  Elec       q    Type
                         _______ _______ _______ _____ _____    ______ ____

>  <TORSDO>
F 9

$$$$
