=
 OpenBabel11062421263D

 31 34  0  0  1  0  0  0  0  0999 V2000
  186.8230  177.3560  144.7100 C   0  0  2  0  0  3  0  0  0  0  0  0
  186.9670  177.3110  143.1850 C   0  0  1  0  0  3  0  0  0  0  0  0
  190.3620  177.3850  145.9460 N   0  0  0  0  0  0  0  0  0  0  0  0
  189.6510  177.4940  147.2110 C   0  0  0  0  0  2  0  0  0  0  0  0
  184.6960  178.3410  142.9370 C   0  0  1  0  0  3  0  0  0  0  0  0
  185.9510  178.5560  145.0930 C   0  0  0  0  0  2  0  0  0  0  0  0
  184.5690  178.4340  144.4580 C   0  0  0  0  0  2  0  0  0  0  0  0
  187.8330  176.1450  142.7660 C   0  0  0  0  0  2  0  0  0  0  0  0
  188.2290  177.4640  146.7850 C   0  0  0  0  0  0  0  0  0  0  0  0
  189.5170  177.3110  144.9680 C   0  0  0  0  0  0  0  0  0  0  0  0
  185.5940  177.1710  142.5340 C   0  0  0  0  0  2  0  0  0  0  0  0
  188.1340  177.3900  145.4660 C   0  0  0  0  0  0  0  0  0  0  0  0
  189.9820  177.1470  143.5670 C   0  0  0  0  0  0  0  0  0  0  0  0
  189.2330  176.6210  142.5940 C   0  0  0  0  0  3  0  0  0  0  0  0
  187.1490  177.5100  147.6580 O   0  0  0  0  0  1  0  0  0  0  0  0
  183.1390  178.3070  140.9020 C   0  0  0  0  0  0  0  0  0  0  0  0
  183.3820  178.2230  142.3140 N   0  0  0  0  0  2  0  0  0  0  0  0
  184.0920  178.4950  140.1020 O   0  0  0  0  0  0  0  0  0  0  0  0
  181.8440  178.1820  140.3980 O   0  0  0  0  0  0  0  0  0  0  0  0
  180.7030  178.2700  141.2370 C   0  0  0  0  0  1  0  0  0  0  0  0
  191.3920  177.5170  143.2240 C   0  0  0  0  0  2  0  0  0  0  0  0
  193.5180  177.5960  145.0930 F   0  0  0  0  0  0  0  0  0  0  0  0
  192.1560  175.2280  142.7130 N   0  0  0  0  0  0  0  0  0  0  0  0
  194.0330  174.2090  143.7740 C   0  0  0  0  0  3  0  0  0  0  0  0
  192.3180  176.3640  143.4440 C   0  0  0  0  0  0  0  0  0  0  0  0
  193.3650  176.4560  144.3740 C   0  0  0  0  0  0  0  0  0  0  0  0
  194.2350  175.3580  144.5420 C   0  0  0  0  0  0  0  0  0  0  0  0
  192.9820  174.1600  142.8590 C   0  0  0  0  0  3  0  0  0  0  0  0
  195.3310  175.3650  145.4680 N   0  0  0  0  0  2  0  0  0  0  0  0
  196.7840  173.3350  146.0380 N   0  0  0  0  0  0  0  0  0  0  0  0
  196.1270  174.2530  145.7810 C   0  0  0  0  0  0  0  0  0  0  0  0
  1  6  1  6  0  0  0
  1 12  1  0  0  0  0
  2 11  1  6  0  0  0
  2  1  1  0  0  0  0
  3  4  1  0  0  0  0
  5 17  1  6  0  0  0
  5  7  1  0  0  0  0
  7  6  1  0  0  0  0
  8  2  1  0  0  0  0
  9  4  1  0  0  0  0
  9 15  1  0  0  0  0
 10 12  1  0  0  0  0
 10  3  2  0  0  0  0
 11  5  1  0  0  0  0
 12  9  2  0  0  0  0
 13 10  1  0  0  0  0
 14  8  1  0  0  0  0
 14 13  2  0  0  0  0
 16 17  1  0  0  0  0
 18 16  2  0  0  0  0
 19 16  1  0  0  0  0
 19 20  1  0  0  0  0
 21 25  1  0  0  0  0
 21 13  1  0  0  0  0
 23 28  2  0  0  0  0
 23 25  1  0  0  0  0
 24 27  2  0  0  0  0
 25 26  2  0  0  0  0
 26 27  1  0  0  0  0
 26 22  1  0  0  0  0
 27 29  1  0  0  0  0
 28 24  1  0  0  0  0
 29 31  1  0  0  0  0
 31 30  3  0  0  0  0
M  END
>  <MODEL>
1

>  <REMARK>
 VINA RESULT:      -7.7      0.000      0.000
  Name = 
  6 active torsions:
  status: ('A' for Active; 'I' for Inactive)
    1  A    between atoms: C_5  and  C_10
    2  A    between atoms: C_7  and  O_11
    3  A    between atoms: C_10  and  C_26
    4  A    between atoms: C_13  and  N_16
    5  A    between atoms: N_15  and  C_27
    6  A    between atoms: N_15  and  C_30
                            x       y       z     vdW  Elec       q    Type
                         _______ _______ _______ _____ _____    ______ ____

>  <TORSDO>
F 6

$$$$
=
 OpenBabel11062421263D

 31 34  0  0  1  0  0  0  0  0999 V2000
  189.3860  175.7710  144.7210 C   0  0  2  0  0  3  0  0  0  0  0  0
  189.9860  176.3450  143.4330 C   0  0  1  0  0  3  0  0  0  0  0  0
  192.2580  175.7700  147.1290 N   0  0  0  0  0  0  0  0  0  0  0  0
  191.1990  175.2820  148.0000 C   0  0  0  0  0  2  0  0  0  0  0  0
  187.7090  177.0880  142.6990 C   0  0  1  0  0  3  0  0  0  0  0  0
  188.1600  176.6020  145.1130 C   0  0  0  0  0  2  0  0  0  0  0  0
  187.1130  176.5610  144.0050 C   0  0  0  0  0  2  0  0  0  0  0  0
  191.2090  175.5580  143.0190 C   0  0  0  0  0  2  0  0  0  0  0  0
  190.0280  175.2390  147.0870 C   0  0  0  0  0  0  0  0  0  0  0  0
  191.7940  175.9760  145.9380 C   0  0  0  0  0  0  0  0  0  0  0  0
  188.9560  176.2950  142.3080 C   0  0  0  0  0  2  0  0  0  0  0  0
  190.3550  175.6750  145.8800 C   0  0  0  0  0  0  0  0  0  0  0  0
  192.6840  176.4340  144.8410 C   0  0  0  0  0  0  0  0  0  0  0  0
  192.4230  176.2400  143.5460 C   0  0  0  0  0  3  0  0  0  0  0  0
  188.7620  174.7990  147.4580 O   0  0  0  0  0  1  0  0  0  0  0  0
  185.6820  178.0310  141.4450 C   0  0  0  0  0  0  0  0  0  0  0  0
  186.7180  177.0550  141.6270 N   0  0  0  0  0  2  0  0  0  0  0  0
  185.5760  179.0030  142.2380 O   0  0  0  0  0  0  0  0  0  0  0  0
  184.7790  177.9150  140.3880 O   0  0  0  0  0  0  0  0  0  0  0  0
  183.4110  178.2610  140.5310 C   0  0  0  0  0  1  0  0  0  0  0  0
  193.9860  177.0880  145.1880 C   0  0  0  0  0  2  0  0  0  0  0  0
  195.0760  174.9240  146.6560 F   0  0  0  0  0  0  0  0  0  0  0  0
  195.7130  176.5880  143.5000 N   0  0  0  0  0  0  0  0  0  0  0  0
  197.3170  174.8390  143.7480 C   0  0  0  0  0  3  0  0  0  0  0  0
  195.1410  176.2770  144.6950 C   0  0  0  0  0  0  0  0  0  0  0  0
  195.6540  175.2220  145.4640 C   0  0  0  0  0  0  0  0  0  0  0  0
  196.7590  174.4910  144.9810 C   0  0  0  0  0  0  0  0  0  0  0  0
  196.7780  175.8970  143.0160 C   0  0  0  0  0  3  0  0  0  0  0  0
  197.3480  173.3980  145.7000 N   0  0  0  0  0  2  0  0  0  0  0  0
  196.2900  171.0840  145.9790 N   0  0  0  0  0  0  0  0  0  0  0  0
  196.7690  172.1290  145.8520 C   0  0  0  0  0  0  0  0  0  0  0  0
  1  6  1  1  0  0  0
  1 12  1  0  0  0  0
  2 11  1  6  0  0  0
  2  1  1  0  0  0  0
  3  4  1  0  0  0  0
  5 17  1  6  0  0  0
  5  7  1  0  0  0  0
  7  6  1  0  0  0  0
  8  2  1  0  0  0  0
  8 14  1  0  0  0  0
  9 15  1  0  0  0  0
  9  4  1  0  0  0  0
 10  3  2  0  0  0  0
 11  5  1  0  0  0  0
 12 10  1  0  0  0  0
 12  9  2  0  0  0  0
 13 21  1  0  0  0  0
 13 10  1  0  0  0  0
 14 13  2  0  0  0  0
 16 17  1  0  0  0  0
 16 18  2  0  0  0  0
 19 20  1  0  0  0  0
 19 16  1  0  0  0  0
 23 25  1  0  0  0  0
 24 27  2  0  0  0  0
 25 21  1  0  0  0  0
 25 26  2  0  0  0  0
 26 22  1  0  0  0  0
 27 26  1  0  0  0  0
 27 29  1  0  0  0  0
 28 23  2  0  0  0  0
 28 24  1  0  0  0  0
 29 31  1  0  0  0  0
 31 30  3  0  0  0  0
M  END
>  <MODEL>
2

>  <REMARK>
 VINA RESULT:      -7.6      2.100      3.090
  Name = 
  6 active torsions:
  status: ('A' for Active; 'I' for Inactive)
    1  A    between atoms: C_5  and  C_10
    2  A    between atoms: C_7  and  O_11
    3  A    between atoms: C_10  and  C_26
    4  A    between atoms: C_13  and  N_16
    5  A    between atoms: N_15  and  C_27
    6  A    between atoms: N_15  and  C_30
                            x       y       z     vdW  Elec       q    Type
                         _______ _______ _______ _____ _____    ______ ____

>  <TORSDO>
F 6

$$$$
=
 OpenBabel11062421263D

 31 34  0  0  1  0  0  0  0  0999 V2000
  189.3690  175.9100  144.7850 C   0  0  2  0  0  3  0  0  0  0  0  0
  190.0120  176.4430  143.5000 C   0  0  1  0  0  3  0  0  0  0  0  0
  192.2050  175.8120  147.2340 N   0  0  0  0  0  0  0  0  0  0  0  0
  191.1140  175.3800  148.0940 C   0  0  0  0  0  2  0  0  0  0  0  0
  187.7790  177.2750  142.7250 C   0  0  1  0  0  3  0  0  0  0  0  0
  188.1750  176.7970  145.1500 C   0  0  0  0  0  2  0  0  0  0  0  0
  187.1430  176.7890  144.0270 C   0  0  0  0  0  2  0  0  0  0  0  0
  191.2050  175.6000  143.1110 C   0  0  0  0  0  2  0  0  0  0  0  0
  189.9550  175.3770  147.1650 C   0  0  0  0  0  0  0  0  0  0  0  0
  191.7670  176.0250  146.0340 C   0  0  0  0  0  0  0  0  0  0  0  0
  188.9960  176.4250  142.3600 C   0  0  0  0  0  2  0  0  0  0  0  0
  190.3170  175.7850  145.9590 C   0  0  0  0  0  0  0  0  0  0  0  0
  192.6910  176.4320  144.9450 C   0  0  0  0  0  0  0  0  0  0  0  0
  192.4400  176.2340  143.6480 C   0  0  0  0  0  3  0  0  0  0  0  0
  188.6670  174.9970  147.5220 O   0  0  0  0  0  1  0  0  0  0  0  0
  185.5540  177.9780  141.6660 C   0  0  0  0  0  0  0  0  0  0  0  0
  186.8030  177.2730  141.6390 N   0  0  0  0  0  2  0  0  0  0  0  0
  185.2290  178.6610  142.6720 O   0  0  0  0  0  0  0  0  0  0  0  0
  184.6830  177.9160  140.5770 O   0  0  0  0  0  0  0  0  0  0  0  0
  183.3330  178.3410  140.6730 C   0  0  0  0  0  1  0  0  0  0  0  0
  194.0150  177.0320  145.3040 C   0  0  0  0  0  2  0  0  0  0  0  0
  195.8330  177.1660  143.1350 F   0  0  0  0  0  0  0  0  0  0  0  0
  195.2660  175.0250  146.0040 N   0  0  0  0  0  0  0  0  0  0  0  0
  197.1270  174.1550  144.7920 C   0  0  0  0  0  3  0  0  0  0  0  0
  195.1210  176.0450  145.1150 C   0  0  0  0  0  0  0  0  0  0  0  0
  195.9900  176.1460  144.0170 C   0  0  0  0  0  0  0  0  0  0  0  0
  197.0100  175.1850  143.8550 C   0  0  0  0  0  0  0  0  0  0  0  0
  196.2410  174.0900  145.8670 C   0  0  0  0  0  3  0  0  0  0  0  0
  197.9410  175.2110  142.7640 N   0  0  0  0  0  2  0  0  0  0  0  0
  197.3080  175.4510  140.2950 N   0  0  0  0  0  0  0  0  0  0  0  0
  197.5930  175.3420  141.4120 C   0  0  0  0  0  0  0  0  0  0  0  0
  1  6  1  1  0  0  0
  1 12  1  0  0  0  0
  2 11  1  6  0  0  0
  2  1  1  0  0  0  0
  3  4  1  0  0  0  0
  5 17  1  6  0  0  0
  5  7  1  0  0  0  0
  7  6  1  0  0  0  0
  8  2  1  0  0  0  0
  8 14  1  0  0  0  0
  9 15  1  0  0  0  0
  9  4  1  0  0  0  0
 10  3  2  0  0  0  0
 11  5  1  0  0  0  0
 12 10  1  0  0  0  0
 12  9  2  0  0  0  0
 13 21  1  0  0  0  0
 13 10  1  0  0  0  0
 14 13  2  0  0  0  0
 16 18  2  0  0  0  0
 17 16  1  0  0  0  0
 19 20  1  0  0  0  0
 19 16  1  0  0  0  0
 22 26  1  0  0  0  0
 24 28  2  0  0  0  0
 25 21  1  0  0  0  0
 25 23  2  0  0  0  0
 26 25  1  0  0  0  0
 27 26  2  0  0  0  0
 27 24  1  0  0  0  0
 28 23  1  0  0  0  0
 29 27  1  0  0  0  0
 30 31  3  0  0  0  0
 31 29  1  0  0  0  0
M  END
>  <MODEL>
3

>  <REMARK>
 VINA RESULT:      -7.2      2.253      3.377
  Name = 
  6 active torsions:
  status: ('A' for Active; 'I' for Inactive)
    1  A    between atoms: C_5  and  C_10
    2  A    between atoms: C_7  and  O_11
    3  A    between atoms: C_10  and  C_26
    4  A    between atoms: C_13  and  N_16
    5  A    between atoms: N_15  and  C_27
    6  A    between atoms: N_15  and  C_30
                            x       y       z     vdW  Elec       q    Type
                         _______ _______ _______ _____ _____    ______ ____

>  <TORSDO>
F 6

$$$$
=
 OpenBabel11062421263D

 31 34  0  0  1  0  0  0  0  0999 V2000
  192.0880  175.8930  144.6980 C   0  0  2  0  0  3  0  0  0  0  0  0
  191.9270  176.1530  143.1960 C   0  0  1  0  0  3  0  0  0  0  0  0
  188.5950  175.2040  145.8710 N   0  0  0  0  0  0  0  0  0  0  0  0
  189.3240  174.9980  147.1130 C   0  0  0  0  0  2  0  0  0  0  0  0
  194.3120  175.4840  142.8210 C   0  0  1  0  0  3  0  0  0  0  0  0
  193.1160  174.7750  144.9030 C   0  0  0  0  0  2  0  0  0  0  0  0
  194.4630  175.1760  144.3110 C   0  0  0  0  0  2  0  0  0  0  0  0
  190.9090  177.2430  142.9510 C   0  0  0  0  0  2  0  0  0  0  0  0
  190.7260  175.2810  146.7140 C   0  0  0  0  0  0  0  0  0  0  0  0
  189.4150  175.5390  144.9260 C   0  0  0  0  0  0  0  0  0  0  0  0
  193.2640  176.5730  142.5910 C   0  0  0  0  0  2  0  0  0  0  0  0
  190.8000  175.5690  145.4230 C   0  0  0  0  0  0  0  0  0  0  0  0
  188.9200  175.8540  143.5620 C   0  0  0  0  0  0  0  0  0  0  0  0
  189.5840  176.6180  142.6900 C   0  0  0  0  0  3  0  0  0  0  0  0
  191.8110  175.2460  147.5830 O   0  0  0  0  0  1  0  0  0  0  0  0
  195.9450  175.7070  140.8580 C   0  0  0  0  0  0  0  0  0  0  0  0
  195.5940  175.8700  142.2400 N   0  0  0  0  0  2  0  0  0  0  0  0
  195.1240  175.2000  140.0480 O   0  0  0  0  0  0  0  0  0  0  0  0
  197.1980  176.1070  140.3930 O   0  0  0  0  0  0  0  0  0  0  0  0
  197.7970  175.5160  139.2510 C   0  0  0  0  0  1  0  0  0  0  0  0
  187.5690  175.3570  143.1480 C   0  0  0  0  0  2  0  0  0  0  0  0
  185.9470  176.4200  145.2130 F   0  0  0  0  0  0  0  0  0  0  0  0
  186.5150  177.0420  141.6880 N   0  0  0  0  0  0  0  0  0  0  0  0
  184.8520  178.5750  142.4480 C   0  0  0  0  0  3  0  0  0  0  0  0
  186.6230  176.4940  142.9280 C   0  0  0  0  0  0  0  0  0  0  0  0
  185.8310  176.9780  143.9810 C   0  0  0  0  0  0  0  0  0  0  0  0
  184.9320  178.0380  143.7360 C   0  0  0  0  0  0  0  0  0  0  0  0
  185.6560  178.0620  141.4300 C   0  0  0  0  0  3  0  0  0  0  0  0
  184.0850  178.5940  144.7500 N   0  0  0  0  0  2  0  0  0  0  0  0
  184.6070  178.6090  147.2570 N   0  0  0  0  0  0  0  0  0  0  0  0
  184.3710  178.6010  146.1230 C   0  0  0  0  0  0  0  0  0  0  0  0
  1  6  1  6  0  0  0
  1 12  1  0  0  0  0
  2 11  1  1  0  0  0
  2  1  1  0  0  0  0
  3  4  1  0  0  0  0
  5 17  1  1  0  0  0
  5  7  1  0  0  0  0
  7  6  1  0  0  0  0
  8  2  1  0  0  0  0
  9  4  1  0  0  0  0
  9 15  1  0  0  0  0
 10 12  1  0  0  0  0
 10  3  2  0  0  0  0
 11  5  1  0  0  0  0
 12  9  2  0  0  0  0
 13 10  1  0  0  0  0
 14  8  1  0  0  0  0
 14 13  2  0  0  0  0
 16 17  1  0  0  0  0
 18 16  2  0  0  0  0
 19 16  1  0  0  0  0
 20 19  1  0  0  0  0
 21 13  1  0  0  0  0
 23 25  1  0  0  0  0
 24 27  2  0  0  0  0
 25 21  1  0  0  0  0
 25 26  2  0  0  0  0
 26 22  1  0  0  0  0
 27 26  1  0  0  0  0
 27 29  1  0  0  0  0
 28 23  2  0  0  0  0
 28 24  1  0  0  0  0
 29 31  1  0  0  0  0
 31 30  3  0  0  0  0
M  END
>  <MODEL>
4

>  <REMARK>
 VINA RESULT:      -7.0      4.104      8.831
  Name = 
  6 active torsions:
  status: ('A' for Active; 'I' for Inactive)
    1  A    between atoms: C_5  and  C_10
    2  A    between atoms: C_7  and  O_11
    3  A    between atoms: C_10  and  C_26
    4  A    between atoms: C_13  and  N_16
    5  A    between atoms: N_15  and  C_27
    6  A    between atoms: N_15  and  C_30
                            x       y       z     vdW  Elec       q    Type
                         _______ _______ _______ _____ _____    ______ ____

>  <TORSDO>
F 6

$$$$
=
 OpenBabel11062421263D

 31 34  0  0  1  0  0  0  0  0999 V2000
  186.6590  177.4550  144.8950 C   0  0  2  0  0  3  0  0  0  0  0  0
  186.8940  177.4400  143.3810 C   0  0  1  0  0  3  0  0  0  0  0  0
  190.1170  177.5440  146.3400 N   0  0  0  0  0  0  0  0  0  0  0  0
  189.3310  177.6130  147.5630 C   0  0  0  0  0  2  0  0  0  0  0  0
  184.6180  178.4220  143.0160 C   0  0  1  0  0  3  0  0  0  0  0  0
  185.7380  178.6280  145.2460 C   0  0  0  0  0  2  0  0  0  0  0  0
  184.4000  178.4860  144.5270 C   0  0  0  0  0  2  0  0  0  0  0  0
  187.8120  176.3020  142.9960 C   0  0  0  0  0  2  0  0  0  0  0  0
  187.9370  177.5590  147.0520 C   0  0  0  0  0  0  0  0  0  0  0  0
  189.3340  177.4670  145.3130 C   0  0  0  0  0  0  0  0  0  0  0  0
  185.5660  177.2800  142.6470 C   0  0  0  0  0  2  0  0  0  0  0  0
  187.9220  177.5060  145.7290 C   0  0  0  0  0  0  0  0  0  0  0  0
  189.8850  177.3380  143.9400 C   0  0  0  0  0  0  0  0  0  0  0  0
  189.2070  176.8130  142.9160 C   0  0  0  0  0  3  0  0  0  0  0  0
  186.8060  177.5640  147.8600 O   0  0  0  0  0  1  0  0  0  0  0  0
  183.1970  178.3050  140.8860 C   0  0  0  0  0  0  0  0  0  0  0  0
  183.3460  178.2860  142.3130 N   0  0  0  0  0  2  0  0  0  0  0  0
  184.2030  178.4470  140.1420 O   0  0  0  0  0  0  0  0  0  0  0  0
  181.9370  178.1660  140.3040 O   0  0  0  0  0  0  0  0  0  0  0  0
  180.7440  178.2900  141.0630 C   0  0  0  0  0  1  0  0  0  0  0  0
  191.3030  177.7460  143.6870 C   0  0  0  0  0  2  0  0  0  0  0  0
  191.9870  175.5810  141.9940 F   0  0  0  0  0  0  0  0  0  0  0  0
  192.8110  176.7060  145.3390 N   0  0  0  0  0  0  0  0  0  0  0  0
  193.9890  174.6720  144.9350 C   0  0  0  0  0  3  0  0  0  0  0  0
  192.2540  176.6680  144.0980 C   0  0  0  0  0  0  0  0  0  0  0  0
  192.5520  175.6090  143.2280 C   0  0  0  0  0  0  0  0  0  0  0  0
  193.4360  174.5950  143.6540 C   0  0  0  0  0  0  0  0  0  0  0  0
  193.6640  175.7410  145.7690 C   0  0  0  0  0  3  0  0  0  0  0  0
  193.7970  173.4760  142.8320 N   0  0  0  0  0  2  0  0  0  0  0  0
  192.3580  171.3890  142.4790 N   0  0  0  0  0  0  0  0  0  0  0  0
  193.0080  172.3330  142.6380 C   0  0  0  0  0  0  0  0  0  0  0  0
  1  6  1  6  0  0  0
  1 12  1  0  0  0  0
  2 11  1  6  0  0  0
  2  1  1  0  0  0  0
  3  4  1  0  0  0  0
  5 17  1  6  0  0  0
  5  7  1  0  0  0  0
  7  6  1  0  0  0  0
  8  2  1  0  0  0  0
  9  4  1  0  0  0  0
  9 15  1  0  0  0  0
 10 12  1  0  0  0  0
 10  3  2  0  0  0  0
 11  5  1  0  0  0  0
 12  9  2  0  0  0  0
 13 10  1  0  0  0  0
 14  8  1  0  0  0  0
 14 13  2  0  0  0  0
 16 17  1  0  0  0  0
 18 16  2  0  0  0  0
 19 16  1  0  0  0  0
 19 20  1  0  0  0  0
 21 13  1  0  0  0  0
 21 25  1  0  0  0  0
 22 26  1  0  0  0  0
 23 28  1  0  0  0  0
 24 28  2  0  0  0  0
 25 23  2  0  0  0  0
 26 27  2  0  0  0  0
 26 25  1  0  0  0  0
 27 24  1  0  0  0  0
 29 27  1  0  0  0  0
 30 31  3  0  0  0  0
 31 29  1  0  0  0  0
M  END
>  <MODEL>
5

>  <REMARK>
 VINA RESULT:      -6.9      1.402      1.952
  Name = 
  6 active torsions:
  status: ('A' for Active; 'I' for Inactive)
    1  A    between atoms: C_5  and  C_10
    2  A    between atoms: C_7  and  O_11
    3  A    between atoms: C_10  and  C_26
    4  A    between atoms: C_13  and  N_16
    5  A    between atoms: N_15  and  C_27
    6  A    between atoms: N_15  and  C_30
                            x       y       z     vdW  Elec       q    Type
                         _______ _______ _______ _____ _____    ______ ____

>  <TORSDO>
F 6

$$$$
=
 OpenBabel11062421263D

 31 34  0  0  1  0  0  0  0  0999 V2000
  186.6350  178.2920  143.2290 C   0  0  2  0  0  3  0  0  0  0  0  0
  185.7010  177.9100  144.3820 C   0  0  1  0  0  3  0  0  0  0  0  0
  189.8590  176.5800  144.0770 N   0  0  0  0  0  0  0  0  0  0  0  0
  190.2170  177.1690  142.7950 C   0  0  0  0  0  3  0  0  0  0  0  0
  183.7150  178.2900  142.9020 C   0  0  1  0  0  3  0  0  0  0  0  0
  185.9770  177.9000  141.9020 C   0  0  0  0  0  2  0  0  0  0  0  0
  184.6440  178.6230  141.7350 C   0  0  0  0  0  2  0  0  0  0  0  0
  186.3220  178.2700  145.7120 C   0  0  0  0  0  2  0  0  0  0  0  0
  188.9740  177.8870  142.4150 C   0  0  0  0  0  0  0  0  0  0  0  0
  188.6410  176.8900  144.3850 C   0  0  2  0  0  3  0  0  0  0  0  0
  184.3680  178.6390  144.2400 C   0  0  0  0  0  2  0  0  0  0  0  0
  188.0280  177.7060  143.3240 C   0  0  0  0  0  0  0  0  0  0  0  0
  188.0420  176.4520  145.6710 C   0  0  0  0  0  0  0  0  0  0  0  0
  187.0170  177.0730  146.2610 C   0  0  0  0  0  3  0  0  0  0  0  0
  188.8300  178.6440  141.2580 O   0  0  0  0  0  1  0  0  0  0  0  0
  181.4960  178.7340  141.6990 C   0  0  0  0  0  0  0  0  0  0  0  0
  182.4340  178.9750  142.7580 N   0  0  0  0  0  2  0  0  0  0  0  0
  181.7470  177.8820  140.8070 O   0  0  0  0  0  0  0  0  0  0  0  0
  180.2940  179.4400  141.6440 O   0  0  0  0  0  0  0  0  0  0  0  0
  179.9550  180.2550  140.5330 C   0  0  0  0  0  1  0  0  0  0  0  0
  188.6550  175.2970  146.3990 C   0  0  0  0  0  2  0  0  0  0  0  0
  190.7710  173.7370  145.3440 F   0  0  0  0  0  0  0  0  0  0  0  0
  190.4120  176.5850  147.5570 N   0  0  0  0  0  0  0  0  0  0  0  0
  192.7370  176.0780  147.3780 C   0  0  0  0  0  3  0  0  0  0  0  0
  190.0920  175.5630  146.7170 C   0  0  0  0  0  0  0  0  0  0  0  0
  191.1040  174.7550  146.1780 C   0  0  0  0  0  0  0  0  0  0  0  0
  192.4490  175.0190  146.5140 C   0  0  0  0  0  0  0  0  0  0  0  0
  191.7000  176.8560  147.8930 C   0  0  0  0  0  3  0  0  0  0  0  0
  193.5470  174.2440  146.0110 N   0  0  0  0  0  2  0  0  0  0  0  0
  195.7690  175.2070  145.1810 N   0  0  0  0  0  0  0  0  0  0  0  0
  194.7640  174.7730  145.5570 C   0  0  0  0  0  0  0  0  0  0  0  0
  1  6  1  6  0  0  0
  1 12  1  0  0  0  0
  1  2  1  0  0  0  0
  2 11  1  6  0  0  0
  2  8  1  0  0  0  0
  3 10  1  0  0  0  0
  4  3  2  0  0  0  0
  5 17  1  6  0  0  0
  5 11  1  0  0  0  0
  7  6  1  0  0  0  0
  7  5  1  0  0  0  0
  8 14  1  0  0  0  0
  9  4  1  0  0  0  0
  9 12  2  0  0  0  0
 10 12  1  1  0  0  0
 10 13  1  0  0  0  0
 13 14  2  0  0  0  0
 13 21  1  0  0  0  0
 15  9  1  0  0  0  0
 16 17  1  0  0  0  0
 18 16  2  0  0  0  0
 19 16  1  0  0  0  0
 20 19  1  0  0  0  0
 21 25  1  0  0  0  0
 22 26  1  0  0  0  0
 23 28  1  0  0  0  0
 24 28  2  0  0  0  0
 25 23  2  0  0  0  0
 26 27  2  0  0  0  0
 26 25  1  0  0  0  0
 27 24  1  0  0  0  0
 29 27  1  0  0  0  0
 30 31  3  0  0  0  0
 31 29  1  0  0  0  0
M  END
>  <MODEL>
6

>  <REMARK>
 VINA RESULT:      -6.9      2.188      3.430
  Name = 
  6 active torsions:
  status: ('A' for Active; 'I' for Inactive)
    1  A    between atoms: C_5  and  C_10
    2  A    between atoms: C_7  and  O_11
    3  A    between atoms: C_10  and  C_26
    4  A    between atoms: C_13  and  N_16
    5  A    between atoms: N_15  and  C_27
    6  A    between atoms: N_15  and  C_30
                            x       y       z     vdW  Elec       q    Type
                         _______ _______ _______ _____ _____    ______ ____

>  <TORSDO>
F 6

$$$$
=
 OpenBabel11062421263D

 31 34  0  0  1  0  0  0  0  0999 V2000
  191.6680  176.0420  145.4730 C   0  0  2  0  0  3  0  0  0  0  0  0
  191.9140  175.2860  144.1630 C   0  0  1  0  0  3  0  0  0  0  0  0
  187.9830  176.7280  145.4370 N   0  0  0  0  0  0  0  0  0  0  0  0
  188.3310  177.2850  146.7360 C   0  0  0  0  0  2  0  0  0  0  0  0
  193.9640  174.2380  145.1500 C   0  0  1  0  0  3  0  0  0  0  0  0
  192.2000  175.2040  146.6400 C   0  0  0  0  0  2  0  0  0  0  0  0
  193.6950  174.9510  146.4750 C   0  0  0  0  0  2  0  0  0  0  0  0
  191.3900  176.0770  142.9860 C   0  0  0  0  0  2  0  0  0  0  0  0
  189.7970  177.0610  146.7990 C   0  0  0  0  0  0  0  0  0  0  0  0
  189.0420  176.2650  144.8550 C   0  0  0  0  0  0  0  0  0  0  0  0
  193.4080  175.0400  143.9730 C   0  0  0  0  0  2  0  0  0  0  0  0
  190.2250  176.4330  145.7150 C   0  0  0  0  0  0  0  0  0  0  0  0
  188.9710  175.6810  143.4910 C   0  0  0  0  0  0  0  0  0  0  0  0
  190.0150  175.6070  142.6620 C   0  0  0  0  0  3  0  0  0  0  0  0
  190.6050  177.4580  147.8580 O   0  0  0  0  0  1  0  0  0  0  0  0
  196.0380  172.7340  145.2420 C   0  0  0  0  0  0  0  0  0  0  0  0
  195.3920  173.9880  144.9760 N   0  0  0  0  0  2  0  0  0  0  0  0
  195.3720  171.7490  145.6540 O   0  0  0  0  0  0  0  0  0  0  0  0
  197.4120  172.5910  145.0450 O   0  0  0  0  0  0  0  0  0  0  0  0
  197.9410  171.6820  144.0930 C   0  0  0  0  0  1  0  0  0  0  0  0
  187.6470  175.2120  142.9720 C   0  0  0  0  0  2  0  0  0  0  0  0
  185.3010  176.5740  143.7880 F   0  0  0  0  0  0  0  0  0  0  0  0
  187.5270  176.5870  140.9280 N   0  0  0  0  0  0  0  0  0  0  0  0
  185.8000  178.1830  140.5260 C   0  0  0  0  0  3  0  0  0  0  0  0
  186.9930  176.2670  142.1380 C   0  0  0  0  0  0  0  0  0  0  0  0
  185.8250  176.9050  142.5810 C   0  0  0  0  0  0  0  0  0  0  0  0
  185.2200  177.8800  141.7600 C   0  0  0  0  0  0  0  0  0  0  0  0
  186.9600  177.5230  140.1230 C   0  0  0  0  0  3  0  0  0  0  0  0
  184.0250  178.5820  142.1320 N   0  0  0  0  0  2  0  0  0  0  0  0
  181.6790  178.0590  141.2500 N   0  0  0  0  0  0  0  0  0  0  0  0
  182.7400  178.2940  141.6500 C   0  0  0  0  0  0  0  0  0  0  0  0
  1 12  1  0  0  0  0
  1  6  1  1  0  0  0
  2  8  1  6  0  0  0
  2  1  1  0  0  0  0
  3  4  1  0  0  0  0
  4  9  1  0  0  0  0
  5 17  1  6  0  0  0
  5  7  1  0  0  0  0
  7  6  1  0  0  0  0
  9 15  1  0  0  0  0
 10  3  2  0  0  0  0
 10 12  1  0  0  0  0
 11  2  1  0  0  0  0
 11  5  1  0  0  0  0
 12  9  2  0  0  0  0
 13 10  1  0  0  0  0
 14  8  1  0  0  0  0
 14 13  2  0  0  0  0
 16 18  2  0  0  0  0
 17 16  1  0  0  0  0
 19 16  1  0  0  0  0
 20 19  1  0  0  0  0
 21 13  1  0  0  0  0
 23 25  1  0  0  0  0
 24 27  2  0  0  0  0
 25 26  2  0  0  0  0
 25 21  1  0  0  0  0
 26 22  1  0  0  0  0
 27 29  1  0  0  0  0
 27 26  1  0  0  0  0
 28 24  1  0  0  0  0
 28 23  2  0  0  0  0
 30 31  3  0  0  0  0
 31 29  1  0  0  0  0
M  END
>  <MODEL>
7

>  <REMARK>
 VINA RESULT:      -6.9      3.681      9.418
  Name = 
  6 active torsions:
  status: ('A' for Active; 'I' for Inactive)
    1  A    between atoms: C_5  and  C_10
    2  A    between atoms: C_7  and  O_11
    3  A    between atoms: C_10  and  C_26
    4  A    between atoms: C_13  and  N_16
    5  A    between atoms: N_15  and  C_27
    6  A    between atoms: N_15  and  C_30
                            x       y       z     vdW  Elec       q    Type
                         _______ _______ _______ _____ _____    ______ ____

>  <TORSDO>
F 6

$$$$
=
 OpenBabel11062421263D

 31 34  0  0  1  0  0  0  0  0999 V2000
  190.9710  175.7910  145.1030 C   0  0  2  0  0  3  0  0  0  0  0  0
  189.6650  175.0020  144.9620 C   0  0  1  0  0  3  0  0  0  0  0  0
  193.5880  173.4280  143.8300 N   0  0  0  0  0  0  0  0  0  0  0  0
  194.4140  174.5940  144.1080 C   0  0  0  0  0  3  0  0  0  0  0  0
  188.3770  177.1490  144.8590 C   0  0  1  0  0  3  0  0  0  0  0  0
  190.8310  177.1250  144.3630 C   0  0  0  0  0  2  0  0  0  0  0  0
  189.6820  177.9400  144.9480 C   0  0  0  0  0  2  0  0  0  0  0  0
  189.7680  173.6710  145.6700 C   0  0  0  0  0  2  0  0  0  0  0  0
  193.4270  175.5670  144.6410 C   0  0  0  0  0  0  0  0  0  0  0  0
  192.3550  173.6740  144.1390 C   0  0  2  0  0  3  0  0  0  0  0  0
  188.5070  175.7970  145.5600 C   0  0  0  0  0  2  0  0  0  0  0  0
  192.2070  175.0520  144.6350 C   0  0  0  0  0  0  0  0  0  0  0  0
  191.3090  172.6300  143.9960 C   0  0  0  0  0  0  0  0  0  0  0  0
  190.1640  172.6290  144.6840 C   0  0  0  0  0  3  0  0  0  0  0  0
  193.7480  176.8450  145.0840 O   0  0  0  0  0  1  0  0  0  0  0  0
  186.3100  178.6490  144.6370 C   0  0  0  0  0  0  0  0  0  0  0  0
  187.2670  177.9160  145.4160 N   0  0  0  0  0  2  0  0  0  0  0  0
  186.3890  178.6630  143.3800 O   0  0  0  0  0  0  0  0  0  0  0  0
  185.2810  179.3540  145.2610 O   0  0  0  0  0  0  0  0  0  0  0  0
  184.3630  178.7190  146.1370 C   0  0  0  0  0  1  0  0  0  0  0  0
  191.5660  171.4660  143.0890 C   0  0  0  0  0  2  0  0  0  0  0  0
  188.9840  171.8250  141.9800 F   0  0  0  0  0  0  0  0  0  0  0  0
  192.4190  172.0080  140.8390 N   0  0  0  0  0  0  0  0  0  0  0  0
  191.0000  172.4940  138.9850 C   0  0  0  0  0  3  0  0  0  0  0  0
  191.3460  171.8420  141.6590 C   0  0  0  0  0  0  0  0  0  0  0  0
  190.0460  171.9970  141.1520 C   0  0  0  0  0  0  0  0  0  0  0  0
  189.8720  172.3300  139.7930 C   0  0  0  0  0  0  0  0  0  0  0  0
  192.2740  172.3280  139.5280 C   0  0  0  0  0  3  0  0  0  0  0  0
  188.5820  172.5070  139.1910 N   0  0  0  0  0  2  0  0  0  0  0  0
  187.8750  174.5410  137.8070 N   0  0  0  0  0  0  0  0  0  0  0  0
  188.1940  173.6210  138.4330 C   0  0  0  0  0  0  0  0  0  0  0  0
  1  6  1  6  0  0  0
  2  1  1  0  0  0  0
  2 11  1  1  0  0  0
  2  8  1  0  0  0  0
  3  4  2  0  0  0  0
  4  9  1  0  0  0  0
  5  7  1  0  0  0  0
  5 17  1  1  0  0  0
  5 11  1  0  0  0  0
  6  7  1  0  0  0  0
  9 15  1  0  0  0  0
 10  3  1  1  0  0  0
 10 12  1  0  0  0  0
 12  9  2  0  0  0  0
 12  1  1  0  0  0  0
 13 10  1  0  0  0  0
 13 14  2  0  0  0  0
 14  8  1  0  0  0  0
 16 19  1  0  0  0  0
 16 17  1  0  0  0  0
 18 16  2  0  0  0  0
 19 20  1  0  0  0  0
 21 13  1  0  0  0  0
 23 25  1  0  0  0  0
 24 28  1  0  0  0  0
 24 27  2  0  0  0  0
 25 21  1  0  0  0  0
 26 25  2  0  0  0  0
 26 22  1  0  0  0  0
 27 26  1  0  0  0  0
 28 23  2  0  0  0  0
 29 27  1  0  0  0  0
 30 31  3  0  0  0  0
 31 29  1  0  0  0  0
M  END
>  <MODEL>
8

>  <REMARK>
 VINA RESULT:      -6.8      3.710      6.143
  Name = 
  6 active torsions:
  status: ('A' for Active; 'I' for Inactive)
    1  A    between atoms: C_5  and  C_10
    2  A    between atoms: C_7  and  O_11
    3  A    between atoms: C_10  and  C_26
    4  A    between atoms: C_13  and  N_16
    5  A    between atoms: N_15  and  C_27
    6  A    between atoms: N_15  and  C_30
                            x       y       z     vdW  Elec       q    Type
                         _______ _______ _______ _____ _____    ______ ____

>  <TORSDO>
F 6

$$$$
=
 OpenBabel11062421263D

 31 34  0  0  1  0  0  0  0  0999 V2000
  192.6460  176.6540  144.5280 C   0  0  2  0  0  3  0  0  0  0  0  0
  191.8570  176.5920  143.2160 C   0  0  1  0  0  3  0  0  0  0  0  0
  190.0140  176.3200  147.1760 N   0  0  0  0  0  0  0  0  0  0  0  0
  191.2060  176.3650  148.0090 C   0  0  0  0  0  2  0  0  0  0  0  0
  193.9080  175.7980  142.0160 C   0  0  1  0  0  3  0  0  0  0  0  0
  193.7380  175.5800  144.5050 C   0  0  0  0  0  2  0  0  0  0  0  0
  194.6860  175.8110  143.3320 C   0  0  0  0  0  2  0  0  0  0  0  0
  190.7580  177.6300  143.2050 C   0  0  0  0  0  2  0  0  0  0  0  0
  192.2920  176.5210  147.0080 C   0  0  0  0  0  0  0  0  0  0  0  0
  190.3400  176.4250  145.9270 C   0  0  0  0  0  0  0  0  0  0  0  0
  192.7890  176.8390  142.0320 C   0  0  0  0  0  2  0  0  0  0  0  0
  191.8010  176.5250  145.7780 C   0  0  0  0  0  0  0  0  0  0  0  0
  189.3020  176.4540  144.8660 C   0  0  0  0  0  0  0  0  0  0  0  0
  189.4900  176.9980  143.6600 C   0  0  0  0  0  3  0  0  0  0  0  0
  193.6390  176.6440  147.3270 O   0  0  0  0  0  1  0  0  0  0  0  0
  195.2640  174.9890  139.9970 C   0  0  0  0  0  0  0  0  0  0  0  0
  194.8030  176.0190  140.8840 N   0  0  0  0  0  2  0  0  0  0  0  0
  194.9010  173.7950  140.1640 O   0  0  0  0  0  0  0  0  0  0  0  0
  196.1190  175.2970  138.9390 O   0  0  0  0  0  0  0  0  0  0  0  0
  195.8750  174.8350  137.6200 C   0  0  0  0  0  1  0  0  0  0  0  0
  187.9390  175.9150  145.1700 C   0  0  0  0  0  2  0  0  0  0  0  0
  186.0280  176.1580  143.0930 F   0  0  0  0  0  0  0  0  0  0  0  0
  186.8910  177.9280  146.1360 N   0  0  0  0  0  0  0  0  0  0  0  0
  185.0610  179.0680  145.1140 C   0  0  0  0  0  3  0  0  0  0  0  0
  186.9130  177.0020  145.1400 C   0  0  0  0  0  0  0  0  0  0  0  0
  185.9940  177.0870  144.0830 C   0  0  0  0  0  0  0  0  0  0  0  0
  185.0520  178.1370  144.0720 C   0  0  0  0  0  0  0  0  0  0  0  0
  185.9930  178.9470  146.1450 C   0  0  0  0  0  3  0  0  0  0  0  0
  184.0780  178.3020  143.0320 N   0  0  0  0  0  2  0  0  0  0  0  0
  184.5870  178.2890  140.5230 N   0  0  0  0  0  0  0  0  0  0  0  0
  184.3580  178.2940  141.6580 C   0  0  0  0  0  0  0  0  0  0  0  0
  1  6  1  6  0  0  0
  1 12  1  0  0  0  0
  2 11  1  6  0  0  0
  2  1  1  0  0  0  0
  3  4  1  0  0  0  0
  5 17  1  6  0  0  0
  5 11  1  0  0  0  0
  5  7  1  0  0  0  0
  7  6  1  0  0  0  0
  8  2  1  0  0  0  0
  8 14  1  0  0  0  0
  9 15  1  0  0  0  0
  9  4  1  0  0  0  0
 10  3  2  0  0  0  0
 12 10  1  0  0  0  0
 12  9  2  0  0  0  0
 13 21  1  0  0  0  0
 13 10  1  0  0  0  0
 14 13  2  0  0  0  0
 16 18  2  0  0  0  0
 16 17  1  0  0  0  0
 19 16  1  0  0  0  0
 20 19  1  0  0  0  0
 22 26  1  0  0  0  0
 23 28  1  0  0  0  0
 24 28  2  0  0  0  0
 25 21  1  0  0  0  0
 25 23  2  0  0  0  0
 26 25  1  0  0  0  0
 27 26  2  0  0  0  0
 27 24  1  0  0  0  0
 29 27  1  0  0  0  0
 30 31  3  0  0  0  0
 31 29  1  0  0  0  0
M  END
>  <MODEL>
9

>  <REMARK>
 VINA RESULT:      -6.8      4.268      8.797
  Name = 
  6 active torsions:
  status: ('A' for Active; 'I' for Inactive)
    1  A    between atoms: C_5  and  C_10
    2  A    between atoms: C_7  and  O_11
    3  A    between atoms: C_10  and  C_26
    4  A    between atoms: C_13  and  N_16
    5  A    between atoms: N_15  and  C_27
    6  A    between atoms: N_15  and  C_30
                            x       y       z     vdW  Elec       q    Type
                         _______ _______ _______ _____ _____    ______ ____

>  <TORSDO>
F 6

$$$$
