=
 OpenBabel11062420353D

 32 35  0  0  0  0  0  0  0  0999 V2000
  189.5590  176.5540  146.9980 C   0  0  0  0  0  2  0  0  0  0  0  0
  191.8050  176.8520  144.1360 C   0  0  0  0  0  0  0  0  0  0  0  0
  185.6430  178.2050  143.8490 C   0  0  0  0  0  0  0  0  0  0  0  0
  188.1040  176.4980  147.3470 C   0  0  0  0  0  2  0  0  0  0  0  0
  187.7480  177.3960  144.9970 C   0  0  0  0  0  0  0  0  0  0  0  0
  185.4520  179.0290  146.1800 C   0  0  0  0  0  3  0  0  0  0  0  0
  187.2950  177.3490  146.4090 C   0  0  0  0  0  0  0  0  0  0  0  0
  186.2680  178.0510  146.9150 C   0  0  0  0  0  0  0  0  0  0  0  0
  185.9750  177.9240  148.2710 O   0  0  0  0  0  1  0  0  0  0  0  0
  186.7920  177.5300  143.8840 C   0  0  0  0  0  3  0  0  0  0  0  0
  191.3540  176.6950  145.4550 C   0  0  0  0  0  0  0  0  0  0  0  0
  189.5410  177.2790  143.4060 C   0  0  0  0  0  3  0  0  0  0  0  0
  185.2080  179.0670  144.9070 N   0  0  0  0  0  2  0  0  0  0  0  0
  190.8960  177.1290  143.1170 C   0  0  0  0  0  3  0  0  0  0  0  0
  192.2700  176.4040  146.4660 O   0  0  0  0  0  1  0  0  0  0  0  0
  189.0570  177.1470  144.7200 C   0  0  0  0  0  0  0  0  0  0  0  0
  189.9810  176.8070  145.7500 C   0  0  0  0  0  0  0  0  0  0  0  0
  183.3850  178.1940  140.1970 C   0  0  0  0  0  3  0  0  0  0  0  0
  185.5080  178.2370  141.3540 C   0  0  0  0  0  3  0  0  0  0  0  0
  182.7080  178.1560  141.4260 C   0  0  0  0  0  0  0  0  0  0  0  0
  184.7800  178.2360  140.1620 C   0  0  0  0  0  3  0  0  0  0  0  0
  184.8520  178.1970  142.5940 C   0  0  0  0  0  0  0  0  0  0  0  0
  183.4450  178.1580  142.6140 C   0  0  0  0  0  3  0  0  0  0  0  0
  181.3100  178.1160  141.4990 O   0  0  0  0  0  0  0  0  0  0  0  0
  180.4940  179.2310  141.8510 C   0  0  0  0  0  0  0  0  0  0  0  0
  180.6450  180.2200  140.8990 F   0  0  0  0  0  0  0  0  0  0  0  0
  179.1650  178.8500  141.8970 F   0  0  0  0  0  0  0  0  0  0  0  0
  180.8790  179.7310  143.0820 F   0  0  0  0  0  0  0  0  0  0  0  0
  193.2580  176.7330  143.8010 C   0  0  0  0  0  2  0  0  0  0  0  0
  193.9320  175.7590  141.7330 O   0  0  0  0  0  0  0  0  0  0  0  0
  193.1930  174.2530  143.3380 N   0  0  0  0  0  1  0  0  0  0  0  0
  193.4950  175.5720  142.8970 C   0  0  0  0  0  0  0  0  0  0  0  0
  1  4  1  0  0  0  0
  2 11  1  0  0  0  0
  3 10  2  0  0  0  0
  3 13  1  0  0  0  0
  5  7  2  0  0  0  0
  6  8  2  0  0  0  0
  7  8  1  0  0  0  0
  7  4  1  0  0  0  0
  8  9  1  0  0  0  0
 10  5  1  0  0  0  0
 11 17  2  0  0  0  0
 11 15  1  0  0  0  0
 12 16  2  0  0  0  0
 13  6  1  0  0  0  0
 14 12  1  0  0  0  0
 14  2  2  0  0  0  0
 16  5  1  0  0  0  0
 16 17  1  0  0  0  0
 17  1  1  0  0  0  0
 18 20  1  0  0  0  0
 19 22  2  0  0  0  0
 20 24  1  0  0  0  0
 20 23  2  0  0  0  0
 21 18  2  0  0  0  0
 21 19  1  0  0  0  0
 22 23  1  0  0  0  0
 22  3  1  0  0  0  0
 24 25  1  0  0  0  0
 25 27  1  0  0  0  0
 25 28  1  0  0  0  0
 26 25  1  0  0  0  0
 29  2  1  0  0  0  0
 30 32  2  0  0  0  0
 32 31  1  0  0  0  0
 32 29  1  0  0  0  0
M  END
>  <MODEL>
1

>  <REMARK>
 VINA RESULT:      -8.2      0.000      0.000
  Name = 
  5 active torsions:
  status: ('A' for Active; 'I' for Inactive)
    1  A    between atoms: C_2  and  C_3
    2  A    between atoms: C_2  and  C_32
    3  A    between atoms: C_4  and  C_18
    4  A    between atoms: C_9  and  O_31
    5  A    between atoms: C_15  and  O_31
                            x       y       z     vdW  Elec       q    Type
                         _______ _______ _______ _____ _____    ______ ____

>  <TORSDO>
F 5

$$$$
=
 OpenBabel11062420353D

 32 35  0  0  0  0  0  0  0  0999 V2000
  188.7510  175.7890  145.9610 C   0  0  0  0  0  2  0  0  0  0  0  0
  190.0130  174.8060  142.6800 C   0  0  0  0  0  0  0  0  0  0  0  0
  184.7570  178.2150  143.4820 C   0  0  0  0  0  0  0  0  0  0  0  0
  187.5220  176.3150  146.6370 C   0  0  0  0  0  2  0  0  0  0  0  0
  186.7650  176.8980  144.2830 C   0  0  0  0  0  0  0  0  0  0  0  0
  185.5340  179.4100  145.5120 C   0  0  0  0  0  3  0  0  0  0  0  0
  186.7650  177.2400  145.7270 C   0  0  0  0  0  0  0  0  0  0  0  0
  186.1980  178.3340  146.2620 C   0  0  0  0  0  0  0  0  0  0  0  0
  186.3020  178.5370  147.6360 O   0  0  0  0  0  1  0  0  0  0  0  0
  185.6050  177.1880  143.4210 C   0  0  0  0  0  3  0  0  0  0  0  0
  189.9540  175.0320  144.0640 C   0  0  0  0  0  0  0  0  0  0  0  0
  187.8740  175.8960  142.4050 C   0  0  0  0  0  3  0  0  0  0  0  0
  184.9420  179.3320  144.3610 N   0  0  0  0  0  2  0  0  0  0  0  0
  188.9680  175.2260  141.8600 C   0  0  0  0  0  3  0  0  0  0  0  0
  190.9990  174.5950  144.8780 O   0  0  0  0  0  1  0  0  0  0  0  0
  187.7910  176.1560  143.7850 C   0  0  0  0  0  0  0  0  0  0  0  0
  188.8340  175.6740  144.6270 C   0  0  0  0  0  0  0  0  0  0  0  0
  181.6140  178.4400  140.5660 C   0  0  0  0  0  3  0  0  0  0  0  0
  183.9010  177.9170  141.1540 C   0  0  0  0  0  3  0  0  0  0  0  0
  181.3540  178.8230  141.8910 C   0  0  0  0  0  0  0  0  0  0  0  0
  182.8830  177.9890  140.2000 C   0  0  0  0  0  3  0  0  0  0  0  0
  183.6620  178.2940  142.4840 C   0  0  0  0  0  0  0  0  0  0  0  0
  182.3790  178.7490  142.8390 C   0  0  0  0  0  3  0  0  0  0  0  0
  180.0940  179.2820  142.2940 O   0  0  0  0  0  0  0  0  0  0  0  0
  178.9090  178.4880  142.2740 C   0  0  0  0  0  0  0  0  0  0  0  0
  178.1350  178.8040  143.3740 F   0  0  0  0  0  0  0  0  0  0  0  0
  178.1830  178.7490  141.1250 F   0  0  0  0  0  0  0  0  0  0  0  0
  179.2360  177.1450  142.3250 F   0  0  0  0  0  0  0  0  0  0  0  0
  191.1920  174.1230  142.0630 C   0  0  0  0  0  2  0  0  0  0  0  0
  190.8950  172.7900  140.1090 O   0  0  0  0  0  0  0  0  0  0  0  0
  190.1850  171.8080  142.0900 N   0  0  0  0  0  1  0  0  0  0  0  0
  190.7670  172.8800  141.3570 C   0  0  0  0  0  0  0  0  0  0  0  0
  1  4  1  0  0  0  0
  2 11  1  0  0  0  0
  3 13  1  0  0  0  0
  5  7  2  0  0  0  0
  6  8  2  0  0  0  0
  7  8  1  0  0  0  0
  7  4  1  0  0  0  0
  8  9  1  0  0  0  0
 10  3  2  0  0  0  0
 10  5  1  0  0  0  0
 11 17  2  0  0  0  0
 11 15  1  0  0  0  0
 12 16  2  0  0  0  0
 13  6  1  0  0  0  0
 14 12  1  0  0  0  0
 14  2  2  0  0  0  0
 16  5  1  0  0  0  0
 16 17  1  0  0  0  0
 17  1  1  0  0  0  0
 18 20  1  0  0  0  0
 19 22  2  0  0  0  0
 20 24  1  0  0  0  0
 20 23  2  0  0  0  0
 21 18  2  0  0  0  0
 21 19  1  0  0  0  0
 22 23  1  0  0  0  0
 22  3  1  0  0  0  0
 25 24  1  0  0  0  0
 25 28  1  0  0  0  0
 25 26  1  0  0  0  0
 27 25  1  0  0  0  0
 29  2  1  0  0  0  0
 30 32  2  0  0  0  0
 32 29  1  0  0  0  0
 32 31  1  0  0  0  0
M  END
>  <MODEL>
2

>  <REMARK>
 VINA RESULT:      -7.9      2.047      2.322
  Name = 
  5 active torsions:
  status: ('A' for Active; 'I' for Inactive)
    1  A    between atoms: C_2  and  C_3
    2  A    between atoms: C_2  and  C_32
    3  A    between atoms: C_4  and  C_18
    4  A    between atoms: C_9  and  O_31
    5  A    between atoms: C_15  and  O_31
                            x       y       z     vdW  Elec       q    Type
                         _______ _______ _______ _____ _____    ______ ____

>  <TORSDO>
F 5

$$$$
=
 OpenBabel11062420353D

 32 35  0  0  0  0  0  0  0  0999 V2000
  194.1470  174.7420  145.7500 C   0  0  0  0  0  2  0  0  0  0  0  0
  195.4350  175.9220  142.5450 C   0  0  0  0  0  0  0  0  0  0  0  0
  189.5220  176.9810  144.4960 C   0  0  0  0  0  0  0  0  0  0  0  0
  192.8650  174.5180  146.4890 C   0  0  0  0  0  2  0  0  0  0  0  0
  191.8480  176.0020  144.6940 C   0  0  0  0  0  0  0  0  0  0  0  0
  190.0720  177.1300  146.9100 C   0  0  0  0  0  3  0  0  0  0  0  0
  191.8400  175.5490  146.1080 C   0  0  0  0  0  0  0  0  0  0  0  0
  191.0370  176.0330  147.0700 C   0  0  0  0  0  0  0  0  0  0  0  0
  191.1620  175.5270  148.3610 O   0  0  0  0  0  1  0  0  0  0  0  0
  190.6050  176.3830  144.0000 C   0  0  0  0  0  3  0  0  0  0  0  0
  195.3980  175.3890  143.8430 C   0  0  0  0  0  0  0  0  0  0  0  0
  193.0720  176.4140  142.6720 C   0  0  0  0  0  3  0  0  0  0  0  0
  189.4560  177.5000  145.8310 N   0  0  0  0  0  2  0  0  0  0  0  0
  194.2710  176.4190  141.9620 C   0  0  0  0  0  3  0  0  0  0  0  0
  196.5650  174.8820  144.4130 O   0  0  0  0  0  1  0  0  0  0  0  0
  193.0030  175.9050  143.9810 C   0  0  0  0  0  0  0  0  0  0  0  0
  194.1820  175.3460  144.5530 C   0  0  0  0  0  0  0  0  0  0  0  0
  186.2700  177.8410  141.8270 C   0  0  0  0  0  3  0  0  0  0  0  0
  188.6260  177.4530  142.2120 C   0  0  0  0  0  3  0  0  0  0  0  0
  186.0120  177.6680  143.1960 C   0  0  0  0  0  0  0  0  0  0  0  0
  187.5740  177.7340  141.3380 C   0  0  0  0  0  3  0  0  0  0  0  0
  188.3900  177.2740  143.5830 C   0  0  0  0  0  0  0  0  0  0  0  0
  187.0720  177.3870  144.0630 C   0  0  0  0  0  3  0  0  0  0  0  0
  184.7180  177.7690  143.7230 O   0  0  0  0  0  0  0  0  0  0  0  0
  184.1910  178.9460  144.3320 C   0  0  0  0  0  0  0  0  0  0  0  0
  182.9780  179.2530  143.7460 F   0  0  0  0  0  0  0  0  0  0  0  0
  183.9960  178.7330  145.6850 F   0  0  0  0  0  0  0  0  0  0  0  0
  185.0600  180.0060  144.1470 F   0  0  0  0  0  0  0  0  0  0  0  0
  196.7140  175.9740  141.7720 C   0  0  0  0  0  2  0  0  0  0  0  0
  196.8700  173.7110  141.0410 O   0  0  0  0  0  0  0  0  0  0  0  0
  196.6330  175.2810  139.3470 N   0  0  0  0  0  1  0  0  0  0  0  0
  196.7340  174.9190  140.7190 C   0  0  0  0  0  0  0  0  0  0  0  0
  1  4  1  0  0  0  0
  2 11  1  0  0  0  0
  3 13  1  0  0  0  0
  5  7  2  0  0  0  0
  6  8  2  0  0  0  0
  7  4  1  0  0  0  0
  7  8  1  0  0  0  0
  8  9  1  0  0  0  0
 10  3  2  0  0  0  0
 10  5  1  0  0  0  0
 11 15  1  0  0  0  0
 11 17  2  0  0  0  0
 12 16  2  0  0  0  0
 13  6  1  0  0  0  0
 14  2  2  0  0  0  0
 14 12  1  0  0  0  0
 16 17  1  0  0  0  0
 16  5  1  0  0  0  0
 17  1  1  0  0  0  0
 18 20  1  0  0  0  0
 19 22  2  0  0  0  0
 20 24  1  0  0  0  0
 20 23  2  0  0  0  0
 21 18  2  0  0  0  0
 21 19  1  0  0  0  0
 22 23  1  0  0  0  0
 22  3  1  0  0  0  0
 24 25  1  0  0  0  0
 25 27  1  0  0  0  0
 26 25  1  0  0  0  0
 28 25  1  0  0  0  0
 29  2  1  0  0  0  0
 31 32  1  0  0  0  0
 32 30  2  0  0  0  0
 32 29  1  0  0  0  0
M  END
>  <MODEL>
3

>  <REMARK>
 VINA RESULT:      -7.9      2.715      4.406
  Name = 
  5 active torsions:
  status: ('A' for Active; 'I' for Inactive)
    1  A    between atoms: C_2  and  C_3
    2  A    between atoms: C_2  and  C_32
    3  A    between atoms: C_4  and  C_18
    4  A    between atoms: C_9  and  O_31
    5  A    between atoms: C_15  and  O_31
                            x       y       z     vdW  Elec       q    Type
                         _______ _______ _______ _____ _____    ______ ____

>  <TORSDO>
F 5

$$$$
=
 OpenBabel11062420353D

 32 35  0  0  0  0  0  0  0  0999 V2000
  192.8060  172.7930  144.7690 C   0  0  0  0  0  2  0  0  0  0  0  0
  190.7790  170.9370  142.3660 C   0  0  0  0  0  0  0  0  0  0  0  0
  189.6440  176.9500  143.9300 C   0  0  0  0  0  0  0  0  0  0  0  0
  192.7900  174.0340  145.6060 C   0  0  0  0  0  2  0  0  0  0  0  0
  190.8730  174.7440  144.0970 C   0  0  0  0  0  0  0  0  0  0  0  0
  192.0170  177.5700  144.3040 C   0  0  0  0  0  3  0  0  0  0  0  0
  192.0500  175.1410  144.9100 C   0  0  0  0  0  0  0  0  0  0  0  0
  192.5300  176.3910  145.0160 C   0  0  0  0  0  0  0  0  0  0  0  0
  193.6620  176.6080  145.7970 O   0  0  0  0  0  1  0  0  0  0  0  0
  189.6950  175.6180  143.9670 C   0  0  0  0  0  2  0  0  0  0  0  0
  191.8330  171.2760  143.2280 C   0  0  0  0  0  0  0  0  0  0  0  0
  189.7670  173.1000  142.7430 C   0  0  0  0  0  3  0  0  0  0  0  0
  190.8140  177.7770  143.8670 N   0  0  0  0  0  0  0  0  0  0  0  0
  189.7450  171.8440  142.1390 C   0  0  0  0  0  3  0  0  0  0  0  0
  192.8560  170.3560  143.4600 O   0  0  0  0  0  1  0  0  0  0  0  0
  190.8180  173.4790  143.5970 C   0  0  0  0  0  0  0  0  0  0  0  0
  191.8430  172.5280  143.8720 C   0  0  0  0  0  0  0  0  0  0  0  0
  185.8280  178.8620  143.4630 C   0  0  0  0  0  3  0  0  0  0  0  0
  187.7980  177.8390  142.5010 C   0  0  0  0  0  3  0  0  0  0  0  0
  186.3360  178.6420  144.7530 C   0  0  0  0  0  0  0  0  0  0  0  0
  186.5580  178.4620  142.3420 C   0  0  0  0  0  3  0  0  0  0  0  0
  188.3230  177.6080  143.7820 C   0  0  0  0  0  0  0  0  0  0  0  0
  187.5790  178.0190  144.9030 C   0  0  0  0  0  3  0  0  0  0  0  0
  185.6340  179.0310  145.9000 O   0  0  0  0  0  0  0  0  0  0  0  0
  184.5000  178.3370  146.4190 C   0  0  0  0  0  0  0  0  0  0  0  0
  183.3590  178.8090  145.8000 F   0  0  0  0  0  0  0  0  0  0  0  0
  184.6190  176.9810  146.1700 F   0  0  0  0  0  0  0  0  0  0  0  0
  184.3940  178.5540  147.7810 F   0  0  0  0  0  0  0  0  0  0  0  0
  190.7470  169.6110  141.6750 C   0  0  0  0  0  2  0  0  0  0  0  0
  190.3260  169.6030  139.3290 O   0  0  0  0  0  0  0  0  0  0  0  0
  192.5280  170.0210  139.9340 N   0  0  0  0  0  1  0  0  0  0  0  0
  191.1680  169.7520  140.2520 C   0  0  0  0  0  0  0  0  0  0  0  0
  1  4  1  0  0  0  0
  2 11  1  0  0  0  0
  3 10  1  0  0  0  0
  5  7  2  0  0  0  0
  6  8  2  0  0  0  0
  7  8  1  0  0  0  0
  7  4  1  0  0  0  0
  8  9  1  0  0  0  0
 10  5  1  0  0  0  0
 11 15  1  0  0  0  0
 11 17  2  0  0  0  0
 12 16  2  0  0  0  0
 13  3  2  0  0  0  0
 13  6  1  0  0  0  0
 14  2  2  0  0  0  0
 14 12  1  0  0  0  0
 16 17  1  0  0  0  0
 16  5  1  0  0  0  0
 17  1  1  0  0  0  0
 18 20  1  0  0  0  0
 19 22  2  0  0  0  0
 20 23  2  0  0  0  0
 20 24  1  0  0  0  0
 21 19  1  0  0  0  0
 21 18  2  0  0  0  0
 22  3  1  0  0  0  0
 22 23  1  0  0  0  0
 24 25  1  0  0  0  0
 25 28  1  0  0  0  0
 26 25  1  0  0  0  0
 27 25  1  0  0  0  0
 29  2  1  0  0  0  0
 30 32  2  0  0  0  0
 31 32  1  0  0  0  0
 32 29  1  0  0  0  0
M  END
>  <MODEL>
4

>  <REMARK>
 VINA RESULT:      -7.8      3.902      5.669
  Name = 
  5 active torsions:
  status: ('A' for Active; 'I' for Inactive)
    1  A    between atoms: C_2  and  C_3
    2  A    between atoms: C_2  and  C_32
    3  A    between atoms: C_4  and  C_18
    4  A    between atoms: C_9  and  O_31
    5  A    between atoms: C_15  and  O_31
                            x       y       z     vdW  Elec       q    Type
                         _______ _______ _______ _____ _____    ______ ____

>  <TORSDO>
F 5

$$$$
=
 OpenBabel11062420353D

 32 35  0  0  0  0  0  0  0  0999 V2000
  191.2300  172.6440  143.0420 C   0  0  0  0  0  2  0  0  0  0  0  0
  188.8420  173.2280  140.3440 C   0  0  0  0  0  0  0  0  0  0  0  0
  188.9110  176.5940  145.6880 C   0  0  0  0  0  0  0  0  0  0  0  0
  191.4690  172.9570  144.4860 C   0  0  0  0  0  2  0  0  0  0  0  0
  189.6970  174.7460  144.1470 C   0  0  0  0  0  0  0  0  0  0  0  0
  191.3650  176.4790  146.0310 C   0  0  0  0  0  3  0  0  0  0  0  0
  190.9420  174.3210  144.8330 C   0  0  0  0  0  0  0  0  0  0  0  0
  191.6550  175.0810  145.6810 C   0  0  0  0  0  0  0  0  0  0  0  0
  192.8220  174.5550  146.2300 O   0  0  0  0  0  1  0  0  0  0  0  0
  188.7060  175.6100  144.8120 C   0  0  0  0  0  3  0  0  0  0  0  0
  189.9570  172.7440  141.0440 C   0  0  0  0  0  0  0  0  0  0  0  0
  188.2710  174.6430  142.2190 C   0  0  0  0  0  3  0  0  0  0  0  0
  190.2160  177.0800  146.0280 N   0  0  0  0  0  2  0  0  0  0  0  0
  187.9980  174.1640  140.9390 C   0  0  0  0  0  3  0  0  0  0  0  0
  190.7880  171.7970  140.4460 O   0  0  0  0  0  1  0  0  0  0  0  0
  189.3910  174.1930  142.9410 C   0  0  0  0  0  0  0  0  0  0  0  0
  190.2190  173.1940  142.3520 C   0  0  0  0  0  0  0  0  0  0  0  0
  185.5320  178.7350  147.2470 C   0  0  0  0  0  3  0  0  0  0  0  0
  187.7930  177.9120  147.4920 C   0  0  0  0  0  3  0  0  0  0  0  0
  185.4550  178.1630  145.9680 C   0  0  0  0  0  0  0  0  0  0  0  0
  186.6970  178.6090  148.0060 C   0  0  0  0  0  3  0  0  0  0  0  0
  187.7380  177.3340  146.2140 C   0  0  0  0  0  0  0  0  0  0  0  0
  186.5570  177.4670  145.4610 C   0  0  0  0  0  3  0  0  0  0  0  0
  184.3030  178.2680  145.1790 O   0  0  0  0  0  0  0  0  0  0  0  0
  184.2620  178.8990  143.9000 C   0  0  0  0  0  0  0  0  0  0  0  0
  182.9580  179.2490  143.6110 F   0  0  0  0  0  0  0  0  0  0  0  0
  185.0440  180.0410  143.9100 F   0  0  0  0  0  0  0  0  0  0  0  0
  184.7200  178.0290  142.9270 F   0  0  0  0  0  0  0  0  0  0  0  0
  188.5440  172.7600  138.9550 C   0  0  0  0  0  2  0  0  0  0  0  0
  190.2830  173.8000  137.7000 O   0  0  0  0  0  0  0  0  0  0  0  0
  188.1500  174.6270  137.3030 N   0  0  0  0  0  1  0  0  0  0  0  0
  189.0520  173.7390  137.9520 C   0  0  0  0  0  0  0  0  0  0  0  0
  1  4  1  0  0  0  0
  2 14  2  0  0  0  0
  2 11  1  0  0  0  0
  3 13  1  0  0  0  0
  3 22  1  0  0  0  0
  4  7  1  0  0  0  0
  5 10  1  0  0  0  0
  5  7  2  0  0  0  0
  7  8  1  0  0  0  0
  8  6  2  0  0  0  0
  8  9  1  0  0  0  0
 10  3  2  0  0  0  0
 11 17  2  0  0  0  0
 12 16  2  0  0  0  0
 13  6  1  0  0  0  0
 14 12  1  0  0  0  0
 15 11  1  0  0  0  0
 16  5  1  0  0  0  0
 17 16  1  0  0  0  0
 17  1  1  0  0  0  0
 18 21  1  0  0  0  0
 19 21  2  0  0  0  0
 20 18  2  0  0  0  0
 22 19  1  0  0  0  0
 23 20  1  0  0  0  0
 23 22  2  0  0  0  0
 24 20  1  0  0  0  0
 25 27  1  0  0  0  0
 25 24  1  0  0  0  0
 26 25  1  0  0  0  0
 28 25  1  0  0  0  0
 29  2  1  0  0  0  0
 30 32  2  0  0  0  0
 31 32  1  0  0  0  0
 32 29  1  0  0  0  0
M  END
>  <MODEL>
5

>  <REMARK>
 VINA RESULT:      -7.8      3.738      5.730
  Name = 
  5 active torsions:
  status: ('A' for Active; 'I' for Inactive)
    1  A    between atoms: C_2  and  C_3
    2  A    between atoms: C_2  and  C_32
    3  A    between atoms: C_4  and  C_18
    4  A    between atoms: C_9  and  O_31
    5  A    between atoms: C_15  and  O_31
                            x       y       z     vdW  Elec       q    Type
                         _______ _______ _______ _____ _____    ______ ____

>  <TORSDO>
F 5

$$$$
=
 OpenBabel11062420353D

 32 35  0  0  0  0  0  0  0  0999 V2000
  189.0210  175.6590  145.7970 C   0  0  0  0  0  2  0  0  0  0  0  0
  186.7060  178.2150  144.6000 C   0  0  0  0  0  0  0  0  0  0  0  0
  189.1380  173.7350  140.8710 C   0  0  0  0  0  0  0  0  0  0  0  0
  189.9980  174.6390  145.3050 C   0  0  0  0  0  2  0  0  0  0  0  0
  188.8630  174.9810  143.0580 C   0  0  0  0  0  0  0  0  0  0  0  0
  189.2580  171.9830  142.6220 C   0  0  0  0  0  3  0  0  0  0  0  0
  189.5510  174.0570  143.9930 C   0  0  0  0  0  0  0  0  0  0  0  0
  189.7430  172.7440  143.7820 C   0  0  0  0  0  0  0  0  0  0  0  0
  190.3850  171.9960  144.7650 O   0  0  0  0  0  1  0  0  0  0  0  0
  189.0040  174.8460  141.5970 C   0  0  0  0  0  2  0  0  0  0  0  0
  187.4510  177.4060  145.4710 C   0  0  0  0  0  0  0  0  0  0  0  0
  187.4800  176.9130  142.7170 C   0  0  0  0  0  3  0  0  0  0  0  0
  189.0180  172.4190  141.4250 N   0  0  0  0  0  0  0  0  0  0  0  0
  186.7350  177.9730  143.2280 C   0  0  0  0  0  3  0  0  0  0  0  0
  187.4270  177.6650  146.8420 O   0  0  0  0  0  1  0  0  0  0  0  0
  188.2240  176.0700  143.5640 C   0  0  0  0  0  0  0  0  0  0  0  0
  188.2370  176.3560  144.9600 C   0  0  0  0  0  0  0  0  0  0  0  0
  189.5080  174.0860  136.6080 C   0  0  0  0  0  3  0  0  0  0  0  0
  190.4170  173.4200  138.7480 C   0  0  0  0  0  3  0  0  0  0  0  0
  188.3360  174.5330  137.2370 C   0  0  0  0  0  0  0  0  0  0  0  0
  190.5450  173.5330  137.3620 C   0  0  0  0  0  3  0  0  0  0  0  0
  189.2530  173.8590  139.3970 C   0  0  0  0  0  0  0  0  0  0  0  0
  188.2170  174.4170  138.6260 C   0  0  0  0  0  3  0  0  0  0  0  0
  187.2770  175.0950  136.5140 O   0  0  0  0  0  0  0  0  0  0  0  0
  187.1590  176.4850  136.2160 C   0  0  0  0  0  0  0  0  0  0  0  0
  186.0730  176.6770  135.3830 F   0  0  0  0  0  0  0  0  0  0  0  0
  186.9650  177.2050  137.3810 F   0  0  0  0  0  0  0  0  0  0  0  0
  188.3010  176.9310  135.5750 F   0  0  0  0  0  0  0  0  0  0  0  0
  185.8670  179.3380  145.1230 C   0  0  0  0  0  2  0  0  0  0  0  0
  183.6350  179.1100  144.3200 O   0  0  0  0  0  0  0  0  0  0  0  0
  183.9970  178.3090  146.4690 N   0  0  0  0  0  1  0  0  0  0  0  0
  184.4460  178.9110  145.2610 C   0  0  0  0  0  0  0  0  0  0  0  0
  2 29  1  0  0  0  0
  2 11  1  0  0  0  0
  3 13  2  0  0  0  0
  3 10  1  0  0  0  0
  4  1  1  0  0  0  0
  5 16  1  0  0  0  0
  5  7  2  0  0  0  0
  6  8  2  0  0  0  0
  7  4  1  0  0  0  0
  8  7  1  0  0  0  0
  8  9  1  0  0  0  0
 10  5  1  0  0  0  0
 11 15  1  0  0  0  0
 12 14  1  0  0  0  0
 12 16  2  0  0  0  0
 13  6  1  0  0  0  0
 14  2  2  0  0  0  0
 16 17  1  0  0  0  0
 17 11  2  0  0  0  0
 17  1  1  0  0  0  0
 18 20  2  0  0  0  0
 18 21  1  0  0  0  0
 19 22  1  0  0  0  0
 20 23  1  0  0  0  0
 21 19  2  0  0  0  0
 22  3  1  0  0  0  0
 23 22  2  0  0  0  0
 24 20  1  0  0  0  0
 25 24  1  0  0  0  0
 25 27  1  0  0  0  0
 26 25  1  0  0  0  0
 28 25  1  0  0  0  0
 29 32  1  0  0  0  0
 30 32  2  0  0  0  0
 32 31  1  0  0  0  0
M  END
>  <MODEL>
6

>  <REMARK>
 VINA RESULT:      -7.7      4.776      7.163
  Name = 
  5 active torsions:
  status: ('A' for Active; 'I' for Inactive)
    1  A    between atoms: C_2  and  C_3
    2  A    between atoms: C_2  and  C_32
    3  A    between atoms: C_4  and  C_18
    4  A    between atoms: C_9  and  O_31
    5  A    between atoms: C_15  and  O_31
                            x       y       z     vdW  Elec       q    Type
                         _______ _______ _______ _____ _____    ______ ____

>  <TORSDO>
F 5

$$$$
=
 OpenBabel11062420353D

 32 35  0  0  0  0  0  0  0  0999 V2000
  192.6670  173.8000  141.0690 C   0  0  0  0  0  2  0  0  0  0  0  0
  194.1740  175.8580  143.6800 C   0  0  0  0  0  0  0  0  0  0  0  0
  187.9760  175.8040  142.4670 C   0  0  0  0  0  0  0  0  0  0  0  0
  191.4050  173.6450  140.2790 C   0  0  0  0  0  2  0  0  0  0  0  0
  190.3840  175.1370  142.0640 C   0  0  0  0  0  0  0  0  0  0  0  0
  187.8700  173.4230  141.7800 C   0  0  0  0  0  3  0  0  0  0  0  0
  190.2060  174.0190  141.1050 C   0  0  0  0  0  0  0  0  0  0  0  0
  189.0880  173.2870  140.9680 C   0  0  0  0  0  0  0  0  0  0  0  0
  189.0770  172.2490  140.0410 O   0  0  0  0  0  1  0  0  0  0  0  0
  189.2820  176.0610  142.3850 C   0  0  0  0  0  3  0  0  0  0  0  0
  194.0230  174.8770  142.6880 C   0  0  0  0  0  0  0  0  0  0  0  0
  191.8240  176.3970  143.5130 C   0  0  0  0  0  3  0  0  0  0  0  0
  187.4310  174.4810  142.3890 N   0  0  0  0  0  2  0  0  0  0  0  0
  193.0770  176.6210  144.0780 C   0  0  0  0  0  3  0  0  0  0  0  0
  195.1290  174.1280  142.2870 O   0  0  0  0  0  1  0  0  0  0  0  0
  191.6330  175.4090  142.5300 C   0  0  0  0  0  0  0  0  0  0  0  0
  192.7670  174.6700  142.0850 C   0  0  0  0  0  0  0  0  0  0  0  0
  185.3100  179.0220  143.4530 C   0  0  0  0  0  3  0  0  0  0  0  0
  186.3890  177.6180  141.8060 C   0  0  0  0  0  3  0  0  0  0  0  0
  185.9660  178.3310  144.4830 C   0  0  0  0  0  0  0  0  0  0  0  0
  185.5220  178.6670  142.1190 C   0  0  0  0  0  3  0  0  0  0  0  0
  187.0540  176.9120  142.8200 C   0  0  0  0  0  0  0  0  0  0  0  0
  186.8330  177.2820  144.1600 C   0  0  0  0  0  3  0  0  0  0  0  0
  185.7790  178.6600  145.8310 O   0  0  0  0  0  0  0  0  0  0  0  0
  184.6610  178.2390  146.6110 C   0  0  0  0  0  0  0  0  0  0  0  0
  183.5210  178.8550  146.1350 F   0  0  0  0  0  0  0  0  0  0  0  0
  184.5060  176.8670  146.5140 F   0  0  0  0  0  0  0  0  0  0  0  0
  184.8460  178.5960  147.9350 F   0  0  0  0  0  0  0  0  0  0  0  0
  195.4990  176.0960  144.3300 C   0  0  0  0  0  2  0  0  0  0  0  0
  194.9810  175.2900  146.5130 O   0  0  0  0  0  0  0  0  0  0  0  0
  196.7040  174.1710  145.4310 N   0  0  0  0  0  1  0  0  0  0  0  0
  195.6920  175.1700  145.4820 C   0  0  0  0  0  0  0  0  0  0  0  0
  1 17  1  0  0  0  0
  2 14  1  0  0  0  0
  2 29  1  0  0  0  0
  3 22  1  0  0  0  0
  4  1  1  0  0  0  0
  4  7  1  0  0  0  0
  5 10  1  0  0  0  0
  5 16  1  0  0  0  0
  6 13  1  0  0  0  0
  7  5  2  0  0  0  0
  8  7  1  0  0  0  0
  8  6  2  0  0  0  0
  9  8  1  0  0  0  0
 10  3  2  0  0  0  0
 11  2  2  0  0  0  0
 12 14  2  0  0  0  0
 13  3  1  0  0  0  0
 15 11  1  0  0  0  0
 16 12  1  0  0  0  0
 17 16  2  0  0  0  0
 17 11  1  0  0  0  0
 18 20  1  0  0  0  0
 19 21  1  0  0  0  0
 19 22  2  0  0  0  0
 20 24  1  0  0  0  0
 21 18  2  0  0  0  0
 22 23  1  0  0  0  0
 23 20  2  0  0  0  0
 24 25  1  0  0  0  0
 25 28  1  0  0  0  0
 26 25  1  0  0  0  0
 27 25  1  0  0  0  0
 29 32  1  0  0  0  0
 31 32  1  0  0  0  0
 32 30  2  0  0  0  0
M  END
>  <MODEL>
7

>  <REMARK>
 VINA RESULT:      -7.6      3.173      5.356
  Name = 
  5 active torsions:
  status: ('A' for Active; 'I' for Inactive)
    1  A    between atoms: C_2  and  C_3
    2  A    between atoms: C_2  and  C_32
    3  A    between atoms: C_4  and  C_18
    4  A    between atoms: C_9  and  O_31
    5  A    between atoms: C_15  and  O_31
                            x       y       z     vdW  Elec       q    Type
                         _______ _______ _______ _____ _____    ______ ____

>  <TORSDO>
F 5

$$$$
=
 OpenBabel11062420353D

 32 35  0  0  0  0  0  0  0  0999 V2000
  193.2000  172.6600  144.6920 C   0  0  0  0  0  2  0  0  0  0  0  0
  190.9470  170.8490  142.4620 C   0  0  0  0  0  0  0  0  0  0  0  0
  189.2910  176.1300  145.5040 C   0  0  0  0  0  0  0  0  0  0  0  0
  193.2000  173.7100  145.7590 C   0  0  0  0  0  2  0  0  0  0  0  0
  190.8650  174.2400  144.9090 C   0  0  0  0  0  0  0  0  0  0  0  0
  191.5430  177.1680  145.4600 C   0  0  0  0  0  3  0  0  0  0  0  0
  192.1320  174.7350  145.5030 C   0  0  0  0  0  0  0  0  0  0  0  0
  192.4110  176.0230  145.7670 C   0  0  0  0  0  0  0  0  0  0  0  0
  193.6560  176.3410  146.3020 O   0  0  0  0  0  1  0  0  0  0  0  0
  189.5670  174.8530  145.2400 C   0  0  0  0  0  3  0  0  0  0  0  0
  192.1200  171.2540  143.1170 C   0  0  0  0  0  0  0  0  0  0  0  0
  189.7290  172.6510  143.5150 C   0  0  0  0  0  3  0  0  0  0  0  0
  190.2500  177.1850  145.3600 N   0  0  0  0  0  2  0  0  0  0  0  0
  189.7560  171.5410  142.6740 C   0  0  0  0  0  3  0  0  0  0  0  0
  193.3050  170.5480  142.9090 O   0  0  0  0  0  1  0  0  0  0  0  0
  190.8900  173.0960  144.1730 C   0  0  0  0  0  0  0  0  0  0  0  0
  192.0930  172.3530  143.9980 C   0  0  0  0  0  0  0  0  0  0  0  0
  185.2320  177.2060  146.4020 C   0  0  0  0  0  3  0  0  0  0  0  0
  187.4290  176.5040  147.1290 C   0  0  0  0  0  3  0  0  0  0  0  0
  185.6690  177.2150  145.0680 C   0  0  0  0  0  0  0  0  0  0  0  0
  186.1100  176.8510  147.4280 C   0  0  0  0  0  3  0  0  0  0  0  0
  187.8870  176.5070  145.8020 C   0  0  0  0  0  0  0  0  0  0  0  0
  186.9910  176.8650  144.7780 C   0  0  0  0  0  3  0  0  0  0  0  0
  184.8160  177.5630  144.0130 O   0  0  0  0  0  0  0  0  0  0  0  0
  184.6210  178.8980  143.5490 C   0  0  0  0  0  0  0  0  0  0  0  0
  183.3470  179.3120  143.8860 F   0  0  0  0  0  0  0  0  0  0  0  0
  185.5410  179.7460  144.1420 F   0  0  0  0  0  0  0  0  0  0  0  0
  184.7600  178.9470  142.1740 F   0  0  0  0  0  0  0  0  0  0  0  0
  190.9540  169.6830  141.5250 C   0  0  0  0  0  2  0  0  0  0  0  0
  191.6470  171.2140  139.8340 O   0  0  0  0  0  0  0  0  0  0  0  0
  190.4060  169.4030  139.0770 N   0  0  0  0  0  1  0  0  0  0  0  0
  191.0400  170.1470  140.1110 C   0  0  0  0  0  0  0  0  0  0  0  0
  1  4  1  0  0  0  0
  2 14  2  0  0  0  0
  2 11  1  0  0  0  0
  3 22  1  0  0  0  0
  5 10  1  0  0  0  0
  5  7  2  0  0  0  0
  6  8  2  0  0  0  0
  7  4  1  0  0  0  0
  7  8  1  0  0  0  0
  8  9  1  0  0  0  0
 10  3  2  0  0  0  0
 11 17  2  0  0  0  0
 12 16  2  0  0  0  0
 13  6  1  0  0  0  0
 13  3  1  0  0  0  0
 14 12  1  0  0  0  0
 15 11  1  0  0  0  0
 16  5  1  0  0  0  0
 17 16  1  0  0  0  0
 17  1  1  0  0  0  0
 18 21  1  0  0  0  0
 19 21  2  0  0  0  0
 20 18  2  0  0  0  0
 22 19  1  0  0  0  0
 23 20  1  0  0  0  0
 23 22  2  0  0  0  0
 24 20  1  0  0  0  0
 25 26  1  0  0  0  0
 25 24  1  0  0  0  0
 25 27  1  0  0  0  0
 28 25  1  0  0  0  0
 29  2  1  0  0  0  0
 30 32  2  0  0  0  0
 31 32  1  0  0  0  0
 32 29  1  0  0  0  0
M  END
>  <MODEL>
8

>  <REMARK>
 VINA RESULT:      -7.6      3.809      5.773
  Name = 
  5 active torsions:
  status: ('A' for Active; 'I' for Inactive)
    1  A    between atoms: C_2  and  C_3
    2  A    between atoms: C_2  and  C_32
    3  A    between atoms: C_4  and  C_18
    4  A    between atoms: C_9  and  O_31
    5  A    between atoms: C_15  and  O_31
                            x       y       z     vdW  Elec       q    Type
                         _______ _______ _______ _____ _____    ______ ____

>  <TORSDO>
F 5

$$$$
=
 OpenBabel11062420353D

 32 35  0  0  0  0  0  0  0  0999 V2000
  187.0660  175.0870  142.3740 C   0  0  0  0  0  2  0  0  0  0  0  0
  186.9130  177.9680  144.6110 C   0  0  0  0  0  0  0  0  0  0  0  0
  192.2290  174.7520  143.4740 C   0  0  0  0  0  0  0  0  0  0  0  0
  187.9400  173.9260  142.0130 C   0  0  0  0  0  2  0  0  0  0  0  0
  189.7480  175.2060  143.2580 C   0  0  0  0  0  0  0  0  0  0  0  0
  191.6760  174.1640  141.1280 C   0  0  0  0  0  3  0  0  0  0  0  0
  189.3930  174.2870  142.1480 C   0  0  0  0  0  0  0  0  0  0  0  0
  190.2520  173.8130  141.2310 C   0  0  0  0  0  0  0  0  0  0  0  0
  189.7670  172.9780  140.2280 O   0  0  0  0  0  1  0  0  0  0  0  0
  191.0390  175.1010  143.9620 C   0  0  0  0  0  2  0  0  0  0  0  0
  186.5460  177.0220  143.6410 C   0  0  0  0  0  0  0  0  0  0  0  0
  189.1260  177.0020  144.7230 C   0  0  0  0  0  3  0  0  0  0  0  0
  192.4730  174.5480  142.0760 N   0  0  0  0  0  0  0  0  0  0  0  0
  188.1960  177.9440  145.1560 C   0  0  0  0  0  3  0  0  0  0  0  0
  185.2560  177.0450  143.1110 O   0  0  0  0  0  1  0  0  0  0  0  0
  188.7970  176.0520  143.7390 C   0  0  0  0  0  0  0  0  0  0  0  0
  187.4680  176.0420  143.2250 C   0  0  0  0  0  0  0  0  0  0  0  0
  195.5960  174.7290  146.1380 C   0  0  0  0  0  3  0  0  0  0  0  0
  193.4850  175.6720  145.4280 C   0  0  0  0  0  3  0  0  0  0  0  0
  195.5280  173.7810  145.1050 C   0  0  0  0  0  0  0  0  0  0  0  0
  194.5780  175.6710  146.2980 C   0  0  0  0  0  3  0  0  0  0  0  0
  193.3960  174.7310  144.3900 C   0  0  0  0  0  0  0  0  0  0  0  0
  194.4300  173.7890  144.2390 C   0  0  0  0  0  3  0  0  0  0  0  0
  196.5300  172.8220  144.9140 O   0  0  0  0  0  0  0  0  0  0  0  0
  196.3840  171.4380  145.2240 C   0  0  0  0  0  0  0  0  0  0  0  0
  196.0800  170.7460  144.0670 F   0  0  0  0  0  0  0  0  0  0  0  0
  197.5660  170.9420  145.7470 F   0  0  0  0  0  0  0  0  0  0  0  0
  195.3600  171.2610  146.1360 F   0  0  0  0  0  0  0  0  0  0  0  0
  185.9480  179.0140  145.0680 C   0  0  0  0  0  2  0  0  0  0  0  0
  185.7480  179.2800  147.4280 O   0  0  0  0  0  0  0  0  0  0  0  0
  184.4460  177.5900  146.5120 N   0  0  0  0  0  1  0  0  0  0  0  0
  185.3790  178.6570  146.3990 C   0  0  0  0  0  0  0  0  0  0  0  0
  1 17  1  0  0  0  0
  2 29  1  0  0  0  0
  2 14  1  0  0  0  0
  3 10  1  0  0  0  0
  3 22  1  0  0  0  0
  4  7  1  0  0  0  0
  4  1  1  0  0  0  0
  5 16  1  0  0  0  0
  5 10  1  0  0  0  0
  6  8  2  0  0  0  0
  6 13  1  0  0  0  0
  7  5  2  0  0  0  0
  8  7  1  0  0  0  0
  9  8  1  0  0  0  0
 11  2  2  0  0  0  0
 12 14  2  0  0  0  0
 13  3  2  0  0  0  0
 15 11  1  0  0  0  0
 16 12  1  0  0  0  0
 17 11  1  0  0  0  0
 17 16  2  0  0  0  0
 18 21  1  0  0  0  0
 19 21  2  0  0  0  0
 20 18  2  0  0  0  0
 22 19  1  0  0  0  0
 23 22  2  0  0  0  0
 23 20  1  0  0  0  0
 24 20  1  0  0  0  0
 24 25  1  0  0  0  0
 25 27  1  0  0  0  0
 25 28  1  0  0  0  0
 26 25  1  0  0  0  0
 29 32  1  0  0  0  0
 32 31  1  0  0  0  0
 32 30  2  0  0  0  0
M  END
>  <MODEL>
9

>  <REMARK>
 VINA RESULT:      -7.5      6.151     10.486
  Name = 
  5 active torsions:
  status: ('A' for Active; 'I' for Inactive)
    1  A    between atoms: C_2  and  C_3
    2  A    between atoms: C_2  and  C_32
    3  A    between atoms: C_4  and  C_18
    4  A    between atoms: C_9  and  O_31
    5  A    between atoms: C_15  and  O_31
                            x       y       z     vdW  Elec       q    Type
                         _______ _______ _______ _____ _____    ______ ____

>  <TORSDO>
F 5

$$$$
