=
 OpenBabel11072408513D

 26 28  0  0  1  0  0  0  0  0999 V2000
  189.0820  172.7670  143.2330 C   0  0  0  0  0  3  0  0  0  0  0  0
  190.0510  172.2130  141.0670 N   0  0  0  0  0  2  0  0  0  0  0  0
  189.4220  174.2340  143.1030 C   0  0  1  0  0  3  0  0  0  0  0  0
  189.8070  173.4300  140.3550 C   0  0  0  0  0  0  0  0  0  0  0  0
  188.6810  174.9980  141.9830 C   0  0  1  0  0  3  0  0  0  0  0  0
  189.4150  171.8650  142.3050 C   0  0  0  0  0  3  0  0  0  0  0  0
  190.5960  173.7910  139.4450 O   0  0  0  0  0  0  0  0  0  0  0  0
  188.5900  174.2510  140.6490 C   0  0  0  0  0  2  0  0  0  0  0  0
  190.7470  176.8030  145.5220 C   0  0  0  0  0  2  0  0  0  0  0  0
  189.4500  174.9760  144.3730 N   0  0  1  0  0  0  0  0  0  0  0  0
  188.6250  175.9800  146.7490 C   0  0  0  0  0  2  0  0  0  0  0  0
  189.3160  174.6130  146.8340 C   0  0  0  0  0  2  0  0  0  0  0  0
  189.8960  174.1320  145.4930 C   0  0  0  0  0  2  0  0  0  0  0  0
  190.0670  177.6700  147.6380 O   0  0  0  0  0  1  0  0  0  0  0  0
  190.3330  176.1400  144.2000 C   0  0  0  0  0  2  0  0  0  0  0  0
  189.5730  177.1500  146.4430 C   0  0  1  0  0  3  0  0  0  0  0  0
  187.3070  175.5140  142.4020 C   0  0  0  0  0  2  0  0  0  0  0  0
  185.7350  178.4500  140.8360 O   0  0  0  0  0  0  0  0  0  0  0  0
  186.8040  176.4960  141.4500 N   0  0  0  0  0  2  0  0  0  0  0  0
  186.1030  177.7040  141.7820 C   0  0  0  0  0  0  0  0  0  0  0  0
  185.0580  178.8490  145.7930 C   0  0  0  0  0  3  0  0  0  0  0  0
  184.0660  178.6660  144.8260 C   0  0  0  0  0  3  0  0  0  0  0  0
  184.4190  178.2950  143.5260 C   0  0  0  0  0  3  0  0  0  0  0  0
  186.7500  178.2910  144.1560 C   0  0  0  0  0  3  0  0  0  0  0  0
  186.4010  178.6620  145.4570 C   0  0  0  0  0  3  0  0  0  0  0  0
  185.7650  178.1000  143.1750 C   0  0  0  0  0  0  0  0  0  0  0  0
  2  6  1  0  0  0  0
  3  1  1  1  0  0  0
  3 10  1  0  0  0  0
  4  8  1  0  0  0  0
  4  2  1  0  0  0  0
  5 17  1  1  0  0  0
  5  3  1  0  0  0  0
  6  1  2  0  0  0  0
  7  4  2  0  0  0  0
  8  5  1  0  0  0  0
  9 16  1  0  0  0  0
 10 15  1  6  0  0  0
 10 13  1  0  0  0  0
 11 12  1  0  0  0  0
 13 12  1  0  0  0  0
 15  9  1  0  0  0  0
 16 11  1  0  0  0  0
 16 14  1  1  0  0  0
 18 20  2  0  0  0  0
 19 20  1  0  0  0  0
 19 17  1  0  0  0  0
 20 26  1  0  0  0  0
 22 21  2  0  0  0  0
 23 22  1  0  0  0  0
 24 25  2  0  0  0  0
 25 21  1  0  0  0  0
 26 23  2  0  0  0  0
 26 24  1  0  0  0  0
M  END
>  <MODEL>
1

>  <REMARK>
 VINA RESULT:      -7.4      0.000      0.000
  Name = 
  4 active torsions:
  status: ('A' for Active; 'I' for Inactive)
    1  A    between atoms: C_2  and  C_13
    2  A    between atoms: C_2  and  N_16
    3  A    between atoms: C_5  and  N_6
    4  A    between atoms: C_24  and  C_25
                            x       y       z     vdW  Elec       q    Type
                         _______ _______ _______ _____ _____    ______ ____

>  <TORSDO>
F 4

$$$$
=
 OpenBabel11072408513D

 26 28  0  0  1  0  0  0  0  0999 V2000
  189.3580  174.9570  143.5050 C   0  0  0  0  0  3  0  0  0  0  0  0
  187.8450  175.7100  141.7510 N   0  0  0  0  0  2  0  0  0  0  0  0
  190.2580  176.1630  143.3620 C   0  0  1  0  0  3  0  0  0  0  0  0
  187.9620  177.1290  141.8990 C   0  0  0  0  0  0  0  0  0  0  0  0
  189.6290  177.5190  143.7540 C   0  0  1  0  0  3  0  0  0  0  0  0
  188.2880  174.7600  142.7310 C   0  0  0  0  0  3  0  0  0  0  0  0
  187.8190  177.8760  140.8980 O   0  0  0  0  0  0  0  0  0  0  0  0
  188.2000  177.7340  143.2470 C   0  0  0  0  0  2  0  0  0  0  0  0
  194.0130  175.9310  143.1410 C   0  0  0  0  0  2  0  0  0  0  0  0
  191.6140  175.9900  143.9040 N   0  0  1  0  0  0  0  0  0  0  0  0
  193.6390  175.8730  145.6990 C   0  0  0  0  0  2  0  0  0  0  0  0
  192.9070  174.5450  145.4680 C   0  0  0  0  0  2  0  0  0  0  0  0
  191.8570  174.6070  144.3470 C   0  0  0  0  0  2  0  0  0  0  0  0
  195.8120  175.7810  144.7010 O   0  0  0  0  0  1  0  0  0  0  0  0
  192.5740  176.3910  142.8640 C   0  0  0  0  0  2  0  0  0  0  0  0
  194.5350  176.3120  144.5310 C   0  0  1  0  0  3  0  0  0  0  0  0
  189.7180  177.8250  145.2480 C   0  0  0  0  0  2  0  0  0  0  0  0
  188.3200  175.1590  147.3650 O   0  0  0  0  0  0  0  0  0  0  0  0
  189.5280  176.6180  146.0410 N   0  0  0  0  0  2  0  0  0  0  0  0
  188.3200  176.2420  146.7190 C   0  0  0  0  0  0  0  0  0  0  0  0
  184.7300  178.6080  146.6870 C   0  0  0  0  0  3  0  0  0  0  0  0
  184.8500  177.4900  145.8580 C   0  0  0  0  0  3  0  0  0  0  0  0
  186.0220  176.7290  145.8770 C   0  0  0  0  0  3  0  0  0  0  0  0
  186.9540  178.2030  147.5470 C   0  0  0  0  0  3  0  0  0  0  0  0
  185.7830  178.9650  147.5310 C   0  0  0  0  0  3  0  0  0  0  0  0
  187.0880  177.0740  146.7240 C   0  0  0  0  0  0  0  0  0  0  0  0
  2  4  1  0  0  0  0
  2  6  1  0  0  0  0
  3  1  1  1  0  0  0
  3  5  1  0  0  0  0
  3 10  1  0  0  0  0
  4  8  1  0  0  0  0
  5 17  1  1  0  0  0
  6  1  2  0  0  0  0
  7  4  2  0  0  0  0
  8  5  1  0  0  0  0
  9 16  1  0  0  0  0
 10 15  1  6  0  0  0
 10 13  1  0  0  0  0
 12 11  1  0  0  0  0
 13 12  1  0  0  0  0
 15  9  1  0  0  0  0
 16 14  1  1  0  0  0
 16 11  1  0  0  0  0
 17 19  1  0  0  0  0
 19 20  1  0  0  0  0
 20 26  1  0  0  0  0
 20 18  2  0  0  0  0
 21 25  1  0  0  0  0
 22 23  1  0  0  0  0
 22 21  2  0  0  0  0
 23 26  2  0  0  0  0
 25 24  2  0  0  0  0
 26 24  1  0  0  0  0
M  END
>  <MODEL>
2

>  <REMARK>
 VINA RESULT:      -7.3      2.520      4.153
  Name = 
  4 active torsions:
  status: ('A' for Active; 'I' for Inactive)
    1  A    between atoms: C_2  and  C_13
    2  A    between atoms: C_2  and  N_16
    3  A    between atoms: C_5  and  N_6
    4  A    between atoms: C_24  and  C_25
                            x       y       z     vdW  Elec       q    Type
                         _______ _______ _______ _____ _____    ______ ____

>  <TORSDO>
F 4

$$$$
=
 OpenBabel11072408513D

 26 28  0  0  1  0  0  0  0  0999 V2000
  188.6330  175.3520  145.8320 C   0  0  0  0  0  3  0  0  0  0  0  0
  190.2610  175.1930  147.6380 N   0  0  0  0  0  2  0  0  0  0  0  0
  188.6320  176.8630  145.8540 C   0  0  1  0  0  3  0  0  0  0  0  0
  191.0190  176.3850  147.4080 C   0  0  0  0  0  0  0  0  0  0  0  0
  189.9550  177.5410  145.4320 C   0  0  1  0  0  3  0  0  0  0  0  0
  189.3570  174.6190  146.6830 C   0  0  0  0  0  3  0  0  0  0  0  0
  191.5610  176.9780  148.3750 O   0  0  0  0  0  0  0  0  0  0  0  0
  191.2170  176.9030  146.0170 C   0  0  0  0  0  2  0  0  0  0  0  0
  185.1270  178.2500  145.8320 C   0  0  0  0  0  2  0  0  0  0  0  0
  187.4520  177.4880  145.2360 N   0  0  1  0  0  0  0  0  0  0  0  0
  185.9400  178.8560  143.4540 C   0  0  0  0  0  2  0  0  0  0  0  0
  186.0260  177.3460  143.1990 C   0  0  0  0  0  2  0  0  0  0  0  0
  186.7730  176.5770  144.3000 C   0  0  0  0  0  2  0  0  0  0  0  0
  183.7590  179.4160  144.2630 O   0  0  0  0  0  1  0  0  0  0  0  0
  186.5460  177.9140  146.3140 C   0  0  0  0  0  2  0  0  0  0  0  0
  185.0820  179.2450  144.6670 C   0  0  1  0  0  3  0  0  0  0  0  0
  190.0950  177.7180  143.9220 C   0  0  0  0  0  2  0  0  0  0  0  0
  192.6340  175.5060  142.4380 O   0  0  0  0  0  0  0  0  0  0  0  0
  191.3410  177.1380  143.4400 N   0  0  0  0  0  2  0  0  0  0  0  0
  191.4790  175.8620  142.7980 C   0  0  0  0  0  0  0  0  0  0  0  0
  188.2210  173.1290  142.1620 C   0  0  0  0  0  3  0  0  0  0  0  0
  189.3160  172.7570  142.9460 C   0  0  0  0  0  3  0  0  0  0  0  0
  190.3700  173.6540  143.1440 C   0  0  0  0  0  3  0  0  0  0  0  0
  189.2370  175.2900  141.7760 C   0  0  0  0  0  3  0  0  0  0  0  0
  188.1820  174.3960  141.5760 C   0  0  0  0  0  3  0  0  0  0  0  0
  190.3420  174.9330  142.5640 C   0  0  0  0  0  0  0  0  0  0  0  0
  1  6  2  0  0  0  0
  3  1  1  6  0  0  0
  4  2  1  0  0  0  0
  4  7  2  0  0  0  0
  5 17  1  6  0  0  0
  5  3  1  0  0  0  0
  5  8  1  0  0  0  0
  6  2  1  0  0  0  0
  8  4  1  0  0  0  0
  9 15  1  0  0  0  0
 10 13  1  6  0  0  0
 10  3  1  0  0  0  0
 10 15  1  0  0  0  0
 11 16  1  0  0  0  0
 12 11  1  0  0  0  0
 12 13  1  0  0  0  0
 16 14  1  6  0  0  0
 16  9  1  0  0  0  0
 18 20  2  0  0  0  0
 19 17  1  0  0  0  0
 20 19  1  0  0  0  0
 21 22  1  0  0  0  0
 22 23  2  0  0  0  0
 24 26  2  0  0  0  0
 25 24  1  0  0  0  0
 25 21  2  0  0  0  0
 26 20  1  0  0  0  0
 26 23  1  0  0  0  0
M  END
>  <MODEL>
3

>  <REMARK>
 VINA RESULT:      -7.3      2.164      6.027
  Name = 
  4 active torsions:
  status: ('A' for Active; 'I' for Inactive)
    1  A    between atoms: C_2  and  C_13
    2  A    between atoms: C_2  and  N_16
    3  A    between atoms: C_5  and  N_6
    4  A    between atoms: C_24  and  C_25
                            x       y       z     vdW  Elec       q    Type
                         _______ _______ _______ _____ _____    ______ ____

>  <TORSDO>
F 4

$$$$
=
 OpenBabel11072408513D

 26 28  0  0  1  0  0  0  0  0999 V2000
  189.6070  172.6690  143.6970 C   0  0  0  0  0  3  0  0  0  0  0  0
  190.4160  172.1270  141.4640 N   0  0  0  0  0  2  0  0  0  0  0  0
  189.9520  174.1340  143.5580 C   0  0  1  0  0  3  0  0  0  0  0  0
  190.1350  173.3540  140.7820 C   0  0  0  0  0  0  0  0  0  0  0  0
  189.1420  174.9150  142.4990 C   0  0  1  0  0  3  0  0  0  0  0  0
  189.8660  171.7730  142.7410 C   0  0  0  0  0  3  0  0  0  0  0  0
  190.8620  173.7160  139.8220 O   0  0  0  0  0  0  0  0  0  0  0  0
  188.9500  174.1830  141.1680 C   0  0  0  0  0  2  0  0  0  0  0  0
  191.8410  175.7260  146.4050 C   0  0  0  0  0  2  0  0  0  0  0  0
  190.0760  174.8630  144.8290 N   0  0  1  0  0  0  0  0  0  0  0  0
  189.4090  176.4210  146.9410 C   0  0  0  0  0  2  0  0  0  0  0  0
  189.1210  174.9260  147.1290 C   0  0  0  0  0  2  0  0  0  0  0  0
  189.6350  174.0510  145.9740 C   0  0  0  0  0  2  0  0  0  0  0  0
  191.2730  177.0610  148.2990 O   0  0  0  0  0  1  0  0  0  0  0  0
  191.4790  175.2780  144.9800 C   0  0  0  0  0  2  0  0  0  0  0  0
  190.9000  176.7880  146.9840 C   0  0  1  0  0  3  0  0  0  0  0  0
  187.8060  175.4400  143.0180 C   0  0  0  0  0  2  0  0  0  0  0  0
  186.3480  178.6640  142.0070 O   0  0  0  0  0  0  0  0  0  0  0  0
  187.3750  176.6110  142.2660 N   0  0  0  0  0  2  0  0  0  0  0  0
  186.6430  177.7260  142.7960 C   0  0  0  0  0  0  0  0  0  0  0  0
  185.3380  178.0520  146.8800 C   0  0  0  0  0  3  0  0  0  0  0  0
  185.5150  179.1960  146.0980 C   0  0  0  0  0  3  0  0  0  0  0  0
  185.9410  179.0780  144.7720 C   0  0  0  0  0  3  0  0  0  0  0  0
  186.0150  176.6760  145.0090 C   0  0  0  0  0  3  0  0  0  0  0  0
  185.5890  176.7910  146.3350 C   0  0  0  0  0  3  0  0  0  0  0  0
  186.1930  177.8160  144.2100 C   0  0  0  0  0  0  0  0  0  0  0  0
  2  6  1  0  0  0  0
  3  1  1  1  0  0  0
  3 10  1  0  0  0  0
  4  8  1  0  0  0  0
  4  2  1  0  0  0  0
  5 17  1  1  0  0  0
  5  3  1  0  0  0  0
  6  1  2  0  0  0  0
  7  4  2  0  0  0  0
  8  5  1  0  0  0  0
  9 16  1  0  0  0  0
 10 15  1  1  0  0  0
 10 13  1  0  0  0  0
 11 16  1  0  0  0  0
 11 12  1  0  0  0  0
 13 12  1  0  0  0  0
 15  9  1  0  0  0  0
 16 14  1  1  0  0  0
 18 20  2  0  0  0  0
 19 20  1  0  0  0  0
 19 17  1  0  0  0  0
 20 26  1  0  0  0  0
 22 21  2  0  0  0  0
 23 22  1  0  0  0  0
 24 25  2  0  0  0  0
 25 21  1  0  0  0  0
 26 23  2  0  0  0  0
 26 24  1  0  0  0  0
M  END
>  <MODEL>
4

>  <REMARK>
 VINA RESULT:      -7.2      1.112      1.250
  Name = 
  4 active torsions:
  status: ('A' for Active; 'I' for Inactive)
    1  A    between atoms: C_2  and  C_13
    2  A    between atoms: C_2  and  N_16
    3  A    between atoms: C_5  and  N_6
    4  A    between atoms: C_24  and  C_25
                            x       y       z     vdW  Elec       q    Type
                         _______ _______ _______ _____ _____    ______ ____

>  <TORSDO>
F 4

$$$$
=
 OpenBabel11072408513D

 26 28  0  0  1  0  0  0  0  0999 V2000
  185.1760  177.0210  145.6170 C   0  0  0  0  0  3  0  0  0  0  0  0
  184.8180  178.5650  147.4670 N   0  0  0  0  0  2  0  0  0  0  0  0
  186.2420  177.8890  144.9890 C   0  0  1  0  0  3  0  0  0  0  0  0
  186.1310  179.1170  147.6010 C   0  0  0  0  0  0  0  0  0  0  0  0
  187.5450  178.0460  145.8050 C   0  0  1  0  0  3  0  0  0  0  0  0
  184.5190  177.3740  146.7250 C   0  0  0  0  0  3  0  0  0  0  0  0
  186.2740  180.2950  148.0160 O   0  0  0  0  0  0  0  0  0  0  0  0
  187.3390  178.2840  147.3030 C   0  0  0  0  0  2  0  0  0  0  0  0
  185.5340  178.1520  141.2960 C   0  0  0  0  0  2  0  0  0  0  0  0
  186.4930  177.6240  143.5640 N   0  0  1  0  0  0  0  0  0  0  0  0
  187.8030  176.9120  141.3030 C   0  0  0  0  0  2  0  0  0  0  0  0
  187.0690  175.7650  142.0090 C   0  0  0  0  0  2  0  0  0  0  0  0
  186.2230  176.2220  143.2090 C   0  0  0  0  0  2  0  0  0  0  0  0
  186.6460  177.4930  139.2910 O   0  0  0  0  0  1  0  0  0  0  0  0
  185.6570  178.5430  142.7770 C   0  0  0  0  0  2  0  0  0  0  0  0
  186.8780  177.9160  140.5980 C   0  0  1  0  0  3  0  0  0  0  0  0
  188.5490  176.9190  145.5750 C   0  0  0  0  0  2  0  0  0  0  0  0
  189.0360  174.1660  147.9670 O   0  0  0  0  0  0  0  0  0  0  0  0
  188.3460  175.8350  146.5270 N   0  0  0  0  0  2  0  0  0  0  0  0
  189.3820  175.0730  147.1630 C   0  0  0  0  0  0  0  0  0  0  0  0
  193.5710  175.6120  146.3590 C   0  0  0  0  0  3  0  0  0  0  0  0
  192.8530  174.5940  145.7270 C   0  0  0  0  0  3  0  0  0  0  0  0
  191.4920  174.4280  145.9980 C   0  0  0  0  0  3  0  0  0  0  0  0
  191.5670  176.2920  147.5310 C   0  0  0  0  0  3  0  0  0  0  0  0
  192.9280  176.4610  147.2620 C   0  0  0  0  0  3  0  0  0  0  0  0
  190.8310  175.2770  146.9000 C   0  0  0  0  0  0  0  0  0  0  0  0
  1  6  2  0  0  0  0
  2  4  1  0  0  0  0
  3  1  1  1  0  0  0
  3  5  1  0  0  0  0
  4  7  2  0  0  0  0
  5 17  1  1  0  0  0
  5  8  1  0  0  0  0
  6  2  1  0  0  0  0
  8  4  1  0  0  0  0
  9 15  1  0  0  0  0
 10 15  1  6  0  0  0
 10  3  1  0  0  0  0
 11 12  1  0  0  0  0
 12 13  1  0  0  0  0
 13 10  1  0  0  0  0
 16 14  1  6  0  0  0
 16  9  1  0  0  0  0
 16 11  1  0  0  0  0
 17 19  1  0  0  0  0
 19 20  1  0  0  0  0
 20 18  2  0  0  0  0
 21 25  1  0  0  0  0
 22 23  1  0  0  0  0
 22 21  2  0  0  0  0
 23 26  2  0  0  0  0
 25 24  2  0  0  0  0
 26 20  1  0  0  0  0
 26 24  1  0  0  0  0
M  END
>  <MODEL>
5

>  <REMARK>
 VINA RESULT:      -7.1      2.805      7.400
  Name = 
  4 active torsions:
  status: ('A' for Active; 'I' for Inactive)
    1  A    between atoms: C_2  and  C_13
    2  A    between atoms: C_2  and  N_16
    3  A    between atoms: C_5  and  N_6
    4  A    between atoms: C_24  and  C_25
                            x       y       z     vdW  Elec       q    Type
                         _______ _______ _______ _____ _____    ______ ____

>  <TORSDO>
F 4

$$$$
=
 OpenBabel11072408513D

 26 28  0  0  1  0  0  0  0  0999 V2000
  187.8650  176.5510  142.3360 C   0  0  0  0  0  3  0  0  0  0  0  0
  188.6240  174.3250  141.7010 N   0  0  0  0  0  2  0  0  0  0  0  0
  187.8290  176.2100  143.8070 C   0  0  1  0  0  3  0  0  0  0  0  0
  189.3900  173.9740  142.8570 C   0  0  0  0  0  0  0  0  0  0  0  0
  189.1990  175.9140  144.4600 C   0  0  1  0  0  3  0  0  0  0  0  0
  188.1940  175.6600  141.3970 C   0  0  0  0  0  3  0  0  0  0  0  0
  189.4840  172.7680  143.2020 O   0  0  0  0  0  0  0  0  0  0  0  0
  190.1260  175.0240  143.6280 C   0  0  0  0  0  2  0  0  0  0  0  0
  185.5700  177.0490  146.7050 C   0  0  0  0  0  2  0  0  0  0  0  0
  186.9910  177.0990  144.6270 N   0  0  1  0  0  0  0  0  0  0  0  0
  185.9420  179.3780  145.6460 C   0  0  0  0  0  2  0  0  0  0  0  0
  185.2140  178.8310  144.4120 C   0  0  0  0  0  2  0  0  0  0  0  0
  185.7430  177.4670  143.9390 C   0  0  0  0  0  2  0  0  0  0  0  0
  184.5960  179.0380  147.5950 O   0  0  0  0  0  1  0  0  0  0  0  0
  186.7150  176.4160  145.9000 C   0  0  0  0  0  2  0  0  0  0  0  0
  185.7210  178.5580  146.9260 C   0  0  1  0  0  3  0  0  0  0  0  0
  189.9360  177.1670  144.9280 C   0  0  0  0  0  2  0  0  0  0  0  0
  191.1920  176.7380  148.3600 O   0  0  0  0  0  0  0  0  0  0  0  0
  190.0900  177.1730  146.3760 N   0  0  0  0  0  2  0  0  0  0  0  0
  191.2140  176.6530  147.1020 C   0  0  0  0  0  0  0  0  0  0  0  0
  194.6080  174.8130  145.2090 C   0  0  0  0  0  3  0  0  0  0  0  0
  194.4970  176.2050  145.2690 C   0  0  0  0  0  3  0  0  0  0  0  0
  193.3880  176.7910  145.8870 C   0  0  0  0  0  3  0  0  0  0  0  0
  192.5020  174.5990  146.3800 C   0  0  0  0  0  3  0  0  0  0  0  0
  193.6090  174.0100  145.7640 C   0  0  0  0  0  3  0  0  0  0  0  0
  192.3780  175.9960  146.4520 C   0  0  0  0  0  0  0  0  0  0  0  0
  2  4  1  0  0  0  0
  3  1  1  6  0  0  0
  3  5  1  0  0  0  0
  3 10  1  0  0  0  0
  4  7  2  0  0  0  0
  4  8  1  0  0  0  0
  5 17  1  6  0  0  0
  6  2  1  0  0  0  0
  6  1  2  0  0  0  0
  8  5  1  0  0  0  0
  9 16  1  0  0  0  0
 10 13  1  6  0  0  0
 10 15  1  0  0  0  0
 11 16  1  0  0  0  0
 12 11  1  0  0  0  0
 13 12  1  0  0  0  0
 15  9  1  0  0  0  0
 16 14  1  6  0  0  0
 17 19  1  0  0  0  0
 19 20  1  0  0  0  0
 20 18  2  0  0  0  0
 21 22  2  0  0  0  0
 21 25  1  0  0  0  0
 22 23  1  0  0  0  0
 23 26  2  0  0  0  0
 24 26  1  0  0  0  0
 25 24  2  0  0  0  0
 26 20  1  0  0  0  0
M  END
>  <MODEL>
6

>  <REMARK>
 VINA RESULT:      -7.0      2.556      6.128
  Name = 
  4 active torsions:
  status: ('A' for Active; 'I' for Inactive)
    1  A    between atoms: C_2  and  C_13
    2  A    between atoms: C_2  and  N_16
    3  A    between atoms: C_5  and  N_6
    4  A    between atoms: C_24  and  C_25
                            x       y       z     vdW  Elec       q    Type
                         _______ _______ _______ _____ _____    ______ ____

>  <TORSDO>
F 4

$$$$
=
 OpenBabel11072408513D

 26 28  0  0  1  0  0  0  0  0999 V2000
  189.5050  173.4290  143.5560 C   0  0  0  0  0  3  0  0  0  0  0  0
  188.8540  172.7510  141.3080 N   0  0  0  0  0  2  0  0  0  0  0  0
  190.2370  174.6560  143.0630 C   0  0  1  0  0  3  0  0  0  0  0  0
  188.7370  174.0300  140.6760 C   0  0  0  0  0  0  0  0  0  0  0  0
  189.3560  175.7490  142.4180 C   0  0  1  0  0  3  0  0  0  0  0  0
  188.9170  172.5600  142.7290 C   0  0  0  0  0  3  0  0  0  0  0  0
  188.9720  174.1420  139.4460 O   0  0  0  0  0  0  0  0  0  0  0  0
  188.2860  175.2240  141.4560 C   0  0  0  0  0  2  0  0  0  0  0  0
  193.6410  175.9050  144.0940 C   0  0  0  0  0  2  0  0  0  0  0  0
  191.2230  175.2060  144.0060 N   0  0  1  0  0  0  0  0  0  0  0  0
  192.2350  176.4330  146.1980 C   0  0  0  0  0  2  0  0  0  0  0  0
  192.0460  174.9180  146.3390 C   0  0  0  0  0  2  0  0  0  0  0  0
  191.6030  174.2290  145.0390 C   0  0  0  0  0  2  0  0  0  0  0  0
  194.5670  176.9440  146.0320 O   0  0  0  0  0  1  0  0  0  0  0  0
  192.3950  175.6450  143.2330 C   0  0  0  0  0  2  0  0  0  0  0  0
  193.3970  176.8430  145.2810 C   0  0  1  0  0  3  0  0  0  0  0  0
  188.7410  176.7130  143.4290 C   0  0  0  0  0  2  0  0  0  0  0  0
  185.9640  179.0280  142.7410 O   0  0  0  0  0  0  0  0  0  0  0  0
  187.7820  177.6020  142.7870 N   0  0  0  0  0  2  0  0  0  0  0  0
  186.7070  178.2910  143.4440 C   0  0  0  0  0  0  0  0  0  0  0  0
  185.8730  177.8360  147.6380 C   0  0  0  0  0  3  0  0  0  0  0  0
  186.4430  176.7880  146.9100 C   0  0  0  0  0  3  0  0  0  0  0  0
  186.7080  176.9480  145.5470 C   0  0  0  0  0  3  0  0  0  0  0  0
  185.8340  179.1970  145.6380 C   0  0  0  0  0  3  0  0  0  0  0  0
  185.5670  179.0400  147.0010 C   0  0  0  0  0  3  0  0  0  0  0  0
  186.4100  178.1550  144.8940 C   0  0  0  0  0  0  0  0  0  0  0  0
  2  6  1  0  0  0  0
  3  1  1  1  0  0  0
  3 10  1  0  0  0  0
  4  2  1  0  0  0  0
  4  8  1  0  0  0  0
  5  3  1  0  0  0  0
  5 17  1  1  0  0  0
  6  1  2  0  0  0  0
  7  4  2  0  0  0  0
  8  5  1  0  0  0  0
  9 16  1  0  0  0  0
 10 15  1  6  0  0  0
 10 13  1  0  0  0  0
 11 12  1  0  0  0  0
 13 12  1  0  0  0  0
 15  9  1  0  0  0  0
 16 14  1  1  0  0  0
 16 11  1  0  0  0  0
 18 20  2  0  0  0  0
 19 17  1  0  0  0  0
 19 20  1  0  0  0  0
 20 26  1  0  0  0  0
 22 21  2  0  0  0  0
 23 22  1  0  0  0  0
 24 25  2  0  0  0  0
 25 21  1  0  0  0  0
 26 23  2  0  0  0  0
 26 24  1  0  0  0  0
M  END
>  <MODEL>
7

>  <REMARK>
 VINA RESULT:      -6.9      1.949      2.415
  Name = 
  4 active torsions:
  status: ('A' for Active; 'I' for Inactive)
    1  A    between atoms: C_2  and  C_13
    2  A    between atoms: C_2  and  N_16
    3  A    between atoms: C_5  and  N_6
    4  A    between atoms: C_24  and  C_25
                            x       y       z     vdW  Elec       q    Type
                         _______ _______ _______ _____ _____    ______ ____

>  <TORSDO>
F 4

$$$$
=
 OpenBabel11072408513D

 26 28  0  0  1  0  0  0  0  0999 V2000
  191.2510  175.7100  144.0130 C   0  0  0  0  0  3  0  0  0  0  0  0
  190.6370  176.2770  146.3020 N   0  0  0  0  0  2  0  0  0  0  0  0
  189.8120  175.5630  143.5750 C   0  0  1  0  0  3  0  0  0  0  0  0
  189.3890  176.9420  146.0780 C   0  0  0  0  0  0  0  0  0  0  0  0
  188.9700  176.8590  143.5900 C   0  0  1  0  0  3  0  0  0  0  0  0
  191.5950  175.9990  145.2710 C   0  0  0  0  0  3  0  0  0  0  0  0
  188.4900  176.8960  146.9560 O   0  0  0  0  0  0  0  0  0  0  0  0
  189.1660  177.7360  144.8290 C   0  0  0  0  0  2  0  0  0  0  0  0
  188.1130  172.9860  141.4120 C   0  0  0  0  0  2  0  0  0  0  0  0
  189.6180  174.7750  142.3480 N   0  0  1  0  0  0  0  0  0  0  0  0
  189.8010  174.0260  139.7520 C   0  0  0  0  0  2  0  0  0  0  0  0
  190.9000  173.4640  140.6620 C   0  0  0  0  0  2  0  0  0  0  0  0
  190.6940  173.7910  142.1500 C   0  0  0  0  0  2  0  0  0  0  0  0
  188.2870  172.2760  139.1400 O   0  0  0  0  0  1  0  0  0  0  0  0
  188.3050  174.1170  142.4340 C   0  0  0  0  0  2  0  0  0  0  0  0
  188.4180  173.3920  139.9660 C   0  0  1  0  0  3  0  0  0  0  0  0
  189.1090  177.6910  142.3170 C   0  0  0  0  0  2  0  0  0  0  0  0
  185.7760  177.3470  140.7960 O   0  0  0  0  0  0  0  0  0  0  0  0
  188.0030  177.4370  141.4030 N   0  0  0  0  0  2  0  0  0  0  0  0
  186.6100  177.6110  141.7030 C   0  0  0  0  0  0  0  0  0  0  0  0
  185.1400  178.8220  145.5580 C   0  0  0  0  0  3  0  0  0  0  0  0
  185.2260  177.4680  145.2250 C   0  0  0  0  0  3  0  0  0  0  0  0
  185.7050  177.0860  143.9680 C   0  0  0  0  0  3  0  0  0  0  0  0
  186.0070  179.4080  143.3770 C   0  0  0  0  0  3  0  0  0  0  0  0
  185.5300  179.7930  144.6330 C   0  0  0  0  0  3  0  0  0  0  0  0
  186.1050  178.0520  143.0300 C   0  0  0  0  0  0  0  0  0  0  0  0
  1  6  2  0  0  0  0
  3  5  1  0  0  0  0
  3  1  1  6  0  0  0
  4  2  1  0  0  0  0
  4  7  2  0  0  0  0
  5 17  1  6  0  0  0
  5  8  1  0  0  0  0
  6  2  1  0  0  0  0
  8  4  1  0  0  0  0
  9 15  1  0  0  0  0
 10 13  1  1  0  0  0
 10 15  1  0  0  0  0
 10  3  1  0  0  0  0
 11 16  1  0  0  0  0
 11 12  1  0  0  0  0
 12 13  1  0  0  0  0
 16 14  1  6  0  0  0
 16  9  1  0  0  0  0
 18 20  2  0  0  0  0
 19 20  1  0  0  0  0
 19 17  1  0  0  0  0
 20 26  1  0  0  0  0
 22 21  1  0  0  0  0
 23 22  2  0  0  0  0
 24 25  1  0  0  0  0
 25 21  2  0  0  0  0
 26 24  2  0  0  0  0
 26 23  1  0  0  0  0
M  END
>  <MODEL>
8

>  <REMARK>
 VINA RESULT:      -6.9      1.605      4.764
  Name = 
  4 active torsions:
  status: ('A' for Active; 'I' for Inactive)
    1  A    between atoms: C_2  and  C_13
    2  A    between atoms: C_2  and  N_16
    3  A    between atoms: C_5  and  N_6
    4  A    between atoms: C_24  and  C_25
                            x       y       z     vdW  Elec       q    Type
                         _______ _______ _______ _____ _____    ______ ____

>  <TORSDO>
F 4

$$$$
=
 OpenBabel11072408513D

 26 28  0  0  1  0  0  0  0  0999 V2000
  192.3250  176.0000  143.3850 C   0  0  0  0  0  3  0  0  0  0  0  0
  194.4600  175.4770  144.4350 N   0  0  0  0  0  2  0  0  0  0  0  0
  191.7750  174.6120  143.6190 C   0  0  1  0  0  3  0  0  0  0  0  0
  194.0410  174.5140  145.4080 C   0  0  0  0  0  0  0  0  0  0  0  0
  191.5530  174.2200  145.0980 C   0  0  1  0  0  3  0  0  0  0  0  0
  193.5660  176.3520  143.7340 C   0  0  0  0  0  3  0  0  0  0  0  0
  194.8300  173.6010  145.7640 O   0  0  0  0  0  0  0  0  0  0  0  0
  192.6900  174.6150  146.0440 C   0  0  0  0  0  2  0  0  0  0  0  0
  190.1660  173.2260  140.5050 C   0  0  0  0  0  2  0  0  0  0  0  0
  190.6400  174.2450  142.7590 N   0  0  1  0  0  0  0  0  0  0  0  0
  188.1060  173.6500  142.0090 C   0  0  0  0  0  2  0  0  0  0  0  0
  188.4680  175.1390  141.9260 C   0  0  0  0  0  2  0  0  0  0  0  0
  189.9490  175.4290  142.2240 C   0  0  0  0  0  2  0  0  0  0  0  0
  187.9390  172.7370  139.8030 O   0  0  0  0  0  1  0  0  0  0  0  0
  191.1490  173.3920  141.6740 C   0  0  0  0  0  2  0  0  0  0  0  0
  188.7620  172.7790  140.9270 C   0  0  1  0  0  3  0  0  0  0  0  0
  190.2080  174.6780  145.6560 C   0  0  0  0  0  2  0  0  0  0  0  0
  189.7720  177.8060  147.5450 O   0  0  0  0  0  0  0  0  0  0  0  0
  190.3760  175.8000  146.5700 N   0  0  0  0  0  2  0  0  0  0  0  0
  189.4810  176.9150  146.7020 C   0  0  0  0  0  0  0  0  0  0  0  0
  185.9000  177.3790  144.3670 C   0  0  0  0  0  3  0  0  0  0  0  0
  185.8590  176.7410  145.6100 C   0  0  0  0  0  3  0  0  0  0  0  0
  187.0310  176.5960  146.3590 C   0  0  0  0  0  3  0  0  0  0  0  0
  188.2810  177.7200  144.6260 C   0  0  0  0  0  3  0  0  0  0  0  0
  187.1120  177.8670  143.8750 C   0  0  0  0  0  3  0  0  0  0  0  0
  188.2560  177.0860  145.8780 C   0  0  0  0  0  0  0  0  0  0  0  0
  1  6  2  0  0  0  0
  2  4  1  0  0  0  0
  3  1  1  1  0  0  0
  3  5  1  0  0  0  0
  4  7  2  0  0  0  0
  4  8  1  0  0  0  0
  5 17  1  1  0  0  0
  5  8  1  0  0  0  0
  6  2  1  0  0  0  0
  9 16  1  0  0  0  0
  9 15  1  0  0  0  0
 10 15  1  6  0  0  0
 10  3  1  0  0  0  0
 12 11  1  0  0  0  0
 12 13  1  0  0  0  0
 13 10  1  0  0  0  0
 16 14  1  6  0  0  0
 16 11  1  0  0  0  0
 17 19  1  0  0  0  0
 19 20  1  0  0  0  0
 20 18  2  0  0  0  0
 21 22  1  0  0  0  0
 22 23  2  0  0  0  0
 24 26  2  0  0  0  0
 25 21  2  0  0  0  0
 25 24  1  0  0  0  0
 26 23  1  0  0  0  0
 26 20  1  0  0  0  0
M  END
>  <MODEL>
9

>  <REMARK>
 VINA RESULT:      -6.8      2.474      5.359
  Name = 
  4 active torsions:
  status: ('A' for Active; 'I' for Inactive)
    1  A    between atoms: C_2  and  C_13
    2  A    between atoms: C_2  and  N_16
    3  A    between atoms: C_5  and  N_6
    4  A    between atoms: C_24  and  C_25
                            x       y       z     vdW  Elec       q    Type
                         _______ _______ _______ _____ _____    ______ ____

>  <TORSDO>
F 4

$$$$
