=
 OpenBabel11062422053D

 34 37  0  0  1  0  0  0  0  0999 V2000
  194.5830  172.2670  143.8390 C   0  0  0  0  0  3  0  0  0  0  0  0
  193.1110  170.3310  143.6580 N   0  0  0  0  0  0  0  0  0  0  0  0
  191.5520  172.1470  144.1640 C   0  0  0  0  0  0  0  0  0  0  0  0
  190.1470  172.4950  144.5120 C   0  0  0  0  0  2  0  0  0  0  0  0
  190.2140  173.9840  144.8740 C   0  0  1  0  0  3  0  0  0  0  0  0
  194.2180  170.9290  144.3940 C   0  0  0  0  0  2  0  0  0  0  0  0
  191.9170  170.8400  143.5900 C   0  0  0  0  0  3  0  0  0  0  0  0
  191.6070  174.3550  144.6770 N   0  0  0  0  0  2  0  0  0  0  0  0
  193.7430  173.3120  143.8140 C   0  0  0  0  0  0  0  0  0  0  0  0
  192.3340  173.2140  144.2600 C   0  0  0  0  0  0  0  0  0  0  0  0
  196.5340  175.0660  142.9980 N   0  0  0  0  0  0  0  0  0  0  0  0
  194.3810  174.6330  141.5000 S   0  0  0  0  0  0  0  0  0  0  0  0
  196.7540  175.7130  140.6710 C   0  0  0  0  0  1  0  0  0  0  0  0
  195.5670  175.0250  143.8480 C   0  0  0  0  0  0  0  0  0  0  0  0
  194.2240  174.6480  143.3130 C   0  0  2  0  0  3  0  0  0  0  0  0
  195.7860  175.4240  145.2040 N   0  0  0  0  0  2  0  0  0  0  0  0
  196.1970  174.6910  141.6380 C   0  0  1  0  0  3  0  0  0  0  0  0
  194.7470  175.4070  146.2240 C   0  0  0  0  0  2  0  0  0  0  0  0
  194.2120  176.8070  146.4380 C   0  0  0  0  0  1  0  0  0  0  0  0
  188.2030  175.6080  144.5620 C   0  0  2  0  0  3  0  0  0  0  0  0
  190.0640  175.6410  143.1000 O   0  0  0  0  0  0  0  0  0  0  0  0
  189.6900  177.8820  142.3660 C   0  0  0  0  0  1  0  0  0  0  0  0
  189.3220  174.7860  143.9240 C   0  0  1  0  0  3  0  0  0  0  0  0
  187.8820  176.5480  143.4230 C   0  0  1  0  0  3  0  0  0  0  0  0
  189.1070  176.4920  142.5220 C   0  0  2  0  0  3  0  0  0  0  0  0
  188.7280  177.9150  145.5440 C   0  0  0  0  0  1  0  0  0  0  0  0
  188.6650  176.4120  145.8020 C   0  0  1  0  0  3  0  0  0  0  0  0
  187.7960  176.1480  147.0330 C   0  0  0  0  0  2  0  0  0  0  0  0
  186.4310  176.8170  146.9350 C   0  0  0  0  0  1  0  0  0  0  0  0
  186.6610  176.0420  142.6730 C   0  0  0  0  0  2  0  0  0  0  0  0
  185.5270  176.8330  143.0060 O   0  0  0  0  0  0  0  0  0  0  0  0
  185.4380  178.6250  141.5790 O   0  0  0  0  0  0  0  0  0  0  0  0
  185.4860  179.1980  143.8830 C   0  0  0  0  0  1  0  0  0  0  0  0
  185.4820  178.2080  142.7660 C   0  0  0  0  0  0  0  0  0  0  0  0
  1  6  1  0  0  0  0
  2  6  1  0  0  0  0
  3 10  2  0  0  0  0
  3  4  1  0  0  0  0
  5  4  1  6  0  0  0
  7  2  2  0  0  0  0
  7  3  1  0  0  0  0
  8  5  1  0  0  0  0
  9  1  2  0  0  0  0
  9 10  1  0  0  0  0
 10  8  1  0  0  0  0
 11 14  2  0  0  0  0
 12 17  1  0  0  0  0
 12 15  1  0  0  0  0
 14 16  1  0  0  0  0
 15  9  1  1  0  0  0
 15 14  1  0  0  0  0
 16 18  1  0  0  0  0
 17 13  1  6  0  0  0
 17 11  1  0  0  0  0
 18 19  1  0  0  0  0
 20 27  1  1  0  0  0
 23 21  1  1  0  0  0
 23 20  1  0  0  0  0
 23  5  1  0  0  0  0
 24 30  1  6  0  0  0
 24 20  1  0  0  0  0
 25 22  1  1  0  0  0
 25 21  1  0  0  0  0
 25 24  1  0  0  0  0
 27 26  1  6  0  0  0
 27 28  1  0  0  0  0
 29 28  1  0  0  0  0
 30 31  1  0  0  0  0
 32 34  2  0  0  0  0
 34 31  1  0  0  0  0
 34 33  1  0  0  0  0
M  END
>  <MODEL>
1

>  <REMARK>
 VINA RESULT:      -6.6      0.000      0.000
  Name = 
  8 active torsions:
  status: ('A' for Active; 'I' for Inactive)
    1  A    between atoms: C_5  and  C_29
    2  A    between atoms: C_10  and  C_29
    3  A    between atoms: C_13  and  C_23
    4  A    between atoms: C_17  and  C_28
    5  A    between atoms: N_18  and  C_32
    6  A    between atoms: C_22  and  O_25
    7  A    between atoms: C_22  and  C_26
    8  A    between atoms: O_25  and  C_31
                            x       y       z     vdW  Elec       q    Type
                         _______ _______ _______ _____ _____    ______ ____

>  <TORSDO>
F 8

$$$$
=
 OpenBabel11062422053D

 34 37  0  0  1  0  0  0  0  0999 V2000
  194.6050  172.0250  143.0640 C   0  0  0  0  0  3  0  0  0  0  0  0
  192.9980  170.2150  142.7550 N   0  0  0  0  0  0  0  0  0  0  0  0
  191.6320  171.9840  143.7520 C   0  0  0  0  0  0  0  0  0  0  0  0
  190.3050  172.3270  144.3310 C   0  0  0  0  0  2  0  0  0  0  0  0
  190.5110  173.7270  144.9230 C   0  0  1  0  0  3  0  0  0  0  0  0
  194.2210  170.6290  143.4310 C   0  0  0  0  0  2  0  0  0  0  0  0
  191.8410  170.7810  142.9270 C   0  0  0  0  0  3  0  0  0  0  0  0
  191.8920  174.0660  144.6130 N   0  0  0  0  0  2  0  0  0  0  0  0
  193.8370  173.0940  143.3210 C   0  0  0  0  0  0  0  0  0  0  0  0
  192.4880  172.9830  143.9220 C   0  0  0  0  0  0  0  0  0  0  0  0
  196.6470  174.8670  142.6190 N   0  0  0  0  0  0  0  0  0  0  0  0
  194.4100  174.7170  141.1890 S   0  0  0  0  0  0  0  0  0  0  0  0
  196.7790  175.8370  140.3990 C   0  0  0  0  0  1  0  0  0  0  0  0
  195.7210  174.7310  143.5040 C   0  0  0  0  0  0  0  0  0  0  0  0
  194.3410  174.4740  142.9920 C   0  0  2  0  0  3  0  0  0  0  0  0
  196.0180  174.9250  144.8900 N   0  0  0  0  0  2  0  0  0  0  0  0
  196.2320  174.7020  141.2380 C   0  0  1  0  0  3  0  0  0  0  0  0
  195.0300  174.7900  145.9490 C   0  0  0  0  0  2  0  0  0  0  0  0
  194.4430  176.1460  146.2820 C   0  0  0  0  0  1  0  0  0  0  0  0
  188.7490  175.6290  145.1580 C   0  0  2  0  0  3  0  0  0  0  0  0
  190.2330  175.5330  143.3170 O   0  0  0  0  0  0  0  0  0  0  0  0
  190.0520  177.8580  142.8040 C   0  0  0  0  0  1  0  0  0  0  0  0
  189.5670  174.7200  144.2420 C   0  0  1  0  0  3  0  0  0  0  0  0
  188.3340  176.6960  144.1710 C   0  0  1  0  0  3  0  0  0  0  0  0
  189.3140  176.5510  143.0150 C   0  0  2  0  0  3  0  0  0  0  0  0
  188.9820  177.5560  146.8300 C   0  0  0  0  0  1  0  0  0  0  0  0
  189.5830  176.2560  146.3010 C   0  0  1  0  0  3  0  0  0  0  0  0
  189.8040  175.2920  147.4680 C   0  0  0  0  0  2  0  0  0  0  0  0
  191.1980  175.4150  148.0680 C   0  0  0  0  0  1  0  0  0  0  0  0
  186.9190  176.4260  143.6910 C   0  0  0  0  0  2  0  0  0  0  0  0
  186.0970  177.5580  143.9460 O   0  0  0  0  0  0  0  0  0  0  0  0
  185.7240  179.1320  145.5700 O   0  0  0  0  0  0  0  0  0  0  0  0
  185.2660  176.8990  146.2350 C   0  0  0  0  0  1  0  0  0  0  0  0
  185.7050  177.9190  145.2370 C   0  0  0  0  0  0  0  0  0  0  0  0
  1  9  2  0  0  0  0
  1  6  1  0  0  0  0
  2  7  2  0  0  0  0
  2  6  1  0  0  0  0
  3 10  2  0  0  0  0
  3  4  1  0  0  0  0
  5  4  1  6  0  0  0
  7  3  1  0  0  0  0
  8  5  1  0  0  0  0
  9 10  1  0  0  0  0
 10  8  1  0  0  0  0
 11 14  2  0  0  0  0
 12 17  1  0  0  0  0
 12 15  1  0  0  0  0
 14 16  1  0  0  0  0
 15  9  1  6  0  0  0
 15 14  1  0  0  0  0
 16 18  1  0  0  0  0
 17 13  1  6  0  0  0
 17 11  1  0  0  0  0
 18 19  1  0  0  0  0
 20 27  1  1  0  0  0
 23 21  1  6  0  0  0
 23  5  1  0  0  0  0
 23 20  1  0  0  0  0
 24 30  1  6  0  0  0
 24 20  1  0  0  0  0
 25 22  1  1  0  0  0
 25 21  1  0  0  0  0
 25 24  1  0  0  0  0
 27 26  1  1  0  0  0
 27 28  1  0  0  0  0
 28 29  1  0  0  0  0
 30 31  1  0  0  0  0
 31 34  1  0  0  0  0
 34 32  2  0  0  0  0
 34 33  1  0  0  0  0
M  END
>  <MODEL>
2

>  <REMARK>
 VINA RESULT:      -6.4      1.203      1.524
  Name = 
  8 active torsions:
  status: ('A' for Active; 'I' for Inactive)
    1  A    between atoms: C_5  and  C_29
    2  A    between atoms: C_10  and  C_29
    3  A    between atoms: C_13  and  C_23
    4  A    between atoms: C_17  and  C_28
    5  A    between atoms: N_18  and  C_32
    6  A    between atoms: C_22  and  O_25
    7  A    between atoms: C_22  and  C_26
    8  A    between atoms: O_25  and  C_31
                            x       y       z     vdW  Elec       q    Type
                         _______ _______ _______ _____ _____    ______ ____

>  <TORSDO>
F 8

$$$$
=
 OpenBabel11062422053D

 34 37  0  0  1  0  0  0  0  0999 V2000
  195.3380  171.9300  142.5030 C   0  0  0  0  0  3  0  0  0  0  0  0
  193.5180  170.3150  142.3290 N   0  0  0  0  0  0  0  0  0  0  0  0
  192.4590  172.1980  143.4780 C   0  0  0  0  0  0  0  0  0  0  0  0
  191.2390  172.6710  144.1880 C   0  0  0  0  0  2  0  0  0  0  0  0
  191.6560  174.0260  144.7750 C   0  0  1  0  0  3  0  0  0  0  0  0
  194.8380  170.5760  142.8880 C   0  0  0  0  0  2  0  0  0  0  0  0
  192.4520  171.0000  142.6200 C   0  0  0  0  0  3  0  0  0  0  0  0
  193.0300  174.2180  144.3360 N   0  0  0  0  0  2  0  0  0  0  0  0
  194.7220  173.0710  142.8480 C   0  0  0  0  0  0  0  0  0  0  0  0
  193.4330  173.0940  143.5760 C   0  0  0  0  0  0  0  0  0  0  0  0
  197.6060  174.5290  141.8060 N   0  0  0  0  0  0  0  0  0  0  0  0
  195.1940  174.7080  140.7020 S   0  0  0  0  0  0  0  0  0  0  0  0
  197.5520  175.5740  139.6170 C   0  0  0  0  0  1  0  0  0  0  0  0
  196.8000  174.4640  142.8080 C   0  0  0  0  0  0  0  0  0  0  0  0
  195.3430  174.3950  142.4890 C   0  0  2  0  0  3  0  0  0  0  0  0
  197.3060  174.5590  144.1430 N   0  0  0  0  0  2  0  0  0  0  0  0
  196.9890  174.4760  140.4930 C   0  0  1  0  0  3  0  0  0  0  0  0
  196.4620  174.4950  145.3270 C   0  0  0  0  0  2  0  0  0  0  0  0
  196.8590  173.3060  146.1780 C   0  0  0  0  0  1  0  0  0  0  0  0
  189.8180  175.8250  145.1800 C   0  0  2  0  0  3  0  0  0  0  0  0
  191.5110  176.1230  143.5530 O   0  0  0  0  0  0  0  0  0  0  0  0
  191.3170  178.5030  143.5100 C   0  0  0  0  0  1  0  0  0  0  0  0
  190.7670  175.1310  144.2030 C   0  0  1  0  0  3  0  0  0  0  0  0
  189.4890  177.0710  144.3900 C   0  0  1  0  0  3  0  0  0  0  0  0
  190.6010  177.1760  143.3570 C   0  0  2  0  0  3  0  0  0  0  0  0
  190.0840  177.5910  147.0160 C   0  0  0  0  0  1  0  0  0  0  0  0
  190.4920  176.2070  146.5210 C   0  0  1  0  0  3  0  0  0  0  0  0
  190.2320  175.1800  147.6240 C   0  0  0  0  0  2  0  0  0  0  0  0
  188.9230  174.4300  147.4240 C   0  0  0  0  0  1  0  0  0  0  0  0
  188.1490  176.8970  143.6960 C   0  0  0  0  0  2  0  0  0  0  0  0
  187.1530  176.5470  144.6490 O   0  0  0  0  0  0  0  0  0  0  0  0
  186.3050  178.6300  145.0930 O   0  0  0  0  0  0  0  0  0  0  0  0
  186.3400  177.1600  146.9570 C   0  0  0  0  0  1  0  0  0  0  0  0
  186.5970  177.4830  145.5230 C   0  0  0  0  0  0  0  0  0  0  0  0
  1  9  2  0  0  0  0
  1  6  1  0  0  0  0
  2  7  2  0  0  0  0
  2  6  1  0  0  0  0
  3 10  2  0  0  0  0
  3  4  1  0  0  0  0
  5  4  1  6  0  0  0
  7  3  1  0  0  0  0
  8  5  1  0  0  0  0
  9 10  1  0  0  0  0
 10  8  1  0  0  0  0
 11 14  2  0  0  0  0
 12 15  1  0  0  0  0
 14 16  1  0  0  0  0
 15 14  1  0  0  0  0
 15  9  1  6  0  0  0
 16 18  1  0  0  0  0
 17 13  1  6  0  0  0
 17 12  1  0  0  0  0
 17 11  1  0  0  0  0
 18 19  1  0  0  0  0
 20 27  1  1  0  0  0
 23 21  1  1  0  0  0
 23  5  1  0  0  0  0
 23 20  1  0  0  0  0
 24 30  1  6  0  0  0
 24 20  1  0  0  0  0
 25 22  1  1  0  0  0
 25 21  1  0  0  0  0
 25 24  1  0  0  0  0
 27 26  1  1  0  0  0
 27 28  1  0  0  0  0
 29 28  1  0  0  0  0
 30 31  1  0  0  0  0
 31 34  1  0  0  0  0
 32 34  2  0  0  0  0
 34 33  1  0  0  0  0
M  END
>  <MODEL>
3

>  <REMARK>
 VINA RESULT:      -6.4      1.761      2.120
  Name = 
  8 active torsions:
  status: ('A' for Active; 'I' for Inactive)
    1  A    between atoms: C_5  and  C_29
    2  A    between atoms: C_10  and  C_29
    3  A    between atoms: C_13  and  C_23
    4  A    between atoms: C_17  and  C_28
    5  A    between atoms: N_18  and  C_32
    6  A    between atoms: C_22  and  O_25
    7  A    between atoms: C_22  and  C_26
    8  A    between atoms: O_25  and  C_31
                            x       y       z     vdW  Elec       q    Type
                         _______ _______ _______ _____ _____    ______ ____

>  <TORSDO>
F 8

$$$$
=
 OpenBabel11062422053D

 34 37  0  0  1  0  0  0  0  0999 V2000
  187.8190  174.7140  142.6970 C   0  0  0  0  0  3  0  0  0  0  0  0
  188.4820  172.3830  142.4170 N   0  0  0  0  0  0  0  0  0  0  0  0
  190.6300  173.5260  142.6780 C   0  0  0  0  0  0  0  0  0  0  0  0
  192.1090  173.3840  142.6100 C   0  0  0  0  0  2  0  0  0  0  0  0
  192.6250  174.8240  142.7290 C   0  0  1  0  0  3  0  0  0  0  0  0
  187.8260  173.5250  141.7930 C   0  0  0  0  0  2  0  0  0  0  0  0
  189.7320  172.3610  142.7690 C   0  0  0  0  0  3  0  0  0  0  0  0
  191.4290  175.6390  142.8820 N   0  0  0  0  0  2  0  0  0  0  0  0
  188.9340  175.3140  143.1390 C   0  0  0  0  0  0  0  0  0  0  0  0
  190.2900  174.7990  142.8390 C   0  0  0  0  0  0  0  0  0  0  0  0
  186.7520  177.2490  144.8780 N   0  0  0  0  0  0  0  0  0  0  0  0
  189.0160  176.1560  145.7450 S   0  0  0  0  0  0  0  0  0  0  0  0
  187.1030  177.3760  147.2750 C   0  0  0  0  0  1  0  0  0  0  0  0
  187.5160  177.2520  143.8410 C   0  0  0  0  0  0  0  0  0  0  0  0
  188.8320  176.5590  143.9790 C   0  0  2  0  0  3  0  0  0  0  0  0
  187.1340  177.9790  142.6700 N   0  0  0  0  0  2  0  0  0  0  0  0
  187.2550  176.5270  146.0310 C   0  0  1  0  0  3  0  0  0  0  0  0
  187.9390  178.0320  141.4590 C   0  0  0  0  0  2  0  0  0  0  0  0
  187.1480  177.4840  140.2900 C   0  0  0  0  0  1  0  0  0  0  0  0
  195.0170  174.8850  143.7550 C   0  0  2  0  0  3  0  0  0  0  0  0
  193.2310  176.1230  144.6940 O   0  0  0  0  0  0  0  0  0  0  0  0
  194.6500  177.6960  145.7970 C   0  0  0  0  0  1  0  0  0  0  0  0
  193.5060  174.9550  143.9730 C   0  0  1  0  0  3  0  0  0  0  0  0
  195.5000  175.4830  145.0560 C   0  0  1  0  0  3  0  0  0  0  0  0
  194.2950  176.2350  145.6040 C   0  0  2  0  0  3  0  0  0  0  0  0
  196.6460  176.6830  142.9340 C   0  0  0  0  0  1  0  0  0  0  0  0
  195.5030  175.7420  142.5610 C   0  0  1  0  0  3  0  0  0  0  0  0
  195.9200  174.8940  141.3580 C   0  0  0  0  0  2  0  0  0  0  0  0
  197.4260  174.6800  141.2930 C   0  0  0  0  0  1  0  0  0  0  0  0
  195.9000  174.3720  146.0120 C   0  0  0  0  0  2  0  0  0  0  0  0
  197.1400  173.8080  145.6060 O   0  0  0  0  0  0  0  0  0  0  0  0
  196.9030  171.5840  146.1080 O   0  0  0  0  0  0  0  0  0  0  0  0
  197.8410  172.0200  143.9710 C   0  0  0  0  0  1  0  0  0  0  0  0
  197.2720  172.4560  145.2790 C   0  0  0  0  0  0  0  0  0  0  0  0
  1  9  2  0  0  0  0
  2  7  2  0  0  0  0
  3  7  1  0  0  0  0
  3 10  2  0  0  0  0
  4  3  1  0  0  0  0
  5  4  1  1  0  0  0
  5  8  1  0  0  0  0
  5 23  1  0  0  0  0
  6  2  1  0  0  0  0
  6  1  1  0  0  0  0
 10  8  1  0  0  0  0
 10  9  1  0  0  0  0
 11 17  1  0  0  0  0
 12 17  1  0  0  0  0
 14 15  1  0  0  0  0
 14 11  2  0  0  0  0
 15  9  1  6  0  0  0
 15 12  1  0  0  0  0
 16 14  1  0  0  0  0
 17 13  1  1  0  0  0
 18 16  1  0  0  0  0
 19 18  1  0  0  0  0
 20 27  1  6  0  0  0
 20 23  1  0  0  0  0
 20 24  1  0  0  0  0
 21 25  1  0  0  0  0
 23 21  1  6  0  0  0
 24 25  1  0  0  0  0
 24 30  1  1  0  0  0
 25 22  1  6  0  0  0
 27 26  1  1  0  0  0
 28 27  1  0  0  0  0
 29 28  1  0  0  0  0
 31 30  1  0  0  0  0
 33 34  1  0  0  0  0
 34 31  1  0  0  0  0
 34 32  2  0  0  0  0
M  END
>  <MODEL>
4

>  <REMARK>
 VINA RESULT:      -6.2      3.297      8.385
  Name = 
  8 active torsions:
  status: ('A' for Active; 'I' for Inactive)
    1  A    between atoms: C_5  and  C_29
    2  A    between atoms: C_10  and  C_29
    3  A    between atoms: C_13  and  C_23
    4  A    between atoms: C_17  and  C_28
    5  A    between atoms: N_18  and  C_32
    6  A    between atoms: C_22  and  O_25
    7  A    between atoms: C_22  and  C_26
    8  A    between atoms: O_25  and  C_31
                            x       y       z     vdW  Elec       q    Type
                         _______ _______ _______ _____ _____    ______ ____

>  <TORSDO>
F 8

$$$$
=
 OpenBabel11062422053D

 34 37  0  0  1  0  0  0  0  0999 V2000
  194.8490  176.0350  146.1150 C   0  0  0  0  0  3  0  0  0  0  0  0
  192.9080  176.7900  147.3850 N   0  0  0  0  0  0  0  0  0  0  0  0
  191.9660  176.3590  145.1680 C   0  0  0  0  0  0  0  0  0  0  0  0
  190.7640  176.4900  144.3010 C   0  0  0  0  0  2  0  0  0  0  0  0
  191.2690  176.0970  142.9070 C   0  0  1  0  0  3  0  0  0  0  0  0
  194.2230  177.1580  146.8740 C   0  0  0  0  0  2  0  0  0  0  0  0
  191.8930  176.4800  146.6350 C   0  0  0  0  0  3  0  0  0  0  0  0
  192.6700  175.7560  143.0980 N   0  0  0  0  0  2  0  0  0  0  0  0
  194.3180  175.5090  145.0010 C   0  0  0  0  0  0  0  0  0  0  0  0
  193.0080  175.9390  144.4610 C   0  0  0  0  0  0  0  0  0  0  0  0
  197.2650  173.8260  144.8730 N   0  0  0  0  0  0  0  0  0  0  0  0
  194.8120  172.8140  145.0420 S   0  0  0  0  0  0  0  0  0  0  0  0
  197.1640  171.4460  145.3330 C   0  0  0  0  0  1  0  0  0  0  0  0
  196.5380  174.6620  144.2150 C   0  0  0  0  0  0  0  0  0  0  0  0
  195.0620  174.4350  144.2520 C   0  0  2  0  0  3  0  0  0  0  0  0
  197.1540  175.6790  143.4200 N   0  0  0  0  0  2  0  0  0  0  0  0
  196.5450  172.8010  145.6050 C   0  0  1  0  0  3  0  0  0  0  0  0
  196.4040  176.6600  142.6500 C   0  0  0  0  0  2  0  0  0  0  0  0
  196.3170  176.2200  141.2030 C   0  0  0  0  0  1  0  0  0  0  0  0
  188.9770  174.9950  142.3490 C   0  0  2  0  0  3  0  0  0  0  0  0
  190.9410  174.4550  141.1440 O   0  0  0  0  0  0  0  0  0  0  0  0
  189.7710  173.6710  139.2150 C   0  0  0  0  0  1  0  0  0  0  0  0
  190.5000  174.8740  142.4040 C   0  0  1  0  0  3  0  0  0  0  0  0
  188.6530  173.8430  141.4260 C   0  0  1  0  0  3  0  0  0  0  0  0
  189.9640  173.5420  140.7130 C   0  0  2  0  0  3  0  0  0  0  0  0
  187.5330  176.1220  140.5590 C   0  0  0  0  0  1  0  0  0  0  0  0
  188.4910  176.3280  141.7290 C   0  0  1  0  0  3  0  0  0  0  0  0
  187.8400  177.2540  142.7570 C   0  0  0  0  0  2  0  0  0  0  0  0
  187.0370  176.4900  143.8000 C   0  0  0  0  0  1  0  0  0  0  0  0
  188.2170  172.6400  142.2450 C   0  0  0  0  0  2  0  0  0  0  0  0
  189.2990  171.7270  142.3760 O   0  0  0  0  0  0  0  0  0  0  0  0
  191.2700  171.2130  143.4280 O   0  0  0  0  0  0  0  0  0  0  0  0
  189.6280  172.1980  144.8320 C   0  0  0  0  0  1  0  0  0  0  0  0
  190.1080  171.6890  143.5140 C   0  0  0  0  0  0  0  0  0  0  0  0
  1  6  1  0  0  0  0
  3  7  1  0  0  0  0
  4  3  1  0  0  0  0
  5  8  1  0  0  0  0
  5  4  1  1  0  0  0
  6  2  1  0  0  0  0
  7  2  2  0  0  0  0
  8 10  1  0  0  0  0
  9  1  2  0  0  0  0
 10  9  1  0  0  0  0
 10  3  2  0  0  0  0
 11 17  1  0  0  0  0
 12 17  1  0  0  0  0
 14 15  1  0  0  0  0
 14 11  2  0  0  0  0
 15  9  1  1  0  0  0
 15 12  1  0  0  0  0
 16 14  1  0  0  0  0
 17 13  1  6  0  0  0
 18 16  1  0  0  0  0
 19 18  1  0  0  0  0
 20 27  1  6  0  0  0
 20 23  1  0  0  0  0
 23 21  1  6  0  0  0
 23  5  1  0  0  0  0
 24 30  1  1  0  0  0
 24 20  1  0  0  0  0
 25 22  1  6  0  0  0
 25 21  1  0  0  0  0
 25 24  1  0  0  0  0
 27 26  1  6  0  0  0
 27 28  1  0  0  0  0
 28 29  1  0  0  0  0
 30 31  1  0  0  0  0
 31 34  1  0  0  0  0
 32 34  2  0  0  0  0
 34 33  1  0  0  0  0
M  END
>  <MODEL>
5

>  <REMARK>
 VINA RESULT:      -6.2      2.752      4.811
  Name = 
  8 active torsions:
  status: ('A' for Active; 'I' for Inactive)
    1  A    between atoms: C_5  and  C_29
    2  A    between atoms: C_10  and  C_29
    3  A    between atoms: C_13  and  C_23
    4  A    between atoms: C_17  and  C_28
    5  A    between atoms: N_18  and  C_32
    6  A    between atoms: C_22  and  O_25
    7  A    between atoms: C_22  and  C_26
    8  A    between atoms: O_25  and  C_31
                            x       y       z     vdW  Elec       q    Type
                         _______ _______ _______ _____ _____    ______ ____

>  <TORSDO>
F 8

$$$$
=
 OpenBabel11062422053D

 34 37  0  0  1  0  0  0  0  0999 V2000
  195.3100  173.6850  142.8420 C   0  0  0  0  0  3  0  0  0  0  0  0
  196.6040  175.0460  144.3990 N   0  0  0  0  0  0  0  0  0  0  0  0
  194.3920  176.0860  144.4870 C   0  0  0  0  0  0  0  0  0  0  0  0
  193.6000  177.2390  144.9930 C   0  0  0  0  0  2  0  0  0  0  0  0
  192.2470  177.0990  144.2820 C   0  0  1  0  0  3  0  0  0  0  0  0
  196.4670  174.6140  143.0140 C   0  0  0  0  0  2  0  0  0  0  0  0
  195.7110  175.7350  145.0420 C   0  0  0  0  0  3  0  0  0  0  0  0
  192.3710  175.8940  143.4760 N   0  0  0  0  0  2  0  0  0  0  0  0
  194.0390  174.0320  143.0930 C   0  0  0  0  0  0  0  0  0  0  0  0
  193.6680  175.3540  143.6490 C   0  0  0  0  0  0  0  0  0  0  0  0
  193.3730  170.9700  141.7850 N   0  0  0  0  0  0  0  0  0  0  0  0
  192.7310  171.8920  144.1950 S   0  0  0  0  0  0  0  0  0  0  0  0
  192.5200  169.3050  143.3290 C   0  0  0  0  0  1  0  0  0  0  0  0
  193.1700  172.2280  141.5930 C   0  0  0  0  0  0  0  0  0  0  0  0
  192.9270  173.0580  142.8110 C   0  0  2  0  0  3  0  0  0  0  0  0
  193.0880  172.7470  140.2630 N   0  0  0  0  0  2  0  0  0  0  0  0
  193.3870  170.5360  143.1690 C   0  0  1  0  0  3  0  0  0  0  0  0
  192.8620  174.1530  139.9620 C   0  0  0  0  0  2  0  0  0  0  0  0
  194.0440  174.7120  139.1980 C   0  0  0  0  0  1  0  0  0  0  0  0
  189.7170  177.2700  144.8690 C   0  0  2  0  0  3  0  0  0  0  0  0
  191.1110  175.6260  145.8480 O   0  0  0  0  0  0  0  0  0  0  0  0
  189.3120  174.1540  146.3960 C   0  0  0  0  0  1  0  0  0  0  0  0
  191.1360  176.9220  145.3170 C   0  0  1  0  0  3  0  0  0  0  0  0
  188.9190  176.5630  145.9410 C   0  0  1  0  0  3  0  0  0  0  0  0
  189.8870  175.5490  146.5340 C   0  0  2  0  0  3  0  0  0  0  0  0
  188.0520  175.9110  143.4750 C   0  0  0  0  0  1  0  0  0  0  0  0
  189.3580  176.7000  143.4750 C   0  0  1  0  0  3  0  0  0  0  0  0
  189.2940  177.7810  142.3940 C   0  0  0  0  0  2  0  0  0  0  0  0
  187.9370  177.8340  141.7060 C   0  0  0  0  0  1  0  0  0  0  0  0
  188.4950  177.5620  147.0040 C   0  0  0  0  0  2  0  0  0  0  0  0
  187.1020  177.4330  147.2600 O   0  0  0  0  0  0  0  0  0  0  0  0
  185.3440  176.5420  146.0910 O   0  0  0  0  0  0  0  0  0  0  0  0
  186.0620  178.6710  145.3230 C   0  0  0  0  0  1  0  0  0  0  0  0
  186.1490  177.4970  146.2410 C   0  0  0  0  0  0  0  0  0  0  0  0
  1  6  1  0  0  0  0
  1  9  2  0  0  0  0
  2  7  2  0  0  0  0
  3  4  1  0  0  0  0
  3  7  1  0  0  0  0
  5  4  1  1  0  0  0
  5 23  1  0  0  0  0
  6  2  1  0  0  0  0
  8 10  1  0  0  0  0
  8  5  1  0  0  0  0
  9 10  1  0  0  0  0
 10  3  2  0  0  0  0
 11 17  1  0  0  0  0
 14 11  2  0  0  0  0
 14 15  1  0  0  0  0
 15  9  1  1  0  0  0
 15 12  1  0  0  0  0
 16 14  1  0  0  0  0
 17 13  1  6  0  0  0
 17 12  1  0  0  0  0
 18 16  1  0  0  0  0
 19 18  1  0  0  0  0
 20 27  1  6  0  0  0
 20 23  1  0  0  0  0
 20 24  1  0  0  0  0
 21 25  1  0  0  0  0
 23 21  1  6  0  0  0
 24 25  1  0  0  0  0
 24 30  1  1  0  0  0
 25 22  1  6  0  0  0
 27 26  1  1  0  0  0
 28 27  1  0  0  0  0
 29 28  1  0  0  0  0
 30 31  1  0  0  0  0
 32 34  2  0  0  0  0
 33 34  1  0  0  0  0
 34 31  1  0  0  0  0
M  END
>  <MODEL>
6

>  <REMARK>
 VINA RESULT:      -6.0      2.224      4.612
  Name = 
  8 active torsions:
  status: ('A' for Active; 'I' for Inactive)
    1  A    between atoms: C_5  and  C_29
    2  A    between atoms: C_10  and  C_29
    3  A    between atoms: C_13  and  C_23
    4  A    between atoms: C_17  and  C_28
    5  A    between atoms: N_18  and  C_32
    6  A    between atoms: C_22  and  O_25
    7  A    between atoms: C_22  and  C_26
    8  A    between atoms: O_25  and  C_31
                            x       y       z     vdW  Elec       q    Type
                         _______ _______ _______ _____ _____    ______ ____

>  <TORSDO>
F 8

$$$$
=
 OpenBabel11062422053D

 34 37  0  0  1  0  0  0  0  0999 V2000
  196.5140  173.4510  143.2660 C   0  0  0  0  0  3  0  0  0  0  0  0
  197.2720  173.9300  145.5340 N   0  0  0  0  0  0  0  0  0  0  0  0
  195.0410  174.9330  145.4890 C   0  0  0  0  0  0  0  0  0  0  0  0
  194.0670  175.7860  146.2220 C   0  0  0  0  0  2  0  0  0  0  0  0
  192.9530  176.0370  145.1980 C   0  0  1  0  0  3  0  0  0  0  0  0
  197.5210  174.1540  144.1160 C   0  0  0  0  0  2  0  0  0  0  0  0
  196.1980  174.3120  146.1580 C   0  0  0  0  0  3  0  0  0  0  0  0
  193.3610  175.3010  144.0110 N   0  0  0  0  0  2  0  0  0  0  0  0
  195.2000  173.7150  143.3040 C   0  0  0  0  0  0  0  0  0  0  0  0
  194.6070  174.6770  144.2620 C   0  0  0  0  0  0  0  0  0  0  0  0
  195.1090  171.8120  140.4940 N   0  0  0  0  0  0  0  0  0  0  0  0
  194.0100  171.2880  142.8570 S   0  0  0  0  0  0  0  0  0  0  0  0
  194.2440  169.5600  140.7480 C   0  0  0  0  0  1  0  0  0  0  0  0
  194.7870  172.9720  140.9510 C   0  0  0  0  0  0  0  0  0  0  0  0
  194.2670  173.0170  142.3510 C   0  0  2  0  0  3  0  0  0  0  0  0
  194.8420  174.1200  140.0990 N   0  0  0  0  0  2  0  0  0  0  0  0
  194.9690  170.7050  141.4220 C   0  0  1  0  0  3  0  0  0  0  0  0
  194.4950  175.4630  140.5390 C   0  0  0  0  0  2  0  0  0  0  0  0
  195.7550  176.2460  140.8450 C   0  0  0  0  0  1  0  0  0  0  0  0
  190.3510  176.1250  145.1980 C   0  0  2  0  0  3  0  0  0  0  0  0
  191.5250  174.0970  145.5310 O   0  0  0  0  0  0  0  0  0  0  0  0
  189.7020  172.7090  144.8580 C   0  0  0  0  0  1  0  0  0  0  0  0
  191.6300  175.4800  145.7270 C   0  0  1  0  0  3  0  0  0  0  0  0
  189.3430  175.0610  145.5690 C   0  0  1  0  0  3  0  0  0  0  0  0
  190.1750  173.8060  145.7910 C   0  0  2  0  0  3  0  0  0  0  0  0
  189.2420  175.5800  142.9540 C   0  0  0  0  0  1  0  0  0  0  0  0
  190.3610  176.3360  143.6640 C   0  0  1  0  0  3  0  0  0  0  0  0
  190.3000  177.8130  143.2710 C   0  0  0  0  0  2  0  0  0  0  0  0
  189.1580  178.1110  142.3090 C   0  0  0  0  0  1  0  0  0  0  0  0
  188.6380  175.4530  146.8570 C   0  0  0  0  0  2  0  0  0  0  0  0
  188.3570  176.8470  146.8490 O   0  0  0  0  0  0  0  0  0  0  0  0
  186.7480  178.2890  147.6140 O   0  0  0  0  0  0  0  0  0  0  0  0
  186.0060  176.7790  145.9370 C   0  0  0  0  0  1  0  0  0  0  0  0
  187.0520  177.3430  146.8400 C   0  0  0  0  0  0  0  0  0  0  0  0
  1  9  2  0  0  0  0
  1  6  1  0  0  0  0
  2  7  2  0  0  0  0
  3  7  1  0  0  0  0
  3  4  1  0  0  0  0
  5 23  1  0  0  0  0
  5  4  1  1  0  0  0
  6  2  1  0  0  0  0
  8 10  1  0  0  0  0
  8  5  1  0  0  0  0
  9 10  1  0  0  0  0
 10  3  2  0  0  0  0
 11 14  2  0  0  0  0
 11 17  1  0  0  0  0
 14 15  1  0  0  0  0
 15 12  1  0  0  0  0
 15  9  1  1  0  0  0
 16 18  1  0  0  0  0
 16 14  1  0  0  0  0
 17 13  1  6  0  0  0
 17 12  1  0  0  0  0
 18 19  1  0  0  0  0
 20 27  1  6  0  0  0
 20 24  1  0  0  0  0
 20 23  1  0  0  0  0
 21 25  1  0  0  0  0
 23 21  1  6  0  0  0
 24 25  1  0  0  0  0
 24 30  1  1  0  0  0
 25 22  1  6  0  0  0
 27 26  1  6  0  0  0
 28 27  1  0  0  0  0
 29 28  1  0  0  0  0
 31 30  1  0  0  0  0
 33 34  1  0  0  0  0
 34 31  1  0  0  0  0
 34 32  2  0  0  0  0
M  END
>  <MODEL>
7

>  <REMARK>
 VINA RESULT:      -5.9      2.486      4.380
  Name = 
  8 active torsions:
  status: ('A' for Active; 'I' for Inactive)
    1  A    between atoms: C_5  and  C_29
    2  A    between atoms: C_10  and  C_29
    3  A    between atoms: C_13  and  C_23
    4  A    between atoms: C_17  and  C_28
    5  A    between atoms: N_18  and  C_32
    6  A    between atoms: C_22  and  O_25
    7  A    between atoms: C_22  and  C_26
    8  A    between atoms: O_25  and  C_31
                            x       y       z     vdW  Elec       q    Type
                         _______ _______ _______ _____ _____    ______ ____

>  <TORSDO>
F 8

$$$$
=
 OpenBabel11062422053D

 34 37  0  0  1  0  0  0  0  0999 V2000
  187.7870  176.6360  144.9750 C   0  0  0  0  0  3  0  0  0  0  0  0
  188.5520  177.5080  147.1210 N   0  0  0  0  0  0  0  0  0  0  0  0
  190.4600  176.1710  146.3720 C   0  0  0  0  0  0  0  0  0  0  0  0
  191.7850  175.6080  146.7490 C   0  0  0  0  0  2  0  0  0  0  0  0
  192.1250  174.6590  145.5930 C   0  0  1  0  0  3  0  0  0  0  0  0
  187.5640  176.6710  146.4520 C   0  0  0  0  0  2  0  0  0  0  0  0
  189.8290  177.2680  147.1280 C   0  0  0  0  0  3  0  0  0  0  0  0
  191.0100  174.7820  144.6660 N   0  0  0  0  0  2  0  0  0  0  0  0
  188.9030  176.1570  144.4070 C   0  0  0  0  0  0  0  0  0  0  0  0
  190.0660  175.6930  145.1990 C   0  0  0  0  0  0  0  0  0  0  0  0
  187.0890  175.6890  141.5760 N   0  0  0  0  0  0  0  0  0  0  0  0
  188.7070  177.7160  142.1620 S   0  0  0  0  0  0  0  0  0  0  0  0
  186.9740  177.5710  140.0490 C   0  0  0  0  0  1  0  0  0  0  0  0
  188.0110  175.1520  142.2970 C   0  0  0  0  0  0  0  0  0  0  0  0
  189.0070  176.0820  142.9070 C   0  0  2  0  0  3  0  0  0  0  0  0
  188.1030  173.7280  142.4010 N   0  0  0  0  0  2  0  0  0  0  0  0
  187.1140  177.1370  141.4930 C   0  0  1  0  0  3  0  0  0  0  0  0
  189.1130  173.0450  143.1940 C   0  0  0  0  0  2  0  0  0  0  0  0
  189.8030  171.9910  142.3520 C   0  0  0  0  0  1  0  0  0  0  0  0
  194.4150  174.0220  144.5320 C   0  0  2  0  0  3  0  0  0  0  0  0
  193.1710  175.8870  143.7730 O   0  0  0  0  0  0  0  0  0  0  0  0
  194.2100  175.9470  141.6240 C   0  0  0  0  0  1  0  0  0  0  0  0
  193.4180  175.1140  144.9150 C   0  0  1  0  0  3  0  0  0  0  0  0
  195.2700  174.7780  143.5410 C   0  0  1  0  0  3  0  0  0  0  0  0
  194.4150  175.9670  143.1250 C   0  0  2  0  0  3  0  0  0  0  0  0
  194.4960  172.3580  142.5860 C   0  0  0  0  0  1  0  0  0  0  0  0
  193.7530  172.8030  143.8430 C   0  0  1  0  0  3  0  0  0  0  0  0
  193.5940  171.6080  144.7840 C   0  0  0  0  0  2  0  0  0  0  0  0
  193.0020  170.3930  144.0840 C   0  0  0  0  0  1  0  0  0  0  0  0
  196.5370  175.2620  144.2250 C   0  0  0  0  0  2  0  0  0  0  0  0
  197.4610  174.1880  144.3480 O   0  0  0  0  0  0  0  0  0  0  0  0
  197.2230  173.5990  146.5500 O   0  0  0  0  0  0  0  0  0  0  0  0
  197.3970  171.7660  145.0510 C   0  0  0  0  0  1  0  0  0  0  0  0
  197.3550  173.2270  145.3550 C   0  0  0  0  0  0  0  0  0  0  0  0
  1  6  1  0  0  0  0
  2  7  2  0  0  0  0
  3  4  1  0  0  0  0
  3  7  1  0  0  0  0
  5  4  1  1  0  0  0
  6  2  1  0  0  0  0
  8 10  1  0  0  0  0
  8  5  1  0  0  0  0
  9  1  2  0  0  0  0
  9 10  1  0  0  0  0
 10  3  2  0  0  0  0
 11 14  2  0  0  0  0
 12 15  1  0  0  0  0
 14 16  1  0  0  0  0
 14 15  1  0  0  0  0
 15  9  1  1  0  0  0
 16 18  1  0  0  0  0
 17 13  1  6  0  0  0
 17 11  1  0  0  0  0
 17 12  1  0  0  0  0
 19 18  1  0  0  0  0
 20 27  1  6  0  0  0
 20 23  1  0  0  0  0
 23 21  1  6  0  0  0
 23  5  1  0  0  0  0
 24 30  1  1  0  0  0
 24 20  1  0  0  0  0
 25 22  1  6  0  0  0
 25 24  1  0  0  0  0
 25 21  1  0  0  0  0
 27 26  1  6  0  0  0
 27 28  1  0  0  0  0
 29 28  1  0  0  0  0
 30 31  1  0  0  0  0
 31 34  1  0  0  0  0
 33 34  1  0  0  0  0
 34 32  2  0  0  0  0
M  END
>  <MODEL>
8

>  <REMARK>
 VINA RESULT:      -5.8      3.178      8.090
  Name = 
  8 active torsions:
  status: ('A' for Active; 'I' for Inactive)
    1  A    between atoms: C_5  and  C_29
    2  A    between atoms: C_10  and  C_29
    3  A    between atoms: C_13  and  C_23
    4  A    between atoms: C_17  and  C_28
    5  A    between atoms: N_18  and  C_32
    6  A    between atoms: C_22  and  O_25
    7  A    between atoms: C_22  and  C_26
    8  A    between atoms: O_25  and  C_31
                            x       y       z     vdW  Elec       q    Type
                         _______ _______ _______ _____ _____    ______ ____

>  <TORSDO>
F 8

$$$$
=
 OpenBabel11062422053D

 34 37  0  0  1  0  0  0  0  0999 V2000
  189.3010  175.3100  145.4590 C   0  0  0  0  0  3  0  0  0  0  0  0
  190.6950  175.5380  147.4470 N   0  0  0  0  0  0  0  0  0  0  0  0
  192.1480  174.3090  145.9090 C   0  0  0  0  0  0  0  0  0  0  0  0
  193.4340  173.5750  145.7620 C   0  0  0  0  0  2  0  0  0  0  0  0
  193.3370  172.9360  144.3700 C   0  0  1  0  0  3  0  0  0  0  0  0
  189.4640  174.9770  146.9050 C   0  0  0  0  0  2  0  0  0  0  0  0
  191.8870  175.2140  147.0430 C   0  0  0  0  0  3  0  0  0  0  0  0
  192.0520  173.3740  143.8450 N   0  0  0  0  0  2  0  0  0  0  0  0
  190.1610  174.9170  144.5080 C   0  0  0  0  0  0  0  0  0  0  0  0
  191.4090  174.1810  144.8150 C   0  0  0  0  0  0  0  0  0  0  0  0
  187.6710  175.7240  142.3450 N   0  0  0  0  0  0  0  0  0  0  0  0
  189.9550  177.0200  142.7640 S   0  0  0  0  0  0  0  0  0  0  0  0
  187.8180  177.9110  141.3050 C   0  0  0  0  0  1  0  0  0  0  0  0
  188.5100  174.7900  142.6310 C   0  0  0  0  0  0  0  0  0  0  0  0
  189.8720  175.2260  143.0630 C   0  0  2  0  0  3  0  0  0  0  0  0
  188.1520  173.4190  142.4370 N   0  0  0  0  0  2  0  0  0  0  0  0
  188.1490  177.0820  142.5270 C   0  0  1  0  0  3  0  0  0  0  0  0
  189.0420  172.3070  142.7360 C   0  0  0  0  0  2  0  0  0  0  0  0
  189.7870  171.8920  141.4850 C   0  0  0  0  0  1  0  0  0  0  0  0
  195.8430  172.8210  143.6750 C   0  0  2  0  0  3  0  0  0  0  0  0
  194.1480  173.3830  142.1220 O   0  0  0  0  0  0  0  0  0  0  0  0
  195.4320  172.7630  140.2070 C   0  0  0  0  0  1  0  0  0  0  0  0
  194.4680  173.4580  143.4830 C   0  0  1  0  0  3  0  0  0  0  0  0
  196.5140  173.2440  142.3890 C   0  0  1  0  0  3  0  0  0  0  0  0
  195.3660  173.6120  141.4600 C   0  0  2  0  0  3  0  0  0  0  0  0
  196.7660  170.5940  142.8080 C   0  0  0  0  0  1  0  0  0  0  0  0
  195.7940  171.2760  143.7670 C   0  0  1  0  0  3  0  0  0  0  0  0
  196.0410  170.7610  145.1860 C   0  0  0  0  0  2  0  0  0  0  0  0
  196.8160  171.7560  146.0380 C   0  0  0  0  0  1  0  0  0  0  0  0
  197.3870  174.4610  142.6450 C   0  0  0  0  0  2  0  0  0  0  0  0
  196.6360  175.6490  142.4260 O   0  0  0  0  0  0  0  0  0  0  0  0
  197.3410  177.5410  143.5120 O   0  0  0  0  0  0  0  0  0  0  0  0
  195.3260  176.6110  144.3550 C   0  0  0  0  0  1  0  0  0  0  0  0
  196.4830  176.6250  143.4130 C   0  0  0  0  0  0  0  0  0  0  0  0
  1  6  1  0  0  0  0
  3  7  1  0  0  0  0
  4  3  1  0  0  0  0
  5  4  1  1  0  0  0
  6  2  1  0  0  0  0
  7  2  2  0  0  0  0
  8  5  1  0  0  0  0
  8 10  1  0  0  0  0
  9 10  1  0  0  0  0
  9  1  2  0  0  0  0
 10  3  2  0  0  0  0
 11 17  1  0  0  0  0
 11 14  2  0  0  0  0
 12 15  1  0  0  0  0
 14 15  1  0  0  0  0
 15  9  1  1  0  0  0
 16 14  1  0  0  0  0
 16 18  1  0  0  0  0
 17 13  1  6  0  0  0
 17 12  1  0  0  0  0
 19 18  1  0  0  0  0
 20 27  1  6  0  0  0
 23 21  1  6  0  0  0
 23 20  1  0  0  0  0
 23  5  1  0  0  0  0
 24 30  1  1  0  0  0
 24 20  1  0  0  0  0
 25 22  1  6  0  0  0
 25 21  1  0  0  0  0
 25 24  1  0  0  0  0
 27 26  1  6  0  0  0
 27 28  1  0  0  0  0
 28 29  1  0  0  0  0
 31 30  1  0  0  0  0
 31 34  1  0  0  0  0
 34 32  2  0  0  0  0
 34 33  1  0  0  0  0
M  END
>  <MODEL>
9

>  <REMARK>
 VINA RESULT:      -5.8      3.431      7.892
  Name = 
  8 active torsions:
  status: ('A' for Active; 'I' for Inactive)
    1  A    between atoms: C_5  and  C_29
    2  A    between atoms: C_10  and  C_29
    3  A    between atoms: C_13  and  C_23
    4  A    between atoms: C_17  and  C_28
    5  A    between atoms: N_18  and  C_32
    6  A    between atoms: C_22  and  O_25
    7  A    between atoms: C_22  and  C_26
    8  A    between atoms: O_25  and  C_31
                            x       y       z     vdW  Elec       q    Type
                         _______ _______ _______ _____ _____    ______ ____

>  <TORSDO>
F 8

$$$$
