=
 OpenBabel11062420103D

 35 39  0  0  1  0  0  0  0  0999 V2000
  191.4150  174.9450  144.3720 C   0  0  0  0  0  0  0  0  0  0  0  0
  188.2670  176.2770  141.8230 C   0  0  0  0  0  0  0  0  0  0  0  0
  190.2330  176.8630  143.2020 C   0  0  0  0  0  3  0  0  0  0  0  0
  188.4750  174.9410  142.1870 C   0  0  0  0  0  0  0  0  0  0  0  0
  190.4130  175.5030  143.5340 C   0  0  0  0  0  0  0  0  0  0  0  0
  189.5110  173.3010  143.2050 C   0  0  0  0  0  0  0  0  0  0  0  0
  191.4040  173.5280  144.5740 C   0  0  0  0  0  3  0  0  0  0  0  0
  190.4530  172.7240  143.9920 N   0  0  0  0  0  0  0  0  0  0  0  0
  188.4360  172.6780  142.5010 N   0  0  0  0  0  0  0  0  0  0  0  0
  189.5020  174.6230  142.9960 C   0  0  0  0  0  0  0  0  0  0  0  0
  187.8110  173.6560  141.8880 C   0  0  0  0  0  3  0  0  0  0  0  0
  189.1630  177.2450  142.3460 C   0  0  0  0  0  3  0  0  0  0  0  0
  192.4790  175.7770  144.9910 C   0  0  0  0  0  0  0  0  0  0  0  0
  192.2000  176.4640  146.0110 O   0  0  0  0  0  0  0  0  0  0  0  0
  196.2330  175.5810  144.7250 N   0  0  0  0  0  0  0  0  0  0  0  0
  196.4480  175.8580  143.4110 C   0  0  0  0  0  0  0  0  0  0  0  0
  194.9810  175.5540  145.2580 C   0  0  0  0  0  0  0  0  0  0  0  0
  194.8380  175.2830  146.5790 F   0  0  0  0  0  0  0  0  0  0  0  0
  197.8330  175.8760  142.8730 C   0  0  0  0  0  1  0  0  0  0  0  0
  195.3710  176.1260  142.5680 C   0  0  0  0  0  3  0  0  0  0  0  0
  193.8600  175.8250  144.4480 C   0  0  0  0  0  0  0  0  0  0  0  0
  194.0780  176.1060  143.0910 C   0  0  0  0  0  3  0  0  0  0  0  0
  187.1560  176.6830  140.9100 C   0  0  0  0  0  2  0  0  0  0  0  0
  186.6880  178.1070  141.1890 C   0  0  0  0  0  2  0  0  0  0  0  0
  185.1880  178.1690  141.4490 C   0  0  0  0  0  2  0  0  0  0  0  0
  184.9160  178.2570  142.8810 N   0  0  0  0  0  2  0  0  0  0  0  0
  185.9310  179.0700  143.5640 C   0  0  1  0  0  3  0  0  0  0  0  0
  185.5420  180.3950  143.6960 F   0  0  0  0  0  0  0  0  0  0  0  0
  187.1880  176.5510  147.1970 C   0  0  0  0  0  2  0  0  0  0  0  0
  187.5150  176.3840  145.7160 C   0  0  0  0  0  2  0  0  0  0  0  0
  186.4030  176.9430  144.8320 C   0  0  0  0  0  2  0  0  0  0  0  0
  186.3810  178.4700  144.8980 C   0  0  2  0  0  3  0  0  0  0  0  0
  185.5780  179.0240  146.0850 C   0  0  0  0  0  2  0  0  0  0  0  0
  185.8040  178.2710  147.3980 C   0  0  0  0  0  2  0  0  0  0  0  0
  187.1460  177.9080  147.5410 O   0  0  0  0  0  0  0  0  0  0  0  0
  1  7  2  0  0  0  0
  1 13  1  0  0  0  0
  2  4  2  0  0  0  0
  2 12  1  0  0  0  0
  3  5  1  0  0  0  0
  4 10  1  0  0  0  0
  5  1  1  0  0  0  0
  6  8  2  0  0  0  0
  8  7  1  0  0  0  0
  9  6  1  0  0  0  0
 10  6  1  0  0  0  0
 10  5  2  0  0  0  0
 11  4  1  0  0  0  0
 11  9  2  0  0  0  0
 12  3  2  0  0  0  0
 13 14  2  0  0  0  0
 15 17  1  0  0  0  0
 16 15  2  0  0  0  0
 17 18  1  0  0  0  0
 19 16  1  0  0  0  0
 20 22  2  0  0  0  0
 20 16  1  0  0  0  0
 21 13  1  0  0  0  0
 21 17  2  0  0  0  0
 22 21  1  0  0  0  0
 23 24  1  0  0  0  0
 23  2  1  0  0  0  0
 24 25  1  0  0  0  0
 25 26  1  0  0  0  0
 26 27  1  0  0  0  0
 27 28  1  1  0  0  0
 29 35  1  0  0  0  0
 30 29  1  0  0  0  0
 31 32  1  0  0  0  0
 31 30  1  0  0  0  0
 32 27  1  6  0  0  0
 32 33  1  0  0  0  0
 33 34  1  0  0  0  0
 34 35  1  0  0  0  0
M  END
>  <MODEL>
1

>  <REMARK>
 VINA RESULT:      -7.9      0.000      0.000
  Name = 
  8 active torsions:
  status: ('A' for Active; 'I' for Inactive)
    1  A    between atoms: C_2  and  C_3
    2  A    between atoms: C_3  and  C_28
    3  A    between atoms: C_4  and  C_10
    4  A    between atoms: N_9  and  C_19
    5  A    between atoms: N_9  and  C_34
    6  A    between atoms: C_10  and  C_33
    7  A    between atoms: C_19  and  C_25
    8  A    between atoms: C_33  and  C_34
                            x       y       z     vdW  Elec       q    Type
                         _______ _______ _______ _____ _____    ______ ____

>  <TORSDO>
F 8

$$$$
=
 OpenBabel11062420103D

 35 39  0  0  1  0  0  0  0  0999 V2000
  189.0420  174.4920  142.2360 C   0  0  0  0  0  0  0  0  0  0  0  0
  193.0370  175.2320  143.5270 C   0  0  0  0  0  0  0  0  0  0  0  0
  191.0340  176.0610  142.3410 C   0  0  0  0  0  3  0  0  0  0  0  0
  192.3380  174.0440  143.7690 C   0  0  0  0  0  0  0  0  0  0  0  0
  190.3620  174.8510  142.6160 C   0  0  0  0  0  0  0  0  0  0  0  0
  190.6060  172.7060  143.6680 C   0  0  0  0  0  0  0  0  0  0  0  0
  188.5620  173.2000  142.6240 C   0  0  0  0  0  3  0  0  0  0  0  0
  189.3490  172.3220  143.3320 N   0  0  0  0  0  0  0  0  0  0  0  0
  191.5940  171.9750  144.3940 N   0  0  0  0  0  0  0  0  0  0  0  0
  191.0750  173.9100  143.3210 C   0  0  0  0  0  0  0  0  0  0  0  0
  192.6350  172.7710  144.4590 C   0  0  0  0  0  3  0  0  0  0  0  0
  192.3680  176.2490  142.7980 C   0  0  0  0  0  3  0  0  0  0  0  0
  188.1500  175.4260  141.5000 C   0  0  0  0  0  0  0  0  0  0  0  0
  188.0420  175.3080  140.2490 O   0  0  0  0  0  0  0  0  0  0  0  0
  186.9540  178.8140  142.6370 N   0  0  0  0  0  0  0  0  0  0  0  0
  185.9050  178.4990  143.4410 C   0  0  0  0  0  0  0  0  0  0  0  0
  187.6920  177.8580  142.0110 C   0  0  0  0  0  0  0  0  0  0  0  0
  188.7350  178.2410  141.2320 F   0  0  0  0  0  0  0  0  0  0  0  0
  185.1280  179.5780  144.1050 C   0  0  0  0  0  1  0  0  0  0  0  0
  185.5560  177.1650  143.6450 C   0  0  0  0  0  3  0  0  0  0  0  0
  187.3840  176.4940  142.1900 C   0  0  0  0  0  0  0  0  0  0  0  0
  186.2970  176.1660  143.0140 C   0  0  0  0  0  3  0  0  0  0  0  0
  194.4320  175.4420  144.0210 C   0  0  0  0  0  2  0  0  0  0  0  0
  194.5160  176.6190  144.9870 C   0  0  0  0  0  2  0  0  0  0  0  0
  194.3480  176.1760  146.4350 C   0  0  0  0  0  2  0  0  0  0  0  0
  193.0650  176.6280  146.9670 N   0  0  0  0  0  2  0  0  0  0  0  0
  192.0640  175.5550  146.9180 C   0  0  1  0  0  3  0  0  0  0  0  0
  192.2050  174.6550  147.9640 F   0  0  0  0  0  0  0  0  0  0  0  0
  187.5520  176.3380  146.5240 C   0  0  0  0  0  2  0  0  0  0  0  0
  188.3070  175.2750  147.3170 C   0  0  0  0  0  2  0  0  0  0  0  0
  189.6370  174.9250  146.6550 C   0  0  0  0  0  2  0  0  0  0  0  0
  190.6300  176.0780  146.8030 C   0  0  2  0  0  3  0  0  0  0  0  0
  190.4890  177.1550  145.7160 C   0  0  0  0  0  2  0  0  0  0  0  0
  189.0410  177.5180  145.3810 C   0  0  0  0  0  2  0  0  0  0  0  0
  188.2530  177.5500  146.5360 O   0  0  0  0  0  0  0  0  0  0  0  0
  1  5  1  0  0  0  0
  1  7  2  0  0  0  0
  2  4  1  0  0  0  0
  2 23  1  0  0  0  0
  3  5  2  0  0  0  0
  3 12  1  0  0  0  0
  4 11  1  0  0  0  0
  5 10  1  0  0  0  0
  6  9  1  0  0  0  0
  7  8  1  0  0  0  0
  8  6  2  0  0  0  0
  9 11  2  0  0  0  0
 10  6  1  0  0  0  0
 10  4  2  0  0  0  0
 12  2  2  0  0  0  0
 13 21  1  0  0  0  0
 13  1  1  0  0  0  0
 14 13  2  0  0  0  0
 15 16  1  0  0  0  0
 16 20  2  0  0  0  0
 16 19  1  0  0  0  0
 17 21  1  0  0  0  0
 17 15  2  0  0  0  0
 18 17  1  0  0  0  0
 21 22  2  0  0  0  0
 22 20  1  0  0  0  0
 23 24  1  0  0  0  0
 24 25  1  0  0  0  0
 25 26  1  0  0  0  0
 27 26  1  0  0  0  0
 27 28  1  1  0  0  0
 29 35  1  0  0  0  0
 29 30  1  0  0  0  0
 31 32  1  0  0  0  0
 31 30  1  0  0  0  0
 32 27  1  6  0  0  0
 33 32  1  0  0  0  0
 34 33  1  0  0  0  0
 34 35  1  0  0  0  0
M  END
>  <MODEL>
2

>  <REMARK>
 VINA RESULT:      -7.9      2.223      6.666
  Name = 
  8 active torsions:
  status: ('A' for Active; 'I' for Inactive)
    1  A    between atoms: C_2  and  C_3
    2  A    between atoms: C_3  and  C_28
    3  A    between atoms: C_4  and  C_10
    4  A    between atoms: N_9  and  C_19
    5  A    between atoms: N_9  and  C_34
    6  A    between atoms: C_10  and  C_33
    7  A    between atoms: C_19  and  C_25
    8  A    between atoms: C_33  and  C_34
                            x       y       z     vdW  Elec       q    Type
                         _______ _______ _______ _____ _____    ______ ____

>  <TORSDO>
F 8

$$$$
=
 OpenBabel11062420103D

 35 39  0  0  1  0  0  0  0  0999 V2000
  190.9580  174.4140  145.0270 C   0  0  0  0  0  0  0  0  0  0  0  0
  189.0390  177.2520  142.4890 C   0  0  0  0  0  0  0  0  0  0  0  0
  190.6560  176.8310  144.3110 C   0  0  0  0  0  3  0  0  0  0  0  0
  188.7960  175.8740  142.4560 C   0  0  0  0  0  0  0  0  0  0  0  0
  190.3890  175.4470  144.2360 C   0  0  0  0  0  0  0  0  0  0  0  0
  189.0740  173.7960  143.0900 C   0  0  0  0  0  0  0  0  0  0  0  0
  190.5330  173.0700  144.7800 C   0  0  0  0  0  3  0  0  0  0  0  0
  189.5960  172.7760  143.8180 N   0  0  0  0  0  0  0  0  0  0  0  0
  188.1000  173.7370  142.0480 N   0  0  0  0  0  0  0  0  0  0  0  0
  189.4590  175.0600  143.3000 C   0  0  0  0  0  0  0  0  0  0  0  0
  187.9290  174.9790  141.6630 C   0  0  0  0  0  3  0  0  0  0  0  0
  189.9830  177.7280  143.4370 C   0  0  0  0  0  3  0  0  0  0  0  0
  191.9980  174.6890  146.0530 C   0  0  0  0  0  0  0  0  0  0  0  0
  191.6380  175.0660  147.2010 O   0  0  0  0  0  0  0  0  0  0  0  0
  195.6140  175.4760  145.3360 N   0  0  0  0  0  0  0  0  0  0  0  0
  196.1790  174.2400  145.2950 C   0  0  0  0  0  0  0  0  0  0  0  0
  194.2840  175.6500  145.5690 C   0  0  0  0  0  0  0  0  0  0  0  0
  193.7820  176.9100  145.5840 F   0  0  0  0  0  0  0  0  0  0  0  0
  197.6360  174.0990  145.0380 C   0  0  0  0  0  1  0  0  0  0  0  0
  195.3950  173.1060  145.4950 C   0  0  0  0  0  3  0  0  0  0  0  0
  193.4480  174.5330  145.7700 C   0  0  0  0  0  0  0  0  0  0  0  0
  194.0290  173.2580  145.7350 C   0  0  0  0  0  3  0  0  0  0  0  0
  188.3500  178.1990  141.5610 C   0  0  0  0  0  2  0  0  0  0  0  0
  187.0320  178.6990  142.1420 C   0  0  0  0  0  2  0  0  0  0  0  0
  185.8360  177.9670  141.5450 C   0  0  0  0  0  2  0  0  0  0  0  0
  184.9230  177.5290  142.5970 N   0  0  0  0  0  2  0  0  0  0  0  0
  184.6850  178.6010  143.5710 C   0  0  1  0  0  3  0  0  0  0  0  0
  183.3390  178.9200  143.6870 F   0  0  0  0  0  0  0  0  0  0  0  0
  186.7240  177.0200  147.3750 C   0  0  0  0  0  2  0  0  0  0  0  0
  187.0500  176.7790  145.9050 C   0  0  0  0  0  2  0  0  0  0  0  0
  185.8010  176.8760  145.0320 C   0  0  0  0  0  2  0  0  0  0  0  0
  185.3250  178.3260  144.9340 C   0  0  2  0  0  3  0  0  0  0  0  0
  184.4220  178.7580  146.1000 C   0  0  0  0  0  2  0  0  0  0  0  0
  184.8940  178.2680  147.4700 C   0  0  0  0  0  2  0  0  0  0  0  0
  186.2870  178.3350  147.5730 O   0  0  0  0  0  0  0  0  0  0  0  0
  1 13  1  0  0  0  0
  2 12  1  0  0  0  0
  4  2  2  0  0  0  0
  4 10  1  0  0  0  0
  5  3  1  0  0  0  0
  5  1  1  0  0  0  0
  6 10  1  0  0  0  0
  6  8  2  0  0  0  0
  7  1  2  0  0  0  0
  8  7  1  0  0  0  0
  9  6  1  0  0  0  0
 10  5  2  0  0  0  0
 11  9  2  0  0  0  0
 11  4  1  0  0  0  0
 12  3  2  0  0  0  0
 13 14  2  0  0  0  0
 15 17  1  0  0  0  0
 16 15  2  0  0  0  0
 16 20  1  0  0  0  0
 17 18  1  0  0  0  0
 17 21  2  0  0  0  0
 19 16  1  0  0  0  0
 20 22  2  0  0  0  0
 21 13  1  0  0  0  0
 22 21  1  0  0  0  0
 23 24  1  0  0  0  0
 23  2  1  0  0  0  0
 25 24  1  0  0  0  0
 25 26  1  0  0  0  0
 26 27  1  0  0  0  0
 27 28  1  1  0  0  0
 29 35  1  0  0  0  0
 30 29  1  0  0  0  0
 31 30  1  0  0  0  0
 32 27  1  6  0  0  0
 32 31  1  0  0  0  0
 32 33  1  0  0  0  0
 33 34  1  0  0  0  0
 34 35  1  0  0  0  0
M  END
>  <MODEL>
3

>  <REMARK>
 VINA RESULT:      -7.9      1.458      1.670
  Name = 
  8 active torsions:
  status: ('A' for Active; 'I' for Inactive)
    1  A    between atoms: C_2  and  C_3
    2  A    between atoms: C_3  and  C_28
    3  A    between atoms: C_4  and  C_10
    4  A    between atoms: N_9  and  C_19
    5  A    between atoms: N_9  and  C_34
    6  A    between atoms: C_10  and  C_33
    7  A    between atoms: C_19  and  C_25
    8  A    between atoms: C_33  and  C_34
                            x       y       z     vdW  Elec       q    Type
                         _______ _______ _______ _____ _____    ______ ____

>  <TORSDO>
F 8

$$$$
=
 OpenBabel11062420103D

 35 39  0  0  1  0  0  0  0  0999 V2000
  192.6970  176.3080  146.1740 C   0  0  0  0  0  0  0  0  0  0  0  0
  189.3230  177.5660  143.8900 C   0  0  0  0  0  0  0  0  0  0  0  0
  191.7790  177.5770  144.1760 C   0  0  0  0  0  3  0  0  0  0  0  0
  189.2440  176.7860  145.0500 C   0  0  0  0  0  0  0  0  0  0  0  0
  191.6540  176.7810  145.3350 C   0  0  0  0  0  0  0  0  0  0  0  0
  190.0590  175.6960  146.7660 C   0  0  0  0  0  0  0  0  0  0  0  0
  192.3360  175.5130  147.3070 C   0  0  0  0  0  3  0  0  0  0  0  0
  191.0230  175.2180  147.5920 N   0  0  0  0  0  0  0  0  0  0  0  0
  188.6450  175.5220  146.8570 N   0  0  0  0  0  0  0  0  0  0  0  0
  190.3720  176.4390  145.6980 C   0  0  0  0  0  0  0  0  0  0  0  0
  188.1500  176.1720  145.8300 C   0  0  0  0  0  3  0  0  0  0  0  0
  190.6150  177.9660  143.4570 C   0  0  0  0  0  3  0  0  0  0  0  0
  194.1290  176.5780  145.8790 C   0  0  0  0  0  0  0  0  0  0  0  0
  194.6100  177.7060  146.1730 O   0  0  0  0  0  0  0  0  0  0  0  0
  196.1120  174.6410  143.3260 N   0  0  0  0  0  0  0  0  0  0  0  0
  196.7140  173.6880  144.0850 C   0  0  0  0  0  0  0  0  0  0  0  0
  195.2790  175.5710  143.8680 C   0  0  0  0  0  0  0  0  0  0  0  0
  194.7020  176.4880  143.0510 F   0  0  0  0  0  0  0  0  0  0  0  0
  197.6170  172.6930  143.4490 C   0  0  0  0  0  1  0  0  0  0  0  0
  196.4860  173.6420  145.4590 C   0  0  0  0  0  3  0  0  0  0  0  0
  195.0110  175.5620  145.2520 C   0  0  0  0  0  0  0  0  0  0  0  0
  195.6350  174.5830  146.0380 C   0  0  0  0  0  3  0  0  0  0  0  0
  188.1060  177.9620  143.1190 C   0  0  0  0  0  2  0  0  0  0  0  0
  188.2530  177.6500  141.6340 C   0  0  0  0  0  2  0  0  0  0  0  0
  187.4840  176.3960  141.2400 C   0  0  0  0  0  2  0  0  0  0  0  0
  188.3820  175.2480  141.1500 N   0  0  0  0  0  2  0  0  0  0  0  0
  188.2160  174.3550  142.3040 C   0  0  1  0  0  3  0  0  0  0  0  0
  187.4660  173.2290  141.9950 F   0  0  0  0  0  0  0  0  0  0  0  0
  192.5100  173.3230  143.5760 C   0  0  0  0  0  2  0  0  0  0  0  0
  191.9940  174.3610  142.5840 C   0  0  0  0  0  2  0  0  0  0  0  0
  190.6750  173.9240  141.9530 C   0  0  0  0  0  2  0  0  0  0  0  0
  189.5410  173.9920  142.9770 C   0  0  2  0  0  3  0  0  0  0  0  0
  189.4250  172.7340  143.8520 C   0  0  0  0  0  2  0  0  0  0  0  0
  190.7680  172.1800  144.3310 C   0  0  0  0  0  2  0  0  0  0  0  0
  191.6440  173.2160  144.6700 O   0  0  0  0  0  0  0  0  0  0  0  0
  1  7  2  0  0  0  0
  2  4  1  0  0  0  0
  3  5  2  0  0  0  0
  4 10  2  0  0  0  0
  4 11  1  0  0  0  0
  5 10  1  0  0  0  0
  5  1  1  0  0  0  0
  6  9  1  0  0  0  0
  6  8  2  0  0  0  0
  7  8  1  0  0  0  0
 10  6  1  0  0  0  0
 11  9  2  0  0  0  0
 12  2  2  0  0  0  0
 12  3  1  0  0  0  0
 13 14  2  0  0  0  0
 13  1  1  0  0  0  0
 15 17  2  0  0  0  0
 15 16  1  0  0  0  0
 16 20  2  0  0  0  0
 17 21  1  0  0  0  0
 18 17  1  0  0  0  0
 19 16  1  0  0  0  0
 20 22  1  0  0  0  0
 21 13  1  0  0  0  0
 21 22  2  0  0  0  0
 23  2  1  0  0  0  0
 24 23  1  0  0  0  0
 25 24  1  0  0  0  0
 26 25  1  0  0  0  0
 26 27  1  0  0  0  0
 27 28  1  6  0  0  0
 29 35  1  0  0  0  0
 30 29  1  0  0  0  0
 31 30  1  0  0  0  0
 31 32  1  0  0  0  0
 32 27  1  6  0  0  0
 32 33  1  0  0  0  0
 33 34  1  0  0  0  0
 34 35  1  0  0  0  0
M  END
>  <MODEL>
4

>  <REMARK>
 VINA RESULT:      -7.8      2.808      4.454
  Name = 
  8 active torsions:
  status: ('A' for Active; 'I' for Inactive)
    1  A    between atoms: C_2  and  C_3
    2  A    between atoms: C_3  and  C_28
    3  A    between atoms: C_4  and  C_10
    4  A    between atoms: N_9  and  C_19
    5  A    between atoms: N_9  and  C_34
    6  A    between atoms: C_10  and  C_33
    7  A    between atoms: C_19  and  C_25
    8  A    between atoms: C_33  and  C_34
                            x       y       z     vdW  Elec       q    Type
                         _______ _______ _______ _____ _____    ______ ____

>  <TORSDO>
F 8

$$$$
=
 OpenBabel11062420103D

 35 39  0  0  1  0  0  0  0  0999 V2000
  192.8920  176.4330  145.8400 C   0  0  0  0  0  0  0  0  0  0  0  0
  189.2030  177.4470  143.9580 C   0  0  0  0  0  0  0  0  0  0  0  0
  191.6690  177.6210  143.9590 C   0  0  0  0  0  3  0  0  0  0  0  0
  189.3090  176.6740  145.1210 C   0  0  0  0  0  0  0  0  0  0  0  0
  191.7300  176.8290  145.1260 C   0  0  0  0  0  0  0  0  0  0  0  0
  190.3850  175.6560  146.7340 C   0  0  0  0  0  0  0  0  0  0  0  0
  192.7170  175.6270  147.0090 C   0  0  0  0  0  3  0  0  0  0  0  0
  191.4680  175.2500  147.4440 N   0  0  0  0  0  0  0  0  0  0  0  0
  189.0060  175.3920  146.9870 N   0  0  0  0  0  0  0  0  0  0  0  0
  190.5240  176.4070  145.6350 C   0  0  0  0  0  0  0  0  0  0  0  0
  188.3540  175.9980  146.0230 C   0  0  0  0  0  3  0  0  0  0  0  0
  190.4070  177.9250  143.3780 C   0  0  0  0  0  3  0  0  0  0  0  0
  194.2600  176.7930  145.3820 C   0  0  0  0  0  0  0  0  0  0  0  0
  194.7690  177.8780  145.7740 O   0  0  0  0  0  0  0  0  0  0  0  0
  196.5070  174.0430  144.1210 N   0  0  0  0  0  0  0  0  0  0  0  0
  196.4740  174.2320  142.7750 C   0  0  0  0  0  0  0  0  0  0  0  0
  195.8180  174.8460  144.9770 C   0  0  0  0  0  0  0  0  0  0  0  0
  195.9040  174.6090  146.3100 F   0  0  0  0  0  0  0  0  0  0  0  0
  197.2440  173.3300  141.8800 C   0  0  0  0  0  1  0  0  0  0  0  0
  195.7200  175.2720  142.2340 C   0  0  0  0  0  3  0  0  0  0  0  0
  195.0460  175.9150  144.4780 C   0  0  0  0  0  0  0  0  0  0  0  0
  195.0060  176.1090  143.0900 C   0  0  0  0  0  3  0  0  0  0  0  0
  187.8820  177.7550  143.3320 C   0  0  0  0  0  2  0  0  0  0  0  0
  187.2510  176.5150  142.7060 C   0  0  0  0  0  2  0  0  0  0  0  0
  187.6990  176.3200  141.2630 C   0  0  0  0  0  2  0  0  0  0  0  0
  188.4830  175.0950  141.1280 N   0  0  0  0  0  2  0  0  0  0  0  0
  188.3160  174.2280  142.3000 C   0  0  1  0  0  3  0  0  0  0  0  0
  187.5590  173.1000  142.0170 F   0  0  0  0  0  0  0  0  0  0  0  0
  192.6100  173.2070  143.5810 C   0  0  0  0  0  2  0  0  0  0  0  0
  192.0940  174.2360  142.5790 C   0  0  0  0  0  2  0  0  0  0  0  0
  190.7750  173.7930  141.9530 C   0  0  0  0  0  2  0  0  0  0  0  0
  189.6410  173.8710  142.9760 C   0  0  2  0  0  3  0  0  0  0  0  0
  189.5250  172.6200  143.8620 C   0  0  0  0  0  2  0  0  0  0  0  0
  190.8670  172.0700  144.3470 C   0  0  0  0  0  2  0  0  0  0  0  0
  191.7440  173.1090  144.6760 O   0  0  0  0  0  0  0  0  0  0  0  0
  1  7  2  0  0  0  0
  2  4  1  0  0  0  0
  3  5  2  0  0  0  0
  4 10  2  0  0  0  0
  4 11  1  0  0  0  0
  5 10  1  0  0  0  0
  5  1  1  0  0  0  0
  6  9  1  0  0  0  0
  6  8  2  0  0  0  0
  7  8  1  0  0  0  0
 10  6  1  0  0  0  0
 11  9  2  0  0  0  0
 12  2  2  0  0  0  0
 12  3  1  0  0  0  0
 13 14  2  0  0  0  0
 13  1  1  0  0  0  0
 15 17  1  0  0  0  0
 16 15  2  0  0  0  0
 17 18  1  0  0  0  0
 19 16  1  0  0  0  0
 20 16  1  0  0  0  0
 20 22  2  0  0  0  0
 21 17  2  0  0  0  0
 21 13  1  0  0  0  0
 22 21  1  0  0  0  0
 23  2  1  0  0  0  0
 24 23  1  0  0  0  0
 25 24  1  0  0  0  0
 26 25  1  0  0  0  0
 26 27  1  0  0  0  0
 27 28  1  6  0  0  0
 29 35  1  0  0  0  0
 30 29  1  0  0  0  0
 31 30  1  0  0  0  0
 31 32  1  0  0  0  0
 32 27  1  6  0  0  0
 32 33  1  0  0  0  0
 33 34  1  0  0  0  0
 34 35  1  0  0  0  0
M  END
>  <MODEL>
5

>  <REMARK>
 VINA RESULT:      -7.8      2.760      4.379
  Name = 
  8 active torsions:
  status: ('A' for Active; 'I' for Inactive)
    1  A    between atoms: C_2  and  C_3
    2  A    between atoms: C_3  and  C_28
    3  A    between atoms: C_4  and  C_10
    4  A    between atoms: N_9  and  C_19
    5  A    between atoms: N_9  and  C_34
    6  A    between atoms: C_10  and  C_33
    7  A    between atoms: C_19  and  C_25
    8  A    between atoms: C_33  and  C_34
                            x       y       z     vdW  Elec       q    Type
                         _______ _______ _______ _____ _____    ______ ____

>  <TORSDO>
F 8

$$$$
=
 OpenBabel11062420103D

 35 39  0  0  1  0  0  0  0  0999 V2000
  188.2390  176.3380  142.1670 C   0  0  0  0  0  0  0  0  0  0  0  0
  189.4580  175.3420  146.1300 C   0  0  0  0  0  0  0  0  0  0  0  0
  188.5490  177.0450  144.5860 C   0  0  0  0  0  3  0  0  0  0  0  0
  189.5110  174.4610  145.0440 C   0  0  0  0  0  0  0  0  0  0  0  0
  188.6100  176.1200  143.5210 C   0  0  0  0  0  0  0  0  0  0  0  0
  189.2350  173.8720  142.9520 C   0  0  0  0  0  0  0  0  0  0  0  0
  188.3900  175.2500  141.2500 C   0  0  0  0  0  3  0  0  0  0  0  0
  188.8880  174.0320  141.6510 N   0  0  0  0  0  0  0  0  0  0  0  0
  189.7650  172.7130  143.5950 N   0  0  0  0  0  0  0  0  0  0  0  0
  189.0990  174.8730  143.8310 C   0  0  0  0  0  0  0  0  0  0  0  0
  189.9330  173.0580  144.8490 C   0  0  0  0  0  3  0  0  0  0  0  0
  188.9710  176.6530  145.8860 C   0  0  0  0  0  3  0  0  0  0  0  0
  187.6670  177.6290  141.7040 C   0  0  0  0  0  0  0  0  0  0  0  0
  188.4500  178.5740  141.4150 O   0  0  0  0  0  0  0  0  0  0  0  0
  184.2220  177.9950  140.2220 N   0  0  0  0  0  0  0  0  0  0  0  0
  183.4470  178.1790  141.3230 C   0  0  0  0  0  0  0  0  0  0  0  0
  185.5690  177.8230  140.3100 C   0  0  0  0  0  0  0  0  0  0  0  0
  186.2840  177.6570  139.1700 F   0  0  0  0  0  0  0  0  0  0  0  0
  181.9800  178.3620  141.1770 C   0  0  0  0  0  1  0  0  0  0  0  0
  184.0280  178.1970  142.5900 C   0  0  0  0  0  3  0  0  0  0  0  0
  186.2040  177.8410  141.5690 C   0  0  0  0  0  0  0  0  0  0  0  0
  185.4070  178.0240  142.7080 C   0  0  0  0  0  3  0  0  0  0  0  0
  189.8810  174.9310  147.5030 C   0  0  0  0  0  2  0  0  0  0  0  0
  191.2120  175.5630  147.8960 C   0  0  0  0  0  2  0  0  0  0  0  0
  192.3320  175.1640  146.9420 C   0  0  0  0  0  2  0  0  0  0  0  0
  192.9410  176.3460  146.3400 N   0  0  0  0  0  2  0  0  0  0  0  0
  192.5580  176.4790  144.9290 C   0  0  1  0  0  3  0  0  0  0  0  0
  191.7890  177.6100  144.6960 F   0  0  0  0  0  0  0  0  0  0  0  0
  195.7400  175.5830  141.7360 C   0  0  0  0  0  2  0  0  0  0  0  0
  194.2170  175.5700  141.6460 C   0  0  0  0  0  2  0  0  0  0  0  0
  193.5820  175.2310  142.9920 C   0  0  0  0  0  2  0  0  0  0  0  0
  193.7500  176.3920  143.9730 C   0  0  2  0  0  3  0  0  0  0  0  0
  195.0940  176.3780  144.7180 C   0  0  0  0  0  2  0  0  0  0  0  0
  196.2940  176.0280  143.8360 C   0  0  0  0  0  2  0  0  0  0  0  0
  196.1750  176.6170  142.5730 O   0  0  0  0  0  0  0  0  0  0  0  0
  1  5  1  0  0  0  0
  2 23  1  0  0  0  0
  3 12  2  0  0  0  0
  4  2  2  0  0  0  0
  5 10  2  0  0  0  0
  5  3  1  0  0  0  0
  6  9  1  0  0  0  0
  6 10  1  0  0  0  0
  7  8  1  0  0  0  0
  7  1  2  0  0  0  0
  8  6  2  0  0  0  0
  9 11  2  0  0  0  0
 10  4  1  0  0  0  0
 11  4  1  0  0  0  0
 12  2  1  0  0  0  0
 13  1  1  0  0  0  0
 14 13  2  0  0  0  0
 15 17  2  0  0  0  0
 15 16  1  0  0  0  0
 16 20  2  0  0  0  0
 17 21  1  0  0  0  0
 18 17  1  0  0  0  0
 19 16  1  0  0  0  0
 20 22  1  0  0  0  0
 21 13  1  0  0  0  0
 21 22  2  0  0  0  0
 23 24  1  0  0  0  0
 25 24  1  0  0  0  0
 26 25  1  0  0  0  0
 27 28  1  1  0  0  0
 27 26  1  0  0  0  0
 29 35  1  0  0  0  0
 30 29  1  0  0  0  0
 30 31  1  0  0  0  0
 31 32  1  0  0  0  0
 32 33  1  0  0  0  0
 32 27  1  1  0  0  0
 34 33  1  0  0  0  0
 35 34  1  0  0  0  0
M  END
>  <MODEL>
6

>  <REMARK>
 VINA RESULT:      -7.5      2.487      8.204
  Name = 
  8 active torsions:
  status: ('A' for Active; 'I' for Inactive)
    1  A    between atoms: C_2  and  C_3
    2  A    between atoms: C_3  and  C_28
    3  A    between atoms: C_4  and  C_10
    4  A    between atoms: N_9  and  C_19
    5  A    between atoms: N_9  and  C_34
    6  A    between atoms: C_10  and  C_33
    7  A    between atoms: C_19  and  C_25
    8  A    between atoms: C_33  and  C_34
                            x       y       z     vdW  Elec       q    Type
                         _______ _______ _______ _____ _____    ______ ____

>  <TORSDO>
F 8

$$$$
=
 OpenBabel11062420103D

 35 39  0  0  1  0  0  0  0  0999 V2000
  189.8920  172.9010  142.8550 C   0  0  0  0  0  0  0  0  0  0  0  0
  187.7200  176.0590  140.9870 C   0  0  0  0  0  0  0  0  0  0  0  0
  188.7000  175.1330  143.0590 C   0  0  0  0  0  3  0  0  0  0  0  0
  188.1930  174.9240  140.3180 C   0  0  0  0  0  0  0  0  0  0  0  0
  189.1670  174.0100  142.3430 C   0  0  0  0  0  0  0  0  0  0  0  0
  189.2270  172.9990  140.1650 C   0  0  0  0  0  0  0  0  0  0  0  0
  190.2640  171.8650  141.9410 C   0  0  0  0  0  3  0  0  0  0  0  0
  189.9260  171.9240  140.6090 N   0  0  0  0  0  0  0  0  0  0  0  0
  188.7710  173.2780  138.8420 N   0  0  0  0  0  0  0  0  0  0  0  0
  188.8720  173.9830  141.0000 C   0  0  0  0  0  0  0  0  0  0  0  0
  188.1510  174.4310  138.9260 C   0  0  0  0  0  3  0  0  0  0  0  0
  187.9800  176.1540  142.3790 C   0  0  0  0  0  3  0  0  0  0  0  0
  190.3030  172.8180  144.2810 C   0  0  0  0  0  0  0  0  0  0  0  0
  189.7910  171.9290  145.0130 O   0  0  0  0  0  0  0  0  0  0  0  0
  191.9110  175.4220  146.4810 N   0  0  0  0  0  0  0  0  0  0  0  0
  193.1870  175.4530  146.0140 C   0  0  0  0  0  0  0  0  0  0  0  0
  190.9690  174.5990  145.9460 C   0  0  0  0  0  0  0  0  0  0  0  0
  189.7110  174.6270  146.4520 F   0  0  0  0  0  0  0  0  0  0  0  0
  194.1820  176.3680  146.6300 C   0  0  0  0  0  1  0  0  0  0  0  0
  193.5640  174.6260  144.9560 C   0  0  0  0  0  3  0  0  0  0  0  0
  191.2990  173.7490  144.8710 C   0  0  0  0  0  0  0  0  0  0  0  0
  192.6160  173.7740  144.3900 C   0  0  0  0  0  3  0  0  0  0  0  0
  186.9800  177.1440  140.2750 C   0  0  0  0  0  2  0  0  0  0  0  0
  186.5540  178.2550  141.2290 C   0  0  0  0  0  2  0  0  0  0  0  0
  185.0460  178.2720  141.4410 C   0  0  0  0  0  2  0  0  0  0  0  0
  184.7260  178.3470  142.8640 N   0  0  0  0  0  2  0  0  0  0  0  0
  185.7850  179.0390  143.6080 C   0  0  1  0  0  3  0  0  0  0  0  0
  185.6760  180.4200  143.5190 F   0  0  0  0  0  0  0  0  0  0  0  0
  186.3070  176.8940  147.6400 C   0  0  0  0  0  2  0  0  0  0  0  0
  187.1010  176.7700  146.3430 C   0  0  0  0  0  2  0  0  0  0  0  0
  186.2330  177.0760  145.1250 C   0  0  0  0  0  2  0  0  0  0  0  0
  185.9050  178.5680  145.0590 C   0  0  2  0  0  3  0  0  0  0  0  0
  184.6850  178.9680  145.9040 C   0  0  0  0  0  2  0  0  0  0  0  0
  184.6320  178.3010  147.2790 C   0  0  0  0  0  2  0  0  0  0  0  0
  185.9070  178.2200  147.8470 O   0  0  0  0  0  0  0  0  0  0  0  0
  1 13  1  0  0  0  0
  2 12  1  0  0  0  0
  4  2  2  0  0  0  0
  4 10  1  0  0  0  0
  5  1  1  0  0  0  0
  5  3  1  0  0  0  0
  6  8  2  0  0  0  0
  6 10  1  0  0  0  0
  7  1  2  0  0  0  0
  8  7  1  0  0  0  0
  9 11  2  0  0  0  0
  9  6  1  0  0  0  0
 10  5  2  0  0  0  0
 11  4  1  0  0  0  0
 12  3  2  0  0  0  0
 13 21  1  0  0  0  0
 13 14  2  0  0  0  0
 16 15  1  0  0  0  0
 16 19  1  0  0  0  0
 17 18  1  0  0  0  0
 17 15  2  0  0  0  0
 20 16  2  0  0  0  0
 21 17  1  0  0  0  0
 22 21  2  0  0  0  0
 22 20  1  0  0  0  0
 23  2  1  0  0  0  0
 23 24  1  0  0  0  0
 24 25  1  0  0  0  0
 25 26  1  0  0  0  0
 26 27  1  0  0  0  0
 27 28  1  1  0  0  0
 29 35  1  0  0  0  0
 30 29  1  0  0  0  0
 31 30  1  0  0  0  0
 32 27  1  6  0  0  0
 32 31  1  0  0  0  0
 32 33  1  0  0  0  0
 33 34  1  0  0  0  0
 34 35  1  0  0  0  0
M  END
>  <MODEL>
7

>  <REMARK>
 VINA RESULT:      -7.5      2.261      2.821
  Name = 
  8 active torsions:
  status: ('A' for Active; 'I' for Inactive)
    1  A    between atoms: C_2  and  C_3
    2  A    between atoms: C_3  and  C_28
    3  A    between atoms: C_4  and  C_10
    4  A    between atoms: N_9  and  C_19
    5  A    between atoms: N_9  and  C_34
    6  A    between atoms: C_10  and  C_33
    7  A    between atoms: C_19  and  C_25
    8  A    between atoms: C_33  and  C_34
                            x       y       z     vdW  Elec       q    Type
                         _______ _______ _______ _____ _____    ______ ____

>  <TORSDO>
F 8

$$$$
=
 OpenBabel11062420103D

 35 39  0  0  1  0  0  0  0  0999 V2000
  188.5700  175.7980  142.0750 C   0  0  0  0  0  0  0  0  0  0  0  0
  192.7070  175.1120  142.8450 C   0  0  0  0  0  0  0  0  0  0  0  0
  190.8540  176.7380  142.6610 C   0  0  0  0  0  3  0  0  0  0  0  0
  191.7870  174.1060  142.5260 C   0  0  0  0  0  0  0  0  0  0  0  0
  189.9580  175.6910  142.3530 C   0  0  0  0  0  0  0  0  0  0  0  0
  189.8070  173.3170  142.0220 C   0  0  0  0  0  0  0  0  0  0  0  0
  187.8520  174.5950  141.7820 C   0  0  0  0  0  3  0  0  0  0  0  0
  188.4770  173.3700  141.7560 N   0  0  0  0  0  0  0  0  0  0  0  0
  190.6610  172.1740  142.0560 N   0  0  0  0  0  0  0  0  0  0  0  0
  190.4990  174.4280  142.3040 C   0  0  0  0  0  0  0  0  0  0  0  0
  191.8500  172.6400  142.3580 C   0  0  0  0  0  3  0  0  0  0  0  0
  192.2240  176.4450  142.9080 C   0  0  0  0  0  3  0  0  0  0  0  0
  187.8530  177.0990  142.1260 C   0  0  0  0  0  0  0  0  0  0  0  0
  188.0150  177.9220  141.1850 O   0  0  0  0  0  0  0  0  0  0  0  0
  186.5930  178.3600  145.4470 N   0  0  0  0  0  0  0  0  0  0  0  0
  185.2490  178.1900  145.3340 C   0  0  0  0  0  0  0  0  0  0  0  0
  187.4480  178.0160  144.4450 C   0  0  0  0  0  0  0  0  0  0  0  0
  188.7790  178.2000  144.6290 F   0  0  0  0  0  0  0  0  0  0  0  0
  184.3540  178.5810  146.4540 C   0  0  0  0  0  1  0  0  0  0  0  0
  184.7090  177.6510  144.1680 C   0  0  0  0  0  3  0  0  0  0  0  0
  186.9510  177.4600  143.2490 C   0  0  0  0  0  0  0  0  0  0  0  0
  185.5640  177.2900  143.1270 C   0  0  0  0  0  3  0  0  0  0  0  0
  194.1430  174.8100  143.1240 C   0  0  0  0  0  2  0  0  0  0  0  0
  194.9070  176.0540  143.5640 C   0  0  0  0  0  2  0  0  0  0  0  0
  195.4380  175.9190  144.9860 C   0  0  0  0  0  2  0  0  0  0  0  0
  194.5120  175.1490  145.8110 N   0  0  0  0  0  2  0  0  0  0  0  0
  193.7630  176.0230  146.7220 C   0  0  1  0  0  3  0  0  0  0  0  0
  194.2020  177.3380  146.6700 F   0  0  0  0  0  0  0  0  0  0  0  0
  189.1710  176.0360  146.9250 C   0  0  0  0  0  2  0  0  0  0  0  0
  190.1850  177.0790  147.3840 C   0  0  0  0  0  2  0  0  0  0  0  0
  191.5110  176.4340  147.7780 C   0  0  0  0  0  2  0  0  0  0  0  0
  192.2470  175.9190  146.5410 C   0  0  2  0  0  3  0  0  0  0  0  0
  191.8080  174.5130  146.1040 C   0  0  0  0  0  2  0  0  0  0  0  0
  190.2960  174.2830  146.1650 C   0  0  0  0  0  2  0  0  0  0  0  0
  189.6000  175.4200  145.7430 O   0  0  0  0  0  0  0  0  0  0  0  0
  1 13  1  0  0  0  0
  1  5  1  0  0  0  0
  2 12  1  0  0  0  0
  2 23  1  0  0  0  0
  3 12  2  0  0  0  0
  4  2  2  0  0  0  0
  5  3  1  0  0  0  0
  6  9  1  0  0  0  0
  6 10  1  0  0  0  0
  7  1  2  0  0  0  0
  8  7  1  0  0  0  0
  8  6  2  0  0  0  0
  9 11  2  0  0  0  0
 10  5  2  0  0  0  0
 10  4  1  0  0  0  0
 11  4  1  0  0  0  0
 13 21  1  0  0  0  0
 14 13  2  0  0  0  0
 16 15  1  0  0  0  0
 16 19  1  0  0  0  0
 17 18  1  0  0  0  0
 17 15  2  0  0  0  0
 20 16  2  0  0  0  0
 21 17  1  0  0  0  0
 22 21  2  0  0  0  0
 22 20  1  0  0  0  0
 23 24  1  0  0  0  0
 24 25  1  0  0  0  0
 25 26  1  0  0  0  0
 26 27  1  0  0  0  0
 27 28  1  6  0  0  0
 29 30  1  0  0  0  0
 30 31  1  0  0  0  0
 32 27  1  1  0  0  0
 32 31  1  0  0  0  0
 33 34  1  0  0  0  0
 33 32  1  0  0  0  0
 35 34  1  0  0  0  0
 35 29  1  0  0  0  0
M  END
>  <MODEL>
8

>  <REMARK>
 VINA RESULT:      -7.3      2.188      7.037
  Name = 
  8 active torsions:
  status: ('A' for Active; 'I' for Inactive)
    1  A    between atoms: C_2  and  C_3
    2  A    between atoms: C_3  and  C_28
    3  A    between atoms: C_4  and  C_10
    4  A    between atoms: N_9  and  C_19
    5  A    between atoms: N_9  and  C_34
    6  A    between atoms: C_10  and  C_33
    7  A    between atoms: C_19  and  C_25
    8  A    between atoms: C_33  and  C_34
                            x       y       z     vdW  Elec       q    Type
                         _______ _______ _______ _____ _____    ______ ____

>  <TORSDO>
F 8

$$$$
=
 OpenBabel11062420103D

 35 39  0  0  1  0  0  0  0  0999 V2000
  190.4540  173.8400  144.2270 C   0  0  0  0  0  0  0  0  0  0  0  0
  188.4700  176.8970  142.0140 C   0  0  0  0  0  0  0  0  0  0  0  0
  188.6850  174.4880  142.5260 C   0  0  0  0  0  3  0  0  0  0  0  0
  189.5080  177.1290  142.9230 C   0  0  0  0  0  0  0  0  0  0  0  0
  189.7210  174.7690  143.4420 C   0  0  0  0  0  0  0  0  0  0  0  0
  191.0280  176.5470  144.3900 C   0  0  0  0  0  0  0  0  0  0  0  0
  191.4720  174.3510  145.0930 C   0  0  0  0  0  3  0  0  0  0  0  0
  191.7490  175.6970  145.1620 N   0  0  0  0  0  0  0  0  0  0  0  0
  191.1330  177.9670  144.2940 N   0  0  0  0  0  0  0  0  0  0  0  0
  190.0680  176.0930  143.5760 C   0  0  0  0  0  0  0  0  0  0  0  0
  190.2240  178.3240  143.4170 C   0  0  0  0  0  3  0  0  0  0  0  0
  188.0620  175.5520  141.8170 C   0  0  0  0  0  3  0  0  0  0  0  0
  190.1600  172.3830  144.2040 C   0  0  0  0  0  0  0  0  0  0  0  0
  189.3190  171.9160  145.0190 O   0  0  0  0  0  0  0  0  0  0  0  0
  192.6400  169.9990  142.6630 N   0  0  0  0  0  0  0  0  0  0  0  0
  192.0440  169.6790  141.4840 C   0  0  0  0  0  0  0  0  0  0  0  0
  192.0680  170.8620  143.5460 C   0  0  0  0  0  0  0  0  0  0  0  0
  192.7220  171.1480  144.7000 F   0  0  0  0  0  0  0  0  0  0  0  0
  192.7070  168.7320  140.5500 C   0  0  0  0  0  1  0  0  0  0  0  0
  190.8120  170.2380  141.1490 C   0  0  0  0  0  3  0  0  0  0  0  0
  190.8250  171.4590  143.2500 C   0  0  0  0  0  0  0  0  0  0  0  0
  190.2050  171.1250  142.0380 C   0  0  0  0  0  3  0  0  0  0  0  0
  187.7980  178.0110  141.2790 C   0  0  0  0  0  2  0  0  0  0  0  0
  186.5300  177.5400  140.5770 C   0  0  0  0  0  2  0  0  0  0  0  0
  185.2920  178.2530  141.1050 C   0  0  0  0  0  2  0  0  0  0  0  0
  184.8600  177.6680  142.3710 N   0  0  0  0  0  2  0  0  0  0  0  0
  184.6220  178.7070  143.3800 C   0  0  1  0  0  3  0  0  0  0  0  0
  183.2750  179.0050  143.5220 F   0  0  0  0  0  0  0  0  0  0  0  0
  186.7350  177.0390  147.1060 C   0  0  0  0  0  2  0  0  0  0  0  0
  187.0510  176.8560  145.6240 C   0  0  0  0  0  2  0  0  0  0  0  0
  185.7910  176.9560  144.7690 C   0  0  0  0  0  2  0  0  0  0  0  0
  185.2830  178.3980  144.7260 C   0  0  2  0  0  3  0  0  0  0  0  0
  184.3830  178.7690  145.9150 C   0  0  0  0  0  2  0  0  0  0  0  0
  184.8800  178.2420  147.2630 C   0  0  0  0  0  2  0  0  0  0  0  0
  186.2720  178.3360  147.3540 O   0  0  0  0  0  0  0  0  0  0  0  0
  1  7  2  0  0  0  0
  2  4  1  0  0  0  0
  3  5  2  0  0  0  0
  4 11  1  0  0  0  0
  4 10  2  0  0  0  0
  5 10  1  0  0  0  0
  5  1  1  0  0  0  0
  6  8  2  0  0  0  0
  7  8  1  0  0  0  0
  9  6  1  0  0  0  0
 10  6  1  0  0  0  0
 11  9  2  0  0  0  0
 12  2  2  0  0  0  0
 12  3  1  0  0  0  0
 13  1  1  0  0  0  0
 13 14  2  0  0  0  0
 15 17  1  0  0  0  0
 16 15  2  0  0  0  0
 17 18  1  0  0  0  0
 19 16  1  0  0  0  0
 20 16  1  0  0  0  0
 20 22  2  0  0  0  0
 21 17  2  0  0  0  0
 21 13  1  0  0  0  0
 22 21  1  0  0  0  0
 23  2  1  0  0  0  0
 24 25  1  0  0  0  0
 24 23  1  0  0  0  0
 25 26  1  0  0  0  0
 26 27  1  0  0  0  0
 27 28  1  1  0  0  0
 29 35  1  0  0  0  0
 30 29  1  0  0  0  0
 31 30  1  0  0  0  0
 32 27  1  6  0  0  0
 32 31  1  0  0  0  0
 32 33  1  0  0  0  0
 33 34  1  0  0  0  0
 34 35  1  0  0  0  0
M  END
>  <MODEL>
9

>  <REMARK>
 VINA RESULT:      -7.3      2.801      4.023
  Name = 
  8 active torsions:
  status: ('A' for Active; 'I' for Inactive)
    1  A    between atoms: C_2  and  C_3
    2  A    between atoms: C_3  and  C_28
    3  A    between atoms: C_4  and  C_10
    4  A    between atoms: N_9  and  C_19
    5  A    between atoms: N_9  and  C_34
    6  A    between atoms: C_10  and  C_33
    7  A    between atoms: C_19  and  C_25
    8  A    between atoms: C_33  and  C_34
                            x       y       z     vdW  Elec       q    Type
                         _______ _______ _______ _____ _____    ______ ____

>  <TORSDO>
F 8

$$$$
