=
 OpenBabel11062422013D

 35 39  0  0  1  0  0  0  0  0999 V2000
  191.1000  173.8590  141.9410 C   0  0  0  0  0  0  0  0  0  0  0  0
  187.7790  174.5050  141.7170 C   0  0  1  0  0  3  0  0  0  0  0  0
  187.6830  175.7370  142.6240 C   0  0  0  0  0  2  0  0  0  0  0  0
  190.0130  174.0480  142.7740 C   0  0  1  0  0  0  0  0  0  0  0  0
  190.9160  173.1160  143.2720 N   0  0  0  0  0  0  0  0  0  0  0  0
  189.0640  176.3510  142.8770 C   0  0  2  0  0  3  0  0  0  0  0  0
  191.7530  174.1020  140.8950 O   0  0  0  0  0  0  0  0  0  0  0  0
  189.9770  175.3450  143.5700 C   0  0  0  0  0  2  0  0  0  0  0  0
  188.2410  174.8700  140.4520 O   0  0  0  0  0  1  0  0  0  0  0  0
  188.6900  173.4350  142.3240 C   0  0  0  0  0  2  0  0  0  0  0  0
  194.5720  170.8950  145.1330 N   0  0  0  0  0  2  0  0  0  0  0  0
  191.3460  172.1840  144.2570 C   0  0  0  0  0  3  0  0  0  0  0  0
  195.8670  171.2960  145.5670 C   0  0  0  0  0  0  0  0  0  0  0  0
  194.2310  174.4950  145.4720 C   0  0  0  0  0  2  0  0  0  0  0  0
  192.6000  172.1400  144.6040 C   0  0  0  0  0  0  0  0  0  0  0  0
  193.8590  172.1050  144.9490 C   0  0  0  0  0  0  0  0  0  0  0  0
  194.6860  173.2620  145.2730 C   0  0  0  0  0  0  0  0  0  0  0  0
  196.7270  170.4440  146.0150 N   0  0  0  0  0  2  0  0  0  0  0  0
  196.0270  172.7800  145.7290 C   0  0  2  0  0  3  0  0  0  0  0  0
  197.1180  173.3060  144.8470 C   0  0  0  0  0  0  0  0  0  0  0  0
  197.2300  172.8830  143.4910 N   0  0  0  0  0  1  0  0  0  0  0  0
  197.9410  174.1340  145.3110 O   0  0  0  0  0  0  0  0  0  0  0  0
  188.9430  177.5960  143.7390 C   0  0  0  0  0  2  0  0  0  0  0  0
  188.2890  177.2730  145.0820 C   0  0  2  0  0  3  0  0  0  0  0  0
  184.2330  178.7370  145.1260 C   0  0  0  0  0  2  0  0  0  0  0  0
  186.9620  177.9570  145.2590 C   0  0  0  0  0  0  0  0  0  0  0  0
  185.0650  176.8310  146.4580 C   0  0  0  0  0  2  0  0  0  0  0  0
  186.1960  177.8360  146.5680 C   0  0  2  0  0  3  0  0  0  0  0  0
  184.7260  178.3060  146.5110 C   0  0  1  0  0  3  0  0  0  0  0  0
  185.2880  179.5660  144.4140 C   0  0  0  0  0  2  0  0  0  0  0  0
  186.5370  178.7570  144.2710 C   0  0  0  0  0  3  0  0  0  0  0  0
  189.2260  177.4110  146.2900 C   0  0  0  0  0  2  0  0  0  0  0  0
  189.5050  176.1210  146.9960 C   0  0  0  0  0  0  0  0  0  0  0  0
  188.6090  175.2440  147.1000 O   0  0  0  0  0  0  0  0  0  0  0  0
  190.7490  175.9080  147.5780 O   0  0  0  0  0  1  0  0  0  0  0  0
  1  4  1  0  0  0  0
  1  5  1  0  0  0  0
  2  9  1  6  0  0  0
  2 10  1  0  0  0  0
  2  3  1  0  0  0  0
  3  6  1  0  0  0  0
  4 10  1  6  0  0  0
  4  5  1  0  0  0  0
  4  8  1  0  0  0  0
  5 12  1  0  0  0  0
  6  8  1  0  0  0  0
  6 23  1  1  0  0  0
  7  1  2  0  0  0  0
 11 13  1  0  0  0  0
 12 15  2  0  0  0  0
 13 19  1  0  0  0  0
 13 18  2  0  0  0  0
 15 16  2  0  0  0  0
 16 11  1  0  0  0  0
 16 17  1  0  0  0  0
 17 14  2  0  0  0  0
 17 19  1  0  0  0  0
 19 20  1  6  0  0  0
 20 22  2  0  0  0  0
 21 20  1  0  0  0  0
 24 23  1  6  0  0  0
 24 26  1  0  0  0  0
 24 32  1  0  0  0  0
 26 28  1  0  0  0  0
 27 29  1  0  0  0  0
 28 27  1  6  0  0  0
 29 25  1  6  0  0  0
 29 28  1  0  0  0  0
 30 25  1  0  0  0  0
 31 30  1  0  0  0  0
 31 26  2  0  0  0  0
 32 33  1  0  0  0  0
 33 34  2  0  0  0  0
 33 35  1  0  0  0  0
M  END
>  <MODEL>
1

>  <REMARK>
 VINA RESULT:      -8.2      0.000      0.000
  Name = 
  7 active torsions:
  status: ('A' for Active; 'I' for Inactive)
    1  A    between atoms: C_4  and  C_27
    2  A    between atoms: C_6  and  C_12
    3  A    between atoms: C_8  and  C_33
    4  A    between atoms: C_10  and  N_20
    5  A    between atoms: C_12  and  C_17
    6  A    between atoms: C_12  and  C_27
    7  A    between atoms: C_17  and  C_21
                            x       y       z     vdW  Elec       q    Type
                         _______ _______ _______ _____ _____    ______ ____

>  <TORSDO>
F 7

$$$$
=
 OpenBabel11062422013D

 35 39  0  0  1  0  0  0  0  0999 V2000
  188.9630  173.4900  142.1740 C   0  0  0  0  0  0  0  0  0  0  0  0
  192.0120  173.4300  140.6900 C   0  0  1  0  0  3  0  0  0  0  0  0
  192.7750  174.3950  141.6050 C   0  0  0  0  0  2  0  0  0  0  0  0
  189.8940  174.3740  141.6600 C   0  0  1  0  0  0  0  0  0  0  0  0
  188.5840  174.7920  141.4540 N   0  0  0  0  0  0  0  0  0  0  0  0
  192.0280  174.6190  142.9250 C   0  0  2  0  0  3  0  0  0  0  0  0
  188.6510  172.4300  142.7730 O   0  0  0  0  0  0  0  0  0  0  0  0
  190.6550  175.2280  142.6640 C   0  0  0  0  0  2  0  0  0  0  0  0
  191.9380  172.1650  141.2750 O   0  0  0  0  0  1  0  0  0  0  0  0
  190.6060  173.9510  140.3790 C   0  0  0  0  0  2  0  0  0  0  0  0
  184.8920  177.4420  142.5090 N   0  0  0  0  0  2  0  0  0  0  0  0
  187.6230  175.7160  140.9580 C   0  0  0  0  0  3  0  0  0  0  0  0
  184.5810  178.3450  143.5640 C   0  0  0  0  0  0  0  0  0  0  0  0
  188.1530  178.1700  143.9320 C   0  0  0  0  0  2  0  0  0  0  0  0
  186.9500  176.4600  141.7890 C   0  0  0  0  0  0  0  0  0  0  0  0
  186.2830  177.2050  142.6280 C   0  0  0  0  0  0  0  0  0  0  0  0
  186.8550  177.9590  143.7390 C   0  0  0  0  0  0  0  0  0  0  0  0
  183.4340  178.9290  143.6410 N   0  0  0  0  0  2  0  0  0  0  0  0
  185.7700  178.7690  144.3770 C   0  0  2  0  0  3  0  0  0  0  0  0
  185.5980  178.4000  145.8180 C   0  0  0  0  0  0  0  0  0  0  0  0
  185.3040  177.0590  146.2010 N   0  0  0  0  0  1  0  0  0  0  0  0
  185.7190  179.2870  146.7010 O   0  0  0  0  0  0  0  0  0  0  0  0
  192.8220  175.5410  143.8350 C   0  0  0  0  0  2  0  0  0  0  0  0
  192.8110  175.0330  145.2760 C   0  0  2  0  0  3  0  0  0  0  0  0
  188.9340  176.2320  146.7320 C   0  0  0  0  0  2  0  0  0  0  0  0
  191.5570  175.4120  146.0140 C   0  0  0  0  0  0  0  0  0  0  0  0
  189.5020  173.9710  145.9170 C   0  0  0  0  0  2  0  0  0  0  0  0
  190.7270  174.3540  146.7270 C   0  0  2  0  0  3  0  0  0  0  0  0
  189.3190  174.8130  147.1620 C   0  0  1  0  0  3  0  0  0  0  0  0
  190.0990  177.1870  146.9240 C   0  0  0  0  0  2  0  0  0  0  0  0
  191.2610  176.7160  146.1090 C   0  0  0  0  0  3  0  0  0  0  0  0
  194.1020  175.3190  146.0560 C   0  0  0  0  0  2  0  0  0  0  0  0
  194.9830  176.3480  145.4210 C   0  0  0  0  0  0  0  0  0  0  0  0
  195.9190  176.0020  144.6550 O   0  0  0  0  0  0  0  0  0  0  0  0
  194.7940  177.6930  145.7130 O   0  0  0  0  0  1  0  0  0  0  0  0
  1  7  2  0  0  0  0
  2  9  1  1  0  0  0
  2  3  1  0  0  0  0
  3  6  1  0  0  0  0
  4 10  1  6  0  0  0
  4  1  1  0  0  0  0
  4  8  1  0  0  0  0
  5  4  1  0  0  0  0
  5  1  1  0  0  0  0
  6 23  1  1  0  0  0
  8  6  1  0  0  0  0
 10  2  1  0  0  0  0
 11 16  1  0  0  0  0
 11 13  1  0  0  0  0
 12  5  1  0  0  0  0
 12 15  2  0  0  0  0
 13 18  2  0  0  0  0
 13 19  1  0  0  0  0
 15 16  2  0  0  0  0
 16 17  1  0  0  0  0
 17 14  2  0  0  0  0
 17 19  1  0  0  0  0
 19 20  1  1  0  0  0
 20 21  1  0  0  0  0
 20 22  2  0  0  0  0
 24 23  1  6  0  0  0
 24 26  1  0  0  0  0
 24 32  1  0  0  0  0
 25 30  1  0  0  0  0
 25 29  1  0  0  0  0
 26 31  2  0  0  0  0
 26 28  1  0  0  0  0
 28 27  1  6  0  0  0
 28 29  1  0  0  0  0
 29 27  1  6  0  0  0
 31 30  1  0  0  0  0
 33 35  1  0  0  0  0
 33 32  1  0  0  0  0
 34 33  2  0  0  0  0
M  END
>  <MODEL>
2

>  <REMARK>
 VINA RESULT:      -8.2      3.553      7.712
  Name = 
  7 active torsions:
  status: ('A' for Active; 'I' for Inactive)
    1  A    between atoms: C_4  and  C_27
    2  A    between atoms: C_6  and  C_12
    3  A    between atoms: C_8  and  C_33
    4  A    between atoms: C_10  and  N_20
    5  A    between atoms: C_12  and  C_17
    6  A    between atoms: C_12  and  C_27
    7  A    between atoms: C_17  and  C_21
                            x       y       z     vdW  Elec       q    Type
                         _______ _______ _______ _____ _____    ______ ____

>  <TORSDO>
F 7

$$$$
=
 OpenBabel11062422013D

 35 39  0  0  1  0  0  0  0  0999 V2000
  188.0730  173.3560  141.9320 C   0  0  0  0  0  0  0  0  0  0  0  0
  191.3870  173.0000  141.3100 C   0  0  1  0  0  3  0  0  0  0  0  0
  191.9620  173.4310  142.6640 C   0  0  0  0  0  2  0  0  0  0  0  0
  189.2370  174.0980  142.0090 C   0  0  1  0  0  0  0  0  0  0  0  0
  188.1320  174.8640  141.6540 N   0  0  0  0  0  0  0  0  0  0  0  0
  190.8840  173.4270  143.7550 C   0  0  2  0  0  3  0  0  0  0  0  0
  187.4370  172.2750  142.0210 O   0  0  0  0  0  0  0  0  0  0  0  0
  189.7660  174.4020  143.4030 C   0  0  0  0  0  2  0  0  0  0  0  0
  190.9500  171.6760  141.3700 O   0  0  0  0  0  1  0  0  0  0  0  0
  190.2410  173.9160  140.8750 C   0  0  0  0  0  2  0  0  0  0  0  0
  185.1010  178.1640  142.9530 N   0  0  0  0  0  2  0  0  0  0  0  0
  187.5200  176.0990  141.3030 C   0  0  0  0  0  3  0  0  0  0  0  0
  184.8680  178.8860  144.1580 C   0  0  0  0  0  0  0  0  0  0  0  0
  188.1830  177.6560  144.8070 C   0  0  0  0  0  2  0  0  0  0  0  0
  186.9340  176.8170  142.2190 C   0  0  0  0  0  0  0  0  0  0  0  0
  186.3540  177.5320  143.1430 C   0  0  0  0  0  0  0  0  0  0  0  0
  186.9190  177.8570  144.4490 C   0  0  0  0  0  0  0  0  0  0  0  0
  183.9050  179.7370  144.2630 N   0  0  0  0  0  2  0  0  0  0  0  0
  185.9860  178.7900  145.1550 C   0  0  2  0  0  3  0  0  0  0  0  0
  185.5080  178.2000  146.4470 C   0  0  0  0  0  0  0  0  0  0  0  0
  185.0380  176.8560  146.5080 N   0  0  0  0  0  1  0  0  0  0  0  0
  185.5280  178.9000  147.4900 O   0  0  0  0  0  0  0  0  0  0  0  0
  191.4840  173.8130  145.0970 C   0  0  0  0  0  2  0  0  0  0  0  0
  191.9660  175.2620  145.0870 C   0  0  2  0  0  3  0  0  0  0  0  0
  196.2450  174.9900  144.6310 C   0  0  0  0  0  2  0  0  0  0  0  0
  193.4650  175.3740  145.0740 C   0  0  0  0  0  0  0  0  0  0  0  0
  194.7080  176.0070  142.9870 C   0  0  0  0  0  2  0  0  0  0  0  0
  194.1530  176.4960  144.3120 C   0  0  2  0  0  3  0  0  0  0  0  0
  195.6730  176.3130  144.1120 C   0  0  1  0  0  3  0  0  0  0  0  0
  195.6430  174.6370  145.9790 C   0  0  0  0  0  2  0  0  0  0  0  0
  194.1590  174.5200  145.8410 C   0  0  0  0  0  3  0  0  0  0  0  0
  191.2840  176.1610  146.1280 C   0  0  0  0  0  2  0  0  0  0  0  0
  190.7060  175.4180  147.2910 C   0  0  0  0  0  0  0  0  0  0  0  0
  191.4310  175.1030  148.2700 O   0  0  0  0  0  1  0  0  0  0  0  0
  189.3710  175.0370  147.2710 O   0  0  0  0  0  0  0  0  0  0  0  0
  1  4  1  0  0  0  0
  1  7  2  0  0  0  0
  2  9  1  1  0  0  0
  2  3  1  0  0  0  0
  3  6  1  0  0  0  0
  4 10  1  6  0  0  0
  4  8  1  0  0  0  0
  5  1  1  0  0  0  0
  5  4  1  0  0  0  0
  6 23  1  1  0  0  0
  8  6  1  0  0  0  0
 10  2  1  0  0  0  0
 11 16  1  0  0  0  0
 11 13  1  0  0  0  0
 12  5  1  0  0  0  0
 12 15  2  0  0  0  0
 13 18  2  0  0  0  0
 13 19  1  0  0  0  0
 15 16  2  0  0  0  0
 16 17  1  0  0  0  0
 17 14  2  0  0  0  0
 17 19  1  0  0  0  0
 19 20  1  1  0  0  0
 20 21  1  0  0  0  0
 20 22  2  0  0  0  0
 24 23  1  1  0  0  0
 24 32  1  0  0  0  0
 25 30  1  0  0  0  0
 26 24  1  0  0  0  0
 26 31  2  0  0  0  0
 28 27  1  6  0  0  0
 28 26  1  0  0  0  0
 29 27  1  6  0  0  0
 29 28  1  0  0  0  0
 29 25  1  0  0  0  0
 31 30  1  0  0  0  0
 32 33  1  0  0  0  0
 33 34  1  0  0  0  0
 35 33  2  0  0  0  0
M  END
>  <MODEL>
3

>  <REMARK>
 VINA RESULT:      -8.1      3.447      8.385
  Name = 
  7 active torsions:
  status: ('A' for Active; 'I' for Inactive)
    1  A    between atoms: C_4  and  C_27
    2  A    between atoms: C_6  and  C_12
    3  A    between atoms: C_8  and  C_33
    4  A    between atoms: C_10  and  N_20
    5  A    between atoms: C_12  and  C_17
    6  A    between atoms: C_12  and  C_27
    7  A    between atoms: C_17  and  C_21
                            x       y       z     vdW  Elec       q    Type
                         _______ _______ _______ _____ _____    ______ ____

>  <TORSDO>
F 7

$$$$
=
 OpenBabel11062422013D

 35 39  0  0  1  0  0  0  0  0999 V2000
  188.2020  173.5080  141.5460 C   0  0  0  0  0  0  0  0  0  0  0  0
  190.9780  172.9020  139.6950 C   0  0  1  0  0  3  0  0  0  0  0  0
  192.0580  173.4090  140.6580 C   0  0  0  0  0  2  0  0  0  0  0  0
  189.3150  174.1820  141.0780 C   0  0  1  0  0  0  0  0  0  0  0  0
  188.1790  174.9820  141.1180 N   0  0  0  0  0  0  0  0  0  0  0  0
  191.5100  173.5590  142.0820 C   0  0  2  0  0  3  0  0  0  0  0  0
  187.6320  172.4780  141.9870 O   0  0  0  0  0  0  0  0  0  0  0  0
  190.3660  174.5670  142.1090 C   0  0  0  0  0  2  0  0  0  0  0  0
  190.5730  171.6170  140.0560 O   0  0  0  0  0  1  0  0  0  0  0  0
  189.7740  173.8470  139.6630 C   0  0  0  0  0  2  0  0  0  0  0  0
  185.1600  178.0540  142.9120 N   0  0  0  0  0  2  0  0  0  0  0  0
  187.5050  176.2190  140.9180 C   0  0  0  0  0  3  0  0  0  0  0  0
  184.9990  178.6670  144.1870 C   0  0  0  0  0  0  0  0  0  0  0  0
  188.3890  177.5080  144.4820 C   0  0  0  0  0  2  0  0  0  0  0  0
  186.9700  176.8380  141.9320 C   0  0  0  0  0  0  0  0  0  0  0  0
  186.4420  177.4540  142.9540 C   0  0  0  0  0  0  0  0  0  0  0  0
  187.0960  177.6920  144.2370 C   0  0  0  0  0  0  0  0  0  0  0  0
  184.0220  179.4710  144.4350 N   0  0  0  0  0  2  0  0  0  0  0  0
  186.1930  178.5300  145.0860 C   0  0  2  0  0  3  0  0  0  0  0  0
  185.8350  177.8200  146.3560 C   0  0  0  0  0  0  0  0  0  0  0  0
  186.2880  178.3040  147.6180 N   0  0  0  0  0  1  0  0  0  0  0  0
  185.1210  176.7870  146.3060 O   0  0  0  0  0  0  0  0  0  0  0  0
  192.6070  174.0170  143.0290 C   0  0  0  0  0  2  0  0  0  0  0  0
  192.4070  173.4300  144.4250 C   0  0  2  0  0  3  0  0  0  0  0  0
  190.1190  175.4680  147.4590 C   0  0  0  0  0  2  0  0  0  0  0  0
  191.5280  174.2870  145.2930 C   0  0  0  0  0  0  0  0  0  0  0  0
  192.5070  175.8730  146.9760 C   0  0  0  0  0  2  0  0  0  0  0  0
  191.9040  175.7310  145.5910 C   0  0  2  0  0  3  0  0  0  0  0  0
  191.1050  176.3910  146.7360 C   0  0  1  0  0  3  0  0  0  0  0  0
  189.3760  174.5920  146.4670 C   0  0  0  0  0  2  0  0  0  0  0  0
  190.3610  173.7690  145.7000 C   0  0  0  0  0  3  0  0  0  0  0  0
  193.7040  172.9760  145.1100 C   0  0  0  0  0  2  0  0  0  0  0  0
  193.9080  171.4930  145.1080 C   0  0  0  0  0  0  0  0  0  0  0  0
  193.1690  170.7490  144.4140 O   0  0  0  0  0  0  0  0  0  0  0  0
  194.8920  170.9310  145.9120 O   0  0  0  0  0  1  0  0  0  0  0  0
  1  7  2  0  0  0  0
  2  9  1  1  0  0  0
  2  3  1  0  0  0  0
  3  6  1  0  0  0  0
  4 10  1  6  0  0  0
  4  5  1  0  0  0  0
  4  1  1  0  0  0  0
  4  8  1  0  0  0  0
  5  1  1  0  0  0  0
  6  8  1  0  0  0  0
  6 23  1  1  0  0  0
 10  2  1  0  0  0  0
 11 16  1  0  0  0  0
 11 13  1  0  0  0  0
 12  5  1  0  0  0  0
 12 15  2  0  0  0  0
 13 18  2  0  0  0  0
 13 19  1  0  0  0  0
 15 16  2  0  0  0  0
 16 17  1  0  0  0  0
 17 14  2  0  0  0  0
 17 19  1  0  0  0  0
 19 20  1  1  0  0  0
 20 21  1  0  0  0  0
 22 20  2  0  0  0  0
 24 23  1  6  0  0  0
 24 32  1  0  0  0  0
 24 26  1  0  0  0  0
 26 28  1  0  0  0  0
 26 31  2  0  0  0  0
 28 29  1  0  0  0  0
 28 27  1  1  0  0  0
 29 27  1  1  0  0  0
 29 25  1  0  0  0  0
 30 25  1  0  0  0  0
 31 30  1  0  0  0  0
 33 32  1  0  0  0  0
 33 35  1  0  0  0  0
 34 33  2  0  0  0  0
M  END
>  <MODEL>
4

>  <REMARK>
 VINA RESULT:      -8.0      3.552      7.893
  Name = 
  7 active torsions:
  status: ('A' for Active; 'I' for Inactive)
    1  A    between atoms: C_4  and  C_27
    2  A    between atoms: C_6  and  C_12
    3  A    between atoms: C_8  and  C_33
    4  A    between atoms: C_10  and  N_20
    5  A    between atoms: C_12  and  C_17
    6  A    between atoms: C_12  and  C_27
    7  A    between atoms: C_17  and  C_21
                            x       y       z     vdW  Elec       q    Type
                         _______ _______ _______ _____ _____    ______ ____

>  <TORSDO>
F 7

$$$$
=
 OpenBabel11062422013D

 35 39  0  0  1  0  0  0  0  0999 V2000
  190.1480  173.6440  140.8680 C   0  0  0  0  0  0  0  0  0  0  0  0
  189.9780  172.4260  144.0280 C   0  0  1  0  0  3  0  0  0  0  0  0
  189.6910  173.7190  144.7990 C   0  0  0  0  0  2  0  0  0  0  0  0
  190.7120  173.8740  142.1100 C   0  0  1  0  0  0  0  0  0  0  0  0
  191.6040  174.0890  141.0660 N   0  0  0  0  0  0  0  0  0  0  0  0
  189.2200  174.8360  143.8600 C   0  0  2  0  0  3  0  0  0  0  0  0
  189.1850  173.3200  140.1290 O   0  0  0  0  0  0  0  0  0  0  0  0
  190.2950  175.1510  142.8260 C   0  0  0  0  0  2  0  0  0  0  0  0
  188.8060  171.9340  143.4550 O   0  0  0  0  0  1  0  0  0  0  0  0
  191.0430  172.6450  142.9510 C   0  0  0  0  0  2  0  0  0  0  0  0
  195.8470  175.7110  142.1330 N   0  0  0  0  0  2  0  0  0  0  0  0
  192.8850  174.4470  140.5610 C   0  0  0  0  0  3  0  0  0  0  0  0
  196.8050  175.4090  143.1410 C   0  0  0  0  0  0  0  0  0  0  0  0
  194.7570  172.4610  143.3350 C   0  0  0  0  0  2  0  0  0  0  0  0
  193.8970  174.5540  141.3750 C   0  0  0  0  0  0  0  0  0  0  0  0
  194.9060  174.6540  142.1960 C   0  0  0  0  0  0  0  0  0  0  0  0
  195.2670  173.6830  143.2240 C   0  0  0  0  0  0  0  0  0  0  0  0
  197.9150  176.0600  143.2400 N   0  0  0  0  0  2  0  0  0  0  0  0
  196.5490  174.1170  143.8620 C   0  0  2  0  0  3  0  0  0  0  0  0
  196.3710  174.3440  145.3320 C   0  0  0  0  0  0  0  0  0  0  0  0
  197.1200  173.5950  146.2850 N   0  0  0  0  0  1  0  0  0  0  0  0
  195.5510  175.2110  145.7280 O   0  0  0  0  0  0  0  0  0  0  0  0
  188.8960  176.0930  144.6490 C   0  0  0  0  0  2  0  0  0  0  0  0
  187.6340  176.7670  144.1140 C   0  0  2  0  0  3  0  0  0  0  0  0
  185.2880  178.3720  147.3570 C   0  0  0  0  0  2  0  0  0  0  0  0
  186.6640  177.1280  145.2050 C   0  0  0  0  0  0  0  0  0  0  0  0
  185.1750  179.1400  145.0130 C   0  0  0  0  0  2  0  0  0  0  0  0
  185.2690  177.6330  144.8680 C   0  0  2  0  0  3  0  0  0  0  0  0
  184.5000  178.2650  146.0480 C   0  0  1  0  0  3  0  0  0  0  0  0
  186.0870  177.1060  147.6080 C   0  0  0  0  0  2  0  0  0  0  0  0
  187.0340  176.8870  146.4710 C   0  0  0  0  0  3  0  0  0  0  0  0
  186.9890  176.0460  142.9230 C   0  0  0  0  0  2  0  0  0  0  0  0
  187.0560  176.8100  141.6380 C   0  0  0  0  0  0  0  0  0  0  0  0
  186.6130  177.9850  141.5700 O   0  0  0  0  0  1  0  0  0  0  0  0
  187.5720  176.2020  140.5000 O   0  0  0  0  0  0  0  0  0  0  0  0
  1  5  1  0  0  0  0
  1  4  1  0  0  0  0
  2  9  1  6  0  0  0
  2  3  1  0  0  0  0
  4  8  1  1  0  0  0
  4 10  1  0  0  0  0
  5  4  1  0  0  0  0
  6 23  1  1  0  0  0
  6  3  1  0  0  0  0
  7  1  2  0  0  0  0
  8  6  1  0  0  0  0
 10  2  1  0  0  0  0
 11 16  1  0  0  0  0
 11 13  1  0  0  0  0
 12  5  1  0  0  0  0
 12 15  2  0  0  0  0
 13 18  2  0  0  0  0
 13 19  1  0  0  0  0
 15 16  2  0  0  0  0
 16 17  1  0  0  0  0
 17 14  2  0  0  0  0
 17 19  1  0  0  0  0
 19 20  1  1  0  0  0
 20 22  2  0  0  0  0
 20 21  1  0  0  0  0
 24 32  1  6  0  0  0
 24 23  1  0  0  0  0
 24 26  1  0  0  0  0
 25 30  1  0  0  0  0
 26 31  2  0  0  0  0
 28 27  1  6  0  0  0
 28 26  1  0  0  0  0
 28 29  1  0  0  0  0
 29 27  1  6  0  0  0
 29 25  1  0  0  0  0
 31 30  1  0  0  0  0
 33 32  1  0  0  0  0
 34 33  1  0  0  0  0
 35 33  2  0  0  0  0
M  END
>  <MODEL>
5

>  <REMARK>
 VINA RESULT:      -7.9      2.255      3.650
  Name = 
  7 active torsions:
  status: ('A' for Active; 'I' for Inactive)
    1  A    between atoms: C_4  and  C_27
    2  A    between atoms: C_6  and  C_12
    3  A    between atoms: C_8  and  C_33
    4  A    between atoms: C_10  and  N_20
    5  A    between atoms: C_12  and  C_17
    6  A    between atoms: C_12  and  C_27
    7  A    between atoms: C_17  and  C_21
                            x       y       z     vdW  Elec       q    Type
                         _______ _______ _______ _____ _____    ______ ____

>  <TORSDO>
F 7

$$$$
=
 OpenBabel11062422013D

 35 39  0  0  1  0  0  0  0  0999 V2000
  188.0120  173.6080  141.4370 C   0  0  0  0  0  0  0  0  0  0  0  0
  190.4920  172.7770  139.2780 C   0  0  1  0  0  3  0  0  0  0  0  0
  191.7150  173.2060  140.0960 C   0  0  0  0  0  2  0  0  0  0  0  0
  189.1080  174.1910  140.8280 C   0  0  1  0  0  0  0  0  0  0  0  0
  188.0480  175.0760  140.9910 N   0  0  0  0  0  0  0  0  0  0  0  0
  191.3550  173.4090  141.5730 C   0  0  2  0  0  3  0  0  0  0  0  0
  187.4230  172.6280  141.9600 O   0  0  0  0  0  0  0  0  0  0  0  0
  190.3020  174.5020  141.7190 C   0  0  0  0  0  2  0  0  0  0  0  0
  190.0370  171.5290  139.7060 O   0  0  0  0  0  1  0  0  0  0  0  0
  189.3670  173.8110  139.3740 C   0  0  0  0  0  2  0  0  0  0  0  0
  185.2190  178.2330  142.9370 N   0  0  0  0  0  2  0  0  0  0  0  0
  187.4500  176.3590  140.8520 C   0  0  0  0  0  3  0  0  0  0  0  0
  185.0940  178.7920  144.2400 C   0  0  0  0  0  0  0  0  0  0  0  0
  188.4080  177.4190  144.4720 C   0  0  0  0  0  2  0  0  0  0  0  0
  186.9530  176.9600  141.8960 C   0  0  0  0  0  0  0  0  0  0  0  0
  186.4620  177.5560  142.9480 C   0  0  0  0  0  0  0  0  0  0  0  0
  187.1280  177.6910  144.2390 C   0  0  0  0  0  0  0  0  0  0  0  0
  184.1660  179.6410  144.5290 N   0  0  0  0  0  2  0  0  0  0  0  0
  186.2770  178.5400  145.1300 C   0  0  2  0  0  3  0  0  0  0  0  0
  185.8750  177.7930  146.3640 C   0  0  0  0  0  0  0  0  0  0  0  0
  186.2280  178.2740  147.6590 N   0  0  0  0  0  1  0  0  0  0  0  0
  185.2140  176.7290  146.2550 O   0  0  0  0  0  0  0  0  0  0  0  0
  192.5890  173.7880  142.3740 C   0  0  0  0  0  2  0  0  0  0  0  0
  192.2180  174.1700  143.8060 C   0  0  2  0  0  3  0  0  0  0  0  0
  194.8290  177.1890  145.4380 C   0  0  0  0  0  2  0  0  0  0  0  0
  193.2630  175.0280  144.4650 C   0  0  0  0  0  0  0  0  0  0  0  0
  192.7180  176.4340  146.4720 C   0  0  0  0  0  2  0  0  0  0  0  0
  193.3330  175.1360  145.9810 C   0  0  2  0  0  3  0  0  0  0  0  0
  194.2240  176.2810  146.5120 C   0  0  1  0  0  3  0  0  0  0  0  0
  195.3270  176.3700  144.2600 C   0  0  0  0  0  2  0  0  0  0  0  0
  194.1860  175.5990  143.6780 C   0  0  0  0  0  3  0  0  0  0  0  0
  191.7440  172.9940  144.6700 C   0  0  0  0  0  2  0  0  0  0  0  0
  190.2860  173.0320  145.0050 C   0  0  0  0  0  0  0  0  0  0  0  0
  189.5150  172.1230  144.6030 O   0  0  0  0  0  0  0  0  0  0  0  0
  189.7720  174.1010  145.7290 O   0  0  0  0  0  1  0  0  0  0  0  0
  1  7  2  0  0  0  0
  2 10  1  0  0  0  0
  2  9  1  1  0  0  0
  2  3  1  0  0  0  0
  3  6  1  0  0  0  0
  4 10  1  6  0  0  0
  4  5  1  0  0  0  0
  4  1  1  0  0  0  0
  4  8  1  0  0  0  0
  5  1  1  0  0  0  0
  6  8  1  0  0  0  0
  6 23  1  1  0  0  0
 11 16  1  0  0  0  0
 11 13  1  0  0  0  0
 12  5  1  0  0  0  0
 12 15  2  0  0  0  0
 13 18  2  0  0  0  0
 13 19  1  0  0  0  0
 15 16  2  0  0  0  0
 16 17  1  0  0  0  0
 17 14  2  0  0  0  0
 17 19  1  0  0  0  0
 19 20  1  1  0  0  0
 20 21  1  0  0  0  0
 22 20  2  0  0  0  0
 24 23  1  6  0  0  0
 24 26  1  0  0  0  0
 24 32  1  0  0  0  0
 26 28  1  0  0  0  0
 27 29  1  0  0  0  0
 28 27  1  6  0  0  0
 28 29  1  0  0  0  0
 29 25  1  6  0  0  0
 30 25  1  0  0  0  0
 31 30  1  0  0  0  0
 31 26  2  0  0  0  0
 32 33  1  0  0  0  0
 33 35  1  0  0  0  0
 34 33  2  0  0  0  0
M  END
>  <MODEL>
6

>  <REMARK>
 VINA RESULT:      -7.9      3.810      8.137
  Name = 
  7 active torsions:
  status: ('A' for Active; 'I' for Inactive)
    1  A    between atoms: C_4  and  C_27
    2  A    between atoms: C_6  and  C_12
    3  A    between atoms: C_8  and  C_33
    4  A    between atoms: C_10  and  N_20
    5  A    between atoms: C_12  and  C_17
    6  A    between atoms: C_12  and  C_27
    7  A    between atoms: C_17  and  C_21
                            x       y       z     vdW  Elec       q    Type
                         _______ _______ _______ _____ _____    ______ ____

>  <TORSDO>
F 7

$$$$
=
 OpenBabel11062422013D

 35 39  0  0  1  0  0  0  0  0999 V2000
  190.3760  172.9780  140.6470 C   0  0  0  0  0  0  0  0  0  0  0  0
  189.9180  172.7900  144.0010 C   0  0  1  0  0  3  0  0  0  0  0  0
  189.3070  174.1710  144.2660 C   0  0  0  0  0  2  0  0  0  0  0  0
  190.6950  173.6910  141.7880 C   0  0  1  0  0  0  0  0  0  0  0  0
  191.6920  173.7500  140.8200 N   0  0  0  0  0  0  0  0  0  0  0  0
  188.8130  174.8200  142.9690 C   0  0  2  0  0  3  0  0  0  0  0  0
  189.6050  172.2510  139.9710 O   0  0  0  0  0  0  0  0  0  0  0  0
  189.9700  175.0130  141.9940 C   0  0  0  0  0  2  0  0  0  0  0  0
  188.9450  171.9160  143.5170 O   0  0  0  0  0  1  0  0  0  0  0  0
  191.0870  172.8780  143.0170 C   0  0  0  0  0  2  0  0  0  0  0  0
  195.7520  175.7380  141.9730 N   0  0  0  0  0  2  0  0  0  0  0  0
  192.9600  174.1880  140.3480 C   0  0  0  0  0  3  0  0  0  0  0  0
  196.6910  175.5500  143.0260 C   0  0  0  0  0  0  0  0  0  0  0  0
  194.8690  172.4610  143.2660 C   0  0  0  0  0  2  0  0  0  0  0  0
  193.9280  174.4040  141.1920 C   0  0  0  0  0  0  0  0  0  0  0  0
  194.8940  174.6140  142.0450 C   0  0  0  0  0  0  0  0  0  0  0  0
  195.2880  173.7140  143.1230 C   0  0  0  0  0  0  0  0  0  0  0  0
  197.7420  176.2900  143.1380 N   0  0  0  0  0  2  0  0  0  0  0  0
  196.5080  174.2710  143.7890 C   0  0  2  0  0  3  0  0  0  0  0  0
  196.2550  174.5390  145.2410 C   0  0  0  0  0  0  0  0  0  0  0  0
  195.2820  175.4970  145.6500 N   0  0  0  0  0  1  0  0  0  0  0  0
  196.9070  173.9050  146.1090 O   0  0  0  0  0  0  0  0  0  0  0  0
  188.1700  176.1660  143.2590 C   0  0  0  0  0  2  0  0  0  0  0  0
  188.4830  176.6290  144.6800 C   0  0  2  0  0  3  0  0  0  0  0  0
  185.2800  178.2960  147.0380 C   0  0  0  0  0  2  0  0  0  0  0  0
  187.2460  176.9920  145.4560 C   0  0  0  0  0  0  0  0  0  0  0  0
  185.6820  178.7830  144.6510 C   0  0  0  0  0  2  0  0  0  0  0  0
  185.9390  177.2900  144.7370 C   0  0  2  0  0  3  0  0  0  0  0  0
  184.8510  177.9540  145.6080 C   0  0  1  0  0  3  0  0  0  0  0  0
  186.1000  177.1670  147.6370 C   0  0  0  0  0  2  0  0  0  0  0  0
  187.3130  176.9370  146.7940 C   0  0  0  0  0  3  0  0  0  0  0  0
  189.6030  177.6750  144.7730 C   0  0  0  0  0  2  0  0  0  0  0  0
  190.9220  177.1180  145.2090 C   0  0  0  0  0  0  0  0  0  0  0  0
  191.1030  176.7700  146.4040 O   0  0  0  0  0  1  0  0  0  0  0  0
  191.9670  177.0260  144.2990 O   0  0  0  0  0  0  0  0  0  0  0  0
  1  5  1  0  0  0  0
  1  4  1  0  0  0  0
  2  9  1  6  0  0  0
  2  3  1  0  0  0  0
  4  8  1  1  0  0  0
  4 10  1  0  0  0  0
  5  4  1  0  0  0  0
  6 23  1  1  0  0  0
  6  3  1  0  0  0  0
  7  1  2  0  0  0  0
  8  6  1  0  0  0  0
 10  2  1  0  0  0  0
 11 16  1  0  0  0  0
 11 13  1  0  0  0  0
 12  5  1  0  0  0  0
 12 15  2  0  0  0  0
 13 18  2  0  0  0  0
 13 19  1  0  0  0  0
 15 16  2  0  0  0  0
 16 17  1  0  0  0  0
 17 14  2  0  0  0  0
 17 19  1  0  0  0  0
 19 20  1  1  0  0  0
 20 21  1  0  0  0  0
 20 22  2  0  0  0  0
 24 23  1  6  0  0  0
 24 32  1  0  0  0  0
 24 26  1  0  0  0  0
 25 30  1  0  0  0  0
 26 31  2  0  0  0  0
 28 27  1  6  0  0  0
 28 26  1  0  0  0  0
 28 29  1  0  0  0  0
 29 27  1  6  0  0  0
 29 25  1  0  0  0  0
 31 30  1  0  0  0  0
 32 33  1  0  0  0  0
 33 34  1  0  0  0  0
 35 33  2  0  0  0  0
M  END
>  <MODEL>
7

>  <REMARK>
 VINA RESULT:      -7.9      2.212      3.167
  Name = 
  7 active torsions:
  status: ('A' for Active; 'I' for Inactive)
    1  A    between atoms: C_4  and  C_27
    2  A    between atoms: C_6  and  C_12
    3  A    between atoms: C_8  and  C_33
    4  A    between atoms: C_10  and  N_20
    5  A    between atoms: C_12  and  C_17
    6  A    between atoms: C_12  and  C_27
    7  A    between atoms: C_17  and  C_21
                            x       y       z     vdW  Elec       q    Type
                         _______ _______ _______ _____ _____    ______ ____

>  <TORSDO>
F 7

$$$$
=
 OpenBabel11062422013D

 35 39  0  0  1  0  0  0  0  0999 V2000
  189.9580  173.1520  144.1510 C   0  0  0  0  0  0  0  0  0  0  0  0
  190.8220  176.2490  143.0750 C   0  0  1  0  0  3  0  0  0  0  0  0
  189.4500  176.7750  142.6410 C   0  0  0  0  0  2  0  0  0  0  0  0
  189.8220  173.9440  143.0260 C   0  0  1  0  0  0  0  0  0  0  0  0
  189.9730  172.5970  142.7200 N   0  0  0  0  0  0  0  0  0  0  0  0
  188.3160  175.9210  143.2220 C   0  0  2  0  0  3  0  0  0  0  0  0
  190.0220  172.9930  145.3970 O   0  0  0  0  0  0  0  0  0  0  0  0
  188.4290  174.4820  142.7320 C   0  0  0  0  0  2  0  0  0  0  0  0
  190.9680  176.3610  144.4580 O   0  0  0  0  0  1  0  0  0  0  0  0
  191.0260  174.7960  142.6380 C   0  0  0  0  0  2  0  0  0  0  0  0
  189.3490  171.2640  138.2930 N   0  0  0  0  0  2  0  0  0  0  0  0
  190.0700  171.5220  141.7930 C   0  0  0  0  0  3  0  0  0  0  0  0
  189.6910  171.8180  137.0270 C   0  0  0  0  0  0  0  0  0  0  0  0
  191.9010  173.7050  139.1430 C   0  0  0  0  0  2  0  0  0  0  0  0
  190.0770  171.7660  140.5140 C   0  0  0  0  0  0  0  0  0  0  0  0
  190.0890  172.0210  139.2340 C   0  0  0  0  0  0  0  0  0  0  0  0
  190.9020  173.0370  138.5750 C   0  0  0  0  0  0  0  0  0  0  0  0
  189.3480  171.2480  135.9220 N   0  0  0  0  0  2  0  0  0  0  0  0
  190.7050  172.9220  137.0960 C   0  0  2  0  0  3  0  0  0  0  0  0
  190.1590  174.1940  136.5240 C   0  0  0  0  0  0  0  0  0  0  0  0
  190.9570  175.0190  135.6780 N   0  0  0  0  0  1  0  0  0  0  0  0
  188.9790  174.5350  136.7910 O   0  0  0  0  0  0  0  0  0  0  0  0
  186.9650  176.4860  142.8170 C   0  0  0  0  0  2  0  0  0  0  0  0
  186.8320  177.9480  143.2390 C   0  0  2  0  0  3  0  0  0  0  0  0
  184.5350  177.7490  146.8830 C   0  0  0  0  0  2  0  0  0  0  0  0
  186.1260  178.1090  144.5570 C   0  0  0  0  0  0  0  0  0  0  0  0
  186.7530  176.7150  146.5490 C   0  0  0  0  0  2  0  0  0  0  0  0
  186.9030  178.0610  145.8640 C   0  0  2  0  0  3  0  0  0  0  0  0
  186.0370  177.9150  147.1340 C   0  0  1  0  0  3  0  0  0  0  0  0
  184.0660  178.6920  145.7900 C   0  0  0  0  0  2  0  0  0  0  0  0
  184.8180  178.4000  144.5310 C   0  0  0  0  0  3  0  0  0  0  0  0
  186.3070  178.8780  142.1360 C   0  0  0  0  0  2  0  0  0  0  0  0
  185.6410  178.1640  141.0020 C   0  0  0  0  0  0  0  0  0  0  0  0
  186.3020  177.8220  139.9870 O   0  0  0  0  0  0  0  0  0  0  0  0
  184.2750  177.9160  141.0500 O   0  0  0  0  0  1  0  0  0  0  0  0
  1  7  2  0  0  0  0
  2  9  1  1  0  0  0
  3  2  1  0  0  0  0
  3  6  1  0  0  0  0
  4 10  1  6  0  0  0
  4  1  1  0  0  0  0
  5  4  1  0  0  0  0
  5  1  1  0  0  0  0
  6 23  1  6  0  0  0
  8  4  1  0  0  0  0
  8  6  1  0  0  0  0
 10  2  1  0  0  0  0
 11 16  1  0  0  0  0
 12  5  1  0  0  0  0
 13 19  1  0  0  0  0
 13 11  1  0  0  0  0
 15 12  2  0  0  0  0
 16 15  2  0  0  0  0
 17 14  2  0  0  0  0
 17 16  1  0  0  0  0
 18 13  2  0  0  0  0
 19 20  1  1  0  0  0
 19 17  1  0  0  0  0
 20 22  2  0  0  0  0
 21 20  1  0  0  0  0
 23 24  1  0  0  0  0
 24 32  1  6  0  0  0
 24 26  1  0  0  0  0
 25 29  1  0  0  0  0
 26 28  1  0  0  0  0
 28 27  1  6  0  0  0
 28 29  1  0  0  0  0
 29 27  1  6  0  0  0
 30 25  1  0  0  0  0
 31 26  2  0  0  0  0
 31 30  1  0  0  0  0
 33 35  1  0  0  0  0
 33 32  1  0  0  0  0
 34 33  2  0  0  0  0
M  END
>  <MODEL>
8

>  <REMARK>
 VINA RESULT:      -7.8      3.685      6.232
  Name = 
  7 active torsions:
  status: ('A' for Active; 'I' for Inactive)
    1  A    between atoms: C_4  and  C_27
    2  A    between atoms: C_6  and  C_12
    3  A    between atoms: C_8  and  C_33
    4  A    between atoms: C_10  and  N_20
    5  A    between atoms: C_12  and  C_17
    6  A    between atoms: C_12  and  C_27
    7  A    between atoms: C_17  and  C_21
                            x       y       z     vdW  Elec       q    Type
                         _______ _______ _______ _____ _____    ______ ____

>  <TORSDO>
F 7

$$$$
=
 OpenBabel11062422013D

 35 39  0  0  1  0  0  0  0  0999 V2000
  192.7120  176.0320  146.2260 C   0  0  0  0  0  0  0  0  0  0  0  0
  191.6500  177.2660  143.2520 C   0  0  1  0  0  3  0  0  0  0  0  0
  190.2050  176.7520  143.2480 C   0  0  0  0  0  2  0  0  0  0  0  0
  192.1170  175.5850  145.0600 C   0  0  1  0  0  0  0  0  0  0  0  0
  192.9900  174.6530  145.6100 N   0  0  0  0  0  0  0  0  0  0  0  0
  189.7680  176.3100  144.6490 C   0  0  2  0  0  3  0  0  0  0  0  0
  192.8950  176.8990  147.1180 O   0  0  0  0  0  0  0  0  0  0  0  0
  190.6540  175.1750  145.1510 C   0  0  0  0  0  2  0  0  0  0  0  0
  191.7520  178.4170  144.0340 O   0  0  0  0  0  1  0  0  0  0  0  0
  192.6200  176.1950  143.7560 C   0  0  0  0  0  2  0  0  0  0  0  0
  192.7430  170.1940  144.2610 N   0  0  0  0  0  2  0  0  0  0  0  0
  193.6430  173.3900  145.6090 C   0  0  0  0  0  3  0  0  0  0  0  0
  192.4060  169.5380  143.0430 C   0  0  0  0  0  0  0  0  0  0  0  0
  193.0340  172.8530  141.8030 C   0  0  0  0  0  2  0  0  0  0  0  0
  193.2760  172.4700  144.7630 C   0  0  0  0  0  0  0  0  0  0  0  0
  192.9050  171.5560  143.9080 C   0  0  0  0  0  0  0  0  0  0  0  0
  192.6860  171.7630  142.4810 C   0  0  0  0  0  0  0  0  0  0  0  0
  192.3740  168.2510  142.9520 N   0  0  0  0  0  2  0  0  0  0  0  0
  192.3870  170.4420  141.8450 C   0  0  2  0  0  3  0  0  0  0  0  0
  191.0370  170.4490  141.1950 C   0  0  0  0  0  0  0  0  0  0  0  0
  190.8450  169.8840  139.9010 N   0  0  0  0  0  1  0  0  0  0  0  0
  190.0610  170.9560  141.8040 O   0  0  0  0  0  0  0  0  0  0  0  0
  188.3200  175.8480  144.6330 C   0  0  0  0  0  2  0  0  0  0  0  0
  187.4640  176.7550  143.7510 C   0  0  2  0  0  3  0  0  0  0  0  0
  184.3900  179.0420  145.7290 C   0  0  0  0  0  2  0  0  0  0  0  0
  186.5840  177.6770  144.5490 C   0  0  0  0  0  0  0  0  0  0  0  0
  185.1920  176.8220  146.4560 C   0  0  0  0  0  2  0  0  0  0  0  0
  186.4750  177.5290  146.0590 C   0  0  2  0  0  3  0  0  0  0  0  0
  185.3120  178.3100  146.7090 C   0  0  1  0  0  3  0  0  0  0  0  0
  185.1970  179.7190  144.6360 C   0  0  0  0  0  2  0  0  0  0  0  0
  185.9920  178.6890  143.9000 C   0  0  0  0  0  3  0  0  0  0  0  0
  186.7310  176.0240  142.6170 C   0  0  0  0  0  2  0  0  0  0  0  0
  187.3970  176.1440  141.2830 C   0  0  0  0  0  0  0  0  0  0  0  0
  187.1630  177.1320  140.5400 O   0  0  0  0  0  0  0  0  0  0  0  0
  188.2470  175.1380  140.8420 O   0  0  0  0  0  1  0  0  0  0  0  0
  1  7  2  0  0  0  0
  2 10  1  0  0  0  0
  2  9  1  1  0  0  0
  3  2  1  0  0  0  0
  3  6  1  0  0  0  0
  4 10  1  6  0  0  0
  4  8  1  0  0  0  0
  4  5  1  0  0  0  0
  4  1  1  0  0  0  0
  5  1  1  0  0  0  0
  6 23  1  6  0  0  0
  6  8  1  0  0  0  0
 12  5  1  0  0  0  0
 13 11  1  0  0  0  0
 14 17  2  0  0  0  0
 15 12  2  0  0  0  0
 16 11  1  0  0  0  0
 16 15  2  0  0  0  0
 17 16  1  0  0  0  0
 18 13  2  0  0  0  0
 19 20  1  1  0  0  0
 19 17  1  0  0  0  0
 19 13  1  0  0  0  0
 20 22  2  0  0  0  0
 21 20  1  0  0  0  0
 24 32  1  6  0  0  0
 24 26  1  0  0  0  0
 24 23  1  0  0  0  0
 26 28  1  0  0  0  0
 27 29  1  0  0  0  0
 28 27  1  6  0  0  0
 28 29  1  0  0  0  0
 29 25  1  6  0  0  0
 30 25  1  0  0  0  0
 31 26  2  0  0  0  0
 31 30  1  0  0  0  0
 33 32  1  0  0  0  0
 34 33  2  0  0  0  0
 35 33  1  0  0  0  0
M  END
>  <MODEL>
9

>  <REMARK>
 VINA RESULT:      -7.7      2.505      4.506
  Name = 
  7 active torsions:
  status: ('A' for Active; 'I' for Inactive)
    1  A    between atoms: C_4  and  C_27
    2  A    between atoms: C_6  and  C_12
    3  A    between atoms: C_8  and  C_33
    4  A    between atoms: C_10  and  N_20
    5  A    between atoms: C_12  and  C_17
    6  A    between atoms: C_12  and  C_27
    7  A    between atoms: C_17  and  C_21
                            x       y       z     vdW  Elec       q    Type
                         _______ _______ _______ _____ _____    ______ ____

>  <TORSDO>
F 7

$$$$
