=
 OpenBabel11062422543D

 46 50  0  0  1  0  0  0  0  0999 V2000
  188.8000  173.3350  139.6730 C   0  0  1  0  0  3  0  0  0  0  0  0
  189.6130  173.8710  140.8760 C   0  0  2  0  0  3  0  0  0  0  0  0
  192.3240  170.7830  141.1570 S   0  0  0  0  0  0  0  0  0  0  0  0
  188.2160  174.4810  138.8690 C   0  0  0  0  0  1  0  0  0  0  0  0
  191.5360  173.0250  142.5700 C   0  0  2  0  0  3  0  0  0  0  0  0
  190.8160  172.9640  141.2330 C   0  0  1  0  0  3  0  0  0  0  0  0
  190.4840  171.5550  139.2800 C   0  0  0  0  0  3  0  0  0  0  0  0
  192.6920  172.0390  142.4480 C   0  0  2  0  0  3  0  0  0  0  0  0
  189.5910  172.4170  138.7690 C   0  0  0  0  0  3  0  0  0  0  0  0
  190.7230  171.5360  140.7590 C   0  0  1  0  0  3  0  0  0  0  0  0
  190.6560  172.5700  143.7230 C   0  0  0  0  0  1  0  0  0  0  0  0
  188.7030  174.1730  142.0250 C   0  0  0  0  0  0  0  0  0  0  0  0
  188.8750  175.3710  142.7870 N   0  0  0  0  0  2  0  0  0  0  0  0
  187.7840  173.3570  142.3110 O   0  0  0  0  0  0  0  0  0  0  0  0
  188.0720  175.6650  143.9660 C   0  0  2  0  0  3  0  0  0  0  0  0
  186.2140  177.1850  144.6070 N   0  0  0  0  0  0  0  0  0  0  0  0
  185.5560  179.0120  143.2210 C   0  0  0  0  0  3  0  0  0  0  0  0
  187.3390  177.5650  142.5710 N   0  0  0  0  0  0  0  0  0  0  0  0
  187.1770  176.8360  143.7100 C   0  0  0  0  0  0  0  0  0  0  0  0
  186.5490  178.6410  142.3130 C   0  0  0  0  0  3  0  0  0  0  0  0
  184.3510  178.6110  145.3710 C   0  0  0  0  0  1  0  0  0  0  0  0
  185.4080  178.2570  144.3850 C   0  0  0  0  0  0  0  0  0  0  0  0
  190.0410  175.0490  147.1650 C   0  0  0  0  0  3  0  0  0  0  0  0
  189.2370  174.8240  146.0460 C   0  0  0  0  0  3  0  0  0  0  0  0
  190.2650  177.3800  146.5360 C   0  0  0  0  0  3  0  0  0  0  0  0
  189.4610  177.1560  145.4160 C   0  0  0  0  0  3  0  0  0  0  0  0
  190.5550  176.3280  147.4110 C   0  0  0  0  0  3  0  0  0  0  0  0
  188.9440  175.8790  145.1660 C   0  0  0  0  0  0  0  0  0  0  0  0
  193.9730  172.7760  142.0920 C   0  0  0  0  0  2  0  0  0  0  0  0
  195.1750  171.9320  142.4810 C   0  0  0  0  0  2  0  0  0  0  0  0
  197.3700  173.7720  141.7840 O   0  0  0  0  0  0  0  0  0  0  0  0
  197.1160  173.5050  142.9910 C   0  0  0  0  0  0  0  0  0  0  0  0
  196.4680  171.0360  145.1470 C   0  0  0  0  0  1  0  0  0  0  0  0
  196.0910  172.4780  144.8350 C   0  0  2  0  0  0  0  0  0  0  0  0
  196.0420  172.6760  143.3910 N   0  0  0  0  0  0  0  0  0  0  0  0
  197.2040  173.4070  145.3450 C   0  0  0  0  0  3  0  0  0  0  0  0
  197.9260  173.9890  144.1240 C   0  0  0  0  0  3  0  0  0  0  0  0
  193.9400  171.9500  145.7640 O   0  0  0  0  0  0  0  0  0  0  0  0
  194.7860  172.8460  145.4920 C   0  0  0  0  0  0  0  0  0  0  0  0
  194.4880  174.1950  145.7250 O   0  0  0  0  0  0  0  0  0  0  0  0
  193.2550  174.7840  145.3210 C   0  0  0  0  0  2  0  0  0  0  0  0
  193.4980  176.0740  144.5380 C   0  0  2  0  0  3  0  0  0  0  0  0
  192.3960  176.2960  143.5160 C   0  0  0  0  0  1  0  0  0  0  0  0
  195.6910  177.0630  144.3730 O   0  0  0  0  0  1  0  0  0  0  0  0
  194.8620  176.0680  143.8550 C   0  0  0  0  0  3  0  0  0  0  0  0
  194.7160  176.2500  142.4810 O   0  0  0  0  0  1  0  0  0  0  0  0
  1  4  1  6  0  0  0
  1  2  1  0  0  0  0
  2  6  1  0  0  0  0
  2 12  1  1  0  0  0
  3  8  1  0  0  0  0
  5 11  1  1  0  0  0
  6  5  1  0  0  0  0
  7 10  1  0  0  0  0
  8  5  1  0  0  0  0
  9  7  2  0  0  0  0
  9  1  1  0  0  0  0
 10  3  1  0  0  0  0
 10  6  1  0  0  0  0
 12 14  2  0  0  0  0
 12 13  1  0  0  0  0
 13 15  1  0  0  0  0
 15 28  1  0  0  0  0
 17 22  2  0  0  0  0
 18 19  1  0  0  0  0
 19 15  1  0  0  0  0
 19 16  2  0  0  0  0
 20 18  2  0  0  0  0
 20 17  1  0  0  0  0
 22 16  1  0  0  0  0
 22 21  1  0  0  0  0
 23 27  1  0  0  0  0
 24 23  2  0  0  0  0
 25 27  2  0  0  0  0
 26 25  1  0  0  0  0
 28 26  2  0  0  0  0
 28 24  1  0  0  0  0
 29  8  1  0  0  0  0
 29 30  1  0  0  0  0
 30 35  1  0  0  0  0
 31 32  2  0  0  0  0
 32 35  1  0  0  0  0
 32 37  1  0  0  0  0
 34 33  1  0  0  0  0
 34 36  1  0  0  0  0
 34 39  1  0  0  0  0
 35 34  1  0  0  0  0
 37 36  2  0  0  0  0
 39 40  1  0  0  0  0
 39 38  2  0  0  0  0
 41 40  1  0  0  0  0
 42 41  1  0  0  0  0
 43 42  1  0  0  0  0
 45 44  1  0  0  0  0
 45 42  1  0  0  0  0
 46 45  1  0  0  0  0
M  END
>  <MODEL>
1

>  <REMARK>
 VINA RESULT:      -7.0      0.000      0.000
  Name = 
  12 active torsions:
  status: ('A' for Active; 'I' for Inactive)
    1  A    between atoms: C_7  and  C_14
    2  A    between atoms: C_9  and  C_12
    3  A    between atoms: C_9  and  C_28
    4  A    between atoms: C_10  and  C_26
    5  A    between atoms: C_10  and  O_38
    6  A    between atoms: C_12  and  N_29
    7  A    between atoms: C_16  and  C_46
    8  A    between atoms: C_22  and  C_26
    9  A    between atoms: N_23  and  C_46
   10  A    between atoms: C_24  and  C_39
   11  A    between atoms: O_38  and  C_39
   12  A    between atoms: C_43  and  C_46
                            x       y       z     vdW  Elec       q    Type
                         _______ _______ _______ _____ _____    ______ ____

>  <TORSDO>
F 12

$$$$
=
 OpenBabel11062422543D

 46 50  0  0  1  0  0  0  0  0999 V2000
  188.5220  173.3210  139.0710 C   0  0  1  0  0  3  0  0  0  0  0  0
  189.3400  173.7740  140.3030 C   0  0  2  0  0  3  0  0  0  0  0  0
  191.8590  170.5230  140.5430 S   0  0  0  0  0  0  0  0  0  0  0  0
  188.0220  174.5210  138.2900 C   0  0  0  0  0  1  0  0  0  0  0  0
  191.1770  172.7670  142.0070 C   0  0  2  0  0  3  0  0  0  0  0  0
  190.4810  172.7870  140.6560 C   0  0  1  0  0  3  0  0  0  0  0  0
  190.1050  171.4550  138.6570 C   0  0  0  0  0  3  0  0  0  0  0  0
  192.2750  171.7180  141.8760 C   0  0  2  0  0  3  0  0  0  0  0  0
  189.2750  172.3830  138.1550 C   0  0  0  0  0  3  0  0  0  0  0  0
  190.3130  171.3810  140.1380 C   0  0  1  0  0  3  0  0  0  0  0  0
  190.2490  172.3330  143.1290 C   0  0  0  0  0  1  0  0  0  0  0  0
  188.4270  174.0960  141.4450 C   0  0  0  0  0  0  0  0  0  0  0  0
  188.5340  175.3510  142.1220 N   0  0  0  0  0  2  0  0  0  0  0  0
  187.5630  173.2470  141.7990 O   0  0  0  0  0  0  0  0  0  0  0  0
  187.7290  175.6740  143.2920 C   0  0  2  0  0  3  0  0  0  0  0  0
  185.8910  177.2320  143.9010 N   0  0  0  0  0  0  0  0  0  0  0  0
  184.7070  178.4780  142.2460 C   0  0  0  0  0  3  0  0  0  0  0  0
  186.4610  176.9830  141.6260 N   0  0  0  0  0  0  0  0  0  0  0  0
  186.6580  176.6560  142.9340 C   0  0  0  0  0  0  0  0  0  0  0  0
  185.5040  177.8790  141.2690 C   0  0  0  0  0  3  0  0  0  0  0  0
  184.0890  178.7410  144.6500 C   0  0  0  0  0  1  0  0  0  0  0  0
  184.9270  178.1360  143.5800 C   0  0  0  0  0  0  0  0  0  0  0  0
  189.4130  176.0000  146.6900 C   0  0  0  0  0  3  0  0  0  0  0  0
  188.6130  175.5130  145.6550 C   0  0  0  0  0  3  0  0  0  0  0  0
  190.1740  177.8000  145.2560 C   0  0  0  0  0  3  0  0  0  0  0  0
  189.3740  177.3140  144.2190 C   0  0  0  0  0  3  0  0  0  0  0  0
  190.1940  177.1440  146.4900 C   0  0  0  0  0  3  0  0  0  0  0  0
  188.5900  176.1700  144.4140 C   0  0  0  0  0  0  0  0  0  0  0  0
  193.6040  172.3880  141.5650 C   0  0  0  0  0  2  0  0  0  0  0  0
  194.1090  173.1190  142.7970 C   0  0  0  0  0  2  0  0  0  0  0  0
  193.0810  175.6050  141.5920 O   0  0  0  0  0  0  0  0  0  0  0  0
  194.3180  175.4490  141.7820 C   0  0  0  0  0  0  0  0  0  0  0  0
  196.8750  173.3280  141.4220 C   0  0  0  0  0  1  0  0  0  0  0  0
  196.3230  174.3820  142.3720 C   0  0  2  0  0  0  0  0  0  0  0  0
  194.8670  174.3040  142.4070 N   0  0  0  0  0  0  0  0  0  0  0  0
  196.6530  175.7770  141.8160 C   0  0  0  0  0  3  0  0  0  0  0  0
  195.3410  176.4160  141.3450 C   0  0  0  0  0  3  0  0  0  0  0  0
  197.7520  173.3100  143.9780 O   0  0  0  0  0  0  0  0  0  0  0  0
  196.9220  174.2320  143.7460 C   0  0  0  0  0  0  0  0  0  0  0  0
  196.4910  175.0720  144.7810 O   0  0  0  0  0  0  0  0  0  0  0  0
  195.7020  174.5970  145.8690 C   0  0  0  0  0  2  0  0  0  0  0  0
  194.5640  175.5700  146.1810 C   0  0  2  0  0  3  0  0  0  0  0  0
  193.2180  174.8720  146.0770 C   0  0  0  0  0  1  0  0  0  0  0  0
  194.9170  177.9460  145.9800 O   0  0  0  0  0  1  0  0  0  0  0  0
  194.6010  176.7900  145.2670 C   0  0  0  0  0  3  0  0  0  0  0  0
  193.3720  176.9550  144.6310 O   0  0  0  0  0  1  0  0  0  0  0  0
  1  4  1  6  0  0  0
  1  2  1  0  0  0  0
  2  6  1  0  0  0  0
  2 12  1  1  0  0  0
  3  8  1  0  0  0  0
  5 11  1  1  0  0  0
  6  5  1  0  0  0  0
  7 10  1  0  0  0  0
  8  5  1  0  0  0  0
  9  7  2  0  0  0  0
  9  1  1  0  0  0  0
 10  3  1  0  0  0  0
 10  6  1  0  0  0  0
 12 14  2  0  0  0  0
 12 13  1  0  0  0  0
 13 15  1  0  0  0  0
 15 28  1  0  0  0  0
 17 22  2  0  0  0  0
 18 19  1  0  0  0  0
 19 15  1  0  0  0  0
 19 16  2  0  0  0  0
 20 18  2  0  0  0  0
 20 17  1  0  0  0  0
 22 16  1  0  0  0  0
 22 21  1  0  0  0  0
 24 23  2  0  0  0  0
 25 27  2  0  0  0  0
 26 28  2  0  0  0  0
 26 25  1  0  0  0  0
 27 23  1  0  0  0  0
 28 24  1  0  0  0  0
 29  8  1  0  0  0  0
 29 30  1  0  0  0  0
 31 32  2  0  0  0  0
 32 35  1  0  0  0  0
 33 34  1  0  0  0  0
 34 35  1  0  0  0  0
 34 39  1  0  0  0  0
 35 30  1  0  0  0  0
 36 34  1  0  0  0  0
 37 32  1  0  0  0  0
 37 36  2  0  0  0  0
 39 38  2  0  0  0  0
 39 40  1  0  0  0  0
 40 41  1  0  0  0  0
 41 42  1  0  0  0  0
 43 42  1  0  0  0  0
 45 44  1  0  0  0  0
 45 42  1  0  0  0  0
 46 45  1  0  0  0  0
M  END
>  <MODEL>
2

>  <REMARK>
 VINA RESULT:      -6.8      1.520      2.107
  Name = 
  12 active torsions:
  status: ('A' for Active; 'I' for Inactive)
    1  A    between atoms: C_7  and  C_14
    2  A    between atoms: C_9  and  C_12
    3  A    between atoms: C_9  and  C_28
    4  A    between atoms: C_10  and  C_26
    5  A    between atoms: C_10  and  O_38
    6  A    between atoms: C_12  and  N_29
    7  A    between atoms: C_16  and  C_46
    8  A    between atoms: C_22  and  C_26
    9  A    between atoms: N_23  and  C_46
   10  A    between atoms: C_24  and  C_39
   11  A    between atoms: O_38  and  C_39
   12  A    between atoms: C_43  and  C_46
                            x       y       z     vdW  Elec       q    Type
                         _______ _______ _______ _____ _____    ______ ____

>  <TORSDO>
F 12

$$$$
=
 OpenBabel11062422543D

 46 50  0  0  1  0  0  0  0  0999 V2000
  189.3250  172.5460  139.7780 C   0  0  1  0  0  3  0  0  0  0  0  0
  189.7950  173.2570  141.0690 C   0  0  2  0  0  3  0  0  0  0  0  0
  192.0090  170.1650  142.6520 S   0  0  0  0  0  0  0  0  0  0  0  0
  189.1100  173.5500  138.6610 C   0  0  0  0  0  1  0  0  0  0  0  0
  191.0500  172.6540  143.3810 C   0  0  2  0  0  3  0  0  0  0  0  0
  190.7520  172.3830  141.9160 C   0  0  1  0  0  3  0  0  0  0  0  0
  190.8790  170.6590  140.2060 C   0  0  0  0  0  3  0  0  0  0  0  0
  192.0960  171.6170  143.7760 C   0  0  2  0  0  3  0  0  0  0  0  0
  190.2580  171.4500  139.3160 C   0  0  0  0  0  3  0  0  0  0  0  0
  190.6710  170.8970  141.6700 C   0  0  1  0  0  3  0  0  0  0  0  0
  189.8330  172.4490  144.2680 C   0  0  0  0  0  1  0  0  0  0  0  0
  188.6190  173.7960  141.8230 C   0  0  0  0  0  0  0  0  0  0  0  0
  188.6500  175.1230  142.3550 N   0  0  0  0  0  2  0  0  0  0  0  0
  187.6030  173.0650  141.9810 O   0  0  0  0  0  0  0  0  0  0  0  0
  187.5680  175.6600  143.1700 C   0  0  2  0  0  3  0  0  0  0  0  0
  185.5560  177.0860  142.8730 N   0  0  0  0  0  0  0  0  0  0  0  0
  185.1610  178.2870  140.8500 C   0  0  0  0  0  3  0  0  0  0  0  0
  187.0990  176.9180  141.0980 N   0  0  0  0  0  0  0  0  0  0  0  0
  186.7110  176.5790  142.3590 C   0  0  0  0  0  0  0  0  0  0  0  0
  186.3470  177.7590  140.3400 C   0  0  0  0  0  3  0  0  0  0  0  0
  183.5140  178.4640  142.7180 C   0  0  0  0  0  1  0  0  0  0  0  0
  184.7810  177.9330  142.1450 C   0  0  0  0  0  0  0  0  0  0  0  0
  187.8630  177.0450  146.7030 C   0  0  0  0  0  3  0  0  0  0  0  0
  187.3470  176.4030  145.5760 C   0  0  0  0  0  3  0  0  0  0  0  0
  189.8960  177.5520  145.4840 C   0  0  0  0  0  3  0  0  0  0  0  0
  189.3810  176.9090  144.3560 C   0  0  0  0  0  3  0  0  0  0  0  0
  189.1380  177.6200  146.6570 C   0  0  0  0  0  3  0  0  0  0  0  0
  188.1060  176.3320  144.3960 C   0  0  0  0  0  0  0  0  0  0  0  0
  193.4860  172.2280  143.7140 C   0  0  0  0  0  2  0  0  0  0  0  0
  193.5860  173.3750  144.7050 C   0  0  0  0  0  2  0  0  0  0  0  0
  196.5240  173.1490  144.7860 O   0  0  0  0  0  0  0  0  0  0  0  0
  195.9740  174.2040  144.3670 C   0  0  0  0  0  0  0  0  0  0  0  0
  193.5870  176.4570  144.9970 C   0  0  0  0  0  1  0  0  0  0  0  0
  194.2580  175.7180  143.8460 C   0  0  2  0  0  0  0  0  0  0  0  0
  194.5710  174.3520  144.2510 N   0  0  0  0  0  0  0  0  0  0  0  0
  195.6100  176.3840  143.5450 C   0  0  0  0  0  3  0  0  0  0  0  0
  196.7170  175.4190  143.9850 C   0  0  0  0  0  3  0  0  0  0  0  0
  192.1460  175.9090  142.7180 O   0  0  0  0  0  0  0  0  0  0  0  0
  193.3940  175.7490  142.6130 C   0  0  0  0  0  0  0  0  0  0  0  0
  193.9740  175.5190  141.3590 O   0  0  0  0  0  0  0  0  0  0  0  0
  193.7100  174.3420  140.6010 C   0  0  0  0  0  2  0  0  0  0  0  0
  193.7530  174.6390  139.1010 C   0  0  2  0  0  3  0  0  0  0  0  0
  192.8950  173.6470  138.3340 C   0  0  0  0  0  1  0  0  0  0  0  0
  195.2030  174.4630  137.1830 O   0  0  0  0  0  1  0  0  0  0  0  0
  195.1810  174.6300  138.5670 C   0  0  0  0  0  3  0  0  0  0  0  0
  195.9170  173.6120  139.1720 O   0  0  0  0  0  1  0  0  0  0  0  0
  1  4  1  6  0  0  0
  1  2  1  0  0  0  0
  2 12  1  1  0  0  0
  2  6  1  0  0  0  0
  3  8  1  0  0  0  0
  5  8  1  0  0  0  0
  5 11  1  1  0  0  0
  6  5  1  0  0  0  0
  7 10  1  0  0  0  0
  9  1  1  0  0  0  0
  9  7  2  0  0  0  0
 10  6  1  0  0  0  0
 10  3  1  0  0  0  0
 12 14  2  0  0  0  0
 12 13  1  0  0  0  0
 13 15  1  0  0  0  0
 15 28  1  0  0  0  0
 17 22  2  0  0  0  0
 18 19  1  0  0  0  0
 19 16  2  0  0  0  0
 19 15  1  0  0  0  0
 20 17  1  0  0  0  0
 20 18  2  0  0  0  0
 22 21  1  0  0  0  0
 22 16  1  0  0  0  0
 24 23  2  0  0  0  0
 25 27  2  0  0  0  0
 26 28  2  0  0  0  0
 26 25  1  0  0  0  0
 27 23  1  0  0  0  0
 28 24  1  0  0  0  0
 29  8  1  0  0  0  0
 29 30  1  0  0  0  0
 32 31  2  0  0  0  0
 34 35  1  0  0  0  0
 34 33  1  0  0  0  0
 35 32  1  0  0  0  0
 35 30  1  0  0  0  0
 36 34  1  0  0  0  0
 36 37  2  0  0  0  0
 37 32  1  0  0  0  0
 39 38  2  0  0  0  0
 39 34  1  0  0  0  0
 40 39  1  0  0  0  0
 41 40  1  0  0  0  0
 42 41  1  0  0  0  0
 43 42  1  0  0  0  0
 44 45  1  0  0  0  0
 45 42  1  0  0  0  0
 45 46  1  0  0  0  0
M  END
>  <MODEL>
3

>  <REMARK>
 VINA RESULT:      -6.6      1.899      3.095
  Name = 
  12 active torsions:
  status: ('A' for Active; 'I' for Inactive)
    1  A    between atoms: C_7  and  C_14
    2  A    between atoms: C_9  and  C_12
    3  A    between atoms: C_9  and  C_28
    4  A    between atoms: C_10  and  C_26
    5  A    between atoms: C_10  and  O_38
    6  A    between atoms: C_12  and  N_29
    7  A    between atoms: C_16  and  C_46
    8  A    between atoms: C_22  and  C_26
    9  A    between atoms: N_23  and  C_46
   10  A    between atoms: C_24  and  C_39
   11  A    between atoms: O_38  and  C_39
   12  A    between atoms: C_43  and  C_46
                            x       y       z     vdW  Elec       q    Type
                         _______ _______ _______ _____ _____    ______ ____

>  <TORSDO>
F 12

$$$$
=
 OpenBabel11062422543D

 46 50  0  0  1  0  0  0  0  0999 V2000
  189.0020  173.1850  139.6730 C   0  0  1  0  0  3  0  0  0  0  0  0
  189.8300  173.8970  140.7690 C   0  0  2  0  0  3  0  0  0  0  0  0
  192.9560  171.2200  140.9520 S   0  0  0  0  0  0  0  0  0  0  0  0
  188.2010  174.1920  138.8700 C   0  0  0  0  0  1  0  0  0  0  0  0
  191.9860  173.4180  142.3210 C   0  0  2  0  0  3  0  0  0  0  0  0
  191.1730  173.1810  141.0600 C   0  0  1  0  0  3  0  0  0  0  0  0
  190.8770  171.6250  139.2160 C   0  0  0  0  0  3  0  0  0  0  0  0
  193.2530  172.5890  142.1420 C   0  0  2  0  0  3  0  0  0  0  0  0
  189.8340  172.3280  138.7460 C   0  0  0  0  0  3  0  0  0  0  0  0
  191.2380  171.7280  140.6650 C   0  0  1  0  0  3  0  0  0  0  0  0
  191.2760  172.9200  143.5690 C   0  0  0  0  0  1  0  0  0  0  0  0
  188.9860  174.1420  141.9800 C   0  0  0  0  0  0  0  0  0  0  0  0
  189.0580  175.3950  142.6680 N   0  0  0  0  0  2  0  0  0  0  0  0
  188.2110  173.2330  142.3850 O   0  0  0  0  0  0  0  0  0  0  0  0
  188.3240  175.6490  143.9000 C   0  0  2  0  0  3  0  0  0  0  0  0
  186.8120  177.3840  144.8360 N   0  0  0  0  0  0  0  0  0  0  0  0
  185.9980  179.1870  143.5010 C   0  0  0  0  0  3  0  0  0  0  0  0
  187.4410  177.5320  142.5690 N   0  0  0  0  0  0  0  0  0  0  0  0
  187.4970  176.8890  143.7680 C   0  0  0  0  0  0  0  0  0  0  0  0
  186.7080  178.6660  142.4180 C   0  0  0  0  0  3  0  0  0  0  0  0
  185.3160  179.0350  145.8980 C   0  0  0  0  0  1  0  0  0  0  0  0
  186.0700  178.5180  144.7240 C   0  0  0  0  0  0  0  0  0  0  0  0
  189.9220  175.0090  147.2950 C   0  0  0  0  0  3  0  0  0  0  0  0
  189.0500  174.9180  146.2090 C   0  0  0  0  0  3  0  0  0  0  0  0
  191.2080  176.6970  146.1220 C   0  0  0  0  0  3  0  0  0  0  0  0
  190.3360  176.6070  145.0350 C   0  0  0  0  0  3  0  0  0  0  0  0
  191.0020  175.9000  147.2520 C   0  0  0  0  0  3  0  0  0  0  0  0
  189.2540  175.7190  145.0730 C   0  0  0  0  0  0  0  0  0  0  0  0
  194.3850  173.4680  141.6370 C   0  0  0  0  0  2  0  0  0  0  0  0
  195.4920  173.5260  142.6760 C   0  0  0  0  0  2  0  0  0  0  0  0
  194.8180  176.3710  142.2990 O   0  0  0  0  0  0  0  0  0  0  0  0
  194.9070  175.8810  143.4590 C   0  0  0  0  0  0  0  0  0  0  0  0
  196.7720  173.9630  145.4600 C   0  0  0  0  0  1  0  0  0  0  0  0
  195.3210  174.2950  145.1370 C   0  0  2  0  0  0  0  0  0  0  0  0
  195.1710  174.5130  143.7030 N   0  0  0  0  0  0  0  0  0  0  0  0
  194.9540  175.6300  145.8030 C   0  0  0  0  0  3  0  0  0  0  0  0
  194.7860  176.6770  144.6940 C   0  0  0  0  0  3  0  0  0  0  0  0
  193.1990  173.4840  145.9180 O   0  0  0  0  0  0  0  0  0  0  0  0
  194.4000  173.2120  145.6350 C   0  0  0  0  0  0  0  0  0  0  0  0
  194.9050  171.9250  145.8570 O   0  0  0  0  0  0  0  0  0  0  0  0
  194.4470  170.7900  145.1260 C   0  0  0  0  0  2  0  0  0  0  0  0
  195.6030  169.8380  144.8180 C   0  0  2  0  0  3  0  0  0  0  0  0
  195.2060  168.4010  145.1090 C   0  0  0  0  0  1  0  0  0  0  0  0
  197.9410  170.4230  144.7430 O   0  0  0  0  0  1  0  0  0  0  0  0
  196.8600  170.2100  145.5980 C   0  0  0  0  0  3  0  0  0  0  0  0
  197.1780  169.2060  146.5110 O   0  0  0  0  0  1  0  0  0  0  0  0
  1  4  1  6  0  0  0
  1  2  1  0  0  0  0
  2  6  1  0  0  0  0
  2 12  1  1  0  0  0
  3  8  1  0  0  0  0
  5 11  1  1  0  0  0
  6  5  1  0  0  0  0
  7 10  1  0  0  0  0
  8  5  1  0  0  0  0
  9  7  2  0  0  0  0
  9  1  1  0  0  0  0
 10  3  1  0  0  0  0
 10  6  1  0  0  0  0
 12 14  2  0  0  0  0
 12 13  1  0  0  0  0
 13 15  1  0  0  0  0
 15 28  1  0  0  0  0
 17 22  2  0  0  0  0
 18 19  1  0  0  0  0
 19 15  1  0  0  0  0
 19 16  2  0  0  0  0
 20 18  2  0  0  0  0
 20 17  1  0  0  0  0
 22 16  1  0  0  0  0
 22 21  1  0  0  0  0
 24 23  2  0  0  0  0
 25 27  2  0  0  0  0
 26 28  2  0  0  0  0
 26 25  1  0  0  0  0
 27 23  1  0  0  0  0
 28 24  1  0  0  0  0
 29  8  1  0  0  0  0
 29 30  1  0  0  0  0
 30 35  1  0  0  0  0
 31 32  2  0  0  0  0
 32 35  1  0  0  0  0
 32 37  1  0  0  0  0
 34 33  1  0  0  0  0
 34 39  1  0  0  0  0
 34 36  1  0  0  0  0
 35 34  1  0  0  0  0
 37 36  2  0  0  0  0
 39 40  1  0  0  0  0
 39 38  2  0  0  0  0
 41 40  1  0  0  0  0
 42 43  1  0  0  0  0
 42 41  1  0  0  0  0
 42 45  1  0  0  0  0
 44 45  1  0  0  0  0
 45 46  1  0  0  0  0
M  END
>  <MODEL>
4

>  <REMARK>
 VINA RESULT:      -6.6      1.345      2.901
  Name = 
  12 active torsions:
  status: ('A' for Active; 'I' for Inactive)
    1  A    between atoms: C_7  and  C_14
    2  A    between atoms: C_9  and  C_12
    3  A    between atoms: C_9  and  C_28
    4  A    between atoms: C_10  and  C_26
    5  A    between atoms: C_10  and  O_38
    6  A    between atoms: C_12  and  N_29
    7  A    between atoms: C_16  and  C_46
    8  A    between atoms: C_22  and  C_26
    9  A    between atoms: N_23  and  C_46
   10  A    between atoms: C_24  and  C_39
   11  A    between atoms: O_38  and  C_39
   12  A    between atoms: C_43  and  C_46
                            x       y       z     vdW  Elec       q    Type
                         _______ _______ _______ _____ _____    ______ ____

>  <TORSDO>
F 12

$$$$
=
 OpenBabel11062422543D

 46 50  0  0  1  0  0  0  0  0999 V2000
  191.2750  175.3480  147.0160 C   0  0  1  0  0  3  0  0  0  0  0  0
  191.7130  176.3470  145.9190 C   0  0  2  0  0  3  0  0  0  0  0  0
  188.9470  175.2980  143.0520 S   0  0  0  0  0  0  0  0  0  0  0  0
  191.5660  175.9060  148.3960 C   0  0  0  0  0  1  0  0  0  0  0  0
  191.2180  176.8540  143.3140 C   0  0  2  0  0  3  0  0  0  0  0  0
  190.8080  176.2880  144.6630 C   0  0  1  0  0  3  0  0  0  0  0  0
  189.2410  174.7590  145.7220 C   0  0  0  0  0  3  0  0  0  0  0  0
  190.0040  176.6590  142.4120 C   0  0  2  0  0  3  0  0  0  0  0  0
  189.8230  174.9380  146.9180 C   0  0  0  0  0  3  0  0  0  0  0  0
  190.0340  175.0080  144.4760 C   0  0  1  0  0  3  0  0  0  0  0  0
  192.3830  176.0950  142.6980 C   0  0  0  0  0  1  0  0  0  0  0  0
  193.1750  176.2000  145.6350 C   0  0  0  0  0  0  0  0  0  0  0  0
  193.7220  174.9180  145.3180 N   0  0  0  0  0  2  0  0  0  0  0  0
  193.9150  177.2200  145.6790 O   0  0  0  0  0  0  0  0  0  0  0  0
  195.1500  174.7090  145.1210 C   0  0  2  0  0  3  0  0  0  0  0  0
  195.3120  174.3650  142.6660 N   0  0  0  0  0  0  0  0  0  0  0  0
  196.3030  175.9980  141.2360 C   0  0  0  0  0  3  0  0  0  0  0  0
  196.1720  176.3550  143.5910 N   0  0  0  0  0  0  0  0  0  0  0  0
  195.5580  175.1500  143.7510 C   0  0  0  0  0  0  0  0  0  0  0  0
  196.5460  176.7890  142.3590 C   0  0  0  0  0  3  0  0  0  0  0  0
  195.4050  173.8890  140.2460 C   0  0  0  0  0  1  0  0  0  0  0  0
  195.6690  174.7680  141.4170 C   0  0  0  0  0  0  0  0  0  0  0  0
  197.1910  171.5600  145.7630 C   0  0  0  0  0  3  0  0  0  0  0  0
  196.8660  172.8980  145.5310 C   0  0  0  0  0  3  0  0  0  0  0  0
  194.8380  170.9770  145.7030 C   0  0  0  0  0  3  0  0  0  0  0  0
  194.5120  172.3160  145.4710 C   0  0  0  0  0  3  0  0  0  0  0  0
  196.1760  170.5990  145.8480 C   0  0  0  0  0  3  0  0  0  0  0  0
  195.5230  173.2810  145.3840 C   0  0  0  0  0  0  0  0  0  0  0  0
  189.1950  177.9430  142.3410 C   0  0  0  0  0  2  0  0  0  0  0  0
  188.0780  177.9020  143.3700 C   0  0  0  0  0  2  0  0  0  0  0  0
  187.4360  177.5180  140.5190 O   0  0  0  0  0  0  0  0  0  0  0  0
  186.5510  177.9060  141.3290 C   0  0  0  0  0  0  0  0  0  0  0  0
  185.8890  180.0460  143.8080 C   0  0  0  0  0  1  0  0  0  0  0  0
  185.5970  178.6240  143.3500 C   0  0  2  0  0  0  0  0  0  0  0  0
  186.7820  178.0550  142.7170 N   0  0  0  0  0  0  0  0  0  0  0  0
  184.5180  178.6630  142.2550 C   0  0  0  0  0  3  0  0  0  0  0  0
  185.1850  178.2880  140.9260 C   0  0  0  0  0  3  0  0  0  0  0  0
  185.1920  176.5180  144.4310 O   0  0  0  0  0  0  0  0  0  0  0  0
  185.1190  177.7760  144.4990 C   0  0  0  0  0  0  0  0  0  0  0  0
  184.5220  178.3910  145.6070 O   0  0  0  0  0  0  0  0  0  0  0  0
  184.4670  177.7690  146.8870 C   0  0  0  0  0  2  0  0  0  0  0  0
  185.5840  178.2860  147.7930 C   0  0  2  0  0  3  0  0  0  0  0  0
  185.9410  179.7200  147.4380 C   0  0  0  0  0  1  0  0  0  0  0  0
  187.7560  177.9040  146.8180 O   0  0  0  0  0  1  0  0  0  0  0  0
  186.8220  177.3980  147.7220 C   0  0  0  0  0  3  0  0  0  0  0  0
  186.4680  176.1030  147.3530 O   0  0  0  0  0  1  0  0  0  0  0  0
  1  4  1  1  0  0  0
  2 12  1  6  0  0  0
  2  1  1  0  0  0  0
  3 10  1  0  0  0  0
  5 11  1  6  0  0  0
  5  6  1  0  0  0  0
  6  2  1  0  0  0  0
  7  9  2  0  0  0  0
  8  3  1  0  0  0  0
  8  5  1  0  0  0  0
  9  1  1  0  0  0  0
 10  6  1  0  0  0  0
 10  7  1  0  0  0  0
 12 14  2  0  0  0  0
 13 12  1  0  0  0  0
 15 13  1  0  0  0  0
 15 28  1  0  0  0  0
 16 19  2  0  0  0  0
 17 22  2  0  0  0  0
 17 20  1  0  0  0  0
 18 19  1  0  0  0  0
 19 15  1  0  0  0  0
 20 18  2  0  0  0  0
 21 22  1  0  0  0  0
 22 16  1  0  0  0  0
 23 27  1  0  0  0  0
 24 23  2  0  0  0  0
 25 27  2  0  0  0  0
 26 25  1  0  0  0  0
 28 26  2  0  0  0  0
 28 24  1  0  0  0  0
 29  8  1  0  0  0  0
 29 30  1  0  0  0  0
 31 32  2  0  0  0  0
 32 35  1  0  0  0  0
 34 33  1  0  0  0  0
 34 39  1  0  0  0  0
 35 34  1  0  0  0  0
 35 30  1  0  0  0  0
 36 34  1  0  0  0  0
 37 32  1  0  0  0  0
 37 36  2  0  0  0  0
 38 39  2  0  0  0  0
 39 40  1  0  0  0  0
 40 41  1  0  0  0  0
 41 42  1  0  0  0  0
 43 42  1  0  0  0  0
 44 45  1  0  0  0  0
 45 42  1  0  0  0  0
 46 45  1  0  0  0  0
M  END
>  <MODEL>
5

>  <REMARK>
 VINA RESULT:      -6.5      3.005      9.135
  Name = 
  12 active torsions:
  status: ('A' for Active; 'I' for Inactive)
    1  A    between atoms: C_7  and  C_14
    2  A    between atoms: C_9  and  C_12
    3  A    between atoms: C_9  and  C_28
    4  A    between atoms: C_10  and  C_26
    5  A    between atoms: C_10  and  O_38
    6  A    between atoms: C_12  and  N_29
    7  A    between atoms: C_16  and  C_46
    8  A    between atoms: C_22  and  C_26
    9  A    between atoms: N_23  and  C_46
   10  A    between atoms: C_24  and  C_39
   11  A    between atoms: O_38  and  C_39
   12  A    between atoms: C_43  and  C_46
                            x       y       z     vdW  Elec       q    Type
                         _______ _______ _______ _____ _____    ______ ____

>  <TORSDO>
F 12

$$$$
=
 OpenBabel11062422543D

 46 50  0  0  1  0  0  0  0  0999 V2000
  191.2970  172.0520  143.1290 C   0  0  1  0  0  3  0  0  0  0  0  0
  190.9720  173.4550  143.6940 C   0  0  2  0  0  3  0  0  0  0  0  0
  188.5500  174.7610  140.6280 S   0  0  0  0  0  0  0  0  0  0  0  0
  191.5490  171.0670  144.2540 C   0  0  0  0  0  1  0  0  0  0  0  0
  189.7900  175.7470  142.8940 C   0  0  2  0  0  3  0  0  0  0  0  0
  189.9800  174.2420  142.8020 C   0  0  1  0  0  3  0  0  0  0  0  0
  189.5880  172.3310  141.3500 C   0  0  0  0  0  3  0  0  0  0  0  0
  188.6700  176.0710  141.9120 C   0  0  2  0  0  3  0  0  0  0  0  0
  190.2350  171.5140  142.1960 C   0  0  0  0  0  3  0  0  0  0  0  0
  189.8990  173.7960  141.3640 C   0  0  1  0  0  3  0  0  0  0  0  0
  191.0280  176.5140  142.4580 C   0  0  0  0  0  1  0  0  0  0  0  0
  192.2350  174.1920  144.0130 C   0  0  0  0  0  0  0  0  0  0  0  0
  193.3370  174.1630  143.1020 N   0  0  0  0  0  2  0  0  0  0  0  0
  192.3130  174.8380  145.0940 O   0  0  0  0  0  0  0  0  0  0  0  0
  194.6150  174.7900  143.4080 C   0  0  2  0  0  3  0  0  0  0  0  0
  194.7970  174.8630  140.9310 N   0  0  0  0  0  0  0  0  0  0  0  0
  196.7580  175.6750  139.8430 C   0  0  0  0  0  3  0  0  0  0  0  0
  196.6210  175.6100  142.2240 N   0  0  0  0  0  0  0  0  0  0  0  0
  195.3640  175.0910  142.1480 C   0  0  0  0  0  0  0  0  0  0  0  0
  197.3230  175.9040  141.0980 C   0  0  0  0  0  3  0  0  0  0  0  0
  194.8370  174.8760  138.4630 C   0  0  0  0  0  1  0  0  0  0  0  0
  195.4680  175.1480  139.7830 C   0  0  0  0  0  0  0  0  0  0  0  0
  196.2450  171.7750  145.0650 C   0  0  0  0  0  3  0  0  0  0  0  0
  195.5020  172.5490  144.1720 C   0  0  0  0  0  3  0  0  0  0  0  0
  196.8230  173.7720  146.3140 C   0  0  0  0  0  3  0  0  0  0  0  0
  196.0800  174.5470  145.4200 C   0  0  0  0  0  3  0  0  0  0  0  0
  196.9050  172.3870  146.1380 C   0  0  0  0  0  3  0  0  0  0  0  0
  195.4170  173.9400  144.3460 C   0  0  0  0  0  0  0  0  0  0  0  0
  187.3460  176.1850  142.6500 C   0  0  0  0  0  2  0  0  0  0  0  0
  187.2310  177.5600  143.2860 C   0  0  0  0  0  2  0  0  0  0  0  0
  185.1980  177.9090  141.1810 O   0  0  0  0  0  0  0  0  0  0  0  0
  184.9130  178.1300  142.3900 C   0  0  0  0  0  0  0  0  0  0  0  0
  185.9430  179.6310  145.1920 C   0  0  0  0  0  1  0  0  0  0  0  0
  185.2300  178.3780  144.7020 C   0  0  2  0  0  0  0  0  0  0  0  0
  185.8270  177.9260  143.4500 N   0  0  0  0  0  0  0  0  0  0  0  0
  183.7730  178.7320  144.3640 C   0  0  0  0  0  3  0  0  0  0  0  0
  183.6130  178.6610  142.8410 C   0  0  0  0  0  3  0  0  0  0  0  0
  184.3430  177.2400  146.6230 O   0  0  0  0  0  0  0  0  0  0  0  0
  185.2570  177.3000  145.7530 C   0  0  0  0  0  0  0  0  0  0  0  0
  186.3420  176.4160  145.8050 O   0  0  0  0  0  0  0  0  0  0  0  0
  187.2790  176.4210  146.8790 C   0  0  0  0  0  2  0  0  0  0  0  0
  188.6860  176.0970  146.3760 C   0  0  2  0  0  3  0  0  0  0  0  0
  189.1510  174.7540  146.9140 C   0  0  0  0  0  1  0  0  0  0  0  0
  190.2990  177.7190  145.6140 O   0  0  0  0  0  1  0  0  0  0  0  0
  189.6810  177.1910  146.7480 C   0  0  0  0  0  3  0  0  0  0  0  0
  190.6480  176.6900  147.6160 O   0  0  0  0  0  1  0  0  0  0  0  0
  1  2  1  0  0  0  0
  1  4  1  1  0  0  0
  2 12  1  6  0  0  0
  3 10  1  0  0  0  0
  3  8  1  0  0  0  0
  5 11  1  6  0  0  0
  6  5  1  0  0  0  0
  6  2  1  0  0  0  0
  7 10  1  0  0  0  0
  7  9  2  0  0  0  0
  8 29  1  0  0  0  0
  8  5  1  0  0  0  0
  9  1  1  0  0  0  0
 10  6  1  0  0  0  0
 12 14  2  0  0  0  0
 13 15  1  0  0  0  0
 13 12  1  0  0  0  0
 15 28  1  0  0  0  0
 16 19  2  0  0  0  0
 17 20  1  0  0  0  0
 19 18  1  0  0  0  0
 19 15  1  0  0  0  0
 20 18  2  0  0  0  0
 21 22  1  0  0  0  0
 22 17  2  0  0  0  0
 22 16  1  0  0  0  0
 23 27  1  0  0  0  0
 24 28  1  0  0  0  0
 24 23  2  0  0  0  0
 26 25  1  0  0  0  0
 27 25  2  0  0  0  0
 28 26  2  0  0  0  0
 29 30  1  0  0  0  0
 30 35  1  0  0  0  0
 31 32  2  0  0  0  0
 32 37  1  0  0  0  0
 32 35  1  0  0  0  0
 34 33  1  0  0  0  0
 34 39  1  0  0  0  0
 35 34  1  0  0  0  0
 36 34  1  0  0  0  0
 37 36  2  0  0  0  0
 39 40  1  0  0  0  0
 39 38  2  0  0  0  0
 40 41  1  0  0  0  0
 42 45  1  0  0  0  0
 42 41  1  0  0  0  0
 42 43  1  0  0  0  0
 44 45  1  0  0  0  0
 45 46  1  0  0  0  0
M  END
>  <MODEL>
6

>  <REMARK>
 VINA RESULT:      -6.5      2.734      8.545
  Name = 
  12 active torsions:
  status: ('A' for Active; 'I' for Inactive)
    1  A    between atoms: C_7  and  C_14
    2  A    between atoms: C_9  and  C_12
    3  A    between atoms: C_9  and  C_28
    4  A    between atoms: C_10  and  C_26
    5  A    between atoms: C_10  and  O_38
    6  A    between atoms: C_12  and  N_29
    7  A    between atoms: C_16  and  C_46
    8  A    between atoms: C_22  and  C_26
    9  A    between atoms: N_23  and  C_46
   10  A    between atoms: C_24  and  C_39
   11  A    between atoms: O_38  and  C_39
   12  A    between atoms: C_43  and  C_46
                            x       y       z     vdW  Elec       q    Type
                         _______ _______ _______ _____ _____    ______ ____

>  <TORSDO>
F 12

$$$$
=
 OpenBabel11062422543D

 46 50  0  0  1  0  0  0  0  0999 V2000
  191.9010  175.9630  146.9010 C   0  0  1  0  0  3  0  0  0  0  0  0
  191.2380  175.8620  145.5070 C   0  0  2  0  0  3  0  0  0  0  0  0
  194.6770  175.8600  143.2390 S   0  0  0  0  0  0  0  0  0  0  0  0
  191.0390  175.2900  147.9530 C   0  0  0  0  0  1  0  0  0  0  0  0
  191.9380  176.0360  142.9050 C   0  0  2  0  0  3  0  0  0  0  0  0
  192.2750  175.7590  144.3610 C   0  0  1  0  0  3  0  0  0  0  0  0
  194.1400  175.5650  145.9090 C   0  0  0  0  0  3  0  0  0  0  0  0
  193.2150  175.7280  142.1320 C   0  0  2  0  0  3  0  0  0  0  0  0
  193.3050  175.4040  146.9470 C   0  0  0  0  0  3  0  0  0  0  0  0
  193.6560  176.2720  144.6810 C   0  0  1  0  0  3  0  0  0  0  0  0
  191.5860  177.4950  142.6610 C   0  0  0  0  0  1  0  0  0  0  0  0
  190.2290  176.9520  145.3310 C   0  0  0  0  0  0  0  0  0  0  0  0
  189.0140  176.7030  144.6190 N   0  0  0  0  0  2  0  0  0  0  0  0
  190.4630  178.0920  145.8190 O   0  0  0  0  0  0  0  0  0  0  0  0
  188.0420  177.7530  144.3460 C   0  0  2  0  0  3  0  0  0  0  0  0
  186.9550  178.7360  146.3520 N   0  0  0  0  0  0  0  0  0  0  0  0
  184.9900  177.7760  147.3070 C   0  0  0  0  0  3  0  0  0  0  0  0
  186.0160  176.8020  145.3850 N   0  0  0  0  0  0  0  0  0  0  0  0
  186.9780  177.7650  145.3960 C   0  0  0  0  0  0  0  0  0  0  0  0
  185.0280  176.7910  146.3190 C   0  0  0  0  0  3  0  0  0  0  0  0
  185.9830  179.8180  148.3460 C   0  0  0  0  0  1  0  0  0  0  0  0
  185.9810  178.7590  147.3000 C   0  0  0  0  0  0  0  0  0  0  0  0
  185.9240  178.2970  141.2300 C   0  0  0  0  0  3  0  0  0  0  0  0
  186.4520  178.4610  142.5120 C   0  0  0  0  0  3  0  0  0  0  0  0
  187.4210  176.4280  140.8510 C   0  0  0  0  0  3  0  0  0  0  0  0
  187.9500  176.5910  142.1330 C   0  0  0  0  0  3  0  0  0  0  0  0
  186.4080  177.2800  140.3990 C   0  0  0  0  0  3  0  0  0  0  0  0
  187.4690  177.6060  142.9690 C   0  0  0  0  0  0  0  0  0  0  0  0
  193.1450  174.3280  141.5440 C   0  0  0  0  0  2  0  0  0  0  0  0
  191.7120  174.0080  141.1530 C   0  0  0  0  0  2  0  0  0  0  0  0
  192.3330  171.8760  139.2150 O   0  0  0  0  0  0  0  0  0  0  0  0
  191.7330  171.6080  140.2920 C   0  0  0  0  0  0  0  0  0  0  0  0
  189.2490  172.5420  142.3220 C   0  0  0  0  0  1  0  0  0  0  0  0
  190.6610  171.9720  142.3480 C   0  0  2  0  0  0  0  0  0  0  0  0
  191.4580  172.5770  141.2870 N   0  0  0  0  0  0  0  0  0  0  0  0
  190.5990  170.4720  142.0200 C   0  0  0  0  0  3  0  0  0  0  0  0
  191.2150  170.2700  140.6300 C   0  0  0  0  0  3  0  0  0  0  0  0
  190.5930  172.5500  144.6780 O   0  0  0  0  0  0  0  0  0  0  0  0
  191.2940  172.1670  143.7000 C   0  0  0  0  0  0  0  0  0  0  0  0
  192.6770  171.9990  143.8440 O   0  0  0  0  0  0  0  0  0  0  0  0
  193.2460  170.8350  144.4360 C   0  0  0  0  0  2  0  0  0  0  0  0
  194.3270  171.2110  145.4490 C   0  0  2  0  0  3  0  0  0  0  0  0
  195.1990  172.3340  144.9110 C   0  0  0  0  0  1  0  0  0  0  0  0
  194.5570  169.2250  146.7960 O   0  0  0  0  0  1  0  0  0  0  0  0
  195.1850  170.0090  145.8290 C   0  0  0  0  0  3  0  0  0  0  0  0
  196.4260  170.4300  146.3030 O   0  0  0  0  0  1  0  0  0  0  0  0
  1  9  1  0  0  0  0
  1  4  1  1  0  0  0
  2 12  1  6  0  0  0
  2  1  1  0  0  0  0
  3 10  1  0  0  0  0
  5 11  1  1  0  0  0
  5  6  1  0  0  0  0
  6 10  1  0  0  0  0
  6  2  1  0  0  0  0
  7  9  2  0  0  0  0
  8  5  1  0  0  0  0
  8  3  1  0  0  0  0
 10  7  1  0  0  0  0
 12 14  2  0  0  0  0
 13 12  1  0  0  0  0
 15 13  1  0  0  0  0
 15 19  1  0  0  0  0
 16 22  1  0  0  0  0
 18 19  1  0  0  0  0
 18 20  2  0  0  0  0
 19 16  2  0  0  0  0
 20 17  1  0  0  0  0
 22 17  2  0  0  0  0
 22 21  1  0  0  0  0
 23 24  1  0  0  0  0
 24 28  2  0  0  0  0
 25 26  2  0  0  0  0
 26 28  1  0  0  0  0
 27 25  1  0  0  0  0
 27 23  2  0  0  0  0
 28 15  1  0  0  0  0
 29  8  1  0  0  0  0
 30 35  1  0  0  0  0
 30 29  1  0  0  0  0
 31 32  2  0  0  0  0
 32 37  1  0  0  0  0
 32 35  1  0  0  0  0
 33 34  1  0  0  0  0
 34 39  1  0  0  0  0
 35 34  1  0  0  0  0
 36 34  1  0  0  0  0
 37 36  2  0  0  0  0
 39 40  1  0  0  0  0
 39 38  2  0  0  0  0
 40 41  1  0  0  0  0
 41 42  1  0  0  0  0
 42 45  1  0  0  0  0
 43 42  1  0  0  0  0
 45 46  1  0  0  0  0
 45 44  1  0  0  0  0
M  END
>  <MODEL>
7

>  <REMARK>
 VINA RESULT:      -6.3      2.577      5.726
  Name = 
  12 active torsions:
  status: ('A' for Active; 'I' for Inactive)
    1  A    between atoms: C_7  and  C_14
    2  A    between atoms: C_9  and  C_12
    3  A    between atoms: C_9  and  C_28
    4  A    between atoms: C_10  and  C_26
    5  A    between atoms: C_10  and  O_38
    6  A    between atoms: C_12  and  N_29
    7  A    between atoms: C_16  and  C_46
    8  A    between atoms: C_22  and  C_26
    9  A    between atoms: N_23  and  C_46
   10  A    between atoms: C_24  and  C_39
   11  A    between atoms: O_38  and  C_39
   12  A    between atoms: C_43  and  C_46
                            x       y       z     vdW  Elec       q    Type
                         _______ _______ _______ _____ _____    ______ ____

>  <TORSDO>
F 12

$$$$
=
 OpenBabel11062422543D

 46 50  0  0  1  0  0  0  0  0999 V2000
  191.6930  176.5220  146.9560 C   0  0  1  0  0  3  0  0  0  0  0  0
  191.1490  175.1260  146.5690 C   0  0  2  0  0  3  0  0  0  0  0  0
  193.7780  174.3180  143.5020 S   0  0  0  0  0  0  0  0  0  0  0  0
  191.4630  176.7960  148.4300 C   0  0  0  0  0  1  0  0  0  0  0  0
  191.4640  173.2900  144.6150 C   0  0  2  0  0  3  0  0  0  0  0  0
  191.9780  174.4540  145.4470 C   0  0  1  0  0  3  0  0  0  0  0  0
  193.6680  176.2010  145.4880 C   0  0  0  0  0  3  0  0  0  0  0  0
  192.6280  172.8980  143.7120 C   0  0  2  0  0  3  0  0  0  0  0  0
  193.1530  176.7190  146.6130 C   0  0  0  0  0  3  0  0  0  0  0  0
  192.7920  175.3870  144.5860 C   0  0  1  0  0  3  0  0  0  0  0  0
  190.2970  173.6860  143.7250 C   0  0  0  0  0  1  0  0  0  0  0  0
  189.6800  175.1990  146.2930 C   0  0  0  0  0  0  0  0  0  0  0  0
  189.1500  176.2510  145.4820 N   0  0  0  0  0  2  0  0  0  0  0  0
  188.9180  174.3220  146.7840 O   0  0  0  0  0  0  0  0  0  0  0  0
  187.7200  176.4160  145.2580 C   0  0  2  0  0  3  0  0  0  0  0  0
  187.7370  176.0490  142.8010 N   0  0  0  0  0  0  0  0  0  0  0  0
  186.9490  177.7120  141.2820 C   0  0  0  0  0  3  0  0  0  0  0  0
  186.9290  178.1000  143.6360 N   0  0  0  0  0  0  0  0  0  0  0  0
  187.4600  176.8650  143.8550 C   0  0  0  0  0  0  0  0  0  0  0  0
  186.6700  178.5350  142.3750 C   0  0  0  0  0  3  0  0  0  0  0  0
  187.8130  175.5480  140.3860 C   0  0  0  0  0  1  0  0  0  0  0  0
  187.4880  176.4480  141.5250 C   0  0  0  0  0  0  0  0  0  0  0  0
  185.2050  178.4390  147.2760 C   0  0  0  0  0  3  0  0  0  0  0  0
  185.7360  177.5530  146.3370 C   0  0  0  0  0  3  0  0  0  0  0  0
  187.4390  178.9310  148.0780 C   0  0  0  0  0  3  0  0  0  0  0  0
  187.9720  178.0440  147.1400 C   0  0  0  0  0  3  0  0  0  0  0  0
  186.0570  179.1290  148.1460 C   0  0  0  0  0  3  0  0  0  0  0  0
  187.1250  177.3520  146.2660 C   0  0  0  0  0  0  0  0  0  0  0  0
  193.3780  171.7180  144.3090 C   0  0  0  0  0  2  0  0  0  0  0  0
  194.3040  172.2050  145.4110 C   0  0  0  0  0  2  0  0  0  0  0  0
  194.7490  169.4650  146.4060 O   0  0  0  0  0  0  0  0  0  0  0  0
  195.7080  170.1440  145.9450 C   0  0  0  0  0  0  0  0  0  0  0  0
  197.1960  173.1350  146.0070 C   0  0  0  0  0  1  0  0  0  0  0  0
  196.8560  171.9900  145.0620 C   0  0  2  0  0  0  0  0  0  0  0  0
  195.5480  171.4400  145.4010 N   0  0  0  0  0  0  0  0  0  0  0  0
  197.8580  170.8460  145.2810 C   0  0  0  0  0  3  0  0  0  0  0  0
  197.1090  169.6870  145.9500 C   0  0  0  0  0  3  0  0  0  0  0  0
  196.7190  171.6170  142.6930 O   0  0  0  0  0  0  0  0  0  0  0  0
  196.9140  172.4440  143.6270 C   0  0  0  0  0  0  0  0  0  0  0  0
  197.2630  173.7690  143.3370 O   0  0  0  0  0  0  0  0  0  0  0  0
  197.7730  174.1630  142.0660 C   0  0  0  0  0  2  0  0  0  0  0  0
  197.5640  175.6600  141.8350 C   0  0  2  0  0  3  0  0  0  0  0  0
  197.2090  176.3580  143.1370 C   0  0  0  0  0  1  0  0  0  0  0  0
  195.5040  176.7770  141.2690 O   0  0  0  0  0  1  0  0  0  0  0  0
  196.4920  175.9220  140.7820 C   0  0  0  0  0  3  0  0  0  0  0  0
  195.9130  174.7230  140.3720 O   0  0  0  0  0  1  0  0  0  0  0  0
  1  4  1  1  0  0  0
  2 12  1  6  0  0  0
  2  1  1  0  0  0  0
  3  8  1  0  0  0  0
  3 10  1  0  0  0  0
  5 11  1  6  0  0  0
  5  6  1  0  0  0  0
  6  2  1  0  0  0  0
  7  9  2  0  0  0  0
  8 29  1  0  0  0  0
  8  5  1  0  0  0  0
  9  1  1  0  0  0  0
 10  6  1  0  0  0  0
 10  7  1  0  0  0  0
 12 14  2  0  0  0  0
 13 12  1  0  0  0  0
 15 13  1  0  0  0  0
 15 28  1  0  0  0  0
 16 19  2  0  0  0  0
 17 22  2  0  0  0  0
 17 20  1  0  0  0  0
 18 19  1  0  0  0  0
 19 15  1  0  0  0  0
 20 18  2  0  0  0  0
 21 22  1  0  0  0  0
 22 16  1  0  0  0  0
 23 27  1  0  0  0  0
 24 23  2  0  0  0  0
 25 27  2  0  0  0  0
 26 25  1  0  0  0  0
 28 24  1  0  0  0  0
 28 26  2  0  0  0  0
 29 30  1  0  0  0  0
 32 37  1  0  0  0  0
 32 31  2  0  0  0  0
 34 36  1  0  0  0  0
 34 35  1  0  0  0  0
 34 33  1  0  0  0  0
 35 30  1  0  0  0  0
 35 32  1  0  0  0  0
 36 37  2  0  0  0  0
 38 39  2  0  0  0  0
 39 34  1  0  0  0  0
 40 39  1  0  0  0  0
 41 40  1  0  0  0  0
 42 41  1  0  0  0  0
 42 43  1  0  0  0  0
 45 44  1  0  0  0  0
 45 42  1  0  0  0  0
 46 45  1  0  0  0  0
M  END
>  <MODEL>
8

>  <REMARK>
 VINA RESULT:      -6.3      2.221      4.604
  Name = 
  12 active torsions:
  status: ('A' for Active; 'I' for Inactive)
    1  A    between atoms: C_7  and  C_14
    2  A    between atoms: C_9  and  C_12
    3  A    between atoms: C_9  and  C_28
    4  A    between atoms: C_10  and  C_26
    5  A    between atoms: C_10  and  O_38
    6  A    between atoms: C_12  and  N_29
    7  A    between atoms: C_16  and  C_46
    8  A    between atoms: C_22  and  C_26
    9  A    between atoms: N_23  and  C_46
   10  A    between atoms: C_24  and  C_39
   11  A    between atoms: O_38  and  C_39
   12  A    between atoms: C_43  and  C_46
                            x       y       z     vdW  Elec       q    Type
                         _______ _______ _______ _____ _____    ______ ____

>  <TORSDO>
F 12

$$$$
=
 OpenBabel11062422543D

 46 50  0  0  1  0  0  0  0  0999 V2000
  188.6400  174.8020  142.1680 C   0  0  1  0  0  3  0  0  0  0  0  0
  189.5160  176.0590  142.3850 C   0  0  2  0  0  3  0  0  0  0  0  0
  191.8680  174.5980  145.4360 S   0  0  0  0  0  0  0  0  0  0  0  0
  188.1820  174.7110  140.7250 C   0  0  0  0  0  1  0  0  0  0  0  0
  191.3450  176.9850  144.1420 C   0  0  2  0  0  3  0  0  0  0  0  0
  190.6130  175.8430  143.4570 C   0  0  1  0  0  3  0  0  0  0  0  0
  190.1120  173.4720  143.6600 C   0  0  0  0  0  3  0  0  0  0  0  0
  192.3830  176.3170  145.0360 C   0  0  2  0  0  3  0  0  0  0  0  0
  189.3170  173.5140  142.5790 C   0  0  0  0  0  3  0  0  0  0  0  0
  190.3580  174.7270  144.4390 C   0  0  1  0  0  3  0  0  0  0  0  0
  190.4270  177.8110  145.0290 C   0  0  0  0  0  1  0  0  0  0  0  0
  188.6530  177.2590  142.6180 C   0  0  0  0  0  0  0  0  0  0  0  0
  187.4440  177.1430  143.3740 N   0  0  0  0  0  2  0  0  0  0  0  0
  189.0050  178.3720  142.1390 O   0  0  0  0  0  0  0  0  0  0  0  0
  186.5280  178.2610  143.5520 C   0  0  2  0  0  3  0  0  0  0  0  0
  186.4050  179.1410  145.8720 N   0  0  0  0  0  0  0  0  0  0  0  0
  184.8830  178.2390  147.4740 C   0  0  0  0  0  3  0  0  0  0  0  0
  184.9830  177.3650  145.2560 N   0  0  0  0  0  0  0  0  0  0  0  0
  185.9610  178.2570  144.9370 C   0  0  0  0  0  0  0  0  0  0  0  0
  184.4400  177.3420  146.5020 C   0  0  0  0  0  3  0  0  0  0  0  0
  186.3930  180.1130  148.1410 C   0  0  0  0  0  1  0  0  0  0  0  0
  185.8830  179.1490  147.1280 C   0  0  0  0  0  0  0  0  0  0  0  0
  183.1120  178.3000  141.8710 C   0  0  0  0  0  3  0  0  0  0  0  0
  184.0970  178.3310  142.8610 C   0  0  0  0  0  3  0  0  0  0  0  0
  184.8280  178.0970  140.1700 C   0  0  0  0  0  3  0  0  0  0  0  0
  185.8130  178.1280  141.1590 C   0  0  0  0  0  3  0  0  0  0  0  0
  183.4780  178.1830  140.5250 C   0  0  0  0  0  3  0  0  0  0  0  0
  185.4530  178.2440  142.5070 C   0  0  0  0  0  0  0  0  0  0  0  0
  193.7350  176.2970  144.3430 C   0  0  0  0  0  2  0  0  0  0  0  0
  194.7850  175.7340  145.2850 C   0  0  0  0  0  2  0  0  0  0  0  0
  196.6920  177.1360  143.5280 O   0  0  0  0  0  0  0  0  0  0  0  0
  196.7400  175.8820  143.6540 C   0  0  0  0  0  0  0  0  0  0  0  0
  194.9130  173.0840  143.6890 C   0  0  0  0  0  1  0  0  0  0  0  0
  196.1230  173.7280  144.3530 C   0  0  2  0  0  0  0  0  0  0  0  0
  195.8910  175.1580  144.5240 N   0  0  0  0  0  0  0  0  0  0  0  0
  197.3310  173.6120  143.4100 C   0  0  0  0  0  3  0  0  0  0  0  0
  197.6550  175.0170  142.8870 C   0  0  0  0  0  3  0  0  0  0  0  0
  197.2400  173.5940  146.4750 O   0  0  0  0  0  0  0  0  0  0  0  0
  196.4370  173.0550  145.6630 C   0  0  0  0  0  0  0  0  0  0  0  0
  195.8960  171.7930  145.9370 O   0  0  0  0  0  0  0  0  0  0  0  0
  196.7090  170.6370  146.1180 C   0  0  0  0  0  2  0  0  0  0  0  0
  196.0840  169.4180  145.4390 C   0  0  2  0  0  3  0  0  0  0  0  0
  196.1600  169.5500  143.9270 C   0  0  0  0  0  1  0  0  0  0  0  0
  194.5780  168.5560  147.1130 O   0  0  0  0  0  1  0  0  0  0  0  0
  194.6390  169.2080  145.8810 C   0  0  0  0  0  3  0  0  0  0  0  0
  193.9440  168.4690  144.9270 O   0  0  0  0  0  1  0  0  0  0  0  0
  1  4  1  6  0  0  0
  1  2  1  0  0  0  0
  1  9  1  0  0  0  0
  2 12  1  1  0  0  0
  2  6  1  0  0  0  0
  5 11  1  1  0  0  0
  5  8  1  0  0  0  0
  6  5  1  0  0  0  0
  6 10  1  0  0  0  0
  7 10  1  0  0  0  0
  8  3  1  0  0  0  0
  9  7  2  0  0  0  0
 10  3  1  0  0  0  0
 12 13  1  0  0  0  0
 13 15  1  0  0  0  0
 14 12  2  0  0  0  0
 15 19  1  0  0  0  0
 16 22  1  0  0  0  0
 18 20  2  0  0  0  0
 19 18  1  0  0  0  0
 19 16  2  0  0  0  0
 20 17  1  0  0  0  0
 22 17  2  0  0  0  0
 22 21  1  0  0  0  0
 23 24  1  0  0  0  0
 25 27  1  0  0  0  0
 25 26  2  0  0  0  0
 26 28  1  0  0  0  0
 27 23  2  0  0  0  0
 28 24  2  0  0  0  0
 28 15  1  0  0  0  0
 29  8  1  0  0  0  0
 29 30  1  0  0  0  0
 31 32  2  0  0  0  0
 32 35  1  0  0  0  0
 33 34  1  0  0  0  0
 34 35  1  0  0  0  0
 34 39  1  0  0  0  0
 35 30  1  0  0  0  0
 36 34  1  0  0  0  0
 37 36  2  0  0  0  0
 37 32  1  0  0  0  0
 39 40  1  0  0  0  0
 39 38  2  0  0  0  0
 40 41  1  0  0  0  0
 42 45  1  0  0  0  0
 42 41  1  0  0  0  0
 43 42  1  0  0  0  0
 45 44  1  0  0  0  0
 46 45  1  0  0  0  0
M  END
>  <MODEL>
9

>  <REMARK>
 VINA RESULT:      -6.2      2.258      5.013
  Name = 
  12 active torsions:
  status: ('A' for Active; 'I' for Inactive)
    1  A    between atoms: C_7  and  C_14
    2  A    between atoms: C_9  and  C_12
    3  A    between atoms: C_9  and  C_28
    4  A    between atoms: C_10  and  C_26
    5  A    between atoms: C_10  and  O_38
    6  A    between atoms: C_12  and  N_29
    7  A    between atoms: C_16  and  C_46
    8  A    between atoms: C_22  and  C_26
    9  A    between atoms: N_23  and  C_46
   10  A    between atoms: C_24  and  C_39
   11  A    between atoms: O_38  and  C_39
   12  A    between atoms: C_43  and  C_46
                            x       y       z     vdW  Elec       q    Type
                         _______ _______ _______ _____ _____    ______ ____

>  <TORSDO>
F 12

$$$$
