=
 OpenBabel11062420183D

 61 72  0  0  1  0  0  0  0  0999 V2000
  188.4330  175.2950  144.4570 C   0  0  1  0  0  3  0  0  0  0  0  0
  188.1580  172.9760  140.0460 C   0  0  0  0  0  3  0  0  0  0  0  0
  193.6390  174.7930  140.3090 C   0  0  0  0  0  2  0  0  0  0  0  0
  188.7640  175.6200  141.9030 C   0  0  1  0  0  3  0  0  0  0  0  0
  191.4320  173.8190  139.5860 C   0  0  0  0  0  0  0  0  0  0  0  0
  191.0700  173.5560  145.8850 C   0  0  0  0  0  2  0  0  0  0  0  0
  191.8110  173.3500  138.1940 C   0  0  0  0  0  2  0  0  0  0  0  0
  190.5620  172.7310  137.6940 N   0  0  0  0  0  0  0  0  0  0  0  0
  190.9730  176.0770  142.8780 O   0  0  0  0  0  0  0  0  0  0  0  0
  191.2960  174.1510  147.2770 C   0  0  0  0  0  2  0  0  0  0  0  0
  190.1260  176.6260  145.8690 C   0  0  1  0  0  3  0  0  0  0  0  0
  185.8520  178.9260  142.8230 C   0  0  0  0  0  3  0  0  0  0  0  0
  191.0500  176.3740  148.1430 O   0  0  0  0  0  0  0  0  0  0  0  0
  191.9570  175.5350  147.4690 C   0  0  2  0  0  0  0  0  0  0  0  0
  189.7920  176.6540  142.3970 C   0  0  2  0  0  3  0  0  0  0  0  0
  195.1530  174.3300  142.9680 C   0  0  0  0  0  0  0  0  0  0  0  0
  194.4250  173.6300  140.7080 N   0  0  0  0  0  0  0  0  0  0  0  0
  190.1830  173.4740  139.7270 C   0  0  0  0  0  0  0  0  0  0  0  0
  192.0590  177.3670  143.1170 P   0  0  1  0  0  0  0  0  0  0  0  0
  191.3570  178.5460  143.7540 O   0  0  0  0  0  1  0  0  0  0  0  0
  193.8540  174.2380  143.4200 O   0  0  0  0  0  0  0  0  0  0  0  0
  195.5660  174.0090  141.5600 C   0  0  1  0  0  3  0  0  0  0  0  0
  189.7310  172.8690  138.6670 C   0  0  0  0  0  0  0  0  0  0  0  0
  188.4410  172.5190  138.7830 N   0  0  0  0  0  0  0  0  0  0  0  0
  193.3520  176.9040  144.1200 O   0  0  0  0  0  0  0  0  0  0  0  0
  190.6070  174.4640  144.9240 O   0  0  0  0  0  0  0  0  0  0  0  0
  189.0900  177.4340  146.3470 O   0  0  0  0  0  1  0  0  0  0  0  0
  189.2910  174.1840  141.9650 C   0  0  0  0  0  2  0  0  0  0  0  0
  186.6580  176.7900  144.4020 C   0  0  0  0  0  0  0  0  0  0  0  0
  195.9900  174.7010  143.8720 N   0  0  0  0  0  0  0  0  0  0  0  0
  187.2180  175.7170  145.0840 O   0  0  0  0  0  0  0  0  0  0  0  0
  193.8340  177.1770  146.9600 C   0  0  0  0  0  1  0  0  0  0  0  0
  191.3460  176.7670  146.8270 C   0  0  1  0  0  0  0  0  0  0  0  0
  187.0440  178.2490  142.5140 C   0  0  0  0  0  3  0  0  0  0  0  0
  192.7340  176.2960  146.3890 C   0  0  2  0  0  0  0  0  0  0  0  0
  192.2280  174.5300  140.5320 N   0  0  0  0  0  2  0  0  0  0  0  0
  189.2290  173.5690  140.6510 N   0  0  0  0  0  0  0  0  0  0  0  0
  192.6830  177.8420  141.6180 O   0  0  0  0  0  0  0  0  0  0  0  0
  185.0680  178.5260  143.9240 C   0  0  0  0  0  0  0  0  0  0  0  0
  185.4730  177.4470  144.7280 C   0  0  0  0  0  3  0  0  0  0  0  0
  192.8920  175.8500  144.9250 C   0  0  2  0  0  3  0  0  0  0  0  0
  188.5950  176.2860  143.2700 C   0  0  2  0  0  0  0  0  0  0  0  0
  189.5840  175.2370  145.4730 C   0  0  2  0  0  3  0  0  0  0  0  0
  187.4160  177.1770  143.3260 C   0  0  0  0  0  0  0  0  0  0  0  0
  195.2680  174.9430  145.1130 C   0  0  0  0  0  2  0  0  0  0  0  0
  193.8040  174.6290  144.7800 C   0  0  2  0  0  3  0  0  0  0  0  0
  183.8550  179.2270  144.2280 C   0  0  0  0  0  0  0  0  0  0  0  0
  182.8750  179.7910  144.4740 N   0  0  0  0  0  0  0  0  0  0  0  0
  194.9140  172.9760  139.4980 C   0  0  0  0  0  2  0  0  0  0  0  0
  192.7140  169.3440  138.8360 C   0  0  0  0  0  0  0  0  0  0  0  0
  194.0970  171.1500  137.9870 C   0  0  0  0  0  3  0  0  0  0  0  0
  193.5060  171.0860  140.3360 C   0  0  0  0  0  3  0  0  0  0  0  0
  194.1690  171.7040  139.2700 C   0  0  0  0  0  0  0  0  0  0  0  0
  193.3720  169.9730  137.7720 C   0  0  0  0  0  3  0  0  0  0  0  0
  192.7830  169.9090  140.1210 C   0  0  0  0  0  3  0  0  0  0  0  0
  190.6560  168.1660  138.1430 C   0  0  0  0  0  1  0  0  0  0  0  0
  192.0050  168.1660  138.5920 O   0  0  0  0  0  0  0  0  0  0  0  0
  196.5790  175.0010  140.9370 C   0  0  0  0  0  2  0  0  0  0  0  0
  197.9120  172.9590  140.7590 N   0  0  0  0  0  1  0  0  0  0  0  0
  197.9400  174.5320  138.9250 C   0  0  0  0  0  1  0  0  0  0  0  0
  197.8720  174.3740  140.4290 C   0  0  1  0  0  3  0  0  0  0  0  0
  1 31  1  1  0  0  0
  1 43  1  0  0  0  0
  2 37  1  0  0  0  0
  3 36  1  0  0  0  0
  3 17  1  0  0  0  0
  4 28  1  1  0  0  0
  4 15  1  0  0  0  0
  4 42  1  0  0  0  0
  5 18  2  0  0  0  0
  5 36  1  0  0  0  0
  6 10  1  0  0  0  0
  7  5  1  0  0  0  0
  8  7  1  0  0  0  0
  8 23  2  0  0  0  0
  9 19  1  0  0  0  0
 11 27  1  1  0  0  0
 11 33  1  0  0  0  0
 12 39  1  0  0  0  0
 14 10  1  6  0  0  0
 14 13  1  0  0  0  0
 15  9  1  1  0  0  0
 15 42  1  0  0  0  0
 16 21  1  0  0  0  0
 16 30  2  0  0  0  0
 17 22  1  0  0  0  0
 18 37  1  0  0  0  0
 19 38  2  6  0  0  0
 19 20  1  0  0  0  0
 19 25  1  0  0  0  0
 21 46  1  0  0  0  0
 22 58  1  6  0  0  0
 22 16  1  0  0  0  0
 23 24  1  0  0  0  0
 23 18  1  0  0  0  0
 24  2  2  0  0  0  0
 26  6  1  0  0  0  0
 29 40  1  0  0  0  0
 29 31  1  0  0  0  0
 30 45  1  0  0  0  0
 33 14  1  0  0  0  0
 33 13  1  1  0  0  0
 34 12  2  0  0  0  0
 34 44  1  0  0  0  0
 35 33  1  0  0  0  0
 35 32  1  1  0  0  0
 35 14  1  0  0  0  0
 37 28  1  0  0  0  0
 39 47  1  0  0  0  0
 39 40  2  0  0  0  0
 41 25  1  6  0  0  0
 41 35  1  0  0  0  0
 42 44  1  6  0  0  0
 42  1  1  0  0  0  0
 43 26  1  6  0  0  0
 43 11  1  0  0  0  0
 44 29  2  0  0  0  0
 46 41  1  0  0  0  0
 46 45  1  6  0  0  0
 47 48  3  0  0  0  0
 49 17  1  0  0  0  0
 50 55  1  0  0  0  0
 51 53  2  0  0  0  0
 53 49  1  0  0  0  0
 53 52  1  0  0  0  0
 54 51  1  0  0  0  0
 54 50  2  0  0  0  0
 55 52  2  0  0  0  0
 56 57  1  0  0  0  0
 57 50  1  0  0  0  0
 61 60  1  6  0  0  0
 61 59  1  0  0  0  0
 61 58  1  0  0  0  0
M  END
>  <MODEL>
1

>  <REMARK>
 VINA RESULT:      -5.4      0.000      0.000
  Name = 
  6 active torsions:
  status: ('A' for Active; 'I' for Inactive)
    1  A    between atoms: C_6  and  C_53
    2  A    between atoms: C_9  and  O_17
    3  A    between atoms: N_24  and  C_42
    4  A    between atoms: C_31  and  C_50
    5  A    between atoms: C_33  and  C_42
    6  A    between atoms: C_50  and  C_59
                            x       y       z     vdW  Elec       q    Type
                         _______ _______ _______ _____ _____    ______ ____

>  <TORSDO>
F 6

$$$$
=
 OpenBabel11062420183D

 61 72  0  0  1  0  0  0  0  0999 V2000
  187.6810  175.0510  143.6000 C   0  0  1  0  0  3  0  0  0  0  0  0
  188.6910  172.8400  139.2410 C   0  0  0  0  0  3  0  0  0  0  0  0
  193.8360  174.7700  141.0320 C   0  0  0  0  0  2  0  0  0  0  0  0
  188.6900  175.4490  141.2410 C   0  0  1  0  0  3  0  0  0  0  0  0
  191.9410  173.7660  139.7130 C   0  0  0  0  0  0  0  0  0  0  0  0
  189.8740  173.3340  145.6650 C   0  0  0  0  0  2  0  0  0  0  0  0
  192.7000  173.3410  138.4700 C   0  0  0  0  0  2  0  0  0  0  0  0
  191.6530  172.7080  137.6350 N   0  0  0  0  0  0  0  0  0  0  0  0
  190.5340  175.9280  142.7940 O   0  0  0  0  0  0  0  0  0  0  0  0
  189.6940  173.8980  147.0760 C   0  0  0  0  0  2  0  0  0  0  0  0
  188.8840  176.3820  145.4470 C   0  0  1  0  0  3  0  0  0  0  0  0
  185.5460  178.6650  141.3880 C   0  0  0  0  0  3  0  0  0  0  0  0
  189.1570  176.0920  147.8820 O   0  0  0  0  0  0  0  0  0  0  0  0
  190.2370  175.2910  147.4680 C   0  0  2  0  0  0  0  0  0  0  0  0
  189.5140  176.4910  142.0180 C   0  0  2  0  0  3  0  0  0  0  0  0
  194.5770  174.2720  143.9950 C   0  0  0  0  0  0  0  0  0  0  0  0
  194.5160  173.6140  141.6090 N   0  0  0  0  0  0  0  0  0  0  0  0
  190.7110  173.3900  139.5000 C   0  0  0  0  0  0  0  0  0  0  0  0
  191.4770  177.2350  143.3450 P   0  0  1  0  0  0  0  0  0  0  0  0
  190.5940  178.3820  143.7880 O   0  0  0  0  0  1  0  0  0  0  0  0
  193.2070  174.1400  144.0720 O   0  0  0  0  0  0  0  0  0  0  0  0
  195.3690  173.9960  142.7500 C   0  0  1  0  0  3  0  0  0  0  0  0
  190.5840  172.8030  138.3450 C   0  0  0  0  0  0  0  0  0  0  0  0
  189.3220  172.4220  138.0950 N   0  0  0  0  0  0  0  0  0  0  0  0
  192.4570  176.7760  144.6560 O   0  0  0  0  0  0  0  0  0  0  0  0
  189.6670  174.2560  144.6300 O   0  0  0  0  0  0  0  0  0  0  0  0
  187.7350  177.1550  145.6370 O   0  0  0  0  0  1  0  0  0  0  0  0
  189.2200  174.0230  141.4190 C   0  0  0  0  0  2  0  0  0  0  0  0
  185.9480  176.5070  143.0880 C   0  0  0  0  0  0  0  0  0  0  0  0
  195.1230  174.6380  145.1010 N   0  0  0  0  0  0  0  0  0  0  0  0
  186.3300  175.4300  143.8770 O   0  0  0  0  0  0  0  0  0  0  0  0
  192.1350  176.9860  147.5240 C   0  0  0  0  0  1  0  0  0  0  0  0
  189.7910  176.5250  146.7060 C   0  0  1  0  0  0  0  0  0  0  0  0
  186.7950  178.0220  141.4050 C   0  0  0  0  0  3  0  0  0  0  0  0
  191.2590  176.0960  146.6570 C   0  0  2  0  0  0  0  0  0  0  0  0
  192.4260  174.4700  140.8540 N   0  0  0  0  0  2  0  0  0  0  0  0
  189.5380  173.4400  140.1270 N   0  0  0  0  0  0  0  0  0  0  0  0
  192.4730  177.7630  142.0840 O   0  0  0  0  0  0  0  0  0  0  0  0
  184.5020  178.2190  142.2240 C   0  0  0  0  0  0  0  0  0  0  0  0
  184.7010  177.1290  143.0880 C   0  0  0  0  0  3  0  0  0  0  0  0
  191.8240  175.6910  145.2840 C   0  0  2  0  0  3  0  0  0  0  0  0
  188.1350  176.0750  142.5220 C   0  0  2  0  0  0  0  0  0  0  0  0
  188.5110  174.9920  144.8910 C   0  0  2  0  0  3  0  0  0  0  0  0
  186.9610  176.9390  142.2690 C   0  0  0  0  0  0  0  0  0  0  0  0
  194.0830  174.8320  146.1010 C   0  0  0  0  0  2  0  0  0  0  0  0
  192.7750  174.4940  145.3720 C   0  0  2  0  0  3  0  0  0  0  0  0
  183.2330  178.8860  142.1960 C   0  0  0  0  0  0  0  0  0  0  0  0
  182.2070  179.4220  142.1720 N   0  0  0  0  0  0  0  0  0  0  0  0
  195.3360  173.0030  140.5680 C   0  0  0  0  0  2  0  0  0  0  0  0
  193.4800  169.3670  139.2230 C   0  0  0  0  0  0  0  0  0  0  0  0
  195.0470  171.1870  138.8640 C   0  0  0  0  0  3  0  0  0  0  0  0
  193.7500  171.0990  140.9090 C   0  0  0  0  0  3  0  0  0  0  0  0
  194.7090  171.7290  140.1090 C   0  0  0  0  0  0  0  0  0  0  0  0
  194.4340  170.0080  138.4240 C   0  0  0  0  0  3  0  0  0  0  0  0
  193.1390  169.9210  140.4690 C   0  0  0  0  0  3  0  0  0  0  0  0
  191.8500  168.1830  137.7930 C   0  0  0  0  0  1  0  0  0  0  0  0
  192.8910  168.1890  138.7600 O   0  0  0  0  0  0  0  0  0  0  0  0
  196.4850  175.0260  142.4460 C   0  0  0  0  0  2  0  0  0  0  0  0
  196.9420  177.1690  143.5300 N   0  0  0  0  0  1  0  0  0  0  0  0
  196.1900  177.1620  141.2340 C   0  0  0  0  0  1  0  0  0  0  0  0
  196.0740  176.4870  142.5850 C   0  0  1  0  0  3  0  0  0  0  0  0
  1 31  1  1  0  0  0
  1 43  1  0  0  0  0
  2 37  1  0  0  0  0
  3 17  1  0  0  0  0
  4 28  1  1  0  0  0
  4 15  1  0  0  0  0
  4 42  1  0  0  0  0
  5 36  1  0  0  0  0
  6 10  1  0  0  0  0
  7  5  1  0  0  0  0
  8 23  2  0  0  0  0
  8  7  1  0  0  0  0
  9 19  1  0  0  0  0
 11 27  1  1  0  0  0
 11 33  1  0  0  0  0
 12 34  2  0  0  0  0
 12 39  1  0  0  0  0
 14 10  1  6  0  0  0
 14 13  1  0  0  0  0
 15 42  1  0  0  0  0
 15  9  1  1  0  0  0
 16 21  1  0  0  0  0
 16 30  2  0  0  0  0
 17 22  1  0  0  0  0
 18  5  2  0  0  0  0
 18 37  1  0  0  0  0
 19 38  2  6  0  0  0
 19 20  1  0  0  0  0
 19 25  1  0  0  0  0
 21 46  1  0  0  0  0
 22 58  1  6  0  0  0
 22 16  1  0  0  0  0
 23 18  1  0  0  0  0
 24 23  1  0  0  0  0
 24  2  2  0  0  0  0
 26  6  1  0  0  0  0
 29 31  1  0  0  0  0
 30 45  1  0  0  0  0
 33 14  1  0  0  0  0
 33 13  1  1  0  0  0
 34 44  1  0  0  0  0
 35 33  1  0  0  0  0
 35 14  1  0  0  0  0
 35 32  1  1  0  0  0
 36  3  1  0  0  0  0
 37 28  1  0  0  0  0
 39 40  2  0  0  0  0
 40 29  1  0  0  0  0
 41 25  1  1  0  0  0
 41 46  1  0  0  0  0
 41 35  1  0  0  0  0
 42 44  1  6  0  0  0
 42  1  1  0  0  0  0
 43 26  1  6  0  0  0
 43 11  1  0  0  0  0
 44 29  2  0  0  0  0
 46 45  1  1  0  0  0
 47 39  1  0  0  0  0
 48 47  3  0  0  0  0
 49 17  1  0  0  0  0
 50 55  1  0  0  0  0
 51 53  2  0  0  0  0
 53 49  1  0  0  0  0
 53 52  1  0  0  0  0
 54 51  1  0  0  0  0
 54 50  2  0  0  0  0
 55 52  2  0  0  0  0
 56 57  1  0  0  0  0
 57 50  1  0  0  0  0
 58 61  1  0  0  0  0
 61 60  1  6  0  0  0
 61 59  1  0  0  0  0
M  END
>  <MODEL>
2

>  <REMARK>
 VINA RESULT:      -4.9      1.352      1.529
  Name = 
  6 active torsions:
  status: ('A' for Active; 'I' for Inactive)
    1  A    between atoms: C_6  and  C_53
    2  A    between atoms: C_9  and  O_17
    3  A    between atoms: N_24  and  C_42
    4  A    between atoms: C_31  and  C_50
    5  A    between atoms: C_33  and  C_42
    6  A    between atoms: C_50  and  C_59
                            x       y       z     vdW  Elec       q    Type
                         _______ _______ _______ _____ _____    ______ ____

>  <TORSDO>
F 6

$$$$
=
 OpenBabel11062420183D

 61 72  0  0  1  0  0  0  0  0999 V2000
  190.8810  176.7470  143.9130 C   0  0  1  0  0  3  0  0  0  0  0  0
  195.6020  176.7900  142.2950 C   0  0  0  0  0  3  0  0  0  0  0  0
  193.5110  171.7800  140.3110 C   0  0  0  0  0  2  0  0  0  0  0  0
  193.1230  175.4390  143.9790 C   0  0  1  0  0  3  0  0  0  0  0  0
  194.9850  173.7270  140.9230 C   0  0  0  0  0  0  0  0  0  0  0  0
  189.2200  176.3030  140.9030 C   0  0  0  0  0  2  0  0  0  0  0  0
  196.2950  173.2440  140.3290 C   0  0  0  0  0  2  0  0  0  0  0  0
  197.2290  174.3550  140.6230 N   0  0  0  0  0  0  0  0  0  0  0  0
  191.5230  173.8780  142.9570 O   0  0  0  0  0  0  0  0  0  0  0  0
  187.7220  176.2660  141.2200 C   0  0  0  0  0  2  0  0  0  0  0  0
  188.8170  175.2070  143.8950 C   0  0  1  0  0  3  0  0  0  0  0  0
  192.3100  175.9760  148.3720 C   0  0  0  0  0  3  0  0  0  0  0  0
  186.4910  175.4500  143.1090 O   0  0  0  0  0  0  0  0  0  0  0  0
  187.0670  175.0390  141.8930 C   0  0  2  0  0  0  0  0  0  0  0  0
  192.1620  174.2480  144.1460 C   0  0  2  0  0  3  0  0  0  0  0  0
  190.7130  171.8430  138.9900 C   0  0  0  0  0  0  0  0  0  0  0  0
  193.1810  172.0140  138.9080 N   0  0  0  0  0  0  0  0  0  0  0  0
  195.2580  174.8980  141.4280 C   0  0  0  0  0  0  0  0  0  0  0  0
  190.7310  172.4070  143.2910 P   0  0  1  0  0  0  0  0  0  0  0  0
  190.0620  172.4570  144.6470 O   0  0  0  0  0  1  0  0  0  0  0  0
  190.6510  173.0100  139.7220 O   0  0  0  0  0  0  0  0  0  0  0  0
  191.9950  171.2440  138.4900 C   0  0  1  0  0  3  0  0  0  0  0  0
  196.5050  175.2210  141.2420 C   0  0  0  0  0  0  0  0  0  0  0  0
  196.8140  176.4150  141.7690 N   0  0  0  0  0  0  0  0  0  0  0  0
  189.5470  172.0670  142.1190 O   0  0  0  0  0  0  0  0  0  0  0  0
  190.0480  175.7870  141.9080 O   0  0  0  0  0  0  0  0  0  0  0  0
  188.4670  175.6630  145.1690 O   0  0  0  0  0  1  0  0  0  0  0  0
  193.2370  175.9080  142.5250 C   0  0  0  0  0  2  0  0  0  0  0  0
  191.0770  177.1660  146.1880 C   0  0  0  0  0  0  0  0  0  0  0  0
  189.5610  171.3190  138.7550 N   0  0  0  0  0  0  0  0  0  0  0  0
  190.5220  177.6110  144.9950 O   0  0  0  0  0  0  0  0  0  0  0  0
  186.6920  172.5240  142.0160 C   0  0  0  0  0  1  0  0  0  0  0  0
  187.5640  174.5520  143.2410 C   0  0  1  0  0  0  0  0  0  0  0  0
  192.4330  175.3860  147.1030 C   0  0  0  0  0  3  0  0  0  0  0  0
  187.7100  173.6530  142.0120 C   0  0  2  0  0  0  0  0  0  0  0  0
  193.7310  173.0500  140.9800 N   0  0  0  0  0  2  0  0  0  0  0  0
  194.6220  175.8620  142.0900 N   0  0  0  0  0  0  0  0  0  0  0  0
  191.8720  171.1580  143.2850 O   0  0  0  0  0  0  0  0  0  0  0  0
  191.5700  177.1640  148.5390 C   0  0  0  0  0  0  0  0  0  0  0  0
  190.9420  177.7690  147.4370 C   0  0  0  0  0  3  0  0  0  0  0  0
  189.1420  173.2950  141.5740 C   0  0  2  0  0  3  0  0  0  0  0  0
  191.7380  175.6440  144.5960 C   0  0  2  0  0  0  0  0  0  0  0  0
  189.6350  176.2790  143.1460 C   0  0  2  0  0  3  0  0  0  0  0  0
  191.8030  176.0130  146.0270 C   0  0  0  0  0  0  0  0  0  0  0  0
  188.5330  172.1350  139.3850 C   0  0  0  0  0  2  0  0  0  0  0  0
  189.3020  173.2840  140.0510 C   0  0  2  0  0  3  0  0  0  0  0  0
  191.4530  177.7540  149.8400 C   0  0  0  0  0  0  0  0  0  0  0  0
  191.3590  178.2290  150.8920 N   0  0  0  0  0  0  0  0  0  0  0  0
  194.3310  171.6200  138.1000 C   0  0  0  0  0  2  0  0  0  0  0  0
  195.3910  174.7930  135.4030 C   0  0  0  0  0  0  0  0  0  0  0  0
  195.5920  172.4800  136.1110 C   0  0  0  0  0  3  0  0  0  0  0  0
  194.1340  173.9890  137.3230 C   0  0  0  0  0  3  0  0  0  0  0  0
  194.6830  172.7140  137.1490 C   0  0  0  0  0  0  0  0  0  0  0  0
  195.9440  173.5170  135.2400 C   0  0  0  0  0  3  0  0  0  0  0  0
  194.4840  175.0250  136.4520 C   0  0  0  0  0  3  0  0  0  0  0  0
  196.4950  176.9500  134.9190 C   0  0  0  0  0  1  0  0  0  0  0  0
  195.7550  175.8060  134.5130 O   0  0  0  0  0  0  0  0  0  0  0  0
  192.0980  169.7060  138.6420 C   0  0  0  0  0  2  0  0  0  0  0  0
  190.5580  168.1860  137.5050 N   0  0  0  0  0  1  0  0  0  0  0  0
  191.7120  169.8620  136.2040 C   0  0  0  0  0  1  0  0  0  0  0  0
  191.8120  168.9080  137.3750 C   0  0  1  0  0  3  0  0  0  0  0  0
  1 42  1  0  0  0  0
  1 31  1  1  0  0  0
  3 36  1  0  0  0  0
  4 28  1  6  0  0  0
  4 15  1  0  0  0  0
  4 42  1  0  0  0  0
  5 36  1  0  0  0  0
  5 18  2  0  0  0  0
  6 10  1  0  0  0  0
  6 26  1  0  0  0  0
  7  8  1  0  0  0  0
  7  5  1  0  0  0  0
  8 23  2  0  0  0  0
  9 19  1  0  0  0  0
 11 27  1  1  0  0  0
 12 39  1  0  0  0  0
 14 10  1  6  0  0  0
 14 35  1  0  0  0  0
 14 13  1  0  0  0  0
 14 33  1  0  0  0  0
 15  9  1  6  0  0  0
 15 42  1  0  0  0  0
 16 21  1  0  0  0  0
 17  3  1  0  0  0  0
 18 37  1  0  0  0  0
 19 38  2  1  0  0  0
 19 20  1  0  0  0  0
 21 46  1  0  0  0  0
 22 58  1  1  0  0  0
 22 17  1  0  0  0  0
 22 16  1  0  0  0  0
 23 18  1  0  0  0  0
 23 24  1  0  0  0  0
 24  2  2  0  0  0  0
 25 19  1  0  0  0  0
 29 40  1  0  0  0  0
 30 16  2  0  0  0  0
 30 45  1  0  0  0  0
 31 29  1  0  0  0  0
 33 13  1  1  0  0  0
 33 11  1  0  0  0  0
 34 12  2  0  0  0  0
 35 32  1  6  0  0  0
 35 33  1  0  0  0  0
 37  2  1  0  0  0  0
 37 28  1  0  0  0  0
 39 47  1  0  0  0  0
 40 39  2  0  0  0  0
 41 35  1  0  0  0  0
 41 25  1  6  0  0  0
 42 44  1  1  0  0  0
 43 26  1  6  0  0  0
 43 11  1  0  0  0  0
 43  1  1  0  0  0  0
 44 29  2  0  0  0  0
 44 34  1  0  0  0  0
 46 45  1  6  0  0  0
 46 41  1  0  0  0  0
 47 48  3  0  0  0  0
 49 17  1  0  0  0  0
 50 55  1  0  0  0  0
 51 53  2  0  0  0  0
 53 52  1  0  0  0  0
 53 49  1  0  0  0  0
 54 50  2  0  0  0  0
 54 51  1  0  0  0  0
 55 52  2  0  0  0  0
 57 56  1  0  0  0  0
 57 50  1  0  0  0  0
 61 60  1  6  0  0  0
 61 59  1  0  0  0  0
 61 58  1  0  0  0  0
M  END
>  <MODEL>
3

>  <REMARK>
 VINA RESULT:      -4.6      2.752      6.467
  Name = 
  6 active torsions:
  status: ('A' for Active; 'I' for Inactive)
    1  A    between atoms: C_6  and  C_53
    2  A    between atoms: C_9  and  O_17
    3  A    between atoms: N_24  and  C_42
    4  A    between atoms: C_31  and  C_50
    5  A    between atoms: C_33  and  C_42
    6  A    between atoms: C_50  and  C_59
                            x       y       z     vdW  Elec       q    Type
                         _______ _______ _______ _____ _____    ______ ____

>  <TORSDO>
F 6

$$$$
=
 OpenBabel11062420183D

 61 72  0  0  1  0  0  0  0  0999 V2000
  195.0450  173.0360  143.8590 C   0  0  1  0  0  3  0  0  0  0  0  0
  193.1600  170.3760  140.0800 C   0  0  0  0  0  3  0  0  0  0  0  0
  188.7770  173.7830  141.6880 C   0  0  0  0  0  2  0  0  0  0  0  0
  193.1370  171.4000  143.2040 C   0  0  1  0  0  3  0  0  0  0  0  0
  190.2270  172.0450  140.5870 C   0  0  0  0  0  0  0  0  0  0  0  0
  194.4480  176.2440  142.6900 C   0  0  0  0  0  2  0  0  0  0  0  0
  189.2160  171.4520  139.6230 C   0  0  0  0  0  2  0  0  0  0  0  0
  190.0000  170.4210  138.9030 N   0  0  0  0  0  0  0  0  0  0  0  0
  191.9810  173.4490  143.9180 O   0  0  0  0  0  0  0  0  0  0  0  0
  194.9760  177.2120  143.7520 C   0  0  0  0  0  2  0  0  0  0  0  0
  194.3020  174.8170  145.5640 C   0  0  1  0  0  3  0  0  0  0  0  0
  194.9590  169.2410  146.7070 C   0  0  0  0  0  3  0  0  0  0  0  0
  195.0880  177.0830  146.1430 O   0  0  0  0  0  0  0  0  0  0  0  0
  194.2310  177.4380  145.0860 C   0  0  2  0  0  0  0  0  0  0  0  0
  192.4010  172.1730  144.3130 C   0  0  2  0  0  3  0  0  0  0  0  0
  189.4210  176.7670  142.1960 C   0  0  0  0  0  0  0  0  0  0  0  0
  188.7570  174.8850  140.7310 N   0  0  0  0  0  0  0  0  0  0  0  0
  191.3310  171.3900  140.3590 C   0  0  0  0  0  0  0  0  0  0  0  0
  190.9750  174.0170  145.1690 P   0  0  1  0  0  0  0  0  0  0  0  0
  191.5660  173.6880  146.5220 O   0  0  0  0  0  1  0  0  0  0  0  0
  190.6850  176.2310  142.3200 O   0  0  0  0  0  0  0  0  0  0  0  0
  188.3360  176.1490  141.3630 C   0  0  1  0  0  3  0  0  0  0  0  0
  191.1760  170.5030  139.4190 C   0  0  0  0  0  0  0  0  0  0  0  0
  192.2960  169.8040  139.1790 N   0  0  0  0  0  0  0  0  0  0  0  0
  190.7630  175.7010  145.0700 O   0  0  0  0  0  0  0  0  0  0  0  0
  193.9510  175.0340  143.1910 O   0  0  0  0  0  0  0  0  0  0  0  0
  195.1420  174.2470  146.5240 O   0  0  0  0  0  1  0  0  0  0  0  0
  193.1760  172.1630  141.8770 C   0  0  0  0  0  2  0  0  0  0  0  0
  195.9160  171.4230  145.2840 C   0  0  0  0  0  0  0  0  0  0  0  0
  189.2590  177.8640  142.8490 N   0  0  0  0  0  0  0  0  0  0  0  0
  196.2140  172.5470  144.5230 O   0  0  0  0  0  0  0  0  0  0  0  0
  192.0830  177.9290  146.3610 C   0  0  0  0  0  1  0  0  0  0  0  0
  193.9520  176.2680  146.0110 C   0  0  1  0  0  0  0  0  0  0  0  0
  194.0710  170.0000  145.9250 C   0  0  0  0  0  3  0  0  0  0  0  0
  192.7840  177.0170  145.3670 C   0  0  2  0  0  0  0  0  0  0  0  0
  190.0290  173.0560  141.5720 N   0  0  0  0  0  2  0  0  0  0  0  0
  192.5790  171.3650  140.8200 N   0  0  0  0  0  0  0  0  0  0  0  0
  189.4610  173.2740  145.0340 O   0  0  0  0  0  0  0  0  0  0  0  0
  196.3250  169.5800  146.7680 C   0  0  0  0  0  0  0  0  0  0  0  0
  196.8150  170.6860  146.0520 C   0  0  0  0  0  3  0  0  0  0  0  0
  191.8860  176.2190  144.4050 C   0  0  2  0  0  3  0  0  0  0  0  0
  193.9240  172.0680  144.3340 C   0  0  2  0  0  0  0  0  0  0  0  0
  194.8350  174.5300  144.1450 C   0  0  2  0  0  3  0  0  0  0  0  0
  194.5880  171.0870  145.2200 C   0  0  0  0  0  0  0  0  0  0  0  0
  190.4920  178.1800  143.5560 C   0  0  0  0  0  2  0  0  0  0  0  0
  191.4540  177.0430  143.1880 C   0  0  2  0  0  3  0  0  0  0  0  0
  197.2180  168.7970  147.5710 C   0  0  0  0  0  0  0  0  0  0  0  0
  197.9400  168.1660  148.2200 N   0  0  0  0  0  0  0  0  0  0  0  0
  187.8270  174.5400  139.6600 C   0  0  0  0  0  2  0  0  0  0  0  0
  189.8710  174.6580  135.8820 C   0  0  0  0  0  0  0  0  0  0  0  0
  189.9100  174.3070  138.2840 C   0  0  0  0  0  3  0  0  0  0  0  0
  187.8260  174.8700  137.1810 C   0  0  0  0  0  3  0  0  0  0  0  0
  188.5350  174.5590  138.3470 C   0  0  0  0  0  0  0  0  0  0  0  0
  190.5750  174.3560  137.0540 C   0  0  0  0  0  3  0  0  0  0  0  0
  188.4910  174.9160  135.9520 C   0  0  0  0  0  3  0  0  0  0  0  0
  191.9050  175.1410  134.5660 C   0  0  0  0  0  1  0  0  0  0  0  0
  190.5610  174.6910  134.6680 O   0  0  0  0  0  0  0  0  0  0  0  0
  186.9340  176.1440  142.0200 C   0  0  0  0  0  2  0  0  0  0  0  0
  186.0100  178.3320  142.6020 N   0  0  0  0  0  1  0  0  0  0  0  0
  186.5140  177.8590  140.2870 C   0  0  0  0  0  1  0  0  0  0  0  0
  186.0140  177.2840  141.5950 C   0  0  1  0  0  3  0  0  0  0  0  0
  1 43  1  0  0  0  0
  1 42  1  0  0  0  0
  1 31  1  1  0  0  0
  2 37  1  0  0  0  0
  4 28  1  6  0  0  0
  4 15  1  0  0  0  0
  4 42  1  0  0  0  0
  5 36  1  0  0  0  0
  6 26  1  0  0  0  0
  6 10  1  0  0  0  0
  7  5  1  0  0  0  0
  8 23  2  0  0  0  0
  8  7  1  0  0  0  0
  9 19  1  0  0  0  0
 11 33  1  0  0  0  0
 11 27  1  1  0  0  0
 12 39  1  0  0  0  0
 14 10  1  6  0  0  0
 14 35  1  0  0  0  0
 14 33  1  0  0  0  0
 14 13  1  0  0  0  0
 15  9  1  6  0  0  0
 15 42  1  0  0  0  0
 16 21  1  0  0  0  0
 16 30  2  0  0  0  0
 17 22  1  0  0  0  0
 17  3  1  0  0  0  0
 18  5  2  0  0  0  0
 18 37  1  0  0  0  0
 19 38  2  6  0  0  0
 19 20  1  0  0  0  0
 21 46  1  0  0  0  0
 22 58  1  1  0  0  0
 22 16  1  0  0  0  0
 23 18  1  0  0  0  0
 24 23  1  0  0  0  0
 24  2  2  0  0  0  0
 25 19  1  0  0  0  0
 29 40  1  0  0  0  0
 30 45  1  0  0  0  0
 31 29  1  0  0  0  0
 33 13  1  1  0  0  0
 34 12  2  0  0  0  0
 35 33  1  0  0  0  0
 35 32  1  1  0  0  0
 36  3  1  0  0  0  0
 37 28  1  0  0  0  0
 39 47  1  0  0  0  0
 40 39  2  0  0  0  0
 41 25  1  1  0  0  0
 41 35  1  0  0  0  0
 42 44  1  1  0  0  0
 43 26  1  6  0  0  0
 43 11  1  0  0  0  0
 44 29  2  0  0  0  0
 44 34  1  0  0  0  0
 46 45  1  1  0  0  0
 46 41  1  0  0  0  0
 47 48  3  0  0  0  0
 49 17  1  0  0  0  0
 50 55  2  0  0  0  0
 50 54  1  0  0  0  0
 51 53  1  0  0  0  0
 52 53  2  0  0  0  0
 53 49  1  0  0  0  0
 54 51  2  0  0  0  0
 55 52  1  0  0  0  0
 56 57  1  0  0  0  0
 57 50  1  0  0  0  0
 61 60  1  6  0  0  0
 61 58  1  0  0  0  0
 61 59  1  0  0  0  0
M  END
>  <MODEL>
4

>  <REMARK>
 VINA RESULT:      -4.6      3.105      7.680
  Name = 
  6 active torsions:
  status: ('A' for Active; 'I' for Inactive)
    1  A    between atoms: C_6  and  C_53
    2  A    between atoms: C_9  and  O_17
    3  A    between atoms: N_24  and  C_42
    4  A    between atoms: C_31  and  C_50
    5  A    between atoms: C_33  and  C_42
    6  A    between atoms: C_50  and  C_59
                            x       y       z     vdW  Elec       q    Type
                         _______ _______ _______ _____ _____    ______ ____

>  <TORSDO>
F 6

$$$$
=
 OpenBabel11062420183D

 61 72  0  0  1  0  0  0  0  0999 V2000
  187.6030  175.1650  143.5860 C   0  0  1  0  0  3  0  0  0  0  0  0
  188.6100  172.2320  139.6750 C   0  0  0  0  0  3  0  0  0  0  0  0
  193.7890  174.2670  141.2420 C   0  0  0  0  0  2  0  0  0  0  0  0
  188.6670  175.1340  141.2170 C   0  0  1  0  0  3  0  0  0  0  0  0
  191.8830  173.1190  140.0630 C   0  0  0  0  0  0  0  0  0  0  0  0
  189.6980  173.7450  145.9550 C   0  0  0  0  0  2  0  0  0  0  0  0
  192.6480  172.4710  138.9250 C   0  0  0  0  0  2  0  0  0  0  0  0
  191.5940  171.7410  138.1820 N   0  0  0  0  0  0  0  0  0  0  0  0
  190.4990  175.8060  142.7120 O   0  0  0  0  0  0  0  0  0  0  0  0
  189.5130  174.5410  147.2500 C   0  0  0  0  0  2  0  0  0  0  0  0
  188.8200  176.7450  145.2150 C   0  0  1  0  0  3  0  0  0  0  0  0
  185.6350  178.4290  140.7590 C   0  0  0  0  0  3  0  0  0  0  0  0
  189.0400  176.8540  147.6700 O   0  0  0  0  0  0  0  0  0  0  0  0
  190.0980  175.9610  147.4190 C   0  0  2  0  0  0  0  0  0  0  0  0
  189.5130  176.2640  141.8300 C   0  0  2  0  0  3  0  0  0  0  0  0
  194.4590  174.2440  144.2630 C   0  0  0  0  0  0  0  0  0  0  0  0
  194.4170  173.2020  142.0170 N   0  0  0  0  0  0  0  0  0  0  0  0
  190.6440  172.7530  139.8860 C   0  0  0  0  0  0  0  0  0  0  0  0
  191.4770  177.1550  143.0620 P   0  0  1  0  0  0  0  0  0  0  0  0
  190.6270  178.3870  143.2880 O   0  0  0  0  0  1  0  0  0  0  0  0
  193.0840  174.1690  144.3280 O   0  0  0  0  0  0  0  0  0  0  0  0
  195.2630  173.7400  143.0980 C   0  0  1  0  0  3  0  0  0  0  0  0
  190.5160  171.9870  138.8410 C   0  0  0  0  0  0  0  0  0  0  0  0
  189.2460  171.6100  138.6290 N   0  0  0  0  0  0  0  0  0  0  0  0
  192.4180  176.8880  144.4530 O   0  0  0  0  0  0  0  0  0  0  0  0
  189.5410  174.4890  144.7780 O   0  0  0  0  0  0  0  0  0  0  0  0
  187.6950  177.5740  145.2490 O   0  0  0  0  0  1  0  0  0  0  0  0
  189.1430  173.7420  141.6400 C   0  0  0  0  0  2  0  0  0  0  0  0
  185.9310  176.5710  142.8000 C   0  0  0  0  0  0  0  0  0  0  0  0
  194.9990  174.7700  145.3050 N   0  0  0  0  0  0  0  0  0  0  0  0
  186.2620  175.6280  143.7650 O   0  0  0  0  0  0  0  0  0  0  0  0
  192.0520  177.5810  147.2380 C   0  0  0  0  0  1  0  0  0  0  0  0
  189.7090  177.0650  146.4540 C   0  0  1  0  0  0  0  0  0  0  0  0
  186.8610  177.7590  140.9110 C   0  0  0  0  0  3  0  0  0  0  0  0
  191.1610  176.5880  146.5100 C   0  0  2  0  0  0  0  0  0  0  0  0
  192.3720  173.9870  141.0830 N   0  0  0  0  0  2  0  0  0  0  0  0
  189.4630  172.9430  140.4690 N   0  0  0  0  0  0  0  0  0  0  0  0
  192.5130  177.4350  141.7540 O   0  0  0  0  0  0  0  0  0  0  0  0
  184.5620  178.1610  141.6320 C   0  0  0  0  0  0  0  0  0  0  0  0
  184.7080  177.2230  142.6690 C   0  0  0  0  0  3  0  0  0  0  0  0
  191.7360  175.9440  145.2360 C   0  0  2  0  0  3  0  0  0  0  0  0
  188.1110  175.9820  142.3640 C   0  0  2  0  0  0  0  0  0  0  0  0
  188.4080  175.2950  144.8870 C   0  0  2  0  0  3  0  0  0  0  0  0
  186.9730  176.8280  141.9450 C   0  0  0  0  0  0  0  0  0  0  0  0
  193.9480  175.1600  146.2350 C   0  0  0  0  0  2  0  0  0  0  0  0
  192.6430  174.7480  145.5420 C   0  0  2  0  0  3  0  0  0  0  0  0
  183.3180  178.8540  141.4660 C   0  0  0  0  0  0  0  0  0  0  0  0
  182.3120  179.4110  141.3310 N   0  0  0  0  0  0  0  0  0  0  0  0
  195.2330  172.4010  141.1110 C   0  0  0  0  0  2  0  0  0  0  0  0
  197.1950  174.8990  138.2160 C   0  0  0  0  0  0  0  0  0  0  0  0
  195.1620  173.9330  139.1280 C   0  0  0  0  0  3  0  0  0  0  0  0
  197.3000  173.4340  140.1540 C   0  0  0  0  0  3  0  0  0  0  0  0
  195.9090  173.2850  140.1180 C   0  0  0  0  0  0  0  0  0  0  0  0
  195.8040  174.7380  138.1810 C   0  0  0  0  0  3  0  0  0  0  0  0
  197.9400  174.2400  139.2080 C   0  0  0  0  0  3  0  0  0  0  0  0
  197.1860  176.0400  136.0240 C   0  0  0  0  0  1  0  0  0  0  0  0
  197.8060  175.7150  137.2620 O   0  0  0  0  0  0  0  0  0  0  0  0
  196.4190  174.6690  142.6550 C   0  0  0  0  0  2  0  0  0  0  0  0
  197.1720  176.8340  143.5070 N   0  0  0  0  0  1  0  0  0  0  0  0
  196.0700  176.7470  141.3590 C   0  0  0  0  0  1  0  0  0  0  0  0
  196.1260  176.1620  142.7540 C   0  0  1  0  0  3  0  0  0  0  0  0
  1 31  1  1  0  0  0
  1 43  1  0  0  0  0
  2 37  1  0  0  0  0
  3 17  1  0  0  0  0
  4 28  1  1  0  0  0
  4 15  1  0  0  0  0
  4 42  1  0  0  0  0
  5 36  1  0  0  0  0
  6 10  1  0  0  0  0
  7  5  1  0  0  0  0
  8 23  2  0  0  0  0
  8  7  1  0  0  0  0
  9 19  1  0  0  0  0
 11 27  1  1  0  0  0
 11 33  1  0  0  0  0
 12 34  2  0  0  0  0
 12 39  1  0  0  0  0
 14 10  1  6  0  0  0
 14 13  1  0  0  0  0
 15 42  1  0  0  0  0
 15  9  1  1  0  0  0
 16 21  1  0  0  0  0
 16 30  2  0  0  0  0
 17 22  1  0  0  0  0
 18  5  2  0  0  0  0
 18 37  1  0  0  0  0
 19 38  2  6  0  0  0
 19 20  1  0  0  0  0
 19 25  1  0  0  0  0
 21 46  1  0  0  0  0
 22 58  1  6  0  0  0
 22 16  1  0  0  0  0
 23 18  1  0  0  0  0
 24 23  1  0  0  0  0
 24  2  2  0  0  0  0
 26  6  1  0  0  0  0
 29 31  1  0  0  0  0
 30 45  1  0  0  0  0
 33 35  1  0  0  0  0
 33 14  1  0  0  0  0
 33 13  1  1  0  0  0
 34 44  1  0  0  0  0
 35 32  1  1  0  0  0
 35 14  1  0  0  0  0
 36  3  1  0  0  0  0
 37 28  1  0  0  0  0
 39 40  2  0  0  0  0
 40 29  1  0  0  0  0
 41 25  1  1  0  0  0
 41 46  1  0  0  0  0
 41 35  1  0  0  0  0
 42 44  1  6  0  0  0
 42  1  1  0  0  0  0
 43 26  1  6  0  0  0
 43 11  1  0  0  0  0
 44 29  2  0  0  0  0
 46 45  1  1  0  0  0
 47 39  1  0  0  0  0
 48 47  3  0  0  0  0
 49 17  1  0  0  0  0
 50 55  1  0  0  0  0
 51 53  2  0  0  0  0
 53 52  1  0  0  0  0
 53 49  1  0  0  0  0
 54 50  2  0  0  0  0
 54 51  1  0  0  0  0
 55 52  2  0  0  0  0
 56 57  1  0  0  0  0
 57 50  1  0  0  0  0
 58 61  1  0  0  0  0
 61 60  1  6  0  0  0
 61 59  1  0  0  0  0
M  END
>  <MODEL>
5

>  <REMARK>
 VINA RESULT:      -4.6      1.974      2.950
  Name = 
  6 active torsions:
  status: ('A' for Active; 'I' for Inactive)
    1  A    between atoms: C_6  and  C_53
    2  A    between atoms: C_9  and  O_17
    3  A    between atoms: N_24  and  C_42
    4  A    between atoms: C_31  and  C_50
    5  A    between atoms: C_33  and  C_42
    6  A    between atoms: C_50  and  C_59
                            x       y       z     vdW  Elec       q    Type
                         _______ _______ _______ _____ _____    ______ ____

>  <TORSDO>
F 6

$$$$
=
 OpenBabel11062420183D

 61 72  0  0  1  0  0  0  0  0999 V2000
  190.3900  173.4380  143.8180 C   0  0  1  0  0  3  0  0  0  0  0  0
  188.5550  173.6650  139.1820 C   0  0  0  0  0  3  0  0  0  0  0  0
  194.2690  174.1090  138.4260 C   0  0  0  0  0  2  0  0  0  0  0  0
  190.2970  174.9060  141.6780 C   0  0  1  0  0  3  0  0  0  0  0  0
  191.7730  174.0250  138.1040 C   0  0  0  0  0  0  0  0  0  0  0  0
  192.5910  170.7840  143.4610 C   0  0  0  0  0  2  0  0  0  0  0  0
  191.7080  174.2380  136.6030 C   0  0  0  0  0  2  0  0  0  0  0  0
  190.2570  174.1770  136.3150 N   0  0  0  0  0  0  0  0  0  0  0  0
  192.6860  174.4240  141.9970 O   0  0  0  0  0  0  0  0  0  0  0  0
  193.2590  170.5710  144.8220 C   0  0  0  0  0  2  0  0  0  0  0  0
  192.6530  173.5810  145.0390 C   0  0  1  0  0  3  0  0  0  0  0  0
  188.7820  177.7980  144.7760 C   0  0  0  0  0  3  0  0  0  0  0  0
  193.8830  172.0880  146.5710 O   0  0  0  0  0  0  0  0  0  0  0  0
  194.3370  171.5400  145.3570 C   0  0  2  0  0  0  0  0  0  0  0  0
  191.6690  175.3630  142.2060 C   0  0  2  0  0  3  0  0  0  0  0  0
  196.0590  172.1430  140.0090 C   0  0  0  0  0  0  0  0  0  0  0  0
  194.7220  172.7810  138.0260 N   0  0  0  0  0  0  0  0  0  0  0  0
  190.5310  173.8840  138.4760 C   0  0  0  0  0  0  0  0  0  0  0  0
  194.1400  175.2150  142.3960 P   0  0  1  0  0  0  0  0  0  0  0  0
  193.9740  176.0350  143.6570 O   0  0  0  0  0  1  0  0  0  0  0  0
  194.9100  172.0750  140.7680 O   0  0  0  0  0  0  0  0  0  0  0  0
  196.0680  172.4830  138.5470 C   0  0  1  0  0  3  0  0  0  0  0  0
  189.7160  173.9680  137.4650 C   0  0  0  0  0  0  0  0  0  0  0  0
  188.4300  173.8430  137.8260 N   0  0  0  0  0  0  0  0  0  0  0  0
  195.3990  174.0980  142.6430 O   0  0  0  0  0  0  0  0  0  0  0  0
  192.2510  172.1120  143.1730 O   0  0  0  0  0  0  0  0  0  0  0  0
  192.0310  174.2220  146.1140 O   0  0  0  0  0  1  0  0  0  0  0  0
  190.3580  173.5560  140.9600 C   0  0  0  0  0  2  0  0  0  0  0  0
  189.1860  175.0580  144.9640 C   0  0  0  0  0  0  0  0  0  0  0  0
  197.1290  171.8680  140.6670 N   0  0  0  0  0  0  0  0  0  0  0  0
  189.5120  173.7090  144.9140 O   0  0  0  0  0  0  0  0  0  0  0  0
  196.4890  172.8560  145.0180 C   0  0  0  0  0  1  0  0  0  0  0  0
  194.0210  173.0150  145.5240 C   0  0  1  0  0  0  0  0  0  0  0  0
  189.6230  177.1590  143.8500 C   0  0  0  0  0  3  0  0  0  0  0  0
  195.0820  172.5790  144.5130 C   0  0  2  0  0  0  0  0  0  0  0  0
  192.9180  174.0270  138.9540 N   0  0  0  0  0  2  0  0  0  0  0  0
  189.8530  173.6840  139.6040 N   0  0  0  0  0  0  0  0  0  0  0  0
  194.5730  176.2430  141.1240 O   0  0  0  0  0  0  0  0  0  0  0  0
  188.1460  177.0580  145.7920 C   0  0  0  0  0  0  0  0  0  0  0  0
  188.3490  175.6710  145.8940 C   0  0  0  0  0  3  0  0  0  0  0  0
  194.8040  172.8870  143.0300 C   0  0  2  0  0  3  0  0  0  0  0  0
  190.6130  174.8360  143.1740 C   0  0  2  0  0  0  0  0  0  0  0  0
  191.6440  172.6860  144.2900 C   0  0  2  0  0  3  0  0  0  0  0  0
  189.8000  175.7800  143.9710 C   0  0  0  0  0  0  0  0  0  0  0  0
  196.7750  171.5960  142.0530 C   0  0  0  0  0  2  0  0  0  0  0  0
  195.2500  171.7520  142.1030 C   0  0  2  0  0  3  0  0  0  0  0  0
  187.2910  177.7250  146.7310 C   0  0  0  0  0  0  0  0  0  0  0  0
  186.6000  178.2630  147.4880 N   0  0  0  0  0  0  0  0  0  0  0  0
  194.7380  172.7270  136.5670 C   0  0  0  0  0  2  0  0  0  0  0  0
  195.4490  176.6730  135.0220 C   0  0  0  0  0  0  0  0  0  0  0  0
  196.2080  174.4010  135.4180 C   0  0  0  0  0  3  0  0  0  0  0  0
  193.9870  175.0700  136.1190 C   0  0  0  0  0  3  0  0  0  0  0  0
  194.9790  174.0900  136.0110 C   0  0  0  0  0  0  0  0  0  0  0  0
  196.4410  175.6900  134.9240 C   0  0  0  0  0  3  0  0  0  0  0  0
  194.2200  176.3570  135.6250 C   0  0  0  0  0  3  0  0  0  0  0  0
  194.7460  178.9940  134.5450 C   0  0  0  0  0  1  0  0  0  0  0  0
  195.7080  177.9480  134.5130 O   0  0  0  0  0  0  0  0  0  0  0  0
  197.1930  173.4540  138.1120 C   0  0  0  0  0  2  0  0  0  0  0  0
  197.8940  174.8210  140.0140 N   0  0  0  0  0  1  0  0  0  0  0  0
  197.7740  175.8420  137.8270 C   0  0  0  0  0  1  0  0  0  0  0  0
  197.1500  174.8310  138.7650 C   0  0  1  0  0  3  0  0  0  0  0  0
  1 43  1  0  0  0  0
  1 31  1  1  0  0  0
  2 37  1  0  0  0  0
  3 36  1  0  0  0  0
  4 28  1  6  0  0  0
  4 15  1  0  0  0  0
  4 42  1  0  0  0  0
  5 18  2  0  0  0  0
  5 36  1  0  0  0  0
  6 10  1  0  0  0  0
  7  5  1  0  0  0  0
  8  7  1  0  0  0  0
  8 23  2  0  0  0  0
  9 19  1  0  0  0  0
 11 33  1  0  0  0  0
 11 27  1  1  0  0  0
 12 39  1  0  0  0  0
 14 10  1  6  0  0  0
 14 33  1  0  0  0  0
 14 13  1  0  0  0  0
 15  9  1  6  0  0  0
 15 42  1  0  0  0  0
 16 30  2  0  0  0  0
 16 21  1  0  0  0  0
 17  3  1  0  0  0  0
 17 22  1  0  0  0  0
 18 37  1  0  0  0  0
 19 38  2  6  0  0  0
 19 25  1  0  0  0  0
 19 20  1  0  0  0  0
 21 46  1  0  0  0  0
 22 58  1  1  0  0  0
 22 16  1  0  0  0  0
 23 24  1  0  0  0  0
 23 18  1  0  0  0  0
 24  2  2  0  0  0  0
 26  6  1  0  0  0  0
 29 40  1  0  0  0  0
 30 45  1  0  0  0  0
 31 29  1  0  0  0  0
 33 13  1  1  0  0  0
 34 44  1  0  0  0  0
 34 12  2  0  0  0  0
 35 32  1  1  0  0  0
 35 14  1  0  0  0  0
 35 33  1  0  0  0  0
 37 28  1  0  0  0  0
 39 40  2  0  0  0  0
 39 47  1  0  0  0  0
 41 25  1  6  0  0  0
 41 35  1  0  0  0  0
 42  1  1  0  0  0  0
 42 44  1  1  0  0  0
 43 26  1  6  0  0  0
 43 11  1  0  0  0  0
 44 29  2  0  0  0  0
 46 45  1  6  0  0  0
 46 41  1  0  0  0  0
 47 48  3  0  0  0  0
 49 17  1  0  0  0  0
 50 55  1  0  0  0  0
 51 53  2  0  0  0  0
 53 52  1  0  0  0  0
 53 49  1  0  0  0  0
 54 50  2  0  0  0  0
 54 51  1  0  0  0  0
 55 52  2  0  0  0  0
 57 56  1  0  0  0  0
 57 50  1  0  0  0  0
 58 61  1  0  0  0  0
 61 60  1  6  0  0  0
 61 59  1  0  0  0  0
M  END
>  <MODEL>
6

>  <REMARK>
 VINA RESULT:      -4.1      2.773      4.325
  Name = 
  6 active torsions:
  status: ('A' for Active; 'I' for Inactive)
    1  A    between atoms: C_6  and  C_53
    2  A    between atoms: C_9  and  O_17
    3  A    between atoms: N_24  and  C_42
    4  A    between atoms: C_31  and  C_50
    5  A    between atoms: C_33  and  C_42
    6  A    between atoms: C_50  and  C_59
                            x       y       z     vdW  Elec       q    Type
                         _______ _______ _______ _____ _____    ______ ____

>  <TORSDO>
F 6

$$$$
=
 OpenBabel11062420183D

 61 72  0  0  1  0  0  0  0  0999 V2000
  191.5200  177.3160  145.9150 C   0  0  1  0  0  3  0  0  0  0  0  0
  196.0590  175.5000  144.9080 C   0  0  0  0  0  3  0  0  0  0  0  0
  192.4980  172.0160  141.9770 C   0  0  0  0  0  2  0  0  0  0  0  0
  192.9970  175.1850  146.0630 C   0  0  1  0  0  3  0  0  0  0  0  0
  194.5040  173.1040  143.0410 C   0  0  0  0  0  0  0  0  0  0  0  0
  190.3640  177.8600  142.6930 C   0  0  0  0  0  2  0  0  0  0  0  0
  195.5880  172.1650  142.5470 C   0  0  0  0  0  2  0  0  0  0  0  0
  196.8260  172.7510  143.1120 N   0  0  0  0  0  0  0  0  0  0  0  0
  191.1040  174.5320  144.6380 O   0  0  0  0  0  0  0  0  0  0  0  0
  188.9480  178.4300  142.8160 C   0  0  0  0  0  2  0  0  0  0  0  0
  189.0470  176.7940  145.4220 C   0  0  1  0  0  3  0  0  0  0  0  0
  191.7300  175.6550  150.3560 C   0  0  0  0  0  3  0  0  0  0  0  0
  187.1890  178.0570  144.4020 O   0  0  0  0  0  0  0  0  0  0  0  0
  187.7490  177.5430  143.2180 C   0  0  2  0  0  0  0  0  0  0  0  0
  191.6240  174.5000  145.9370 C   0  0  2  0  0  3  0  0  0  0  0  0
  190.2350  173.3570  140.3490 C   0  0  0  0  0  0  0  0  0  0  0  0
  192.5370  172.4800  140.5940 N   0  0  0  0  0  0  0  0  0  0  0  0
  195.1350  174.0060  143.7400 C   0  0  0  0  0  0  0  0  0  0  0  0
  189.7420  173.5090  144.6550 P   0  0  1  0  0  0  0  0  0  0  0  0
  188.9280  173.7250  145.9120 O   0  0  0  0  0  1  0  0  0  0  0  0
  190.5250  174.3770  141.2290 O   0  0  0  0  0  0  0  0  0  0  0  0
  191.2320  172.3170  139.9270 C   0  0  1  0  0  3  0  0  0  0  0  0
  196.4180  173.7870  143.7570 C   0  0  0  0  0  0  0  0  0  0  0  0
  197.0870  174.6940  144.4850 N   0  0  0  0  0  0  0  0  0  0  0  0
  188.7410  173.7950  143.3110 O   0  0  0  0  0  0  0  0  0  0  0  0
  190.7280  176.9620  143.7060 O   0  0  0  0  0  0  0  0  0  0  0  0
  188.6980  177.2510  146.6960 O   0  0  0  0  0  1  0  0  0  0  0  0
  193.5380  175.6790  144.7180 C   0  0  0  0  0  2  0  0  0  0  0  0
  191.4760  177.4270  148.2340 C   0  0  0  0  0  0  0  0  0  0  0  0
  189.0290  173.3880  139.9010 N   0  0  0  0  0  0  0  0  0  0  0  0
  191.3600  178.1590  147.0590 O   0  0  0  0  0  0  0  0  0  0  0  0
  186.3780  175.4190  142.9280 C   0  0  0  0  0  1  0  0  0  0  0  0
  187.7690  176.7840  144.5320 C   0  0  1  0  0  0  0  0  0  0  0  0
  191.8200  175.1730  149.0390 C   0  0  0  0  0  3  0  0  0  0  0  0
  187.7480  176.0100  143.2130 C   0  0  2  0  0  0  0  0  0  0  0  0
  193.0940  173.0160  142.8460 N   0  0  0  0  0  2  0  0  0  0  0  0
  194.8390  175.0910  144.4530 N   0  0  0  0  0  0  0  0  0  0  0  0
  190.2640  171.9000  144.6070 O   0  0  0  0  0  0  0  0  0  0  0  0
  191.5160  177.0260  150.6020 C   0  0  0  0  0  0  0  0  0  0  0  0
  191.3830  177.9270  149.5310 C   0  0  0  0  0  3  0  0  0  0  0  0
  188.9650  175.1200  142.9050 C   0  0  2  0  0  3  0  0  0  0  0  0
  191.7290  175.9030  146.5310 C   0  0  2  0  0  0  0  0  0  0  0  0
  190.3430  177.4800  144.9430 C   0  0  2  0  0  3  0  0  0  0  0  0
  191.6910  176.0930  147.9970 C   0  0  0  0  0  0  0  0  0  0  0  0
  188.3260  174.5070  140.5130 C   0  0  0  0  0  2  0  0  0  0  0  0
  189.3660  175.1660  141.4280 C   0  0  2  0  0  3  0  0  0  0  0  0
  191.4250  177.5020  151.9510 C   0  0  0  0  0  0  0  0  0  0  0  0
  191.3530  177.8850  153.0410 N   0  0  0  0  0  0  0  0  0  0  0  0
  193.5500  171.7060  139.8830 C   0  0  0  0  0  2  0  0  0  0  0  0
  196.2170  174.3560  137.8030 C   0  0  0  0  0  0  0  0  0  0  0  0
  194.4790  173.9950  139.4600 C   0  0  0  0  0  3  0  0  0  0  0  0
  195.3560  172.1180  138.2030 C   0  0  0  0  0  3  0  0  0  0  0  0
  194.4900  172.6240  139.1780 C   0  0  0  0  0  0  0  0  0  0  0  0
  195.3420  174.8580  138.7740 C   0  0  0  0  0  3  0  0  0  0  0  0
  196.2190  172.9800  137.5200 C   0  0  0  0  0  3  0  0  0  0  0  0
  197.0130  175.4540  135.7370 C   0  0  0  0  0  1  0  0  0  0  0  0
  197.0720  175.2410  137.1420 O   0  0  0  0  0  0  0  0  0  0  0  0
  190.6780  170.8720  139.8660 C   0  0  0  0  0  2  0  0  0  0  0  0
  190.9160  171.1140  137.4450 N   0  0  0  0  0  1  0  0  0  0  0  0
  190.4090  168.9330  138.3520 C   0  0  0  0  0  1  0  0  0  0  0  0
  190.1860  170.4240  138.4940 C   0  0  1  0  0  3  0  0  0  0  0  0
  1 42  1  0  0  0  0
  1 31  1  1  0  0  0
  3 36  1  0  0  0  0
  4 28  1  6  0  0  0
  4 42  1  0  0  0  0
  5 18  2  0  0  0  0
  6 10  1  0  0  0  0
  6 26  1  0  0  0  0
  7  5  1  0  0  0  0
  7  8  1  0  0  0  0
  8 23  2  0  0  0  0
  9 19  1  0  0  0  0
 11 27  1  1  0  0  0
 12 39  1  0  0  0  0
 14 10  1  6  0  0  0
 14 13  1  0  0  0  0
 14 33  1  0  0  0  0
 15  9  1  6  0  0  0
 15  4  1  0  0  0  0
 15 42  1  0  0  0  0
 16 21  1  0  0  0  0
 17  3  1  0  0  0  0
 18 23  1  0  0  0  0
 18 37  1  0  0  0  0
 19 38  2  6  0  0  0
 19 20  1  0  0  0  0
 21 46  1  0  0  0  0
 22 58  1  1  0  0  0
 22 16  1  0  0  0  0
 22 17  1  0  0  0  0
 23 24  1  0  0  0  0
 24  2  2  0  0  0  0
 25 19  1  0  0  0  0
 29 40  1  0  0  0  0
 30 16  2  0  0  0  0
 30 45  1  0  0  0  0
 31 29  1  0  0  0  0
 33 13  1  1  0  0  0
 33 11  1  0  0  0  0
 34 12  2  0  0  0  0
 35 32  1  6  0  0  0
 35 14  1  0  0  0  0
 35 33  1  0  0  0  0
 36  5  1  0  0  0  0
 37 28  1  0  0  0  0
 37  2  1  0  0  0  0
 39 47  1  0  0  0  0
 40 39  2  0  0  0  0
 41 35  1  0  0  0  0
 41 25  1  6  0  0  0
 42 44  1  1  0  0  0
 43 26  1  6  0  0  0
 43 11  1  0  0  0  0
 43  1  1  0  0  0  0
 44 29  2  0  0  0  0
 44 34  1  0  0  0  0
 46 45  1  6  0  0  0
 46 41  1  0  0  0  0
 47 48  3  0  0  0  0
 49 17  1  0  0  0  0
 50 54  1  0  0  0  0
 52 53  2  0  0  0  0
 53 51  1  0  0  0  0
 53 49  1  0  0  0  0
 54 51  2  0  0  0  0
 55 50  2  0  0  0  0
 55 52  1  0  0  0  0
 56 57  1  0  0  0  0
 57 50  1  0  0  0  0
 59 61  1  0  0  0  0
 61 60  1  6  0  0  0
 61 58  1  0  0  0  0
M  END
>  <MODEL>
7

>  <REMARK>
 VINA RESULT:      -3.9      2.521      6.534
  Name = 
  6 active torsions:
  status: ('A' for Active; 'I' for Inactive)
    1  A    between atoms: C_6  and  C_53
    2  A    between atoms: C_9  and  O_17
    3  A    between atoms: N_24  and  C_42
    4  A    between atoms: C_31  and  C_50
    5  A    between atoms: C_33  and  C_42
    6  A    between atoms: C_50  and  C_59
                            x       y       z     vdW  Elec       q    Type
                         _______ _______ _______ _____ _____    ______ ____

>  <TORSDO>
F 6

$$$$
=
 OpenBabel11062420183D

 61 72  0  0  1  0  0  0  0  0999 V2000
  188.5130  175.3810  144.7820 C   0  0  1  0  0  3  0  0  0  0  0  0
  187.9830  172.7080  140.6010 C   0  0  0  0  0  3  0  0  0  0  0  0
  193.5170  174.3720  140.4800 C   0  0  0  0  0  2  0  0  0  0  0  0
  188.7400  175.4800  142.1970 C   0  0  1  0  0  3  0  0  0  0  0  0
  191.2550  173.4080  139.9350 C   0  0  0  0  0  0  0  0  0  0  0  0
  191.1620  173.6890  146.2430 C   0  0  0  0  0  2  0  0  0  0  0  0
  191.5600  172.8120  138.5740 C   0  0  0  0  0  2  0  0  0  0  0  0
  190.2740  172.1910  138.1810 N   0  0  0  0  0  0  0  0  0  0  0  0
  191.0020  175.9490  143.0380 O   0  0  0  0  0  0  0  0  0  0  0  0
  191.4650  174.3930  147.5680 C   0  0  0  0  0  2  0  0  0  0  0  0
  190.3010  176.7750  146.0030 C   0  0  1  0  0  3  0  0  0  0  0  0
  185.9620  178.9390  142.9500 C   0  0  0  0  0  3  0  0  0  0  0  0
  191.3170  176.6870  148.2500 O   0  0  0  0  0  0  0  0  0  0  0  0
  192.1710  175.7670  147.6130 C   0  0  2  0  0  0  0  0  0  0  0  0
  189.8160  176.5190  142.5580 C   0  0  2  0  0  3  0  0  0  0  0  0
  195.1330  174.0890  143.1030 C   0  0  0  0  0  0  0  0  0  0  0  0
  194.2880  173.2230  140.9440 N   0  0  0  0  0  0  0  0  0  0  0  0
  190.0050  173.1150  140.1570 C   0  0  0  0  0  0  0  0  0  0  0  0
  192.1320  177.2210  143.1190 P   0  0  1  0  0  0  0  0  0  0  0  0
  191.4900  178.4700  143.6820 O   0  0  0  0  0  1  0  0  0  0  0  0
  193.8530  174.0750  143.6150 O   0  0  0  0  0  0  0  0  0  0  0  0
  195.4750  173.6380  141.7130 C   0  0  1  0  0  3  0  0  0  0  0  0
  189.4900  172.4370  139.1720 C   0  0  0  0  0  0  0  0  0  0  0  0
  188.1980  172.1380  139.3700 N   0  0  0  0  0  0  0  0  0  0  0  0
  193.4540  176.8050  144.1040 O   0  0  0  0  0  0  0  0  0  0  0  0
  190.6820  174.5260  145.2270 O   0  0  0  0  0  0  0  0  0  0  0  0
  189.3100  177.6510  146.4520 O   0  0  0  0  0  1  0  0  0  0  0  0
  189.2300  174.0380  142.3600 C   0  0  0  0  0  2  0  0  0  0  0  0
  186.7780  176.9200  144.6720 C   0  0  0  0  0  0  0  0  0  0  0  0
  196.0180  174.5090  143.9370 N   0  0  0  0  0  0  0  0  0  0  0  0
  187.3390  175.8920  145.4190 O   0  0  0  0  0  0  0  0  0  0  0  0
  194.0670  177.3020  146.8880 C   0  0  0  0  0  1  0  0  0  0  0  0
  191.5660  176.9580  146.8940 C   0  0  1  0  0  0  0  0  0  0  0  0
  187.1200  178.2020  142.6510 C   0  0  0  0  0  3  0  0  0  0  0  0
  192.9200  176.4100  146.4410 C   0  0  2  0  0  0  0  0  0  0  0  0
  192.1100  174.1720  140.7830 N   0  0  0  0  0  2  0  0  0  0  0  0
  189.0950  173.3160  141.1070 N   0  0  0  0  0  0  0  0  0  0  0  0
  192.7010  177.5490  141.5610 O   0  0  0  0  0  0  0  0  0  0  0  0
  185.2160  178.6570  144.1130 C   0  0  0  0  0  0  0  0  0  0  0  0
  185.6270  177.6380  144.9890 C   0  0  0  0  0  3  0  0  0  0  0  0
  193.0010  175.8370  145.0150 C   0  0  2  0  0  3  0  0  0  0  0  0
  188.6490  176.2630  143.5080 C   0  0  2  0  0  0  0  0  0  0  0  0
  189.7050  175.3740  145.7490 C   0  0  2  0  0  3  0  0  0  0  0  0
  187.4990  177.1920  143.5370 C   0  0  0  0  0  0  0  0  0  0  0  0
  195.3590  174.8770  145.1820 C   0  0  0  0  0  2  0  0  0  0  0  0
  193.8730  174.5810  144.9370 C   0  0  2  0  0  3  0  0  0  0  0  0
  184.0370  179.4180  144.4050 C   0  0  0  0  0  0  0  0  0  0  0  0
  183.0850  180.0330  144.6390 N   0  0  0  0  0  0  0  0  0  0  0  0
  194.7060  172.4550  139.7750 C   0  0  0  0  0  2  0  0  0  0  0  0
  194.7660  174.9840  136.3010 C   0  0  0  0  0  0  0  0  0  0  0  0
  194.9300  172.7770  137.2990 C   0  0  0  0  0  3  0  0  0  0  0  0
  194.5210  174.7080  138.7050 C   0  0  0  0  0  3  0  0  0  0  0  0
  194.7050  173.3280  138.5650 C   0  0  0  0  0  0  0  0  0  0  0  0
  194.9590  173.6040  136.1700 C   0  0  0  0  0  3  0  0  0  0  0  0
  194.5480  175.5330  137.5760 C   0  0  0  0  0  3  0  0  0  0  0  0
  195.6290  176.9260  135.0400 C   0  0  0  0  0  1  0  0  0  0  0  0
  194.7930  175.7820  135.1550 O   0  0  0  0  0  0  0  0  0  0  0  0
  196.4860  174.5420  140.9650 C   0  0  0  0  0  2  0  0  0  0  0  0
  197.9140  172.5810  141.2670 N   0  0  0  0  0  1  0  0  0  0  0  0
  197.9400  173.7240  139.1390 C   0  0  0  0  0  1  0  0  0  0  0  0
  197.8240  173.8890  140.6390 C   0  0  1  0  0  3  0  0  0  0  0  0
  1 31  1  1  0  0  0
  1 43  1  0  0  0  0
  2 37  1  0  0  0  0
  3 36  1  0  0  0  0
  3 17  1  0  0  0  0
  4 28  1  1  0  0  0
  4 15  1  0  0  0  0
  4 42  1  0  0  0  0
  5 18  2  0  0  0  0
  5 36  1  0  0  0  0
  6 10  1  0  0  0  0
  7  5  1  0  0  0  0
  8  7  1  0  0  0  0
  8 23  2  0  0  0  0
  9 19  1  0  0  0  0
 11 27  1  1  0  0  0
 11 33  1  0  0  0  0
 12 39  1  0  0  0  0
 14 10  1  6  0  0  0
 14 13  1  0  0  0  0
 15  9  1  1  0  0  0
 15 42  1  0  0  0  0
 16 21  1  0  0  0  0
 16 30  2  0  0  0  0
 17 22  1  0  0  0  0
 18 37  1  0  0  0  0
 19 38  2  6  0  0  0
 19 20  1  0  0  0  0
 19 25  1  0  0  0  0
 21 46  1  0  0  0  0
 22 58  1  6  0  0  0
 22 16  1  0  0  0  0
 23 24  1  0  0  0  0
 23 18  1  0  0  0  0
 24  2  2  0  0  0  0
 26  6  1  0  0  0  0
 29 40  1  0  0  0  0
 29 31  1  0  0  0  0
 30 45  1  0  0  0  0
 33 14  1  0  0  0  0
 33 13  1  1  0  0  0
 34 12  2  0  0  0  0
 34 44  1  0  0  0  0
 35 32  1  1  0  0  0
 35 33  1  0  0  0  0
 35 14  1  0  0  0  0
 37 28  1  0  0  0  0
 39 47  1  0  0  0  0
 39 40  2  0  0  0  0
 41 25  1  6  0  0  0
 41 35  1  0  0  0  0
 42 44  1  6  0  0  0
 42  1  1  0  0  0  0
 43 26  1  6  0  0  0
 43 11  1  0  0  0  0
 44 29  2  0  0  0  0
 46 41  1  0  0  0  0
 46 45  1  6  0  0  0
 47 48  3  0  0  0  0
 49 17  1  0  0  0  0
 50 55  1  0  0  0  0
 51 53  2  0  0  0  0
 53 52  1  0  0  0  0
 53 49  1  0  0  0  0
 54 50  2  0  0  0  0
 54 51  1  0  0  0  0
 55 52  2  0  0  0  0
 56 57  1  0  0  0  0
 57 50  1  0  0  0  0
 61 60  1  6  0  0  0
 61 58  1  0  0  0  0
 61 59  1  0  0  0  0
M  END
>  <MODEL>
8

>  <REMARK>
 VINA RESULT:      -3.0      1.495      2.305
  Name = 
  6 active torsions:
  status: ('A' for Active; 'I' for Inactive)
    1  A    between atoms: C_6  and  C_53
    2  A    between atoms: C_9  and  O_17
    3  A    between atoms: N_24  and  C_42
    4  A    between atoms: C_31  and  C_50
    5  A    between atoms: C_33  and  C_42
    6  A    between atoms: C_50  and  C_59
                            x       y       z     vdW  Elec       q    Type
                         _______ _______ _______ _____ _____    ______ ____

>  <TORSDO>
F 6

$$$$
