=
 OpenBabel11062421573D

 35 39  0  0  1  0  0  0  0  0999 V2000
  192.4750  177.5090  144.3480 O   0  0  0  0  0  0  0  0  0  0  0  0
  190.2400  174.8730  145.4100 N   0  0  0  0  0  0  0  0  0  0  0  0
  189.1980  175.7160  145.3020 C   0  0  0  0  0  0  0  0  0  0  0  0
  186.6010  176.1890  147.8250 O   0  0  0  0  0  0  0  0  0  0  0  0
  189.1210  176.7670  144.2280 C   0  0  1  0  0  3  0  0  0  0  0  0
  193.1830  176.3120  144.1190 C   0  0  2  0  0  3  0  0  0  0  0  0
  187.7410  177.2860  143.8790 C   0  0  0  0  0  0  0  0  0  0  0  0
  190.1710  177.8230  144.4940 C   0  0  2  0  0  3  0  0  0  0  0  0
  187.2410  177.8940  146.2590 C   0  0  1  0  0  3  0  0  0  0  0  0
  192.6310  175.1260  144.9540 C   0  0  1  0  0  3  0  0  0  0  0  0
  191.3040  174.8250  144.5340 O   0  0  0  0  0  0  0  0  0  0  0  0
  189.0290  174.6610  147.2710 C   0  0  0  0  0  3  0  0  0  0  0  0
  186.9130  177.7910  144.8070 C   0  0  0  0  0  3  0  0  0  0  0  0
  190.5930  178.7170  143.3440 C   0  0  0  0  0  2  0  0  0  0  0  0
  186.2220  178.6870  146.9290 N   0  0  0  0  0  1  0  0  0  0  0  0
  190.1570  174.2250  146.5850 C   0  0  0  0  0  3  0  0  0  0  0  0
  191.3120  177.4090  143.5860 C   0  0  1  0  0  3  0  0  0  0  0  0
  187.3700  176.5340  146.8860 C   0  0  0  0  0  0  0  0  0  0  0  0
  188.4500  175.6320  146.4630 C   0  0  0  0  0  0  0  0  0  0  0  0
  187.3070  177.2360  142.4610 C   0  0  0  0  0  0  0  0  0  0  0  0
  186.5010  177.1220  139.7630 C   0  0  0  0  0  0  0  0  0  0  0  0
  185.9450  178.0740  140.6230 C   0  0  0  0  0  3  0  0  0  0  0  0
  187.8590  176.2840  141.5900 C   0  0  0  0  0  3  0  0  0  0  0  0
  186.3460  178.1320  141.9620 C   0  0  0  0  0  3  0  0  0  0  0  0
  187.4640  176.2310  140.2510 C   0  0  0  0  0  3  0  0  0  0  0  0
  186.0870  177.0740  138.4320 O   0  0  0  0  0  0  0  0  0  0  0  0
  186.6390  176.2130  137.5660 O   0  0  0  0  0  0  0  0  0  0  0  0
  185.6870  175.9650  136.6900 O   0  0  0  0  0  1  0  0  0  0  0  0
  193.6440  173.6220  144.7430 P   0  0  1  0  0  0  0  0  0  0  0  0
  194.4360  173.6480  143.1090 C   0  0  0  0  0  1  0  0  0  0  0  0
  194.7110  173.5570  145.8130 O   0  0  0  0  0  0  0  0  0  0  0  0
  192.6220  172.2020  144.8570 N   0  0  0  0  0  2  0  0  0  0  0  0
  192.3940  171.7740  143.5920 O   0  0  0  0  0  1  0  0  0  0  0  0
  194.6280  177.1880  145.6120 O   0  0  0  0  0  1  0  0  0  0  0  0
  194.5860  176.5460  144.4210 N   0  0  0  0  0  2  0  0  0  0  0  0
  2 16  1  0  0  0  0
  3  2  1  0  0  0  0
  3 19  2  0  0  0  0
  5  7  1  1  0  0  0
  5  8  1  0  0  0  0
  5  3  1  0  0  0  0
  6  1  1  0  0  0  0
  6 35  1  1  0  0  0
  6 10  1  0  0  0  0
  7 13  2  0  0  0  0
  8 14  1  6  0  0  0
  9 18  1  0  0  0  0
  9 15  1  1  0  0  0
 10 29  1  6  0  0  0
 11 10  1  0  0  0  0
 11  2  1  0  0  0  0
 13  9  1  0  0  0  0
 16 12  2  0  0  0  0
 17 14  1  6  0  0  0
 17  1  1  0  0  0  0
 17  8  1  0  0  0  0
 18  4  2  0  0  0  0
 19 18  1  0  0  0  0
 19 12  1  0  0  0  0
 20  7  1  0  0  0  0
 21 25  2  0  0  0  0
 21 22  1  0  0  0  0
 22 24  2  0  0  0  0
 23 20  2  0  0  0  0
 24 20  1  0  0  0  0
 25 23  1  0  0  0  0
 26 21  1  0  0  0  0
 27 26  1  0  0  0  0
 28 27  1  0  0  0  0
 29 30  1  6  0  0  0
 29 32  1  0  0  0  0
 29 31  2  0  0  0  0
 33 32  1  0  0  0  0
 35 34  1  0  0  0  0
M  END
>  <MODEL>
1

>  <REMARK>
 VINA RESULT:      -7.3      0.000      0.000
  Name = 
  6 active torsions:
  status: ('A' for Active; 'I' for Inactive)
    1  A    between atoms: N_1  and  P_5
    2  A    between atoms: P_5  and  C_21
    3  A    between atoms: O_7  and  O_25
    4  A    between atoms: C_11  and  N_18
    5  A    between atoms: C_12  and  C_13
    6  A    between atoms: C_15  and  O_25
                            x       y       z     vdW  Elec       q    Type
                         _______ _______ _______ _____ _____    ______ ____

>  <TORSDO>
F 6

$$$$
=
 OpenBabel11062421573D

 35 39  0  0  1  0  0  0  0  0999 V2000
  192.1910  172.1700  144.7650 O   0  0  0  0  0  0  0  0  0  0  0  0
  192.8350  174.3300  141.9380 N   0  0  0  0  0  0  0  0  0  0  0  0
  191.5390  174.2520  141.5870 C   0  0  0  0  0  0  0  0  0  0  0  0
  190.3090  173.5610  138.2180 O   0  0  0  0  0  0  0  0  0  0  0  0
  190.4320  174.1820  142.6020 C   0  0  1  0  0  3  0  0  0  0  0  0
  193.3970  172.8310  145.0740 C   0  0  2  0  0  3  0  0  0  0  0  0
  189.0550  174.6120  142.1420 C   0  0  0  0  0  0  0  0  0  0  0  0
  190.4990  172.8480  143.3140 C   0  0  2  0  0  3  0  0  0  0  0  0
  189.0760  173.0190  140.2070 C   0  0  1  0  0  3  0  0  0  0  0  0
  194.1010  173.4020  143.8150 C   0  0  1  0  0  3  0  0  0  0  0  0
  193.2910  174.4190  143.2360 O   0  0  0  0  0  0  0  0  0  0  0  0
  192.7740  173.9090  139.7480 C   0  0  0  0  0  3  0  0  0  0  0  0
  188.4620  174.0740  141.0640 C   0  0  0  0  0  3  0  0  0  0  0  0
  189.8040  172.7180  144.6560 C   0  0  0  0  0  2  0  0  0  0  0  0
  188.0800  172.5130  139.2760 N   0  0  0  0  0  1  0  0  0  0  0  0
  193.5960  174.1310  140.8470 C   0  0  0  0  0  3  0  0  0  0  0  0
  191.2430  173.1780  144.5930 C   0  0  1  0  0  3  0  0  0  0  0  0
  190.2830  173.5420  139.4800 C   0  0  0  0  0  0  0  0  0  0  0  0
  191.4730  173.9530  140.2370 C   0  0  0  0  0  0  0  0  0  0  0  0
  188.3450  175.6570  142.9210 C   0  0  0  0  0  0  0  0  0  0  0  0
  187.0220  177.6470  144.4150 C   0  0  0  0  0  0  0  0  0  0  0  0
  186.2990  176.8180  143.5520 C   0  0  0  0  0  3  0  0  0  0  0  0
  189.0620  176.4940  143.7900 C   0  0  0  0  0  3  0  0  0  0  0  0
  186.9540  175.8290  142.8110 C   0  0  0  0  0  3  0  0  0  0  0  0
  188.4060  177.4770  144.5350 C   0  0  0  0  0  3  0  0  0  0  0  0
  186.3530  178.6310  145.1420 O   0  0  0  0  0  0  0  0  0  0  0  0
  185.1840  179.1310  144.7180 O   0  0  0  0  0  0  0  0  0  0  0  0
  185.5050  180.2450  144.0910 O   0  0  0  0  0  1  0  0  0  0  0  0
  195.7220  174.1360  144.2230 P   0  0  1  0  0  0  0  0  0  0  0  0
  197.0200  172.8780  144.0510 C   0  0  0  0  0  1  0  0  0  0  0  0
  196.0200  175.2910  143.2920 O   0  0  0  0  0  0  0  0  0  0  0  0
  195.7080  174.7160  145.8780 N   0  0  0  0  0  2  0  0  0  0  0  0
  195.0250  175.8860  145.8830 O   0  0  0  0  0  1  0  0  0  0  0  0
  194.0700  170.6830  145.2030 O   0  0  0  0  0  1  0  0  0  0  0  0
  194.2650  171.8970  145.7720 N   0  0  0  0  0  2  0  0  0  0  0  0
  1  6  1  0  0  0  0
  2 11  1  0  0  0  0
  3  2  1  0  0  0  0
  4 18  2  0  0  0  0
  5  3  1  6  0  0  0
  5  8  1  0  0  0  0
  6 35  1  6  0  0  0
  7  5  1  0  0  0  0
  7 20  1  0  0  0  0
  8 17  1  0  0  0  0
  8 14  1  1  0  0  0
  9 15  1  6  0  0  0
  9 13  1  0  0  0  0
 10 29  1  1  0  0  0
 10  6  1  0  0  0  0
 11 10  1  0  0  0  0
 12 19  1  0  0  0  0
 12 16  2  0  0  0  0
 13  7  2  0  0  0  0
 16  2  1  0  0  0  0
 17 14  1  1  0  0  0
 17  1  1  0  0  0  0
 18  9  1  0  0  0  0
 18 19  1  0  0  0  0
 19  3  2  0  0  0  0
 20 23  1  0  0  0  0
 21 25  1  0  0  0  0
 21 26  1  0  0  0  0
 22 21  2  0  0  0  0
 23 25  2  0  0  0  0
 24 20  2  0  0  0  0
 24 22  1  0  0  0  0
 27 26  1  0  0  0  0
 28 27  1  0  0  0  0
 29 30  1  6  0  0  0
 29 32  1  0  0  0  0
 31 29  2  0  0  0  0
 32 33  1  0  0  0  0
 34 35  1  0  0  0  0
M  END
>  <MODEL>
2

>  <REMARK>
 VINA RESULT:      -6.8      3.167      5.696
  Name = 
  6 active torsions:
  status: ('A' for Active; 'I' for Inactive)
    1  A    between atoms: N_1  and  P_5
    2  A    between atoms: P_5  and  C_21
    3  A    between atoms: O_7  and  O_25
    4  A    between atoms: C_11  and  N_18
    5  A    between atoms: C_12  and  C_13
    6  A    between atoms: C_15  and  O_25
                            x       y       z     vdW  Elec       q    Type
                         _______ _______ _______ _____ _____    ______ ____

>  <TORSDO>
F 6

$$$$
=
 OpenBabel11062421573D

 35 39  0  0  1  0  0  0  0  0999 V2000
  192.2260  173.1390  144.9740 O   0  0  0  0  0  0  0  0  0  0  0  0
  192.5810  174.8680  141.8180 N   0  0  0  0  0  0  0  0  0  0  0  0
  191.2860  174.6280  141.5440 C   0  0  0  0  0  0  0  0  0  0  0  0
  190.0130  173.3090  138.3850 O   0  0  0  0  0  0  0  0  0  0  0  0
  190.2230  174.6270  142.6090 C   0  0  1  0  0  3  0  0  0  0  0  0
  193.3760  173.9400  145.1200 C   0  0  2  0  0  3  0  0  0  0  0  0
  188.7980  174.8630  142.1510 C   0  0  0  0  0  0  0  0  0  0  0  0
  190.4330  173.4340  143.5150 C   0  0  2  0  0  3  0  0  0  0  0  0
  188.8990  172.9890  140.4890 C   0  0  1  0  0  3  0  0  0  0  0  0
  193.9850  174.3590  143.7560 C   0  0  1  0  0  3  0  0  0  0  0  0
  193.0680  175.2010  143.0640 O   0  0  0  0  0  0  0  0  0  0  0  0
  192.4850  174.1010  139.7260 C   0  0  0  0  0  3  0  0  0  0  0  0
  188.2210  174.1120  141.1990 C   0  0  0  0  0  3  0  0  0  0  0  0
  189.7970  173.4620  144.8920 C   0  0  0  0  0  2  0  0  0  0  0  0
  187.9230  172.2600  139.6950 N   0  0  0  0  0  1  0  0  0  0  0  0
  193.3200  174.5620  140.7380 C   0  0  0  0  0  3  0  0  0  0  0  0
  191.1860  174.0240  144.6910 C   0  0  1  0  0  3  0  0  0  0  0  0
  190.0300  173.4880  139.6340 C   0  0  0  0  0  0  0  0  0  0  0  0
  191.2030  174.1130  140.2620 C   0  0  0  0  0  0  0  0  0  0  0  0
  188.0240  175.9550  142.7910 C   0  0  0  0  0  0  0  0  0  0  0  0
  186.5760  178.0380  144.0190 C   0  0  0  0  0  0  0  0  0  0  0  0
  185.9250  177.1290  143.1800 C   0  0  0  0  0  3  0  0  0  0  0  0
  188.6690  176.8730  143.6340 C   0  0  0  0  0  3  0  0  0  0  0  0
  186.6430  176.0940  142.5710 C   0  0  0  0  0  3  0  0  0  0  0  0
  187.9500  177.9020  144.2490 C   0  0  0  0  0  3  0  0  0  0  0  0
  185.8470  179.0660  144.6140 O   0  0  0  0  0  0  0  0  0  0  0  0
  185.4170  178.9680  145.8800 O   0  0  0  0  0  0  0  0  0  0  0  0
  184.1060  178.8860  145.7820 O   0  0  0  0  0  1  0  0  0  0  0  0
  195.5460  175.2820  143.9690 P   0  0  1  0  0  0  0  0  0  0  0  0
  195.3290  176.5580  145.2430 C   0  0  0  0  0  1  0  0  0  0  0  0
  196.6550  174.3420  144.3890 O   0  0  0  0  0  0  0  0  0  0  0  0
  195.9860  176.0550  142.4570 N   0  0  0  0  0  2  0  0  0  0  0  0
  196.7640  175.1810  141.7760 O   0  0  0  0  0  1  0  0  0  0  0  0
  194.2900  171.9150  145.5030 O   0  0  0  0  0  1  0  0  0  0  0  0
  194.3470  173.2040  145.9130 N   0  0  0  0  0  2  0  0  0  0  0  0
  1  6  1  0  0  0  0
  2 11  1  0  0  0  0
  3  2  1  0  0  0  0
  4 18  2  0  0  0  0
  5  3  1  6  0  0  0
  5  8  1  0  0  0  0
  6 35  1  1  0  0  0
  7  5  1  0  0  0  0
  7 20  1  0  0  0  0
  8 17  1  0  0  0  0
  8 14  1  1  0  0  0
  9 15  1  6  0  0  0
  9 13  1  0  0  0  0
 10 29  1  1  0  0  0
 10  6  1  0  0  0  0
 11 10  1  0  0  0  0
 12 19  1  0  0  0  0
 12 16  2  0  0  0  0
 13  7  2  0  0  0  0
 16  2  1  0  0  0  0
 17 14  1  1  0  0  0
 17  1  1  0  0  0  0
 18 19  1  0  0  0  0
 18  9  1  0  0  0  0
 19  3  2  0  0  0  0
 20 23  1  0  0  0  0
 21 25  1  0  0  0  0
 21 26  1  0  0  0  0
 22 21  2  0  0  0  0
 23 25  2  0  0  0  0
 24 20  2  0  0  0  0
 24 22  1  0  0  0  0
 26 27  1  0  0  0  0
 28 27  1  0  0  0  0
 29 31  2  0  0  0  0
 29 30  1  1  0  0  0
 32 29  1  0  0  0  0
 33 32  1  0  0  0  0
 34 35  1  0  0  0  0
M  END
>  <MODEL>
3

>  <REMARK>
 VINA RESULT:      -6.4      3.093      5.571
  Name = 
  6 active torsions:
  status: ('A' for Active; 'I' for Inactive)
    1  A    between atoms: N_1  and  P_5
    2  A    between atoms: P_5  and  C_21
    3  A    between atoms: O_7  and  O_25
    4  A    between atoms: C_11  and  N_18
    5  A    between atoms: C_12  and  C_13
    6  A    between atoms: C_15  and  O_25
                            x       y       z     vdW  Elec       q    Type
                         _______ _______ _______ _____ _____    ______ ____

>  <TORSDO>
F 6

$$$$
=
 OpenBabel11062421573D

 35 39  0  0  1  0  0  0  0  0999 V2000
  191.6770  173.3490  141.0570 O   0  0  0  0  0  0  0  0  0  0  0  0
  192.9570  172.1890  144.2330 N   0  0  0  0  0  0  0  0  0  0  0  0
  192.9340  173.4500  144.7000 C   0  0  0  0  0  0  0  0  0  0  0  0
  195.6730  175.0890  146.4730 O   0  0  0  0  0  0  0  0  0  0  0  0
  191.8610  174.4320  144.3140 C   0  0  1  0  0  3  0  0  0  0  0  0
  191.3970  171.9680  141.0840 C   0  0  2  0  0  3  0  0  0  0  0  0
  191.6320  175.5970  145.2560 C   0  0  0  0  0  0  0  0  0  0  0  0
  192.0240  174.7920  142.8530 C   0  0  2  0  0  3  0  0  0  0  0  0
  194.0410  176.2850  145.1790 C   0  0  1  0  0  3  0  0  0  0  0  0
  192.2880  171.2010  142.0960 C   0  0  1  0  0  3  0  0  0  0  0  0
  191.9910  171.6370  143.4190 O   0  0  0  0  0  0  0  0  0  0  0  0
  194.9200  172.5560  145.2270 C   0  0  0  0  0  3  0  0  0  0  0  0
  192.6250  176.4190  145.6290 C   0  0  0  0  0  3  0  0  0  0  0  0
  190.8320  175.3870  142.1270 C   0  0  0  0  0  2  0  0  0  0  0  0
  194.7910  177.4610  145.5890 N   0  0  0  0  0  1  0  0  0  0  0  0
  194.1410  171.6310  144.5420 C   0  0  0  0  0  3  0  0  0  0  0  0
  191.0220  173.8870  142.1640 C   0  0  1  0  0  3  0  0  0  0  0  0
  194.6660  175.0280  145.7150 C   0  0  0  0  0  0  0  0  0  0  0  0
  194.1570  173.7170  145.2890 C   0  0  0  0  0  0  0  0  0  0  0  0
  190.2580  175.8300  145.7670 C   0  0  0  0  0  0  0  0  0  0  0  0
  187.6480  176.2940  146.7220 C   0  0  0  0  0  0  0  0  0  0  0  0
  188.4150  175.2540  147.2530 C   0  0  0  0  0  3  0  0  0  0  0  0
  189.4800  176.8710  145.2400 C   0  0  0  0  0  3  0  0  0  0  0  0
  189.7120  175.0230  146.7800 C   0  0  0  0  0  3  0  0  0  0  0  0
  188.1870  177.1060  145.7170 C   0  0  0  0  0  3  0  0  0  0  0  0
  186.3550  176.5070  147.2000 O   0  0  0  0  0  0  0  0  0  0  0  0
  185.3190  176.6390  146.3600 O   0  0  0  0  0  0  0  0  0  0  0  0
  184.7460  177.7710  146.7130 O   0  0  0  0  0  1  0  0  0  0  0  0
  192.0010  169.3990  142.0190 P   0  0  1  0  0  0  0  0  0  0  0  0
  192.5620  168.6290  143.5650 C   0  0  0  0  0  1  0  0  0  0  0  0
  190.5280  169.1140  141.8250 O   0  0  0  0  0  0  0  0  0  0  0  0
  192.9050  168.7150  140.6810 N   0  0  0  0  0  2  0  0  0  0  0  0
  194.1210  169.3100  140.6780 O   0  0  0  0  0  1  0  0  0  0  0  0
  190.3320  171.3100  139.2090 O   0  0  0  0  0  1  0  0  0  0  0  0
  191.5700  171.4390  139.7410 N   0  0  0  0  0  2  0  0  0  0  0  0
  1  6  1  0  0  0  0
  1 17  1  0  0  0  0
  2 16  1  0  0  0  0
  2  3  1  0  0  0  0
  3 19  2  0  0  0  0
  5  3  1  1  0  0  0
  5  7  1  0  0  0  0
  6 35  1  6  0  0  0
  6 10  1  0  0  0  0
  7 13  2  0  0  0  0
  7 20  1  0  0  0  0
  8 14  1  1  0  0  0
  8  5  1  0  0  0  0
  9 15  1  1  0  0  0
  9 13  1  0  0  0  0
  9 18  1  0  0  0  0
 10 29  1  1  0  0  0
 10 11  1  0  0  0  0
 11  2  1  0  0  0  0
 12 19  1  0  0  0  0
 16 12  2  0  0  0  0
 17 14  1  6  0  0  0
 17  8  1  0  0  0  0
 18  4  2  0  0  0  0
 19 18  1  0  0  0  0
 20 24  1  0  0  0  0
 21 26  1  0  0  0  0
 21 22  1  0  0  0  0
 23 25  1  0  0  0  0
 23 20  2  0  0  0  0
 24 22  2  0  0  0  0
 25 21  2  0  0  0  0
 27 28  1  0  0  0  0
 27 26  1  0  0  0  0
 29 30  1  1  0  0  0
 31 29  2  0  0  0  0
 32 29  1  0  0  0  0
 33 32  1  0  0  0  0
 34 35  1  0  0  0  0
M  END
>  <MODEL>
4

>  <REMARK>
 VINA RESULT:      -6.3      3.629      6.346
  Name = 
  6 active torsions:
  status: ('A' for Active; 'I' for Inactive)
    1  A    between atoms: N_1  and  P_5
    2  A    between atoms: P_5  and  C_21
    3  A    between atoms: O_7  and  O_25
    4  A    between atoms: C_11  and  N_18
    5  A    between atoms: C_12  and  C_13
    6  A    between atoms: C_15  and  O_25
                            x       y       z     vdW  Elec       q    Type
                         _______ _______ _______ _____ _____    ______ ____

>  <TORSDO>
F 6

$$$$
=
 OpenBabel11062421573D

 35 39  0  0  1  0  0  0  0  0999 V2000
  187.8750  175.9540  146.5050 O   0  0  0  0  0  0  0  0  0  0  0  0
  189.9330  177.2690  143.8390 N   0  0  0  0  0  0  0  0  0  0  0  0
  190.9440  176.4720  144.2300 C   0  0  0  0  0  0  0  0  0  0  0  0
  194.4020  177.5410  144.7130 O   0  0  0  0  0  0  0  0  0  0  0  0
  190.7150  175.0870  144.7730 C   0  0  1  0  0  3  0  0  0  0  0  0
  186.9690  176.5130  145.5820 C   0  0  2  0  0  3  0  0  0  0  0  0
  191.8780  174.1210  144.6890 C   0  0  0  0  0  0  0  0  0  0  0  0
  190.0430  175.1920  146.1250 C   0  0  2  0  0  3  0  0  0  0  0  0
  193.4200  175.6910  145.8890 C   0  0  1  0  0  3  0  0  0  0  0  0
  187.6400  177.5510  144.6440 C   0  0  1  0  0  3  0  0  0  0  0  0
  188.6050  176.8990  143.8250 O   0  0  0  0  0  0  0  0  0  0  0  0
  191.7710  178.5300  143.9140 C   0  0  0  0  0  3  0  0  0  0  0  0
  193.0860  174.4110  145.2000 C   0  0  0  0  0  3  0  0  0  0  0  0
  189.3120  173.9740  146.6560 C   0  0  0  0  0  2  0  0  0  0  0  0
  194.7310  175.5780  146.5080 N   0  0  0  0  0  1  0  0  0  0  0  0
  190.4090  178.5100  143.6390 C   0  0  0  0  0  3  0  0  0  0  0  0
  188.5790  174.9800  145.7980 C   0  0  1  0  0  3  0  0  0  0  0  0
  193.3690  176.8520  144.9350 C   0  0  0  0  0  0  0  0  0  0  0  0
  192.0910  177.2400  144.3220 C   0  0  0  0  0  0  0  0  0  0  0  0
  191.6600  172.8110  144.0270 C   0  0  0  0  0  0  0  0  0  0  0  0
  191.2230  170.3330  142.7580 C   0  0  0  0  0  0  0  0  0  0  0  0
  192.3180  170.5030  143.6090 C   0  0  0  0  0  3  0  0  0  0  0  0
  190.5630  172.6300  143.1710 C   0  0  0  0  0  3  0  0  0  0  0  0
  192.5360  171.7320  144.2410 C   0  0  0  0  0  3  0  0  0  0  0  0
  190.3420  171.4000  142.5460 C   0  0  0  0  0  3  0  0  0  0  0  0
  191.0230  169.1020  142.1330 O   0  0  0  0  0  0  0  0  0  0  0  0
  190.7930  169.0250  140.8150 O   0  0  0  0  0  0  0  0  0  0  0  0
  191.9910  169.0290  140.2660 O   0  0  0  0  0  1  0  0  0  0  0  0
  186.4230  178.3580  143.5480 P   0  0  1  0  0  0  0  0  0  0  0  0
  185.6670  179.7660  144.4110 C   0  0  0  0  0  1  0  0  0  0  0  0
  187.1020  178.8510  142.2890 O   0  0  0  0  0  0  0  0  0  0  0  0
  185.1660  177.2120  143.1180 N   0  0  0  0  0  2  0  0  0  0  0  0
  184.1010  177.9330  142.6940 O   0  0  0  0  0  1  0  0  0  0  0  0
  186.4310  177.7790  147.3680 O   0  0  0  0  0  1  0  0  0  0  0  0
  185.8760  177.1200  146.3240 N   0  0  0  0  0  2  0  0  0  0  0  0
  2  3  1  0  0  0  0
  3 19  2  0  0  0  0
  4 18  2  0  0  0  0
  5  3  1  1  0  0  0
  5  8  1  0  0  0  0
  6 35  1  1  0  0  0
  6  1  1  0  0  0  0
  7  5  1  0  0  0  0
  7 13  2  0  0  0  0
  8 14  1  1  0  0  0
  9 15  1  6  0  0  0
 10 29  1  6  0  0  0
 10  6  1  0  0  0  0
 11  2  1  0  0  0  0
 11 10  1  0  0  0  0
 12 19  1  0  0  0  0
 13  9  1  0  0  0  0
 16  2  1  0  0  0  0
 16 12  2  0  0  0  0
 17  8  1  0  0  0  0
 17  1  1  0  0  0  0
 17 14  1  1  0  0  0
 18  9  1  0  0  0  0
 19 18  1  0  0  0  0
 20 24  1  0  0  0  0
 20  7  1  0  0  0  0
 21 22  1  0  0  0  0
 22 24  2  0  0  0  0
 23 20  2  0  0  0  0
 25 21  2  0  0  0  0
 25 23  1  0  0  0  0
 26 21  1  0  0  0  0
 27 26  1  0  0  0  0
 28 27  1  0  0  0  0
 29 30  1  1  0  0  0
 31 29  2  0  0  0  0
 32 29  1  0  0  0  0
 33 32  1  0  0  0  0
 35 34  1  0  0  0  0
M  END
>  <MODEL>
5

>  <REMARK>
 VINA RESULT:      -6.3      3.214      7.317
  Name = 
  6 active torsions:
  status: ('A' for Active; 'I' for Inactive)
    1  A    between atoms: N_1  and  P_5
    2  A    between atoms: P_5  and  C_21
    3  A    between atoms: O_7  and  O_25
    4  A    between atoms: C_11  and  N_18
    5  A    between atoms: C_12  and  C_13
    6  A    between atoms: C_15  and  O_25
                            x       y       z     vdW  Elec       q    Type
                         _______ _______ _______ _____ _____    ______ ____

>  <TORSDO>
F 6

$$$$
=
 OpenBabel11062421573D

 35 39  0  0  1  0  0  0  0  0999 V2000
  191.7860  177.1920  143.0340 O   0  0  0  0  0  0  0  0  0  0  0  0
  189.7720  174.5700  144.4960 N   0  0  0  0  0  0  0  0  0  0  0  0
  188.8940  175.4910  144.9320 C   0  0  0  0  0  0  0  0  0  0  0  0
  187.5310  175.6660  148.3150 O   0  0  0  0  0  0  0  0  0  0  0  0
  188.5650  176.7290  144.1410 C   0  0  1  0  0  3  0  0  0  0  0  0
  192.1820  176.0120  142.3730 C   0  0  2  0  0  3  0  0  0  0  0  0
  187.2420  177.4010  144.4450 C   0  0  0  0  0  0  0  0  0  0  0  0
  189.7750  177.6380  144.1210 C   0  0  2  0  0  3  0  0  0  0  0  0
  187.7640  177.5850  146.8890 C   0  0  1  0  0  3  0  0  0  0  0  0
  191.8260  174.7330  143.1750 C   0  0  1  0  0  3  0  0  0  0  0  0
  190.4100  174.6130  143.2750 O   0  0  0  0  0  0  0  0  0  0  0  0
  189.3330  174.0990  146.6320 C   0  0  0  0  0  3  0  0  0  0  0  0
  186.9030  177.7810  145.6880 C   0  0  0  0  0  3  0  0  0  0  0  0
  189.8530  178.7000  143.0410 C   0  0  0  0  0  2  0  0  0  0  0  0
  187.1940  178.3080  148.0150 N   0  0  0  0  0  1  0  0  0  0  0  0
  190.0470  173.7200  145.5010 C   0  0  0  0  0  3  0  0  0  0  0  0
  190.4200  177.3210  142.7870 C   0  0  1  0  0  3  0  0  0  0  0  0
  187.9290  176.1260  147.2100 C   0  0  0  0  0  0  0  0  0  0  0  0
  188.6340  175.2450  146.2680 C   0  0  0  0  0  0  0  0  0  0  0  0
  186.3040  177.6500  143.3230 C   0  0  0  0  0  0  0  0  0  0  0  0
  184.5430  178.1190  141.1730 C   0  0  0  0  0  0  0  0  0  0  0  0
  184.1070  178.2930  142.4900 C   0  0  0  0  0  3  0  0  0  0  0  0
  186.7320  177.4780  141.9970 C   0  0  0  0  0  3  0  0  0  0  0  0
  184.9810  178.0620  143.5570 C   0  0  0  0  0  3  0  0  0  0  0  0
  185.8610  177.7160  140.9300 C   0  0  0  0  0  3  0  0  0  0  0  0
  183.6570  178.3490  140.1200 O   0  0  0  0  0  0  0  0  0  0  0  0
  182.6080  177.5410  139.9090 O   0  0  0  0  0  0  0  0  0  0  0  0
  181.5610  178.2540  140.2700 O   0  0  0  0  0  1  0  0  0  0  0  0
  192.4640  173.2270  142.3650 P   0  0  1  0  0  0  0  0  0  0  0  0
  191.3200  171.8480  142.6590 C   0  0  0  0  0  1  0  0  0  0  0  0
  192.5990  173.4550  140.8750 O   0  0  0  0  0  0  0  0  0  0  0  0
  194.0330  172.8180  143.0330 N   0  0  0  0  0  2  0  0  0  0  0  0
  194.9280  172.8950  142.0190 O   0  0  0  0  0  1  0  0  0  0  0  0
  194.2040  176.3180  143.3220 O   0  0  0  0  0  1  0  0  0  0  0  0
  193.6130  176.0840  142.1260 N   0  0  0  0  0  2  0  0  0  0  0  0
  2  3  1  0  0  0  0
  2 16  1  0  0  0  0
  3 19  2  0  0  0  0
  5  7  1  1  0  0  0
  5  3  1  0  0  0  0
  6 35  1  1  0  0  0
  6  1  1  0  0  0  0
  6 10  1  0  0  0  0
  7 13  2  0  0  0  0
  8 14  1  6  0  0  0
  8  5  1  0  0  0  0
  9 18  1  0  0  0  0
  9 15  1  1  0  0  0
 10 29  1  6  0  0  0
 10 11  1  0  0  0  0
 11  2  1  0  0  0  0
 13  9  1  0  0  0  0
 16 12  2  0  0  0  0
 17  1  1  0  0  0  0
 17 14  1  6  0  0  0
 17  8  1  0  0  0  0
 18  4  2  0  0  0  0
 19 12  1  0  0  0  0
 19 18  1  0  0  0  0
 20 24  1  0  0  0  0
 20  7  1  0  0  0  0
 21 22  1  0  0  0  0
 22 24  2  0  0  0  0
 23 20  2  0  0  0  0
 25 21  2  0  0  0  0
 25 23  1  0  0  0  0
 26 21  1  0  0  0  0
 27 26  1  0  0  0  0
 27 28  1  0  0  0  0
 29 30  1  1  0  0  0
 29 32  1  0  0  0  0
 31 29  2  0  0  0  0
 33 32  1  0  0  0  0
 35 34  1  0  0  0  0
M  END
>  <MODEL>
6

>  <REMARK>
 VINA RESULT:      -6.2      2.059      2.394
  Name = 
  6 active torsions:
  status: ('A' for Active; 'I' for Inactive)
    1  A    between atoms: N_1  and  P_5
    2  A    between atoms: P_5  and  C_21
    3  A    between atoms: O_7  and  O_25
    4  A    between atoms: C_11  and  N_18
    5  A    between atoms: C_12  and  C_13
    6  A    between atoms: C_15  and  O_25
                            x       y       z     vdW  Elec       q    Type
                         _______ _______ _______ _____ _____    ______ ____

>  <TORSDO>
F 6

$$$$
=
 OpenBabel11062421573D

 35 39  0  0  1  0  0  0  0  0999 V2000
  190.4030  173.0850  142.2490 O   0  0  0  0  0  0  0  0  0  0  0  0
  191.3270  176.3990  143.3580 N   0  0  0  0  0  0  0  0  0  0  0  0
  192.5890  175.9780  143.5570 C   0  0  0  0  0  0  0  0  0  0  0  0
  194.5670  176.6040  146.5620 O   0  0  0  0  0  0  0  0  0  0  0  0
  193.2510  174.9650  142.6640 C   0  0  1  0  0  3  0  0  0  0  0  0
  189.4030  173.9360  141.7370 C   0  0  2  0  0  3  0  0  0  0  0  0
  194.7660  174.9530  142.6500 C   0  0  0  0  0  0  0  0  0  0  0  0
  192.5850  173.6200  142.8630 C   0  0  2  0  0  3  0  0  0  0  0  0
  194.9020  174.6970  145.1400 C   0  0  1  0  0  3  0  0  0  0  0  0
  189.3250  175.2860  142.4990 C   0  0  1  0  0  3  0  0  0  0  0  0
  190.5310  176.0150  142.3000 O   0  0  0  0  0  0  0  0  0  0  0  0
  191.9540  177.1330  145.3690 C   0  0  0  0  0  3  0  0  0  0  0  0
  195.4880  174.8280  143.7750 C   0  0  0  0  0  3  0  0  0  0  0  0
  192.7540  172.5710  141.7810 C   0  0  0  0  0  2  0  0  0  0  0  0
  195.9520  174.3580  146.0860 N   0  0  0  0  0  1  0  0  0  0  0  0
  190.9260  177.1000  144.4330 C   0  0  0  0  0  3  0  0  0  0  0  0
  191.6030  173.5490  141.7110 C   0  0  1  0  0  3  0  0  0  0  0  0
  194.1880  175.9550  145.5490 C   0  0  0  0  0  0  0  0  0  0  0  0
  192.9890  176.3880  144.8170 C   0  0  0  0  0  0  0  0  0  0  0  0
  195.4600  175.0740  141.3440 C   0  0  0  0  0  0  0  0  0  0  0  0
  196.8030  175.3060  138.8780 C   0  0  0  0  0  0  0  0  0  0  0  0
  195.4070  175.2410  138.9140 C   0  0  0  0  0  3  0  0  0  0  0  0
  196.8610  175.1400  141.2970 C   0  0  0  0  0  3  0  0  0  0  0  0
  194.7390  175.1270  140.1390 C   0  0  0  0  0  3  0  0  0  0  0  0
  197.5280  175.2610  140.0740 C   0  0  0  0  0  3  0  0  0  0  0  0
  197.4530  175.4140  137.6490 O   0  0  0  0  0  0  0  0  0  0  0  0
  196.7690  175.3620  136.4970 O   0  0  0  0  0  0  0  0  0  0  0  0
  197.1940  176.4030  135.8100 O   0  0  0  0  0  1  0  0  0  0  0  0
  187.9390  176.3160  141.9070 P   0  0  1  0  0  0  0  0  0  0  0  0
  188.4000  178.0700  142.0060 C   0  0  0  0  0  1  0  0  0  0  0  0
  187.6060  175.9680  140.4730 O   0  0  0  0  0  0  0  0  0  0  0  0
  186.5280  176.0410  142.9120 N   0  0  0  0  0  2  0  0  0  0  0  0
  185.6350  177.0160  142.6180 O   0  0  0  0  0  1  0  0  0  0  0  0
  188.2530  172.2850  142.7550 O   0  0  0  0  0  1  0  0  0  0  0  0
  188.1300  173.2360  141.7980 N   0  0  0  0  0  2  0  0  0  0  0  0
  2  3  1  0  0  0  0
  2 16  1  0  0  0  0
  3 19  2  0  0  0  0
  5  7  1  1  0  0  0
  5  8  1  0  0  0  0
  5  3  1  0  0  0  0
  6 35  1  1  0  0  0
  6  1  1  0  0  0  0
  6 10  1  0  0  0  0
  7 13  2  0  0  0  0
  8 14  1  6  0  0  0
  9 18  1  0  0  0  0
  9 15  1  1  0  0  0
 10 29  1  6  0  0  0
 11 10  1  0  0  0  0
 11  2  1  0  0  0  0
 13  9  1  0  0  0  0
 16 12  2  0  0  0  0
 17 14  1  6  0  0  0
 17  1  1  0  0  0  0
 17  8  1  0  0  0  0
 18  4  2  0  0  0  0
 19 12  1  0  0  0  0
 19 18  1  0  0  0  0
 20  7  1  0  0  0  0
 21 22  2  0  0  0  0
 21 25  1  0  0  0  0
 22 24  1  0  0  0  0
 23 20  1  0  0  0  0
 24 20  2  0  0  0  0
 25 23  2  0  0  0  0
 26 21  1  0  0  0  0
 27 26  1  0  0  0  0
 28 27  1  0  0  0  0
 29 30  1  1  0  0  0
 29 32  1  0  0  0  0
 31 29  2  0  0  0  0
 33 32  1  0  0  0  0
 35 34  1  0  0  0  0
M  END
>  <MODEL>
7

>  <REMARK>
 VINA RESULT:      -6.2      4.043      7.707
  Name = 
  6 active torsions:
  status: ('A' for Active; 'I' for Inactive)
    1  A    between atoms: N_1  and  P_5
    2  A    between atoms: P_5  and  C_21
    3  A    between atoms: O_7  and  O_25
    4  A    between atoms: C_11  and  N_18
    5  A    between atoms: C_12  and  C_13
    6  A    between atoms: C_15  and  O_25
                            x       y       z     vdW  Elec       q    Type
                         _______ _______ _______ _____ _____    ______ ____

>  <TORSDO>
F 6

$$$$
=
 OpenBabel11062421573D

 35 39  0  0  1  0  0  0  0  0999 V2000
  191.0600  173.7910  142.5630 O   0  0  0  0  0  0  0  0  0  0  0  0
  193.3190  176.0440  144.2610 N   0  0  0  0  0  0  0  0  0  0  0  0
  194.3410  175.2080  144.0070 C   0  0  0  0  0  0  0  0  0  0  0  0
  196.8110  174.0960  146.4570 O   0  0  0  0  0  0  0  0  0  0  0  0
  194.4360  174.4160  142.7320 C   0  0  1  0  0  3  0  0  0  0  0  0
  190.3960  175.0340  142.5780 C   0  0  2  0  0  3  0  0  0  0  0  0
  195.8140  173.9350  142.3280 C   0  0  0  0  0  0  0  0  0  0  0  0
  193.3450  173.3660  142.7190 C   0  0  2  0  0  3  0  0  0  0  0  0
  196.1930  172.8010  144.5310 C   0  0  1  0  0  3  0  0  0  0  0  0
  190.9440  175.9860  143.6740 C   0  0  1  0  0  3  0  0  0  0  0  0
  192.2970  176.3220  143.3790 O   0  0  0  0  0  0  0  0  0  0  0  0
  194.4530  175.7980  146.1660 C   0  0  0  0  0  3  0  0  0  0  0  0
  196.5870  173.2080  143.1510 C   0  0  0  0  0  3  0  0  0  0  0  0
  192.9490  172.7630  141.3860 C   0  0  0  0  0  2  0  0  0  0  0  0
  197.1580  171.8440  145.0460 N   0  0  0  0  0  1  0  0  0  0  0  0
  193.3690  176.4150  145.5530 C   0  0  0  0  0  3  0  0  0  0  0  0
  192.2580  174.0120  141.8840 C   0  0  1  0  0  3  0  0  0  0  0  0
  196.0740  173.9940  145.4370 C   0  0  0  0  0  0  0  0  0  0  0  0
  195.0400  175.0060  145.1850 C   0  0  0  0  0  0  0  0  0  0  0  0
  196.3110  174.2790  140.9720 C   0  0  0  0  0  0  0  0  0  0  0  0
  197.2690  174.9530  138.4090 C   0  0  0  0  0  0  0  0  0  0  0  0
  196.3600  173.9030  138.5660 C   0  0  0  0  0  3  0  0  0  0  0  0
  197.2250  175.3310  140.8050 C   0  0  0  0  0  3  0  0  0  0  0  0
  195.8830  173.5680  139.8380 C   0  0  0  0  0  3  0  0  0  0  0  0
  197.6960  175.6700  139.5330 C   0  0  0  0  0  3  0  0  0  0  0  0
  197.7390  175.2700  137.1350 O   0  0  0  0  0  0  0  0  0  0  0  0
  196.9000  175.3760  136.0940 O   0  0  0  0  0  0  0  0  0  0  0  0
  197.0880  176.5980  135.6390 O   0  0  0  0  0  1  0  0  0  0  0  0
  189.9840  177.5360  143.7620 P   0  0  1  0  0  0  0  0  0  0  0  0
  188.6220  177.3410  144.9480 C   0  0  0  0  0  1  0  0  0  0  0  0
  190.8750  178.6760  144.2090 O   0  0  0  0  0  0  0  0  0  0  0  0
  189.3170  177.9090  142.1840 N   0  0  0  0  0  2  0  0  0  0  0  0
  188.0190  178.2480  142.3720 O   0  0  0  0  0  1  0  0  0  0  0  0
  188.4360  174.6420  141.5360 O   0  0  0  0  0  1  0  0  0  0  0  0
  188.9760  174.7920  142.7690 N   0  0  0  0  0  2  0  0  0  0  0  0
  1  6  1  0  0  0  0
  2 16  1  0  0  0  0
  3  2  1  0  0  0  0
  3 19  2  0  0  0  0
  5  7  1  1  0  0  0
  5  3  1  0  0  0  0
  6 35  1  1  0  0  0
  6 10  1  0  0  0  0
  7 13  2  0  0  0  0
  8 14  1  6  0  0  0
  8  5  1  0  0  0  0
  9 15  1  1  0  0  0
  9 18  1  0  0  0  0
 10 29  1  6  0  0  0
 11 10  1  0  0  0  0
 11  2  1  0  0  0  0
 13  9  1  0  0  0  0
 16 12  2  0  0  0  0
 17 14  1  6  0  0  0
 17  1  1  0  0  0  0
 17  8  1  0  0  0  0
 18  4  2  0  0  0  0
 19 18  1  0  0  0  0
 19 12  1  0  0  0  0
 20  7  1  0  0  0  0
 21 22  2  0  0  0  0
 21 25  1  0  0  0  0
 22 24  1  0  0  0  0
 23 20  1  0  0  0  0
 24 20  2  0  0  0  0
 25 23  2  0  0  0  0
 26 21  1  0  0  0  0
 27 26  1  0  0  0  0
 28 27  1  0  0  0  0
 29 31  2  0  0  0  0
 29 30  1  1  0  0  0
 32 33  1  0  0  0  0
 32 29  1  0  0  0  0
 34 35  1  0  0  0  0
M  END
>  <MODEL>
8

>  <REMARK>
 VINA RESULT:      -5.9      4.102      8.187
  Name = 
  6 active torsions:
  status: ('A' for Active; 'I' for Inactive)
    1  A    between atoms: N_1  and  P_5
    2  A    between atoms: P_5  and  C_21
    3  A    between atoms: O_7  and  O_25
    4  A    between atoms: C_11  and  N_18
    5  A    between atoms: C_12  and  C_13
    6  A    between atoms: C_15  and  O_25
                            x       y       z     vdW  Elec       q    Type
                         _______ _______ _______ _____ _____    ______ ____

>  <TORSDO>
F 6

$$$$
=
 OpenBabel11062421573D

 35 39  0  0  1  0  0  0  0  0999 V2000
  187.5310  174.7440  141.9130 O   0  0  0  0  0  0  0  0  0  0  0  0
  190.7230  173.8250  143.3420 N   0  0  0  0  0  0  0  0  0  0  0  0
  190.9670  173.0340  142.2820 C   0  0  0  0  0  0  0  0  0  0  0  0
  192.1630  169.5880  142.4570 O   0  0  0  0  0  0  0  0  0  0  0  0
  190.5220  173.3920  140.8900 C   0  0  1  0  0  3  0  0  0  0  0  0
  187.8210  175.7580  142.8480 C   0  0  2  0  0  3  0  0  0  0  0  0
  191.2670  172.7370  139.7450 C   0  0  0  0  0  0  0  0  0  0  0  0
  189.0120  173.3160  140.8190 C   0  0  2  0  0  3  0  0  0  0  0  0
  190.8440  170.4320  140.6360 C   0  0  1  0  0  3  0  0  0  0  0  0
  188.8610  175.3090  143.9080 C   0  0  1  0  0  3  0  0  0  0  0  0
  190.1110  175.0590  143.2740 O   0  0  0  0  0  0  0  0  0  0  0  0
  191.4470  171.8710  144.1350 C   0  0  0  0  0  3  0  0  0  0  0  0
  191.3980  171.4040  139.6490 C   0  0  0  0  0  3  0  0  0  0  0  0
  188.3110  174.0530  139.6940 C   0  0  0  0  0  2  0  0  0  0  0  0
  190.9730  169.0830  140.1090 N   0  0  0  0  0  1  0  0  0  0  0  0
  191.0090  173.1470  144.4670 C   0  0  0  0  0  3  0  0  0  0  0  0
  188.5870  174.7600  141.0020 C   0  0  1  0  0  3  0  0  0  0  0  0
  191.5260  170.5620  141.9690 C   0  0  0  0  0  0  0  0  0  0  0  0
  191.3810  171.7990  142.7480 C   0  0  0  0  0  0  0  0  0  0  0  0
  191.8590  173.6070  138.7000 C   0  0  0  0  0  0  0  0  0  0  0  0
  192.9630  175.2540  136.6960 C   0  0  0  0  0  0  0  0  0  0  0  0
  193.6400  175.0670  137.9040 C   0  0  0  0  0  3  0  0  0  0  0  0
  191.1870  173.8010  137.4830 C   0  0  0  0  0  3  0  0  0  0  0  0
  193.0940  174.2480  138.8990 C   0  0  0  0  0  3  0  0  0  0  0  0
  191.7360  174.6130  136.4870 C   0  0  0  0  0  3  0  0  0  0  0  0
  193.5190  176.0770  135.7170 O   0  0  0  0  0  0  0  0  0  0  0  0
  193.4170  177.4110  135.7940 O   0  0  0  0  0  0  0  0  0  0  0  0
  192.3470  177.7040  135.0840 O   0  0  0  0  0  1  0  0  0  0  0  0
  189.1220  176.5890  145.1840 P   0  0  1  0  0  0  0  0  0  0  0  0
  190.8590  176.5740  145.7130 C   0  0  0  0  0  1  0  0  0  0  0  0
  188.7810  177.9550  144.6280 O   0  0  0  0  0  0  0  0  0  0  0  0
  188.1000  176.2570  146.5700 N   0  0  0  0  0  2  0  0  0  0  0  0
  187.3730  177.3760  146.8030 O   0  0  0  0  0  1  0  0  0  0  0  0
  185.8890  176.8840  142.5680 O   0  0  0  0  0  1  0  0  0  0  0  0
  186.5790  176.1640  143.4830 N   0  0  0  0  0  2  0  0  0  0  0  0
  1  6  1  0  0  0  0
  2 16  1  0  0  0  0
  3 19  2  0  0  0  0
  3  2  1  0  0  0  0
  5  7  1  6  0  0  0
  5  3  1  0  0  0  0
  6 35  1  1  0  0  0
  6 10  1  0  0  0  0
  8 14  1  6  0  0  0
  8  5  1  0  0  0  0
  8 17  1  0  0  0  0
  9 15  1  6  0  0  0
  9 18  1  0  0  0  0
 10 29  1  1  0  0  0
 11  2  1  0  0  0  0
 11 10  1  0  0  0  0
 12 16  2  0  0  0  0
 13  7  2  0  0  0  0
 13  9  1  0  0  0  0
 17 14  1  6  0  0  0
 17  1  1  0  0  0  0
 18  4  2  0  0  0  0
 18 19  1  0  0  0  0
 19 12  1  0  0  0  0
 20 24  1  0  0  0  0
 20  7  1  0  0  0  0
 21 22  1  0  0  0  0
 22 24  2  0  0  0  0
 23 20  2  0  0  0  0
 25 21  2  0  0  0  0
 25 23  1  0  0  0  0
 26 27  1  0  0  0  0
 26 21  1  0  0  0  0
 28 27  1  0  0  0  0
 29 30  1  1  0  0  0
 29 32  1  0  0  0  0
 31 29  2  0  0  0  0
 32 33  1  0  0  0  0
 34 35  1  0  0  0  0
M  END
>  <MODEL>
9

>  <REMARK>
 VINA RESULT:      -5.8      4.371      7.036
  Name = 
  6 active torsions:
  status: ('A' for Active; 'I' for Inactive)
    1  A    between atoms: N_1  and  P_5
    2  A    between atoms: P_5  and  C_21
    3  A    between atoms: O_7  and  O_25
    4  A    between atoms: C_11  and  N_18
    5  A    between atoms: C_12  and  C_13
    6  A    between atoms: C_15  and  O_25
                            x       y       z     vdW  Elec       q    Type
                         _______ _______ _______ _____ _____    ______ ____

>  <TORSDO>
F 6

$$$$
