=
 OpenBabel11062420053D

 42 45  0  0  1  0  0  0  0  0999 V2000
  188.3370  176.0600  142.4940 C   0  0  1  0  0  3  0  0  0  0  0  0
  190.6990  173.5520  139.2120 C   0  0  0  0  0  2  0  0  0  0  0  0
  188.8910  175.2380  143.6440 C   0  0  0  0  0  0  0  0  0  0  0  0
  191.5160  172.8060  140.2830 C   0  0  0  0  0  2  0  0  0  0  0  0
  189.8620  173.6940  141.9820 C   0  0  0  0  0  0  0  0  0  0  0  0
  190.0030  171.3730  141.4700 O   0  0  0  0  0  1  0  0  0  0  0  0
  189.6760  174.1560  143.4080 C   0  0  0  0  0  0  0  0  0  0  0  0
  188.2590  175.3030  141.2920 O   0  0  0  0  0  0  0  0  0  0  0  0
  189.2340  173.7580  139.5980 C   0  0  0  0  0  2  0  0  0  0  0  0
  190.7610  172.5390  141.5950 C   0  0  1  0  0  3  0  0  0  0  0  0
  189.1380  174.2640  141.0060 C   0  0  0  0  0  0  0  0  0  0  0  0
  190.9920  172.1630  144.3400 C   0  0  0  0  0  2  0  0  0  0  0  0
  189.6230  172.1810  145.0060 C   0  0  0  0  0  2  0  0  0  0  0  0
  190.3050  173.4810  144.6290 C   0  0  0  0  0  3  0  0  0  0  0  0
  188.7120  175.7660  145.0470 C   0  0  0  0  0  2  0  0  0  0  0  0
  189.5200  177.0370  145.2740 C   0  0  0  0  0  2  0  0  0  0  0  0
  190.6780  176.7950  146.2320 C   0  0  0  0  0  2  0  0  0  0  0  0
  191.9750  176.6000  145.4620 C   0  0  0  0  0  2  0  0  0  0  0  0
  192.7620  175.4330  145.9990 C   0  0  0  0  0  0  0  0  0  0  0  0
  192.5220  175.0210  147.1230 O   0  0  0  0  0  0  0  0  0  0  0  0
  195.2340  175.1790  145.5350 C   0  0  2  0  0  3  0  0  0  0  0  0
  193.6830  175.1360  143.7260 C   0  0  0  0  0  2  0  0  0  0  0  0
  194.9550  175.4050  143.2000 O   0  0  0  0  0  0  0  0  0  0  0  0
  193.8280  174.7460  145.1840 C   0  0  2  0  0  3  0  0  0  0  0  0
  195.7120  175.8780  144.2820 C   0  0  0  0  0  2  0  0  0  0  0  0
  197.5050  174.0470  145.1750 C   0  0  0  0  0  1  0  0  0  0  0  0
  195.4700  172.6810  145.6050 C   0  0  0  0  0  1  0  0  0  0  0  0
  196.1560  174.0030  145.8860 C   0  0  0  0  0  3  0  0  0  0  0  0
  186.9600  176.6530  142.8100 C   0  0  0  0  0  2  0  0  0  0  0  0
  186.9720  178.1800  142.9280 C   0  0  2  0  0  3  0  0  0  0  0  0
  186.3060  178.6700  144.2190 C   0  0  1  0  0  3  0  0  0  0  0  0
  185.5660  179.8280  143.9610 O   0  0  0  0  0  1  0  0  0  0  0  0
  185.3670  177.6170  144.8010 C   0  0  0  0  0  2  0  0  0  0  0  0
  183.8800  178.2690  146.5500 O   0  0  0  0  0  0  0  0  0  0  0  0
  185.0430  177.8980  146.2350 C   0  0  0  0  0  0  0  0  0  0  0  0
  186.0540  177.7070  147.2850 C   0  0  0  0  0  0  0  0  0  0  0  0
  186.4550  176.5460  147.5660 O   0  0  0  0  0  0  0  0  0  0  0  0
  186.6230  178.8710  148.0280 C   0  0  0  0  0  1  0  0  0  0  0  0
  186.3630  178.7630  141.7810 O   0  0  0  0  0  0  0  0  0  0  0  0
  185.3900  178.0840  141.0510 C   0  0  0  0  0  0  0  0  0  0  0  0
  185.6990  177.5360  139.9610 O   0  0  0  0  0  0  0  0  0  0  0  0
  184.0840  177.9880  141.5260 O   0  0  0  0  0  1  0  0  0  0  0  0
  1 29  1  1  0  0  0
  1  3  1  0  0  0  0
  2  9  1  0  0  0  0
  2  4  1  0  0  0  0
  3 15  1  0  0  0  0
  4 10  1  0  0  0  0
  5  7  1  0  0  0  0
  7  3  2  0  0  0  0
  7 14  1  0  0  0  0
  8  1  1  0  0  0  0
  9 11  1  0  0  0  0
 10  6  1  6  0  0  0
 10  5  1  0  0  0  0
 11  8  1  0  0  0  0
 11  5  2  0  0  0  0
 12 14  1  0  0  0  0
 12 13  1  0  0  0  0
 14 13  1  0  0  0  0
 15 16  1  0  0  0  0
 16 17  1  0  0  0  0
 18 19  1  0  0  0  0
 18 17  1  0  0  0  0
 19 20  2  0  0  0  0
 21 28  1  6  0  0  0
 22 24  1  0  0  0  0
 23 22  1  0  0  0  0
 23 25  1  0  0  0  0
 24 21  1  0  0  0  0
 24 19  1  1  0  0  0
 25 21  1  0  0  0  0
 26 28  1  0  0  0  0
 27 28  1  0  0  0  0
 30 29  1  6  0  0  0
 30 31  1  0  0  0  0
 31 32  1  6  0  0  0
 31 33  1  0  0  0  0
 33 35  1  0  0  0  0
 35 34  2  0  0  0  0
 35 36  1  0  0  0  0
 36 37  2  0  0  0  0
 36 38  1  0  0  0  0
 39 30  1  0  0  0  0
 40 42  1  0  0  0  0
 40 39  1  0  0  0  0
 41 40  2  0  0  0  0
M  END
>  <MODEL>
1

>  <REMARK>
 VINA RESULT:      -7.1      0.000      0.000
  Name = 
  16 active torsions:
  status: ('A' for Active; 'I' for Inactive)
    1  A    between atoms: C_1  and  O_14
    2  A    between atoms: C_2  and  C_39
    3  A    between atoms: C_2  and  C_40
    4  A    between atoms: C_3  and  C_25
    5  A    between atoms: C_7  and  C_28
    6  A    between atoms: C_8  and  C_17
    7  A    between atoms: C_9  and  C_32
    8  A    between atoms: C_9  and  C_38
    9  A    between atoms: O_14  and  C_38
   10  A    between atoms: C_19  and  C_31
   11  A    between atoms: C_23  and  C_28
   12  A    between atoms: C_23  and  C_34
   13  A    between atoms: C_24  and  C_41
   14  A    between atoms: C_25  and  C_38
   15  A    between atoms: C_32  and  C_41
   16  A    between atoms: C_34  and  C_40
                            x       y       z     vdW  Elec       q    Type
                         _______ _______ _______ _____ _____    ______ ____

>  <TORSDO>
F 16

$$$$
=
 OpenBabel11062420053D

 42 45  0  0  1  0  0  0  0  0999 V2000
  190.7770  176.3720  142.7100 C   0  0  1  0  0  3  0  0  0  0  0  0
  195.4950  176.0930  142.1550 C   0  0  0  0  0  2  0  0  0  0  0  0
  190.8740  176.4430  144.2220 C   0  0  0  0  0  0  0  0  0  0  0  0
  195.7480  176.4000  143.6430 C   0  0  0  0  0  2  0  0  0  0  0  0
  193.2850  175.9570  144.0240 C   0  0  0  0  0  0  0  0  0  0  0  0
  194.9640  174.5180  144.9060 O   0  0  0  0  0  1  0  0  0  0  0  0
  192.0730  176.3190  144.8470 C   0  0  0  0  0  0  0  0  0  0  0  0
  191.8690  175.6560  142.1420 O   0  0  0  0  0  0  0  0  0  0  0  0
  194.3010  175.1680  141.9190 C   0  0  0  0  0  2  0  0  0  0  0  0
  194.6800  175.8510  144.6010 C   0  0  1  0  0  3  0  0  0  0  0  0
  193.1270  175.6240  142.7320 C   0  0  0  0  0  0  0  0  0  0  0  0
  193.4080  176.2390  147.0350 C   0  0  0  0  0  2  0  0  0  0  0  0
  192.2420  175.2670  147.1550 C   0  0  0  0  0  2  0  0  0  0  0  0
  192.0880  176.5490  146.3600 C   0  0  0  0  0  3  0  0  0  0  0  0
  189.6430  176.8480  144.9960 C   0  0  0  0  0  2  0  0  0  0  0  0
  188.8980  175.6350  145.5400 C   0  0  0  0  0  2  0  0  0  0  0  0
  188.1370  175.9760  146.8130 C   0  0  0  0  0  2  0  0  0  0  0  0
  188.0010  177.4830  146.9660 C   0  0  0  0  0  2  0  0  0  0  0  0
  186.5590  177.9140  146.8990 C   0  0  0  0  0  0  0  0  0  0  0  0
  186.0180  178.3390  147.9070 O   0  0  0  0  0  0  0  0  0  0  0  0
  186.3700  178.6600  144.4900 C   0  0  2  0  0  3  0  0  0  0  0  0
  184.4070  178.4920  145.8320 C   0  0  0  0  0  2  0  0  0  0  0  0
  184.1090  179.3050  144.7280 O   0  0  0  0  0  0  0  0  0  0  0  0
  185.7660  177.8530  145.6180 C   0  0  2  0  0  3  0  0  0  0  0  0
  185.3510  179.7500  144.2500 C   0  0  0  0  0  2  0  0  0  0  0  0
  186.0450  178.4940  141.9540 C   0  0  0  0  0  1  0  0  0  0  0  0
  186.0120  176.4450  143.3640 C   0  0  0  0  0  1  0  0  0  0  0  0
  186.5950  177.8360  143.2150 C   0  0  0  0  0  3  0  0  0  0  0  0
  189.4600  175.7490  142.2350 C   0  0  0  0  0  2  0  0  0  0  0  0
  189.5880  174.2660  141.8750 C   0  0  2  0  0  3  0  0  0  0  0  0
  188.8670  173.9200  140.5670 C   0  0  1  0  0  3  0  0  0  0  0  0
  188.1210  175.0200  140.1330 O   0  0  0  0  0  1  0  0  0  0  0  0
  189.8530  173.5390  139.4670 C   0  0  0  0  0  2  0  0  0  0  0  0
  190.3690  171.3750  140.3300 O   0  0  0  0  0  0  0  0  0  0  0  0
  190.8110  172.4830  139.9240 C   0  0  0  0  0  0  0  0  0  0  0  0
  192.2620  172.7110  139.8670 C   0  0  0  0  0  0  0  0  0  0  0  0
  192.7200  173.6830  139.2110 O   0  0  0  0  0  0  0  0  0  0  0  0
  193.2120  171.8070  140.5820 C   0  0  0  0  0  1  0  0  0  0  0  0
  189.1200  173.4600  142.9510 O   0  0  0  0  0  0  0  0  0  0  0  0
  189.9950  172.6980  143.7210 C   0  0  0  0  0  0  0  0  0  0  0  0
  189.5460  172.0020  144.6690 O   0  0  0  0  0  1  0  0  0  0  0  0
  191.3590  172.6810  143.4400 O   0  0  0  0  0  0  0  0  0  0  0  0
  1 29  1  1  0  0  0
  1  3  1  0  0  0  0
  2  4  1  0  0  0  0
  3  7  2  0  0  0  0
  3 15  1  0  0  0  0
  4 10  1  0  0  0  0
  5 10  1  0  0  0  0
  5  7  1  0  0  0  0
  7 14  1  0  0  0  0
  8  1  1  0  0  0  0
  8 11  1  0  0  0  0
  9  2  1  0  0  0  0
  9 11  1  0  0  0  0
 10  6  1  6  0  0  0
 11  5  2  0  0  0  0
 12 13  1  0  0  0  0
 14 12  1  0  0  0  0
 14 13  1  0  0  0  0
 15 16  1  0  0  0  0
 16 17  1  0  0  0  0
 17 18  1  0  0  0  0
 19 18  1  0  0  0  0
 19 20  2  0  0  0  0
 21 28  1  6  0  0  0
 21 24  1  0  0  0  0
 23 22  1  0  0  0  0
 24 22  1  0  0  0  0
 24 19  1  1  0  0  0
 25 21  1  0  0  0  0
 25 23  1  0  0  0  0
 26 28  1  0  0  0  0
 28 27  1  0  0  0  0
 30 29  1  1  0  0  0
 30 39  1  0  0  0  0
 31 32  1  6  0  0  0
 31 30  1  0  0  0  0
 33 35  1  0  0  0  0
 33 31  1  0  0  0  0
 35 34  2  0  0  0  0
 36 35  1  0  0  0  0
 36 38  1  0  0  0  0
 37 36  2  0  0  0  0
 39 40  1  0  0  0  0
 40 41  1  0  0  0  0
 42 40  2  0  0  0  0
M  END
>  <MODEL>
2

>  <REMARK>
 VINA RESULT:      -7.1      1.770      7.599
  Name = 
  16 active torsions:
  status: ('A' for Active; 'I' for Inactive)
    1  A    between atoms: C_1  and  O_14
    2  A    between atoms: C_2  and  C_39
    3  A    between atoms: C_2  and  C_40
    4  A    between atoms: C_3  and  C_25
    5  A    between atoms: C_7  and  C_28
    6  A    between atoms: C_8  and  C_17
    7  A    between atoms: C_9  and  C_32
    8  A    between atoms: C_9  and  C_38
    9  A    between atoms: O_14  and  C_38
   10  A    between atoms: C_19  and  C_31
   11  A    between atoms: C_23  and  C_28
   12  A    between atoms: C_23  and  C_34
   13  A    between atoms: C_24  and  C_41
   14  A    between atoms: C_25  and  C_38
   15  A    between atoms: C_32  and  C_41
   16  A    between atoms: C_34  and  C_40
                            x       y       z     vdW  Elec       q    Type
                         _______ _______ _______ _____ _____    ______ ____

>  <TORSDO>
F 16

$$$$
=
 OpenBabel11062420053D

 42 45  0  0  1  0  0  0  0  0999 V2000
  190.9740  175.8600  142.8890 C   0  0  1  0  0  3  0  0  0  0  0  0
  195.3630  176.1920  141.0810 C   0  0  0  0  0  2  0  0  0  0  0  0
  191.4820  175.6200  144.3000 C   0  0  0  0  0  0  0  0  0  0  0  0
  196.0040  176.2030  142.4820 C   0  0  0  0  0  2  0  0  0  0  0  0
  193.7630  175.4380  143.3760 C   0  0  0  0  0  0  0  0  0  0  0  0
  195.6790  174.0280  143.4360 O   0  0  0  0  0  1  0  0  0  0  0  0
  192.8110  175.4920  144.5460 C   0  0  0  0  0  0  0  0  0  0  0  0
  191.8960  175.3950  141.9090 O   0  0  0  0  0  0  0  0  0  0  0  0
  194.1910  175.2190  140.9560 C   0  0  0  0  0  2  0  0  0  0  0  0
  195.2660  175.3580  143.5310 C   0  0  1  0  0  3  0  0  0  0  0  0
  193.2690  175.3700  142.1290 C   0  0  0  0  0  0  0  0  0  0  0  0
  193.5480  176.7290  146.6670 C   0  0  0  0  0  2  0  0  0  0  0  0
  194.6770  175.7990  146.2440 C   0  0  0  0  0  2  0  0  0  0  0  0
  193.2330  175.3990  146.0140 C   0  0  0  0  0  3  0  0  0  0  0  0
  190.4960  175.7240  145.4380 C   0  0  0  0  0  2  0  0  0  0  0  0
  189.9590  177.1420  145.5850 C   0  0  0  0  0  2  0  0  0  0  0  0
  189.2020  177.3150  146.8940 C   0  0  0  0  0  2  0  0  0  0  0  0
  187.8840  176.5580  146.8530 C   0  0  0  0  0  2  0  0  0  0  0  0
  186.7100  177.5020  146.8250 C   0  0  0  0  0  0  0  0  0  0  0  0
  186.5240  178.2480  147.7730 O   0  0  0  0  0  0  0  0  0  0  0  0
  186.2100  178.5140  144.5630 C   0  0  2  0  0  3  0  0  0  0  0  0
  184.4330  178.1340  146.1050 C   0  0  0  0  0  2  0  0  0  0  0  0
  183.9870  179.0590  145.1490 O   0  0  0  0  0  0  0  0  0  0  0  0
  185.7640  177.5650  145.6530 C   0  0  2  0  0  3  0  0  0  0  0  0
  185.1520  179.5940  144.5790 C   0  0  0  0  0  2  0  0  0  0  0  0
  186.1050  176.3360  143.2170 C   0  0  0  0  0  1  0  0  0  0  0  0
  187.5920  178.1950  142.4910 C   0  0  0  0  0  1  0  0  0  0  0  0
  186.2870  177.8500  143.1810 C   0  0  0  0  0  3  0  0  0  0  0  0
  189.6050  175.2170  142.6430 C   0  0  0  0  0  2  0  0  0  0  0  0
  189.6960  173.8190  142.0250 C   0  0  2  0  0  3  0  0  0  0  0  0
  188.9830  173.7340  140.6700 C   0  0  1  0  0  3  0  0  0  0  0  0
  188.3350  174.9430  140.3990 O   0  0  0  0  0  1  0  0  0  0  0  0
  189.9630  173.4460  139.5370 C   0  0  0  0  0  2  0  0  0  0  0  0
  188.5170  172.8700  137.7280 O   0  0  0  0  0  0  0  0  0  0  0  0
  189.3940  172.4800  138.5460 C   0  0  0  0  0  0  0  0  0  0  0  0
  189.8750  171.0920  138.4880 C   0  0  0  0  0  0  0  0  0  0  0  0
  190.3620  170.5530  139.5180 O   0  0  0  0  0  0  0  0  0  0  0  0
  189.7930  170.3000  137.2250 C   0  0  0  0  0  1  0  0  0  0  0  0
  189.1910  172.8490  142.9350 O   0  0  0  0  0  0  0  0  0  0  0  0
  189.9920  172.3060  143.9360 C   0  0  0  0  0  0  0  0  0  0  0  0
  191.2210  172.1330  143.7250 O   0  0  0  0  0  0  0  0  0  0  0  0
  189.4520  171.9710  145.1760 O   0  0  0  0  0  1  0  0  0  0  0  0
  1 29  1  1  0  0  0
  1  3  1  0  0  0  0
  2  4  1  0  0  0  0
  3  7  2  0  0  0  0
  3 15  1  0  0  0  0
  4 10  1  0  0  0  0
  5 10  1  0  0  0  0
  5  7  1  0  0  0  0
  7 14  1  0  0  0  0
  8 11  1  0  0  0  0
  8  1  1  0  0  0  0
  9  2  1  0  0  0  0
  9 11  1  0  0  0  0
 10  6  1  6  0  0  0
 11  5  2  0  0  0  0
 13 12  1  0  0  0  0
 14 13  1  0  0  0  0
 14 12  1  0  0  0  0
 15 16  1  0  0  0  0
 16 17  1  0  0  0  0
 18 17  1  0  0  0  0
 19 18  1  0  0  0  0
 19 20  2  0  0  0  0
 21 28  1  6  0  0  0
 21 25  1  0  0  0  0
 21 24  1  0  0  0  0
 23 22  1  0  0  0  0
 24 22  1  0  0  0  0
 24 19  1  1  0  0  0
 25 23  1  0  0  0  0
 27 28  1  0  0  0  0
 28 26  1  0  0  0  0
 30 29  1  1  0  0  0
 30 39  1  0  0  0  0
 31 32  1  6  0  0  0
 31 30  1  0  0  0  0
 33 31  1  0  0  0  0
 34 35  2  0  0  0  0
 35 33  1  0  0  0  0
 36 35  1  0  0  0  0
 36 37  2  0  0  0  0
 38 36  1  0  0  0  0
 39 40  1  0  0  0  0
 40 42  1  0  0  0  0
 41 40  2  0  0  0  0
M  END
>  <MODEL>
3

>  <REMARK>
 VINA RESULT:      -7.0      1.914      7.688
  Name = 
  16 active torsions:
  status: ('A' for Active; 'I' for Inactive)
    1  A    between atoms: C_1  and  O_14
    2  A    between atoms: C_2  and  C_39
    3  A    between atoms: C_2  and  C_40
    4  A    between atoms: C_3  and  C_25
    5  A    between atoms: C_7  and  C_28
    6  A    between atoms: C_8  and  C_17
    7  A    between atoms: C_9  and  C_32
    8  A    between atoms: C_9  and  C_38
    9  A    between atoms: O_14  and  C_38
   10  A    between atoms: C_19  and  C_31
   11  A    between atoms: C_23  and  C_28
   12  A    between atoms: C_23  and  C_34
   13  A    between atoms: C_24  and  C_41
   14  A    between atoms: C_25  and  C_38
   15  A    between atoms: C_32  and  C_41
   16  A    between atoms: C_34  and  C_40
                            x       y       z     vdW  Elec       q    Type
                         _______ _______ _______ _____ _____    ______ ____

>  <TORSDO>
F 16

$$$$
=
 OpenBabel11062420053D

 42 45  0  0  1  0  0  0  0  0999 V2000
  191.9430  173.6820  144.8130 C   0  0  1  0  0  3  0  0  0  0  0  0
  192.7780  170.4390  141.4330 C   0  0  0  0  0  2  0  0  0  0  0  0
  190.5980  174.0700  144.2280 C   0  0  0  0  0  0  0  0  0  0  0  0
  191.3450  170.5580  140.8810 C   0  0  0  0  0  2  0  0  0  0  0  0
  191.1200  172.6630  142.2690 C   0  0  0  0  0  0  0  0  0  0  0  0
  191.1380  172.7320  139.8900 O   0  0  0  0  0  1  0  0  0  0  0  0
  190.1700  173.5330  143.0570 C   0  0  0  0  0  0  0  0  0  0  0  0
  192.8390  173.2090  143.8130 O   0  0  0  0  0  0  0  0  0  0  0  0
  193.3840  171.7800  141.8470 C   0  0  0  0  0  2  0  0  0  0  0  0
  190.7340  171.9640  140.9840 C   0  0  1  0  0  3  0  0  0  0  0  0
  192.3990  172.5600  142.6650 C   0  0  0  0  0  0  0  0  0  0  0  0
  188.2630  173.1380  141.3890 C   0  0  0  0  0  2  0  0  0  0  0  0
  188.6820  174.5990  141.2940 C   0  0  0  0  0  2  0  0  0  0  0  0
  188.7420  173.8740  142.6240 C   0  0  0  0  0  3  0  0  0  0  0  0
  189.6690  174.9090  145.0720 C   0  0  0  0  0  2  0  0  0  0  0  0
  189.3110  174.2080  146.3770 C   0  0  0  0  0  2  0  0  0  0  0  0
  188.6820  175.1730  147.3710 C   0  0  0  0  0  2  0  0  0  0  0  0
  188.2890  176.4700  146.6800 C   0  0  0  0  0  2  0  0  0  0  0  0
  186.8170  176.7510  146.8370 C   0  0  0  0  0  0  0  0  0  0  0  0
  186.3130  176.6760  147.9460 O   0  0  0  0  0  0  0  0  0  0  0  0
  186.5580  178.2060  144.7860 C   0  0  2  0  0  3  0  0  0  0  0  0
  184.6690  177.7760  146.1750 C   0  0  0  0  0  2  0  0  0  0  0  0
  184.3840  178.9050  145.3920 O   0  0  0  0  0  0  0  0  0  0  0  0
  185.9490  177.1390  145.6680 C   0  0  2  0  0  3  0  0  0  0  0  0
  185.6310  179.3860  144.9680 C   0  0  0  0  0  2  0  0  0  0  0  0
  186.0410  176.4190  143.0230 C   0  0  0  0  0  1  0  0  0  0  0  0
  188.0600  177.8560  142.8050 C   0  0  0  0  0  1  0  0  0  0  0  0
  186.6310  177.7960  143.3080 C   0  0  0  0  0  3  0  0  0  0  0  0
  192.6020  174.8340  145.5800 C   0  0  0  0  0  2  0  0  0  0  0  0
  193.2200  175.8950  144.6650 C   0  0  2  0  0  3  0  0  0  0  0  0
  194.7100  176.1150  144.9520 C   0  0  1  0  0  3  0  0  0  0  0  0
  194.8950  177.3600  145.5620 O   0  0  0  0  0  1  0  0  0  0  0  0
  195.2690  175.0370  145.8740 C   0  0  0  0  0  2  0  0  0  0  0  0
  197.3190  174.6370  144.7180 O   0  0  0  0  0  0  0  0  0  0  0  0
  196.2430  174.1510  145.1610 C   0  0  0  0  0  0  0  0  0  0  0  0
  195.9780  172.7140  145.0080 C   0  0  0  0  0  0  0  0  0  0  0  0
  195.2020  172.1290  145.8100 O   0  0  0  0  0  0  0  0  0  0  0  0
  196.6120  171.9260  143.9090 C   0  0  0  0  0  1  0  0  0  0  0  0
  192.4890  177.1120  144.7650 O   0  0  0  0  0  0  0  0  0  0  0  0
  191.7730  177.6190  143.6850 C   0  0  0  0  0  0  0  0  0  0  0  0
  191.5780  176.8980  142.6720 O   0  0  0  0  0  0  0  0  0  0  0  0
  191.2510  178.9110  143.7210 O   0  0  0  0  0  1  0  0  0  0  0  0
  1 29  1  6  0  0  0
  2  9  1  0  0  0  0
  3  1  1  0  0  0  0
  3 15  1  0  0  0  0
  4 10  1  0  0  0  0
  4  2  1  0  0  0  0
  5 11  2  0  0  0  0
  5  7  1  0  0  0  0
  7  3  2  0  0  0  0
  8  1  1  0  0  0  0
  9 11  1  0  0  0  0
 10  6  1  6  0  0  0
 10  5  1  0  0  0  0
 11  8  1  0  0  0  0
 12 14  1  0  0  0  0
 13 12  1  0  0  0  0
 13 14  1  0  0  0  0
 14  7  1  0  0  0  0
 15 16  1  0  0  0  0
 16 17  1  0  0  0  0
 18 19  1  0  0  0  0
 18 17  1  0  0  0  0
 19 20  2  0  0  0  0
 21 28  1  6  0  0  0
 21 25  1  0  0  0  0
 21 24  1  0  0  0  0
 23 22  1  0  0  0  0
 24 22  1  0  0  0  0
 24 19  1  1  0  0  0
 25 23  1  0  0  0  0
 26 28  1  0  0  0  0
 27 28  1  0  0  0  0
 30 39  1  0  0  0  0
 30 31  1  0  0  0  0
 30 29  1  1  0  0  0
 31 32  1  1  0  0  0
 31 33  1  0  0  0  0
 34 35  2  0  0  0  0
 35 33  1  0  0  0  0
 36 35  1  0  0  0  0
 36 37  2  0  0  0  0
 38 36  1  0  0  0  0
 40 42  1  0  0  0  0
 40 39  1  0  0  0  0
 41 40  2  0  0  0  0
M  END
>  <MODEL>
4

>  <REMARK>
 VINA RESULT:      -6.9      2.081      7.598
  Name = 
  16 active torsions:
  status: ('A' for Active; 'I' for Inactive)
    1  A    between atoms: C_1  and  O_14
    2  A    between atoms: C_2  and  C_39
    3  A    between atoms: C_2  and  C_40
    4  A    between atoms: C_3  and  C_25
    5  A    between atoms: C_7  and  C_28
    6  A    between atoms: C_8  and  C_17
    7  A    between atoms: C_9  and  C_32
    8  A    between atoms: C_9  and  C_38
    9  A    between atoms: O_14  and  C_38
   10  A    between atoms: C_19  and  C_31
   11  A    between atoms: C_23  and  C_28
   12  A    between atoms: C_23  and  C_34
   13  A    between atoms: C_24  and  C_41
   14  A    between atoms: C_25  and  C_38
   15  A    between atoms: C_32  and  C_41
   16  A    between atoms: C_34  and  C_40
                            x       y       z     vdW  Elec       q    Type
                         _______ _______ _______ _____ _____    ______ ____

>  <TORSDO>
F 16

$$$$
=
 OpenBabel11062420053D

 42 45  0  0  1  0  0  0  0  0999 V2000
  188.1930  175.7990  143.8190 C   0  0  1  0  0  3  0  0  0  0  0  0
  184.4580  178.1490  142.0390 C   0  0  0  0  0  2  0  0  0  0  0  0
  188.0380  176.4220  145.1940 C   0  0  0  0  0  0  0  0  0  0  0  0
  184.0410  178.6620  143.4310 C   0  0  0  0  0  2  0  0  0  0  0  0
  186.3190  177.9190  144.2480 C   0  0  0  0  0  0  0  0  0  0  0  0
  185.7150  180.2200  144.1520 O   0  0  0  0  0  1  0  0  0  0  0  0
  187.1000  177.3770  145.4210 C   0  0  0  0  0  0  0  0  0  0  0  0
  187.7050  176.6550  142.7920 O   0  0  0  0  0  0  0  0  0  0  0  0
  185.9700  178.1540  141.8170 C   0  0  0  0  0  2  0  0  0  0  0  0
  185.2110  178.9390  144.3880 C   0  0  1  0  0  3  0  0  0  0  0  0
  186.6670  177.5560  143.0020 C   0  0  0  0  0  0  0  0  0  0  0  0
  186.0080  176.9650  147.7040 C   0  0  0  0  0  2  0  0  0  0  0  0
  185.5140  178.3060  147.1760 C   0  0  0  0  0  2  0  0  0  0  0  0
  186.9230  177.8380  146.8690 C   0  0  0  0  0  3  0  0  0  0  0  0
  188.8110  175.8170  146.3410 C   0  0  0  0  0  2  0  0  0  0  0  0
  190.0570  176.6310  146.6660 C   0  0  0  0  0  2  0  0  0  0  0  0
  191.2560  175.7290  146.9230 C   0  0  0  0  0  2  0  0  0  0  0  0
  192.5540  176.4910  146.7020 C   0  0  0  0  0  2  0  0  0  0  0  0
  192.9470  176.4940  145.2470 C   0  0  0  0  0  0  0  0  0  0  0  0
  192.4940  177.3570  144.5110 O   0  0  0  0  0  0  0  0  0  0  0  0
  195.2950  175.5570  145.2460 C   0  0  2  0  0  3  0  0  0  0  0  0
  194.0950  175.7400  143.1940 C   0  0  0  0  0  2  0  0  0  0  0  0
  195.4590  175.6120  142.8890 O   0  0  0  0  0  0  0  0  0  0  0  0
  193.8970  175.4740  144.6740 C   0  0  2  0  0  3  0  0  0  0  0  0
  196.1360  175.9770  144.0620 C   0  0  0  0  0  2  0  0  0  0  0  0
  197.2200  173.8740  145.4150 C   0  0  0  0  0  1  0  0  0  0  0  0
  194.8580  173.0920  145.4310 C   0  0  0  0  0  1  0  0  0  0  0  0
  195.7910  174.2220  145.8180 C   0  0  0  0  0  3  0  0  0  0  0  0
  189.6440  175.4140  143.5110 C   0  0  0  0  0  2  0  0  0  0  0  0
  189.7900  173.9870  142.9750 C   0  0  2  0  0  3  0  0  0  0  0  0
  191.1700  173.3900  143.2760 C   0  0  1  0  0  3  0  0  0  0  0  0
  191.2720  173.1000  144.6400 O   0  0  0  0  0  1  0  0  0  0  0  0
  191.4100  172.1060  142.4890 C   0  0  0  0  0  2  0  0  0  0  0  0
  193.7400  172.4370  142.0920 O   0  0  0  0  0  0  0  0  0  0  0  0
  192.8430  171.6790  142.5520 C   0  0  0  0  0  0  0  0  0  0  0  0
  193.2200  170.4050  143.1800 C   0  0  0  0  0  0  0  0  0  0  0  0
  192.8180  170.1350  144.3430 O   0  0  0  0  0  0  0  0  0  0  0  0
  194.0740  169.4140  142.4600 C   0  0  0  0  0  1  0  0  0  0  0  0
  189.5100  173.9590  141.5800 O   0  0  0  0  0  0  0  0  0  0  0  0
  188.4220  173.2530  141.0720 C   0  0  0  0  0  0  0  0  0  0  0  0
  188.3890  172.9550  139.8500 O   0  0  0  0  0  0  0  0  0  0  0  0
  187.3800  172.8560  141.9070 O   0  0  0  0  0  1  0  0  0  0  0  0
  1 29  1  6  0  0  0
  1  3  1  0  0  0  0
  2  4  1  0  0  0  0
  3  7  2  0  0  0  0
  3 15  1  0  0  0  0
  4 10  1  0  0  0  0
  5 10  1  0  0  0  0
  5  7  1  0  0  0  0
  7 14  1  0  0  0  0
  8 11  1  0  0  0  0
  8  1  1  0  0  0  0
  9  2  1  0  0  0  0
  9 11  1  0  0  0  0
 10  6  1  6  0  0  0
 11  5  2  0  0  0  0
 13 12  1  0  0  0  0
 14 13  1  0  0  0  0
 14 12  1  0  0  0  0
 15 16  1  0  0  0  0
 16 17  1  0  0  0  0
 18 17  1  0  0  0  0
 19 18  1  0  0  0  0
 20 19  2  0  0  0  0
 21 28  1  6  0  0  0
 22 24  1  0  0  0  0
 23 22  1  0  0  0  0
 23 25  1  0  0  0  0
 24 21  1  0  0  0  0
 24 19  1  1  0  0  0
 25 21  1  0  0  0  0
 26 28  1  0  0  0  0
 27 28  1  0  0  0  0
 30 31  1  0  0  0  0
 30 29  1  6  0  0  0
 31 32  1  1  0  0  0
 33 35  1  0  0  0  0
 33 31  1  0  0  0  0
 34 35  2  0  0  0  0
 35 36  1  0  0  0  0
 36 37  2  0  0  0  0
 38 36  1  0  0  0  0
 39 30  1  0  0  0  0
 40 39  1  0  0  0  0
 40 42  1  0  0  0  0
 41 40  2  0  0  0  0
M  END
>  <MODEL>
5

>  <REMARK>
 VINA RESULT:      -6.6      1.879      6.318
  Name = 
  16 active torsions:
  status: ('A' for Active; 'I' for Inactive)
    1  A    between atoms: C_1  and  O_14
    2  A    between atoms: C_2  and  C_39
    3  A    between atoms: C_2  and  C_40
    4  A    between atoms: C_3  and  C_25
    5  A    between atoms: C_7  and  C_28
    6  A    between atoms: C_8  and  C_17
    7  A    between atoms: C_9  and  C_32
    8  A    between atoms: C_9  and  C_38
    9  A    between atoms: O_14  and  C_38
   10  A    between atoms: C_19  and  C_31
   11  A    between atoms: C_23  and  C_28
   12  A    between atoms: C_23  and  C_34
   13  A    between atoms: C_24  and  C_41
   14  A    between atoms: C_25  and  C_38
   15  A    between atoms: C_32  and  C_41
   16  A    between atoms: C_34  and  C_40
                            x       y       z     vdW  Elec       q    Type
                         _______ _______ _______ _____ _____    ______ ____

>  <TORSDO>
F 16

$$$$
=
 OpenBabel11062420053D

 42 45  0  0  1  0  0  0  0  0999 V2000
  188.3150  175.4920  141.6540 C   0  0  1  0  0  3  0  0  0  0  0  0
  190.3960  173.7840  137.7310 C   0  0  0  0  0  2  0  0  0  0  0  0
  188.6230  174.2460  142.4630 C   0  0  0  0  0  0  0  0  0  0  0  0
  190.9820  172.5800  138.4930 C   0  0  0  0  0  2  0  0  0  0  0  0
  189.4060  173.1710  140.3840 C   0  0  0  0  0  0  0  0  0  0  0  0
  189.1480  171.1690  139.1220 O   0  0  0  0  0  1  0  0  0  0  0  0
  189.2080  173.1680  141.8810 C   0  0  0  0  0  0  0  0  0  0  0  0
  188.1830  175.2030  140.2670 O   0  0  0  0  0  0  0  0  0  0  0  0
  188.9720  174.1390  138.1570 C   0  0  0  0  0  2  0  0  0  0  0  0
  190.0990  172.0540  139.6350 C   0  0  1  0  0  3  0  0  0  0  0  0
  188.8720  174.1630  139.6520 C   0  0  0  0  0  0  0  0  0  0  0  0
  190.9680  172.1780  143.4610 C   0  0  0  0  0  2  0  0  0  0  0  0
  190.7930  171.2230  142.2880 C   0  0  0  0  0  2  0  0  0  0  0  0
  189.6110  172.0180  142.8070 C   0  0  0  0  0  3  0  0  0  0  0  0
  188.4470  174.3070  143.9610 C   0  0  0  0  0  2  0  0  0  0  0  0
  189.2410  175.4550  144.5720 C   0  0  0  0  0  2  0  0  0  0  0  0
  189.5810  175.1800  146.0290 C   0  0  0  0  0  2  0  0  0  0  0  0
  190.3850  176.3300  146.6160 C   0  0  0  0  0  2  0  0  0  0  0  0
  191.8600  176.0220  146.6190 C   0  0  0  0  0  0  0  0  0  0  0  0
  192.3150  175.3020  147.4930 O   0  0  0  0  0  0  0  0  0  0  0  0
  192.9730  175.6390  144.3820 C   0  0  2  0  0  3  0  0  0  0  0  0
  194.1880  176.6940  146.1390 C   0  0  0  0  0  2  0  0  0  0  0  0
  195.1130  176.2220  145.1950 O   0  0  0  0  0  0  0  0  0  0  0  0
  192.7910  176.5640  145.5640 C   0  0  2  0  0  3  0  0  0  0  0  0
  194.4280  175.2390  144.4660 C   0  0  0  0  0  2  0  0  0  0  0  0
  191.6710  177.4610  143.1360 C   0  0  0  0  0  1  0  0  0  0  0  0
  192.1910  175.2990  142.0200 C   0  0  0  0  0  1  0  0  0  0  0  0
  192.6720  176.3150  143.0370 C   0  0  0  0  0  3  0  0  0  0  0  0
  187.0540  176.2110  142.1440 C   0  0  0  0  0  2  0  0  0  0  0  0
  187.2570  177.7140  142.3520 C   0  0  2  0  0  3  0  0  0  0  0  0
  186.6970  178.1970  143.6950 C   0  0  1  0  0  3  0  0  0  0  0  0
  185.9860  179.3870  143.5120 O   0  0  0  0  0  1  0  0  0  0  0  0
  185.7620  177.1660  144.3180 C   0  0  0  0  0  2  0  0  0  0  0  0
  186.3860  176.4170  146.4960 O   0  0  0  0  0  0  0  0  0  0  0  0
  185.7480  177.2620  145.8110 C   0  0  0  0  0  0  0  0  0  0  0  0
  185.0330  178.3540  146.4870 C   0  0  0  0  0  0  0  0  0  0  0  0
  183.8740  178.6730  146.1120 O   0  0  0  0  0  0  0  0  0  0  0  0
  185.6580  179.0980  147.6220 C   0  0  0  0  0  1  0  0  0  0  0  0
  186.6880  178.4380  141.2670 O   0  0  0  0  0  0  0  0  0  0  0  0
  185.6420  177.9120  140.5120 C   0  0  0  0  0  0  0  0  0  0  0  0
  185.8860  177.3700  139.4030 O   0  0  0  0  0  0  0  0  0  0  0  0
  184.3320  177.9620  140.9820 O   0  0  0  0  0  1  0  0  0  0  0  0
  1 29  1  1  0  0  0
  1  3  1  0  0  0  0
  2  9  1  0  0  0  0
  2  4  1  0  0  0  0
  3 15  1  0  0  0  0
  4 10  1  0  0  0  0
  5  7  1  0  0  0  0
  7  3  2  0  0  0  0
  7 14  1  0  0  0  0
  8  1  1  0  0  0  0
  9 11  1  0  0  0  0
 10  6  1  6  0  0  0
 10  5  1  0  0  0  0
 11  8  1  0  0  0  0
 11  5  2  0  0  0  0
 13 14  1  0  0  0  0
 13 12  1  0  0  0  0
 14 12  1  0  0  0  0
 15 16  1  0  0  0  0
 16 17  1  0  0  0  0
 17 18  1  0  0  0  0
 18 19  1  0  0  0  0
 19 20  2  0  0  0  0
 21 28  1  6  0  0  0
 21 25  1  0  0  0  0
 21 24  1  0  0  0  0
 23 22  1  0  0  0  0
 24 22  1  0  0  0  0
 24 19  1  1  0  0  0
 25 23  1  0  0  0  0
 27 28  1  0  0  0  0
 28 26  1  0  0  0  0
 30 29  1  6  0  0  0
 30 31  1  0  0  0  0
 31 32  1  6  0  0  0
 31 33  1  0  0  0  0
 33 35  1  0  0  0  0
 35 36  1  0  0  0  0
 35 34  2  0  0  0  0
 36 38  1  0  0  0  0
 37 36  2  0  0  0  0
 39 30  1  0  0  0  0
 40 42  1  0  0  0  0
 40 39  1  0  0  0  0
 41 40  2  0  0  0  0
M  END
>  <MODEL>
6

>  <REMARK>
 VINA RESULT:      -6.6      1.406      2.334
  Name = 
  16 active torsions:
  status: ('A' for Active; 'I' for Inactive)
    1  A    between atoms: C_1  and  O_14
    2  A    between atoms: C_2  and  C_39
    3  A    between atoms: C_2  and  C_40
    4  A    between atoms: C_3  and  C_25
    5  A    between atoms: C_7  and  C_28
    6  A    between atoms: C_8  and  C_17
    7  A    between atoms: C_9  and  C_32
    8  A    between atoms: C_9  and  C_38
    9  A    between atoms: O_14  and  C_38
   10  A    between atoms: C_19  and  C_31
   11  A    between atoms: C_23  and  C_28
   12  A    between atoms: C_23  and  C_34
   13  A    between atoms: C_24  and  C_41
   14  A    between atoms: C_25  and  C_38
   15  A    between atoms: C_32  and  C_41
   16  A    between atoms: C_34  and  C_40
                            x       y       z     vdW  Elec       q    Type
                         _______ _______ _______ _____ _____    ______ ____

>  <TORSDO>
F 16

$$$$
=
 OpenBabel11062420053D

 42 45  0  0  1  0  0  0  0  0999 V2000
  188.5730  175.9100  143.4100 C   0  0  1  0  0  3  0  0  0  0  0  0
  184.7760  178.1190  141.5810 C   0  0  0  0  0  2  0  0  0  0  0  0
  188.1510  176.1860  144.8410 C   0  0  0  0  0  0  0  0  0  0  0  0
  184.1130  178.2520  142.9650 C   0  0  0  0  0  2  0  0  0  0  0  0
  186.3560  177.6330  143.9610 C   0  0  0  0  0  0  0  0  0  0  0  0
  185.4220  179.8040  144.2410 O   0  0  0  0  0  1  0  0  0  0  0  0
  187.0560  176.9430  145.1070 C   0  0  0  0  0  0  0  0  0  0  0  0
  188.0930  176.9060  142.5140 O   0  0  0  0  0  0  0  0  0  0  0  0
  186.2860  178.3590  141.6040 C   0  0  0  0  0  2  0  0  0  0  0  0
  185.0950  178.4510  144.1300 C   0  0  1  0  0  3  0  0  0  0  0  0
  186.9110  177.6030  142.7380 C   0  0  0  0  0  0  0  0  0  0  0  0
  185.6210  178.1370  146.8650 C   0  0  0  0  0  2  0  0  0  0  0  0
  187.0850  178.3270  147.2390 C   0  0  0  0  0  2  0  0  0  0  0  0
  186.6280  177.0440  146.5730 C   0  0  0  0  0  3  0  0  0  0  0  0
  188.8570  175.4410  145.9480 C   0  0  0  0  0  2  0  0  0  0  0  0
  190.0720  176.2080  146.4540 C   0  0  0  0  0  2  0  0  0  0  0  0
  191.2430  175.2760  146.7280 C   0  0  0  0  0  2  0  0  0  0  0  0
  192.3310  176.0000  147.5050 C   0  0  0  0  0  2  0  0  0  0  0  0
  193.5040  176.3380  146.6210 C   0  0  0  0  0  0  0  0  0  0  0  0
  194.1730  177.3280  146.8730 O   0  0  0  0  0  0  0  0  0  0  0  0
  195.3590  175.1310  145.3990 C   0  0  2  0  0  3  0  0  0  0  0  0
  193.6630  176.2550  144.1570 C   0  0  0  0  0  2  0  0  0  0  0  0
  194.7600  176.0500  143.3060 O   0  0  0  0  0  0  0  0  0  0  0  0
  193.8880  175.4810  145.4420 C   0  0  2  0  0  3  0  0  0  0  0  0
  195.8550  175.8370  144.1570 C   0  0  0  0  0  2  0  0  0  0  0  0
  194.4080  172.7680  145.6800 C   0  0  0  0  0  1  0  0  0  0  0  0
  196.8080  173.2240  146.1510 C   0  0  0  0  0  1  0  0  0  0  0  0
  195.6160  173.6210  145.3040 C   0  0  0  0  0  3  0  0  0  0  0  0
  190.0930  175.7850  143.2610 C   0  0  0  0  0  2  0  0  0  0  0  0
  190.5510  174.3710  142.8930 C   0  0  2  0  0  3  0  0  0  0  0  0
  190.6780  174.1770  141.3770 C   0  0  1  0  0  3  0  0  0  0  0  0
  192.0240  174.2380  141.0030 O   0  0  0  0  0  1  0  0  0  0  0  0
  190.1150  172.8300  140.9350 C   0  0  0  0  0  2  0  0  0  0  0  0
  187.7410  172.6760  140.7480 O   0  0  0  0  0  0  0  0  0  0  0  0
  188.8270  172.9880  140.1890 C   0  0  0  0  0  0  0  0  0  0  0  0
  188.8100  173.5420  138.8280 C   0  0  0  0  0  0  0  0  0  0  0  0
  188.1340  174.5760  138.5790 O   0  0  0  0  0  0  0  0  0  0  0  0
  189.5880  172.9020  137.7260 C   0  0  0  0  0  1  0  0  0  0  0  0
  189.6720  173.4090  143.4640 O   0  0  0  0  0  0  0  0  0  0  0  0
  190.1480  172.3820  144.2750 C   0  0  0  0  0  0  0  0  0  0  0  0
  189.4180  171.9250  145.1940 O   0  0  0  0  0  1  0  0  0  0  0  0
  191.4150  171.8410  144.0680 O   0  0  0  0  0  0  0  0  0  0  0  0
  1 29  1  1  0  0  0
  1  3  1  0  0  0  0
  2  9  1  0  0  0  0
  2  4  1  0  0  0  0
  3  7  2  0  0  0  0
  3 15  1  0  0  0  0
  4 10  1  0  0  0  0
  5 10  1  0  0  0  0
  5  7  1  0  0  0  0
  7 14  1  0  0  0  0
  8 11  1  0  0  0  0
  8  1  1  0  0  0  0
  9 11  1  0  0  0  0
 10  6  1  6  0  0  0
 11  5  2  0  0  0  0
 12 13  1  0  0  0  0
 14 12  1  0  0  0  0
 14 13  1  0  0  0  0
 15 16  1  0  0  0  0
 16 17  1  0  0  0  0
 17 18  1  0  0  0  0
 19 20  2  0  0  0  0
 19 18  1  0  0  0  0
 21 28  1  6  0  0  0
 21 24  1  0  0  0  0
 22 24  1  0  0  0  0
 23 22  1  0  0  0  0
 23 25  1  0  0  0  0
 24 19  1  1  0  0  0
 25 21  1  0  0  0  0
 28 26  1  0  0  0  0
 28 27  1  0  0  0  0
 30 29  1  6  0  0  0
 30 39  1  0  0  0  0
 31 32  1  1  0  0  0
 31 30  1  0  0  0  0
 33 31  1  0  0  0  0
 35 34  2  0  0  0  0
 35 33  1  0  0  0  0
 36 35  1  0  0  0  0
 37 36  2  0  0  0  0
 38 36  1  0  0  0  0
 39 40  1  0  0  0  0
 40 41  1  0  0  0  0
 42 40  2  0  0  0  0
M  END
>  <MODEL>
7

>  <REMARK>
 VINA RESULT:      -6.6      1.717      6.211
  Name = 
  16 active torsions:
  status: ('A' for Active; 'I' for Inactive)
    1  A    between atoms: C_1  and  O_14
    2  A    between atoms: C_2  and  C_39
    3  A    between atoms: C_2  and  C_40
    4  A    between atoms: C_3  and  C_25
    5  A    between atoms: C_7  and  C_28
    6  A    between atoms: C_8  and  C_17
    7  A    between atoms: C_9  and  C_32
    8  A    between atoms: C_9  and  C_38
    9  A    between atoms: O_14  and  C_38
   10  A    between atoms: C_19  and  C_31
   11  A    between atoms: C_23  and  C_28
   12  A    between atoms: C_23  and  C_34
   13  A    between atoms: C_24  and  C_41
   14  A    between atoms: C_25  and  C_38
   15  A    between atoms: C_32  and  C_41
   16  A    between atoms: C_34  and  C_40
                            x       y       z     vdW  Elec       q    Type
                         _______ _______ _______ _____ _____    ______ ____

>  <TORSDO>
F 16

$$$$
=
 OpenBabel11062420053D

 42 45  0  0  1  0  0  0  0  0999 V2000
  187.7170  175.5640  144.1730 C   0  0  1  0  0  3  0  0  0  0  0  0
  184.0230  177.9230  142.3190 C   0  0  0  0  0  2  0  0  0  0  0  0
  187.7330  176.4100  145.4340 C   0  0  0  0  0  0  0  0  0  0  0  0
  183.7730  178.6850  143.6340 C   0  0  0  0  0  2  0  0  0  0  0  0
  186.0530  177.8830  144.3860 C   0  0  0  0  0  0  0  0  0  0  0  0
  185.6170  180.1840  143.9560 O   0  0  0  0  0  1  0  0  0  0  0  0
  186.8940  177.4680  145.5700 C   0  0  0  0  0  0  0  0  0  0  0  0
  187.2030  176.2860  143.0590 O   0  0  0  0  0  0  0  0  0  0  0  0
  185.5050  177.7580  141.9840 C   0  0  0  0  0  2  0  0  0  0  0  0
  185.0420  179.0070  144.4400 C   0  0  1  0  0  3  0  0  0  0  0  0
  186.2590  177.2970  143.1950 C   0  0  0  0  0  0  0  0  0  0  0  0
  185.9400  177.5590  147.9480 C   0  0  0  0  0  2  0  0  0  0  0  0
  185.5650  178.8520  147.2370 C   0  0  0  0  0  2  0  0  0  0  0  0
  186.8830  178.1680  146.9310 C   0  0  0  0  0  3  0  0  0  0  0  0
  188.5590  175.9290  146.6020 C   0  0  0  0  0  2  0  0  0  0  0  0
  189.8640  176.7060  146.7220 C   0  0  0  0  0  2  0  0  0  0  0  0
  191.0700  175.7900  146.5720 C   0  0  0  0  0  2  0  0  0  0  0  0
  192.3560  176.5500  146.8580 C   0  0  0  0  0  2  0  0  0  0  0  0
  193.5360  175.9080  146.1750 C   0  0  0  0  0  0  0  0  0  0  0  0
  194.6370  175.9780  146.6990 O   0  0  0  0  0  0  0  0  0  0  0  0
  194.2590  173.9270  144.7810 C   0  0  2  0  0  3  0  0  0  0  0  0
  193.9010  176.0380  143.7360 C   0  0  0  0  0  2  0  0  0  0  0  0
  194.6800  175.2530  142.8720 O   0  0  0  0  0  0  0  0  0  0  0  0
  193.3980  175.1670  144.8700 C   0  0  2  0  0  3  0  0  0  0  0  0
  195.2450  174.2590  143.6840 C   0  0  0  0  0  2  0  0  0  0  0  0
  191.9570  172.8110  144.6370 C   0  0  0  0  0  1  0  0  0  0  0  0
  193.9720  171.4700  145.2140 C   0  0  0  0  0  1  0  0  0  0  0  0
  193.4610  172.6630  144.4310 C   0  0  0  0  0  3  0  0  0  0  0  0
  189.1010  175.0080  143.8230 C   0  0  0  0  0  2  0  0  0  0  0  0
  189.5690  175.3910  142.4160 C   0  0  2  0  0  3  0  0  0  0  0  0
  189.9110  174.1640  141.5630 C   0  0  1  0  0  3  0  0  0  0  0  0
  189.1700  174.1900  140.3780 O   0  0  0  0  0  1  0  0  0  0  0  0
  191.3940  174.1260  141.2050 C   0  0  0  0  0  2  0  0  0  0  0  0
  191.9750  173.7860  138.9150 O   0  0  0  0  0  0  0  0  0  0  0  0
  191.6520  173.2580  140.0130 C   0  0  0  0  0  0  0  0  0  0  0  0
  191.5720  171.7940  140.1190 C   0  0  0  0  0  0  0  0  0  0  0  0
  191.2000  171.1110  139.1270 O   0  0  0  0  0  0  0  0  0  0  0  0
  191.9310  171.0930  141.3880 C   0  0  0  0  0  1  0  0  0  0  0  0
  190.6700  176.2880  142.4950 O   0  0  0  0  0  0  0  0  0  0  0  0
  190.4970  177.6200  142.8630 C   0  0  0  0  0  0  0  0  0  0  0  0
  189.5750  178.2960  142.3370 O   0  0  0  0  0  0  0  0  0  0  0  0
  191.3200  178.2050  143.8230 O   0  0  0  0  0  1  0  0  0  0  0  0
  1 29  1  6  0  0  0
  1  3  1  0  0  0  0
  2  4  1  0  0  0  0
  3  7  2  0  0  0  0
  3 15  1  0  0  0  0
  4 10  1  0  0  0  0
  5 10  1  0  0  0  0
  5  7  1  0  0  0  0
  7 14  1  0  0  0  0
  8 11  1  0  0  0  0
  8  1  1  0  0  0  0
  9  2  1  0  0  0  0
  9 11  1  0  0  0  0
 10  6  1  6  0  0  0
 11  5  2  0  0  0  0
 13 12  1  0  0  0  0
 14 13  1  0  0  0  0
 14 12  1  0  0  0  0
 15 16  1  0  0  0  0
 17 16  1  0  0  0  0
 17 18  1  0  0  0  0
 19 20  2  0  0  0  0
 19 18  1  0  0  0  0
 21 28  1  6  0  0  0
 21 24  1  0  0  0  0
 22 24  1  0  0  0  0
 23 25  1  0  0  0  0
 23 22  1  0  0  0  0
 24 19  1  1  0  0  0
 25 21  1  0  0  0  0
 28 26  1  0  0  0  0
 28 27  1  0  0  0  0
 30 39  1  0  0  0  0
 30 29  1  1  0  0  0
 31 32  1  6  0  0  0
 31 30  1  0  0  0  0
 33 31  1  0  0  0  0
 34 35  2  0  0  0  0
 35 36  1  0  0  0  0
 35 33  1  0  0  0  0
 36 38  1  0  0  0  0
 37 36  2  0  0  0  0
 39 40  1  0  0  0  0
 40 42  1  0  0  0  0
 41 40  2  0  0  0  0
M  END
>  <MODEL>
8

>  <REMARK>
 VINA RESULT:      -6.5      1.884      6.321
  Name = 
  16 active torsions:
  status: ('A' for Active; 'I' for Inactive)
    1  A    between atoms: C_1  and  O_14
    2  A    between atoms: C_2  and  C_39
    3  A    between atoms: C_2  and  C_40
    4  A    between atoms: C_3  and  C_25
    5  A    between atoms: C_7  and  C_28
    6  A    between atoms: C_8  and  C_17
    7  A    between atoms: C_9  and  C_32
    8  A    between atoms: C_9  and  C_38
    9  A    between atoms: O_14  and  C_38
   10  A    between atoms: C_19  and  C_31
   11  A    between atoms: C_23  and  C_28
   12  A    between atoms: C_23  and  C_34
   13  A    between atoms: C_24  and  C_41
   14  A    between atoms: C_25  and  C_38
   15  A    between atoms: C_32  and  C_41
   16  A    between atoms: C_34  and  C_40
                            x       y       z     vdW  Elec       q    Type
                         _______ _______ _______ _____ _____    ______ ____

>  <TORSDO>
F 16

$$$$
=
 OpenBabel11062420053D

 42 45  0  0  1  0  0  0  0  0999 V2000
  189.3270  177.9150  144.6320 C   0  0  1  0  0  3  0  0  0  0  0  0
  186.0740  178.9470  147.9480 C   0  0  0  0  0  2  0  0  0  0  0  0
  188.2840  177.4590  143.6280 C   0  0  0  0  0  0  0  0  0  0  0  0
  184.9130  178.7500  146.9560 C   0  0  0  0  0  2  0  0  0  0  0  0
  186.5870  177.6460  145.4100 C   0  0  0  0  0  0  0  0  0  0  0  0
  184.8170  176.4150  146.4200 O   0  0  0  0  0  1  0  0  0  0  0  0
  186.9710  177.4000  143.9710 C   0  0  0  0  0  0  0  0  0  0  0  0
  188.8920  177.7210  145.9730 O   0  0  0  0  0  0  0  0  0  0  0  0
  187.1950  177.9200  147.7860 C   0  0  0  0  0  2  0  0  0  0  0  0
  185.1540  177.6640  145.8950 C   0  0  1  0  0  3  0  0  0  0  0  0
  187.5510  177.7710  146.3370 C   0  0  0  0  0  0  0  0  0  0  0  0
  185.7820  178.1760  141.8370 C   0  0  0  0  0  2  0  0  0  0  0  0
  184.7250  177.9160  142.9010 C   0  0  0  0  0  2  0  0  0  0  0  0
  185.9810  177.0700  142.8520 C   0  0  0  0  0  3  0  0  0  0  0  0
  188.7120  177.2660  142.1940 C   0  0  0  0  0  2  0  0  0  0  0  0
  189.1110  175.8220  141.9190 C   0  0  0  0  0  2  0  0  0  0  0  0
  188.1830  175.1730  140.9030 C   0  0  0  0  0  2  0  0  0  0  0  0
  188.8180  173.9200  140.3220 C   0  0  0  0  0  2  0  0  0  0  0  0
  189.1900  172.9410  141.4050 C   0  0  0  0  0  0  0  0  0  0  0  0
  188.3170  172.5080  142.1410 O   0  0  0  0  0  0  0  0  0  0  0  0
  191.6410  173.3500  140.9400 C   0  0  2  0  0  3  0  0  0  0  0  0
  190.7890  171.1240  140.9140 C   0  0  0  0  0  2  0  0  0  0  0  0
  192.0150  171.1270  140.2290 O   0  0  0  0  0  0  0  0  0  0  0  0
  190.6070  172.4640  141.5990 C   0  0  2  0  0  3  0  0  0  0  0  0
  192.2310  172.4640  139.8660 C   0  0  0  0  0  2  0  0  0  0  0  0
  192.8280  175.3440  142.0270 C   0  0  0  0  0  1  0  0  0  0  0  0
  194.0810  173.2540  141.5250 C   0  0  0  0  0  1  0  0  0  0  0  0
  192.7310  173.8260  141.9100 C   0  0  0  0  0  3  0  0  0  0  0  0
  190.6770  177.2180  144.4310 C   0  0  0  0  0  2  0  0  0  0  0  0
  190.9660  176.1450  145.4850 C   0  0  2  0  0  3  0  0  0  0  0  0
  192.2060  176.4740  146.3240 C   0  0  1  0  0  3  0  0  0  0  0  0
  191.9150  176.3120  147.6820 O   0  0  0  0  0  1  0  0  0  0  0  0
  193.3800  175.5660  145.9700 C   0  0  0  0  0  2  0  0  0  0  0  0
  194.6710  177.5630  145.7700 O   0  0  0  0  0  0  0  0  0  0  0  0
  194.5480  176.3480  145.4560 C   0  0  0  0  0  0  0  0  0  0  0  0
  195.5740  175.7050  144.6230 C   0  0  0  0  0  0  0  0  0  0  0  0
  195.9590  174.5360  144.8910 O   0  0  0  0  0  0  0  0  0  0  0  0
  196.1720  176.4150  143.4530 C   0  0  0  0  0  1  0  0  0  0  0  0
  191.0870  174.8710  144.8640 O   0  0  0  0  0  0  0  0  0  0  0  0
  190.1000  173.8980  145.0060 C   0  0  0  0  0  0  0  0  0  0  0  0
  188.8950  174.2440  145.1110 O   0  0  0  0  0  1  0  0  0  0  0  0
  190.4320  172.5450  145.0130 O   0  0  0  0  0  0  0  0  0  0  0  0
  1 29  1  6  0  0  0
  1  8  1  0  0  0  0
  3  7  2  0  0  0  0
  3  1  1  0  0  0  0
  4  2  1  0  0  0  0
  5 10  1  0  0  0  0
  5 11  2  0  0  0  0
  7  5  1  0  0  0  0
  8 11  1  0  0  0  0
  9  2  1  0  0  0  0
 10  6  1  1  0  0  0
 10  4  1  0  0  0  0
 11  9  1  0  0  0  0
 12 14  1  0  0  0  0
 12 13  1  0  0  0  0
 14 13  1  0  0  0  0
 14  7  1  0  0  0  0
 15  3  1  0  0  0  0
 16 15  1  0  0  0  0
 17 16  1  0  0  0  0
 18 17  1  0  0  0  0
 18 19  1  0  0  0  0
 19 20  2  0  0  0  0
 21 24  1  0  0  0  0
 21 28  1  1  0  0  0
 22 24  1  0  0  0  0
 23 22  1  0  0  0  0
 24 19  1  6  0  0  0
 25 23  1  0  0  0  0
 25 21  1  0  0  0  0
 27 28  1  0  0  0  0
 28 26  1  0  0  0  0
 30 29  1  6  0  0  0
 30 31  1  0  0  0  0
 31 32  1  1  0  0  0
 33 31  1  0  0  0  0
 35 34  2  0  0  0  0
 35 33  1  0  0  0  0
 36 37  2  0  0  0  0
 36 35  1  0  0  0  0
 38 36  1  0  0  0  0
 39 40  1  0  0  0  0
 39 30  1  0  0  0  0
 40 42  2  0  0  0  0
 40 41  1  0  0  0  0
M  END
>  <MODEL>
9

>  <REMARK>
 VINA RESULT:      -6.4      2.203      7.299
  Name = 
  16 active torsions:
  status: ('A' for Active; 'I' for Inactive)
    1  A    between atoms: C_1  and  O_14
    2  A    between atoms: C_2  and  C_39
    3  A    between atoms: C_2  and  C_40
    4  A    between atoms: C_3  and  C_25
    5  A    between atoms: C_7  and  C_28
    6  A    between atoms: C_8  and  C_17
    7  A    between atoms: C_9  and  C_32
    8  A    between atoms: C_9  and  C_38
    9  A    between atoms: O_14  and  C_38
   10  A    between atoms: C_19  and  C_31
   11  A    between atoms: C_23  and  C_28
   12  A    between atoms: C_23  and  C_34
   13  A    between atoms: C_24  and  C_41
   14  A    between atoms: C_25  and  C_38
   15  A    between atoms: C_32  and  C_41
   16  A    between atoms: C_34  and  C_40
                            x       y       z     vdW  Elec       q    Type
                         _______ _______ _______ _____ _____    ______ ____

>  <TORSDO>
F 16

$$$$
