=
 OpenBabel11062418563D

 33 38  0  0  1  0  0  0  0  0999 V2000
  187.5130  176.5590  145.1460 C   0  0  0  0  0  0  0  0  0  0  0  0
  189.8450  175.0180  142.7930 N   0  0  0  0  0  0  0  0  0  0  0  0
  190.5680  176.7470  146.2020 C   0  0  1  0  0  3  0  0  0  0  0  0
  186.1950  176.9660  145.1360 C   0  0  0  0  0  0  0  0  0  0  0  0
  190.4290  175.6130  145.1490 C   0  0  2  0  0  3  0  0  0  0  0  0
  190.7950  174.1310  142.7410 C   0  0  0  0  0  0  0  0  0  0  0  0
  186.8700  176.9680  147.4100 C   0  0  0  0  0  2  0  0  0  0  0  0
  192.5650  174.5890  146.0140 C   0  0  0  0  0  2  0  0  0  0  0  0
  191.5810  177.3340  148.3080 O   0  0  0  0  0  1  0  0  0  0  0  0
  188.2740  175.1150  146.8770 O   0  0  0  0  0  1  0  0  0  0  0  0
  191.8350  175.1050  144.7860 C   0  0  1  0  0  3  0  0  0  0  0  0
  192.7420  175.7290  147.0020 C   0  0  0  0  0  2  0  0  0  0  0  0
  189.2420  177.3360  146.7060 C   0  0  0  0  0  2  0  0  0  0  0  0
  185.5100  177.1940  143.9410 C   0  0  0  0  0  3  0  0  0  0  0  0
  189.7060  176.0390  143.8420 C   0  0  2  0  0  3  0  0  0  0  0  0
  191.7570  174.0520  143.7890 N   0  0  0  0  0  2  0  0  0  0  0  0
  187.5480  176.6660  142.7370 C   0  0  0  0  0  3  0  0  0  0  0  0
  186.1980  177.0390  142.7350 C   0  0  0  0  0  3  0  0  0  0  0  0
  191.3830  176.2750  147.4190 C   0  0  2  0  0  3  0  0  0  0  0  0
  185.6520  177.1640  146.5010 C   0  0  1  0  0  3  0  0  0  0  0  0
  188.2360  176.4100  143.9410 C   0  0  0  0  0  0  0  0  0  0  0  0
  188.0170  176.4470  146.5370 C   0  0  1  0  0  0  0  0  0  0  0  0
  188.4450  173.0520  140.6830 C   0  0  0  0  0  2  0  0  0  0  0  0
  189.7170  172.7220  137.1850 O   0  0  0  0  0  1  0  0  0  0  0  0
  188.5730  172.5220  139.2610 C   0  0  0  0  0  2  0  0  0  0  0  0
  191.0780  172.8300  139.1330 C   0  0  0  0  0  2  0  0  0  0  0  0
  191.3140  173.7240  140.3420 C   0  0  0  0  0  2  0  0  0  0  0  0
  189.7310  173.1680  138.5060 C   0  0  1  0  0  3  0  0  0  0  0  0
  189.4680  172.3670  141.5780 C   0  0  0  0  0  2  0  0  0  0  0  0
  190.8120  173.1080  141.6530 C   0  0  2  0  0  3  0  0  0  0  0  0
  185.7500  179.4350  147.2750 O   0  0  0  0  0  1  0  0  0  0  0  0
  183.8230  178.8300  146.1950 O   0  0  0  0  0  0  0  0  0  0  0  0
  185.0890  178.5400  146.6840 C   0  0  0  0  0  0  0  0  0  0  0  0
  1 22  1  0  0  0  0
  2 15  1  0  0  0  0
  3 13  1  1  0  0  0
  3 19  1  0  0  0  0
  4  1  1  0  0  0  0
  4 20  1  0  0  0  0
  5  3  1  0  0  0  0
  6  2  2  0  0  0  0
  6 16  1  0  0  0  0
  8 12  1  0  0  0  0
 11  5  1  0  0  0  0
 11  8  1  0  0  0  0
 12 19  1  0  0  0  0
 14  4  2  0  0  0  0
 15 21  1  0  0  0  0
 15  5  1  0  0  0  0
 16 11  1  0  0  0  0
 17 21  1  0  0  0  0
 18 17  2  0  0  0  0
 18 14  1  0  0  0  0
 19  9  1  0  0  0  0
 20 33  1  0  0  0  0
 20  7  1  0  0  0  0
 21  1  2  0  0  0  0
 22 13  1  0  0  0  0
 22 10  1  0  0  0  0
 22  7  1  0  0  0  0
 23 29  1  0  0  0  0
 24 28  1  0  0  0  0
 25 23  1  0  0  0  0
 26 27  1  0  0  0  0
 27 30  1  0  0  0  0
 28 26  1  0  0  0  0
 28 25  1  0  0  0  0
 29 30  1  0  0  0  0
 30  6  1  0  0  0  0
 32 33  2  0  0  0  0
 33 31  1  0  0  0  0
M  END
>  <MODEL>
1

>  <REMARK>
 VINA RESULT:      -9.5      0.000      0.000
  Name = 
  2 active torsions:
  status: ('A' for Active; 'I' for Inactive)
    1  A    between atoms: C_11  and  C_32
    2  A    between atoms: C_18  and  C_30
                            x       y       z     vdW  Elec       q    Type
                         _______ _______ _______ _____ _____    ______ ____

>  <TORSDO>
F 2

$$$$
=
 OpenBabel11062418563D

 33 38  0  0  1  0  0  0  0  0999 V2000
  187.7090  176.7270  145.0050 C   0  0  0  0  0  0  0  0  0  0  0  0
  190.3580  175.7720  142.6760 N   0  0  0  0  0  0  0  0  0  0  0  0
  190.6380  176.9910  146.3600 C   0  0  1  0  0  3  0  0  0  0  0  0
  186.3640  177.0230  144.9330 C   0  0  0  0  0  0  0  0  0  0  0  0
  190.6920  176.0310  145.1400 C   0  0  2  0  0  3  0  0  0  0  0  0
  191.3880  174.9840  142.5810 C   0  0  0  0  0  0  0  0  0  0  0  0
  186.8510  176.7190  147.2350 C   0  0  0  0  0  2  0  0  0  0  0  0
  192.8390  175.0570  146.0370 C   0  0  0  0  0  2  0  0  0  0  0  0
  191.4190  177.3150  148.6160 O   0  0  0  0  0  1  0  0  0  0  0  0
  188.4610  175.0930  146.5630 O   0  0  0  0  0  1  0  0  0  0  0  0
  192.1640  175.7020  144.8380 C   0  0  1  0  0  3  0  0  0  0  0  0
  192.8270  176.0370  147.1970 C   0  0  0  0  0  2  0  0  0  0  0  0
  189.2270  177.3830  146.8210 C   0  0  0  0  0  2  0  0  0  0  0  0
  185.7590  177.3820  143.7270 C   0  0  0  0  0  3  0  0  0  0  0  0
  190.0390  176.5990  143.8490 C   0  0  2  0  0  3  0  0  0  0  0  0
  192.2660  174.8180  143.6900 N   0  0  0  0  0  2  0  0  0  0  0  0
  187.9280  177.2170  142.6550 C   0  0  0  0  0  3  0  0  0  0  0  0
  186.5530  177.4770  142.5820 C   0  0  0  0  0  3  0  0  0  0  0  0
  191.3940  176.3990  147.5630 C   0  0  2  0  0  3  0  0  0  0  0  0
  185.6970  176.9570  146.2560 C   0  0  1  0  0  3  0  0  0  0  0  0
  188.5380  176.8310  143.8650 C   0  0  0  0  0  0  0  0  0  0  0  0
  188.1080  176.4370  146.4050 C   0  0  1  0  0  0  0  0  0  0  0  0
  191.0010  171.7500  142.0170 C   0  0  0  0  0  2  0  0  0  0  0  0
  189.2760  171.1110  138.7650 O   0  0  0  0  0  1  0  0  0  0  0  0
  190.6100  171.0320  140.7330 C   0  0  0  0  0  2  0  0  0  0  0  0
  190.3590  173.1420  139.3650 C   0  0  0  0  0  2  0  0  0  0  0  0
  190.3400  174.1920  140.4670 C   0  0  0  0  0  2  0  0  0  0  0  0
  189.6810  171.8710  139.8610 C   0  0  1  0  0  3  0  0  0  0  0  0
  192.1080  172.7540  141.7250 C   0  0  0  0  0  2  0  0  0  0  0  0
  191.5880  174.1510  141.3570 C   0  0  2  0  0  3  0  0  0  0  0  0
  183.7940  178.4220  146.2520 O   0  0  0  0  0  0  0  0  0  0  0  0
  185.6730  179.2290  147.2840 O   0  0  0  0  0  1  0  0  0  0  0  0
  184.9940  178.2370  146.5910 C   0  0  0  0  0  0  0  0  0  0  0  0
  1 22  1  0  0  0  0
  2 15  1  0  0  0  0
  3 13  1  1  0  0  0
  3 19  1  0  0  0  0
  4  1  1  0  0  0  0
  4 20  1  0  0  0  0
  5  3  1  0  0  0  0
  6  2  2  0  0  0  0
  6 16  1  0  0  0  0
  8 12  1  0  0  0  0
 11  5  1  0  0  0  0
 11  8  1  0  0  0  0
 12 19  1  0  0  0  0
 14  4  2  0  0  0  0
 15 21  1  0  0  0  0
 15  5  1  0  0  0  0
 16 11  1  0  0  0  0
 17 21  1  0  0  0  0
 18 17  2  0  0  0  0
 18 14  1  0  0  0  0
 19  9  1  0  0  0  0
 20 33  1  0  0  0  0
 20  7  1  0  0  0  0
 21  1  2  0  0  0  0
 22 10  1  0  0  0  0
 22 13  1  0  0  0  0
 22  7  1  0  0  0  0
 24 28  1  0  0  0  0
 25 23  1  0  0  0  0
 26 28  1  0  0  0  0
 26 27  1  0  0  0  0
 27 30  1  0  0  0  0
 28 25  1  0  0  0  0
 29 23  1  0  0  0  0
 30 29  1  0  0  0  0
 30  6  1  0  0  0  0
 31 33  2  0  0  0  0
 33 32  1  0  0  0  0
M  END
>  <MODEL>
2

>  <REMARK>
 VINA RESULT:      -9.4      0.875      1.294
  Name = 
  2 active torsions:
  status: ('A' for Active; 'I' for Inactive)
    1  A    between atoms: C_11  and  C_32
    2  A    between atoms: C_18  and  C_30
                            x       y       z     vdW  Elec       q    Type
                         _______ _______ _______ _____ _____    ______ ____

>  <TORSDO>
F 2

$$$$
=
 OpenBabel11062418563D

 33 38  0  0  1  0  0  0  0  0999 V2000
  188.1960  176.6570  144.1350 C   0  0  0  0  0  0  0  0  0  0  0  0
  190.8910  174.3900  145.1120 N   0  0  0  0  0  0  0  0  0  0  0  0
  188.7780  174.4410  141.8460 C   0  0  1  0  0  3  0  0  0  0  0  0
  187.3980  177.5960  144.7530 C   0  0  0  0  0  0  0  0  0  0  0  0
  190.0100  174.5870  142.7810 C   0  0  2  0  0  3  0  0  0  0  0  0
  192.0250  173.9200  144.6840 C   0  0  0  0  0  0  0  0  0  0  0  0
  187.1100  177.9150  142.4190 C   0  0  0  0  0  2  0  0  0  0  0  0
  191.4520  173.5360  140.9990 C   0  0  0  0  0  2  0  0  0  0  0  0
  188.1000  174.1860  139.5480 O   0  0  0  0  0  1  0  0  0  0  0  0
  189.3870  177.2540  142.1630 O   0  0  0  0  0  1  0  0  0  0  0  0
  191.0130  173.4680  142.4520 C   0  0  1  0  0  3  0  0  0  0  0  0
  190.2410  173.3300  140.1050 C   0  0  0  0  0  2  0  0  0  0  0  0
  187.6960  175.5170  142.0180 C   0  0  0  0  0  2  0  0  0  0  0  0
  187.2320  177.6150  146.1380 C   0  0  0  0  0  3  0  0  0  0  0  0
  189.6740  174.5180  144.2970 C   0  0  2  0  0  3  0  0  0  0  0  0
  192.1770  173.5540  143.3150 N   0  0  0  0  0  2  0  0  0  0  0  0
  188.6440  175.6490  146.2790 C   0  0  0  0  0  3  0  0  0  0  0  0
  187.8640  176.6310  146.9030 C   0  0  0  0  0  3  0  0  0  0  0  0
  189.2060  174.4160  140.3670 C   0  0  2  0  0  3  0  0  0  0  0  0
  186.7380  178.5040  143.7840 C   0  0  1  0  0  3  0  0  0  0  0  0
  188.8350  175.6410  144.8820 C   0  0  0  0  0  0  0  0  0  0  0  0
  188.1540  176.8200  142.6600 C   0  0  1  0  0  0  0  0  0  0  0  0
  194.7940  172.1160  144.6200 C   0  0  0  0  0  2  0  0  0  0  0  0
  197.8130  174.1910  145.3550 O   0  0  0  0  0  1  0  0  0  0  0  0
  196.1900  172.4690  145.1150 C   0  0  0  0  0  2  0  0  0  0  0  0
  195.5730  174.7960  145.8820 C   0  0  0  0  0  2  0  0  0  0  0  0
  194.2220  174.9680  145.2040 C   0  0  0  0  0  2  0  0  0  0  0  0
  196.4870  173.9600  144.9940 C   0  0  1  0  0  3  0  0  0  0  0  0
  193.7700  172.4520  145.6960 C   0  0  0  0  0  2  0  0  0  0  0  0
  193.2130  173.8800  145.5890 C   0  0  2  0  0  3  0  0  0  0  0  0
  184.5290  177.6510  143.3790 O   0  0  0  0  0  0  0  0  0  0  0  0
  184.6570  179.4810  144.7510 O   0  0  0  0  0  1  0  0  0  0  0  0
  185.2490  178.5120  143.9520 C   0  0  0  0  0  0  0  0  0  0  0  0
  1  4  2  0  0  0  0
  1 21  1  0  0  0  0
  3 13  1  6  0  0  0
  3  5  1  0  0  0  0
  4 14  1  0  0  0  0
  5 15  1  0  0  0  0
  6  2  2  0  0  0  0
  6 30  1  0  0  0  0
  7 22  1  0  0  0  0
  7 20  1  0  0  0  0
  8 11  1  0  0  0  0
  9 19  1  0  0  0  0
 10 22  1  0  0  0  0
 11  5  1  0  0  0  0
 11 16  1  0  0  0  0
 12 19  1  0  0  0  0
 12  8  1  0  0  0  0
 13 22  1  0  0  0  0
 14 18  2  0  0  0  0
 15 21  1  0  0  0  0
 15  2  1  0  0  0  0
 16  6  1  0  0  0  0
 17 18  1  0  0  0  0
 19  3  1  0  0  0  0
 20 33  1  0  0  0  0
 20  4  1  0  0  0  0
 21 17  2  0  0  0  0
 22  1  1  0  0  0  0
 23 25  1  0  0  0  0
 23 29  1  0  0  0  0
 27 30  1  0  0  0  0
 27 26  1  0  0  0  0
 28 25  1  0  0  0  0
 28 24  1  0  0  0  0
 28 26  1  0  0  0  0
 30 29  1  0  0  0  0
 31 33  2  0  0  0  0
 33 32  1  0  0  0  0
M  END
>  <MODEL>
3

>  <REMARK>
 VINA RESULT:      -8.9      2.517      5.562
  Name = 
  2 active torsions:
  status: ('A' for Active; 'I' for Inactive)
    1  A    between atoms: C_11  and  C_32
    2  A    between atoms: C_18  and  C_30
                            x       y       z     vdW  Elec       q    Type
                         _______ _______ _______ _____ _____    ______ ____

>  <TORSDO>
F 2

$$$$
=
 OpenBabel11062418563D

 33 38  0  0  1  0  0  0  0  0999 V2000
  187.4420  176.5360  145.1850 C   0  0  0  0  0  0  0  0  0  0  0  0
  189.9290  175.0480  142.9580 N   0  0  0  0  0  0  0  0  0  0  0  0
  190.4430  176.8720  146.3560 C   0  0  1  0  0  3  0  0  0  0  0  0
  186.1110  176.8870  145.1140 C   0  0  0  0  0  0  0  0  0  0  0  0
  190.3930  175.7130  145.3230 C   0  0  2  0  0  3  0  0  0  0  0  0
  190.9150  174.2010  142.9630 C   0  0  0  0  0  0  0  0  0  0  0  0
  186.6930  176.9610  147.4130 C   0  0  0  0  0  2  0  0  0  0  0  0
  192.5320  174.7950  146.2930 C   0  0  0  0  0  2  0  0  0  0  0  0
  191.3450  177.5410  148.4880 O   0  0  0  0  0  1  0  0  0  0  0  0
  188.1910  175.1590  146.9750 O   0  0  0  0  0  1  0  0  0  0  0  0
  191.8320  175.2570  145.0260 C   0  0  1  0  0  3  0  0  0  0  0  0
  192.6220  175.9610  147.2620 C   0  0  0  0  0  2  0  0  0  0  0  0
  189.0750  177.4140  146.7960 C   0  0  0  0  0  2  0  0  0  0  0  0
  185.4660  177.0630  143.8890 C   0  0  0  0  0  3  0  0  0  0  0  0
  189.7060  176.0820  143.9790 C   0  0  2  0  0  3  0  0  0  0  0  0
  191.8370  174.1830  144.0490 N   0  0  0  0  0  2  0  0  0  0  0  0
  187.5700  176.5970  142.7780 C   0  0  0  0  0  3  0  0  0  0  0  0
  186.2070  176.9140  142.7140 C   0  0  0  0  0  3  0  0  0  0  0  0
  191.2270  176.4580  147.6150 C   0  0  2  0  0  3  0  0  0  0  0  0
  185.5060  177.0880  146.4530 C   0  0  1  0  0  3  0  0  0  0  0  0
  188.2190  176.3940  144.0130 C   0  0  0  0  0  0  0  0  0  0  0  0
  187.8940  176.4720  146.5970 C   0  0  1  0  0  0  0  0  0  0  0  0
  192.8900  173.9180  140.3280 C   0  0  0  0  0  2  0  0  0  0  0  0
  194.1960  170.4380  139.9470 O   0  0  0  0  0  1  0  0  0  0  0  0
  193.4140  172.6640  139.6420 C   0  0  0  0  0  2  0  0  0  0  0  0
  192.2930  171.0540  141.2350 C   0  0  0  0  0  2  0  0  0  0  0  0
  191.9050  171.9980  142.3630 C   0  0  0  0  0  2  0  0  0  0  0  0
  193.6110  171.5100  140.6200 C   0  0  1  0  0  3  0  0  0  0  0  0
  191.3880  173.7910  140.5480 C   0  0  0  0  0  2  0  0  0  0  0  0
  191.0180  173.1580  141.8980 C   0  0  2  0  0  3  0  0  0  0  0  0
  183.7220  178.6650  146.1380 O   0  0  0  0  0  0  0  0  0  0  0  0
  185.5840  179.4640  147.2090 O   0  0  0  0  0  1  0  0  0  0  0  0
  184.8790  178.4430  146.5850 C   0  0  0  0  0  0  0  0  0  0  0  0
  1 22  1  0  0  0  0
  2  6  2  0  0  0  0
  2 15  1  0  0  0  0
  3 13  1  1  0  0  0
  3 19  1  0  0  0  0
  4  1  1  0  0  0  0
  4 20  1  0  0  0  0
  5  3  1  0  0  0  0
  6 16  1  0  0  0  0
  8 12  1  0  0  0  0
 11  5  1  0  0  0  0
 11  8  1  0  0  0  0
 12 19  1  0  0  0  0
 14  4  2  0  0  0  0
 15 21  1  0  0  0  0
 15  5  1  0  0  0  0
 16 11  1  0  0  0  0
 17 21  1  0  0  0  0
 18 17  2  0  0  0  0
 18 14  1  0  0  0  0
 19  9  1  0  0  0  0
 20 33  1  0  0  0  0
 20  7  1  0  0  0  0
 21  1  2  0  0  0  0
 22 13  1  0  0  0  0
 22 10  1  0  0  0  0
 22  7  1  0  0  0  0
 23 29  1  0  0  0  0
 24 28  1  0  0  0  0
 25 23  1  0  0  0  0
 25 28  1  0  0  0  0
 26 27  1  0  0  0  0
 28 26  1  0  0  0  0
 29 30  1  0  0  0  0
 30 27  1  0  0  0  0
 30  6  1  0  0  0  0
 31 33  2  0  0  0  0
 33 32  1  0  0  0  0
M  END
>  <MODEL>
4

>  <REMARK>
 VINA RESULT:      -8.8      1.425      2.018
  Name = 
  2 active torsions:
  status: ('A' for Active; 'I' for Inactive)
    1  A    between atoms: C_11  and  C_32
    2  A    between atoms: C_18  and  C_30
                            x       y       z     vdW  Elec       q    Type
                         _______ _______ _______ _____ _____    ______ ____

>  <TORSDO>
F 2

$$$$
=
 OpenBabel11062418563D

 33 38  0  0  1  0  0  0  0  0999 V2000
  192.6770  174.3930  144.7030 C   0  0  0  0  0  0  0  0  0  0  0  0
  190.0070  176.7810  143.9790 N   0  0  0  0  0  0  0  0  0  0  0  0
  191.0080  173.5480  142.0600 C   0  0  1  0  0  3  0  0  0  0  0  0
  193.7940  174.3470  145.5110 C   0  0  0  0  0  0  0  0  0  0  0  0
  190.1690  174.5110  142.9430 C   0  0  2  0  0  3  0  0  0  0  0  0
  188.7270  176.8320  143.7560 C   0  0  0  0  0  0  0  0  0  0  0  0
  193.4250  172.1260  144.7650 C   0  0  0  0  0  2  0  0  0  0  0  0
  188.0800  173.7170  141.7750 C   0  0  0  0  0  2  0  0  0  0  0  0
  190.9020  171.5550  140.7110 O   0  0  0  0  0  1  0  0  0  0  0  0
  191.0930  172.6200  144.8010 O   0  0  0  0  0  1  0  0  0  0  0  0
  188.9120  174.9280  142.1590 C   0  0  1  0  0  3  0  0  0  0  0  0
  188.9010  172.8210  140.8630 C   0  0  0  0  0  2  0  0  0  0  0  0
  192.2830  173.0010  142.7190 C   0  0  0  0  0  2  0  0  0  0  0  0
  194.3680  175.5090  146.0290 C   0  0  0  0  0  3  0  0  0  0  0  0
  190.9230  175.7960  143.3840 C   0  0  2  0  0  3  0  0  0  0  0  0
  188.1020  175.8450  142.9410 N   0  0  0  0  0  2  0  0  0  0  0  0
  192.7030  176.8010  144.8300 C   0  0  0  0  0  3  0  0  0  0  0  0
  193.8130  176.7430  145.6830 C   0  0  0  0  0  3  0  0  0  0  0  0
  190.1600  172.3560  141.5810 C   0  0  2  0  0  3  0  0  0  0  0  0
  194.2990  172.9660  145.7010 C   0  0  1  0  0  3  0  0  0  0  0  0
  192.1040  175.6290  144.3250 C   0  0  0  0  0  0  0  0  0  0  0  0
  192.3060  173.0320  144.2420 C   0  0  1  0  0  0  0  0  0  0  0  0
  185.5390  177.6460  143.4450 C   0  0  0  0  0  2  0  0  0  0  0  0
  183.8980  178.1040  146.7710 O   0  0  0  0  0  1  0  0  0  0  0  0
  184.5710  178.1840  144.4910 C   0  0  0  0  0  2  0  0  0  0  0  0
  186.2450  178.1470  146.3830 C   0  0  0  0  0  2  0  0  0  0  0  0
  187.3420  177.2870  145.7730 C   0  0  0  0  0  2  0  0  0  0  0  0
  184.8860  177.6650  145.8900 C   0  0  1  0  0  3  0  0  0  0  0  0
  186.8370  178.4400  143.4950 C   0  0  0  0  0  2  0  0  0  0  0  0
  187.8820  177.8490  144.4530 C   0  0  2  0  0  3  0  0  0  0  0  0
  196.6250  172.6040  146.1780 O   0  0  0  0  0  1  0  0  0  0  0  0
  196.1030  172.9860  143.9800 O   0  0  0  0  0  0  0  0  0  0  0  0
  195.7400  172.8410  145.3120 C   0  0  0  0  0  0  0  0  0  0  0  0
  1  4  1  0  0  0  0
  3 13  1  1  0  0  0
  3  5  1  0  0  0  0
  4 20  1  0  0  0  0
  4 14  2  0  0  0  0
  5 15  1  0  0  0  0
  6  2  2  0  0  0  0
  6 30  1  0  0  0  0
  7 20  1  0  0  0  0
  8 11  1  0  0  0  0
  9 19  1  0  0  0  0
 11 16  1  0  0  0  0
 11  5  1  0  0  0  0
 12 19  1  0  0  0  0
 12  8  1  0  0  0  0
 13 22  1  0  0  0  0
 15  2  1  0  0  0  0
 15 21  1  0  0  0  0
 16  6  1  0  0  0  0
 17 18  2  0  0  0  0
 18 14  1  0  0  0  0
 19  3  1  0  0  0  0
 21  1  2  0  0  0  0
 21 17  1  0  0  0  0
 22  1  1  0  0  0  0
 22  7  1  0  0  0  0
 22 10  1  0  0  0  0
 23 29  1  0  0  0  0
 23 25  1  0  0  0  0
 25 28  1  0  0  0  0
 27 26  1  0  0  0  0
 28 26  1  0  0  0  0
 28 24  1  0  0  0  0
 29 30  1  0  0  0  0
 30 27  1  0  0  0  0
 32 33  2  0  0  0  0
 33 20  1  0  0  0  0
 33 31  1  0  0  0  0
M  END
>  <MODEL>
5

>  <REMARK>
 VINA RESULT:      -8.8      2.614      7.795
  Name = 
  2 active torsions:
  status: ('A' for Active; 'I' for Inactive)
    1  A    between atoms: C_11  and  C_32
    2  A    between atoms: C_18  and  C_30
                            x       y       z     vdW  Elec       q    Type
                         _______ _______ _______ _____ _____    ______ ____

>  <TORSDO>
F 2

$$$$
=
 OpenBabel11062418563D

 33 38  0  0  1  0  0  0  0  0999 V2000
  187.8220  176.3180  144.3200 C   0  0  0  0  0  0  0  0  0  0  0  0
  188.7190  174.7840  141.1270 N   0  0  0  0  0  0  0  0  0  0  0  0
  191.0210  176.3890  143.8220 C   0  0  1  0  0  3  0  0  0  0  0  0
  186.6710  176.7620  144.9350 C   0  0  0  0  0  0  0  0  0  0  0  0
  190.3620  175.2910  142.9420 C   0  0  2  0  0  3  0  0  0  0  0  0
  189.4980  173.8730  140.6240 C   0  0  0  0  0  0  0  0  0  0  0  0
  188.3320  176.6760  146.6260 C   0  0  0  0  0  2  0  0  0  0  0  0
  192.6120  174.1810  142.6900 C   0  0  0  0  0  2  0  0  0  0  0  0
  192.9240  176.8820  145.2140 O   0  0  0  0  0  1  0  0  0  0  0  0
  189.2490  174.8020  145.4730 O   0  0  0  0  0  1  0  0  0  0  0  0
  191.4120  174.7550  141.9550 C   0  0  1  0  0  3  0  0  0  0  0  0
  193.2750  175.2860  143.4940 C   0  0  0  0  0  2  0  0  0  0  0  0
  190.1100  176.9980  144.8970 C   0  0  0  0  0  2  0  0  0  0  0  0
  185.5150  177.0460  144.2050 C   0  0  0  0  0  3  0  0  0  0  0  0
  189.1270  175.7770  142.1330 C   0  0  2  0  0  3  0  0  0  0  0  0
  190.8360  173.7360  141.0970 N   0  0  0  0  0  2  0  0  0  0  0  0
  186.7300  176.4970  142.1780 C   0  0  0  0  0  3  0  0  0  0  0  0
  185.5510  176.9080  142.8150 C   0  0  0  0  0  3  0  0  0  0  0  0
  192.2930  175.8570  144.5080 C   0  0  2  0  0  3  0  0  0  0  0  0
  186.8390  176.9340  146.3980 C   0  0  1  0  0  3  0  0  0  0  0  0
  187.8910  176.1860  142.9150 C   0  0  0  0  0  0  0  0  0  0  0  0
  188.9150  176.1500  145.3110 C   0  0  1  0  0  0  0  0  0  0  0  0
  189.4820  173.8250  137.3200 C   0  0  0  0  0  2  0  0  0  0  0  0
  190.3850  170.4550  135.9820 O   0  0  0  0  0  1  0  0  0  0  0  0
  189.5180  172.6360  136.3690 C   0  0  0  0  0  2  0  0  0  0  0  0
  189.6340  170.8940  138.1960 C   0  0  0  0  0  2  0  0  0  0  0  0
  189.9820  171.7640  139.3940 C   0  0  0  0  0  2  0  0  0  0  0  0
  190.2980  171.4590  136.9460 C   0  0  1  0  0  3  0  0  0  0  0  0
  188.4240  173.5920  138.3900 C   0  0  0  0  0  2  0  0  0  0  0  0
  188.9630  172.8830  139.6410 C   0  0  2  0  0  3  0  0  0  0  0  0
  186.2590  179.2300  146.0010 O   0  0  0  0  0  0  0  0  0  0  0  0
  186.3910  178.5990  148.2000 O   0  0  0  0  0  1  0  0  0  0  0  0
  186.4810  178.3190  146.8430 C   0  0  0  0  0  0  0  0  0  0  0  0
  1  4  1  0  0  0  0
  1 22  1  0  0  0  0
  2 15  1  0  0  0  0
  3 19  1  0  0  0  0
  3 13  1  1  0  0  0
  4 20  1  0  0  0  0
  5  3  1  0  0  0  0
  6 16  1  0  0  0  0
  6  2  2  0  0  0  0
  8 12  1  0  0  0  0
 11  8  1  0  0  0  0
 11  5  1  0  0  0  0
 12 19  1  0  0  0  0
 13 22  1  0  0  0  0
 14  4  2  0  0  0  0
 15 21  1  0  0  0  0
 15  5  1  0  0  0  0
 16 11  1  0  0  0  0
 17 18  2  0  0  0  0
 17 21  1  0  0  0  0
 18 14  1  0  0  0  0
 19  9  1  0  0  0  0
 20  7  1  0  0  0  0
 20 33  1  0  0  0  0
 21  1  2  0  0  0  0
 22 10  1  0  0  0  0
 22  7  1  0  0  0  0
 23 29  1  0  0  0  0
 24 28  1  0  0  0  0
 25 28  1  0  0  0  0
 25 23  1  0  0  0  0
 26 27  1  0  0  0  0
 27 30  1  0  0  0  0
 28 26  1  0  0  0  0
 29 30  1  0  0  0  0
 30  6  1  0  0  0  0
 31 33  2  0  0  0  0
 33 32  1  0  0  0  0
M  END
>  <MODEL>
6

>  <REMARK>
 VINA RESULT:      -8.2      1.680      2.381
  Name = 
  2 active torsions:
  status: ('A' for Active; 'I' for Inactive)
    1  A    between atoms: C_11  and  C_32
    2  A    between atoms: C_18  and  C_30
                            x       y       z     vdW  Elec       q    Type
                         _______ _______ _______ _____ _____    ______ ____

>  <TORSDO>
F 2

$$$$
=
 OpenBabel11062418563D

 33 38  0  0  1  0  0  0  0  0999 V2000
  188.9840  175.6840  144.4960 C   0  0  0  0  0  0  0  0  0  0  0  0
  191.3940  172.9620  144.1220 N   0  0  0  0  0  0  0  0  0  0  0  0
  188.6490  174.1800  141.6470 C   0  0  1  0  0  3  0  0  0  0  0  0
  188.5170  176.4810  145.5200 C   0  0  0  0  0  0  0  0  0  0  0  0
  190.0640  173.9190  142.2330 C   0  0  2  0  0  3  0  0  0  0  0  0
  192.3060  172.5220  143.3060 C   0  0  0  0  0  0  0  0  0  0  0  0
  187.7780  177.4920  143.5050 C   0  0  0  0  0  2  0  0  0  0  0  0
  190.8700  173.2860  139.9290 C   0  0  0  0  0  2  0  0  0  0  0  0
  187.4440  174.6760  139.6210 O   0  0  0  0  0  1  0  0  0  0  0  0
  189.7910  176.7000  142.5020 O   0  0  0  0  0  1  0  0  0  0  0  0
  190.7600  172.8450  141.3780 C   0  0  1  0  0  3  0  0  0  0  0  0
  189.4740  173.4760  139.3610 C   0  0  0  0  0  2  0  0  0  0  0  0
  187.8360  175.2660  142.3650 C   0  0  0  0  0  2  0  0  0  0  0  0
  188.6690  176.1140  146.8580 C   0  0  0  0  0  3  0  0  0  0  0  0
  190.0670  173.4480  143.7140 C   0  0  2  0  0  3  0  0  0  0  0  0
  192.0830  172.5540  141.8990 N   0  0  0  0  0  2  0  0  0  0  0  0
  189.7150  174.0550  146.1170 C   0  0  0  0  0  3  0  0  0  0  0  0
  189.2750  174.8900  147.1530 C   0  0  0  0  0  3  0  0  0  0  0  0
  188.7270  174.5410  140.1530 C   0  0  2  0  0  3  0  0  0  0  0  0
  187.8260  177.6950  145.0230 C   0  0  1  0  0  3  0  0  0  0  0  0
  189.5860  174.4340  144.7650 C   0  0  0  0  0  0  0  0  0  0  0  0
  188.6440  176.2710  143.1760 C   0  0  1  0  0  0  0  0  0  0  0  0
  195.3110  173.8750  143.0610 C   0  0  0  0  0  2  0  0  0  0  0  0
  197.1340  173.7910  146.3220 O   0  0  0  0  0  1  0  0  0  0  0  0
  196.4800  173.8170  144.0350 C   0  0  0  0  0  2  0  0  0  0  0  0
  195.2630  172.4320  145.7630 C   0  0  0  0  0  2  0  0  0  0  0  0
  193.8290  172.5680  145.2740 C   0  0  0  0  0  2  0  0  0  0  0  0
  196.0200  173.7260  145.4860 C   0  0  1  0  0  3  0  0  0  0  0  0
  194.7560  172.4740  142.8440 C   0  0  0  0  0  2  0  0  0  0  0  0
  193.6390  172.0960  143.8280 C   0  0  2  0  0  3  0  0  0  0  0  0
  186.0790  178.8310  146.2170 O   0  0  0  0  0  1  0  0  0  0  0  0
  185.5320  176.7770  145.3620 O   0  0  0  0  0  0  0  0  0  0  0  0
  186.4360  177.8090  145.5710 C   0  0  0  0  0  0  0  0  0  0  0  0
  1 21  2  0  0  0  0
  1  4  1  0  0  0  0
  3  5  1  0  0  0  0
  3 13  1  1  0  0  0
  4 14  2  0  0  0  0
  5 15  1  0  0  0  0
  6 30  1  0  0  0  0
  6  2  2  0  0  0  0
  7 20  1  0  0  0  0
  8 11  1  0  0  0  0
  9 19  1  0  0  0  0
 10 22  1  0  0  0  0
 11 16  1  0  0  0  0
 11  5  1  0  0  0  0
 12  8  1  0  0  0  0
 12 19  1  0  0  0  0
 13 22  1  0  0  0  0
 14 18  1  0  0  0  0
 15  2  1  0  0  0  0
 15 21  1  0  0  0  0
 16  6  1  0  0  0  0
 17 18  2  0  0  0  0
 19  3  1  0  0  0  0
 20  4  1  0  0  0  0
 20 33  1  0  0  0  0
 21 17  1  0  0  0  0
 22  7  1  0  0  0  0
 22  1  1  0  0  0  0
 23 25  1  0  0  0  0
 25 28  1  0  0  0  0
 27 26  1  0  0  0  0
 28 26  1  0  0  0  0
 28 24  1  0  0  0  0
 29 23  1  0  0  0  0
 29 30  1  0  0  0  0
 30 27  1  0  0  0  0
 32 33  2  0  0  0  0
 33 31  1  0  0  0  0
M  END
>  <MODEL>
7

>  <REMARK>
 VINA RESULT:      -8.2      2.666      5.667
  Name = 
  2 active torsions:
  status: ('A' for Active; 'I' for Inactive)
    1  A    between atoms: C_11  and  C_32
    2  A    between atoms: C_18  and  C_30
                            x       y       z     vdW  Elec       q    Type
                         _______ _______ _______ _____ _____    ______ ____

>  <TORSDO>
F 2

$$$$
=
 OpenBabel11062418563D

 33 38  0  0  1  0  0  0  0  0999 V2000
  190.8920  173.7480  141.6960 C   0  0  0  0  0  0  0  0  0  0  0  0
  189.4010  175.5390  144.5110 N   0  0  0  0  0  0  0  0  0  0  0  0
  192.9360  173.9430  144.2000 C   0  0  1  0  0  3  0  0  0  0  0  0
  190.4530  173.1830  140.5170 C   0  0  0  0  0  0  0  0  0  0  0  0
  191.8430  175.0420  144.3080 C   0  0  2  0  0  3  0  0  0  0  0  0
  189.6320  176.5340  145.3150 C   0  0  0  0  0  0  0  0  0  0  0  0
  192.8180  173.2860  140.3610 C   0  0  0  0  0  2  0  0  0  0  0  0
  193.3310  176.3270  145.8860 C   0  0  0  0  0  2  0  0  0  0  0  0
  195.2880  173.5050  144.4820 O   0  0  0  0  0  1  0  0  0  0  0  0
  192.7030  175.2900  141.6470 O   0  0  0  0  0  1  0  0  0  0  0  0
  191.9560  175.7140  145.6870 C   0  0  1  0  0  3  0  0  0  0  0  0
  194.3770  175.2270  145.8370 C   0  0  0  0  0  2  0  0  0  0  0  0
  192.9870  173.2030  142.8560 C   0  0  0  0  0  2  0  0  0  0  0  0
  189.1100  172.8620  140.3160 C   0  0  0  0  0  3  0  0  0  0  0  0
  190.3900  174.5180  144.1320 C   0  0  2  0  0  3  0  0  0  0  0  0
  190.9400  176.7390  145.8420 N   0  0  0  0  0  2  0  0  0  0  0  0
  188.6490  173.6230  142.5720 C   0  0  0  0  0  3  0  0  0  0  0  0
  188.2050  173.0880  141.3560 C   0  0  0  0  0  3  0  0  0  0  0  0
  194.3330  174.5230  144.4870 C   0  0  2  0  0  3  0  0  0  0  0  0
  191.5600  172.9350  139.5610 C   0  0  1  0  0  3  0  0  0  0  0  0
  190.0000  173.9720  142.7690 C   0  0  0  0  0  0  0  0  0  0  0  0
  192.3640  173.9340  141.6730 C   0  0  1  0  0  0  0  0  0  0  0  0
  186.6370  177.0030  143.9980 C   0  0  0  0  0  2  0  0  0  0  0  0
  184.0660  177.6900  146.6210 O   0  0  0  0  0  1  0  0  0  0  0  0
  185.3750  177.5660  144.6390 C   0  0  0  0  0  2  0  0  0  0  0  0
  186.4160  177.9090  146.9150 C   0  0  0  0  0  2  0  0  0  0  0  0
  187.6910  177.0900  146.7700 C   0  0  0  0  0  2  0  0  0  0  0  0
  185.2920  177.2470  146.1280 C   0  0  1  0  0  3  0  0  0  0  0  0
  187.8170  177.9150  144.3040 C   0  0  0  0  0  2  0  0  0  0  0  0
  188.5640  177.5410  145.5930 C   0  0  2  0  0  3  0  0  0  0  0  0
  191.8590  170.5840  139.9520 O   0  0  0  0  0  1  0  0  0  0  0  0
  191.3750  171.1840  137.7950 O   0  0  0  0  0  0  0  0  0  0  0  0
  191.6090  171.5020  139.1250 C   0  0  0  0  0  0  0  0  0  0  0  0
  1 21  1  0  0  0  0
  2  6  2  0  0  0  0
  3 13  1  6  0  0  0
  3  5  1  0  0  0  0
  3 19  1  0  0  0  0
  4  1  2  0  0  0  0
  5 11  1  0  0  0  0
  6 30  1  0  0  0  0
  6 16  1  0  0  0  0
  7 22  1  0  0  0  0
  9 19  1  0  0  0  0
 10 22  1  0  0  0  0
 11 16  1  0  0  0  0
 11  8  1  0  0  0  0
 12  8  1  0  0  0  0
 14  4  1  0  0  0  0
 14 18  2  0  0  0  0
 15  5  1  0  0  0  0
 15  2  1  0  0  0  0
 17 21  2  0  0  0  0
 18 17  1  0  0  0  0
 19 12  1  0  0  0  0
 20  7  1  0  0  0  0
 20  4  1  0  0  0  0
 21 15  1  0  0  0  0
 22  1  1  0  0  0  0
 22 13  1  0  0  0  0
 23 29  1  0  0  0  0
 23 25  1  0  0  0  0
 25 28  1  0  0  0  0
 27 26  1  0  0  0  0
 28 24  1  0  0  0  0
 28 26  1  0  0  0  0
 29 30  1  0  0  0  0
 30 27  1  0  0  0  0
 32 33  2  0  0  0  0
 33 20  1  0  0  0  0
 33 31  1  0  0  0  0
M  END
>  <MODEL>
8

>  <REMARK>
 VINA RESULT:      -8.1      2.239      7.247
  Name = 
  2 active torsions:
  status: ('A' for Active; 'I' for Inactive)
    1  A    between atoms: C_11  and  C_32
    2  A    between atoms: C_18  and  C_30
                            x       y       z     vdW  Elec       q    Type
                         _______ _______ _______ _____ _____    ______ ____

>  <TORSDO>
F 2

$$$$
=
 OpenBabel11062418563D

 33 38  0  0  1  0  0  0  0  0999 V2000
  192.2700  174.1740  144.2240 C   0  0  0  0  0  0  0  0  0  0  0  0
  189.1290  175.8280  143.3570 N   0  0  0  0  0  0  0  0  0  0  0  0
  191.5140  173.7350  141.1060 C   0  0  1  0  0  3  0  0  0  0  0  0
  193.1640  174.1990  145.2740 C   0  0  0  0  0  0  0  0  0  0  0  0
  190.2470  174.1140  141.9200 C   0  0  2  0  0  3  0  0  0  0  0  0
  187.9740  175.5860  142.8110 C   0  0  0  0  0  0  0  0  0  0  0  0
  193.7230  172.2950  143.9740 C   0  0  0  0  0  2  0  0  0  0  0  0
  188.8130  173.1610  140.0780 C   0  0  0  0  0  2  0  0  0  0  0  0
  192.3490  172.2930  139.3660 O   0  0  0  0  0  1  0  0  0  0  0  0
  191.3990  172.0870  143.4840 O   0  0  0  0  0  1  0  0  0  0  0  0
  189.0930  174.3810  140.9390 C   0  0  1  0  0  3  0  0  0  0  0  0
  190.0450  172.8460  139.2470 C   0  0  0  0  0  2  0  0  0  0  0  0
  192.7530  173.3920  141.9470 C   0  0  0  0  0  2  0  0  0  0  0  0
  193.1990  175.2630  146.1770 C   0  0  0  0  0  3  0  0  0  0  0  0
  190.4200  175.3630  142.8290 C   0  0  2  0  0  3  0  0  0  0  0  0
  187.8880  174.7570  141.6550 N   0  0  0  0  0  2  0  0  0  0  0  0
  191.4470  176.3390  144.8930 C   0  0  0  0  0  3  0  0  0  0  0  0
  192.3300  176.3380  145.9810 C   0  0  0  0  0  3  0  0  0  0  0  0
  191.2310  172.5560  140.1580 C   0  0  2  0  0  3  0  0  0  0  0  0
  194.0660  173.0230  145.2780 C   0  0  1  0  0  3  0  0  0  0  0  0
  191.3900  175.2560  143.9930 C   0  0  0  0  0  0  0  0  0  0  0  0
  192.4800  172.9690  143.3840 C   0  0  1  0  0  0  0  0  0  0  0  0
  187.4020  177.9920  145.0040 C   0  0  0  0  0  2  0  0  0  0  0  0
  184.3840  180.0010  144.0950 O   0  0  0  0  0  1  0  0  0  0  0  0
  186.1640  178.8600  145.1870 C   0  0  0  0  0  2  0  0  0  0  0  0
  184.8810  177.8250  143.2720 C   0  0  0  0  0  2  0  0  0  0  0  0
  185.9960  177.0750  142.5580 C   0  0  0  0  0  2  0  0  0  0  0  0
  185.4350  179.1120  143.8710 C   0  0  1  0  0  3  0  0  0  0  0  0
  186.9900  176.5300  144.9010 C   0  0  0  0  0  2  0  0  0  0  0  0
  186.7180  176.0690  143.4610 C   0  0  2  0  0  3  0  0  0  0  0  0
  196.3250  172.9060  146.0870 O   0  0  0  0  0  1  0  0  0  0  0  0
  195.9520  174.3830  144.3760 O   0  0  0  0  0  0  0  0  0  0  0  0
  195.5090  173.4260  145.2790 C   0  0  0  0  0  0  0  0  0  0  0  0
  1  4  1  0  0  0  0
  3  5  1  0  0  0  0
  3 13  1  1  0  0  0
  4 20  1  0  0  0  0
  4 14  2  0  0  0  0
  5 15  1  0  0  0  0
  6  2  2  0  0  0  0
  6 30  1  0  0  0  0
  7 20  1  0  0  0  0
  8 11  1  0  0  0  0
  9 19  1  0  0  0  0
 11 16  1  0  0  0  0
 11  5  1  0  0  0  0
 12  8  1  0  0  0  0
 12 19  1  0  0  0  0
 13 22  1  0  0  0  0
 15  2  1  0  0  0  0
 15 21  1  0  0  0  0
 16  6  1  0  0  0  0
 17 18  2  0  0  0  0
 18 14  1  0  0  0  0
 19  3  1  0  0  0  0
 20 33  1  0  0  0  0
 21  1  2  0  0  0  0
 21 17  1  0  0  0  0
 22 10  1  0  0  0  0
 22  7  1  0  0  0  0
 22  1  1  0  0  0  0
 23 25  1  0  0  0  0
 26 28  1  0  0  0  0
 27 26  1  0  0  0  0
 27 30  1  0  0  0  0
 28 24  1  0  0  0  0
 28 25  1  0  0  0  0
 29 23  1  0  0  0  0
 30 29  1  0  0  0  0
 32 33  2  0  0  0  0
 33 31  1  0  0  0  0
M  END
>  <MODEL>
9

>  <REMARK>
 VINA RESULT:      -8.0      2.521      7.625
  Name = 
  2 active torsions:
  status: ('A' for Active; 'I' for Inactive)
    1  A    between atoms: C_11  and  C_32
    2  A    between atoms: C_18  and  C_30
                            x       y       z     vdW  Elec       q    Type
                         _______ _______ _______ _____ _____    ______ ____

>  <TORSDO>
F 2

$$$$
