=
 OpenBabel11062423013D

 62 66  0  0  1  0  0  0  0  0999 V2000
  192.3400  171.9130  138.8500 C   0  0  0  0  0  3  0  0  0  0  0  0
  193.1270  169.7940  137.9130 N   0  0  1  0  0  0  0  0  0  0  0  0
  191.5060  172.6760  139.5570 C   0  0  0  0  0  0  0  0  0  0  0  0
  192.0570  168.9070  135.9820 N   0  0  0  0  0  2  0  0  0  0  0  0
  192.6890  168.5650  137.2470 C   0  0  0  0  0  2  0  0  0  0  0  0
  190.8240  170.5740  137.3380 C   0  0  0  0  0  0  0  0  0  0  0  0
  190.0950  172.1930  139.7780 C   0  0  2  0  0  3  0  0  0  0  0  0
  191.9420  170.5400  138.3780 C   0  0  2  0  0  3  0  0  0  0  0  0
  189.7190  171.2610  137.4770 N   0  0  0  0  0  0  0  0  0  0  0  0
  190.8830  169.6260  136.2680 N   0  0  0  0  0  2  0  0  0  0  0  0
  191.9790  174.0240  139.9970 C   0  0  0  0  0  1  0  0  0  0  0  0
  189.3490  172.2910  138.4570 C   0  0  0  0  0  2  0  0  0  0  0  0
  189.2080  173.0740  141.0590 S   0  0  0  0  0  0  0  0  0  0  0  0
  189.0910  174.5300  140.7030 O   0  0  0  0  0  0  0  0  0  0  0  0
  187.8300  172.4880  141.1930 O   0  0  0  0  0  0  0  0  0  0  0  0
  190.0640  172.8930  142.6080 C   0  0  0  0  0  2  0  0  0  0  0  0
  189.7750  176.1910  144.5530 N   0  0  0  0  0  0  0  0  0  0  0  0
  190.2900  175.1690  143.6730 C   0  0  0  0  0  0  0  0  0  0  0  0
  189.6160  173.9160  143.5380 N   0  0  0  0  0  2  0  0  0  0  0  0
  191.3590  175.3710  143.0340 O   0  0  0  0  0  0  0  0  0  0  0  0
  190.5170  178.3760  143.7320 C   0  0  0  0  0  1  0  0  0  0  0  0
  190.5980  177.3590  144.8580 C   0  0  0  0  0  2  0  0  0  0  0  0
  188.5030  176.0850  145.2850 C   0  0  2  0  0  3  0  0  0  0  0  0
  185.8750  179.1210  143.6800 C   0  0  0  0  0  2  0  0  0  0  0  0
  185.9240  177.7690  142.9670 C   0  0  2  0  0  3  0  0  0  0  0  0
  187.4260  177.0040  144.7860 C   0  0  0  0  0  0  0  0  0  0  0  0
  186.8790  178.0330  145.6240 N   0  0  0  0  0  2  0  0  0  0  0  0
  187.0160  176.8920  143.5180 C   0  0  0  0  0  3  0  0  0  0  0  0
  185.7760  178.8830  145.1820 C   0  0  0  0  0  2  0  0  0  0  0  0
  187.3750  177.6200  140.8430 C   0  0  0  0  0  1  0  0  0  0  0  0
  185.1500  178.3630  140.8100 O   0  0  0  0  0  0  0  0  0  0  0  0
  186.0750  177.9470  141.4900 C   0  0  0  0  0  0  0  0  0  0  0  0
  188.6270  176.0410  146.8190 C   0  0  2  0  0  3  0  0  0  0  0  0
  189.3120  177.1290  147.3270 F   0  0  0  0  0  0  0  0  0  0  0  0
  190.4640  174.9290  147.8670 F   0  0  0  0  0  0  0  0  0  0  0  0
  188.3730  174.2180  148.3460 F   0  0  0  0  0  0  0  0  0  0  0  0
  189.1930  174.7290  147.3570 C   0  0  0  0  0  0  0  0  0  0  0  0
  189.2650  173.8120  146.3220 F   0  0  0  0  0  0  0  0  0  0  0  0
  195.2890  170.0240  139.1520 C   0  0  2  0  0  3  0  0  0  0  0  0
  195.1290  168.5890  138.6980 C   0  0  0  0  0  2  0  0  0  0  0  0
  193.8920  169.3800  139.0940 C   0  0  2  0  0  3  0  0  0  0  0  0
  195.6500  170.8770  137.9390 C   0  0  0  0  0  2  0  0  0  0  0  0
  197.2790  171.6350  139.6590 C   0  0  0  0  0  1  0  0  0  0  0  0
  196.9640  171.6050  138.1740 C   0  0  2  0  0  3  0  0  0  0  0  0
  196.8540  172.9690  137.6790 N   0  0  0  0  0  2  0  0  0  0  0  0
  194.8450  174.9080  137.7100 O   0  0  0  0  0  0  0  0  0  0  0  0
  196.5850  173.7880  138.7850 N   0  0  0  0  0  2  0  0  0  0  0  0
  195.5230  174.7410  138.7610 C   0  0  0  0  0  0  0  0  0  0  0  0
  195.2220  175.5090  139.9230 N   0  0  0  0  0  2  0  0  0  0  0  0
  195.8550  175.2440  141.2030 C   0  0  0  0  0  2  0  0  0  0  0  0
  194.9770  174.3260  142.0300 C   0  0  0  0  0  2  0  0  0  0  0  0
  195.5060  174.2040  143.3210 O   0  0  0  0  0  0  0  0  0  0  0  0
  195.2460  172.8840  143.6960 C   0  0  1  0  0  3  0  0  0  0  0  0
  194.0980  172.8360  144.6830 C   0  0  0  0  0  0  0  0  0  0  0  0
  193.1220  171.9760  144.5540 N   0  0  0  0  0  0  0  0  0  0  0  0
  194.3160  170.7400  142.8030 C   0  0  0  0  0  2  0  0  0  0  0  0
  192.9680  171.0670  143.4200 C   0  0  0  0  0  2  0  0  0  0  0  0
  194.9940  172.0500  142.4440 C   0  0  0  0  0  2  0  0  0  0  0  0
  194.1410  173.6910  145.7910 O   0  0  0  0  0  0  0  0  0  0  0  0
  193.2120  174.7530  145.9700 C   0  0  0  0  0  2  0  0  0  0  0  0
  194.3920  176.8120  145.4190 N   0  0  0  0  0  1  0  0  0  0  0  0
  193.9200  175.9820  146.5140 C   0  0  0  0  0  2  0  0  0  0  0  0
  1  3  2  0  0  0  0
  2  5  1  1  0  0  0
  2  8  1  0  0  0  0
  2 41  1  0  0  0  0
  3  7  1  0  0  0  0
  3 11  1  0  0  0  0
  4 10  1  0  0  0  0
  4  5  1  0  0  0  0
  6  9  2  0  0  0  0
  6  8  1  0  0  0  0
  7 13  1  1  0  0  0
  8  1  1  6  0  0  0
  9 12  1  0  0  0  0
 10  6  1  0  0  0  0
 12  7  1  0  0  0  0
 13 15  2  0  0  0  0
 13 16  1  0  0  0  0
 14 13  2  0  0  0  0
 16 19  1  0  0  0  0
 17 22  1  0  0  0  0
 18 17  1  0  0  0  0
 19 18  1  0  0  0  0
 20 18  2  0  0  0  0
 21 22  1  0  0  0  0
 23 17  1  6  0  0  0
 23 33  1  0  0  0  0
 24 29  1  0  0  0  0
 25 32  1  6  0  0  0
 25 28  1  0  0  0  0
 25 24  1  0  0  0  0
 26 23  1  0  0  0  0
 26 27  1  0  0  0  0
 28 26  2  0  0  0  0
 29 27  1  0  0  0  0
 30 32  1  0  0  0  0
 31 32  2  0  0  0  0
 33 34  1  6  0  0  0
 33 37  1  0  0  0  0
 37 35  1  0  0  0  0
 37 36  1  0  0  0  0
 38 37  1  0  0  0  0
 39 42  1  6  0  0  0
 40 39  1  0  0  0  0
 41 40  1  6  0  0  0
 41 39  1  0  0  0  0
 42 44  1  0  0  0  0
 44 43  1  1  0  0  0
 45 44  1  0  0  0  0
 45 47  1  0  0  0  0
 46 48  2  0  0  0  0
 48 47  1  0  0  0  0
 48 49  1  0  0  0  0
 49 50  1  0  0  0  0
 50 51  1  0  0  0  0
 51 52  1  0  0  0  0
 53 52  1  6  0  0  0
 53 54  1  0  0  0  0
 54 59  1  0  0  0  0
 55 54  2  0  0  0  0
 56 57  1  0  0  0  0
 57 55  1  0  0  0  0
 58 56  1  0  0  0  0
 58 53  1  0  0  0  0
 59 60  1  0  0  0  0
 60 62  1  0  0  0  0
 61 62  1  0  0  0  0
M  END
>  <MODEL>
1

>  <REMARK>
 VINA RESULT:      -6.2      0.000      0.000
  Name = 
  21 active torsions:
  status: ('A' for Active; 'I' for Inactive)
    1  A    between atoms: N_1  and  C_35
    2  A    between atoms: N_1  and  C_62
    3  A    between atoms: C_3  and  N_20
    4  A    between atoms: C_3  and  S_30
    5  A    between atoms: N_4  and  C_29
    6  A    between atoms: C_6  and  O_41
    7  A    between atoms: C_14  and  C_23
    8  A    between atoms: C_15  and  C_62
    9  A    between atoms: C_19  and  C_37
   10  A    between atoms: C_21  and  O_22
   11  A    between atoms: O_22  and  C_53
   12  A    between atoms: C_24  and  S_30
   13  A    between atoms: N_27  and  N_54
   14  A    between atoms: C_37  and  C_38
   15  A    between atoms: C_38  and  N_54
   16  A    between atoms: O_41  and  C_45
   17  A    between atoms: N_42  and  C_43
   18  A    between atoms: C_43  and  C_45
   19  A    between atoms: C_51  and  C_59
   20  A    between atoms: C_51  and  C_62
   21  A    between atoms: C_53  and  C_56
                            x       y       z     vdW  Elec       q    Type
                         _______ _______ _______ _____ _____    ______ ____

>  <TORSDO>
F 21

$$$$
=
 OpenBabel11062423013D

 62 66  0  0  1  0  0  0  0  0999 V2000
  193.9190  174.4100  144.3730 C   0  0  0  0  0  3  0  0  0  0  0  0
  195.1220  175.2420  142.4110 N   0  0  1  0  0  0  0  0  0  0  0  0
  193.0180  174.4930  145.3520 C   0  0  0  0  0  0  0  0  0  0  0  0
  196.8620  176.8380  142.7040 N   0  0  0  0  0  2  0  0  0  0  0  0
  195.7670  176.4270  141.8390 C   0  0  0  0  0  2  0  0  0  0  0  0
  195.1900  176.5880  144.5160 C   0  0  0  0  0  0  0  0  0  0  0  0
  192.5590  175.8580  145.7980 C   0  0  2  0  0  3  0  0  0  0  0  0
  194.3910  175.6320  143.6320 C   0  0  2  0  0  3  0  0  0  0  0  0
  194.7970  176.9900  145.6970 N   0  0  0  0  0  0  0  0  0  0  0  0
  196.3090  177.2580  143.9270 N   0  0  0  0  0  2  0  0  0  0  0  0
  192.5940  173.2330  146.0330 C   0  0  0  0  0  1  0  0  0  0  0  0
  193.7010  176.5180  146.5540 C   0  0  0  0  0  2  0  0  0  0  0  0
  191.0770  175.8440  146.8040 S   0  0  0  0  0  0  0  0  0  0  0  0
  190.1620  174.7330  146.3670 O   0  0  0  0  0  0  0  0  0  0  0  0
  191.4620  175.6290  148.2410 O   0  0  0  0  0  0  0  0  0  0  0  0
  190.2450  177.4090  146.6600 C   0  0  0  0  0  2  0  0  0  0  0  0
  186.6150  177.0250  145.4680 N   0  0  0  0  0  0  0  0  0  0  0  0
  187.7620  177.0890  146.3410 C   0  0  0  0  0  0  0  0  0  0  0  0
  189.0750  177.2670  145.8080 N   0  0  0  0  0  2  0  0  0  0  0  0
  187.6110  176.9620  147.5870 O   0  0  0  0  0  0  0  0  0  0  0  0
  184.5310  177.8100  146.4890 C   0  0  0  0  0  1  0  0  0  0  0  0
  185.3240  176.6070  146.0060 C   0  0  0  0  0  2  0  0  0  0  0  0
  186.6740  177.2350  144.0120 C   0  0  2  0  0  3  0  0  0  0  0  0
  190.5200  175.7080  142.7550 C   0  0  0  0  0  2  0  0  0  0  0  0
  189.2740  174.9040  142.3780 C   0  0  2  0  0  3  0  0  0  0  0  0
  187.9400  176.7440  143.3700 C   0  0  0  0  0  0  0  0  0  0  0  0
  189.0560  177.6220  143.1600 N   0  0  0  0  0  2  0  0  0  0  0  0
  188.0410  175.4510  143.0450 C   0  0  0  0  0  3  0  0  0  0  0  0
  190.2640  177.1810  142.4660 C   0  0  0  0  0  2  0  0  0  0  0  0
  188.8090  172.4310  141.8270 C   0  0  0  0  0  1  0  0  0  0  0  0
  190.1190  173.0990  143.6550 O   0  0  0  0  0  0  0  0  0  0  0  0
  189.4550  173.4540  142.6930 C   0  0  0  0  0  0  0  0  0  0  0  0
  186.2250  178.6250  143.5270 C   0  0  2  0  0  3  0  0  0  0  0  0
  186.2490  179.5720  144.5350 F   0  0  0  0  0  0  0  0  0  0  0  0
  183.9670  179.4020  143.4860 F   0  0  0  0  0  0  0  0  0  0  0  0
  185.0280  179.1040  141.5130 F   0  0  0  0  0  0  0  0  0  0  0  0
  184.8820  178.6220  142.8020 C   0  0  0  0  0  0  0  0  0  0  0  0
  184.4060  177.3240  142.7400 F   0  0  0  0  0  0  0  0  0  0  0  0
  194.3740  173.3240  140.9890 C   0  0  2  0  0  3  0  0  0  0  0  0
  194.8050  174.4650  140.0940 C   0  0  0  0  0  2  0  0  0  0  0  0
  194.1400  174.7810  141.4240 C   0  0  2  0  0  3  0  0  0  0  0  0
  195.6230  172.6730  141.5790 C   0  0  0  0  0  2  0  0  0  0  0  0
  194.9030  170.8080  140.0990 C   0  0  0  0  0  1  0  0  0  0  0  0
  195.5600  171.1630  141.4220 C   0  0  2  0  0  3  0  0  0  0  0  0
  194.7800  170.5970  142.5120 N   0  0  0  0  0  2  0  0  0  0  0  0
  192.2720  170.7750  143.7260 O   0  0  0  0  0  0  0  0  0  0  0  0
  193.6080  170.0700  141.9500 N   0  0  0  0  0  2  0  0  0  0  0  0
  192.3440  170.2180  142.5960 C   0  0  0  0  0  0  0  0  0  0  0  0
  191.1570  169.7400  141.9690 N   0  0  0  0  0  2  0  0  0  0  0  0
  191.1580  169.2440  140.6040 C   0  0  0  0  0  2  0  0  0  0  0  0
  191.2150  170.4080  139.6350 C   0  0  0  0  0  2  0  0  0  0  0  0
  190.2660  170.2250  138.6210 O   0  0  0  0  0  0  0  0  0  0  0  0
  190.9690  170.4140  137.4290 C   0  0  1  0  0  3  0  0  0  0  0  0
  191.0570  171.8900  137.1010 C   0  0  0  0  0  0  0  0  0  0  0  0
  192.1820  172.4400  136.7280 N   0  0  0  0  0  0  0  0  0  0  0  0
  193.2720  170.2570  136.4650 C   0  0  0  0  0  2  0  0  0  0  0  0
  193.4690  171.7450  136.6900 C   0  0  0  0  0  2  0  0  0  0  0  0
  192.3330  169.7420  137.5410 C   0  0  0  0  0  2  0  0  0  0  0  0
  189.8800  172.6490  137.1370 O   0  0  0  0  0  0  0  0  0  0  0  0
  189.6930  173.7210  138.0530 C   0  0  0  0  0  2  0  0  0  0  0  0
  187.6050  174.9330  137.7280 N   0  0  0  0  0  1  0  0  0  0  0  0
  188.2270  173.8290  138.4380 C   0  0  0  0  0  2  0  0  0  0  0  0
  1  3  2  0  0  0  0
  2  5  1  6  0  0  0
  2  8  1  0  0  0  0
  3  7  1  0  0  0  0
  3 11  1  0  0  0  0
  4 10  1  0  0  0  0
  5  4  1  0  0  0  0
  6  9  2  0  0  0  0
  7 12  1  0  0  0  0
  7 13  1  1  0  0  0
  8  1  1  1  0  0  0
  8  6  1  0  0  0  0
  9 12  1  0  0  0  0
 10  6  1  0  0  0  0
 13 15  2  0  0  0  0
 14 13  2  0  0  0  0
 16 13  1  0  0  0  0
 17 22  1  0  0  0  0
 17 18  1  0  0  0  0
 18 20  2  0  0  0  0
 19 18  1  0  0  0  0
 19 16  1  0  0  0  0
 22 21  1  0  0  0  0
 23 17  1  1  0  0  0
 25 32  1  1  0  0  0
 25 24  1  0  0  0  0
 25 28  1  0  0  0  0
 26 23  1  0  0  0  0
 27 26  1  0  0  0  0
 28 26  2  0  0  0  0
 29 24  1  0  0  0  0
 29 27  1  0  0  0  0
 30 32  1  0  0  0  0
 32 31  2  0  0  0  0
 33 23  1  0  0  0  0
 33 34  1  1  0  0  0
 36 37  1  0  0  0  0
 37 35  1  0  0  0  0
 37 33  1  0  0  0  0
 38 37  1  0  0  0  0
 39 41  1  0  0  0  0
 39 42  1  1  0  0  0
 40 39  1  0  0  0  0
 41 40  1  6  0  0  0
 41  2  1  0  0  0  0
 44 43  1  6  0  0  0
 44 42  1  0  0  0  0
 44 45  1  0  0  0  0
 47 45  1  0  0  0  0
 47 48  1  0  0  0  0
 48 46  2  0  0  0  0
 49 48  1  0  0  0  0
 50 49  1  0  0  0  0
 51 50  1  0  0  0  0
 52 51  1  0  0  0  0
 53 58  1  0  0  0  0
 53 52  1  1  0  0  0
 54 59  1  0  0  0  0
 54 53  1  0  0  0  0
 55 54  2  0  0  0  0
 56 57  1  0  0  0  0
 56 58  1  0  0  0  0
 57 55  1  0  0  0  0
 59 60  1  0  0  0  0
 60 62  1  0  0  0  0
 61 62  1  0  0  0  0
M  END
>  <MODEL>
2

>  <REMARK>
 VINA RESULT:      -5.6      3.104      7.051
  Name = 
  21 active torsions:
  status: ('A' for Active; 'I' for Inactive)
    1  A    between atoms: N_1  and  C_35
    2  A    between atoms: N_1  and  C_62
    3  A    between atoms: C_3  and  N_20
    4  A    between atoms: C_3  and  S_30
    5  A    between atoms: N_4  and  C_29
    6  A    between atoms: C_6  and  O_41
    7  A    between atoms: C_14  and  C_23
    8  A    between atoms: C_15  and  C_62
    9  A    between atoms: C_19  and  C_37
   10  A    between atoms: C_21  and  O_22
   11  A    between atoms: O_22  and  C_53
   12  A    between atoms: C_24  and  S_30
   13  A    between atoms: N_27  and  N_54
   14  A    between atoms: C_37  and  C_38
   15  A    between atoms: C_38  and  N_54
   16  A    between atoms: O_41  and  C_45
   17  A    between atoms: N_42  and  C_43
   18  A    between atoms: C_43  and  C_45
   19  A    between atoms: C_51  and  C_59
   20  A    between atoms: C_51  and  C_62
   21  A    between atoms: C_53  and  C_56
                            x       y       z     vdW  Elec       q    Type
                         _______ _______ _______ _____ _____    ______ ____

>  <TORSDO>
F 21

$$$$
=
 OpenBabel11062423013D

 62 66  0  0  1  0  0  0  0  0999 V2000
  192.3600  171.9550  138.9290 C   0  0  0  0  0  3  0  0  0  0  0  0
  192.9690  169.8430  137.8540 N   0  0  1  0  0  0  0  0  0  0  0  0
  191.6050  172.7310  139.7060 C   0  0  0  0  0  0  0  0  0  0  0  0
  191.7730  169.1320  135.9240 N   0  0  0  0  0  2  0  0  0  0  0  0
  192.4270  168.6820  137.1440 C   0  0  0  0  0  2  0  0  0  0  0  0
  190.7030  170.7990  137.4130 C   0  0  0  0  0  0  0  0  0  0  0  0
  190.1740  172.3280  139.9590 C   0  0  2  0  0  3  0  0  0  0  0  0
  191.8550  170.6380  138.4030 C   0  0  2  0  0  3  0  0  0  0  0  0
  189.6530  171.5470  137.6300 N   0  0  0  0  0  0  0  0  0  0  0  0
  190.6610  169.9080  136.2940 N   0  0  0  0  0  2  0  0  0  0  0  0
  192.1820  174.0200  140.1950 C   0  0  0  0  0  1  0  0  0  0  0  0
  189.3880  172.5450  138.6760 C   0  0  0  0  0  2  0  0  0  0  0  0
  189.3950  173.1950  141.3180 S   0  0  0  0  0  0  0  0  0  0  0  0
  188.9610  174.5670  140.8810 O   0  0  0  0  0  0  0  0  0  0  0  0
  188.1900  172.4180  141.7690 O   0  0  0  0  0  0  0  0  0  0  0  0
  190.5380  173.3220  142.6760 C   0  0  0  0  0  2  0  0  0  0  0  0
  189.7990  176.6710  144.4040 N   0  0  0  0  0  0  0  0  0  0  0  0
  190.3500  175.7060  143.4830 C   0  0  0  0  0  0  0  0  0  0  0  0
  190.0620  174.3140  143.6270 N   0  0  0  0  0  2  0  0  0  0  0  0
  191.1130  176.0890  142.5540 O   0  0  0  0  0  0  0  0  0  0  0  0
  189.9210  178.7280  143.0800 C   0  0  0  0  0  1  0  0  0  0  0  0
  190.2930  178.0450  144.3860 C   0  0  0  0  0  2  0  0  0  0  0  0
  188.8440  176.3380  145.4730 C   0  0  2  0  0  3  0  0  0  0  0  0
  185.3890  178.8960  144.9990 C   0  0  0  0  0  2  0  0  0  0  0  0
  185.5530  177.7280  144.0230 C   0  0  2  0  0  3  0  0  0  0  0  0
  187.5250  177.0490  145.3640 C   0  0  0  0  0  0  0  0  0  0  0  0
  186.9760  177.7700  146.4770 N   0  0  0  0  0  2  0  0  0  0  0  0
  186.8880  177.0540  144.1890 C   0  0  0  0  0  3  0  0  0  0  0  0
  185.6580  178.3990  146.4130 C   0  0  0  0  0  2  0  0  0  0  0  0
  183.9790  178.1770  142.0340 C   0  0  0  0  0  1  0  0  0  0  0  0
  186.2960  178.5330  141.9250 O   0  0  0  0  0  0  0  0  0  0  0  0
  185.3510  178.1760  142.6110 C   0  0  0  0  0  0  0  0  0  0  0  0
  189.4290  176.3190  146.8970 C   0  0  2  0  0  3  0  0  0  0  0  0
  190.4500  177.2370  147.0640 F   0  0  0  0  0  0  0  0  0  0  0  0
  188.7400  174.2160  147.7970 F   0  0  0  0  0  0  0  0  0  0  0  0
  190.4820  174.2410  146.3570 F   0  0  0  0  0  0  0  0  0  0  0  0
  189.8470  174.9310  147.3750 C   0  0  0  0  0  0  0  0  0  0  0  0
  190.7260  175.0660  148.4360 F   0  0  0  0  0  0  0  0  0  0  0  0
  195.2120  169.7940  138.9630 C   0  0  2  0  0  3  0  0  0  0  0  0
  194.8590  168.3970  138.4990 C   0  0  0  0  0  2  0  0  0  0  0  0
  193.7490  169.3180  138.9800 C   0  0  2  0  0  3  0  0  0  0  0  0
  195.6000  170.6250  137.7430 C   0  0  0  0  0  2  0  0  0  0  0  0
  197.5460  170.8490  139.2750 C   0  0  0  0  0  1  0  0  0  0  0  0
  197.0260  171.1330  137.8770 C   0  0  2  0  0  3  0  0  0  0  0  0
  197.0500  172.5680  137.6390 N   0  0  0  0  0  2  0  0  0  0  0  0
  195.2260  174.5660  138.3320 O   0  0  0  0  0  0  0  0  0  0  0  0
  197.0270  173.1950  138.8940 N   0  0  0  0  0  2  0  0  0  0  0  0
  196.0500  174.1870  139.2090 C   0  0  0  0  0  0  0  0  0  0  0  0
  196.0000  174.7550  140.5150 N   0  0  0  0  0  2  0  0  0  0  0  0
  196.8090  174.2410  141.6060 C   0  0  0  0  0  2  0  0  0  0  0  0
  196.0070  174.2540  142.8910 C   0  0  0  0  0  2  0  0  0  0  0  0
  194.7580  173.6560  142.6740 O   0  0  0  0  0  0  0  0  0  0  0  0
  193.8790  174.3350  143.5220 C   0  0  1  0  0  3  0  0  0  0  0  0
  193.5940  173.5040  144.7550 C   0  0  0  0  0  0  0  0  0  0  0  0
  193.6270  174.0260  145.9520 N   0  0  0  0  0  0  0  0  0  0  0  0
  193.7670  176.3070  145.0580 C   0  0  0  0  0  2  0  0  0  0  0  0
  194.0380  175.3980  146.2440 C   0  0  0  0  0  2  0  0  0  0  0  0
  194.4580  175.7090  143.8450 C   0  0  0  0  0  2  0  0  0  0  0  0
  193.2180  172.1660  144.5800 O   0  0  0  0  0  0  0  0  0  0  0  0
  194.1700  171.1130  144.4930 C   0  0  0  0  0  2  0  0  0  0  0  0
  193.8450  169.5080  142.6900 N   0  0  0  0  0  1  0  0  0  0  0  0
  193.4880  169.8250  144.0620 C   0  0  0  0  0  2  0  0  0  0  0  0
  1  3  2  0  0  0  0
  2  5  1  1  0  0  0
  2  8  1  0  0  0  0
  2 41  1  0  0  0  0
  3  7  1  0  0  0  0
  3 11  1  0  0  0  0
  4 10  1  0  0  0  0
  4  5  1  0  0  0  0
  6  9  2  0  0  0  0
  6  8  1  0  0  0  0
  7 13  1  1  0  0  0
  8  1  1  6  0  0  0
  9 12  1  0  0  0  0
 10  6  1  0  0  0  0
 12  7  1  0  0  0  0
 13 15  2  0  0  0  0
 13 16  1  0  0  0  0
 14 13  2  0  0  0  0
 16 19  1  0  0  0  0
 18 19  1  0  0  0  0
 18 17  1  0  0  0  0
 20 18  2  0  0  0  0
 21 22  1  0  0  0  0
 22 17  1  0  0  0  0
 23 17  1  6  0  0  0
 23 33  1  0  0  0  0
 24 29  1  0  0  0  0
 25 32  1  6  0  0  0
 25 28  1  0  0  0  0
 25 24  1  0  0  0  0
 26 23  1  0  0  0  0
 26 27  1  0  0  0  0
 28 26  2  0  0  0  0
 29 27  1  0  0  0  0
 30 32  1  0  0  0  0
 31 32  2  0  0  0  0
 33 34  1  6  0  0  0
 33 37  1  0  0  0  0
 36 37  1  0  0  0  0
 37 35  1  0  0  0  0
 37 38  1  0  0  0  0
 39 42  1  6  0  0  0
 39 41  1  0  0  0  0
 40 39  1  0  0  0  0
 41 40  1  6  0  0  0
 42 44  1  0  0  0  0
 44 43  1  1  0  0  0
 45 44  1  0  0  0  0
 45 47  1  0  0  0  0
 46 48  2  0  0  0  0
 47 48  1  0  0  0  0
 48 49  1  0  0  0  0
 49 50  1  0  0  0  0
 50 51  1  0  0  0  0
 52 51  1  0  0  0  0
 53 52  1  6  0  0  0
 53 58  1  0  0  0  0
 53 54  1  0  0  0  0
 54 55  2  0  0  0  0
 55 57  1  0  0  0  0
 56 57  1  0  0  0  0
 58 56  1  0  0  0  0
 59 54  1  0  0  0  0
 60 59  1  0  0  0  0
 61 62  1  0  0  0  0
 62 60  1  0  0  0  0
M  END
>  <MODEL>
3

>  <REMARK>
 VINA RESULT:      -5.5      1.087      2.126
  Name = 
  21 active torsions:
  status: ('A' for Active; 'I' for Inactive)
    1  A    between atoms: N_1  and  C_35
    2  A    between atoms: N_1  and  C_62
    3  A    between atoms: C_3  and  N_20
    4  A    between atoms: C_3  and  S_30
    5  A    between atoms: N_4  and  C_29
    6  A    between atoms: C_6  and  O_41
    7  A    between atoms: C_14  and  C_23
    8  A    between atoms: C_15  and  C_62
    9  A    between atoms: C_19  and  C_37
   10  A    between atoms: C_21  and  O_22
   11  A    between atoms: O_22  and  C_53
   12  A    between atoms: C_24  and  S_30
   13  A    between atoms: N_27  and  N_54
   14  A    between atoms: C_37  and  C_38
   15  A    between atoms: C_38  and  N_54
   16  A    between atoms: O_41  and  C_45
   17  A    between atoms: N_42  and  C_43
   18  A    between atoms: C_43  and  C_45
   19  A    between atoms: C_51  and  C_59
   20  A    between atoms: C_51  and  C_62
   21  A    between atoms: C_53  and  C_56
                            x       y       z     vdW  Elec       q    Type
                         _______ _______ _______ _____ _____    ______ ____

>  <TORSDO>
F 21

$$$$
=
 OpenBabel11062423013D

 62 66  0  0  1  0  0  0  0  0999 V2000
  193.4990  173.6600  144.8210 C   0  0  0  0  0  3  0  0  0  0  0  0
  194.3160  171.3570  144.6970 N   0  0  1  0  0  0  0  0  0  0  0  0
  192.6830  174.6220  145.2530 C   0  0  0  0  0  0  0  0  0  0  0  0
  193.1510  169.7800  143.3490 N   0  0  0  0  0  2  0  0  0  0  0  0
  193.8900  169.9590  144.5890 C   0  0  0  0  0  2  0  0  0  0  0  0
  191.9420  171.8190  144.0690 C   0  0  0  0  0  0  0  0  0  0  0  0
  191.3170  174.2370  145.7620 C   0  0  2  0  0  3  0  0  0  0  0  0
  193.1340  172.2050  144.9420 C   0  0  2  0  0  3  0  0  0  0  0  0
  190.8190  172.4880  144.0310 N   0  0  0  0  0  0  0  0  0  0  0  0
  191.9680  170.5340  143.4400 N   0  0  0  0  0  2  0  0  0  0  0  0
  193.1220  176.0430  145.1040 C   0  0  0  0  0  1  0  0  0  0  0  0
  190.4730  173.8100  144.5730 C   0  0  0  0  0  2  0  0  0  0  0  0
  190.4850  175.5280  146.6820 S   0  0  0  0  0  0  0  0  0  0  0  0
  191.1010  175.6760  148.0460 O   0  0  0  0  0  0  0  0  0  0  0  0
  190.6200  176.8270  145.9370 O   0  0  0  0  0  0  0  0  0  0  0  0
  188.7580  175.1300  146.8350 C   0  0  0  0  0  2  0  0  0  0  0  0
  186.7810  178.1460  145.5140 N   0  0  0  0  0  0  0  0  0  0  0  0
  187.4920  177.2730  146.4180 C   0  0  0  0  0  0  0  0  0  0  0  0
  187.9750  176.0040  145.9760 N   0  0  0  0  0  2  0  0  0  0  0  0
  187.6680  177.6210  147.6180 O   0  0  0  0  0  0  0  0  0  0  0  0
  184.8590  178.9080  146.8280 C   0  0  0  0  0  1  0  0  0  0  0  0
  186.0930  179.3210  146.0420 C   0  0  0  0  0  2  0  0  0  0  0  0
  186.5860  177.8690  144.0830 C   0  0  2  0  0  3  0  0  0  0  0  0
  190.2540  176.1780  142.5360 C   0  0  0  0  0  2  0  0  0  0  0  0
  188.9520  175.8560  141.7990 C   0  0  2  0  0  3  0  0  0  0  0  0
  187.8250  177.4100  143.3690 C   0  0  0  0  0  0  0  0  0  0  0  0
  189.0900  178.0500  143.5910 N   0  0  0  0  0  2  0  0  0  0  0  0
  187.7510  176.3480  142.5590 C   0  0  0  0  0  3  0  0  0  0  0  0
  190.2890  177.6690  142.8460 C   0  0  0  0  0  2  0  0  0  0  0  0
  189.7030  173.7840  140.4650 C   0  0  0  0  0  1  0  0  0  0  0  0
  188.0550  173.6910  142.1320 O   0  0  0  0  0  0  0  0  0  0  0  0
  188.8440  174.3920  141.5170 C   0  0  0  0  0  0  0  0  0  0  0  0
  185.7740  178.9250  143.3110 C   0  0  2  0  0  3  0  0  0  0  0  0
  185.7830  180.1590  143.9340 F   0  0  0  0  0  0  0  0  0  0  0  0
  184.0720  178.7580  141.6430 F   0  0  0  0  0  0  0  0  0  0  0  0
  184.1970  177.1310  143.2070 F   0  0  0  0  0  0  0  0  0  0  0  0
  184.3530  178.4850  142.9700 C   0  0  0  0  0  0  0  0  0  0  0  0
  183.4630  179.1820  143.7690 F   0  0  0  0  0  0  0  0  0  0  0  0
  196.6310  171.8270  145.5200 C   0  0  2  0  0  3  0  0  0  0  0  0
  196.2810  170.3870  145.8260 C   0  0  0  0  0  2  0  0  0  0  0  0
  195.1850  171.4410  145.8750 C   0  0  2  0  0  3  0  0  0  0  0  0
  196.9120  171.9500  144.0250 C   0  0  0  0  0  2  0  0  0  0  0  0
  197.4440  174.1970  144.9470 C   0  0  0  0  0  1  0  0  0  0  0  0
  197.3640  173.3600  143.6830 C   0  0  2  0  0  3  0  0  0  0  0  0
  196.4080  173.9640  142.7670 N   0  0  0  0  0  2  0  0  0  0  0  0
  196.2160  174.1400  139.9870 O   0  0  0  0  0  0  0  0  0  0  0  0
  195.9060  172.9340  141.9580 N   0  0  0  0  0  2  0  0  0  0  0  0
  195.8610  173.0620  140.5370 C   0  0  0  0  0  0  0  0  0  0  0  0
  195.4170  171.9730  139.7330 N   0  0  0  0  0  2  0  0  0  0  0  0
  195.1560  170.6600  140.2950 C   0  0  0  0  0  2  0  0  0  0  0  0
  193.7770  170.1880  139.8800 C   0  0  0  0  0  2  0  0  0  0  0  0
  192.8540  171.2290  140.0390 O   0  0  0  0  0  0  0  0  0  0  0  0
  191.6190  170.6750  139.6940 C   0  0  1  0  0  3  0  0  0  0  0  0
  191.2700  171.0240  138.2620 C   0  0  0  0  0  0  0  0  0  0  0  0
  190.8230  170.1220  137.4290 N   0  0  0  0  0  0  0  0  0  0  0  0
  190.5200  168.4770  139.2240 C   0  0  0  0  0  2  0  0  0  0  0  0
  190.7160  168.6960  137.7350 C   0  0  0  0  0  2  0  0  0  0  0  0
  191.6570  169.1720  139.9520 C   0  0  0  0  0  2  0  0  0  0  0  0
  191.3670  172.3640  137.8640 O   0  0  0  0  0  0  0  0  0  0  0  0
  191.4270  172.7490  136.4960 C   0  0  0  0  0  2  0  0  0  0  0  0
  189.4840  174.1710  136.1260 N   0  0  0  0  0  1  0  0  0  0  0  0
  190.9220  174.1730  136.3320 C   0  0  0  0  0  2  0  0  0  0  0  0
  1  3  2  0  0  0  0
  2  5  1  1  0  0  0
  2  8  1  0  0  0  0
  2 41  1  0  0  0  0
  3  7  1  0  0  0  0
  4 10  1  0  0  0  0
  4  5  1  0  0  0  0
  6  8  1  0  0  0  0
  7 13  1  6  0  0  0
  8  1  1  6  0  0  0
  9  6  2  0  0  0  0
  9 12  1  0  0  0  0
 10  6  1  0  0  0  0
 11  3  1  0  0  0  0
 12  7  1  0  0  0  0
 13 16  1  0  0  0  0
 13 14  2  0  0  0  0
 15 13  2  0  0  0  0
 17 22  1  0  0  0  0
 17 18  1  0  0  0  0
 18 20  2  0  0  0  0
 19 18  1  0  0  0  0
 19 16  1  0  0  0  0
 22 21  1  0  0  0  0
 23 17  1  1  0  0  0
 24 29  1  0  0  0  0
 25 32  1  1  0  0  0
 25 24  1  0  0  0  0
 25 28  1  0  0  0  0
 26 27  1  0  0  0  0
 26 23  1  0  0  0  0
 28 26  2  0  0  0  0
 29 27  1  0  0  0  0
 30 32  1  0  0  0  0
 32 31  2  0  0  0  0
 33 34  1  1  0  0  0
 33 23  1  0  0  0  0
 35 37  1  0  0  0  0
 37 36  1  0  0  0  0
 37 33  1  0  0  0  0
 37 38  1  0  0  0  0
 39 42  1  6  0  0  0
 39 40  1  0  0  0  0
 39 41  1  0  0  0  0
 41 40  1  6  0  0  0
 44 42  1  0  0  0  0
 44 43  1  1  0  0  0
 45 44  1  0  0  0  0
 46 48  2  0  0  0  0
 47 45  1  0  0  0  0
 48 47  1  0  0  0  0
 49 50  1  0  0  0  0
 49 48  1  0  0  0  0
 51 52  1  0  0  0  0
 51 50  1  0  0  0  0
 53 58  1  0  0  0  0
 53 52  1  6  0  0  0
 54 53  1  0  0  0  0
 55 57  1  0  0  0  0
 55 54  2  0  0  0  0
 56 58  1  0  0  0  0
 57 56  1  0  0  0  0
 59 54  1  0  0  0  0
 60 59  1  0  0  0  0
 61 62  1  0  0  0  0
 62 60  1  0  0  0  0
M  END
>  <MODEL>
4

>  <REMARK>
 VINA RESULT:      -5.4      2.973      6.250
  Name = 
  21 active torsions:
  status: ('A' for Active; 'I' for Inactive)
    1  A    between atoms: N_1  and  C_35
    2  A    between atoms: N_1  and  C_62
    3  A    between atoms: C_3  and  N_20
    4  A    between atoms: C_3  and  S_30
    5  A    between atoms: N_4  and  C_29
    6  A    between atoms: C_6  and  O_41
    7  A    between atoms: C_14  and  C_23
    8  A    between atoms: C_15  and  C_62
    9  A    between atoms: C_19  and  C_37
   10  A    between atoms: C_21  and  O_22
   11  A    between atoms: O_22  and  C_53
   12  A    between atoms: C_24  and  S_30
   13  A    between atoms: N_27  and  N_54
   14  A    between atoms: C_37  and  C_38
   15  A    between atoms: C_38  and  N_54
   16  A    between atoms: O_41  and  C_45
   17  A    between atoms: N_42  and  C_43
   18  A    between atoms: C_43  and  C_45
   19  A    between atoms: C_51  and  C_59
   20  A    between atoms: C_51  and  C_62
   21  A    between atoms: C_53  and  C_56
                            x       y       z     vdW  Elec       q    Type
                         _______ _______ _______ _____ _____    ______ ____

>  <TORSDO>
F 21

$$$$
=
 OpenBabel11062423013D

 62 66  0  0  1  0  0  0  0  0999 V2000
  192.4390  173.9230  138.4160 C   0  0  0  0  0  3  0  0  0  0  0  0
  190.4300  172.8970  137.4660 N   0  0  1  0  0  0  0  0  0  0  0  0
  193.7290  173.9500  138.7470 C   0  0  0  0  0  0  0  0  0  0  0  0
  189.2510  171.2620  138.7290 N   0  0  0  0  0  2  0  0  0  0  0  0
  189.6680  171.6480  137.3900 C   0  0  0  0  0  2  0  0  0  0  0  0
  191.6130  171.7150  139.3230 C   0  0  0  0  0  0  0  0  0  0  0  0
  194.4570  172.6420  138.9300 C   0  0  2  0  0  3  0  0  0  0  0  0
  191.7320  172.6300  138.1060 C   0  0  2  0  0  3  0  0  0  0  0  0
  192.6110  171.4200  140.1150 N   0  0  0  0  0  0  0  0  0  0  0  0
  190.4060  170.9600  139.4690 N   0  0  0  0  0  2  0  0  0  0  0  0
  194.3600  175.2750  139.0320 C   0  0  0  0  0  1  0  0  0  0  0  0
  193.9580  171.9990  140.2140 C   0  0  0  0  0  2  0  0  0  0  0  0
  196.2410  172.7910  138.9640 S   0  0  0  0  0  0  0  0  0  0  0  0
  196.8710  171.4490  139.2100 O   0  0  0  0  0  0  0  0  0  0  0  0
  196.7130  173.3210  137.6390 O   0  0  0  0  0  0  0  0  0  0  0  0
  196.7190  173.9320  140.2420 C   0  0  0  0  0  2  0  0  0  0  0  0
  195.4430  172.9970  143.7410 N   0  0  0  0  0  0  0  0  0  0  0  0
  196.2980  173.0860  142.5820 C   0  0  0  0  0  0  0  0  0  0  0  0
  195.8590  173.7590  141.4010 N   0  0  0  0  0  2  0  0  0  0  0  0
  197.4370  172.5430  142.5990 O   0  0  0  0  0  0  0  0  0  0  0  0
  196.7050  172.8300  145.8340 C   0  0  0  0  0  1  0  0  0  0  0  0
  195.8110  172.1080  144.8400 C   0  0  0  0  0  2  0  0  0  0  0  0
  194.1310  173.6560  143.8500 C   0  0  2  0  0  3  0  0  0  0  0  0
  193.5510  177.1970  146.2640 C   0  0  0  0  0  2  0  0  0  0  0  0
  193.2790  175.8380  146.9120 C   0  0  2  0  0  3  0  0  0  0  0  0
  194.0990  174.8110  144.8090 C   0  0  0  0  0  0  0  0  0  0  0  0
  194.8210  176.0210  144.5390 N   0  0  0  0  0  2  0  0  0  0  0  0
  193.3340  174.7230  145.9030 C   0  0  0  0  0  3  0  0  0  0  0  0
  194.8650  177.1240  145.4980 C   0  0  0  0  0  2  0  0  0  0  0  0
  191.5640  177.0460  148.4080 C   0  0  0  0  0  1  0  0  0  0  0  0
  191.2340  174.8660  147.6050 O   0  0  0  0  0  0  0  0  0  0  0  0
  191.9700  175.8410  147.6350 C   0  0  0  0  0  0  0  0  0  0  0  0
  192.9250  172.7060  143.9740 C   0  0  2  0  0  3  0  0  0  0  0  0
  193.2460  171.3980  143.6610 F   0  0  0  0  0  0  0  0  0  0  0  0
  190.9790  172.0830  142.7380 F   0  0  0  0  0  0  0  0  0  0  0  0
  190.8780  173.9410  144.0220 F   0  0  0  0  0  0  0  0  0  0  0  0
  191.6910  173.1730  143.2070 C   0  0  0  0  0  0  0  0  0  0  0  0
  192.0940  173.9420  142.1290 F   0  0  0  0  0  0  0  0  0  0  0  0
  189.7930  174.4950  135.6490 C   0  0  2  0  0  3  0  0  0  0  0  0
  189.4640  173.0860  135.2060 C   0  0  0  0  0  2  0  0  0  0  0  0
  190.6840  173.3180  136.0840 C   0  0  2  0  0  3  0  0  0  0  0  0
  188.7590  174.9310  136.6830 C   0  0  0  0  0  2  0  0  0  0  0  0
  188.0780  177.0440  135.5630 C   0  0  0  0  0  1  0  0  0  0  0  0
  187.6130  175.6700  136.0110 C   0  0  2  0  0  3  0  0  0  0  0  0
  186.5160  175.8180  136.9540 N   0  0  0  0  0  2  0  0  0  0  0  0
  185.7370  177.6570  138.9060 O   0  0  0  0  0  0  0  0  0  0  0  0
  187.0790  175.8710  138.2380 N   0  0  0  0  0  2  0  0  0  0  0  0
  186.6210  176.8090  139.2100 C   0  0  0  0  0  0  0  0  0  0  0  0
  187.1580  176.7940  140.5300 N   0  0  0  0  0  2  0  0  0  0  0  0
  188.0500  175.7410  140.9830 C   0  0  0  0  0  2  0  0  0  0  0  0
  187.9280  175.5750  142.4840 C   0  0  0  0  0  2  0  0  0  0  0  0
  186.8360  176.3180  142.9540 O   0  0  0  0  0  0  0  0  0  0  0  0
  187.3370  177.0590  144.0260 C   0  0  1  0  0  3  0  0  0  0  0  0
  186.4440  176.8970  145.2390 C   0  0  0  0  0  0  0  0  0  0  0  0
  186.9400  176.6570  146.4240 N   0  0  0  0  0  0  0  0  0  0  0  0
  189.2290  177.1080  145.6630 C   0  0  0  0  0  2  0  0  0  0  0  0
  188.3560  176.4130  146.6930 C   0  0  0  0  0  2  0  0  0  0  0  0
  188.7830  176.6480  144.2870 C   0  0  0  0  0  2  0  0  0  0  0  0
  185.0660  177.0850  145.0770 O   0  0  0  0  0  0  0  0  0  0  0  0
  184.4250  178.3180  145.3790 C   0  0  0  0  0  2  0  0  0  0  0  0
  183.8870  178.4970  143.0100 N   0  0  0  0  0  1  0  0  0  0  0  0
  184.4180  179.2180  144.1550 C   0  0  0  0  0  2  0  0  0  0  0  0
  1  3  2  0  0  0  0
  2  5  1  6  0  0  0
  2  8  1  0  0  0  0
  3  7  1  0  0  0  0
  3 11  1  0  0  0  0
  4 10  1  0  0  0  0
  5  4  1  0  0  0  0
  6 10  1  0  0  0  0
  6  9  2  0  0  0  0
  7 13  1  1  0  0  0
  7 12  1  0  0  0  0
  8  1  1  1  0  0  0
  8  6  1  0  0  0  0
  9 12  1  0  0  0  0
 13 14  2  0  0  0  0
 13 16  1  0  0  0  0
 15 13  2  0  0  0  0
 16 19  1  0  0  0  0
 17 22  1  0  0  0  0
 18 20  2  0  0  0  0
 18 17  1  0  0  0  0
 19 18  1  0  0  0  0
 22 21  1  0  0  0  0
 23 17  1  1  0  0  0
 23 33  1  0  0  0  0
 23 26  1  0  0  0  0
 24 25  1  0  0  0  0
 25 32  1  6  0  0  0
 26 28  2  0  0  0  0
 27 26  1  0  0  0  0
 27 29  1  0  0  0  0
 28 25  1  0  0  0  0
 29 24  1  0  0  0  0
 31 32  2  0  0  0  0
 32 30  1  0  0  0  0
 33 34  1  6  0  0  0
 35 37  1  0  0  0  0
 37 33  1  0  0  0  0
 37 36  1  0  0  0  0
 38 37  1  0  0  0  0
 39 41  1  0  0  0  0
 39 42  1  1  0  0  0
 40 39  1  0  0  0  0
 41 40  1  6  0  0  0
 41  2  1  0  0  0  0
 44 43  1  1  0  0  0
 44 42  1  0  0  0  0
 44 45  1  0  0  0  0
 45 47  1  0  0  0  0
 46 48  2  0  0  0  0
 47 48  1  0  0  0  0
 48 49  1  0  0  0  0
 49 50  1  0  0  0  0
 50 51  1  0  0  0  0
 51 52  1  0  0  0  0
 53 52  1  6  0  0  0
 53 58  1  0  0  0  0
 53 54  1  0  0  0  0
 54 55  2  0  0  0  0
 55 57  1  0  0  0  0
 56 57  1  0  0  0  0
 58 56  1  0  0  0  0
 59 54  1  0  0  0  0
 59 60  1  0  0  0  0
 61 62  1  0  0  0  0
 62 60  1  0  0  0  0
M  END
>  <MODEL>
5

>  <REMARK>
 VINA RESULT:      -5.1      2.918      7.581
  Name = 
  21 active torsions:
  status: ('A' for Active; 'I' for Inactive)
    1  A    between atoms: N_1  and  C_35
    2  A    between atoms: N_1  and  C_62
    3  A    between atoms: C_3  and  N_20
    4  A    between atoms: C_3  and  S_30
    5  A    between atoms: N_4  and  C_29
    6  A    between atoms: C_6  and  O_41
    7  A    between atoms: C_14  and  C_23
    8  A    between atoms: C_15  and  C_62
    9  A    between atoms: C_19  and  C_37
   10  A    between atoms: C_21  and  O_22
   11  A    between atoms: O_22  and  C_53
   12  A    between atoms: C_24  and  S_30
   13  A    between atoms: N_27  and  N_54
   14  A    between atoms: C_37  and  C_38
   15  A    between atoms: C_38  and  N_54
   16  A    between atoms: O_41  and  C_45
   17  A    between atoms: N_42  and  C_43
   18  A    between atoms: C_43  and  C_45
   19  A    between atoms: C_51  and  C_59
   20  A    between atoms: C_51  and  C_62
   21  A    between atoms: C_53  and  C_56
                            x       y       z     vdW  Elec       q    Type
                         _______ _______ _______ _____ _____    ______ ____

>  <TORSDO>
F 21

$$$$
=
 OpenBabel11062423013D

 62 66  0  0  1  0  0  0  0  0999 V2000
  194.5840  173.9270  139.6470 C   0  0  0  0  0  3  0  0  0  0  0  0
  195.8160  173.4490  137.5880 N   0  0  1  0  0  0  0  0  0  0  0  0
  194.4790  174.2900  140.9260 C   0  0  0  0  0  0  0  0  0  0  0  0
  196.9600  171.3750  137.3710 N   0  0  0  0  0  2  0  0  0  0  0  0
  197.0130  172.7940  137.0550 C   0  0  0  0  0  2  0  0  0  0  0  0
  196.3900  172.1610  139.6500 C   0  0  0  0  0  0  0  0  0  0  0  0
  195.6800  174.1310  141.8230 C   0  0  2  0  0  3  0  0  0  0  0  0
  195.8960  173.4810  139.0600 C   0  0  2  0  0  3  0  0  0  0  0  0
  196.4450  171.9110  140.9330 N   0  0  0  0  0  0  0  0  0  0  0  0
  197.0420  171.2420  138.7680 N   0  0  0  0  0  2  0  0  0  0  0  0
  193.1430  174.7290  141.4310 C   0  0  0  0  0  1  0  0  0  0  0  0
  195.8880  172.6460  142.0770 C   0  0  0  0  0  2  0  0  0  0  0  0
  195.5610  175.0150  143.3750 S   0  0  0  0  0  0  0  0  0  0  0  0
  196.9320  175.3670  143.8810 O   0  0  0  0  0  0  0  0  0  0  0  0
  194.7750  176.2780  143.1610 O   0  0  0  0  0  0  0  0  0  0  0  0
  194.7130  174.0060  144.5710 C   0  0  0  0  0  2  0  0  0  0  0  0
  191.4570  175.7900  145.5530 N   0  0  0  0  0  0  0  0  0  0  0  0
  192.8390  175.3740  145.5640 C   0  0  0  0  0  0  0  0  0  0  0  0
  193.3140  174.3950  144.6370 N   0  0  0  0  0  2  0  0  0  0  0  0
  193.6340  175.8590  146.4160 O   0  0  0  0  0  0  0  0  0  0  0  0
  191.1720  175.9090  147.9820 C   0  0  0  0  0  1  0  0  0  0  0  0
  190.9420  176.6030  146.6510 C   0  0  0  0  0  2  0  0  0  0  0  0
  190.4700  175.3420  144.5580 C   0  0  2  0  0  3  0  0  0  0  0  0
  187.7710  178.0670  142.5590 C   0  0  0  0  0  2  0  0  0  0  0  0
  187.5220  177.7720  144.0390 C   0  0  2  0  0  3  0  0  0  0  0  0
  189.6150  176.4430  143.9980 C   0  0  0  0  0  0  0  0  0  0  0  0
  190.0390  177.2070  142.8600 N   0  0  0  0  0  2  0  0  0  0  0  0
  188.4140  176.6690  144.5410 C   0  0  0  0  0  3  0  0  0  0  0  0
  189.2560  178.3320  142.3520 C   0  0  0  0  0  2  0  0  0  0  0  0
  185.4860  177.7500  145.6180 C   0  0  0  0  0  1  0  0  0  0  0  0
  185.3940  176.9420  143.4170 O   0  0  0  0  0  0  0  0  0  0  0  0
  186.0830  177.4520  144.2880 C   0  0  0  0  0  0  0  0  0  0  0  0
  189.6860  174.0710  144.9330 C   0  0  2  0  0  3  0  0  0  0  0  0
  189.8080  173.7490  146.2720 F   0  0  0  0  0  0  0  0  0  0  0  0
  190.6770  173.2760  142.9110 F   0  0  0  0  0  0  0  0  0  0  0  0
  190.7530  171.9400  144.7330 F   0  0  0  0  0  0  0  0  0  0  0  0
  189.9940  172.8700  144.0440 C   0  0  0  0  0  0  0  0  0  0  0  0
  188.8040  172.2760  143.6610 F   0  0  0  0  0  0  0  0  0  0  0  0
  194.5540  175.2330  136.3670 C   0  0  2  0  0  3  0  0  0  0  0  0
  195.8020  174.8860  135.5840 C   0  0  0  0  0  2  0  0  0  0  0  0
  195.8450  174.8330  137.1040 C   0  0  2  0  0  3  0  0  0  0  0  0
  193.5430  174.1040  136.1910 C   0  0  0  0  0  2  0  0  0  0  0  0
  192.1980  176.0970  135.5600 C   0  0  0  0  0  1  0  0  0  0  0  0
  192.3300  174.5920  135.4160 C   0  0  2  0  0  3  0  0  0  0  0  0
  191.1330  173.9530  135.9410 N   0  0  0  0  0  2  0  0  0  0  0  0
  189.8070  171.9020  134.5880 O   0  0  0  0  0  0  0  0  0  0  0  0
  191.4320  172.5930  136.1100 N   0  0  0  0  0  2  0  0  0  0  0  0
  190.7460  171.5850  135.3680 C   0  0  0  0  0  0  0  0  0  0  0  0
  191.1200  170.2170  135.5010 N   0  0  0  0  0  2  0  0  0  0  0  0
  192.2960  169.8120  136.2510 C   0  0  0  0  0  2  0  0  0  0  0  0
  191.8820  168.9740  137.4430 C   0  0  0  0  0  2  0  0  0  0  0  0
  191.2720  169.7900  138.4060 O   0  0  0  0  0  0  0  0  0  0  0  0
  192.3230  170.2780  139.1860 C   0  0  1  0  0  3  0  0  0  0  0  0
  191.7980  171.2460  140.2260 C   0  0  0  0  0  0  0  0  0  0  0  0
  192.1780  171.1780  141.4740 N   0  0  0  0  0  0  0  0  0  0  0  0
  193.9520  169.5660  140.9470 C   0  0  0  0  0  2  0  0  0  0  0  0
  193.0370  170.1290  142.0200 C   0  0  0  0  0  2  0  0  0  0  0  0
  193.0840  169.1020  139.7910 C   0  0  0  0  0  2  0  0  0  0  0  0
  190.9440  172.2730  139.8040 O   0  0  0  0  0  0  0  0  0  0  0  0
  189.6850  172.0130  139.1940 C   0  0  0  0  0  2  0  0  0  0  0  0
  188.4780  173.7320  140.4280 N   0  0  0  0  0  1  0  0  0  0  0  0
  188.8760  173.2960  139.1010 C   0  0  0  0  0  2  0  0  0  0  0  0
  1  3  2  0  0  0  0
  2  5  1  6  0  0  0
  2  8  1  0  0  0  0
  3 11  1  0  0  0  0
  3  7  1  0  0  0  0
  4 10  1  0  0  0  0
  5  4  1  0  0  0  0
  6  9  2  0  0  0  0
  7 12  1  0  0  0  0
  7 13  1  1  0  0  0
  8  1  1  1  0  0  0
  8  6  1  0  0  0  0
  9 12  1  0  0  0  0
 10  6  1  0  0  0  0
 13 14  2  0  0  0  0
 13 16  1  0  0  0  0
 15 13  2  0  0  0  0
 16 19  1  0  0  0  0
 17 18  1  0  0  0  0
 17 22  1  0  0  0  0
 18 20  2  0  0  0  0
 19 18  1  0  0  0  0
 22 21  1  0  0  0  0
 23 33  1  0  0  0  0
 23 17  1  1  0  0  0
 24 25  1  0  0  0  0
 25 32  1  6  0  0  0
 25 28  1  0  0  0  0
 26 28  2  0  0  0  0
 26 23  1  0  0  0  0
 27 26  1  0  0  0  0
 29 24  1  0  0  0  0
 29 27  1  0  0  0  0
 31 32  2  0  0  0  0
 32 30  1  0  0  0  0
 33 34  1  1  0  0  0
 35 37  1  0  0  0  0
 37 36  1  0  0  0  0
 37 33  1  0  0  0  0
 38 37  1  0  0  0  0
 39 42  1  6  0  0  0
 39 41  1  0  0  0  0
 40 39  1  0  0  0  0
 41 40  1  6  0  0  0
 41  2  1  0  0  0  0
 44 43  1  1  0  0  0
 44 45  1  0  0  0  0
 44 42  1  0  0  0  0
 45 47  1  0  0  0  0
 46 48  2  0  0  0  0
 48 49  1  0  0  0  0
 48 47  1  0  0  0  0
 49 50  1  0  0  0  0
 50 51  1  0  0  0  0
 51 52  1  0  0  0  0
 53 52  1  1  0  0  0
 53 58  1  0  0  0  0
 53 54  1  0  0  0  0
 54 55  2  0  0  0  0
 55 57  1  0  0  0  0
 56 57  1  0  0  0  0
 58 56  1  0  0  0  0
 59 54  1  0  0  0  0
 60 59  1  0  0  0  0
 62 60  1  0  0  0  0
 62 61  1  0  0  0  0
M  END
>  <MODEL>
6

>  <REMARK>
 VINA RESULT:      -5.0      2.533      5.532
  Name = 
  21 active torsions:
  status: ('A' for Active; 'I' for Inactive)
    1  A    between atoms: N_1  and  C_35
    2  A    between atoms: N_1  and  C_62
    3  A    between atoms: C_3  and  N_20
    4  A    between atoms: C_3  and  S_30
    5  A    between atoms: N_4  and  C_29
    6  A    between atoms: C_6  and  O_41
    7  A    between atoms: C_14  and  C_23
    8  A    between atoms: C_15  and  C_62
    9  A    between atoms: C_19  and  C_37
   10  A    between atoms: C_21  and  O_22
   11  A    between atoms: O_22  and  C_53
   12  A    between atoms: C_24  and  S_30
   13  A    between atoms: N_27  and  N_54
   14  A    between atoms: C_37  and  C_38
   15  A    between atoms: C_38  and  N_54
   16  A    between atoms: O_41  and  C_45
   17  A    between atoms: N_42  and  C_43
   18  A    between atoms: C_43  and  C_45
   19  A    between atoms: C_51  and  C_59
   20  A    between atoms: C_51  and  C_62
   21  A    between atoms: C_53  and  C_56
                            x       y       z     vdW  Elec       q    Type
                         _______ _______ _______ _____ _____    ______ ____

>  <TORSDO>
F 21

$$$$
=
 OpenBabel11062423013D

 62 66  0  0  1  0  0  0  0  0999 V2000
  193.7870  174.5960  141.2860 C   0  0  0  0  0  3  0  0  0  0  0  0
  195.7830  174.0620  139.9740 N   0  0  1  0  0  0  0  0  0  0  0  0
  193.1290  175.1980  142.2760 C   0  0  0  0  0  0  0  0  0  0  0  0
  197.3370  172.4700  140.8150 N   0  0  0  0  0  2  0  0  0  0  0  0
  197.2020  173.7150  140.0750 C   0  0  0  0  0  2  0  0  0  0  0  0
  195.7860  173.5480  142.4190 C   0  0  0  0  0  0  0  0  0  0  0  0
  193.9010  175.6450  143.4920 C   0  0  2  0  0  3  0  0  0  0  0  0
  195.2870  174.4640  141.3030 C   0  0  2  0  0  3  0  0  0  0  0  0
  195.4000  173.6380  143.6650 N   0  0  0  0  0  0  0  0  0  0  0  0
  196.9050  172.7030  142.1320 N   0  0  0  0  0  2  0  0  0  0  0  0
  191.6400  175.2960  142.1800 C   0  0  0  0  0  1  0  0  0  0  0  0
  194.3060  174.4070  144.2750 C   0  0  0  0  0  2  0  0  0  0  0  0
  193.0130  176.7850  144.5490 S   0  0  0  0  0  0  0  0  0  0  0  0
  193.9630  177.4650  145.4950 O   0  0  0  0  0  0  0  0  0  0  0  0
  192.3400  177.8230  143.6950 O   0  0  0  0  0  0  0  0  0  0  0  0
  191.7700  175.9020  145.4650 C   0  0  0  0  0  2  0  0  0  0  0  0
  188.0160  176.7090  145.5440 N   0  0  0  0  0  0  0  0  0  0  0  0
  189.2970  176.1500  145.9050 C   0  0  0  0  0  0  0  0  0  0  0  0
  190.4500  176.3860  145.0950 N   0  0  0  0  0  2  0  0  0  0  0  0
  189.3990  175.4250  146.9330 O   0  0  0  0  0  0  0  0  0  0  0  0
  186.7380  176.8920  147.6260 C   0  0  0  0  0  1  0  0  0  0  0  0
  186.8150  176.2630  146.2450 C   0  0  0  0  0  2  0  0  0  0  0  0
  187.8060  177.6230  144.4110 C   0  0  2  0  0  3  0  0  0  0  0  0
  183.9910  179.5330  143.6960 C   0  0  0  0  0  2  0  0  0  0  0  0
  184.2640  178.1980  143.0000 C   0  0  2  0  0  3  0  0  0  0  0  0
  186.3930  178.1130  144.2680 C   0  0  0  0  0  0  0  0  0  0  0  0
  185.8140  179.0010  145.2350 N   0  0  0  0  0  2  0  0  0  0  0  0
  185.6910  177.7580  143.1870 C   0  0  0  0  0  3  0  0  0  0  0  0
  184.4170  179.4240  145.1550 C   0  0  0  0  0  2  0  0  0  0  0  0
  184.9990  178.2930  140.5330 C   0  0  0  0  0  1  0  0  0  0  0  0
  182.7460  178.3140  141.1870 O   0  0  0  0  0  0  0  0  0  0  0  0
  183.9120  178.2680  141.5480 C   0  0  0  0  0  0  0  0  0  0  0  0
  188.4540  177.1890  143.0830 C   0  0  2  0  0  3  0  0  0  0  0  0
  188.4170  178.1850  142.1250 F   0  0  0  0  0  0  0  0  0  0  0  0
  186.7260  175.5410  143.1630 F   0  0  0  0  0  0  0  0  0  0  0  0
  187.7050  175.9650  141.1700 F   0  0  0  0  0  0  0  0  0  0  0  0
  187.9140  175.8710  142.5350 C   0  0  0  0  0  0  0  0  0  0  0  0
  188.8410  174.8700  142.7740 F   0  0  0  0  0  0  0  0  0  0  0  0
  194.8480  174.9630  137.8340 C   0  0  2  0  0  3  0  0  0  0  0  0
  196.3580  174.9490  137.7470 C   0  0  0  0  0  2  0  0  0  0  0  0
  195.6990  175.2290  139.0880 C   0  0  2  0  0  3  0  0  0  0  0  0
  194.3420  173.5300  137.6970 C   0  0  0  0  0  2  0  0  0  0  0  0
  192.4920  174.4550  136.3170 C   0  0  0  0  0  1  0  0  0  0  0  0
  193.5460  173.3670  136.4120 C   0  0  2  0  0  3  0  0  0  0  0  0
  192.8950  172.0660  136.4090 N   0  0  0  0  0  2  0  0  0  0  0  0
  191.4320  169.8790  137.3420 O   0  0  0  0  0  0  0  0  0  0  0  0
  191.7320  172.1860  137.1830 N   0  0  0  0  0  2  0  0  0  0  0  0
  191.0400  171.0340  137.6640 C   0  0  0  0  0  0  0  0  0  0  0  0
  189.9040  171.1810  138.5110 N   0  0  0  0  0  2  0  0  0  0  0  0
  189.5090  172.4720  139.0470 C   0  0  0  0  0  2  0  0  0  0  0  0
  189.8600  172.5460  140.5200 C   0  0  0  0  0  2  0  0  0  0  0  0
  190.8590  171.6070  140.8140 O   0  0  0  0  0  0  0  0  0  0  0  0
  190.6420  171.2550  142.1480 C   0  0  1  0  0  3  0  0  0  0  0  0
  191.8550  171.6050  142.9860 C   0  0  0  0  0  0  0  0  0  0  0  0
  191.7370  172.2190  144.1340 N   0  0  0  0  0  0  0  0  0  0  0  0
  189.3020  171.9110  144.1570 C   0  0  0  0  0  2  0  0  0  0  0  0
  190.4760  172.7240  144.6750 C   0  0  0  0  0  2  0  0  0  0  0  0
  189.3610  171.9210  142.6390 C   0  0  0  0  0  2  0  0  0  0  0  0
  193.1140  171.1890  142.5360 O   0  0  0  0  0  0  0  0  0  0  0  0
  193.9140  170.2650  143.2640 C   0  0  0  0  0  2  0  0  0  0  0  0
  193.7820  168.3150  141.8090 N   0  0  0  0  0  1  0  0  0  0  0  0
  193.3710  168.8560  143.0940 C   0  0  0  0  0  2  0  0  0  0  0  0
  1  3  2  0  0  0  0
  2  5  1  1  0  0  0
  2  8  1  0  0  0  0
  3  7  1  0  0  0  0
  4 10  1  0  0  0  0
  5  4  1  0  0  0  0
  6  9  2  0  0  0  0
  7 12  1  0  0  0  0
  7 13  1  1  0  0  0
  8  1  1  6  0  0  0
  8  6  1  0  0  0  0
  9 12  1  0  0  0  0
 10  6  1  0  0  0  0
 11  3  1  0  0  0  0
 13 16  1  0  0  0  0
 13 14  2  0  0  0  0
 15 13  2  0  0  0  0
 17 18  1  0  0  0  0
 17 22  1  0  0  0  0
 18 20  2  0  0  0  0
 19 16  1  0  0  0  0
 19 18  1  0  0  0  0
 22 21  1  0  0  0  0
 23 17  1  1  0  0  0
 24 29  1  0  0  0  0
 25 32  1  6  0  0  0
 25 28  1  0  0  0  0
 25 24  1  0  0  0  0
 26 23  1  0  0  0  0
 26 27  1  0  0  0  0
 28 26  2  0  0  0  0
 29 27  1  0  0  0  0
 30 32  1  0  0  0  0
 31 32  2  0  0  0  0
 33 34  1  6  0  0  0
 33 23  1  0  0  0  0
 36 37  1  0  0  0  0
 37 38  1  0  0  0  0
 37 33  1  0  0  0  0
 37 35  1  0  0  0  0
 39 42  1  1  0  0  0
 39 41  1  0  0  0  0
 40 39  1  0  0  0  0
 41 40  1  6  0  0  0
 41  2  1  0  0  0  0
 44 43  1  1  0  0  0
 44 42  1  0  0  0  0
 45 44  1  0  0  0  0
 45 47  1  0  0  0  0
 46 48  2  0  0  0  0
 47 48  1  0  0  0  0
 48 49  1  0  0  0  0
 49 50  1  0  0  0  0
 50 51  1  0  0  0  0
 51 52  1  0  0  0  0
 53 52  1  6  0  0  0
 53 58  1  0  0  0  0
 53 54  1  0  0  0  0
 54 55  2  0  0  0  0
 55 57  1  0  0  0  0
 56 57  1  0  0  0  0
 58 56  1  0  0  0  0
 59 54  1  0  0  0  0
 59 60  1  0  0  0  0
 61 62  1  0  0  0  0
 62 60  1  0  0  0  0
M  END
>  <MODEL>
7

>  <REMARK>
 VINA RESULT:      -4.9      2.733      5.354
  Name = 
  21 active torsions:
  status: ('A' for Active; 'I' for Inactive)
    1  A    between atoms: N_1  and  C_35
    2  A    between atoms: N_1  and  C_62
    3  A    between atoms: C_3  and  N_20
    4  A    between atoms: C_3  and  S_30
    5  A    between atoms: N_4  and  C_29
    6  A    between atoms: C_6  and  O_41
    7  A    between atoms: C_14  and  C_23
    8  A    between atoms: C_15  and  C_62
    9  A    between atoms: C_19  and  C_37
   10  A    between atoms: C_21  and  O_22
   11  A    between atoms: O_22  and  C_53
   12  A    between atoms: C_24  and  S_30
   13  A    between atoms: N_27  and  N_54
   14  A    between atoms: C_37  and  C_38
   15  A    between atoms: C_38  and  N_54
   16  A    between atoms: O_41  and  C_45
   17  A    between atoms: N_42  and  C_43
   18  A    between atoms: C_43  and  C_45
   19  A    between atoms: C_51  and  C_59
   20  A    between atoms: C_51  and  C_62
   21  A    between atoms: C_53  and  C_56
                            x       y       z     vdW  Elec       q    Type
                         _______ _______ _______ _____ _____    ______ ____

>  <TORSDO>
F 21

$$$$
=
 OpenBabel11062423013D

 62 66  0  0  1  0  0  0  0  0999 V2000
  191.4740  173.6650  142.9800 C   0  0  0  0  0  3  0  0  0  0  0  0
  192.9090  174.9690  144.4720 N   0  0  1  0  0  0  0  0  0  0  0  0
  191.1540  172.5890  142.2610 C   0  0  0  0  0  0  0  0  0  0  0  0
  194.8250  176.0620  143.5820 N   0  0  0  0  0  2  0  0  0  0  0  0
  194.2990  175.3500  144.7360 C   0  0  0  0  0  2  0  0  0  0  0  0
  193.8480  174.1850  142.2940 C   0  0  0  0  0  0  0  0  0  0  0  0
  192.2580  171.6670  141.8090 C   0  0  2  0  0  3  0  0  0  0  0  0
  192.8840  173.9100  143.4460 C   0  0  2  0  0  3  0  0  0  0  0  0
  193.9290  173.4460  141.2180 N   0  0  0  0  0  0  0  0  0  0  0  0
  194.8740  175.1600  142.5050 N   0  0  0  0  0  2  0  0  0  0  0  0
  189.7290  172.4130  141.8440 C   0  0  0  0  0  1  0  0  0  0  0  0
  193.0500  172.3760  140.7230 C   0  0  0  0  0  2  0  0  0  0  0  0
  191.6910  170.0730  141.2230 S   0  0  0  0  0  0  0  0  0  0  0  0
  191.5430  169.1170  142.3740 O   0  0  0  0  0  0  0  0  0  0  0  0
  190.3580  170.2440  140.5500 O   0  0  0  0  0  0  0  0  0  0  0  0
  192.8520  169.4270  140.0400 C   0  0  0  0  0  2  0  0  0  0  0  0
  191.8950  170.7480  136.5640 N   0  0  0  0  0  0  0  0  0  0  0  0
  191.9650  169.8930  137.7250 C   0  0  0  0  0  0  0  0  0  0  0  0
  192.8120  170.2250  138.8250 N   0  0  0  0  0  2  0  0  0  0  0  0
  191.2890  168.8270  137.7600 O   0  0  0  0  0  0  0  0  0  0  0  0
  192.1470  169.4160  134.5240 C   0  0  0  0  0  1  0  0  0  0  0  0
  191.2150  170.2750  135.3620 C   0  0  0  0  0  2  0  0  0  0  0  0
  192.5830  172.0440  136.4530 C   0  0  2  0  0  3  0  0  0  0  0  0
  196.8970  172.1030  136.1470 C   0  0  0  0  0  2  0  0  0  0  0  0
  196.2500  172.9050  137.2780 C   0  0  2  0  0  3  0  0  0  0  0  0
  194.0800  171.9570  136.5400 C   0  0  0  0  0  0  0  0  0  0  0  0
  194.7970  170.8690  135.9400 N   0  0  0  0  0  2  0  0  0  0  0  0
  194.7520  172.9470  137.1390 C   0  0  0  0  0  3  0  0  0  0  0  0
  196.2450  170.7280  136.0830 C   0  0  0  0  0  2  0  0  0  0  0  0
  196.1140  175.3270  138.1440 C   0  0  0  0  0  1  0  0  0  0  0  0
  197.8490  174.5710  136.7580 O   0  0  0  0  0  0  0  0  0  0  0  0
  196.8190  174.2860  137.3490 C   0  0  0  0  0  0  0  0  0  0  0  0
  191.9740  173.1880  137.2860 C   0  0  2  0  0  3  0  0  0  0  0  0
  190.9670  172.7520  138.1280 F   0  0  0  0  0  0  0  0  0  0  0  0
  192.2980  175.4910  136.7450 F   0  0  0  0  0  0  0  0  0  0  0  0
  191.6140  174.0970  135.1030 F   0  0  0  0  0  0  0  0  0  0  0  0
  191.5210  174.3840  136.4530 C   0  0  0  0  0  0  0  0  0  0  0  0
  190.2010  174.6710  136.7570 F   0  0  0  0  0  0  0  0  0  0  0  0
  191.2250  175.2260  146.3060 C   0  0  2  0  0  3  0  0  0  0  0  0
  192.6160  175.3450  146.8910 C   0  0  0  0  0  2  0  0  0  0  0  0
  192.3850  174.4030  145.7190 C   0  0  2  0  0  3  0  0  0  0  0  0
  190.9080  176.5120  145.5480 C   0  0  0  0  0  2  0  0  0  0  0  0
  190.2010  177.6760  147.6290 C   0  0  0  0  0  1  0  0  0  0  0  0
  189.7770  177.2660  146.2300 C   0  0  2  0  0  3  0  0  0  0  0  0
  188.6070  176.4060  146.3160 N   0  0  0  0  0  2  0  0  0  0  0  0
  186.3380  176.2560  147.9360 O   0  0  0  0  0  0  0  0  0  0  0  0
  187.4810  177.2250  146.1490 N   0  0  0  0  0  2  0  0  0  0  0  0
  186.3590  177.1300  147.0270 C   0  0  0  0  0  0  0  0  0  0  0  0
  185.2590  178.0240  146.8830 N   0  0  0  0  0  2  0  0  0  0  0  0
  185.3010  179.1520  145.9690 C   0  0  0  0  0  2  0  0  0  0  0  0
  184.2340  178.9920  144.9060 C   0  0  0  0  0  2  0  0  0  0  0  0
  184.6990  179.5070  143.6880 O   0  0  0  0  0  0  0  0  0  0  0  0
  184.9850  178.3850  142.9070 C   0  0  1  0  0  3  0  0  0  0  0  0
  184.0340  178.3100  141.7300 C   0  0  0  0  0  0  0  0  0  0  0  0
  184.4640  178.0670  140.5200 N   0  0  0  0  0  0  0  0  0  0  0  0
  186.7040  177.4800  141.3310 C   0  0  0  0  0  2  0  0  0  0  0  0
  185.8740  177.9550  140.1520 C   0  0  0  0  0  2  0  0  0  0  0  0
  186.4520  178.4260  142.4910 C   0  0  0  0  0  2  0  0  0  0  0  0
  182.6610  178.4340  141.9790 O   0  0  0  0  0  0  0  0  0  0  0  0
  181.7020  178.5060  140.9310 C   0  0  0  0  0  2  0  0  0  0  0  0
  179.3410  177.9670  140.6630 N   0  0  0  0  0  1  0  0  0  0  0  0
  180.3040  178.6480  141.5110 C   0  0  0  0  0  2  0  0  0  0  0  0
  2  5  1  1  0  0  0
  2 41  1  0  0  0  0
  3  1  2  0  0  0  0
  4  5  1  0  0  0  0
  6 10  1  0  0  0  0
  6  8  1  0  0  0  0
  7 13  1  6  0  0  0
  7  3  1  0  0  0  0
  8  1  1  6  0  0  0
  8  2  1  0  0  0  0
  9  6  2  0  0  0  0
 10  4  1  0  0  0  0
 11  3  1  0  0  0  0
 12  9  1  0  0  0  0
 12  7  1  0  0  0  0
 13 14  2  0  0  0  0
 15 13  2  0  0  0  0
 16 13  1  0  0  0  0
 17 18  1  0  0  0  0
 18 20  2  0  0  0  0
 18 19  1  0  0  0  0
 19 16  1  0  0  0  0
 21 22  1  0  0  0  0
 22 17  1  0  0  0  0
 23 26  1  0  0  0  0
 23 17  1  1  0  0  0
 23 33  1  0  0  0  0
 24 25  1  0  0  0  0
 25 32  1  6  0  0  0
 26 28  2  0  0  0  0
 27 29  1  0  0  0  0
 27 26  1  0  0  0  0
 28 25  1  0  0  0  0
 29 24  1  0  0  0  0
 31 32  2  0  0  0  0
 32 30  1  0  0  0  0
 33 34  1  6  0  0  0
 36 37  1  0  0  0  0
 37 35  1  0  0  0  0
 37 38  1  0  0  0  0
 37 33  1  0  0  0  0
 39 42  1  6  0  0  0
 39 40  1  0  0  0  0
 41 39  1  0  0  0  0
 41 40  1  1  0  0  0
 42 44  1  0  0  0  0
 44 45  1  0  0  0  0
 44 43  1  1  0  0  0
 47 45  1  0  0  0  0
 47 48  1  0  0  0  0
 48 46  2  0  0  0  0
 49 48  1  0  0  0  0
 50 49  1  0  0  0  0
 51 50  1  0  0  0  0
 52 51  1  0  0  0  0
 53 52  1  6  0  0  0
 54 59  1  0  0  0  0
 54 53  1  0  0  0  0
 55 54  2  0  0  0  0
 56 58  1  0  0  0  0
 57 55  1  0  0  0  0
 57 56  1  0  0  0  0
 58 53  1  0  0  0  0
 60 62  1  0  0  0  0
 60 59  1  0  0  0  0
 61 62  1  0  0  0  0
M  END
>  <MODEL>
8

>  <REMARK>
 VINA RESULT:      -4.8      3.815     10.711
  Name = 
  21 active torsions:
  status: ('A' for Active; 'I' for Inactive)
    1  A    between atoms: N_1  and  C_35
    2  A    between atoms: N_1  and  C_62
    3  A    between atoms: C_3  and  N_20
    4  A    between atoms: C_3  and  S_30
    5  A    between atoms: N_4  and  C_29
    6  A    between atoms: C_6  and  O_41
    7  A    between atoms: C_14  and  C_23
    8  A    between atoms: C_15  and  C_62
    9  A    between atoms: C_19  and  C_37
   10  A    between atoms: C_21  and  O_22
   11  A    between atoms: O_22  and  C_53
   12  A    between atoms: C_24  and  S_30
   13  A    between atoms: N_27  and  N_54
   14  A    between atoms: C_37  and  C_38
   15  A    between atoms: C_38  and  N_54
   16  A    between atoms: O_41  and  C_45
   17  A    between atoms: N_42  and  C_43
   18  A    between atoms: C_43  and  C_45
   19  A    between atoms: C_51  and  C_59
   20  A    between atoms: C_51  and  C_62
   21  A    between atoms: C_53  and  C_56
                            x       y       z     vdW  Elec       q    Type
                         _______ _______ _______ _____ _____    ______ ____

>  <TORSDO>
F 21

$$$$
=
 OpenBabel11062423013D

 62 66  0  0  1  0  0  0  0  0999 V2000
  190.5430  173.1030  140.1780 C   0  0  0  0  0  3  0  0  0  0  0  0
  192.0630  173.1030  142.0950 N   0  0  1  0  0  0  0  0  0  0  0  0
  190.1770  172.7820  138.9370 C   0  0  0  0  0  0  0  0  0  0  0  0
  193.9410  174.5630  142.0900 N   0  0  0  0  0  2  0  0  0  0  0  0
  193.4680  173.2450  142.4850 C   0  0  0  0  0  2  0  0  0  0  0  0
  192.8840  174.0140  139.9180 C   0  0  0  0  0  0  0  0  0  0  0  0
  191.2480  172.4350  137.9340 C   0  0  2  0  0  3  0  0  0  0  0  0
  191.9770  173.0090  140.6260 C   0  0  2  0  0  3  0  0  0  0  0  0
  192.9030  174.1940  138.6230 N   0  0  0  0  0  0  0  0  0  0  0  0
  193.9270  174.6220  140.6860 N   0  0  0  0  0  2  0  0  0  0  0  0
  188.7320  172.8930  138.5720 C   0  0  0  0  0  1  0  0  0  0  0  0
  191.9910  173.7120  137.5760 C   0  0  0  0  0  2  0  0  0  0  0  0
  190.6390  171.6350  136.4530 S   0  0  0  0  0  0  0  0  0  0  0  0
  189.5810  170.6260  136.8040 O   0  0  0  0  0  0  0  0  0  0  0  0
  190.0460  172.6750  135.5430 O   0  0  0  0  0  0  0  0  0  0  0  0
  191.9860  170.8360  135.6110 C   0  0  0  0  0  2  0  0  0  0  0  0
  195.4880  170.0800  136.9950 N   0  0  0  0  0  0  0  0  0  0  0  0
  194.3570  170.1210  136.0990 C   0  0  0  0  0  0  0  0  0  0  0  0
  193.1220  170.7100  136.5100 N   0  0  0  0  0  2  0  0  0  0  0  0
  194.4480  169.6110  134.9480 O   0  0  0  0  0  0  0  0  0  0  0  0
  197.5520  170.0160  135.6780 C   0  0  0  0  0  1  0  0  0  0  0  0
  196.6510  169.2690  136.6470 C   0  0  0  0  0  2  0  0  0  0  0  0
  195.5080  170.7080  138.3250 C   0  0  2  0  0  3  0  0  0  0  0  0
  196.8200  174.8120  138.6960 C   0  0  0  0  0  2  0  0  0  0  0  0
  197.5680  173.7480  139.5000 C   0  0  2  0  0  3  0  0  0  0  0  0
  196.1500  172.0650  138.3560 C   0  0  0  0  0  0  0  0  0  0  0  0
  195.9390  173.0120  137.2980 N   0  0  0  0  0  2  0  0  0  0  0  0
  196.8820  172.4110  139.4210 C   0  0  0  0  0  3  0  0  0  0  0  0
  196.6180  174.3050  137.2740 C   0  0  0  0  0  2  0  0  0  0  0  0
  197.8030  173.1450  141.9940 C   0  0  0  0  0  1  0  0  0  0  0  0
  197.8360  175.3570  141.2150 O   0  0  0  0  0  0  0  0  0  0  0  0
  197.7450  174.1750  140.9220 C   0  0  0  0  0  0  0  0  0  0  0  0
  195.9370  169.7870  139.4830 C   0  0  2  0  0  3  0  0  0  0  0  0
  196.6320  168.6750  139.0450 F   0  0  0  0  0  0  0  0  0  0  0  0
  195.1030  168.2230  141.0840 F   0  0  0  0  0  0  0  0  0  0  0  0
  194.5530  170.4010  141.3330 F   0  0  0  0  0  0  0  0  0  0  0  0
  194.7940  169.3950  140.4150 C   0  0  0  0  0  0  0  0  0  0  0  0
  193.6490  169.1940  139.6650 F   0  0  0  0  0  0  0  0  0  0  0  0
  190.5290  172.0170  143.7470 C   0  0  2  0  0  3  0  0  0  0  0  0
  191.9620  171.7140  144.1290 C   0  0  0  0  0  2  0  0  0  0  0  0
  191.5990  171.8300  142.6570 C   0  0  2  0  0  3  0  0  0  0  0  0
  190.2300  173.4690  144.1070 C   0  0  0  0  0  2  0  0  0  0  0  0
  189.5220  174.1300  146.3970 C   0  0  0  0  0  1  0  0  0  0  0  0
  190.7080  173.7780  145.5160 C   0  0  2  0  0  3  0  0  0  0  0  0
  191.6270  174.9050  145.4770 N   0  0  0  0  0  2  0  0  0  0  0  0
  191.9630  176.7250  143.3860 O   0  0  0  0  0  0  0  0  0  0  0  0
  190.8530  176.0640  145.3270 N   0  0  0  0  0  2  0  0  0  0  0  0
  191.0430  176.9450  144.2200 C   0  0  0  0  0  0  0  0  0  0  0  0
  190.1930  178.0760  144.0490 N   0  0  0  0  0  2  0  0  0  0  0  0
  189.0190  178.2860  144.8780 C   0  0  0  0  0  2  0  0  0  0  0  0
  187.7760  177.8510  144.1280 C   0  0  0  0  0  2  0  0  0  0  0  0
  187.6650  176.4540  144.1680 O   0  0  0  0  0  0  0  0  0  0  0  0
  187.1280  176.0990  142.9290 C   0  0  1  0  0  3  0  0  0  0  0  0
  186.0020  177.0410  142.5560 C   0  0  0  0  0  0  0  0  0  0  0  0
  185.9180  177.5630  141.3610 N   0  0  0  0  0  0  0  0  0  0  0  0
  187.6710  176.0850  140.4870 C   0  0  0  0  0  2  0  0  0  0  0  0
  186.9240  177.3950  140.3130 C   0  0  0  0  0  2  0  0  0  0  0  0
  188.2450  176.0590  141.8920 C   0  0  0  0  0  2  0  0  0  0  0  0
  185.0020  177.2880  143.5040 O   0  0  0  0  0  0  0  0  0  0  0  0
  184.0690  178.3530  143.3680 C   0  0  0  0  0  2  0  0  0  0  0  0
  184.0730  178.8530  145.7520 N   0  0  0  0  0  1  0  0  0  0  0  0
  184.3210  179.4080  144.4320 C   0  0  0  0  0  2  0  0  0  0  0  0
  2  5  1  6  0  0  0
  2 41  1  0  0  0  0
  3  1  2  0  0  0  0
  4  5  1  0  0  0  0
  6  8  1  0  0  0  0
  6 10  1  0  0  0  0
  7 13  1  6  0  0  0
  7  3  1  0  0  0  0
  8  1  1  1  0  0  0
  8  2  1  0  0  0  0
  9  6  2  0  0  0  0
 10  4  1  0  0  0  0
 11  3  1  0  0  0  0
 12  7  1  0  0  0  0
 12  9  1  0  0  0  0
 13 14  2  0  0  0  0
 15 13  2  0  0  0  0
 16 13  1  0  0  0  0
 16 19  1  0  0  0  0
 18 19  1  0  0  0  0
 18 17  1  0  0  0  0
 20 18  2  0  0  0  0
 21 22  1  0  0  0  0
 22 17  1  0  0  0  0
 23 17  1  6  0  0  0
 23 26  1  0  0  0  0
 23 33  1  0  0  0  0
 24 25  1  0  0  0  0
 25 32  1  1  0  0  0
 26 28  2  0  0  0  0
 27 26  1  0  0  0  0
 28 25  1  0  0  0  0
 29 27  1  0  0  0  0
 29 24  1  0  0  0  0
 32 31  2  0  0  0  0
 32 30  1  0  0  0  0
 33 34  1  6  0  0  0
 33 37  1  0  0  0  0
 37 35  1  0  0  0  0
 37 36  1  0  0  0  0
 38 37  1  0  0  0  0
 39 42  1  1  0  0  0
 39 40  1  0  0  0  0
 41 39  1  0  0  0  0
 41 40  1  1  0  0  0
 42 44  1  0  0  0  0
 44 43  1  1  0  0  0
 45 44  1  0  0  0  0
 46 48  2  0  0  0  0
 47 45  1  0  0  0  0
 48 47  1  0  0  0  0
 49 48  1  0  0  0  0
 49 50  1  0  0  0  0
 51 52  1  0  0  0  0
 51 50  1  0  0  0  0
 53 52  1  1  0  0  0
 54 53  1  0  0  0  0
 54 59  1  0  0  0  0
 55 54  2  0  0  0  0
 56 58  1  0  0  0  0
 57 56  1  0  0  0  0
 57 55  1  0  0  0  0
 58 53  1  0  0  0  0
 60 59  1  0  0  0  0
 60 62  1  0  0  0  0
 62 61  1  0  0  0  0
M  END
>  <MODEL>
9

>  <REMARK>
 VINA RESULT:      -4.7      3.397      9.290
  Name = 
  21 active torsions:
  status: ('A' for Active; 'I' for Inactive)
    1  A    between atoms: N_1  and  C_35
    2  A    between atoms: N_1  and  C_62
    3  A    between atoms: C_3  and  N_20
    4  A    between atoms: C_3  and  S_30
    5  A    between atoms: N_4  and  C_29
    6  A    between atoms: C_6  and  O_41
    7  A    between atoms: C_14  and  C_23
    8  A    between atoms: C_15  and  C_62
    9  A    between atoms: C_19  and  C_37
   10  A    between atoms: C_21  and  O_22
   11  A    between atoms: O_22  and  C_53
   12  A    between atoms: C_24  and  S_30
   13  A    between atoms: N_27  and  N_54
   14  A    between atoms: C_37  and  C_38
   15  A    between atoms: C_38  and  N_54
   16  A    between atoms: O_41  and  C_45
   17  A    between atoms: N_42  and  C_43
   18  A    between atoms: C_43  and  C_45
   19  A    between atoms: C_51  and  C_59
   20  A    between atoms: C_51  and  C_62
   21  A    between atoms: C_53  and  C_56
                            x       y       z     vdW  Elec       q    Type
                         _______ _______ _______ _____ _____    ______ ____

>  <TORSDO>
F 21

$$$$
