=
 OpenBabel11062418393D

 55 58  0  0  1  0  0  0  0  0999 V2000
  193.0940  176.6790  147.0860 C   0  0  0  0  0  2  0  0  0  0  0  0
  190.6090  175.8550  146.5770 C   0  0  0  0  0  0  0  0  0  0  0  0
  190.6810  176.7690  145.3680 C   0  0  1  0  0  3  0  0  0  0  0  0
  191.9890  177.1260  144.9420 O   0  0  0  0  0  0  0  0  0  0  0  0
  192.9910  176.3470  145.5800 C   0  0  1  0  0  3  0  0  0  0  0  0
  190.0870  174.7520  146.5280 O   0  0  0  0  0  0  0  0  0  0  0  0
  191.5360  176.3620  148.0240 S   0  0  0  0  0  0  0  0  0  0  0  0
  195.9090  174.9190  144.0640 O   0  0  0  0  0  0  0  0  0  0  0  0
  194.3260  176.5260  144.8550 C   0  0  2  0  0  3  0  0  0  0  0  0
  194.1880  176.3870  143.3770 C   0  0  0  0  0  2  0  0  0  0  0  0
  195.3590  175.4810  145.2330 C   0  0  0  0  0  2  0  0  0  0  0  0
  195.4960  175.7350  142.9920 C   0  0  2  0  0  3  0  0  0  0  0  0
  194.3870  175.5840  140.7420 C   0  0  0  0  0  1  0  0  0  0  0  0
  195.3470  174.9090  141.7110 C   0  0  1  0  0  3  0  0  0  0  0  0
  196.7830  174.9090  139.4390 O   0  0  0  0  0  0  0  0  0  0  0  0
  197.9410  175.6290  141.4570 O   0  0  0  0  0  0  0  0  0  0  0  0
  196.9310  174.6560  140.9110 S   0  0  0  0  0  0  0  0  0  0  0  0
  196.7370  171.9040  140.9900 C   0  0  0  0  0  3  0  0  0  0  0  0
  197.4990  172.9960  141.1290 C   0  0  0  0  0  3  0  0  0  0  0  0
  195.2930  171.9420  140.6010 C   0  0  1  0  0  3  0  0  0  0  0  0
  195.1750  171.7860  139.2190 O   0  0  0  0  0  1  0  0  0  0  0  0
  192.5910  171.2390  142.5920 N   0  0  0  0  0  0  0  0  0  0  0  0
  193.9830  171.3540  142.5940 N   0  0  0  0  0  0  0  0  0  0  0  0
  194.5210  170.8500  141.3380 C   0  0  1  0  0  3  0  0  0  0  0  0
  193.3420  170.4890  140.6240 O   0  0  0  0  0  0  0  0  0  0  0  0
  192.2530  170.7440  141.4520 C   0  0  0  0  0  0  0  0  0  0  0  0
  190.8430  170.5110  141.0540 C   0  0  0  0  0  2  0  0  0  0  0  0
  190.6140  171.0690  139.8020 O   0  0  0  0  0  1  0  0  0  0  0  0
  194.7540  171.7440  143.7660 C   0  0  0  0  0  2  0  0  0  0  0  0
  193.9790  171.4470  145.0440 C   0  0  2  0  0  3  0  0  0  0  0  0
  193.7820  172.6170  145.7800 O   0  0  0  0  0  1  0  0  0  0  0  0
  194.7160  170.4170  145.8870 C   0  0  0  0  0  2  0  0  0  0  0  0
  196.1000  170.8130  146.0960 N   0  0  0  0  0  2  0  0  0  0  0  0
  196.8420  169.6040  146.4070 C   0  0  0  0  0  1  0  0  0  0  0  0
  189.7790  176.4100  144.1850 C   0  0  2  0  0  3  0  0  0  0  0  0
  190.6110  175.8590  143.0290 C   0  0  0  0  0  2  0  0  0  0  0  0
  190.1840  174.4390  142.6990 C   0  0  0  0  0  2  0  0  0  0  0  0
  188.5090  174.8740  140.8640 C   0  0  0  0  0  1  0  0  0  0  0  0
  188.7060  174.4090  142.3080 C   0  0  0  0  0  3  0  0  0  0  0  0
  188.1750  173.0010  142.4630 C   0  0  0  0  0  1  0  0  0  0  0  0
  189.0280  177.5210  143.7620 O   0  0  0  0  0  0  0  0  0  0  0  0
  187.9720  177.6420  144.6840 C   0  0  2  0  0  3  0  0  0  0  0  0
  186.8560  176.4740  146.3110 C   0  0  0  0  0  1  0  0  0  0  0  0
  187.4200  176.3860  145.0280 O   0  0  0  0  0  0  0  0  0  0  0  0
  186.8940  178.6080  144.1810 C   0  0  0  0  0  2  0  0  0  0  0  0
  186.2560  177.5180  139.4960 O   0  0  0  0  0  0  0  0  0  0  0  0
  184.6380  178.6130  143.1140 C   0  0  1  0  0  3  0  0  0  0  0  0
  184.3890  177.9210  140.7720 O   0  0  0  0  0  0  0  0  0  0  0  0
  186.0310  177.9840  143.0950 C   0  0  1  0  0  3  0  0  0  0  0  0
  186.6920  178.2010  141.7380 C   0  0  0  0  0  2  0  0  0  0  0  0
  183.7580  177.9450  142.0550 C   0  0  2  0  0  3  0  0  0  0  0  0
  185.7740  177.8300  140.6160 C   0  0  0  0  0  0  0  0  0  0  0  0
  184.0560  178.4380  144.3730 O   0  0  0  0  0  1  0  0  0  0  0  0
  182.4190  178.6530  141.9500 C   0  0  0  0  0  2  0  0  0  0  0  0
  181.7060  178.2220  140.6790 C   0  0  0  0  0  1  0  0  0  0  0  0
  1  7  1  0  0  0  0
  2  7  1  0  0  0  0
  3 35  1  6  0  0  0
  3  2  1  0  0  0  0
  4  3  1  0  0  0  0
  4  5  1  0  0  0  0
  5  1  1  1  0  0  0
  6  2  2  0  0  0  0
  8 11  1  0  0  0  0
  9 10  1  6  0  0  0
  9 11  1  0  0  0  0
  9  5  1  0  0  0  0
 12 14  1  6  0  0  0
 12 10  1  0  0  0  0
 12  8  1  0  0  0  0
 14 13  1  6  0  0  0
 15 17  2  0  0  0  0
 17 19  1  0  0  0  0
 17 16  2  0  0  0  0
 17 14  1  0  0  0  0
 18 19  2  0  0  0  0
 20 21  1  6  0  0  0
 20 18  1  0  0  0  0
 22 23  1  0  0  0  0
 23 29  1  0  0  0  0
 24 20  1  6  0  0  0
 24 23  1  0  0  0  0
 25 24  1  0  0  0  0
 25 26  1  0  0  0  0
 26 22  2  0  0  0  0
 27 26  1  0  0  0  0
 28 27  1  0  0  0  0
 29 30  1  0  0  0  0
 30 31  1  1  0  0  0
 30 32  1  0  0  0  0
 32 33  1  0  0  0  0
 33 34  1  0  0  0  0
 35 36  1  6  0  0  0
 37 36  1  0  0  0  0
 38 39  1  0  0  0  0
 39 40  1  0  0  0  0
 39 37  1  0  0  0  0
 41 35  1  0  0  0  0
 41 42  1  0  0  0  0
 42 45  1  6  0  0  0
 42 44  1  0  0  0  0
 44 43  1  0  0  0  0
 46 52  2  0  0  0  0
 47 53  1  1  0  0  0
 48 51  1  0  0  0  0
 49 47  1  0  0  0  0
 49 45  1  1  0  0  0
 50 49  1  0  0  0  0
 51 54  1  6  0  0  0
 51 47  1  0  0  0  0
 52 48  1  0  0  0  0
 52 50  1  0  0  0  0
 55 54  1  0  0  0  0
M  END
>  <MODEL>
1

>  <REMARK>
 VINA RESULT:      -5.9      0.000      0.000
  Name = 
  21 active torsions:
  status: ('A' for Active; 'I' for Inactive)
    1  A    between atoms: C_2  and  C_9
    2  A    between atoms: N_7  and  C_38
    3  A    between atoms: C_9  and  C_43
    4  A    between atoms: C_10  and  C_44
    5  A    between atoms: C_11  and  C_25
    6  A    between atoms: C_12  and  C_23
    7  A    between atoms: C_12  and  C_25
    8  A    between atoms: N_13  and  C_21
    9  A    between atoms: C_16  and  S_34
   10  A    between atoms: C_16  and  C_52
   11  A    between atoms: C_21  and  C_28
   12  A    between atoms: C_23  and  C_42
   13  A    between atoms: O_24  and  C_25
   14  A    between atoms: O_24  and  C_37
   15  A    between atoms: C_26  and  C_30
   16  A    between atoms: C_28  and  C_38
   17  A    between atoms: C_29  and  C_55
   18  A    between atoms: C_32  and  C_46
   19  A    between atoms: S_34  and  C_54
   20  A    between atoms: C_37  and  O_39
   21  A    between atoms: C_37  and  C_46
                            x       y       z     vdW  Elec       q    Type
                         _______ _______ _______ _____ _____    ______ ____

>  <TORSDO>
F 21

$$$$
=
 OpenBabel11062418393D

 55 58  0  0  1  0  0  0  0  0999 V2000
  190.4370  172.0040  138.2480 C   0  0  0  0  0  2  0  0  0  0  0  0
  188.6180  173.7260  139.1630 C   0  0  0  0  0  0  0  0  0  0  0  0
  189.2260  173.4600  140.5270 C   0  0  1  0  0  3  0  0  0  0  0  0
  190.5400  172.9190  140.5220 O   0  0  0  0  0  0  0  0  0  0  0  0
  191.1350  172.9690  139.2320 C   0  0  1  0  0  3  0  0  0  0  0  0
  188.2730  174.8440  138.8120 O   0  0  0  0  0  0  0  0  0  0  0  0
  188.6460  172.3710  137.9910 S   0  0  0  0  0  0  0  0  0  0  0  0
  194.4880  173.6200  138.1450 O   0  0  0  0  0  0  0  0  0  0  0  0
  192.6360  172.6990  139.3430 C   0  0  2  0  0  3  0  0  0  0  0  0
  193.3270  173.7020  140.2030 C   0  0  0  0  0  2  0  0  0  0  0  0
  193.3610  172.7850  138.0130 C   0  0  0  0  0  2  0  0  0  0  0  0
  194.6720  173.8330  139.5240 C   0  0  2  0  0  3  0  0  0  0  0  0
  194.4680  175.9910  140.7980 C   0  0  0  0  0  1  0  0  0  0  0  0
  195.2890  175.2110  139.7800 C   0  0  1  0  0  3  0  0  0  0  0  0
  197.8680  175.9100  139.4780 O   0  0  0  0  0  0  0  0  0  0  0  0
  197.0890  175.5880  141.7630 O   0  0  0  0  0  0  0  0  0  0  0  0
  196.9820  175.0720  140.3530 S   0  0  0  0  0  0  0  0  0  0  0  0
  197.2420  172.4440  141.1550 C   0  0  0  0  0  3  0  0  0  0  0  0
  197.5490  173.4000  140.2690 C   0  0  0  0  0  3  0  0  0  0  0  0
  196.3460  172.6590  142.3330 C   0  0  1  0  0  3  0  0  0  0  0  0
  195.2240  171.8350  142.2270 O   0  0  0  0  0  1  0  0  0  0  0  0
  196.0810  172.1630  145.7150 N   0  0  0  0  0  0  0  0  0  0  0  0
  196.4910  173.0830  144.7480 N   0  0  0  0  0  0  0  0  0  0  0  0
  197.1040  172.3810  143.6290 C   0  0  1  0  0  3  0  0  0  0  0  0
  196.9700  171.0160  144.0150 O   0  0  0  0  0  0  0  0  0  0  0  0
  196.3660  170.9890  145.2680 C   0  0  0  0  0  0  0  0  0  0  0  0
  196.0410  169.7410  146.0000 C   0  0  0  0  0  2  0  0  0  0  0  0
  196.6530  169.7600  147.2470 O   0  0  0  0  0  1  0  0  0  0  0  0
  196.4660  174.5240  144.9510 C   0  0  0  0  0  2  0  0  0  0  0  0
  195.0340  175.0460  144.9340 C   0  0  2  0  0  3  0  0  0  0  0  0
  194.3060  174.4440  143.9060 O   0  0  0  0  0  1  0  0  0  0  0  0
  195.0200  176.5570  144.7690 C   0  0  0  0  0  2  0  0  0  0  0  0
  194.7300  177.2150  146.0330 N   0  0  0  0  0  2  0  0  0  0  0  0
  193.6800  176.4480  146.6770 C   0  0  0  0  0  1  0  0  0  0  0  0
  189.0750  174.5690  141.5720 C   0  0  2  0  0  3  0  0  0  0  0  0
  189.9000  174.2440  142.8150 C   0  0  0  0  0  2  0  0  0  0  0  0
  189.2730  173.0920  143.5810 C   0  0  0  0  0  2  0  0  0  0  0  0
  191.5270  172.5360  144.5650 C   0  0  0  0  0  1  0  0  0  0  0  0
  190.0550  172.8230  144.8670 C   0  0  0  0  0  3  0  0  0  0  0  0
  189.9500  174.0260  145.7790 C   0  0  0  0  0  1  0  0  0  0  0  0
  187.7260  174.7640  141.9150 O   0  0  0  0  0  0  0  0  0  0  0  0
  187.5820  176.1450  142.1340 C   0  0  2  0  0  3  0  0  0  0  0  0
  188.9840  177.9590  142.2200 C   0  0  0  0  0  1  0  0  0  0  0  0
  188.5360  176.9000  141.4120 O   0  0  0  0  0  0  0  0  0  0  0  0
  187.6140  176.4850  143.6280 C   0  0  0  0  0  2  0  0  0  0  0  0
  183.3980  178.8490  143.2020 O   0  0  0  0  0  0  0  0  0  0  0  0
  186.3310  177.2770  145.6170 C   0  0  1  0  0  3  0  0  0  0  0  0
  184.1430  178.3480  145.3160 O   0  0  0  0  0  0  0  0  0  0  0  0
  186.2260  176.7810  144.1760 C   0  0  1  0  0  3  0  0  0  0  0  0
  185.5530  177.8330  143.3010 C   0  0  0  0  0  2  0  0  0  0  0  0
  184.9300  177.5230  146.1800 C   0  0  2  0  0  3  0  0  0  0  0  0
  184.2930  178.3420  143.9270 C   0  0  0  0  0  0  0  0  0  0  0  0
  186.9810  176.3200  146.4010 O   0  0  0  0  0  1  0  0  0  0  0  0
  185.0120  178.1600  147.5560 C   0  0  0  0  0  2  0  0  0  0  0  0
  185.9090  179.3850  147.5050 C   0  0  0  0  0  1  0  0  0  0  0  0
  2  3  1  0  0  0  0
  3 35  1  1  0  0  0
  4  3  1  0  0  0  0
  5  1  1  6  0  0  0
  5  9  1  0  0  0  0
  5  4  1  0  0  0  0
  6  2  2  0  0  0  0
  7  1  1  0  0  0  0
  7  2  1  0  0  0  0
  8 12  1  0  0  0  0
  9 11  1  6  0  0  0
  9 10  1  0  0  0  0
 11  8  1  0  0  0  0
 12 14  1  6  0  0  0
 12 10  1  0  0  0  0
 14 17  1  0  0  0  0
 14 13  1  1  0  0  0
 15 17  2  0  0  0  0
 17 16  2  0  0  0  0
 18 20  1  0  0  0  0
 19 17  1  0  0  0  0
 19 18  2  0  0  0  0
 20 21  1  6  0  0  0
 23 29  1  0  0  0  0
 23 22  1  0  0  0  0
 24 20  1  6  0  0  0
 24 25  1  0  0  0  0
 24 23  1  0  0  0  0
 25 26  1  0  0  0  0
 26 22  2  0  0  0  0
 26 27  1  0  0  0  0
 27 28  1  0  0  0  0
 30 31  1  6  0  0  0
 30 29  1  0  0  0  0
 32 30  1  0  0  0  0
 32 33  1  0  0  0  0
 33 34  1  0  0  0  0
 35 41  1  0  0  0  0
 35 36  1  1  0  0  0
 36 37  1  0  0  0  0
 37 39  1  0  0  0  0
 38 39  1  0  0  0  0
 39 40  1  0  0  0  0
 41 42  1  0  0  0  0
 42 45  1  1  0  0  0
 44 42  1  0  0  0  0
 44 43  1  0  0  0  0
 46 52  2  0  0  0  0
 47 51  1  0  0  0  0
 47 53  1  1  0  0  0
 48 51  1  0  0  0  0
 49 45  1  6  0  0  0
 49 47  1  0  0  0  0
 50 52  1  0  0  0  0
 50 49  1  0  0  0  0
 51 54  1  1  0  0  0
 52 48  1  0  0  0  0
 55 54  1  0  0  0  0
M  END
>  <MODEL>
2

>  <REMARK>
 VINA RESULT:      -5.7      2.579      5.176
  Name = 
  21 active torsions:
  status: ('A' for Active; 'I' for Inactive)
    1  A    between atoms: C_2  and  C_9
    2  A    between atoms: N_7  and  C_38
    3  A    between atoms: C_9  and  C_43
    4  A    between atoms: C_10  and  C_44
    5  A    between atoms: C_11  and  C_25
    6  A    between atoms: C_12  and  C_23
    7  A    between atoms: C_12  and  C_25
    8  A    between atoms: N_13  and  C_21
    9  A    between atoms: C_16  and  S_34
   10  A    between atoms: C_16  and  C_52
   11  A    between atoms: C_21  and  C_28
   12  A    between atoms: C_23  and  C_42
   13  A    between atoms: O_24  and  C_25
   14  A    between atoms: O_24  and  C_37
   15  A    between atoms: C_26  and  C_30
   16  A    between atoms: C_28  and  C_38
   17  A    between atoms: C_29  and  C_55
   18  A    between atoms: C_32  and  C_46
   19  A    between atoms: S_34  and  C_54
   20  A    between atoms: C_37  and  O_39
   21  A    between atoms: C_37  and  C_46
                            x       y       z     vdW  Elec       q    Type
                         _______ _______ _______ _____ _____    ______ ____

>  <TORSDO>
F 21

$$$$
=
 OpenBabel11062418393D

 55 58  0  0  1  0  0  0  0  0999 V2000
  187.7630  175.8530  140.4140 C   0  0  0  0  0  2  0  0  0  0  0  0
  188.1040  177.3090  142.6230 C   0  0  0  0  0  0  0  0  0  0  0  0
  187.7840  176.0290  143.3730 C   0  0  1  0  0  3  0  0  0  0  0  0
  187.9450  174.8250  142.6340 O   0  0  0  0  0  0  0  0  0  0  0  0
  188.6250  175.0380  141.4050 C   0  0  1  0  0  3  0  0  0  0  0  0
  188.9780  178.0770  142.9920 O   0  0  0  0  0  0  0  0  0  0  0  0
  187.3050  177.5310  141.0340 S   0  0  0  0  0  0  0  0  0  0  0  0
  188.1070  172.3400  139.1020 O   0  0  0  0  0  0  0  0  0  0  0  0
  189.0690  173.6960  140.8190 C   0  0  2  0  0  3  0  0  0  0  0  0
  189.8560  173.8630  139.5640 C   0  0  0  0  0  2  0  0  0  0  0  0
  187.9090  172.8050  140.4180 C   0  0  0  0  0  2  0  0  0  0  0  0
  189.4370  172.6520  138.7600 C   0  0  2  0  0  3  0  0  0  0  0  0
  188.9880  174.2800  136.8990 C   0  0  0  0  0  1  0  0  0  0  0  0
  189.5610  172.9160  137.2570 C   0  0  1  0  0  3  0  0  0  0  0  0
  191.9860  171.7920  137.5410 O   0  0  0  0  0  0  0  0  0  0  0  0
  191.3230  172.3890  135.2750 O   0  0  0  0  0  0  0  0  0  0  0  0
  191.2670  172.8190  136.7160 S   0  0  0  0  0  0  0  0  0  0  0  0
  193.1520  174.5680  137.7200 C   0  0  0  0  0  3  0  0  0  0  0  0
  192.0920  174.3680  136.9260 C   0  0  0  0  0  3  0  0  0  0  0  0
  193.8020  173.4870  138.5250 C   0  0  1  0  0  3  0  0  0  0  0  0
  195.1580  173.4130  138.2020 O   0  0  0  0  0  1  0  0  0  0  0  0
  195.3170  173.5680  141.6000 N   0  0  0  0  0  0  0  0  0  0  0  0
  194.4200  172.8410  140.8130 N   0  0  0  0  0  0  0  0  0  0  0  0
  193.6130  173.7550  140.0160 C   0  0  1  0  0  3  0  0  0  0  0  0
  194.1450  175.0270  140.3780 O   0  0  0  0  0  0  0  0  0  0  0  0
  195.1390  174.8140  141.3280 C   0  0  0  0  0  0  0  0  0  0  0  0
  195.9420  175.9010  141.9380 C   0  0  0  0  0  2  0  0  0  0  0  0
  195.7120  177.0890  141.2560 O   0  0  0  0  0  1  0  0  0  0  0  0
  194.2230  171.4050  140.9400 C   0  0  0  0  0  2  0  0  0  0  0  0
  192.9450  171.1030  141.7130 C   0  0  2  0  0  3  0  0  0  0  0  0
  193.2270  170.3310  142.8420 O   0  0  0  0  0  1  0  0  0  0  0  0
  191.9430  170.3820  140.8250 C   0  0  0  0  0  2  0  0  0  0  0  0
  190.8120  169.9020  141.6030 N   0  0  0  0  0  2  0  0  0  0  0  0
  190.7330  168.4670  141.3910 C   0  0  0  0  0  1  0  0  0  0  0  0
  188.3530  175.9050  144.7880 C   0  0  2  0  0  3  0  0  0  0  0  0
  187.6840  176.9140  145.7200 C   0  0  0  0  0  2  0  0  0  0  0  0
  186.1800  176.7040  145.7360 C   0  0  0  0  0  2  0  0  0  0  0  0
  186.5740  178.3490  147.6060 C   0  0  0  0  0  1  0  0  0  0  0  0
  185.5570  177.4280  146.9300 C   0  0  0  0  0  3  0  0  0  0  0  0
  184.3710  178.2410  146.4620 C   0  0  0  0  0  1  0  0  0  0  0  0
  189.7470  176.0810  144.7940 O   0  0  0  0  0  0  0  0  0  0  0  0
  190.2910  174.8380  144.4260 C   0  0  2  0  0  3  0  0  0  0  0  0
  189.8210  172.6820  145.0510 C   0  0  0  0  0  1  0  0  0  0  0  0
  190.3010  173.9220  145.5040 O   0  0  0  0  0  0  0  0  0  0  0  0
  191.6860  174.9930  143.8120 C   0  0  0  0  0  2  0  0  0  0  0  0
  194.9220  178.0090  145.8080 O   0  0  0  0  0  0  0  0  0  0  0  0
  193.8390  174.1780  144.7770 C   0  0  1  0  0  3  0  0  0  0  0  0
  195.3590  175.7550  145.8860 O   0  0  0  0  0  0  0  0  0  0  0  0
  192.7500  175.2470  144.8680 C   0  0  1  0  0  3  0  0  0  0  0  0
  193.3500  176.6330  144.6580 C   0  0  0  0  0  2  0  0  0  0  0  0
  194.8790  174.4080  145.8760 C   0  0  2  0  0  3  0  0  0  0  0  0
  194.5640  176.8400  145.5070 C   0  0  0  0  0  0  0  0  0  0  0  0
  193.2720  172.9110  144.9370 O   0  0  0  0  0  1  0  0  0  0  0  0
  196.0470  173.4520  145.7130 C   0  0  0  0  0  2  0  0  0  0  0  0
  197.1350  174.1060  144.8760 C   0  0  0  0  0  1  0  0  0  0  0  0
  1  7  1  0  0  0  0
  2  6  2  0  0  0  0
  2  3  1  0  0  0  0
  3 35  1  1  0  0  0
  4  3  1  0  0  0  0
  5  1  1  6  0  0  0
  5  4  1  0  0  0  0
  7  2  1  0  0  0  0
  8 11  1  0  0  0  0
  9 10  1  6  0  0  0
  9  5  1  0  0  0  0
 11  9  1  0  0  0  0
 12 14  1  6  0  0  0
 12  8  1  0  0  0  0
 12 10  1  0  0  0  0
 14 13  1  1  0  0  0
 16 17  2  0  0  0  0
 17 19  1  0  0  0  0
 17 14  1  0  0  0  0
 17 15  2  0  0  0  0
 18 20  1  0  0  0  0
 19 18  2  0  0  0  0
 20 21  1  1  0  0  0
 23 29  1  0  0  0  0
 23 22  1  0  0  0  0
 24 20  1  6  0  0  0
 24 25  1  0  0  0  0
 24 23  1  0  0  0  0
 25 26  1  0  0  0  0
 26 22  2  0  0  0  0
 26 27  1  0  0  0  0
 28 27  1  0  0  0  0
 29 30  1  0  0  0  0
 30 31  1  1  0  0  0
 32 33  1  0  0  0  0
 32 30  1  0  0  0  0
 34 33  1  0  0  0  0
 35 41  1  0  0  0  0
 35 36  1  1  0  0  0
 36 37  1  0  0  0  0
 37 39  1  0  0  0  0
 39 38  1  0  0  0  0
 40 39  1  0  0  0  0
 42 45  1  1  0  0  0
 42 41  1  0  0  0  0
 42 44  1  0  0  0  0
 43 44  1  0  0  0  0
 47 49  1  0  0  0  0
 47 53  1  1  0  0  0
 47 51  1  0  0  0  0
 49 45  1  6  0  0  0
 50 49  1  0  0  0  0
 50 52  1  0  0  0  0
 51 54  1  6  0  0  0
 51 48  1  0  0  0  0
 52 46  2  0  0  0  0
 52 48  1  0  0  0  0
 55 54  1  0  0  0  0
M  END
>  <MODEL>
3

>  <REMARK>
 VINA RESULT:      -5.7      3.023      7.400
  Name = 
  21 active torsions:
  status: ('A' for Active; 'I' for Inactive)
    1  A    between atoms: C_2  and  C_9
    2  A    between atoms: N_7  and  C_38
    3  A    between atoms: C_9  and  C_43
    4  A    between atoms: C_10  and  C_44
    5  A    between atoms: C_11  and  C_25
    6  A    between atoms: C_12  and  C_23
    7  A    between atoms: C_12  and  C_25
    8  A    between atoms: N_13  and  C_21
    9  A    between atoms: C_16  and  S_34
   10  A    between atoms: C_16  and  C_52
   11  A    between atoms: C_21  and  C_28
   12  A    between atoms: C_23  and  C_42
   13  A    between atoms: O_24  and  C_25
   14  A    between atoms: O_24  and  C_37
   15  A    between atoms: C_26  and  C_30
   16  A    between atoms: C_28  and  C_38
   17  A    between atoms: C_29  and  C_55
   18  A    between atoms: C_32  and  C_46
   19  A    between atoms: S_34  and  C_54
   20  A    between atoms: C_37  and  O_39
   21  A    between atoms: C_37  and  C_46
                            x       y       z     vdW  Elec       q    Type
                         _______ _______ _______ _____ _____    ______ ____

>  <TORSDO>
F 21

$$$$
=
 OpenBabel11062418393D

 55 58  0  0  1  0  0  0  0  0999 V2000
  192.9860  176.0580  145.7380 C   0  0  0  0  0  2  0  0  0  0  0  0
  195.0510  174.6100  144.8720 C   0  0  0  0  0  0  0  0  0  0  0  0
  194.1970  173.4040  145.2160 C   0  0  1  0  0  3  0  0  0  0  0  0
  192.8010  173.6470  145.3220 O   0  0  0  0  0  0  0  0  0  0  0  0
  192.4420  174.9310  144.8310 C   0  0  1  0  0  3  0  0  0  0  0  0
  195.7390  174.6520  143.8630 O   0  0  0  0  0  0  0  0  0  0  0  0
  194.8270  176.0700  145.8850 S   0  0  0  0  0  0  0  0  0  0  0  0
  189.1390  174.3910  146.1130 O   0  0  0  0  0  0  0  0  0  0  0  0
  190.9250  175.0120  144.6520 C   0  0  2  0  0  3  0  0  0  0  0  0
  190.3500  176.2400  145.2730 C   0  0  0  0  0  2  0  0  0  0  0  0
  190.1810  173.8720  145.3200 C   0  0  0  0  0  2  0  0  0  0  0  0
  189.0070  175.7500  145.7660 C   0  0  2  0  0  3  0  0  0  0  0  0
  189.3700  177.8250  147.1370 C   0  0  0  0  0  1  0  0  0  0  0  0
  188.5260  176.5690  146.9670 C   0  0  1  0  0  3  0  0  0  0  0  0
  186.2430  176.3810  145.5600 O   0  0  0  0  0  0  0  0  0  0  0  0
  186.0200  176.5180  147.9820 O   0  0  0  0  0  0  0  0  0  0  0  0
  186.8000  177.0230  146.7970 S   0  0  0  0  0  0  0  0  0  0  0  0
  185.6470  179.3780  145.9370 C   0  0  0  0  0  3  0  0  0  0  0  0
  186.6120  178.7730  146.6410 C   0  0  0  0  0  3  0  0  0  0  0  0
  184.5700  178.6430  145.2020 C   0  0  1  0  0  3  0  0  0  0  0  0
  183.3900  178.6720  145.9470 O   0  0  0  0  0  1  0  0  0  0  0  0
  183.9540  178.0250  141.8860 N   0  0  0  0  0  0  0  0  0  0  0  0
  184.9450  178.4290  142.7840 N   0  0  0  0  0  0  0  0  0  0  0  0
  184.3570  179.2630  143.8230 C   0  0  1  0  0  3  0  0  0  0  0  0
  182.9770  179.2620  143.4700 O   0  0  0  0  0  0  0  0  0  0  0  0
  182.8390  178.5140  142.3050 C   0  0  0  0  0  0  0  0  0  0  0  0
  181.5400  178.2660  141.6340 C   0  0  0  0  0  2  0  0  0  0  0  0
  180.7520  179.4090  141.7090 O   0  0  0  0  0  1  0  0  0  0  0  0
  186.3650  178.1890  142.5710 C   0  0  0  0  0  2  0  0  0  0  0  0
  186.5810  176.9400  141.7270 C   0  0  2  0  0  3  0  0  0  0  0  0
  187.3580  176.0090  142.4210 O   0  0  0  0  0  1  0  0  0  0  0  0
  187.2470  177.2960  140.4080 C   0  0  0  0  0  2  0  0  0  0  0  0
  186.2770  177.3170  139.3250 N   0  0  0  0  0  2  0  0  0  0  0  0
  186.7630  176.4060  138.3040 C   0  0  0  0  0  1  0  0  0  0  0  0
  194.4900  172.1150  144.4440 C   0  0  2  0  0  3  0  0  0  0  0  0
  195.3750  171.1870  145.2740 C   0  0  0  0  0  2  0  0  0  0  0  0
  194.5510  170.0510  145.8560 C   0  0  0  0  0  2  0  0  0  0  0  0
  196.8040  169.6510  146.9160 C   0  0  0  0  0  1  0  0  0  0  0  0
  195.4660  169.0230  146.5240 C   0  0  0  0  0  3  0  0  0  0  0  0
  194.7840  168.4720  147.7570 C   0  0  0  0  0  1  0  0  0  0  0  0
  195.0940  172.3900  143.2050 O   0  0  0  0  0  0  0  0  0  0  0  0
  194.1500  172.0260  142.2290 C   0  0  2  0  0  3  0  0  0  0  0  0
  195.9810  171.2840  141.0650 C   0  0  0  0  0  1  0  0  0  0  0  0
  194.6360  171.0140  141.3690 O   0  0  0  0  0  0  0  0  0  0  0  0
  193.6580  173.2440  141.4390 C   0  0  0  0  0  2  0  0  0  0  0  0
  189.3270  171.6060  142.8910 O   0  0  0  0  0  0  0  0  0  0  0  0
  191.7670  172.9030  139.8460 C   0  0  1  0  0  3  0  0  0  0  0  0
  189.5710  172.1980  140.6840 O   0  0  0  0  0  0  0  0  0  0  0  0
  192.1450  173.2510  141.2850 C   0  0  1  0  0  3  0  0  0  0  0  0
  191.5350  172.2420  142.2520 C   0  0  0  0  0  2  0  0  0  0  0  0
  190.2480  172.9630  139.6840 C   0  0  2  0  0  3  0  0  0  0  0  0
  190.0800  172.0280  141.9740 C   0  0  0  0  0  0  0  0  0  0  0  0
  192.3610  173.8130  138.9670 O   0  0  0  0  0  1  0  0  0  0  0  0
  189.8380  172.4750  138.3060 C   0  0  0  0  0  2  0  0  0  0  0  0
  188.6600  173.2910  137.7990 C   0  0  0  0  0  1  0  0  0  0  0  0
  1  7  1  0  0  0  0
  2  3  1  0  0  0  0
  2  7  1  0  0  0  0
  3 35  1  6  0  0  0
  3  4  1  0  0  0  0
  5  4  1  0  0  0  0
  5  1  1  1  0  0  0
  6  2  2  0  0  0  0
  9  5  1  0  0  0  0
  9 10  1  1  0  0  0
  9 11  1  0  0  0  0
 10 12  1  0  0  0  0
 11  8  1  0  0  0  0
 12  8  1  0  0  0  0
 12 14  1  1  0  0  0
 14 13  1  6  0  0  0
 15 17  2  0  0  0  0
 17 14  1  0  0  0  0
 17 16  2  0  0  0  0
 18 19  2  0  0  0  0
 19 17  1  0  0  0  0
 20 18  1  0  0  0  0
 20 21  1  1  0  0  0
 22 26  2  0  0  0  0
 22 23  1  0  0  0  0
 23 24  1  0  0  0  0
 24 20  1  1  0  0  0
 25 24  1  0  0  0  0
 26 25  1  0  0  0  0
 27 28  1  0  0  0  0
 27 26  1  0  0  0  0
 29 23  1  0  0  0  0
 30 31  1  1  0  0  0
 30 29  1  0  0  0  0
 32 30  1  0  0  0  0
 33 32  1  0  0  0  0
 34 33  1  0  0  0  0
 35 36  1  1  0  0  0
 36 37  1  0  0  0  0
 37 39  1  0  0  0  0
 39 38  1  0  0  0  0
 39 40  1  0  0  0  0
 41 35  1  0  0  0  0
 42 45  1  6  0  0  0
 42 41  1  0  0  0  0
 43 44  1  0  0  0  0
 44 42  1  0  0  0  0
 47 53  1  6  0  0  0
 47 49  1  0  0  0  0
 48 52  1  0  0  0  0
 49 45  1  6  0  0  0
 49 50  1  0  0  0  0
 51 54  1  6  0  0  0
 51 47  1  0  0  0  0
 51 48  1  0  0  0  0
 52 50  1  0  0  0  0
 52 46  2  0  0  0  0
 55 54  1  0  0  0  0
M  END
>  <MODEL>
4

>  <REMARK>
 VINA RESULT:      -5.7      3.354      9.798
  Name = 
  21 active torsions:
  status: ('A' for Active; 'I' for Inactive)
    1  A    between atoms: C_2  and  C_9
    2  A    between atoms: N_7  and  C_38
    3  A    between atoms: C_9  and  C_43
    4  A    between atoms: C_10  and  C_44
    5  A    between atoms: C_11  and  C_25
    6  A    between atoms: C_12  and  C_23
    7  A    between atoms: C_12  and  C_25
    8  A    between atoms: N_13  and  C_21
    9  A    between atoms: C_16  and  S_34
   10  A    between atoms: C_16  and  C_52
   11  A    between atoms: C_21  and  C_28
   12  A    between atoms: C_23  and  C_42
   13  A    between atoms: O_24  and  C_25
   14  A    between atoms: O_24  and  C_37
   15  A    between atoms: C_26  and  C_30
   16  A    between atoms: C_28  and  C_38
   17  A    between atoms: C_29  and  C_55
   18  A    between atoms: C_32  and  C_46
   19  A    between atoms: S_34  and  C_54
   20  A    between atoms: C_37  and  O_39
   21  A    between atoms: C_37  and  C_46
                            x       y       z     vdW  Elec       q    Type
                         _______ _______ _______ _____ _____    ______ ____

>  <TORSDO>
F 21

$$$$
=
 OpenBabel11062418393D

 55 58  0  0  1  0  0  0  0  0999 V2000
  190.6350  173.8680  137.4180 C   0  0  0  0  0  2  0  0  0  0  0  0
  193.1900  173.7250  136.6660 C   0  0  0  0  0  0  0  0  0  0  0  0
  193.5100  173.9090  138.1370 C   0  0  1  0  0  3  0  0  0  0  0  0
  192.4560  173.6020  139.0410 O   0  0  0  0  0  0  0  0  0  0  0  0
  191.3790  172.9340  138.4000 C   0  0  1  0  0  3  0  0  0  0  0  0
  193.8110  172.9470  135.9580 O   0  0  0  0  0  0  0  0  0  0  0  0
  191.7030  174.5210  136.0610 S   0  0  0  0  0  0  0  0  0  0  0  0
  190.8120  170.6380  141.0930 O   0  0  0  0  0  0  0  0  0  0  0  0
  190.4430  172.3340  139.4500 C   0  0  2  0  0  3  0  0  0  0  0  0
  190.6120  172.9740  140.7860 C   0  0  0  0  0  2  0  0  0  0  0  0
  190.6960  170.8600  139.7070 C   0  0  0  0  0  2  0  0  0  0  0  0
  190.3720  171.8150  141.7290 C   0  0  2  0  0  3  0  0  0  0  0  0
  192.4220  172.7590  142.8370 C   0  0  0  0  0  1  0  0  0  0  0  0
  191.1080  172.0200  143.0560 C   0  0  1  0  0  3  0  0  0  0  0  0
  189.0020  173.6340  143.4890 O   0  0  0  0  0  0  0  0  0  0  0  0
  189.4650  171.9670  145.2030 O   0  0  0  0  0  0  0  0  0  0  0  0
  190.0980  172.9240  144.2290 S   0  0  0  0  0  0  0  0  0  0  0  0
  190.5560  175.0060  145.9820 C   0  0  0  0  0  3  0  0  0  0  0  0
  191.0520  174.1350  145.0930 C   0  0  0  0  0  3  0  0  0  0  0  0
  189.1170  175.0520  146.3860 C   0  0  1  0  0  3  0  0  0  0  0  0
  188.9260  174.2770  147.5310 O   0  0  0  0  0  1  0  0  0  0  0  0
  187.1590  177.6430  145.2860 N   0  0  0  0  0  0  0  0  0  0  0  0
  188.4790  177.1950  145.3680 N   0  0  0  0  0  0  0  0  0  0  0  0
  188.6840  176.4950  146.6290 C   0  0  1  0  0  3  0  0  0  0  0  0
  187.3890  176.5480  147.2210 O   0  0  0  0  0  0  0  0  0  0  0  0
  186.5590  177.2560  146.3580 C   0  0  0  0  0  0  0  0  0  0  0  0
  185.1210  177.5090  146.6190 C   0  0  0  0  0  2  0  0  0  0  0  0
  184.9650  178.7650  147.1910 O   0  0  0  0  0  1  0  0  0  0  0  0
  189.5100  177.5560  144.4060 C   0  0  0  0  0  2  0  0  0  0  0  0
  189.2580  176.8790  143.0650 C   0  0  2  0  0  3  0  0  0  0  0  0
  190.4570  176.4210  142.5140 O   0  0  0  0  0  1  0  0  0  0  0  0
  188.5740  177.8390  142.1030 C   0  0  0  0  0  2  0  0  0  0  0  0
  187.2890  177.3130  141.6710 N   0  0  0  0  0  2  0  0  0  0  0  0
  186.3320  178.4000  141.7760 C   0  0  0  0  0  1  0  0  0  0  0  0
  194.8500  173.3490  138.6210 C   0  0  2  0  0  3  0  0  0  0  0  0
  194.8180  171.8220  138.6270 C   0  0  0  0  0  2  0  0  0  0  0  0
  195.0820  171.2930  140.0260 C   0  0  0  0  0  2  0  0  0  0  0  0
  194.0920  169.1650  139.1020 C   0  0  0  0  0  1  0  0  0  0  0  0
  194.1800  170.0920  140.3160 C   0  0  0  0  0  3  0  0  0  0  0  0
  194.7290  169.3270  141.4990 C   0  0  0  0  0  1  0  0  0  0  0  0
  195.1740  173.8380  139.8980 O   0  0  0  0  0  0  0  0  0  0  0  0
  196.1330  174.8460  139.6910 C   0  0  2  0  0  3  0  0  0  0  0  0
  197.7020  175.4290  138.1230 C   0  0  0  0  0  1  0  0  0  0  0  0
  197.2360  174.3830  138.9370 O   0  0  0  0  0  0  0  0  0  0  0  0
  196.5830  175.4760  141.0130 C   0  0  0  0  0  2  0  0  0  0  0  0
  193.7960  176.3450  144.8900 O   0  0  0  0  0  0  0  0  0  0  0  0
  196.7030  174.0730  143.0740 C   0  0  1  0  0  3  0  0  0  0  0  0
  195.1650  174.5000  144.9380 O   0  0  0  0  0  0  0  0  0  0  0  0
  195.7970  174.9370  142.1980 C   0  0  1  0  0  3  0  0  0  0  0  0
  195.2380  176.1040  143.0050 C   0  0  0  0  0  2  0  0  0  0  0  0
  195.8950  173.4910  144.2350 C   0  0  2  0  0  3  0  0  0  0  0  0
  194.6680  175.6450  144.3100 C   0  0  0  0  0  0  0  0  0  0  0  0
  197.2370  173.0280  142.3150 O   0  0  0  0  0  1  0  0  0  0  0  0
  196.8040  172.7540  145.2020 C   0  0  0  0  0  2  0  0  0  0  0  0
  197.0590  173.6140  146.4280 C   0  0  0  0  0  1  0  0  0  0  0  0
  2  3  1  0  0  0  0
  3 35  1  1  0  0  0
  3  4  1  0  0  0  0
  5  1  1  1  0  0  0
  5  4  1  0  0  0  0
  5  9  1  0  0  0  0
  6  2  2  0  0  0  0
  7  2  1  0  0  0  0
  7  1  1  0  0  0  0
  8 12  1  0  0  0  0
  9 11  1  1  0  0  0
  9 10  1  0  0  0  0
 10 12  1  0  0  0  0
 11  8  1  0  0  0  0
 12 14  1  1  0  0  0
 14 13  1  6  0  0  0
 14 17  1  0  0  0  0
 15 17  2  0  0  0  0
 17 19  1  0  0  0  0
 17 16  2  0  0  0  0
 18 20  1  0  0  0  0
 19 18  2  0  0  0  0
 20 21  1  1  0  0  0
 22 23  1  0  0  0  0
 22 26  2  0  0  0  0
 23 24  1  0  0  0  0
 24 20  1  6  0  0  0
 24 25  1  0  0  0  0
 26 27  1  0  0  0  0
 26 25  1  0  0  0  0
 27 28  1  0  0  0  0
 29 23  1  0  0  0  0
 30 31  1  6  0  0  0
 30 29  1  0  0  0  0
 32 30  1  0  0  0  0
 33 34  1  0  0  0  0
 33 32  1  0  0  0  0
 35 36  1  1  0  0  0
 35 41  1  0  0  0  0
 36 37  1  0  0  0  0
 37 39  1  0  0  0  0
 38 39  1  0  0  0  0
 39 40  1  0  0  0  0
 42 41  1  0  0  0  0
 42 45  1  1  0  0  0
 43 44  1  0  0  0  0
 44 42  1  0  0  0  0
 47 53  1  6  0  0  0
 47 51  1  0  0  0  0
 49 45  1  6  0  0  0
 49 50  1  0  0  0  0
 49 47  1  0  0  0  0
 50 52  1  0  0  0  0
 51 48  1  0  0  0  0
 51 54  1  1  0  0  0
 52 46  2  0  0  0  0
 52 48  1  0  0  0  0
 54 55  1  0  0  0  0
M  END
>  <MODEL>
5

>  <REMARK>
 VINA RESULT:      -5.6      3.337      9.922
  Name = 
  21 active torsions:
  status: ('A' for Active; 'I' for Inactive)
    1  A    between atoms: C_2  and  C_9
    2  A    between atoms: N_7  and  C_38
    3  A    between atoms: C_9  and  C_43
    4  A    between atoms: C_10  and  C_44
    5  A    between atoms: C_11  and  C_25
    6  A    between atoms: C_12  and  C_23
    7  A    between atoms: C_12  and  C_25
    8  A    between atoms: N_13  and  C_21
    9  A    between atoms: C_16  and  S_34
   10  A    between atoms: C_16  and  C_52
   11  A    between atoms: C_21  and  C_28
   12  A    between atoms: C_23  and  C_42
   13  A    between atoms: O_24  and  C_25
   14  A    between atoms: O_24  and  C_37
   15  A    between atoms: C_26  and  C_30
   16  A    between atoms: C_28  and  C_38
   17  A    between atoms: C_29  and  C_55
   18  A    between atoms: C_32  and  C_46
   19  A    between atoms: S_34  and  C_54
   20  A    between atoms: C_37  and  O_39
   21  A    between atoms: C_37  and  C_46
                            x       y       z     vdW  Elec       q    Type
                         _______ _______ _______ _____ _____    ______ ____

>  <TORSDO>
F 21

$$$$
=
 OpenBabel11062418393D

 55 58  0  0  1  0  0  0  0  0999 V2000
  191.7210  173.1710  144.8910 C   0  0  0  0  0  2  0  0  0  0  0  0
  193.1490  171.6770  143.2060 C   0  0  0  0  0  0  0  0  0  0  0  0
  193.6520  172.9960  142.6500 C   0  0  1  0  0  3  0  0  0  0  0  0
  193.5110  174.1210  143.5080 O   0  0  0  0  0  0  0  0  0  0  0  0
  193.1550  173.7440  144.8310 C   0  0  1  0  0  3  0  0  0  0  0  0
  193.8840  170.7140  143.3590 O   0  0  0  0  0  0  0  0  0  0  0  0
  191.4790  171.6620  143.8550 S   0  0  0  0  0  0  0  0  0  0  0  0
  192.2630  177.0610  145.8570 O   0  0  0  0  0  0  0  0  0  0  0  0
  193.3450  174.9310  145.7760 C   0  0  2  0  0  3  0  0  0  0  0  0
  192.3480  174.9330  146.8850 C   0  0  0  0  0  2  0  0  0  0  0  0
  193.1530  176.2750  145.0990 C   0  0  0  0  0  2  0  0  0  0  0  0
  192.1080  176.4110  147.0970 C   0  0  2  0  0  3  0  0  0  0  0  0
  190.6980  177.9380  148.5100 C   0  0  0  0  0  1  0  0  0  0  0  0
  190.7110  176.6680  147.6700 C   0  0  1  0  0  3  0  0  0  0  0  0
  190.0270  177.6580  145.2660 O   0  0  0  0  0  0  0  0  0  0  0  0
  189.1990  175.4310  145.8010 O   0  0  0  0  0  0  0  0  0  0  0  0
  189.4850  176.7950  146.3690 S   0  0  0  0  0  0  0  0  0  0  0  0
  186.8740  177.6790  146.2470 C   0  0  0  0  0  3  0  0  0  0  0  0
  187.9950  177.5360  146.9650 C   0  0  0  0  0  3  0  0  0  0  0  0
  186.7220  177.2020  144.8380 C   0  0  1  0  0  3  0  0  0  0  0  0
  185.8060  176.1500  144.7940 O   0  0  0  0  0  1  0  0  0  0  0  0
  185.3650  178.0590  141.8070 N   0  0  0  0  0  0  0  0  0  0  0  0
  186.5550  178.0550  142.5400 N   0  0  0  0  0  0  0  0  0  0  0  0
  186.2730  178.3500  143.9380 C   0  0  1  0  0  3  0  0  0  0  0  0
  184.8540  178.4780  143.9430 O   0  0  0  0  0  0  0  0  0  0  0  0
  184.4100  178.3010  142.6360 C   0  0  0  0  0  0  0  0  0  0  0  0
  182.9820  178.3450  142.2380 C   0  0  0  0  0  2  0  0  0  0  0  0
  182.8600  177.9840  140.9010 O   0  0  0  0  0  1  0  0  0  0  0  0
  187.8720  177.9540  141.9300 C   0  0  0  0  0  2  0  0  0  0  0  0
  188.1980  176.5060  141.5850 C   0  0  2  0  0  3  0  0  0  0  0  0
  187.0810  175.6920  141.7860 O   0  0  0  0  0  1  0  0  0  0  0  0
  189.3650  176.0080  142.4240 C   0  0  0  0  0  2  0  0  0  0  0  0
  189.3940  174.5550  142.4620 N   0  0  0  0  0  2  0  0  0  0  0  0
  190.1040  174.1150  141.2740 C   0  0  0  0  0  1  0  0  0  0  0  0
  195.0230  172.9740  141.9690 C   0  0  2  0  0  3  0  0  0  0  0  0
  196.0890  173.5460  142.9000 C   0  0  0  0  0  2  0  0  0  0  0  0
  196.9330  172.4280  143.4890 C   0  0  0  0  0  2  0  0  0  0  0  0
  196.8460  174.1030  145.3730 C   0  0  0  0  0  1  0  0  0  0  0  0
  197.1320  172.6510  144.9890 C   0  0  0  0  0  3  0  0  0  0  0  0
  196.2100  171.7320  145.7600 C   0  0  0  0  0  1  0  0  0  0  0  0
  194.9990  173.6830  140.7550 O   0  0  0  0  0  0  0  0  0  0  0  0
  195.0360  172.7080  139.7420 C   0  0  2  0  0  3  0  0  0  0  0  0
  196.9720  173.7260  139.0520 C   0  0  0  0  0  1  0  0  0  0  0  0
  196.3490  172.4860  139.2660 O   0  0  0  0  0  0  0  0  0  0  0  0
  194.0770  173.0500  138.5970 C   0  0  0  0  0  2  0  0  0  0  0  0
  190.9200  169.9220  140.5470 O   0  0  0  0  0  0  0  0  0  0  0  0
  191.7830  172.7270  137.6670 C   0  0  1  0  0  3  0  0  0  0  0  0
  190.2050  171.2230  138.7940 O   0  0  0  0  0  0  0  0  0  0  0  0
  192.6370  172.6930  138.9340 C   0  0  1  0  0  3  0  0  0  0  0  0
  192.5960  171.3040  139.5620 C   0  0  0  0  0  2  0  0  0  0  0  0
  190.3270  172.4190  138.0200 C   0  0  2  0  0  3  0  0  0  0  0  0
  191.1930  170.8000  139.6860 C   0  0  0  0  0  0  0  0  0  0  0  0
  191.8570  173.9940  137.0810 O   0  0  0  0  0  1  0  0  0  0  0  0
  189.4870  172.2990  136.7610 C   0  0  0  0  0  2  0  0  0  0  0  0
  189.9820  171.1340  135.9190 C   0  0  0  0  0  1  0  0  0  0  0  0
  2  6  2  0  0  0  0
  2  7  1  0  0  0  0
  3 35  1  1  0  0  0
  3  2  1  0  0  0  0
  3  4  1  0  0  0  0
  4  5  1  0  0  0  0
  5  1  1  6  0  0  0
  5  9  1  0  0  0  0
  7  1  1  0  0  0  0
  8 12  1  0  0  0  0
  9 11  1  6  0  0  0
  9 10  1  0  0  0  0
 10 12  1  0  0  0  0
 11  8  1  0  0  0  0
 12 14  1  6  0  0  0
 14 13  1  6  0  0  0
 15 17  2  0  0  0  0
 16 17  2  0  0  0  0
 17 19  1  0  0  0  0
 17 14  1  0  0  0  0
 18 19  2  0  0  0  0
 20 21  1  1  0  0  0
 20 18  1  0  0  0  0
 22 23  1  0  0  0  0
 22 26  2  0  0  0  0
 23 24  1  0  0  0  0
 24 25  1  0  0  0  0
 24 20  1  1  0  0  0
 26 25  1  0  0  0  0
 27 26  1  0  0  0  0
 28 27  1  0  0  0  0
 29 23  1  0  0  0  0
 30 31  1  1  0  0  0
 30 29  1  0  0  0  0
 30 32  1  0  0  0  0
 32 33  1  0  0  0  0
 34 33  1  0  0  0  0
 35 36  1  1  0  0  0
 36 37  1  0  0  0  0
 37 39  1  0  0  0  0
 39 38  1  0  0  0  0
 39 40  1  0  0  0  0
 41 35  1  0  0  0  0
 42 45  1  6  0  0  0
 42 41  1  0  0  0  0
 43 44  1  0  0  0  0
 44 42  1  0  0  0  0
 47 53  1  1  0  0  0
 47 51  1  0  0  0  0
 47 49  1  0  0  0  0
 48 52  1  0  0  0  0
 49 45  1  6  0  0  0
 49 50  1  0  0  0  0
 50 52  1  0  0  0  0
 51 54  1  6  0  0  0
 51 48  1  0  0  0  0
 52 46  2  0  0  0  0
 55 54  1  0  0  0  0
M  END
>  <MODEL>
6

>  <REMARK>
 VINA RESULT:      -5.4      3.039      9.036
  Name = 
  21 active torsions:
  status: ('A' for Active; 'I' for Inactive)
    1  A    between atoms: C_2  and  C_9
    2  A    between atoms: N_7  and  C_38
    3  A    between atoms: C_9  and  C_43
    4  A    between atoms: C_10  and  C_44
    5  A    between atoms: C_11  and  C_25
    6  A    between atoms: C_12  and  C_23
    7  A    between atoms: C_12  and  C_25
    8  A    between atoms: N_13  and  C_21
    9  A    between atoms: C_16  and  S_34
   10  A    between atoms: C_16  and  C_52
   11  A    between atoms: C_21  and  C_28
   12  A    between atoms: C_23  and  C_42
   13  A    between atoms: O_24  and  C_25
   14  A    between atoms: O_24  and  C_37
   15  A    between atoms: C_26  and  C_30
   16  A    between atoms: C_28  and  C_38
   17  A    between atoms: C_29  and  C_55
   18  A    between atoms: C_32  and  C_46
   19  A    between atoms: S_34  and  C_54
   20  A    between atoms: C_37  and  O_39
   21  A    between atoms: C_37  and  C_46
                            x       y       z     vdW  Elec       q    Type
                         _______ _______ _______ _____ _____    ______ ____

>  <TORSDO>
F 21

$$$$
=
 OpenBabel11062418393D

 55 58  0  0  1  0  0  0  0  0999 V2000
  190.5570  171.5620  140.6340 C   0  0  0  0  0  2  0  0  0  0  0  0
  192.6550  171.8440  139.0120 C   0  0  0  0  0  0  0  0  0  0  0  0
  192.6980  173.2760  139.5100 C   0  0  1  0  0  3  0  0  0  0  0  0
  192.0300  173.5210  140.7410 O   0  0  0  0  0  0  0  0  0  0  0  0
  191.6670  172.3170  141.4010 C   0  0  1  0  0  3  0  0  0  0  0  0
  193.6700  171.1870  138.8340 O   0  0  0  0  0  0  0  0  0  0  0  0
  191.0410  171.0710  138.9210 S   0  0  0  0  0  0  0  0  0  0  0  0
  192.5270  173.5320  144.6620 O   0  0  0  0  0  0  0  0  0  0  0  0
  191.2680  172.6190  142.8470 C   0  0  2  0  0  3  0  0  0  0  0  0
  190.8870  174.0480  143.0390 C   0  0  0  0  0  2  0  0  0  0  0  0
  192.3950  172.3970  143.8380 C   0  0  0  0  0  2  0  0  0  0  0  0
  191.3860  174.3270  144.4390 C   0  0  2  0  0  3  0  0  0  0  0  0
  191.7890  176.5190  143.2770 C   0  0  0  0  0  1  0  0  0  0  0  0
  191.7170  175.8100  144.6230 C   0  0  1  0  0  3  0  0  0  0  0  0
  191.0830  176.7930  147.0440 O   0  0  0  0  0  0  0  0  0  0  0  0
  190.1940  177.9890  145.1170 O   0  0  0  0  0  0  0  0  0  0  0  0
  190.5090  176.6240  145.6670 S   0  0  0  0  0  0  0  0  0  0  0  0
  187.9380  175.8320  145.0480 C   0  0  0  0  0  3  0  0  0  0  0  0
  189.0320  175.6620  145.8030 C   0  0  0  0  0  3  0  0  0  0  0  0
  187.8300  176.8510  143.9590 C   0  0  1  0  0  3  0  0  0  0  0  0
  188.5760  176.4380  142.8530 O   0  0  0  0  0  1  0  0  0  0  0  0
  185.5900  178.8860  142.3480 N   0  0  0  0  0  0  0  0  0  0  0  0
  186.0210  178.4760  143.6120 N   0  0  0  0  0  0  0  0  0  0  0  0
  186.3670  177.0620  143.5780 C   0  0  1  0  0  3  0  0  0  0  0  0
  186.1410  176.7250  142.2120 O   0  0  0  0  0  0  0  0  0  0  0  0
  185.6720  177.8650  141.5680 C   0  0  0  0  0  0  0  0  0  0  0  0
  185.3370  177.9170  140.1240 C   0  0  0  0  0  2  0  0  0  0  0  0
  186.2820  177.1990  139.4010 O   0  0  0  0  0  1  0  0  0  0  0  0
  185.9410  179.3150  144.7980 C   0  0  0  0  0  2  0  0  0  0  0  0
  185.0770  178.6580  145.8660 C   0  0  2  0  0  3  0  0  0  0  0  0
  183.7380  179.0200  145.7040 O   0  0  0  0  0  1  0  0  0  0  0  0
  185.5580  179.0470  147.2550 C   0  0  0  0  0  2  0  0  0  0  0  0
  186.6930  178.2310  147.6580 N   0  0  0  0  0  2  0  0  0  0  0  0
  186.2030  176.8740  147.8180 C   0  0  0  0  0  1  0  0  0  0  0  0
  194.0560  173.9810  139.4520 C   0  0  2  0  0  3  0  0  0  0  0  0
  194.5390  174.3200  140.8610 C   0  0  0  0  0  2  0  0  0  0  0  0
  194.5620  175.8250  141.0650 C   0  0  0  0  0  2  0  0  0  0  0  0
  195.3180  175.7270  143.4690 C   0  0  0  0  0  1  0  0  0  0  0  0
  195.6610  176.2070  142.0570 C   0  0  0  0  0  3  0  0  0  0  0  0
  196.9710  175.5910  141.6170 C   0  0  0  0  0  1  0  0  0  0  0  0
  193.9930  175.1420  138.6620 O   0  0  0  0  0  0  0  0  0  0  0  0
  194.8290  174.8980  137.5580 C   0  0  2  0  0  3  0  0  0  0  0  0
  196.9050  175.1560  136.6180 C   0  0  0  0  0  1  0  0  0  0  0  0
  196.1640  175.2930  137.8040 O   0  0  0  0  0  0  0  0  0  0  0  0
  194.2800  175.5470  136.2830 C   0  0  0  0  0  2  0  0  0  0  0  0
  189.5800  174.3470  136.1330 O   0  0  0  0  0  0  0  0  0  0  0  0
  193.5180  173.2350  135.7260 C   0  0  1  0  0  3  0  0  0  0  0  0
  191.1200  172.7470  135.5430 O   0  0  0  0  0  0  0  0  0  0  0  0
  193.1660  174.7210  135.6570 C   0  0  1  0  0  3  0  0  0  0  0  0
  191.8610  174.9910  136.3980 C   0  0  0  0  0  2  0  0  0  0  0  0
  192.4200  172.4150  135.0490 C   0  0  2  0  0  3  0  0  0  0  0  0
  190.7900  174.0290  135.9900 C   0  0  0  0  0  0  0  0  0  0  0  0
  194.7330  173.0060  135.0750 O   0  0  0  0  0  1  0  0  0  0  0  0
  192.6710  170.9290  135.2370 C   0  0  0  0  0  2  0  0  0  0  0  0
  191.3520  170.1750  135.2070 C   0  0  0  0  0  1  0  0  0  0  0  0
  2  3  1  0  0  0  0
  3 35  1  1  0  0  0
  3  4  1  0  0  0  0
  4  5  1  0  0  0  0
  5  1  1  6  0  0  0
  5  9  1  0  0  0  0
  6  2  2  0  0  0  0
  7  2  1  0  0  0  0
  7  1  1  0  0  0  0
  9 10  1  6  0  0  0
  9 11  1  0  0  0  0
 10 12  1  0  0  0  0
 11  8  1  0  0  0  0
 12 14  1  6  0  0  0
 12  8  1  0  0  0  0
 14 13  1  6  0  0  0
 14 17  1  0  0  0  0
 16 17  2  0  0  0  0
 17 19  1  0  0  0  0
 17 15  2  0  0  0  0
 18 19  2  0  0  0  0
 20 21  1  6  0  0  0
 20 18  1  0  0  0  0
 22 23  1  0  0  0  0
 23 29  1  0  0  0  0
 24 23  1  0  0  0  0
 24 20  1  6  0  0  0
 25 24  1  0  0  0  0
 26 25  1  0  0  0  0
 26 22  2  0  0  0  0
 27 26  1  0  0  0  0
 28 27  1  0  0  0  0
 29 30  1  0  0  0  0
 30 31  1  6  0  0  0
 30 32  1  0  0  0  0
 32 33  1  0  0  0  0
 33 34  1  0  0  0  0
 35 36  1  1  0  0  0
 36 37  1  0  0  0  0
 37 39  1  0  0  0  0
 39 38  1  0  0  0  0
 40 39  1  0  0  0  0
 41 35  1  0  0  0  0
 42 45  1  6  0  0  0
 42 44  1  0  0  0  0
 42 41  1  0  0  0  0
 43 44  1  0  0  0  0
 47 53  1  6  0  0  0
 48 52  1  0  0  0  0
 49 47  1  0  0  0  0
 49 45  1  1  0  0  0
 49 50  1  0  0  0  0
 51 54  1  1  0  0  0
 51 48  1  0  0  0  0
 51 47  1  0  0  0  0
 52 46  2  0  0  0  0
 52 50  1  0  0  0  0
 55 54  1  0  0  0  0
M  END
>  <MODEL>
7

>  <REMARK>
 VINA RESULT:      -5.3      3.912      9.520
  Name = 
  21 active torsions:
  status: ('A' for Active; 'I' for Inactive)
    1  A    between atoms: C_2  and  C_9
    2  A    between atoms: N_7  and  C_38
    3  A    between atoms: C_9  and  C_43
    4  A    between atoms: C_10  and  C_44
    5  A    between atoms: C_11  and  C_25
    6  A    between atoms: C_12  and  C_23
    7  A    between atoms: C_12  and  C_25
    8  A    between atoms: N_13  and  C_21
    9  A    between atoms: C_16  and  S_34
   10  A    between atoms: C_16  and  C_52
   11  A    between atoms: C_21  and  C_28
   12  A    between atoms: C_23  and  C_42
   13  A    between atoms: O_24  and  C_25
   14  A    between atoms: O_24  and  C_37
   15  A    between atoms: C_26  and  C_30
   16  A    between atoms: C_28  and  C_38
   17  A    between atoms: C_29  and  C_55
   18  A    between atoms: C_32  and  C_46
   19  A    between atoms: S_34  and  C_54
   20  A    between atoms: C_37  and  O_39
   21  A    between atoms: C_37  and  C_46
                            x       y       z     vdW  Elec       q    Type
                         _______ _______ _______ _____ _____    ______ ____

>  <TORSDO>
F 21

$$$$
=
 OpenBabel11062418393D

 55 58  0  0  1  0  0  0  0  0999 V2000
  191.6850  176.3120  146.5410 C   0  0  0  0  0  2  0  0  0  0  0  0
  189.1040  176.9770  146.6270 C   0  0  0  0  0  0  0  0  0  0  0  0
  189.3430  177.6080  145.2680 C   0  0  1  0  0  3  0  0  0  0  0  0
  190.4900  177.1460  144.5670 O   0  0  0  0  0  0  0  0  0  0  0  0
  191.0540  175.9880  145.1670 C   0  0  1  0  0  3  0  0  0  0  0  0
  188.0860  176.3520  146.8820 O   0  0  0  0  0  0  0  0  0  0  0  0
  190.4820  176.9830  147.7710 S   0  0  0  0  0  0  0  0  0  0  0  0
  194.0560  176.1960  143.2190 O   0  0  0  0  0  0  0  0  0  0  0  0
  192.0540  175.3420  144.2080 C   0  0  2  0  0  3  0  0  0  0  0  0
  193.2350  174.7760  144.9220 C   0  0  0  0  0  2  0  0  0  0  0  0
  192.6520  176.3210  143.2160 C   0  0  0  0  0  2  0  0  0  0  0  0
  194.3540  175.0200  143.9350 C   0  0  2  0  0  3  0  0  0  0  0  0
  195.6030  174.6570  146.0860 C   0  0  0  0  0  1  0  0  0  0  0  0
  195.7030  175.1490  144.6480 C   0  0  1  0  0  3  0  0  0  0  0  0
  197.9410  173.6680  144.7940 O   0  0  0  0  0  0  0  0  0  0  0  0
  196.3740  173.0970  143.0200 O   0  0  0  0  0  0  0  0  0  0  0  0
  196.9840  174.2380  143.7880 S   0  0  0  0  0  0  0  0  0  0  0  0
  197.5330  175.5910  141.4460 C   0  0  0  0  0  3  0  0  0  0  0  0
  197.8960  175.2910  142.7000 C   0  0  0  0  0  3  0  0  0  0  0  0
  196.2800  175.0890  140.8010 C   0  0  1  0  0  3  0  0  0  0  0  0
  195.4200  176.1600  140.5490 O   0  0  0  0  0  1  0  0  0  0  0  0
  195.0240  173.7160  137.9210 N   0  0  0  0  0  0  0  0  0  0  0  0
  195.5610  173.3980  139.1710 N   0  0  0  0  0  0  0  0  0  0  0  0
  196.6130  174.3460  139.5100 C   0  0  1  0  0  3  0  0  0  0  0  0
  196.5980  175.2310  138.3930 O   0  0  0  0  0  0  0  0  0  0  0  0
  195.6340  174.7690  137.5020 C   0  0  0  0  0  0  0  0  0  0  0  0
  195.3100  175.4390  136.2190 C   0  0  0  0  0  2  0  0  0  0  0  0
  194.1630  174.8730  135.6760 O   0  0  0  0  0  1  0  0  0  0  0  0
  195.2240  172.1860  139.9040 C   0  0  0  0  0  2  0  0  0  0  0  0
  193.7330  172.1410  140.2140 C   0  0  2  0  0  3  0  0  0  0  0  0
  193.3470  173.2760  140.9290 O   0  0  0  0  0  1  0  0  0  0  0  0
  193.3910  170.8860  141.0020 C   0  0  0  0  0  2  0  0  0  0  0  0
  193.3630  171.1610  142.4300 N   0  0  0  0  0  2  0  0  0  0  0  0
  192.8250  169.9780  143.0780 C   0  0  0  0  0  1  0  0  0  0  0  0
  188.1270  177.7300  144.3460 C   0  0  2  0  0  3  0  0  0  0  0  0
  186.9440  178.3300  145.1030 C   0  0  0  0  0  2  0  0  0  0  0  0
  185.8140  178.6590  144.1430 C   0  0  0  0  0  2  0  0  0  0  0  0
  184.6000  177.9540  146.2390 C   0  0  0  0  0  1  0  0  0  0  0  0
  184.4720  178.2320  144.7400 C   0  0  0  0  0  3  0  0  0  0  0  0
  183.4510  179.3250  144.5130 C   0  0  0  0  0  1  0  0  0  0  0  0
  187.7780  176.4840  143.7970 O   0  0  0  0  0  0  0  0  0  0  0  0
  188.3120  176.4760  142.4960 C   0  0  2  0  0  3  0  0  0  0  0  0
  187.3510  177.8850  140.9650 C   0  0  0  0  0  1  0  0  0  0  0  0
  188.3620  177.7720  141.9330 O   0  0  0  0  0  0  0  0  0  0  0  0
  187.5620  175.4980  141.5860 C   0  0  0  0  0  2  0  0  0  0  0  0
  190.2080  172.2420  144.0260 O   0  0  0  0  0  0  0  0  0  0  0  0
  188.8880  173.7280  140.4270 C   0  0  1  0  0  3  0  0  0  0  0  0
  190.0910  172.0410  141.7410 O   0  0  0  0  0  0  0  0  0  0  0  0
  188.1110  174.0830  141.6940 C   0  0  1  0  0  3  0  0  0  0  0  0
  189.0170  173.9850  142.9160 C   0  0  0  0  0  2  0  0  0  0  0  0
  189.3920  172.2870  140.5180 C   0  0  2  0  0  3  0  0  0  0  0  0
  189.7750  172.6960  142.9340 C   0  0  0  0  0  0  0  0  0  0  0  0
  188.0560  173.8560  139.3100 O   0  0  0  0  0  1  0  0  0  0  0  0
  190.2930  171.9610  139.3410 C   0  0  0  0  0  2  0  0  0  0  0  0
  190.5460  173.2160  138.5220 C   0  0  0  0  0  1  0  0  0  0  0  0
  1  7  1  0  0  0  0
  2  6  2  0  0  0  0
  2  7  1  0  0  0  0
  3 35  1  6  0  0  0
  3  2  1  0  0  0  0
  4  5  1  0  0  0  0
  4  3  1  0  0  0  0
  5  1  1  1  0  0  0
  8 12  1  0  0  0  0
  9 11  1  6  0  0  0
  9 10  1  0  0  0  0
  9  5  1  0  0  0  0
 11  8  1  0  0  0  0
 12 14  1  1  0  0  0
 12 10  1  0  0  0  0
 14 13  1  1  0  0  0
 16 17  2  0  0  0  0
 17 14  1  0  0  0  0
 17 15  2  0  0  0  0
 18 19  2  0  0  0  0
 19 17  1  0  0  0  0
 20 21  1  6  0  0  0
 20 18  1  0  0  0  0
 22 23  1  0  0  0  0
 23 24  1  0  0  0  0
 23 29  1  0  0  0  0
 24 20  1  1  0  0  0
 25 24  1  0  0  0  0
 26 22  2  0  0  0  0
 26 25  1  0  0  0  0
 27 26  1  0  0  0  0
 28 27  1  0  0  0  0
 29 30  1  0  0  0  0
 30 31  1  1  0  0  0
 30 32  1  0  0  0  0
 32 33  1  0  0  0  0
 33 34  1  0  0  0  0
 35 36  1  1  0  0  0
 37 39  1  0  0  0  0
 37 36  1  0  0  0  0
 39 38  1  0  0  0  0
 40 39  1  0  0  0  0
 41 35  1  0  0  0  0
 42 45  1  6  0  0  0
 42 41  1  0  0  0  0
 43 44  1  0  0  0  0
 44 42  1  0  0  0  0
 47 53  1  6  0  0  0
 47 51  1  0  0  0  0
 47 49  1  0  0  0  0
 48 52  1  0  0  0  0
 49 45  1  6  0  0  0
 49 50  1  0  0  0  0
 50 52  1  0  0  0  0
 51 54  1  6  0  0  0
 51 48  1  0  0  0  0
 52 46  2  0  0  0  0
 55 54  1  0  0  0  0
M  END
>  <MODEL>
8

>  <REMARK>
 VINA RESULT:      -5.2      2.310      5.265
  Name = 
  21 active torsions:
  status: ('A' for Active; 'I' for Inactive)
    1  A    between atoms: C_2  and  C_9
    2  A    between atoms: N_7  and  C_38
    3  A    between atoms: C_9  and  C_43
    4  A    between atoms: C_10  and  C_44
    5  A    between atoms: C_11  and  C_25
    6  A    between atoms: C_12  and  C_23
    7  A    between atoms: C_12  and  C_25
    8  A    between atoms: N_13  and  C_21
    9  A    between atoms: C_16  and  S_34
   10  A    between atoms: C_16  and  C_52
   11  A    between atoms: C_21  and  C_28
   12  A    between atoms: C_23  and  C_42
   13  A    between atoms: O_24  and  C_25
   14  A    between atoms: O_24  and  C_37
   15  A    between atoms: C_26  and  C_30
   16  A    between atoms: C_28  and  C_38
   17  A    between atoms: C_29  and  C_55
   18  A    between atoms: C_32  and  C_46
   19  A    between atoms: S_34  and  C_54
   20  A    between atoms: C_37  and  O_39
   21  A    between atoms: C_37  and  C_46
                            x       y       z     vdW  Elec       q    Type
                         _______ _______ _______ _____ _____    ______ ____

>  <TORSDO>
F 21

$$$$
=
 OpenBabel11062418393D

 55 58  0  0  1  0  0  0  0  0999 V2000
  192.6440  173.8290  142.6070 C   0  0  0  0  0  2  0  0  0  0  0  0
  192.8330  171.1810  142.3470 C   0  0  0  0  0  0  0  0  0  0  0  0
  194.2630  171.3560  142.8240 C   0  0  1  0  0  3  0  0  0  0  0  0
  194.5370  172.5640  143.5210 O   0  0  0  0  0  0  0  0  0  0  0  0
  193.3500  173.2670  143.8620 C   0  0  1  0  0  3  0  0  0  0  0  0
  192.1330  170.2520  142.7170 O   0  0  0  0  0  0  0  0  0  0  0  0
  192.1320  172.5300  141.3980 S   0  0  0  0  0  0  0  0  0  0  0  0
  192.4580  176.3210  145.5130 O   0  0  0  0  0  0  0  0  0  0  0  0
  193.6690  174.3590  144.8850 C   0  0  2  0  0  3  0  0  0  0  0  0
  192.9930  174.1200  146.1920 C   0  0  0  0  0  2  0  0  0  0  0  0
  193.1910  175.7350  144.4620 C   0  0  0  0  0  2  0  0  0  0  0  0
  192.6850  175.5260  146.6540 C   0  0  2  0  0  3  0  0  0  0  0  0
  191.4870  176.7820  148.4720 C   0  0  0  0  0  1  0  0  0  0  0  0
  191.4650  175.5500  147.5790 C   0  0  1  0  0  3  0  0  0  0  0  0
  188.7960  175.2270  147.5770 O   0  0  0  0  0  0  0  0  0  0  0  0
  189.6960  176.8530  146.0030 O   0  0  0  0  0  0  0  0  0  0  0  0
  189.9360  175.5120  146.6440 S   0  0  0  0  0  0  0  0  0  0  0  0
  189.5790  174.4010  144.1430 C   0  0  0  0  0  3  0  0  0  0  0  0
  189.9710  174.2430  145.4140 C   0  0  0  0  0  3  0  0  0  0  0  0
  189.0800  175.6940  143.5810 C   0  0  1  0  0  3  0  0  0  0  0  0
  190.1040  176.3250  142.8730 O   0  0  0  0  0  1  0  0  0  0  0  0
  187.7560  176.1010  140.4440 N   0  0  0  0  0  0  0  0  0  0  0  0
  187.6730  176.5580  141.7620 N   0  0  0  0  0  0  0  0  0  0  0  0
  187.8720  175.4460  142.6820 C   0  0  1  0  0  3  0  0  0  0  0  0
  188.1100  174.3560  141.7960 O   0  0  0  0  0  0  0  0  0  0  0  0
  188.0090  174.8390  140.4950 C   0  0  0  0  0  0  0  0  0  0  0  0
  188.2110  174.0030  139.2870 C   0  0  0  0  0  2  0  0  0  0  0  0
  188.3080  172.6670  139.6560 O   0  0  0  0  0  1  0  0  0  0  0  0
  187.2620  177.9080  142.1180 C   0  0  0  0  0  2  0  0  0  0  0  0
  185.7570  177.9700  142.3460 C   0  0  2  0  0  3  0  0  0  0  0  0
  185.0950  178.2960  141.1610 O   0  0  0  0  0  1  0  0  0  0  0  0
  185.4230  178.9860  143.4270 C   0  0  0  0  0  2  0  0  0  0  0  0
  184.7070  178.3590  144.5270 N   0  0  0  0  0  2  0  0  0  0  0  0
  185.5840  177.3400  145.0740 C   0  0  0  0  0  1  0  0  0  0  0  0
  194.9070  170.1490  143.5100 C   0  0  2  0  0  3  0  0  0  0  0  0
  194.5480  170.1260  144.9940 C   0  0  0  0  0  2  0  0  0  0  0  0
  195.7500  170.5210  145.8360 C   0  0  0  0  0  2  0  0  0  0  0  0
  194.7670  168.9220  147.5200 C   0  0  0  0  0  1  0  0  0  0  0  0
  196.0530  169.4350  146.8690 C   0  0  0  0  0  3  0  0  0  0  0  0
  196.7710  168.2870  146.1940 C   0  0  0  0  0  1  0  0  0  0  0  0
  196.3030  170.1540  143.3430 O   0  0  0  0  0  0  0  0  0  0  0  0
  196.5230  170.3330  141.9650 C   0  0  2  0  0  3  0  0  0  0  0  0
  196.3010  169.3020  139.9290 C   0  0  0  0  0  1  0  0  0  0  0  0
  196.6320  169.1010  141.2790 O   0  0  0  0  0  0  0  0  0  0  0  0
  197.7360  171.2300  141.7010 C   0  0  0  0  0  2  0  0  0  0  0  0
  197.7860  174.7010  138.3090 O   0  0  0  0  0  0  0  0  0  0  0  0
  197.8080  173.6560  142.2860 C   0  0  1  0  0  3  0  0  0  0  0  0
  197.6970  175.3480  140.5120 O   0  0  0  0  0  0  0  0  0  0  0  0
  197.3270  172.6280  141.2620 C   0  0  1  0  0  3  0  0  0  0  0  0
  197.9300  172.9240  139.8930 C   0  0  0  0  0  2  0  0  0  0  0  0
  197.3490  175.0530  141.8670 C   0  0  2  0  0  3  0  0  0  0  0  0
  197.7690  174.3640  139.5230 C   0  0  0  0  0  0  0  0  0  0  0  0
  197.2780  173.3550  143.5440 O   0  0  0  0  0  1  0  0  0  0  0  0
  197.9410  176.1080  142.7850 C   0  0  0  0  0  2  0  0  0  0  0  0
  196.8270  176.8460  143.5090 C   0  0  0  0  0  1  0  0  0  0  0  0
  2  6  2  0  0  0  0
  2  3  1  0  0  0  0
  3 35  1  1  0  0  0
  3  4  1  0  0  0  0
  4  5  1  0  0  0  0
  5  1  1  6  0  0  0
  5  9  1  0  0  0  0
  7  2  1  0  0  0  0
  7  1  1  0  0  0  0
  8 12  1  0  0  0  0
  9 11  1  6  0  0  0
  9 10  1  0  0  0  0
 10 12  1  0  0  0  0
 11  8  1  0  0  0  0
 12 14  1  1  0  0  0
 14 13  1  6  0  0  0
 16 17  2  0  0  0  0
 17 15  2  0  0  0  0
 17 14  1  0  0  0  0
 18 19  2  0  0  0  0
 19 17  1  0  0  0  0
 20 21  1  6  0  0  0
 20 18  1  0  0  0  0
 22 26  2  0  0  0  0
 22 23  1  0  0  0  0
 23 29  1  0  0  0  0
 23 24  1  0  0  0  0
 24 20  1  1  0  0  0
 25 24  1  0  0  0  0
 26 25  1  0  0  0  0
 27 28  1  0  0  0  0
 27 26  1  0  0  0  0
 29 30  1  0  0  0  0
 30 31  1  6  0  0  0
 30 32  1  0  0  0  0
 32 33  1  0  0  0  0
 33 34  1  0  0  0  0
 35 36  1  1  0  0  0
 36 37  1  0  0  0  0
 37 39  1  0  0  0  0
 39 38  1  0  0  0  0
 40 39  1  0  0  0  0
 41 35  1  0  0  0  0
 42 45  1  1  0  0  0
 42 41  1  0  0  0  0
 43 44  1  0  0  0  0
 44 42  1  0  0  0  0
 46 52  2  0  0  0  0
 47 53  1  1  0  0  0
 48 51  1  0  0  0  0
 49 45  1  1  0  0  0
 49 47  1  0  0  0  0
 50 49  1  0  0  0  0
 51 47  1  0  0  0  0
 51 54  1  1  0  0  0
 52 50  1  0  0  0  0
 52 48  1  0  0  0  0
 54 55  1  0  0  0  0
M  END
>  <MODEL>
9

>  <REMARK>
 VINA RESULT:      -5.1      2.928      9.844
  Name = 
  21 active torsions:
  status: ('A' for Active; 'I' for Inactive)
    1  A    between atoms: C_2  and  C_9
    2  A    between atoms: N_7  and  C_38
    3  A    between atoms: C_9  and  C_43
    4  A    between atoms: C_10  and  C_44
    5  A    between atoms: C_11  and  C_25
    6  A    between atoms: C_12  and  C_23
    7  A    between atoms: C_12  and  C_25
    8  A    between atoms: N_13  and  C_21
    9  A    between atoms: C_16  and  S_34
   10  A    between atoms: C_16  and  C_52
   11  A    between atoms: C_21  and  C_28
   12  A    between atoms: C_23  and  C_42
   13  A    between atoms: O_24  and  C_25
   14  A    between atoms: O_24  and  C_37
   15  A    between atoms: C_26  and  C_30
   16  A    between atoms: C_28  and  C_38
   17  A    between atoms: C_29  and  C_55
   18  A    between atoms: C_32  and  C_46
   19  A    between atoms: S_34  and  C_54
   20  A    between atoms: C_37  and  O_39
   21  A    between atoms: C_37  and  C_46
                            x       y       z     vdW  Elec       q    Type
                         _______ _______ _______ _____ _____    ______ ____

>  <TORSDO>
F 21

$$$$
