=
 OpenBabel11062419293D

 40 44  0  0  1  0  0  0  0  0999 V2000
  190.9950  171.9280  142.4530 C   0  0  0  0  0  2  0  0  0  0  0  0
  187.4200  172.7030  141.8120 N   0  0  0  0  0  2  0  0  0  0  0  0
  189.9550  176.1540  142.4490 C   0  0  0  0  0  2  0  0  0  0  0  0
  190.4570  174.7700  142.2220 C   0  0  0  0  0  0  0  0  0  0  0  0
  191.7160  174.1160  142.0800 N   0  0  0  0  0  0  0  0  0  0  0  0
  189.5990  171.8180  142.0180 N   0  0  0  0  0  2  0  0  0  0  0  0
  188.6150  175.6560  142.3720 C   0  0  2  0  0  3  0  0  0  0  0  0
  191.7510  172.8080  141.5600 N   0  0  0  0  0  2  0  0  0  0  0  0
  188.6780  172.9190  142.0050 C   0  0  0  0  0  0  0  0  0  0  0  0
  189.1700  174.2850  142.1800 C   0  0  0  0  0  0  0  0  0  0  0  0
  192.9530  174.8640  142.2330 C   0  0  0  0  0  2  0  0  0  0  0  0
  193.0550  175.4300  143.6430 C   0  0  2  0  0  3  0  0  0  0  0  0
  194.4740  175.8990  143.9130 C   0  0  0  0  0  2  0  0  0  0  0  0
  195.3520  174.8120  143.8570 O   0  0  0  0  0  0  0  0  0  0  0  0
  196.3100  175.0930  144.7750 N   0  0  0  0  0  0  0  0  0  0  0  0
  196.8600  173.4220  146.0260 C   0  0  0  0  0  2  0  0  0  0  0  0
  195.8540  174.5480  146.0470 C   0  0  0  0  0  2  0  0  0  0  0  0
  197.2940  174.0190  144.7080 C   0  0  0  0  0  2  0  0  0  0  0  0
  192.6940  174.4270  144.5860 O   0  0  0  0  0  0  0  0  0  0  0  0
  191.1270  175.6170  147.7410 C   0  0  0  0  0  3  0  0  0  0  0  0
  189.5340  174.2870  146.4930 C   0  0  0  0  0  3  0  0  0  0  0  0
  189.8530  175.0550  147.6170 C   0  0  0  0  0  3  0  0  0  0  0  0
  192.0820  175.4120  146.7410 C   0  0  0  0  0  3  0  0  0  0  0  0
  190.4900  174.0810  145.4920 C   0  0  0  0  0  3  0  0  0  0  0  0
  191.7660  174.6400  145.6100 C   0  0  0  0  0  0  0  0  0  0  0  0
  187.9390  176.1320  141.0890 C   0  0  0  0  0  2  0  0  0  0  0  0
  186.2890  177.5430  140.2120 C   0  0  0  0  0  2  0  0  0  0  0  0
  185.0110  178.1280  140.7570 C   0  0  0  0  0  2  0  0  0  0  0  0
  184.9530  177.6610  142.1910 C   0  0  1  0  0  3  0  0  0  0  0  0
  186.3350  177.1030  142.4880 C   0  0  0  0  0  2  0  0  0  0  0  0
  187.1920  177.3540  141.3370 N   0  0  0  0  0  0  0  0  0  0  0  0
  185.7670  179.6330  143.3490 O   0  0  0  0  0  1  0  0  0  0  0  0
  184.6360  178.8380  143.1210 C   0  0  2  0  0  3  0  0  0  0  0  0
  184.0280  178.4370  144.3320 O   0  0  0  0  0  0  0  0  0  0  0  0
  184.7660  178.9610  145.4070 C   0  0  0  0  0  2  0  0  0  0  0  0
  184.9000  177.9200  146.5040 C   0  0  2  0  0  3  0  0  0  0  0  0
  184.4530  178.4420  147.7180 O   0  0  0  0  0  1  0  0  0  0  0  0
  186.3220  177.4850  146.6260 C   0  0  0  0  0  0  0  0  0  0  0  0
  187.0990  178.0560  147.4370 O   0  0  0  0  0  1  0  0  0  0  0  0
  186.8020  176.4680  145.8110 O   0  0  0  0  0  0  0  0  0  0  0  0
  2  9  2  0  0  0  0
  4  3  1  0  0  0  0
  5  4  1  0  0  0  0
  5 11  1  0  0  0  0
  6  1  1  0  0  0  0
  7 26  1  6  0  0  0
  7  3  1  0  0  0  0
  8  5  1  0  0  0  0
  8  1  1  0  0  0  0
  9  6  1  0  0  0  0
  9 10  1  0  0  0  0
 10  4  2  0  0  0  0
 10  7  1  0  0  0  0
 12 11  1  6  0  0  0
 12 13  1  0  0  0  0
 12 19  1  0  0  0  0
 14 13  1  0  0  0  0
 14 15  1  0  0  0  0
 15 17  1  0  0  0  0
 16 17  1  0  0  0  0
 18 15  1  0  0  0  0
 18 16  1  0  0  0  0
 19 25  1  0  0  0  0
 21 22  2  0  0  0  0
 22 20  1  0  0  0  0
 23 20  2  0  0  0  0
 24 25  2  0  0  0  0
 24 21  1  0  0  0  0
 25 23  1  0  0  0  0
 26 31  1  0  0  0  0
 27 28  1  0  0  0  0
 27 31  1  0  0  0  0
 28 29  1  0  0  0  0
 29 30  1  0  0  0  0
 29 33  1  1  0  0  0
 31 30  1  0  0  0  0
 33 32  1  1  0  0  0
 33 34  1  0  0  0  0
 34 35  1  0  0  0  0
 35 36  1  0  0  0  0
 36 38  1  0  0  0  0
 36 37  1  1  0  0  0
 38 39  1  0  0  0  0
 40 38  2  0  0  0  0
M  END
>  <MODEL>
1

>  <REMARK>
 VINA RESULT:      -7.2      0.000      0.000
  Name = 
  14 active torsions:
  status: ('A' for Active; 'I' for Inactive)
    1  A    between atoms: O_1  and  C_34
    2  A    between atoms: O_1  and  C_35
    3  A    between atoms: C_2  and  C_7
    4  A    between atoms: O_3  and  N_8
    5  A    between atoms: O_3  and  C_17
    6  A    between atoms: C_7  and  C_35
    7  A    between atoms: C_17  and  C_21
    8  A    between atoms: C_18  and  O_36
    9  A    between atoms: C_21  and  C_23
   10  A    between atoms: C_21  and  O_36
   11  A    between atoms: C_23  and  N_27
   12  A    between atoms: C_24  and  C_30
   13  A    between atoms: C_24  and  N_40
   14  A    between atoms: C_26  and  C_34
                            x       y       z     vdW  Elec       q    Type
                         _______ _______ _______ _____ _____    ______ ____

>  <TORSDO>
F 14

$$$$
=
 OpenBabel11062419293D

 40 44  0  0  1  0  0  0  0  0999 V2000
  184.1700  178.7570  145.8900 C   0  0  0  0  0  2  0  0  0  0  0  0
  186.9410  178.7840  148.3630 N   0  0  0  0  0  2  0  0  0  0  0  0
  187.5360  176.1530  144.9770 C   0  0  0  0  0  2  0  0  0  0  0  0
  186.4650  177.1860  145.0650 C   0  0  0  0  0  0  0  0  0  0  0  0
  185.4280  177.7010  144.2330 N   0  0  0  0  0  0  0  0  0  0  0  0
  185.0750  179.1670  146.9690 N   0  0  0  0  0  2  0  0  0  0  0  0
  187.9660  176.5210  146.2920 C   0  0  2  0  0  3  0  0  0  0  0  0
  184.8110  178.9170  144.5840 N   0  0  0  0  0  2  0  0  0  0  0  0
  186.3070  178.4990  147.2760 C   0  0  0  0  0  0  0  0  0  0  0  0
  186.8570  177.5180  146.3410 C   0  0  0  0  0  0  0  0  0  0  0  0
  185.1790  177.1180  142.9240 C   0  0  0  0  0  2  0  0  0  0  0  0
  185.3960  178.1610  141.8350 C   0  0  2  0  0  3  0  0  0  0  0  0
  184.1330  178.3130  141.0040 C   0  0  0  0  0  2  0  0  0  0  0  0
  183.0100  178.2700  141.8360 O   0  0  0  0  0  0  0  0  0  0  0  0
  182.0570  178.9670  141.1690 N   0  0  0  0  0  0  0  0  0  0  0  0
  180.0830  178.0990  141.2750 C   0  0  0  0  0  2  0  0  0  0  0  0
  181.2980  178.0040  140.3820 C   0  0  0  0  0  2  0  0  0  0  0  0
  180.9110  179.0860  142.0630 C   0  0  0  0  0  2  0  0  0  0  0  0
  186.4750  177.7600  140.9980 O   0  0  0  0  0  0  0  0  0  0  0  0
  189.8260  177.7290  142.6100 C   0  0  0  0  0  3  0  0  0  0  0  0
  189.2460  175.4900  141.8940 C   0  0  0  0  0  3  0  0  0  0  0  0
  190.1440  176.3720  142.5020 C   0  0  0  0  0  3  0  0  0  0  0  0
  188.6100  178.2030  142.1100 C   0  0  0  0  0  3  0  0  0  0  0  0
  188.0300  175.9640  141.3930 C   0  0  0  0  0  3  0  0  0  0  0  0
  187.7050  177.3200  141.4970 C   0  0  0  0  0  0  0  0  0  0  0  0
  189.3120  177.2370  146.2350 C   0  0  0  0  0  2  0  0  0  0  0  0
  190.0900  175.0370  146.0440 C   0  0  0  0  0  2  0  0  0  0  0  0
  191.4080  174.4220  145.6470 C   0  0  0  0  0  2  0  0  0  0  0  0
  192.3270  175.5960  145.4080 C   0  0  1  0  0  3  0  0  0  0  0  0
  191.5960  176.8000  145.9790 C   0  0  0  0  0  2  0  0  0  0  0  0
  190.3800  176.3350  146.6340 N   0  0  0  0  0  0  0  0  0  0  0  0
  194.0620  176.5340  146.8240 O   0  0  0  0  0  1  0  0  0  0  0  0
  193.6610  175.3820  146.1340 C   0  0  2  0  0  3  0  0  0  0  0  0
  194.6820  174.9040  145.2810 O   0  0  0  0  0  0  0  0  0  0  0  0
  194.7250  175.7070  144.1280 C   0  0  0  0  0  2  0  0  0  0  0  0
  195.8980  175.2990  143.2530 C   0  0  2  0  0  3  0  0  0  0  0  0
  196.8620  174.6420  144.0190 O   0  0  0  0  0  1  0  0  0  0  0  0
  196.4930  176.5020  142.6020 C   0  0  0  0  0  0  0  0  0  0  0  0
  196.2270  176.7780  141.4020 O   0  0  0  0  0  0  0  0  0  0  0  0
  197.3780  177.3020  143.3130 O   0  0  0  0  0  1  0  0  0  0  0  0
  1  6  1  0  0  0  0
  3  4  1  0  0  0  0
  3  7  1  0  0  0  0
  4 10  2  0  0  0  0
  5  8  1  0  0  0  0
  5  4  1  0  0  0  0
  6  9  1  0  0  0  0
  7 26  1  6  0  0  0
  7 10  1  0  0  0  0
  8  1  1  0  0  0  0
  9  2  2  0  0  0  0
 10  9  1  0  0  0  0
 11  5  1  0  0  0  0
 12 13  1  6  0  0  0
 12 11  1  0  0  0  0
 13 14  1  0  0  0  0
 15 14  1  0  0  0  0
 15 18  1  0  0  0  0
 16 18  1  0  0  0  0
 17 15  1  0  0  0  0
 17 16  1  0  0  0  0
 19 25  1  0  0  0  0
 19 12  1  0  0  0  0
 21 22  2  0  0  0  0
 22 20  1  0  0  0  0
 23 20  2  0  0  0  0
 24 25  2  0  0  0  0
 24 21  1  0  0  0  0
 25 23  1  0  0  0  0
 26 31  1  0  0  0  0
 27 31  1  0  0  0  0
 28 27  1  0  0  0  0
 29 28  1  0  0  0  0
 29 30  1  0  0  0  0
 29 33  1  1  0  0  0
 30 31  1  0  0  0  0
 33 32  1  6  0  0  0
 34 33  1  0  0  0  0
 35 34  1  0  0  0  0
 36 37  1  1  0  0  0
 36 35  1  0  0  0  0
 38 36  1  0  0  0  0
 38 40  1  0  0  0  0
 39 38  2  0  0  0  0
M  END
>  <MODEL>
2

>  <REMARK>
 VINA RESULT:      -7.0      3.195      9.758
  Name = 
  14 active torsions:
  status: ('A' for Active; 'I' for Inactive)
    1  A    between atoms: O_1  and  C_34
    2  A    between atoms: O_1  and  C_35
    3  A    between atoms: C_2  and  C_7
    4  A    between atoms: O_3  and  N_8
    5  A    between atoms: O_3  and  C_17
    6  A    between atoms: C_7  and  C_35
    7  A    between atoms: C_17  and  C_21
    8  A    between atoms: C_18  and  O_36
    9  A    between atoms: C_21  and  C_23
   10  A    between atoms: C_21  and  O_36
   11  A    between atoms: C_23  and  N_27
   12  A    between atoms: C_24  and  C_30
   13  A    between atoms: C_24  and  N_40
   14  A    between atoms: C_26  and  C_34
                            x       y       z     vdW  Elec       q    Type
                         _______ _______ _______ _____ _____    ______ ____

>  <TORSDO>
F 14

$$$$
=
 OpenBabel11062419293D

 40 44  0  0  1  0  0  0  0  0999 V2000
  190.2940  171.4350  141.1310 C   0  0  0  0  0  2  0  0  0  0  0  0
  188.5710  174.6330  140.3590 N   0  0  0  0  0  2  0  0  0  0  0  0
  189.6820  174.1080  144.5100 C   0  0  0  0  0  2  0  0  0  0  0  0
  190.1610  173.2450  143.3930 C   0  0  0  0  0  0  0  0  0  0  0  0
  191.0520  172.1470  143.2200 N   0  0  0  0  0  0  0  0  0  0  0  0
  189.7620  172.5960  140.4090 N   0  0  0  0  0  2  0  0  0  0  0  0
  188.9030  174.8530  143.5690 C   0  0  2  0  0  3  0  0  0  0  0  0
  191.4700  171.8050  141.9190 N   0  0  0  0  0  2  0  0  0  0  0  0
  189.2070  173.7510  141.0550 C   0  0  0  0  0  0  0  0  0  0  0  0
  189.3880  173.9410  142.4930 C   0  0  0  0  0  0  0  0  0  0  0  0
  191.7110  171.5450  144.3690 C   0  0  0  0  0  2  0  0  0  0  0  0
  193.2130  171.7870  144.3000 C   0  0  2  0  0  3  0  0  0  0  0  0
  193.9580  170.4780  144.5000 C   0  0  0  0  0  2  0  0  0  0  0  0
  195.0000  170.6600  145.4140 O   0  0  0  0  0  0  0  0  0  0  0  0
  195.5120  169.4200  145.6070 N   0  0  0  0  0  0  0  0  0  0  0  0
  195.1540  168.6070  147.5750 C   0  0  0  0  0  2  0  0  0  0  0  0
  196.2080  169.4420  146.8870 C   0  0  0  0  0  2  0  0  0  0  0  0
  194.4660  168.6180  146.2310 C   0  0  0  0  0  2  0  0  0  0  0  0
  193.5930  172.7150  145.3100 O   0  0  0  0  0  0  0  0  0  0  0  0
  192.6460  176.1900  146.2330 C   0  0  0  0  0  3  0  0  0  0  0  0
  193.2580  176.1080  143.8920 C   0  0  0  0  0  3  0  0  0  0  0  0
  192.8290  176.8350  145.0060 C   0  0  0  0  0  3  0  0  0  0  0  0
  192.8930  174.8190  146.3460 C   0  0  0  0  0  3  0  0  0  0  0  0
  193.5050  174.7360  144.0040 C   0  0  0  0  0  3  0  0  0  0  0  0
  193.3250  174.0850  145.2280 C   0  0  0  0  0  0  0  0  0  0  0  0
  189.4870  176.2490  143.3750 C   0  0  0  0  0  2  0  0  0  0  0  0
  188.3560  177.8040  142.0380 C   0  0  0  0  0  2  0  0  0  0  0  0
  186.9020  178.0700  141.7400 C   0  0  0  0  0  2  0  0  0  0  0  0
  186.1450  177.0860  142.5990 C   0  0  1  0  0  3  0  0  0  0  0  0
  187.1720  176.5280  143.5710 C   0  0  0  0  0  2  0  0  0  0  0  0
  188.4260  177.2440  143.3790 N   0  0  0  0  0  0  0  0  0  0  0  0
  184.2000  178.5350  142.4900 O   0  0  0  0  0  1  0  0  0  0  0  0
  185.0190  177.7990  143.3570 C   0  0  2  0  0  3  0  0  0  0  0  0
  185.4910  178.5940  144.4260 O   0  0  0  0  0  0  0  0  0  0  0  0
  184.4340  178.8220  145.3240 C   0  0  0  0  0  2  0  0  0  0  0  0
  184.8970  178.5710  146.7490 C   0  0  2  0  0  3  0  0  0  0  0  0
  185.7880  179.5690  147.1460 O   0  0  0  0  0  1  0  0  0  0  0  0
  185.5500  177.2330  146.8460 C   0  0  0  0  0  0  0  0  0  0  0  0
  184.9060  176.1850  146.5710 O   0  0  0  0  0  0  0  0  0  0  0  0
  186.8650  177.1400  147.2820 O   0  0  0  0  0  1  0  0  0  0  0  0
  1  8  1  0  0  0  0
  2  9  2  0  0  0  0
  4  3  1  0  0  0  0
  5  4  1  0  0  0  0
  5 11  1  0  0  0  0
  6  9  1  0  0  0  0
  6  1  1  0  0  0  0
  7 26  1  6  0  0  0
  7  3  1  0  0  0  0
  8  5  1  0  0  0  0
  9 10  1  0  0  0  0
 10  4  2  0  0  0  0
 10  7  1  0  0  0  0
 12 11  1  1  0  0  0
 12 13  1  0  0  0  0
 12 19  1  0  0  0  0
 13 14  1  0  0  0  0
 14 15  1  0  0  0  0
 15 18  1  0  0  0  0
 15 17  1  0  0  0  0
 17 16  1  0  0  0  0
 18 16  1  0  0  0  0
 20 23  1  0  0  0  0
 21 24  2  0  0  0  0
 21 22  1  0  0  0  0
 22 20  2  0  0  0  0
 24 25  1  0  0  0  0
 25 19  1  0  0  0  0
 25 23  2  0  0  0  0
 26 31  1  0  0  0  0
 27 31  1  0  0  0  0
 28 27  1  0  0  0  0
 28 29  1  0  0  0  0
 29 33  1  1  0  0  0
 29 30  1  0  0  0  0
 31 30  1  0  0  0  0
 33 32  1  6  0  0  0
 33 34  1  0  0  0  0
 34 35  1  0  0  0  0
 35 36  1  0  0  0  0
 36 38  1  0  0  0  0
 36 37  1  6  0  0  0
 38 40  1  0  0  0  0
 39 38  2  0  0  0  0
M  END
>  <MODEL>
3

>  <REMARK>
 VINA RESULT:      -6.8      2.389      3.029
  Name = 
  14 active torsions:
  status: ('A' for Active; 'I' for Inactive)
    1  A    between atoms: O_1  and  C_34
    2  A    between atoms: O_1  and  C_35
    3  A    between atoms: C_2  and  C_7
    4  A    between atoms: O_3  and  N_8
    5  A    between atoms: O_3  and  C_17
    6  A    between atoms: C_7  and  C_35
    7  A    between atoms: C_17  and  C_21
    8  A    between atoms: C_18  and  O_36
    9  A    between atoms: C_21  and  C_23
   10  A    between atoms: C_21  and  O_36
   11  A    between atoms: C_23  and  N_27
   12  A    between atoms: C_24  and  C_30
   13  A    between atoms: C_24  and  N_40
   14  A    between atoms: C_26  and  C_34
                            x       y       z     vdW  Elec       q    Type
                         _______ _______ _______ _____ _____    ______ ____

>  <TORSDO>
F 14

$$$$
=
 OpenBabel11062419293D

 40 44  0  0  1  0  0  0  0  0999 V2000
  192.2670  176.0880  147.2170 C   0  0  0  0  0  2  0  0  0  0  0  0
  188.8340  177.4000  146.6790 N   0  0  0  0  0  2  0  0  0  0  0  0
  191.1730  176.8650  143.0770 C   0  0  0  0  0  2  0  0  0  0  0  0
  191.5530  176.3330  144.4160 C   0  0  0  0  0  0  0  0  0  0  0  0
  192.5920  175.5320  144.9740 N   0  0  0  0  0  0  0  0  0  0  0  0
  190.8510  176.4170  147.4130 N   0  0  0  0  0  2  0  0  0  0  0  0
  190.0070  177.4500  143.6660 C   0  0  2  0  0  3  0  0  0  0  0  0
  192.4180  174.9900  146.2620 N   0  0  0  0  0  2  0  0  0  0  0  0
  190.0020  176.9400  146.3810 C   0  0  0  0  0  0  0  0  0  0  0  0
  190.4500  176.9210  144.9890 C   0  0  0  0  0  0  0  0  0  0  0  0
  193.6980  175.0800  144.1450 C   0  0  0  0  0  2  0  0  0  0  0  0
  193.4530  173.6510  143.6760 C   0  0  2  0  0  3  0  0  0  0  0  0
  194.7790  172.9540  143.4250 C   0  0  0  0  0  2  0  0  0  0  0  0
  195.6210  173.1220  144.5280 O   0  0  0  0  0  0  0  0  0  0  0  0
  196.4850  172.0780  144.4670 N   0  0  0  0  0  0  0  0  0  0  0  0
  196.1970  170.5940  146.0090 C   0  0  0  0  0  2  0  0  0  0  0  0
  196.9910  171.8650  145.8170 C   0  0  0  0  0  2  0  0  0  0  0  0
  195.6950  170.8600  144.6100 C   0  0  0  0  0  2  0  0  0  0  0  0
  192.6840  173.6670  142.4790 O   0  0  0  0  0  0  0  0  0  0  0  0
  189.1860  173.2270  141.2970 C   0  0  0  0  0  3  0  0  0  0  0  0
  189.4120  172.3130  143.5280 C   0  0  0  0  0  3  0  0  0  0  0  0
  188.6250  172.5860  142.4060 C   0  0  0  0  0  3  0  0  0  0  0  0
  190.5340  173.5950  141.3110 C   0  0  0  0  0  3  0  0  0  0  0  0
  190.7610  172.6820  143.5430 C   0  0  0  0  0  3  0  0  0  0  0  0
  191.3290  173.3230  142.4380 C   0  0  0  0  0  0  0  0  0  0  0  0
  188.7490  176.7200  143.2050 C   0  0  0  0  0  2  0  0  0  0  0  0
  187.5790  178.2100  141.8300 C   0  0  0  0  0  2  0  0  0  0  0  0
  186.1270  178.3760  141.4590 C   0  0  0  0  0  2  0  0  0  0  0  0
  185.4000  177.3260  142.2650 C   0  0  1  0  0  3  0  0  0  0  0  0
  186.4140  176.8280  143.2820 C   0  0  0  0  0  2  0  0  0  0  0  0
  187.6210  177.6360  143.1650 N   0  0  0  0  0  0  0  0  0  0  0  0
  183.1830  178.2930  142.0590 O   0  0  0  0  0  1  0  0  0  0  0  0
  184.1880  177.9440  142.9710 C   0  0  2  0  0  3  0  0  0  0  0  0
  184.5310  179.0310  143.8070 O   0  0  0  0  0  0  0  0  0  0  0  0
  183.9410  178.8390  145.0680 C   0  0  0  0  0  2  0  0  0  0  0  0
  184.9680  179.0630  146.1640 C   0  0  2  0  0  3  0  0  0  0  0  0
  186.1660  179.5200  145.6110 O   0  0  0  0  0  1  0  0  0  0  0  0
  185.2010  177.7950  146.9150 C   0  0  0  0  0  0  0  0  0  0  0  0
  184.8370  176.6900  146.4320 O   0  0  0  0  0  0  0  0  0  0  0  0
  185.7870  177.8400  148.1730 O   0  0  0  0  0  1  0  0  0  0  0  0
  1  6  1  0  0  0  0
  3  7  1  0  0  0  0
  3  4  1  0  0  0  0
  4  5  1  0  0  0  0
  4 10  2  0  0  0  0
  5  8  1  0  0  0  0
  7 26  1  6  0  0  0
  7 10  1  0  0  0  0
  8  1  1  0  0  0  0
  9  2  2  0  0  0  0
  9  6  1  0  0  0  0
 10  9  1  0  0  0  0
 11  5  1  0  0  0  0
 12 13  1  6  0  0  0
 12 11  1  0  0  0  0
 13 14  1  0  0  0  0
 15 14  1  0  0  0  0
 15 18  1  0  0  0  0
 15 17  1  0  0  0  0
 17 16  1  0  0  0  0
 18 16  1  0  0  0  0
 19 12  1  0  0  0  0
 20 23  2  0  0  0  0
 20 22  1  0  0  0  0
 21 24  1  0  0  0  0
 22 21  2  0  0  0  0
 23 25  1  0  0  0  0
 25 19  1  0  0  0  0
 25 24  2  0  0  0  0
 27 31  1  0  0  0  0
 28 27  1  0  0  0  0
 28 29  1  0  0  0  0
 29 33  1  1  0  0  0
 29 30  1  0  0  0  0
 31 26  1  0  0  0  0
 31 30  1  0  0  0  0
 33 32  1  6  0  0  0
 33 34  1  0  0  0  0
 34 35  1  0  0  0  0
 35 36  1  0  0  0  0
 36 37  1  6  0  0  0
 36 38  1  0  0  0  0
 38 40  1  0  0  0  0
 39 38  2  0  0  0  0
M  END
>  <MODEL>
4

>  <REMARK>
 VINA RESULT:      -6.8      2.295      3.617
  Name = 
  14 active torsions:
  status: ('A' for Active; 'I' for Inactive)
    1  A    between atoms: O_1  and  C_34
    2  A    between atoms: O_1  and  C_35
    3  A    between atoms: C_2  and  C_7
    4  A    between atoms: O_3  and  N_8
    5  A    between atoms: O_3  and  C_17
    6  A    between atoms: C_7  and  C_35
    7  A    between atoms: C_17  and  C_21
    8  A    between atoms: C_18  and  O_36
    9  A    between atoms: C_21  and  C_23
   10  A    between atoms: C_21  and  O_36
   11  A    between atoms: C_23  and  N_27
   12  A    between atoms: C_24  and  C_30
   13  A    between atoms: C_24  and  N_40
   14  A    between atoms: C_26  and  C_34
                            x       y       z     vdW  Elec       q    Type
                         _______ _______ _______ _____ _____    ______ ____

>  <TORSDO>
F 14

$$$$
=
 OpenBabel11062419293D

 40 44  0  0  1  0  0  0  0  0999 V2000
  189.5150  172.3420  139.8000 C   0  0  0  0  0  2  0  0  0  0  0  0
  187.5970  175.2980  138.6270 N   0  0  0  0  0  2  0  0  0  0  0  0
  188.3040  175.1510  142.8950 C   0  0  0  0  0  2  0  0  0  0  0  0
  188.9760  174.2710  141.8980 C   0  0  0  0  0  0  0  0  0  0  0  0
  189.9780  173.2580  141.8950 N   0  0  0  0  0  0  0  0  0  0  0  0
  188.9580  173.3970  138.9450 N   0  0  0  0  0  2  0  0  0  0  0  0
  187.5630  175.7540  141.8290 C   0  0  2  0  0  3  0  0  0  0  0  0
  190.5610  172.8770  140.6710 N   0  0  0  0  0  2  0  0  0  0  0  0
  188.2330  174.5300  139.4450 C   0  0  0  0  0  0  0  0  0  0  0  0
  188.2420  174.8280  140.8770 C   0  0  0  0  0  0  0  0  0  0  0  0
  190.5630  172.7990  143.1460 C   0  0  0  0  0  2  0  0  0  0  0  0
  191.9480  173.4050  143.3310 C   0  0  2  0  0  3  0  0  0  0  0  0
  192.9590  172.3080  143.6200 C   0  0  0  0  0  2  0  0  0  0  0  0
  193.9120  172.2610  142.5980 O   0  0  0  0  0  0  0  0  0  0  0  0
  195.0950  172.5070  143.2150 N   0  0  0  0  0  0  0  0  0  0  0  0
  196.2130  170.7340  143.7310 C   0  0  0  0  0  2  0  0  0  0  0  0
  195.1660  171.6180  144.3670 C   0  0  0  0  0  2  0  0  0  0  0  0
  196.0990  171.6780  142.5580 C   0  0  0  0  0  2  0  0  0  0  0  0
  191.9230  174.3300  144.4120 O   0  0  0  0  0  0  0  0  0  0  0  0
  191.3940  177.7380  143.0210 C   0  0  0  0  0  3  0  0  0  0  0  0
  190.2780  177.5510  145.1620 C   0  0  0  0  0  3  0  0  0  0  0  0
  190.6140  178.3040  144.0330 C   0  0  0  0  0  3  0  0  0  0  0  0
  191.8390  176.4180  143.1380 C   0  0  0  0  0  3  0  0  0  0  0  0
  190.7240  176.2300  145.2790 C   0  0  0  0  0  3  0  0  0  0  0  0
  191.5050  175.6570  144.2710 C   0  0  0  0  0  0  0  0  0  0  0  0
  188.0340  177.1860  141.5920 C   0  0  0  0  0  2  0  0  0  0  0  0
  185.7600  177.5850  141.2040 C   0  0  0  0  0  2  0  0  0  0  0  0
  184.5860  177.9150  142.0920 C   0  0  0  0  0  2  0  0  0  0  0  0
  185.1720  178.0330  143.4780 C   0  0  1  0  0  3  0  0  0  0  0  0
  186.6780  178.0790  143.2760 C   0  0  0  0  0  2  0  0  0  0  0  0
  186.9500  178.1220  141.8450 N   0  0  0  0  0  0  0  0  0  0  0  0
  185.6720  180.3080  144.1630 O   0  0  0  0  0  1  0  0  0  0  0  0
  184.6800  179.3180  144.1550 C   0  0  2  0  0  3  0  0  0  0  0  0
  184.1570  179.0950  145.4480 O   0  0  0  0  0  0  0  0  0  0  0  0
  184.5890  177.8380  145.9040 C   0  0  0  0  0  2  0  0  0  0  0  0
  185.4240  177.9990  147.1630 C   0  0  2  0  0  3  0  0  0  0  0  0
  185.5300  179.3500  147.4980 O   0  0  0  0  0  1  0  0  0  0  0  0
  186.7800  177.4150  146.9550 C   0  0  0  0  0  0  0  0  0  0  0  0
  186.9210  176.3310  146.3290 O   0  0  0  0  0  0  0  0  0  0  0  0
  187.8920  178.0510  147.4910 O   0  0  0  0  0  1  0  0  0  0  0  0
  1  8  1  0  0  0  0
  2  9  2  0  0  0  0
  4  3  1  0  0  0  0
  5  4  1  0  0  0  0
  5 11  1  0  0  0  0
  6  9  1  0  0  0  0
  6  1  1  0  0  0  0
  7 26  1  6  0  0  0
  7  3  1  0  0  0  0
  8  5  1  0  0  0  0
  9 10  1  0  0  0  0
 10  7  1  0  0  0  0
 10  4  2  0  0  0  0
 12 11  1  1  0  0  0
 12 13  1  0  0  0  0
 12 19  1  0  0  0  0
 14 15  1  0  0  0  0
 14 13  1  0  0  0  0
 15 17  1  0  0  0  0
 16 17  1  0  0  0  0
 18 15  1  0  0  0  0
 18 16  1  0  0  0  0
 20 23  2  0  0  0  0
 20 22  1  0  0  0  0
 21 24  1  0  0  0  0
 22 21  2  0  0  0  0
 23 25  1  0  0  0  0
 25 19  1  0  0  0  0
 25 24  2  0  0  0  0
 26 31  1  0  0  0  0
 27 31  1  0  0  0  0
 27 28  1  0  0  0  0
 28 29  1  0  0  0  0
 29 33  1  6  0  0  0
 30 29  1  0  0  0  0
 31 30  1  0  0  0  0
 33 32  1  1  0  0  0
 33 34  1  0  0  0  0
 34 35  1  0  0  0  0
 35 36  1  0  0  0  0
 36 37  1  6  0  0  0
 38 36  1  0  0  0  0
 38 40  1  0  0  0  0
 39 38  2  0  0  0  0
M  END
>  <MODEL>
5

>  <REMARK>
 VINA RESULT:      -6.7      1.958      2.589
  Name = 
  14 active torsions:
  status: ('A' for Active; 'I' for Inactive)
    1  A    between atoms: O_1  and  C_34
    2  A    between atoms: O_1  and  C_35
    3  A    between atoms: C_2  and  C_7
    4  A    between atoms: O_3  and  N_8
    5  A    between atoms: O_3  and  C_17
    6  A    between atoms: C_7  and  C_35
    7  A    between atoms: C_17  and  C_21
    8  A    between atoms: C_18  and  O_36
    9  A    between atoms: C_21  and  C_23
   10  A    between atoms: C_21  and  O_36
   11  A    between atoms: C_23  and  N_27
   12  A    between atoms: C_24  and  C_30
   13  A    between atoms: C_24  and  N_40
   14  A    between atoms: C_26  and  C_34
                            x       y       z     vdW  Elec       q    Type
                         _______ _______ _______ _____ _____    ______ ____

>  <TORSDO>
F 14

$$$$
=
 OpenBabel11062419293D

 40 44  0  0  1  0  0  0  0  0999 V2000
  188.7750  173.1020  140.2680 C   0  0  0  0  0  2  0  0  0  0  0  0
  191.8000  171.3950  141.5840 N   0  0  0  0  0  2  0  0  0  0  0  0
  191.4560  175.5790  142.6380 C   0  0  0  0  0  2  0  0  0  0  0  0
  190.3600  174.7690  142.0360 C   0  0  0  0  0  0  0  0  0  0  0  0
  188.9920  174.9480  141.6780 N   0  0  0  0  0  0  0  0  0  0  0  0
  189.7090  172.0630  140.7160 N   0  0  0  0  0  2  0  0  0  0  0  0
  192.3090  174.4320  142.5730 C   0  0  2  0  0  3  0  0  0  0  0  0
  188.2020  173.8140  141.4100 N   0  0  0  0  0  2  0  0  0  0  0  0
  190.9350  172.3370  141.4090 C   0  0  0  0  0  0  0  0  0  0  0  0
  191.1890  173.6750  141.9430 C   0  0  0  0  0  0  0  0  0  0  0  0
  188.3590  176.2500  141.8240 C   0  0  0  0  0  2  0  0  0  0  0  0
  187.5850  176.3140  143.1340 C   0  0  2  0  0  3  0  0  0  0  0  0
  186.2110  176.9150  142.8950 C   0  0  0  0  0  2  0  0  0  0  0  0
  185.5390  177.0610  144.1120 O   0  0  0  0  0  0  0  0  0  0  0  0
  185.4860  178.4010  144.3210 N   0  0  0  0  0  0  0  0  0  0  0  0
  184.0390  179.0130  145.8020 C   0  0  0  0  0  2  0  0  0  0  0  0
  184.0790  178.7770  144.3100 C   0  0  0  0  0  2  0  0  0  0  0  0
  185.4940  178.6090  145.7640 C   0  0  0  0  0  2  0  0  0  0  0  0
  188.3010  177.1100  144.0720 O   0  0  0  0  0  0  0  0  0  0  0  0
  190.6130  176.7880  146.9660 C   0  0  0  0  0  3  0  0  0  0  0  0
  189.6490  174.6280  146.4510 C   0  0  0  0  0  3  0  0  0  0  0  0
  190.4910  175.4220  147.2350 C   0  0  0  0  0  3  0  0  0  0  0  0
  189.8930  177.3610  145.9140 C   0  0  0  0  0  3  0  0  0  0  0  0
  188.9280  175.2000  145.3980 C   0  0  0  0  0  3  0  0  0  0  0  0
  189.0450  176.5660  145.1240 C   0  0  0  0  0  0  0  0  0  0  0  0
  192.5880  173.8900  143.9710 C   0  0  0  0  0  2  0  0  0  0  0  0
  194.1540  173.6250  145.6910 C   0  0  0  0  0  2  0  0  0  0  0  0
  195.5740  173.1200  145.7480 C   0  0  0  0  0  2  0  0  0  0  0  0
  195.9340  172.8150  144.3130 C   0  0  1  0  0  3  0  0  0  0  0  0
  194.8320  173.4490  143.4800 C   0  0  0  0  0  2  0  0  0  0  0  0
  193.9520  174.1960  144.3690 N   0  0  0  0  0  0  0  0  0  0  0  0
  197.8530  174.1000  145.0610 O   0  0  0  0  0  1  0  0  0  0  0  0
  197.2940  173.4300  143.9650 C   0  0  2  0  0  3  0  0  0  0  0  0
  197.2490  174.2550  142.8180 O   0  0  0  0  0  0  0  0  0  0  0  0
  197.8980  175.4690  143.1050 C   0  0  0  0  0  2  0  0  0  0  0  0
  196.9660  176.6360  142.8290 C   0  0  2  0  0  3  0  0  0  0  0  0
  196.0640  176.7890  143.8830 O   0  0  0  0  0  1  0  0  0  0  0  0
  196.2290  176.4110  141.5510 C   0  0  0  0  0  0  0  0  0  0  0  0
  194.9690  176.4290  141.5280 O   0  0  0  0  0  1  0  0  0  0  0  0
  196.9370  176.1410  140.3880 O   0  0  0  0  0  0  0  0  0  0  0  0
  1  6  1  0  0  0  0
  1  8  1  0  0  0  0
  4  3  1  0  0  0  0
  5 11  1  0  0  0  0
  5  4  1  0  0  0  0
  6  9  1  0  0  0  0
  7  3  1  0  0  0  0
  7 26  1  1  0  0  0
  8  5  1  0  0  0  0
  9  2  2  0  0  0  0
  9 10  1  0  0  0  0
 10  4  2  0  0  0  0
 10  7  1  0  0  0  0
 12 11  1  6  0  0  0
 12 19  1  0  0  0  0
 13 12  1  0  0  0  0
 13 14  1  0  0  0  0
 14 15  1  0  0  0  0
 15 18  1  0  0  0  0
 17 15  1  0  0  0  0
 17 16  1  0  0  0  0
 18 16  1  0  0  0  0
 19 25  1  0  0  0  0
 20 22  1  0  0  0  0
 21 22  2  0  0  0  0
 23 20  2  0  0  0  0
 24 21  1  0  0  0  0
 25 24  2  0  0  0  0
 25 23  1  0  0  0  0
 26 31  1  0  0  0  0
 27 28  1  0  0  0  0
 29 33  1  6  0  0  0
 29 28  1  0  0  0  0
 30 29  1  0  0  0  0
 30 31  1  0  0  0  0
 31 27  1  0  0  0  0
 33 32  1  1  0  0  0
 34 35  1  0  0  0  0
 34 33  1  0  0  0  0
 36 35  1  0  0  0  0
 36 37  1  1  0  0  0
 38 36  1  0  0  0  0
 39 38  1  0  0  0  0
 40 38  2  0  0  0  0
M  END
>  <MODEL>
6

>  <REMARK>
 VINA RESULT:      -6.6      2.008      8.713
  Name = 
  14 active torsions:
  status: ('A' for Active; 'I' for Inactive)
    1  A    between atoms: O_1  and  C_34
    2  A    between atoms: O_1  and  C_35
    3  A    between atoms: C_2  and  C_7
    4  A    between atoms: O_3  and  N_8
    5  A    between atoms: O_3  and  C_17
    6  A    between atoms: C_7  and  C_35
    7  A    between atoms: C_17  and  C_21
    8  A    between atoms: C_18  and  O_36
    9  A    between atoms: C_21  and  C_23
   10  A    between atoms: C_21  and  O_36
   11  A    between atoms: C_23  and  N_27
   12  A    between atoms: C_24  and  C_30
   13  A    between atoms: C_24  and  N_40
   14  A    between atoms: C_26  and  C_34
                            x       y       z     vdW  Elec       q    Type
                         _______ _______ _______ _____ _____    ______ ____

>  <TORSDO>
F 14

$$$$
=
 OpenBabel11062419293D

 40 44  0  0  1  0  0  0  0  0999 V2000
  190.7290  173.4320  141.5750 C   0  0  0  0  0  2  0  0  0  0  0  0
  187.4250  175.0370  141.0270 N   0  0  0  0  0  2  0  0  0  0  0  0
  190.1850  177.3150  143.4620 C   0  0  0  0  0  2  0  0  0  0  0  0
  190.5590  176.1170  142.6600 C   0  0  0  0  0  0  0  0  0  0  0  0
  191.7430  175.3850  142.3510 N   0  0  0  0  0  0  0  0  0  0  0  0
  189.4230  173.7810  141.0050 N   0  0  0  0  0  2  0  0  0  0  0  0
  188.8310  177.1540  143.0280 C   0  0  2  0  0  3  0  0  0  0  0  0
  191.7190  174.4680  141.2820 N   0  0  0  0  0  2  0  0  0  0  0  0
  188.6470  174.9140  141.4220 C   0  0  0  0  0  0  0  0  0  0  0  0
  189.2530  175.9420  142.2680 C   0  0  0  0  0  0  0  0  0  0  0  0
  193.0120  175.7490  142.9590 C   0  0  0  0  0  2  0  0  0  0  0  0
  193.2770  174.8810  144.1830 C   0  0  2  0  0  3  0  0  0  0  0  0
  192.8350  175.6100  145.4400 C   0  0  0  0  0  2  0  0  0  0  0  0
  191.9680  174.8000  146.1790 O   0  0  0  0  0  0  0  0  0  0  0  0
  190.8060  175.4970  146.2350 N   0  0  0  0  0  0  0  0  0  0  0  0
  189.2780  174.5800  147.4550 C   0  0  0  0  0  2  0  0  0  0  0  0
  189.7270  174.5440  146.0130 C   0  0  0  0  0  2  0  0  0  0  0  0
  190.4130  175.5590  147.6390 C   0  0  0  0  0  2  0  0  0  0  0  0
  194.6660  174.5820  144.2640 O   0  0  0  0  0  0  0  0  0  0  0  0
  196.6680  171.4670  143.9210 C   0  0  0  0  0  3  0  0  0  0  0  0
  195.0880  171.2230  145.7400 C   0  0  0  0  0  3  0  0  0  0  0  0
  196.1160  170.6990  144.9510 C   0  0  0  0  0  3  0  0  0  0  0  0
  196.1910  172.7590  143.6800 C   0  0  0  0  0  3  0  0  0  0  0  0
  194.6100  172.5150  145.4990 C   0  0  0  0  0  3  0  0  0  0  0  0
  195.1570  173.2890  144.4700 C   0  0  0  0  0  0  0  0  0  0  0  0
  188.4400  178.2690  142.0620 C   0  0  0  0  0  2  0  0  0  0  0  0
  186.2390  178.2700  141.2640 C   0  0  0  0  0  2  0  0  0  0  0  0
  184.9040  177.9130  141.8680 C   0  0  0  0  0  2  0  0  0  0  0  0
  185.2120  177.5540  143.3020 C   0  0  1  0  0  3  0  0  0  0  0  0
  186.6400  178.0210  143.5350 C   0  0  0  0  0  2  0  0  0  0  0  0
  187.0920  178.7340  142.3470 N   0  0  0  0  0  0  0  0  0  0  0  0
  183.3310  179.0690  143.5440 O   0  0  0  0  0  1  0  0  0  0  0  0
  184.2470  178.2770  144.2490 C   0  0  2  0  0  3  0  0  0  0  0  0
  184.9110  179.0180  145.2530 O   0  0  0  0  0  0  0  0  0  0  0  0
  184.4030  178.6410  146.5080 C   0  0  0  0  0  2  0  0  0  0  0  0
  185.5170  178.6270  147.5390 C   0  0  2  0  0  3  0  0  0  0  0  0
  186.0920  179.8940  147.6410 O   0  0  0  0  0  1  0  0  0  0  0  0
  186.5540  177.6230  147.1580 C   0  0  0  0  0  0  0  0  0  0  0  0
  187.7790  177.9070  147.2380 O   0  0  0  0  0  1  0  0  0  0  0  0
  186.1630  176.3810  146.6750 O   0  0  0  0  0  0  0  0  0  0  0  0
  2  9  2  0  0  0  0
  4  3  1  0  0  0  0
  5  4  1  0  0  0  0
  5 11  1  0  0  0  0
  6  9  1  0  0  0  0
  6  1  1  0  0  0  0
  7 26  1  6  0  0  0
  7  3  1  0  0  0  0
  8  1  1  0  0  0  0
  8  5  1  0  0  0  0
  9 10  1  0  0  0  0
 10  4  2  0  0  0  0
 10  7  1  0  0  0  0
 12 11  1  6  0  0  0
 12 19  1  0  0  0  0
 12 13  1  0  0  0  0
 13 14  1  0  0  0  0
 14 15  1  0  0  0  0
 15 18  1  0  0  0  0
 16 18  1  0  0  0  0
 17 15  1  0  0  0  0
 17 16  1  0  0  0  0
 19 25  1  0  0  0  0
 20 22  1  0  0  0  0
 22 21  2  0  0  0  0
 23 20  2  0  0  0  0
 23 25  1  0  0  0  0
 24 21  1  0  0  0  0
 25 24  2  0  0  0  0
 26 31  1  0  0  0  0
 27 28  1  0  0  0  0
 27 31  1  0  0  0  0
 28 29  1  0  0  0  0
 29 30  1  0  0  0  0
 29 33  1  1  0  0  0
 31 30  1  0  0  0  0
 33 32  1  6  0  0  0
 33 34  1  0  0  0  0
 34 35  1  0  0  0  0
 35 36  1  0  0  0  0
 36 37  1  6  0  0  0
 38 39  1  0  0  0  0
 38 36  1  0  0  0  0
 40 38  2  0  0  0  0
M  END
>  <MODEL>
7

>  <REMARK>
 VINA RESULT:      -6.6      1.720      3.610
  Name = 
  14 active torsions:
  status: ('A' for Active; 'I' for Inactive)
    1  A    between atoms: O_1  and  C_34
    2  A    between atoms: O_1  and  C_35
    3  A    between atoms: C_2  and  C_7
    4  A    between atoms: O_3  and  N_8
    5  A    between atoms: O_3  and  C_17
    6  A    between atoms: C_7  and  C_35
    7  A    between atoms: C_17  and  C_21
    8  A    between atoms: C_18  and  O_36
    9  A    between atoms: C_21  and  C_23
   10  A    between atoms: C_21  and  O_36
   11  A    between atoms: C_23  and  N_27
   12  A    between atoms: C_24  and  C_30
   13  A    between atoms: C_24  and  N_40
   14  A    between atoms: C_26  and  C_34
                            x       y       z     vdW  Elec       q    Type
                         _______ _______ _______ _____ _____    ______ ____

>  <TORSDO>
F 14

$$$$
=
 OpenBabel11062419293D

 40 44  0  0  1  0  0  0  0  0999 V2000
  190.8930  170.8240  141.5410 C   0  0  0  0  0  2  0  0  0  0  0  0
  188.3410  172.8180  139.7230 N   0  0  0  0  0  2  0  0  0  0  0  0
  189.3300  174.2790  143.6760 C   0  0  0  0  0  2  0  0  0  0  0  0
  190.1040  173.2380  142.9440 C   0  0  0  0  0  0  0  0  0  0  0  0
  191.2900  172.4730  143.1440 N   0  0  0  0  0  0  0  0  0  0  0  0
  190.0800  171.4060  140.4680 N   0  0  0  0  0  2  0  0  0  0  0  0
  188.4160  174.3410  142.5760 C   0  0  2  0  0  3  0  0  0  0  0  0
  191.8600  171.7980  142.0470 N   0  0  0  0  0  2  0  0  0  0  0  0
  189.1710  172.5010  140.6590 C   0  0  0  0  0  0  0  0  0  0  0  0
  189.2090  173.2720  141.9000 C   0  0  0  0  0  0  0  0  0  0  0  0
  192.0340  172.5820  144.3890 C   0  0  0  0  0  2  0  0  0  0  0  0
  193.1620  173.5940  144.2400 C   0  0  2  0  0  3  0  0  0  0  0  0
  194.5010  172.9160  144.4780 C   0  0  0  0  0  2  0  0  0  0  0  0
  195.4710  173.4770  143.6430 O   0  0  0  0  0  0  0  0  0  0  0  0
  196.1860  174.3030  144.4480 N   0  0  0  0  0  0  0  0  0  0  0  0
  197.7620  175.3800  143.4400 C   0  0  0  0  0  2  0  0  0  0  0  0
  197.5940  174.0630  144.1600 C   0  0  0  0  0  2  0  0  0  0  0  0
  196.2990  175.5810  143.7560 C   0  0  0  0  0  2  0  0  0  0  0  0
  192.9840  174.6480  145.1800 O   0  0  0  0  0  0  0  0  0  0  0  0
  191.3990  177.5530  143.4850 C   0  0  0  0  0  3  0  0  0  0  0  0
  190.4660  177.2970  145.7040 C   0  0  0  0  0  3  0  0  0  0  0  0
  190.5180  177.9770  144.4840 C   0  0  0  0  0  3  0  0  0  0  0  0
  192.2270  176.4500  143.7060 C   0  0  0  0  0  3  0  0  0  0  0  0
  191.2950  176.1930  145.9260 C   0  0  0  0  0  3  0  0  0  0  0  0
  192.1780  175.7640  144.9310 C   0  0  0  0  0  0  0  0  0  0  0  0
  188.5680  175.6600  141.8240 C   0  0  0  0  0  2  0  0  0  0  0  0
  187.9510  177.9150  141.6970 C   0  0  0  0  0  2  0  0  0  0  0  0
  186.6470  178.6560  141.8570 C   0  0  0  0  0  2  0  0  0  0  0  0
  185.6410  177.5930  142.2290 C   0  0  1  0  0  3  0  0  0  0  0  0
  186.4650  176.3620  142.5700 C   0  0  0  0  0  2  0  0  0  0  0  0
  187.8760  176.7250  142.5310 N   0  0  0  0  0  0  0  0  0  0  0  0
  183.4940  178.3380  143.0830 O   0  0  0  0  0  1  0  0  0  0  0  0
  184.8170  178.0420  143.4410 C   0  0  2  0  0  3  0  0  0  0  0  0
  185.4140  179.1090  144.1490 O   0  0  0  0  0  0  0  0  0  0  0  0
  185.1420  178.9540  145.5200 C   0  0  0  0  0  2  0  0  0  0  0  0
  185.3000  177.4980  145.9210 C   0  0  2  0  0  3  0  0  0  0  0  0
  184.3490  177.1620  146.8860 O   0  0  0  0  0  1  0  0  0  0  0  0
  186.6740  177.2600  146.4510 C   0  0  0  0  0  0  0  0  0  0  0  0
  187.2170  178.0950  147.2230 O   0  0  0  0  0  1  0  0  0  0  0  0
  187.3750  176.1270  146.0580 O   0  0  0  0  0  0  0  0  0  0  0  0
  1  8  1  0  0  0  0
  2  9  2  0  0  0  0
  4  5  1  0  0  0  0
  4  3  1  0  0  0  0
  5 11  1  0  0  0  0
  6  9  1  0  0  0  0
  6  1  1  0  0  0  0
  7 26  1  6  0  0  0
  7  3  1  0  0  0  0
  8  5  1  0  0  0  0
  9 10  1  0  0  0  0
 10  7  1  0  0  0  0
 10  4  2  0  0  0  0
 12 11  1  1  0  0  0
 12 13  1  0  0  0  0
 12 19  1  0  0  0  0
 14 15  1  0  0  0  0
 14 13  1  0  0  0  0
 16 18  1  0  0  0  0
 16 17  1  0  0  0  0
 17 15  1  0  0  0  0
 18 15  1  0  0  0  0
 20 23  2  0  0  0  0
 20 22  1  0  0  0  0
 21 24  1  0  0  0  0
 22 21  2  0  0  0  0
 23 25  1  0  0  0  0
 25 19  1  0  0  0  0
 25 24  2  0  0  0  0
 26 31  1  0  0  0  0
 27 28  1  0  0  0  0
 27 31  1  0  0  0  0
 28 29  1  0  0  0  0
 29 30  1  0  0  0  0
 29 33  1  1  0  0  0
 31 30  1  0  0  0  0
 33 32  1  6  0  0  0
 33 34  1  0  0  0  0
 34 35  1  0  0  0  0
 35 36  1  0  0  0  0
 36 38  1  0  0  0  0
 36 37  1  1  0  0  0
 38 39  1  0  0  0  0
 40 38  2  0  0  0  0
M  END
>  <MODEL>
8

>  <REMARK>
 VINA RESULT:      -6.6      1.519      2.090
  Name = 
  14 active torsions:
  status: ('A' for Active; 'I' for Inactive)
    1  A    between atoms: O_1  and  C_34
    2  A    between atoms: O_1  and  C_35
    3  A    between atoms: C_2  and  C_7
    4  A    between atoms: O_3  and  N_8
    5  A    between atoms: O_3  and  C_17
    6  A    between atoms: C_7  and  C_35
    7  A    between atoms: C_17  and  C_21
    8  A    between atoms: C_18  and  O_36
    9  A    between atoms: C_21  and  C_23
   10  A    between atoms: C_21  and  O_36
   11  A    between atoms: C_23  and  N_27
   12  A    between atoms: C_24  and  C_30
   13  A    between atoms: C_24  and  N_40
   14  A    between atoms: C_26  and  C_34
                            x       y       z     vdW  Elec       q    Type
                         _______ _______ _______ _____ _____    ______ ____

>  <TORSDO>
F 14

$$$$
=
 OpenBabel11062419293D

 40 44  0  0  1  0  0  0  0  0999 V2000
  192.4680  175.9050  146.9820 C   0  0  0  0  0  2  0  0  0  0  0  0
  189.1820  177.5470  146.4360 N   0  0  0  0  0  2  0  0  0  0  0  0
  190.9620  175.7950  142.9010 C   0  0  0  0  0  2  0  0  0  0  0  0
  191.4400  175.5580  144.2920 C   0  0  0  0  0  0  0  0  0  0  0  0
  192.4360  174.7720  144.9430 N   0  0  0  0  0  0  0  0  0  0  0  0
  191.1400  176.4820  147.2140 N   0  0  0  0  0  2  0  0  0  0  0  0
  189.9600  176.6760  143.4200 C   0  0  2  0  0  3  0  0  0  0  0  0
  192.3620  174.5960  146.3380 N   0  0  0  0  0  2  0  0  0  0  0  0
  190.2370  176.8560  146.1630 C   0  0  0  0  0  0  0  0  0  0  0  0
  190.4990  176.4290  144.7890 C   0  0  0  0  0  0  0  0  0  0  0  0
  193.3630  173.9670  144.1630 C   0  0  0  0  0  2  0  0  0  0  0  0
  194.7730  174.0990  144.7240 C   0  0  2  0  0  3  0  0  0  0  0  0
  195.3270  175.4790  144.4140 C   0  0  0  0  0  2  0  0  0  0  0  0
  195.0740  175.8030  143.0780 O   0  0  0  0  0  0  0  0  0  0  0  0
  196.0880  176.6310  142.7240 N   0  0  0  0  0  0  0  0  0  0  0  0
  197.6800  175.6690  141.6280 C   0  0  0  0  0  2  0  0  0  0  0  0
  197.3310  175.9540  143.0700 C   0  0  0  0  0  2  0  0  0  0  0  0
  196.3800  176.3730  141.3190 C   0  0  0  0  0  2  0  0  0  0  0  0
  195.6110  173.1050  144.1460 O   0  0  0  0  0  0  0  0  0  0  0  0
  197.6050  170.2370  145.4210 C   0  0  0  0  0  3  0  0  0  0  0  0
  195.3430  170.1000  146.2760 C   0  0  0  0  0  3  0  0  0  0  0  0
  196.6390  169.5830  146.1930 C   0  0  0  0  0  3  0  0  0  0  0  0
  197.2730  171.4070  144.7330 C   0  0  0  0  0  3  0  0  0  0  0  0
  195.0110  171.2700  145.5870 C   0  0  0  0  0  3  0  0  0  0  0  0
  195.9710  171.9290  144.8130 C   0  0  0  0  0  0  0  0  0  0  0  0
  188.5740  176.0530  143.2830 C   0  0  0  0  0  2  0  0  0  0  0  0
  187.8600  178.1350  142.4830 C   0  0  0  0  0  2  0  0  0  0  0  0
  186.5510  178.6610  141.9520 C   0  0  0  0  0  2  0  0  0  0  0  0
  185.5890  177.5040  142.0790 C   0  0  1  0  0  3  0  0  0  0  0  0
  186.2990  176.4860  142.9570 C   0  0  0  0  0  2  0  0  0  0  0  0
  187.5470  177.0730  143.4260 N   0  0  0  0  0  0  0  0  0  0  0  0
  183.2990  178.2540  141.7850 O   0  0  0  0  0  1  0  0  0  0  0  0
  184.2850  177.9680  142.7380 C   0  0  2  0  0  3  0  0  0  0  0  0
  184.4720  179.0470  143.6320 O   0  0  0  0  0  0  0  0  0  0  0  0
  184.0930  178.6390  144.9230 C   0  0  0  0  0  2  0  0  0  0  0  0
  185.1680  179.0190  145.9260 C   0  0  2  0  0  3  0  0  0  0  0  0
  186.2800  179.5410  145.2620 O   0  0  0  0  0  1  0  0  0  0  0  0
  185.5640  177.8250  146.7280 C   0  0  0  0  0  0  0  0  0  0  0  0
  185.4430  176.6650  146.2520 O   0  0  0  0  0  0  0  0  0  0  0  0
  186.0330  177.9940  148.0250 O   0  0  0  0  0  1  0  0  0  0  0  0
  1  6  1  0  0  0  0
  3  7  1  0  0  0  0
  3  4  1  0  0  0  0
  4 10  2  0  0  0  0
  4  5  1  0  0  0  0
  5  8  1  0  0  0  0
  7 26  1  1  0  0  0
  7 10  1  0  0  0  0
  8  1  1  0  0  0  0
  9  2  2  0  0  0  0
  9  6  1  0  0  0  0
 10  9  1  0  0  0  0
 11  5  1  0  0  0  0
 12 11  1  6  0  0  0
 13 12  1  0  0  0  0
 14 13  1  0  0  0  0
 15 17  1  0  0  0  0
 15 14  1  0  0  0  0
 16 17  1  0  0  0  0
 18 16  1  0  0  0  0
 18 15  1  0  0  0  0
 19 12  1  0  0  0  0
 19 25  1  0  0  0  0
 20 22  1  0  0  0  0
 22 21  2  0  0  0  0
 23 25  1  0  0  0  0
 23 20  2  0  0  0  0
 24 21  1  0  0  0  0
 25 24  2  0  0  0  0
 26 31  1  0  0  0  0
 27 31  1  0  0  0  0
 28 29  1  0  0  0  0
 28 27  1  0  0  0  0
 29 33  1  1  0  0  0
 29 30  1  0  0  0  0
 30 31  1  0  0  0  0
 33 32  1  6  0  0  0
 33 34  1  0  0  0  0
 34 35  1  0  0  0  0
 35 36  1  0  0  0  0
 36 37  1  6  0  0  0
 36 38  1  0  0  0  0
 38 40  1  0  0  0  0
 39 38  2  0  0  0  0
M  END
>  <MODEL>
9

>  <REMARK>
 VINA RESULT:      -6.5      2.460      4.150
  Name = 
  14 active torsions:
  status: ('A' for Active; 'I' for Inactive)
    1  A    between atoms: O_1  and  C_34
    2  A    between atoms: O_1  and  C_35
    3  A    between atoms: C_2  and  C_7
    4  A    between atoms: O_3  and  N_8
    5  A    between atoms: O_3  and  C_17
    6  A    between atoms: C_7  and  C_35
    7  A    between atoms: C_17  and  C_21
    8  A    between atoms: C_18  and  O_36
    9  A    between atoms: C_21  and  C_23
   10  A    between atoms: C_21  and  O_36
   11  A    between atoms: C_23  and  N_27
   12  A    between atoms: C_24  and  C_30
   13  A    between atoms: C_24  and  N_40
   14  A    between atoms: C_26  and  C_34
                            x       y       z     vdW  Elec       q    Type
                         _______ _______ _______ _____ _____    ______ ____

>  <TORSDO>
F 14

$$$$
