=
 OpenBabel11062422063D

 34 38  0  0  1  0  0  0  0  0999 V2000
  192.2670  176.3430  144.2080 N   0  0  0  0  0  2  0  0  0  0  0  0
  191.4750  178.3930  143.4640 O   0  0  0  0  0  0  0  0  0  0  0  0
  187.9960  175.3480  141.5640 C   0  0  0  0  0  3  0  0  0  0  0  0
  189.1300  177.3090  142.3620 C   0  0  0  0  0  3  0  0  0  0  0  0
  188.9510  174.5220  142.1700 C   0  0  0  0  0  0  0  0  0  0  0  0
  191.2910  177.1500  143.5620 C   0  0  0  0  0  0  0  0  0  0  0  0
  188.0530  176.7390  141.6800 C   0  0  0  0  0  0  0  0  0  0  0  0
  190.1060  176.5100  142.9690 C   0  0  0  0  0  0  0  0  0  0  0  0
  190.0010  175.0970  142.9390 C   0  0  0  0  0  0  0  0  0  0  0  0
  191.9190  175.0020  144.6430 C   0  0  0  0  0  2  0  0  0  0  0  0
  191.1060  174.2470  143.5830 C   0  0  1  0  0  3  0  0  0  0  0  0
  190.5880  173.0130  144.2520 C   0  0  0  0  0  0  0  0  0  0  0  0
  191.0130  171.7560  143.8360 O   0  0  0  0  0  0  0  0  0  0  0  0
  189.7430  173.1110  145.1790 O   0  0  0  0  0  1  0  0  0  0  0  0
  187.0490  177.5700  141.0630 N   0  0  0  0  0  0  0  0  0  0  0  0
  186.6050  177.3150  139.7010 C   0  0  0  0  0  1  0  0  0  0  0  0
  186.3810  178.6410  141.7950 C   0  0  0  0  0  2  0  0  0  0  0  0
  185.5630  178.0820  142.9540 C   0  0  0  0  0  2  0  0  0  0  0  0
  185.5700  180.0940  144.2120 O   0  0  0  0  0  0  0  0  0  0  0  0
  185.8110  178.8570  144.2060 C   0  0  0  0  0  0  0  0  0  0  0  0
  186.3020  178.1730  145.4230 C   0  0  0  0  0  0  0  0  0  0  0  0
  187.7180  177.7040  145.5840 C   0  0  1  0  0  3  0  0  0  0  0  0
  186.3640  177.2050  147.4690 N   0  0  0  0  0  2  0  0  0  0  0  0
  185.5920  177.8970  146.5090 C   0  0  0  0  0  0  0  0  0  0  0  0
  184.1450  178.1900  146.7160 C   0  0  0  0  0  1  0  0  0  0  0  0
  187.7320  177.0760  146.9790 C   0  0  1  0  0  3  0  0  0  0  0  0
  187.7860  176.1930  145.7430 C   0  0  0  0  0  2  0  0  0  0  0  0
  188.8880  173.0510  141.8700 C   0  0  0  0  0  2  0  0  0  0  0  0
  190.3710  172.1040  137.9810 C   0  0  0  0  0  3  0  0  0  0  0  0
  191.2810  172.3260  139.0170 C   0  0  0  0  0  3  0  0  0  0  0  0
  190.8010  172.6370  140.2900 C   0  0  0  0  0  3  0  0  0  0  0  0
  189.0340  172.1900  138.2170 N   0  0  0  0  0  0  0  0  0  0  0  0
  188.5470  172.4920  139.4510 C   0  0  0  0  0  3  0  0  0  0  0  0
  189.4250  172.7260  140.5130 C   0  0  0  0  0  0  0  0  0  0  0  0
  1 10  1  0  0  0  0
  2  6  2  0  0  0  0
  3  7  2  0  0  0  0
  3  5  1  0  0  0  0
  4  8  2  0  0  0  0
  5  9  2  0  0  0  0
  6  1  1  0  0  0  0
  7  4  1  0  0  0  0
  8  6  1  0  0  0  0
  9  8  1  0  0  0  0
  9 11  1  0  0  0  0
 11 12  1  1  0  0  0
 11 10  1  0  0  0  0
 12 14  1  0  0  0  0
 13 12  2  0  0  0  0
 15  7  1  0  0  0  0
 15 17  1  0  0  0  0
 16 15  1  0  0  0  0
 17 18  1  0  0  0  0
 18 20  1  0  0  0  0
 20 19  2  0  0  0  0
 20 21  1  0  0  0  0
 21 22  1  0  0  0  0
 21 24  2  0  0  0  0
 22 27  1  6  0  0  0
 22 26  1  0  0  0  0
 24 25  1  0  0  0  0
 24 23  1  0  0  0  0
 26 27  1  6  0  0  0
 26 23  1  0  0  0  0
 28  5  1  0  0  0  0
 29 32  2  0  0  0  0
 29 30  1  0  0  0  0
 30 31  2  0  0  0  0
 31 34  1  0  0  0  0
 32 33  1  0  0  0  0
 33 34  2  0  0  0  0
 34 28  1  0  0  0  0
M  END
>  <MODEL>
1

>  <REMARK>
 VINA RESULT:      -7.2      0.000      0.000
  Name = 
  8 active torsions:
  status: ('A' for Active; 'I' for Inactive)
    1  A    between atoms: C_3  and  C_10
    2  A    between atoms: C_3  and  C_32
    3  A    between atoms: C_5  and  N_25
    4  A    between atoms: C_5  and  C_34
    5  A    between atoms: C_8  and  C_14
    6  A    between atoms: C_14  and  C_34
    7  A    between atoms: C_15  and  C_30
    8  A    between atoms: C_22  and  N_25
                            x       y       z     vdW  Elec       q    Type
                         _______ _______ _______ _____ _____    ______ ____

>  <TORSDO>
F 8

$$$$
=
 OpenBabel11062422063D

 34 38  0  0  1  0  0  0  0  0999 V2000
  183.5620  179.0390  143.7660 N   0  0  0  0  0  2  0  0  0  0  0  0
  183.7060  177.9430  141.7260 O   0  0  0  0  0  0  0  0  0  0  0  0
  188.0390  176.5510  143.7950 C   0  0  0  0  0  3  0  0  0  0  0  0
  186.1000  176.6270  142.3790 C   0  0  0  0  0  3  0  0  0  0  0  0
  187.4430  177.4420  144.6960 C   0  0  0  0  0  0  0  0  0  0  0  0
  184.2070  178.1500  142.8640 C   0  0  0  0  0  0  0  0  0  0  0  0
  187.3680  176.1090  142.6520 C   0  0  0  0  0  0  0  0  0  0  0  0
  185.4830  177.5280  143.2540 C   0  0  0  0  0  0  0  0  0  0  0  0
  186.1170  177.9050  144.4650 C   0  0  0  0  0  0  0  0  0  0  0  0
  183.9130  179.0140  145.1760 C   0  0  0  0  0  2  0  0  0  0  0  0
  185.4300  178.9210  145.3890 C   0  0  1  0  0  3  0  0  0  0  0  0
  185.6330  178.6310  146.8420 C   0  0  0  0  0  0  0  0  0  0  0  0
  185.4020  177.3540  147.3440 O   0  0  0  0  0  0  0  0  0  0  0  0
  185.9880  179.5530  147.6210 O   0  0  0  0  0  1  0  0  0  0  0  0
  187.9940  175.1780  141.7460 N   0  0  0  0  0  0  0  0  0  0  0  0
  187.9750  175.4090  140.3090 C   0  0  0  0  0  1  0  0  0  0  0  0
  188.7380  174.0180  142.2280 C   0  0  0  0  0  2  0  0  0  0  0  0
  190.2400  174.2690  142.1610 C   0  0  0  0  0  2  0  0  0  0  0  0
  190.2030  173.6940  144.4630 O   0  0  0  0  0  0  0  0  0  0  0  0
  190.8500  174.2310  143.5240 C   0  0  0  0  0  0  0  0  0  0  0  0
  192.2010  174.7890  143.7530 C   0  0  0  0  0  0  0  0  0  0  0  0
  193.3760  173.9480  144.1580 C   0  0  1  0  0  3  0  0  0  0  0  0
  193.9180  176.2500  143.9550 N   0  0  0  0  0  2  0  0  0  0  0  0
  192.5580  176.0600  143.6250 C   0  0  0  0  0  0  0  0  0  0  0  0
  191.6640  177.1960  143.2580 C   0  0  0  0  0  1  0  0  0  0  0  0
  194.5210  174.9580  144.2660 C   0  0  1  0  0  3  0  0  0  0  0  0
  193.9070  174.3610  145.5220 C   0  0  0  0  0  2  0  0  0  0  0  0
  188.2930  177.9700  145.8160 C   0  0  0  0  0  2  0  0  0  0  0  0
  190.6620  174.9280  147.6490 C   0  0  0  0  0  3  0  0  0  0  0  0
  189.2880  174.7190  147.5000 C   0  0  0  0  0  3  0  0  0  0  0  0
  188.5100  175.7110  146.9020 C   0  0  0  0  0  3  0  0  0  0  0  0
  191.2270  176.0870  147.2130 N   0  0  0  0  0  0  0  0  0  0  0  0
  190.4840  177.0650  146.6290 C   0  0  0  0  0  3  0  0  0  0  0  0
  189.1070  176.8960  146.4650 C   0  0  0  0  0  0  0  0  0  0  0  0
  1 10  1  0  0  0  0
  2  6  2  0  0  0  0
  3  5  1  0  0  0  0
  4  7  1  0  0  0  0
  4  8  2  0  0  0  0
  5 28  1  0  0  0  0
  6  8  1  0  0  0  0
  6  1  1  0  0  0  0
  7  3  2  0  0  0  0
  8  9  1  0  0  0  0
  9  5  2  0  0  0  0
  9 11  1  0  0  0  0
 10 11  1  0  0  0  0
 11 12  1  1  0  0  0
 12 13  2  0  0  0  0
 12 14  1  0  0  0  0
 15 17  1  0  0  0  0
 15  7  1  0  0  0  0
 16 15  1  0  0  0  0
 18 17  1  0  0  0  0
 18 20  1  0  0  0  0
 20 21  1  0  0  0  0
 20 19  2  0  0  0  0
 21 22  1  0  0  0  0
 22 26  1  0  0  0  0
 22 27  1  1  0  0  0
 23 26  1  0  0  0  0
 24 21  2  0  0  0  0
 24 23  1  0  0  0  0
 25 24  1  0  0  0  0
 26 27  1  1  0  0  0
 28 34  1  0  0  0  0
 30 29  1  0  0  0  0
 31 30  2  0  0  0  0
 32 29  2  0  0  0  0
 33 32  1  0  0  0  0
 34 33  2  0  0  0  0
 34 31  1  0  0  0  0
M  END
>  <MODEL>
2

>  <REMARK>
 VINA RESULT:      -7.2      2.392      7.099
  Name = 
  8 active torsions:
  status: ('A' for Active; 'I' for Inactive)
    1  A    between atoms: C_3  and  C_10
    2  A    between atoms: C_3  and  C_32
    3  A    between atoms: C_5  and  N_25
    4  A    between atoms: C_5  and  C_34
    5  A    between atoms: C_8  and  C_14
    6  A    between atoms: C_14  and  C_34
    7  A    between atoms: C_15  and  C_30
    8  A    between atoms: C_22  and  N_25
                            x       y       z     vdW  Elec       q    Type
                         _______ _______ _______ _____ _____    ______ ____

>  <TORSDO>
F 8

$$$$
=
 OpenBabel11062422063D

 34 38  0  0  1  0  0  0  0  0999 V2000
  184.8770  177.2510  146.1830 N   0  0  0  0  0  2  0  0  0  0  0  0
  186.1450  176.6930  148.0440 O   0  0  0  0  0  0  0  0  0  0  0  0
  189.6590  176.5370  144.4920 C   0  0  0  0  0  3  0  0  0  0  0  0
  188.5710  176.6700  146.6290 C   0  0  0  0  0  3  0  0  0  0  0  0
  188.4490  176.7990  143.8360 C   0  0  0  0  0  0  0  0  0  0  0  0
  186.1180  176.9600  146.8130 C   0  0  0  0  0  0  0  0  0  0  0  0
  189.7420  176.5030  145.8860 C   0  0  0  0  0  0  0  0  0  0  0  0
  187.3460  176.9230  146.0020 C   0  0  0  0  0  0  0  0  0  0  0  0
  187.2720  177.0560  144.5920 C   0  0  0  0  0  0  0  0  0  0  0  0
  184.8650  177.8990  144.8830 C   0  0  0  0  0  2  0  0  0  0  0  0
  185.9080  177.2990  143.9300 C   0  0  1  0  0  3  0  0  0  0  0  0
  185.9780  178.2180  142.7520 C   0  0  0  0  0  0  0  0  0  0  0  0
  185.5960  177.7750  141.4900 O   0  0  0  0  0  0  0  0  0  0  0  0
  186.4110  179.3900  142.8970 O   0  0  0  0  0  1  0  0  0  0  0  0
  191.0000  176.2480  146.5410 N   0  0  0  0  0  0  0  0  0  0  0  0
  191.0430  175.6360  147.8620 C   0  0  0  0  0  1  0  0  0  0  0  0
  192.2770  176.5100  145.8840 C   0  0  0  0  0  2  0  0  0  0  0  0
  193.2480  175.3530  146.0980 C   0  0  0  0  0  2  0  0  0  0  0  0
  194.3890  175.0450  144.0410 O   0  0  0  0  0  0  0  0  0  0  0  0
  193.4950  174.6200  144.8210 C   0  0  0  0  0  0  0  0  0  0  0  0
  192.7220  173.4010  144.4980 C   0  0  1  0  0  3  0  0  0  0  0  0
  191.3870  173.4340  143.8130 C   0  0  1  0  0  3  0  0  0  0  0  0
  192.0960  171.2310  144.3390 N   0  0  0  0  0  0  0  0  0  0  0  0
  193.0880  172.1510  144.7460 C   0  0  0  0  0  0  0  0  0  0  0  0
  194.3390  171.7160  145.4320 C   0  0  0  0  0  1  0  0  0  0  0  0
  191.0030  171.9570  143.7020 C   0  0  1  0  0  3  0  0  0  0  0  0
  190.2950  172.8590  144.7010 C   0  0  0  0  0  2  0  0  0  0  0  0
  188.4290  176.6740  142.3390 C   0  0  0  0  0  2  0  0  0  0  0  0
  188.8190  172.6360  141.0100 C   0  0  0  0  0  3  0  0  0  0  0  0
  187.7790  172.9640  141.8840 C   0  0  0  0  0  3  0  0  0  0  0  0
  187.6490  174.2820  142.3220 C   0  0  0  0  0  3  0  0  0  0  0  0
  189.6880  173.5950  140.5930 N   0  0  0  0  0  0  0  0  0  0  0  0
  189.5770  174.8860  141.0100 C   0  0  0  0  0  3  0  0  0  0  0  0
  188.5540  175.2540  141.8870 C   0  0  0  0  0  0  0  0  0  0  0  0
  1  6  1  0  0  0  0
  3  7  1  0  0  0  0
  5  3  2  0  0  0  0
  5  9  1  0  0  0  0
  6  2  2  0  0  0  0
  7 15  1  0  0  0  0
  7  4  2  0  0  0  0
  8  4  1  0  0  0  0
  8  6  1  0  0  0  0
  9  8  2  0  0  0  0
 10  1  1  0  0  0  0
 11 12  1  6  0  0  0
 11  9  1  0  0  0  0
 11 10  1  0  0  0  0
 12 14  1  0  0  0  0
 13 12  2  0  0  0  0
 15 16  1  0  0  0  0
 17 18  1  0  0  0  0
 17 15  1  0  0  0  0
 19 20  2  0  0  0  0
 20 18  1  0  0  0  0
 21 24  1  0  0  0  0
 21 20  1  6  0  0  0
 22 21  1  0  0  0  0
 22 27  1  1  0  0  0
 23 24  2  0  0  0  0
 24 25  1  0  0  0  0
 26 22  1  0  0  0  0
 26 23  1  0  0  0  0
 26 27  1  1  0  0  0
 28  5  1  0  0  0  0
 29 30  1  0  0  0  0
 30 31  2  0  0  0  0
 32 29  2  0  0  0  0
 32 33  1  0  0  0  0
 33 34  2  0  0  0  0
 34 31  1  0  0  0  0
 34 28  1  0  0  0  0
M  END
>  <MODEL>
3

>  <REMARK>
 VINA RESULT:      -7.1      2.333      6.720
  Name = 
  8 active torsions:
  status: ('A' for Active; 'I' for Inactive)
    1  A    between atoms: C_3  and  C_10
    2  A    between atoms: C_3  and  C_32
    3  A    between atoms: C_5  and  N_25
    4  A    between atoms: C_5  and  C_34
    5  A    between atoms: C_8  and  C_14
    6  A    between atoms: C_14  and  C_34
    7  A    between atoms: C_15  and  C_30
    8  A    between atoms: C_22  and  N_25
                            x       y       z     vdW  Elec       q    Type
                         _______ _______ _______ _____ _____    ______ ____

>  <TORSDO>
F 8

$$$$
=
 OpenBabel11062422063D

 34 38  0  0  1  0  0  0  0  0999 V2000
  183.9400  178.8900  145.5950 N   0  0  0  0  0  2  0  0  0  0  0  0
  184.9200  178.5050  147.6620 O   0  0  0  0  0  0  0  0  0  0  0  0
  188.1060  176.0500  144.6940 C   0  0  0  0  0  3  0  0  0  0  0  0
  187.1560  177.1970  146.5790 C   0  0  0  0  0  3  0  0  0  0  0  0
  187.0770  176.5150  143.8650 C   0  0  0  0  0  0  0  0  0  0  0  0
  184.9870  178.3810  146.4100 C   0  0  0  0  0  0  0  0  0  0  0  0
  188.1770  176.4100  146.0420 C   0  0  0  0  0  0  0  0  0  0  0  0
  186.1090  177.6680  145.7790 C   0  0  0  0  0  0  0  0  0  0  0  0
  186.0830  177.3880  144.3890 C   0  0  0  0  0  0  0  0  0  0  0  0
  184.1620  179.0770  144.1710 C   0  0  0  0  0  2  0  0  0  0  0  0
  184.9030  177.8900  143.5430 C   0  0  1  0  0  3  0  0  0  0  0  0
  185.3030  178.3230  142.1690 C   0  0  0  0  0  0  0  0  0  0  0  0
  184.5700  177.9150  141.0600 O   0  0  0  0  0  0  0  0  0  0  0  0
  186.3250  179.0410  142.0120 O   0  0  0  0  0  1  0  0  0  0  0  0
  189.2550  175.9340  146.8740 N   0  0  0  0  0  0  0  0  0  0  0  0
  189.3130  174.5410  147.2930 C   0  0  0  0  0  1  0  0  0  0  0  0
  190.3670  176.7950  147.2600 C   0  0  0  0  0  2  0  0  0  0  0  0
  191.6620  175.9970  147.3720 C   0  0  0  0  0  2  0  0  0  0  0  0
  192.1660  176.9480  145.2570 O   0  0  0  0  0  0  0  0  0  0  0  0
  192.4300  176.0410  146.0930 C   0  0  0  0  0  0  0  0  0  0  0  0
  193.5000  175.0530  145.8300 C   0  0  1  0  0  3  0  0  0  0  0  0
  194.9460  175.3110  146.1380 C   0  0  1  0  0  3  0  0  0  0  0  0
  194.5780  173.1760  145.1690 N   0  0  0  0  0  0  0  0  0  0  0  0
  193.3410  173.8410  145.3170 C   0  0  0  0  0  0  0  0  0  0  0  0
  192.0550  173.2340  144.8670 C   0  0  0  0  0  1  0  0  0  0  0  0
  195.6420  174.0210  145.7010 C   0  0  1  0  0  3  0  0  0  0  0  0
  195.7930  175.2890  144.8750 C   0  0  0  0  0  2  0  0  0  0  0  0
  187.0040  175.9610  142.4710 C   0  0  0  0  0  2  0  0  0  0  0  0
  190.1490  173.1890  141.6660 C   0  0  0  0  0  3  0  0  0  0  0  0
  188.8490  172.7070  141.8390 C   0  0  0  0  0  3  0  0  0  0  0  0
  187.8180  173.6090  142.1030 C   0  0  0  0  0  3  0  0  0  0  0  0
  190.3990  174.5230  141.7540 N   0  0  0  0  0  0  0  0  0  0  0  0
  189.4070  175.4180  142.0110 C   0  0  0  0  0  3  0  0  0  0  0  0
  188.0940  174.9760  142.1940 C   0  0  0  0  0  0  0  0  0  0  0  0
  1  6  1  0  0  0  0
  3  7  1  0  0  0  0
  5  9  1  0  0  0  0
  5  3  2  0  0  0  0
  6  2  2  0  0  0  0
  7  4  2  0  0  0  0
  7 15  1  0  0  0  0
  8  6  1  0  0  0  0
  8  4  1  0  0  0  0
  9  8  2  0  0  0  0
 10  1  1  0  0  0  0
 11 12  1  6  0  0  0
 11 10  1  0  0  0  0
 11  9  1  0  0  0  0
 13 12  2  0  0  0  0
 14 12  1  0  0  0  0
 15 17  1  0  0  0  0
 15 16  1  0  0  0  0
 17 18  1  0  0  0  0
 19 20  2  0  0  0  0
 20 18  1  0  0  0  0
 21 20  1  1  0  0  0
 21 22  1  0  0  0  0
 22 27  1  6  0  0  0
 23 24  2  0  0  0  0
 23 26  1  0  0  0  0
 24 21  1  0  0  0  0
 25 24  1  0  0  0  0
 26 27  1  6  0  0  0
 26 22  1  0  0  0  0
 28  5  1  0  0  0  0
 29 32  2  0  0  0  0
 29 30  1  0  0  0  0
 30 31  2  0  0  0  0
 31 34  1  0  0  0  0
 32 33  1  0  0  0  0
 33 34  2  0  0  0  0
 34 28  1  0  0  0  0
M  END
>  <MODEL>
4

>  <REMARK>
 VINA RESULT:      -7.1      2.478      6.818
  Name = 
  8 active torsions:
  status: ('A' for Active; 'I' for Inactive)
    1  A    between atoms: C_3  and  C_10
    2  A    between atoms: C_3  and  C_32
    3  A    between atoms: C_5  and  N_25
    4  A    between atoms: C_5  and  C_34
    5  A    between atoms: C_8  and  C_14
    6  A    between atoms: C_14  and  C_34
    7  A    between atoms: C_15  and  C_30
    8  A    between atoms: C_22  and  N_25
                            x       y       z     vdW  Elec       q    Type
                         _______ _______ _______ _____ _____    ______ ____

>  <TORSDO>
F 8

$$$$
=
 OpenBabel11062422063D

 34 38  0  0  1  0  0  0  0  0999 V2000
  185.2230  178.4740  140.8280 N   0  0  0  0  0  2  0  0  0  0  0  0
  186.3090  177.1720  139.2440 O   0  0  0  0  0  0  0  0  0  0  0  0
  189.0040  176.0700  143.3080 C   0  0  0  0  0  3  0  0  0  0  0  0
  188.0190  175.9680  141.1200 C   0  0  0  0  0  3  0  0  0  0  0  0
  188.0770  177.0420  143.7040 C   0  0  0  0  0  0  0  0  0  0  0  0
  186.1930  177.5050  140.4540 C   0  0  0  0  0  0  0  0  0  0  0  0
  188.9660  175.5000  142.0330 C   0  0  0  0  0  0  0  0  0  0  0  0
  187.0860  176.9460  141.4830 C   0  0  0  0  0  0  0  0  0  0  0  0
  187.0560  177.4580  142.8050 C   0  0  0  0  0  0  0  0  0  0  0  0
  184.8330  178.6020  142.2220 C   0  0  0  0  0  2  0  0  0  0  0  0
  186.0440  178.5550  143.1640 C   0  0  1  0  0  3  0  0  0  0  0  0
  185.4930  178.4220  144.5480 C   0  0  0  0  0  0  0  0  0  0  0  0
  185.5840  179.4780  145.4470 O   0  0  0  0  0  1  0  0  0  0  0  0
  184.9670  177.3370  144.9110 O   0  0  0  0  0  0  0  0  0  0  0  0
  189.9200  174.4880  141.6510 N   0  0  0  0  0  0  0  0  0  0  0  0
  189.7490  173.7290  140.4200 C   0  0  0  0  0  1  0  0  0  0  0  0
  191.1300  174.2400  142.4270 C   0  0  0  0  0  2  0  0  0  0  0  0
  192.3240  174.9720  141.8250 C   0  0  0  0  0  2  0  0  0  0  0  0
  192.1820  177.1410  142.7770 O   0  0  0  0  0  0  0  0  0  0  0  0
  192.8090  176.0480  142.7400 C   0  0  0  0  0  0  0  0  0  0  0  0
  193.9860  175.8170  143.6070 C   0  0  0  0  0  0  0  0  0  0  0  0
  193.8760  175.3660  145.0340 C   0  0  1  0  0  3  0  0  0  0  0  0
  196.1230  175.6890  144.3420 N   0  0  0  0  0  2  0  0  0  0  0  0
  195.2570  175.9570  143.2580 C   0  0  0  0  0  0  0  0  0  0  0  0
  195.7640  176.4080  141.9300 C   0  0  0  0  0  1  0  0  0  0  0  0
  195.3320  175.2690  145.4930 C   0  0  1  0  0  3  0  0  0  0  0  0
  194.4480  176.4030  145.9870 C   0  0  0  0  0  2  0  0  0  0  0  0
  188.2850  177.6970  145.0400 C   0  0  0  0  0  2  0  0  0  0  0  0
  190.6120  175.2840  147.6850 C   0  0  0  0  0  3  0  0  0  0  0  0
  189.3070  174.8890  147.3790 C   0  0  0  0  0  3  0  0  0  0  0  0
  188.5420  175.6750  146.5160 C   0  0  0  0  0  3  0  0  0  0  0  0
  191.1250  176.4220  147.1430 N   0  0  0  0  0  0  0  0  0  0  0  0
  190.3950  177.2010  146.2990 C   0  0  0  0  0  3  0  0  0  0  0  0
  189.0840  176.8430  145.9720 C   0  0  0  0  0  0  0  0  0  0  0  0
  1 10  1  0  0  0  0
  2  6  2  0  0  0  0
  3  5  1  0  0  0  0
  4  8  2  0  0  0  0
  4  7  1  0  0  0  0
  5 28  1  0  0  0  0
  6  1  1  0  0  0  0
  6  8  1  0  0  0  0
  7  3  2  0  0  0  0
  8  9  1  0  0  0  0
  9 11  1  0  0  0  0
  9  5  2  0  0  0  0
 10 11  1  0  0  0  0
 11 12  1  1  0  0  0
 12 14  2  0  0  0  0
 12 13  1  0  0  0  0
 15  7  1  0  0  0  0
 15 17  1  0  0  0  0
 16 15  1  0  0  0  0
 18 17  1  0  0  0  0
 18 20  1  0  0  0  0
 20 19  2  0  0  0  0
 20 21  1  0  0  0  0
 21 22  1  0  0  0  0
 22 26  1  0  0  0  0
 22 27  1  1  0  0  0
 23 26  1  0  0  0  0
 24 21  2  0  0  0  0
 24 23  1  0  0  0  0
 25 24  1  0  0  0  0
 26 27  1  1  0  0  0
 28 34  1  0  0  0  0
 30 29  1  0  0  0  0
 31 30  2  0  0  0  0
 32 29  2  0  0  0  0
 33 32  1  0  0  0  0
 34 33  2  0  0  0  0
 34 31  1  0  0  0  0
M  END
>  <MODEL>
5

>  <REMARK>
 VINA RESULT:      -7.0      2.518      7.348
  Name = 
  8 active torsions:
  status: ('A' for Active; 'I' for Inactive)
    1  A    between atoms: C_3  and  C_10
    2  A    between atoms: C_3  and  C_32
    3  A    between atoms: C_5  and  N_25
    4  A    between atoms: C_5  and  C_34
    5  A    between atoms: C_8  and  C_14
    6  A    between atoms: C_14  and  C_34
    7  A    between atoms: C_15  and  C_30
    8  A    between atoms: C_22  and  N_25
                            x       y       z     vdW  Elec       q    Type
                         _______ _______ _______ _____ _____    ______ ____

>  <TORSDO>
F 8

$$$$
=
 OpenBabel11062422063D

 34 38  0  0  1  0  0  0  0  0999 V2000
  195.5070  175.6410  144.8360 N   0  0  0  0  0  2  0  0  0  0  0  0
  194.5840  177.5230  145.8320 O   0  0  0  0  0  0  0  0  0  0  0  0
  190.5710  174.5480  145.6530 C   0  0  0  0  0  3  0  0  0  0  0  0
  192.0830  176.3160  146.2500 C   0  0  0  0  0  3  0  0  0  0  0  0
  191.6040  173.8520  145.0120 C   0  0  0  0  0  0  0  0  0  0  0  0
  194.4300  176.3290  145.4590 C   0  0  0  0  0  0  0  0  0  0  0  0
  190.8020  175.7620  146.3050 C   0  0  0  0  0  0  0  0  0  0  0  0
  193.1330  175.6500  145.6080 C   0  0  0  0  0  0  0  0  0  0  0  0
  192.9280  174.3720  145.0290 C   0  0  0  0  0  0  0  0  0  0  0  0
  195.4710  174.1930  144.7310 C   0  0  0  0  0  2  0  0  0  0  0  0
  194.0900  173.6810  144.3010 C   0  0  1  0  0  3  0  0  0  0  0  0
  194.1120  172.1990  144.4950 C   0  0  0  0  0  0  0  0  0  0  0  0
  194.1740  171.6570  145.7750 O   0  0  0  0  0  1  0  0  0  0  0  0
  194.1010  171.4350  143.4950 O   0  0  0  0  0  0  0  0  0  0  0  0
  189.7280  176.4530  146.9740 N   0  0  0  0  0  0  0  0  0  0  0  0
  189.9580  177.7360  147.6240 C   0  0  0  0  0  1  0  0  0  0  0  0
  188.3600  175.9470  146.9590 C   0  0  0  0  0  2  0  0  0  0  0  0
  187.3570  177.0900  146.8470 C   0  0  0  0  0  2  0  0  0  0  0  0
  185.2660  176.4790  145.9050 O   0  0  0  0  0  0  0  0  0  0  0  0
  186.4390  176.8840  145.6870 C   0  0  0  0  0  0  0  0  0  0  0  0
  186.8970  177.1820  144.3110 C   0  0  1  0  0  3  0  0  0  0  0  0
  187.7730  176.2550  143.5210 C   0  0  1  0  0  3  0  0  0  0  0  0
  187.2340  178.2420  142.3390 N   0  0  0  0  0  0  0  0  0  0  0  0
  186.6000  178.2620  143.6020 C   0  0  0  0  0  0  0  0  0  0  0  0
  185.7720  179.4160  144.0550 C   0  0  0  0  0  1  0  0  0  0  0  0
  187.9640  176.9870  142.1910 C   0  0  1  0  0  3  0  0  0  0  0  0
  189.1080  176.9030  143.1890 C   0  0  0  0  0  2  0  0  0  0  0  0
  191.2310  172.6320  144.2190 C   0  0  0  0  0  2  0  0  0  0  0  0
  188.7410  173.6020  140.8900 C   0  0  0  0  0  3  0  0  0  0  0  0
  188.2220  172.8050  141.9150 C   0  0  0  0  0  3  0  0  0  0  0  0
  189.0330  172.4850  143.0040 C   0  0  0  0  0  3  0  0  0  0  0  0
  190.0210  174.0570  140.9610 N   0  0  0  0  0  0  0  0  0  0  0  0
  190.8260  173.7550  142.0160 C   0  0  0  0  0  3  0  0  0  0  0  0
  190.3470  172.9580  143.0580 C   0  0  0  0  0  0  0  0  0  0  0  0
  1  6  1  0  0  0  0
  3  7  1  0  0  0  0
  4  7  2  0  0  0  0
  5  9  1  0  0  0  0
  5  3  2  0  0  0  0
  6  8  1  0  0  0  0
  6  2  2  0  0  0  0
  7 15  1  0  0  0  0
  8  4  1  0  0  0  0
  9  8  2  0  0  0  0
 10  1  1  0  0  0  0
 11 12  1  1  0  0  0
 11 10  1  0  0  0  0
 11  9  1  0  0  0  0
 12 13  1  0  0  0  0
 14 12  2  0  0  0  0
 15 16  1  0  0  0  0
 17 15  1  0  0  0  0
 18 17  1  0  0  0  0
 20 19  2  0  0  0  0
 20 18  1  0  0  0  0
 21 20  1  6  0  0  0
 22 27  1  1  0  0  0
 22 21  1  0  0  0  0
 23 24  2  0  0  0  0
 24 25  1  0  0  0  0
 24 21  1  0  0  0  0
 26 23  1  0  0  0  0
 26 27  1  1  0  0  0
 26 22  1  0  0  0  0
 28  5  1  0  0  0  0
 29 32  2  0  0  0  0
 29 30  1  0  0  0  0
 30 31  2  0  0  0  0
 31 34  1  0  0  0  0
 32 33  1  0  0  0  0
 33 34  2  0  0  0  0
 34 28  1  0  0  0  0
M  END
>  <MODEL>
6

>  <REMARK>
 VINA RESULT:      -7.0      2.341      4.248
  Name = 
  8 active torsions:
  status: ('A' for Active; 'I' for Inactive)
    1  A    between atoms: C_3  and  C_10
    2  A    between atoms: C_3  and  C_32
    3  A    between atoms: C_5  and  N_25
    4  A    between atoms: C_5  and  C_34
    5  A    between atoms: C_8  and  C_14
    6  A    between atoms: C_14  and  C_34
    7  A    between atoms: C_15  and  C_30
    8  A    between atoms: C_22  and  N_25
                            x       y       z     vdW  Elec       q    Type
                         _______ _______ _______ _____ _____    ______ ____

>  <TORSDO>
F 8

$$$$
=
 OpenBabel11062422063D

 34 38  0  0  1  0  0  0  0  0999 V2000
  185.0390  177.3070  145.9090 N   0  0  0  0  0  2  0  0  0  0  0  0
  186.1710  177.1240  147.9270 O   0  0  0  0  0  0  0  0  0  0  0  0
  189.9830  176.6900  144.7230 C   0  0  0  0  0  3  0  0  0  0  0  0
  188.7080  177.0630  146.7240 C   0  0  0  0  0  3  0  0  0  0  0  0
  188.8220  176.7660  143.9430 C   0  0  0  0  0  0  0  0  0  0  0  0
  186.2350  177.2030  146.6710 C   0  0  0  0  0  0  0  0  0  0  0  0
  189.9460  176.8710  146.1070 C   0  0  0  0  0  0  0  0  0  0  0  0
  187.5290  177.1320  145.9730 C   0  0  0  0  0  0  0  0  0  0  0  0
  187.5700  177.0480  144.5580 C   0  0  0  0  0  0  0  0  0  0  0  0
  185.1020  177.7510  144.5280 C   0  0  0  0  0  2  0  0  0  0  0  0
  186.2570  177.0920  143.7630 C   0  0  1  0  0  3  0  0  0  0  0  0
  186.3750  177.8280  142.4660 C   0  0  0  0  0  0  0  0  0  0  0  0
  186.1590  177.1690  141.2610 O   0  0  0  0  0  0  0  0  0  0  0  0
  186.7000  179.0440  142.4630 O   0  0  0  0  0  1  0  0  0  0  0  0
  191.1560  176.8060  146.8890 N   0  0  0  0  0  0  0  0  0  0  0  0
  191.1300  177.0510  148.3240 C   0  0  0  0  0  1  0  0  0  0  0  0
  192.4320  176.4140  146.3010 C   0  0  0  0  0  2  0  0  0  0  0  0
  192.7100  174.9330  146.5350 C   0  0  0  0  0  2  0  0  0  0  0  0
  192.6190  173.1750  144.9440 O   0  0  0  0  0  0  0  0  0  0  0  0
  193.1550  174.2670  145.2760 C   0  0  0  0  0  0  0  0  0  0  0  0
  194.1870  174.8970  144.4220 C   0  0  1  0  0  3  0  0  0  0  0  0
  193.8610  175.6560  143.1690 C   0  0  1  0  0  3  0  0  0  0  0  0
  196.1920  175.5600  143.6070 N   0  0  0  0  0  0  0  0  0  0  0  0
  195.4950  174.8940  144.6400 C   0  0  0  0  0  0  0  0  0  0  0  0
  196.2010  174.2270  145.7710 C   0  0  0  0  0  1  0  0  0  0  0  0
  195.2300  176.1070  142.6560 C   0  0  1  0  0  3  0  0  0  0  0  0
  194.4760  174.9940  141.9460 C   0  0  0  0  0  2  0  0  0  0  0  0
  188.9400  176.4180  142.4860 C   0  0  0  0  0  2  0  0  0  0  0  0
  189.4680  172.2260  141.8730 C   0  0  0  0  0  3  0  0  0  0  0  0
  190.5940  173.0280  142.0750 C   0  0  0  0  0  3  0  0  0  0  0  0
  190.4260  174.3990  142.2740 C   0  0  0  0  0  3  0  0  0  0  0  0
  188.2260  172.7810  141.8740 N   0  0  0  0  0  0  0  0  0  0  0  0
  188.0420  174.1150  142.0670 C   0  0  0  0  0  3  0  0  0  0  0  0
  189.1430  174.9520  142.2680 C   0  0  0  0  0  0  0  0  0  0  0  0
  1  6  1  0  0  0  0
  3  7  1  0  0  0  0
  5  9  1  0  0  0  0
  5  3  2  0  0  0  0
  6  2  2  0  0  0  0
  7  4  2  0  0  0  0
  7 15  1  0  0  0  0
  8  6  1  0  0  0  0
  8  4  1  0  0  0  0
  9  8  2  0  0  0  0
 10  1  1  0  0  0  0
 11 12  1  6  0  0  0
 11 10  1  0  0  0  0
 11  9  1  0  0  0  0
 13 12  2  0  0  0  0
 14 12  1  0  0  0  0
 15 16  1  0  0  0  0
 17 18  1  0  0  0  0
 17 15  1  0  0  0  0
 19 20  2  0  0  0  0
 20 18  1  0  0  0  0
 21 24  1  0  0  0  0
 21 20  1  1  0  0  0
 22 27  1  6  0  0  0
 22 21  1  0  0  0  0
 23 24  2  0  0  0  0
 24 25  1  0  0  0  0
 26 27  1  6  0  0  0
 26 22  1  0  0  0  0
 26 23  1  0  0  0  0
 28  5  1  0  0  0  0
 29 32  2  0  0  0  0
 29 30  1  0  0  0  0
 30 31  2  0  0  0  0
 32 33  1  0  0  0  0
 33 34  2  0  0  0  0
 34 31  1  0  0  0  0
 34 28  1  0  0  0  0
M  END
>  <MODEL>
7

>  <REMARK>
 VINA RESULT:      -6.9      2.556      6.978
  Name = 
  8 active torsions:
  status: ('A' for Active; 'I' for Inactive)
    1  A    between atoms: C_3  and  C_10
    2  A    between atoms: C_3  and  C_32
    3  A    between atoms: C_5  and  N_25
    4  A    between atoms: C_5  and  C_34
    5  A    between atoms: C_8  and  C_14
    6  A    between atoms: C_14  and  C_34
    7  A    between atoms: C_15  and  C_30
    8  A    between atoms: C_22  and  N_25
                            x       y       z     vdW  Elec       q    Type
                         _______ _______ _______ _____ _____    ______ ____

>  <TORSDO>
F 8

$$$$
=
 OpenBabel11062422063D

 34 38  0  0  1  0  0  0  0  0999 V2000
  183.9180  179.0700  144.6270 N   0  0  0  0  0  2  0  0  0  0  0  0
  183.7340  178.2410  142.4680 O   0  0  0  0  0  0  0  0  0  0  0  0
  188.0750  176.1820  143.8470 C   0  0  0  0  0  3  0  0  0  0  0  0
  186.0230  176.6280  142.6810 C   0  0  0  0  0  3  0  0  0  0  0  0
  187.6740  177.0010  144.9100 C   0  0  0  0  0  0  0  0  0  0  0  0
  184.3670  178.2490  143.5570 C   0  0  0  0  0  0  0  0  0  0  0  0
  187.2470  175.9590  142.7440 C   0  0  0  0  0  0  0  0  0  0  0  0
  185.6000  177.4610  143.7220 C   0  0  0  0  0  0  0  0  0  0  0  0
  186.3910  177.6150  144.8890 C   0  0  0  0  0  0  0  0  0  0  0  0
  184.4060  178.8280  145.9740 C   0  0  0  0  0  2  0  0  0  0  0  0
  185.9170  178.5630  146.0000 C   0  0  1  0  0  3  0  0  0  0  0  0
  186.2330  178.0670  147.3750 C   0  0  0  0  0  0  0  0  0  0  0  0
  186.9010  178.8820  148.2820 O   0  0  0  0  0  1  0  0  0  0  0  0
  185.9160  176.8950  147.7060 O   0  0  0  0  0  0  0  0  0  0  0  0
  187.6720  175.0980  141.6680 N   0  0  0  0  0  0  0  0  0  0  0  0
  187.7440  175.5940  140.3010 C   0  0  0  0  0  1  0  0  0  0  0  0
  188.1240  173.7320  141.9080 C   0  0  0  0  0  2  0  0  0  0  0  0
  189.4060  173.4380  141.1370 C   0  0  0  0  0  2  0  0  0  0  0  0
  191.0100  174.9390  142.0340 O   0  0  0  0  0  0  0  0  0  0  0  0
  190.6100  173.7460  141.9640 C   0  0  0  0  0  0  0  0  0  0  0  0
  191.2980  172.6690  142.7110 C   0  0  0  0  0  0  0  0  0  0  0  0
  192.3500  171.7910  142.0980 C   0  0  1  0  0  3  0  0  0  0  0  0
  191.9020  171.2450  144.3640 N   0  0  0  0  0  2  0  0  0  0  0  0
  191.1030  172.3460  143.9820 C   0  0  0  0  0  0  0  0  0  0  0  0
  190.1250  172.9780  144.9130 C   0  0  0  0  0  1  0  0  0  0  0  0
  192.7500  170.8570  143.2420 C   0  0  1  0  0  3  0  0  0  0  0  0
  191.9150  170.3340  142.0850 C   0  0  0  0  0  2  0  0  0  0  0  0
  188.6860  177.2940  145.9810 C   0  0  0  0  0  2  0  0  0  0  0  0
  192.7090  177.0420  144.5730 C   0  0  0  0  0  3  0  0  0  0  0  0
  191.8070  177.8720  143.9020 C   0  0  0  0  0  3  0  0  0  0  0  0
  190.4910  177.9570  144.3580 C   0  0  0  0  0  3  0  0  0  0  0  0
  192.3030  176.3300  145.6590 N   0  0  0  0  0  0  0  0  0  0  0  0
  191.0240  176.3990  146.1180 C   0  0  0  0  0  3  0  0  0  0  0  0
  190.0900  177.2140  145.4710 C   0  0  0  0  0  0  0  0  0  0  0  0
  1 10  1  0  0  0  0
  2  6  2  0  0  0  0
  3  5  1  0  0  0  0
  4  7  1  0  0  0  0
  4  8  2  0  0  0  0
  5 28  1  0  0  0  0
  6  8  1  0  0  0  0
  6  1  1  0  0  0  0
  7  3  2  0  0  0  0
  8  9  1  0  0  0  0
  9  5  2  0  0  0  0
  9 11  1  0  0  0  0
 10 11  1  0  0  0  0
 11 12  1  1  0  0  0
 12 14  2  0  0  0  0
 12 13  1  0  0  0  0
 15 17  1  0  0  0  0
 15  7  1  0  0  0  0
 16 15  1  0  0  0  0
 18 17  1  0  0  0  0
 18 20  1  0  0  0  0
 20 19  2  0  0  0  0
 20 21  1  0  0  0  0
 21 24  2  0  0  0  0
 22 27  1  6  0  0  0
 22 21  1  0  0  0  0
 22 26  1  0  0  0  0
 24 23  1  0  0  0  0
 24 25  1  0  0  0  0
 26 27  1  6  0  0  0
 26 23  1  0  0  0  0
 29 32  1  0  0  0  0
 30 31  1  0  0  0  0
 30 29  2  0  0  0  0
 31 34  2  0  0  0  0
 32 33  2  0  0  0  0
 34 28  1  0  0  0  0
 34 33  1  0  0  0  0
M  END
>  <MODEL>
8

>  <REMARK>
 VINA RESULT:      -6.8      2.356      6.959
  Name = 
  8 active torsions:
  status: ('A' for Active; 'I' for Inactive)
    1  A    between atoms: C_3  and  C_10
    2  A    between atoms: C_3  and  C_32
    3  A    between atoms: C_5  and  N_25
    4  A    between atoms: C_5  and  C_34
    5  A    between atoms: C_8  and  C_14
    6  A    between atoms: C_14  and  C_34
    7  A    between atoms: C_15  and  C_30
    8  A    between atoms: C_22  and  N_25
                            x       y       z     vdW  Elec       q    Type
                         _______ _______ _______ _____ _____    ______ ____

>  <TORSDO>
F 8

$$$$
=
 OpenBabel11062422063D

 34 38  0  0  1  0  0  0  0  0999 V2000
  184.9560  177.1800  146.1680 N   0  0  0  0  0  2  0  0  0  0  0  0
  186.2430  176.8920  148.0760 O   0  0  0  0  0  0  0  0  0  0  0  0
  189.7960  176.6980  144.5660 C   0  0  0  0  0  3  0  0  0  0  0  0
  188.6790  176.9340  146.6790 C   0  0  0  0  0  3  0  0  0  0  0  0
  188.5770  176.8050  143.8840 C   0  0  0  0  0  0  0  0  0  0  0  0
  186.2090  177.0460  146.8260 C   0  0  0  0  0  0  0  0  0  0  0  0
  189.8670  176.7950  145.9580 C   0  0  0  0  0  0  0  0  0  0  0  0
  187.4440  177.0330  146.0270 C   0  0  0  0  0  0  0  0  0  0  0  0
  187.3760  177.0350  144.6110 C   0  0  0  0  0  0  0  0  0  0  0  0
  184.9070  177.7070  144.8150 C   0  0  0  0  0  2  0  0  0  0  0  0
  186.0040  177.1100  143.9240 C   0  0  1  0  0  3  0  0  0  0  0  0
  186.0150  177.9230  142.6690 C   0  0  0  0  0  0  0  0  0  0  0  0
  186.3900  179.2610  142.7000 O   0  0  0  0  0  1  0  0  0  0  0  0
  185.6560  177.4000  141.5820 O   0  0  0  0  0  0  0  0  0  0  0  0
  191.1340  176.6990  146.6380 N   0  0  0  0  0  0  0  0  0  0  0  0
  191.1980  176.6530  148.0920 C   0  0  0  0  0  1  0  0  0  0  0  0
  192.3900  176.5600  145.9090 C   0  0  0  0  0  2  0  0  0  0  0  0
  193.1100  175.2740  146.3010 C   0  0  0  0  0  2  0  0  0  0  0  0
  194.4730  175.7960  144.4300 O   0  0  0  0  0  0  0  0  0  0  0  0
  194.2300  174.9790  145.3600 C   0  0  0  0  0  0  0  0  0  0  0  0
  195.0570  173.7650  145.5390 C   0  0  0  0  0  0  0  0  0  0  0  0
  196.4800  173.8060  146.0130 C   0  0  1  0  0  3  0  0  0  0  0  0
  195.7230  171.6010  145.5640 N   0  0  0  0  0  2  0  0  0  0  0  0
  194.6700  172.5140  145.3280 C   0  0  0  0  0  0  0  0  0  0  0  0
  193.3340  172.0740  144.8350 C   0  0  0  0  0  1  0  0  0  0  0  0
  196.8930  172.3320  146.0390 C   0  0  1  0  0  3  0  0  0  0  0  0
  197.4300  173.2580  144.9590 C   0  0  0  0  0  2  0  0  0  0  0  0
  188.5840  176.5460  142.4050 C   0  0  0  0  0  2  0  0  0  0  0  0
  189.2600  172.4380  141.4620 C   0  0  0  0  0  3  0  0  0  0  0  0
  187.9790  172.8430  141.8460 C   0  0  0  0  0  3  0  0  0  0  0  0
  187.7540  174.1840  142.1560 C   0  0  0  0  0  3  0  0  0  0  0  0
  190.2700  173.3470  141.3910 N   0  0  0  0  0  0  0  0  0  0  0  0
  190.0700  174.6590  141.6900 C   0  0  0  0  0  3  0  0  0  0  0  0
  188.8040  175.1030  142.0830 C   0  0  0  0  0  0  0  0  0  0  0  0
  1  6  1  0  0  0  0
  3  7  1  0  0  0  0
  5  3  2  0  0  0  0
  5  9  1  0  0  0  0
  6  2  2  0  0  0  0
  7 15  1  0  0  0  0
  7  4  2  0  0  0  0
  8  4  1  0  0  0  0
  8  6  1  0  0  0  0
  9  8  2  0  0  0  0
 10  1  1  0  0  0  0
 11 12  1  6  0  0  0
 11  9  1  0  0  0  0
 11 10  1  0  0  0  0
 12 13  1  0  0  0  0
 14 12  2  0  0  0  0
 15 16  1  0  0  0  0
 17 18  1  0  0  0  0
 17 15  1  0  0  0  0
 19 20  2  0  0  0  0
 20 21  1  0  0  0  0
 20 18  1  0  0  0  0
 21 22  1  0  0  0  0
 22 27  1  6  0  0  0
 22 26  1  0  0  0  0
 23 26  1  0  0  0  0
 24 21  2  0  0  0  0
 24 23  1  0  0  0  0
 25 24  1  0  0  0  0
 26 27  1  6  0  0  0
 28  5  1  0  0  0  0
 29 30  1  0  0  0  0
 30 31  2  0  0  0  0
 32 29  2  0  0  0  0
 32 33  1  0  0  0  0
 33 34  2  0  0  0  0
 34 31  1  0  0  0  0
 34 28  1  0  0  0  0
M  END
>  <MODEL>
9

>  <REMARK>
 VINA RESULT:      -6.8      2.971      7.307
  Name = 
  8 active torsions:
  status: ('A' for Active; 'I' for Inactive)
    1  A    between atoms: C_3  and  C_10
    2  A    between atoms: C_3  and  C_32
    3  A    between atoms: C_5  and  N_25
    4  A    between atoms: C_5  and  C_34
    5  A    between atoms: C_8  and  C_14
    6  A    between atoms: C_14  and  C_34
    7  A    between atoms: C_15  and  C_30
    8  A    between atoms: C_22  and  N_25
                            x       y       z     vdW  Elec       q    Type
                         _______ _______ _______ _____ _____    ______ ____

>  <TORSDO>
F 8

$$$$
