=
 OpenBabel11062421483D

 48 52  0  0  1  0  0  0  0  0999 V2000
  197.7330  175.1220  142.3110 O   0  0  0  0  0  0  0  0  0  0  0  0
  194.8710  175.9070  146.1420 N   0  0  0  0  0  2  0  0  0  0  0  0
  193.5090  176.6370  142.5850 O   0  0  0  0  0  0  0  0  0  0  0  0
  191.1430  173.4140  141.3580 C   0  0  1  0  0  3  0  0  0  0  0  0
  191.1430  174.9770  146.9150 N   0  0  0  0  0  0  0  0  0  0  0  0
  195.8870  172.2260  143.3820 C   0  0  0  0  0  0  0  0  0  0  0  0
  192.1450  174.5130  141.0490 C   0  0  0  0  0  2  0  0  0  0  0  0
  191.6500  176.1510  147.0840 C   0  0  0  0  0  0  0  0  0  0  0  0
  196.8250  173.0080  142.6480 N   0  0  0  0  0  2  0  0  0  0  0  0
  194.4330  175.5680  142.0770 S   0  0  0  0  0  0  0  0  0  0  0  0
  190.6510  173.5570  142.7880 C   0  0  0  0  0  2  0  0  0  0  0  0
  195.5820  175.1040  143.3710 C   0  0  2  0  0  3  0  0  0  0  0  0
  196.7820  174.4300  142.7590 C   0  0  0  0  0  0  0  0  0  0  0  0
  193.5080  174.1270  141.5870 C   0  0  0  0  0  2  0  0  0  0  0  0
  191.1910  173.3530  145.1580 C   0  0  0  0  0  3  0  0  0  0  0  0
  194.1350  174.8050  145.5460 C   0  0  1  0  0  3  0  0  0  0  0  0
  193.9320  176.8110  146.6730 N   0  0  0  0  0  2  0  0  0  0  0  0
  195.1800  176.0960  140.8830 O   0  0  0  0  0  0  0  0  0  0  0  0
  192.7700  175.3220  145.1660 C   0  0  2  0  0  3  0  0  0  0  0  0
  194.9050  174.2130  144.4060 C   0  0  0  0  0  0  0  0  0  0  0  0
  191.5780  172.8860  143.7950 C   0  0  1  0  0  3  0  0  0  0  0  0
  195.8460  170.9810  143.2290 O   0  0  0  0  0  0  0  0  0  0  0  0
  192.6420  176.5590  146.0400 C   0  0  1  0  0  3  0  0  0  0  0  0
  195.0150  172.8820  144.3640 C   0  0  0  0  0  3  0  0  0  0  0  0
  191.7060  174.4380  145.7350 C   0  0  0  0  0  0  0  0  0  0  0  0
  190.2660  177.9400  148.0590 C   0  0  0  0  0  1  0  0  0  0  0  0
  191.3020  176.9750  148.1560 O   0  0  0  0  0  0  0  0  0  0  0  0
  191.4150  171.5000  143.7210 O   0  0  0  0  0  0  0  0  0  0  0  0
  192.6260  171.0300  143.5300 O   0  0  0  0  0  1  0  0  0  0  0  0
  189.9500  173.5430  140.4290 C   0  0  0  0  0  2  0  0  0  0  0  0
  187.7980  172.8400  141.2470 O   0  0  0  0  0  1  0  0  0  0  0  0
  188.6770  173.9190  141.1930 C   0  0  2  0  0  3  0  0  0  0  0  0
  188.0430  175.0820  140.7010 O   0  0  0  0  0  0  0  0  0  0  0  0
  188.2480  176.1370  141.6130 C   0  0  0  0  0  2  0  0  0  0  0  0
  186.1260  176.9120  140.9420 F   0  0  0  0  0  0  0  0  0  0  0  0
  186.9250  176.7640  142.0600 C   0  0  0  0  0  0  0  0  0  0  0  0
  186.2820  175.8940  142.9220 F   0  0  0  0  0  0  0  0  0  0  0  0
  187.0920  178.1370  142.7450 C   0  0  2  0  0  3  0  0  0  0  0  0
  185.3020  179.3520  143.8920 C   0  0  0  0  0  3  0  0  0  0  0  0
  187.2380  178.0730  144.2340 C   0  0  0  0  0  0  0  0  0  0  0  0
  185.8750  179.0360  142.5150 C   0  0  0  0  0  3  0  0  0  0  0  0
  186.2550  178.7300  144.8450 C   0  0  0  0  0  0  0  0  0  0  0  0
  188.2170  176.3050  145.6840 O   0  0  0  0  0  1  0  0  0  0  0  0
  189.5590  177.9200  144.7850 O   0  0  0  0  0  0  0  0  0  0  0  0
  188.3980  177.4430  144.9100 C   0  0  0  0  0  0  0  0  0  0  0  0
  186.1300  178.9300  146.3290 C   0  0  0  0  0  2  0  0  0  0  0  0
  184.8600  176.7840  146.5310 C   0  0  0  0  0  1  0  0  0  0  0  0
  184.8760  178.2610  146.8760 C   0  0  0  0  0  2  0  0  0  0  0  0
  1 13  2  0  0  0  0
  2 17  1  0  0  0  0
  4 30  1  6  0  0  0
  4 11  1  0  0  0  0
  5  8  2  0  0  0  0
  6 24  1  0  0  0  0
  7  4  1  0  0  0  0
  7 14  1  0  0  0  0
  8 27  1  0  0  0  0
  9 13  1  0  0  0  0
  9  6  1  0  0  0  0
 10  3  2  0  0  0  0
 10 12  1  0  0  0  0
 11 21  1  0  0  0  0
 12 13  1  6  0  0  0
 12 20  1  0  0  0  0
 14 10  1  0  0  0  0
 15 25  2  0  0  0  0
 16 20  1  6  0  0  0
 16  2  1  0  0  0  0
 18 10  2  0  0  0  0
 19 16  1  0  0  0  0
 19 25  1  1  0  0  0
 19 23  1  0  0  0  0
 21 28  1  1  0  0  0
 21 15  1  0  0  0  0
 22  6  2  0  0  0  0
 23 17  1  1  0  0  0
 23  8  1  0  0  0  0
 24 20  2  0  0  0  0
 25  5  1  0  0  0  0
 26 27  1  0  0  0  0
 29 28  1  0  0  0  0
 30 32  1  0  0  0  0
 32 31  1  6  0  0  0
 33 32  1  0  0  0  0
 33 34  1  0  0  0  0
 34 36  1  0  0  0  0
 35 36  1  0  0  0  0
 36 37  1  0  0  0  0
 38 36  1  1  0  0  0
 38 40  1  0  0  0  0
 39 42  1  0  0  0  0
 40 42  2  0  0  0  0
 40 45  1  0  0  0  0
 41 38  1  0  0  0  0
 41 39  2  0  0  0  0
 42 46  1  0  0  0  0
 44 45  2  0  0  0  0
 45 43  1  0  0  0  0
 46 48  1  0  0  0  0
 47 48  1  0  0  0  0
M  END
>  <MODEL>
1

>  <REMARK>
 VINA RESULT:      -7.9      0.000      0.000
  Name = 
  11 active torsions:
  status: ('A' for Active; 'I' for Inactive)
    1  A    between atoms: O_3  and  C_9
    2  A    between atoms: O_3  and  C_44
    3  A    between atoms: C_5  and  C_42
    4  A    between atoms: C_8  and  C_36
    5  A    between atoms: C_9  and  C_36
    6  A    between atoms: C_13  and  O_17
    7  A    between atoms: O_23  and  C_38
    8  A    between atoms: C_32  and  C_48
    9  A    between atoms: C_34  and  C_37
   10  A    between atoms: C_34  and  C_46
   11  A    between atoms: C_42  and  C_44
                            x       y       z     vdW  Elec       q    Type
                         _______ _______ _______ _____ _____    ______ ____

>  <TORSDO>
F 11

$$$$
=
 OpenBabel11062421483D

 48 52  0  0  1  0  0  0  0  0999 V2000
  196.4180  177.1880  143.8310 O   0  0  0  0  0  0  0  0  0  0  0  0
  196.5910  172.4670  144.9060 N   0  0  0  0  0  2  0  0  0  0  0  0
  193.3700  174.4700  145.7140 O   0  0  0  0  0  0  0  0  0  0  0  0
  190.5580  173.7770  142.6950 C   0  0  1  0  0  3  0  0  0  0  0  0
  194.0900  169.5080  144.3150 N   0  0  0  0  0  0  0  0  0  0  0  0
  195.4530  175.0290  141.1210 C   0  0  0  0  0  0  0  0  0  0  0  0
  191.2210  174.7060  143.6990 C   0  0  0  0  0  2  0  0  0  0  0  0
  194.6640  169.7600  145.4420 C   0  0  0  0  0  0  0  0  0  0  0  0
  195.7840  176.2330  141.8090 N   0  0  0  0  0  2  0  0  0  0  0  0
  193.7140  175.3710  144.5620 S   0  0  0  0  0  0  0  0  0  0  0  0
  191.0660  172.3600  142.8980 C   0  0  0  0  0  2  0  0  0  0  0  0
  195.3860  175.0310  144.0130 C   0  0  2  0  0  3  0  0  0  0  0  0
  195.9070  176.2080  143.2310 C   0  0  0  0  0  0  0  0  0  0  0  0
  192.5970  175.0960  143.2010 C   0  0  0  0  0  2  0  0  0  0  0  0
  192.9400  170.8160  142.6730 C   0  0  0  0  0  3  0  0  0  0  0  0
  195.5770  172.4120  143.8660 C   0  0  1  0  0  3  0  0  0  0  0  0
  196.2390  171.5290  145.8950 N   0  0  0  0  0  2  0  0  0  0  0  0
  193.5940  176.8020  145.0090 O   0  0  0  0  0  0  0  0  0  0  0  0
  194.3050  171.9050  144.4970 C   0  0  2  0  0  3  0  0  0  0  0  0
  195.4390  173.7450  143.1970 C   0  0  0  0  0  0  0  0  0  0  0  0
  192.3730  172.0960  142.1590 C   0  0  1  0  0  3  0  0  0  0  0  0
  195.2500  175.0460  139.8820 O   0  0  0  0  0  0  0  0  0  0  0  0
  194.8220  171.2170  145.7510 C   0  0  1  0  0  3  0  0  0  0  0  0
  195.4180  173.7630  141.8610 C   0  0  0  0  0  3  0  0  0  0  0  0
  193.7680  170.7470  143.7160 C   0  0  0  0  0  0  0  0  0  0  0  0
  194.5640  168.5900  147.6070 C   0  0  0  0  0  1  0  0  0  0  0  0
  195.1050  168.7550  146.3060 O   0  0  0  0  0  0  0  0  0  0  0  0
  192.1140  171.9670  140.7920 O   0  0  0  0  0  0  0  0  0  0  0  0
  191.6850  170.7340  140.6480 O   0  0  0  0  0  1  0  0  0  0  0  0
  189.0580  173.7820  142.9180 C   0  0  0  0  0  2  0  0  0  0  0  0
  188.8390  172.8920  140.6920 O   0  0  0  0  0  1  0  0  0  0  0  0
  188.2900  173.8010  141.5930 C   0  0  2  0  0  3  0  0  0  0  0  0
  188.1710  175.0890  141.0240 O   0  0  0  0  0  0  0  0  0  0  0  0
  187.4640  175.9210  141.9150 C   0  0  0  0  0  2  0  0  0  0  0  0
  189.4380  177.1730  142.2140 F   0  0  0  0  0  0  0  0  0  0  0  0
  188.0810  177.3190  141.9950 C   0  0  0  0  0  0  0  0  0  0  0  0
  187.9190  177.9550  140.7770 F   0  0  0  0  0  0  0  0  0  0  0  0
  187.4830  178.1960  143.1160 C   0  0  2  0  0  3  0  0  0  0  0  0
  185.1320  178.1780  143.7990 C   0  0  0  0  0  3  0  0  0  0  0  0
  187.2850  177.4860  144.4200 C   0  0  0  0  0  0  0  0  0  0  0  0
  186.0930  178.7180  142.7450 C   0  0  0  0  0  3  0  0  0  0  0  0
  186.0020  177.4760  144.7750 C   0  0  0  0  0  0  0  0  0  0  0  0
  189.4890  177.7800  145.5320 O   0  0  0  0  0  0  0  0  0  0  0  0
  188.3850  175.7870  145.6910 O   0  0  0  0  0  1  0  0  0  0  0  0
  188.4040  176.9650  145.2400 C   0  0  0  0  0  0  0  0  0  0  0  0
  185.4550  176.9150  146.0560 C   0  0  0  0  0  2  0  0  0  0  0  0
  185.7860  178.9600  147.4590 C   0  0  0  0  0  1  0  0  0  0  0  0
  184.7690  177.9920  146.8860 C   0  0  0  0  0  2  0  0  0  0  0  0
  2 17  1  0  0  0  0
  4 11  1  0  0  0  0
  4 30  1  1  0  0  0
  4  7  1  0  0  0  0
  5  8  2  0  0  0  0
  6  9  1  0  0  0  0
  6 24  1  0  0  0  0
  8 27  1  0  0  0  0
  9 13  1  0  0  0  0
 10 18  2  0  0  0  0
 10  3  2  0  0  0  0
 12 20  1  6  0  0  0
 12 10  1  0  0  0  0
 13  1  2  0  0  0  0
 13 12  1  0  0  0  0
 14  7  1  0  0  0  0
 14 10  1  0  0  0  0
 15 25  2  0  0  0  0
 16 20  1  1  0  0  0
 16 19  1  0  0  0  0
 16  2  1  0  0  0  0
 19 25  1  6  0  0  0
 19 23  1  0  0  0  0
 21 28  1  6  0  0  0
 21 15  1  0  0  0  0
 21 11  1  0  0  0  0
 22  6  2  0  0  0  0
 23  8  1  6  0  0  0
 23 17  1  0  0  0  0
 24 20  2  0  0  0  0
 25  5  1  0  0  0  0
 27 26  1  0  0  0  0
 29 28  1  0  0  0  0
 32 31  1  6  0  0  0
 32 30  1  0  0  0  0
 33 32  1  0  0  0  0
 33 34  1  0  0  0  0
 34 36  1  0  0  0  0
 36 35  1  0  0  0  0
 37 36  1  0  0  0  0
 38 36  1  6  0  0  0
 38 40  1  0  0  0  0
 39 42  1  0  0  0  0
 40 42  2  0  0  0  0
 40 45  1  0  0  0  0
 41 38  1  0  0  0  0
 41 39  2  0  0  0  0
 42 46  1  0  0  0  0
 45 43  2  0  0  0  0
 45 44  1  0  0  0  0
 46 48  1  0  0  0  0
 48 47  1  0  0  0  0
M  END
>  <MODEL>
2

>  <REMARK>
 VINA RESULT:      -7.7      2.310      3.687
  Name = 
  11 active torsions:
  status: ('A' for Active; 'I' for Inactive)
    1  A    between atoms: O_3  and  C_9
    2  A    between atoms: O_3  and  C_44
    3  A    between atoms: C_5  and  C_42
    4  A    between atoms: C_8  and  C_36
    5  A    between atoms: C_9  and  C_36
    6  A    between atoms: C_13  and  O_17
    7  A    between atoms: O_23  and  C_38
    8  A    between atoms: C_32  and  C_48
    9  A    between atoms: C_34  and  C_37
   10  A    between atoms: C_34  and  C_46
   11  A    between atoms: C_42  and  C_44
                            x       y       z     vdW  Elec       q    Type
                         _______ _______ _______ _____ _____    ______ ____

>  <TORSDO>
F 11

$$$$
=
 OpenBabel11062421483D

 48 52  0  0  1  0  0  0  0  0999 V2000
  196.5390  177.1800  143.8550 O   0  0  0  0  0  0  0  0  0  0  0  0
  196.6260  172.4430  144.8680 N   0  0  0  0  0  2  0  0  0  0  0  0
  193.4350  174.4890  145.6830 O   0  0  0  0  0  0  0  0  0  0  0  0
  190.6310  173.8830  142.6390 C   0  0  1  0  0  3  0  0  0  0  0  0
  194.0800  169.5340  144.2230 N   0  0  0  0  0  0  0  0  0  0  0  0
  195.5550  175.0730  141.1100 C   0  0  0  0  0  0  0  0  0  0  0  0
  191.3020  174.7870  143.6590 C   0  0  0  0  0  2  0  0  0  0  0  0
  194.6520  169.7620  145.3570 C   0  0  0  0  0  0  0  0  0  0  0  0
  195.9010  176.2620  141.8170 N   0  0  0  0  0  2  0  0  0  0  0  0
  193.8000  175.3990  144.5450 S   0  0  0  0  0  0  0  0  0  0  0  0
  191.1130  172.4550  142.8250 C   0  0  0  0  0  2  0  0  0  0  0  0
  195.4700  175.0390  144.0020 C   0  0  2  0  0  3  0  0  0  0  0  0
  196.0150  176.2170  143.2380 C   0  0  0  0  0  0  0  0  0  0  0  0
  192.6880  175.1610  143.1740 C   0  0  0  0  0  2  0  0  0  0  0  0
  192.9630  170.8830  142.5910 C   0  0  0  0  0  3  0  0  0  0  0  0
  195.6190  172.4190  143.8210 C   0  0  1  0  0  3  0  0  0  0  0  0
  196.2530  171.4980  145.8420 N   0  0  0  0  0  2  0  0  0  0  0  0
  193.7020  176.8260  145.0100 O   0  0  0  0  0  0  0  0  0  0  0  0
  194.3340  171.9240  144.4380 C   0  0  2  0  0  3  0  0  0  0  0  0
  195.5070  173.7630  143.1690 C   0  0  0  0  0  0  0  0  0  0  0  0
  192.4200  172.1790  142.0910 C   0  0  1  0  0  3  0  0  0  0  0  0
  195.3600  175.1100  139.8710 O   0  0  0  0  0  0  0  0  0  0  0  0
  194.8320  171.2110  145.6850 C   0  0  1  0  0  3  0  0  0  0  0  0
  195.4940  173.7980  141.8330 C   0  0  0  0  0  3  0  0  0  0  0  0
  193.7830  170.7860  143.6380 C   0  0  0  0  0  0  0  0  0  0  0  0
  194.6680  168.6790  147.5680 C   0  0  0  0  0  1  0  0  0  0  0  0
  195.0710  168.7380  146.2090 O   0  0  0  0  0  0  0  0  0  0  0  0
  192.1670  172.0720  140.7210 O   0  0  0  0  0  0  0  0  0  0  0  0
  191.3410  171.0580  140.6110 O   0  0  0  0  0  1  0  0  0  0  0  0
  189.1290  173.9100  142.8530 C   0  0  0  0  0  2  0  0  0  0  0  0
  189.2320  173.9810  140.4480 O   0  0  0  0  0  1  0  0  0  0  0  0
  188.3750  174.1230  141.5370 C   0  0  2  0  0  3  0  0  0  0  0  0
  187.6630  175.3440  141.4820 O   0  0  0  0  0  0  0  0  0  0  0  0
  187.1430  175.6290  142.7610 C   0  0  0  0  0  2  0  0  0  0  0  0
  187.0690  177.7430  141.7220 F   0  0  0  0  0  0  0  0  0  0  0  0
  186.6710  177.0810  142.8670 C   0  0  0  0  0  0  0  0  0  0  0  0
  185.2890  177.1050  142.9070 F   0  0  0  0  0  0  0  0  0  0  0  0
  187.2330  177.8250  144.0980 C   0  0  2  0  0  3  0  0  0  0  0  0
  187.5470  176.8250  146.3110 C   0  0  0  0  0  3  0  0  0  0  0  0
  188.6760  177.5450  144.3860 C   0  0  0  0  0  0  0  0  0  0  0  0
  186.5000  177.4290  145.3820 C   0  0  0  0  0  3  0  0  0  0  0  0
  188.8320  176.9940  145.5880 C   0  0  0  0  0  0  0  0  0  0  0  0
  190.7880  178.7770  143.9300 O   0  0  0  0  0  1  0  0  0  0  0  0
  189.8210  177.5180  142.2880 O   0  0  0  0  0  0  0  0  0  0  0  0
  189.7770  177.9410  143.4760 C   0  0  0  0  0  0  0  0  0  0  0  0
  190.1470  176.6520  146.2270 C   0  0  0  0  0  2  0  0  0  0  0  0
  191.2080  175.4050  148.1190 C   0  0  0  0  0  1  0  0  0  0  0  0
  190.0060  175.4870  147.1970 C   0  0  0  0  0  2  0  0  0  0  0  0
  2 17  1  0  0  0  0
  4 11  1  0  0  0  0
  4 30  1  1  0  0  0
  4  7  1  0  0  0  0
  5  8  2  0  0  0  0
  6  9  1  0  0  0  0
  6 24  1  0  0  0  0
  8 27  1  0  0  0  0
  9 13  1  0  0  0  0
 10 18  2  0  0  0  0
 10  3  2  0  0  0  0
 12 20  1  6  0  0  0
 12 10  1  0  0  0  0
 13  1  2  0  0  0  0
 13 12  1  0  0  0  0
 14  7  1  0  0  0  0
 14 10  1  0  0  0  0
 15 25  2  0  0  0  0
 16 20  1  1  0  0  0
 16 19  1  0  0  0  0
 16  2  1  0  0  0  0
 19 25  1  6  0  0  0
 19 23  1  0  0  0  0
 21 28  1  6  0  0  0
 21 15  1  0  0  0  0
 21 11  1  0  0  0  0
 22  6  2  0  0  0  0
 23  8  1  6  0  0  0
 23 17  1  0  0  0  0
 24 20  2  0  0  0  0
 25  5  1  0  0  0  0
 27 26  1  0  0  0  0
 29 28  1  0  0  0  0
 32 31  1  6  0  0  0
 32 30  1  0  0  0  0
 33 32  1  0  0  0  0
 33 34  1  0  0  0  0
 34 36  1  0  0  0  0
 35 36  1  0  0  0  0
 36 37  1  0  0  0  0
 38 36  1  6  0  0  0
 38 40  1  0  0  0  0
 38 41  1  0  0  0  0
 40 42  2  0  0  0  0
 41 39  2  0  0  0  0
 42 46  1  0  0  0  0
 42 39  1  0  0  0  0
 44 45  2  0  0  0  0
 45 43  1  0  0  0  0
 45 40  1  0  0  0  0
 46 48  1  0  0  0  0
 48 47  1  0  0  0  0
M  END
>  <MODEL>
3

>  <REMARK>
 VINA RESULT:      -7.6      2.384      4.039
  Name = 
  11 active torsions:
  status: ('A' for Active; 'I' for Inactive)
    1  A    between atoms: O_3  and  C_9
    2  A    between atoms: O_3  and  C_44
    3  A    between atoms: C_5  and  C_42
    4  A    between atoms: C_8  and  C_36
    5  A    between atoms: C_9  and  C_36
    6  A    between atoms: C_13  and  O_17
    7  A    between atoms: O_23  and  C_38
    8  A    between atoms: C_32  and  C_48
    9  A    between atoms: C_34  and  C_37
   10  A    between atoms: C_34  and  C_46
   11  A    between atoms: C_42  and  C_44
                            x       y       z     vdW  Elec       q    Type
                         _______ _______ _______ _____ _____    ______ ____

>  <TORSDO>
F 11

$$$$
=
 OpenBabel11062421483D

 48 52  0  0  1  0  0  0  0  0999 V2000
  197.7410  176.9070  143.1580 O   0  0  0  0  0  0  0  0  0  0  0  0
  197.5160  172.2580  144.5040 N   0  0  0  0  0  2  0  0  0  0  0  0
  194.8490  174.7390  145.8330 O   0  0  0  0  0  0  0  0  0  0  0  0
  191.3740  174.3420  143.5380 C   0  0  1  0  0  3  0  0  0  0  0  0
  194.5750  169.6730  144.6700 N   0  0  0  0  0  0  0  0  0  0  0  0
  195.9240  174.8030  140.8750 C   0  0  0  0  0  0  0  0  0  0  0  0
  192.3590  175.2040  144.3090 C   0  0  0  0  0  2  0  0  0  0  0  0
  195.4120  169.8840  145.6280 C   0  0  0  0  0  0  0  0  0  0  0  0
  196.5560  175.9730  141.3900 N   0  0  0  0  0  2  0  0  0  0  0  0
  195.0470  175.5330  144.5740 S   0  0  0  0  0  0  0  0  0  0  0  0
  191.7200  172.8750  143.7280 C   0  0  0  0  0  2  0  0  0  0  0  0
  196.4970  174.9320  143.7080 C   0  0  2  0  0  3  0  0  0  0  0  0
  196.9840  175.9880  142.7510 C   0  0  0  0  0  0  0  0  0  0  0  0
  193.6310  175.3700  143.5040 C   0  0  0  0  0  2  0  0  0  0  0  0
  193.2770  171.0670  143.2200 C   0  0  0  0  0  3  0  0  0  0  0  0
  196.3000  172.3090  143.7100 C   0  0  1  0  0  3  0  0  0  0  0  0
  197.2690  171.4220  145.6090 N   0  0  0  0  0  2  0  0  0  0  0  0
  195.2210  176.9830  144.9330 O   0  0  0  0  0  0  0  0  0  0  0  0
  195.1420  172.0180  144.6310 C   0  0  2  0  0  3  0  0  0  0  0  0
  196.1970  173.6200  142.9920 C   0  0  0  0  0  0  0  0  0  0  0  0
  192.7860  172.3950  142.7490 C   0  0  1  0  0  3  0  0  0  0  0  0
  195.4580  174.8000  139.7090 O   0  0  0  0  0  0  0  0  0  0  0  0
  195.8260  171.3130  145.7920 C   0  0  1  0  0  3  0  0  0  0  0  0
  195.8840  173.5870  141.6930 C   0  0  0  0  0  3  0  0  0  0  0  0
  194.2970  170.9200  144.0660 C   0  0  0  0  0  0  0  0  0  0  0  0
  195.2120  168.4540  147.6230 C   0  0  0  0  0  1  0  0  0  0  0  0
  195.8940  168.8610  146.4470 O   0  0  0  0  0  0  0  0  0  0  0  0
  192.2170  172.2490  141.4810 O   0  0  0  0  0  0  0  0  0  0  0  0
  193.2370  172.0700  140.6750 O   0  0  0  0  0  1  0  0  0  0  0  0
  189.9740  174.5740  144.0730 C   0  0  0  0  0  2  0  0  0  0  0  0
  189.4350  172.7240  145.5170 O   0  0  0  0  0  1  0  0  0  0  0  0
  189.8260  174.0620  145.5090 C   0  0  2  0  0  3  0  0  0  0  0  0
  188.9740  174.8560  146.3100 O   0  0  0  0  0  0  0  0  0  0  0  0
  189.7060  175.9530  146.8080 C   0  0  0  0  0  2  0  0  0  0  0  0
  189.2130  178.1180  147.5980 F   0  0  0  0  0  0  0  0  0  0  0  0
  189.0020  177.2810  146.5190 C   0  0  0  0  0  0  0  0  0  0  0  0
  189.5850  177.8690  145.4110 F   0  0  0  0  0  0  0  0  0  0  0  0
  187.4830  177.1360  146.2840 C   0  0  2  0  0  3  0  0  0  0  0  0
  185.8340  178.9020  146.6800 C   0  0  0  0  0  3  0  0  0  0  0  0
  186.9930  177.7410  145.0050 C   0  0  0  0  0  0  0  0  0  0  0  0
  186.6720  177.8350  147.3770 C   0  0  0  0  0  3  0  0  0  0  0  0
  186.1040  178.7040  145.2350 C   0  0  0  0  0  0  0  0  0  0  0  0
  188.1820  178.0160  142.8380 O   0  0  0  0  0  0  0  0  0  0  0  0
  187.0130  176.1010  143.2650 O   0  0  0  0  0  1  0  0  0  0  0  0
  187.3850  177.2380  143.6660 C   0  0  0  0  0  0  0  0  0  0  0  0
  185.3570  179.4720  144.1810 C   0  0  0  0  0  2  0  0  0  0  0  0
  184.0420  178.2190  142.4590 C   0  0  0  0  0  1  0  0  0  0  0  0
  184.0230  178.8120  143.8560 C   0  0  0  0  0  2  0  0  0  0  0  0
  2 17  1  0  0  0  0
  4 11  1  0  0  0  0
  4 30  1  1  0  0  0
  4  7  1  0  0  0  0
  5  8  2  0  0  0  0
  6  9  1  0  0  0  0
  6 24  1  0  0  0  0
  8 23  1  0  0  0  0
  8 27  1  0  0  0  0
  9 13  1  0  0  0  0
 10 18  2  0  0  0  0
 10  3  2  0  0  0  0
 12 13  1  6  0  0  0
 12 10  1  0  0  0  0
 13  1  2  0  0  0  0
 14  7  1  0  0  0  0
 14 10  1  0  0  0  0
 15 25  2  0  0  0  0
 16 20  1  1  0  0  0
 16  2  1  0  0  0  0
 16 19  1  0  0  0  0
 19 25  1  6  0  0  0
 19 23  1  0  0  0  0
 20 12  1  0  0  0  0
 21 28  1  6  0  0  0
 21 15  1  0  0  0  0
 21 11  1  0  0  0  0
 22  6  2  0  0  0  0
 23 17  1  6  0  0  0
 24 20  2  0  0  0  0
 25  5  1  0  0  0  0
 27 26  1  0  0  0  0
 29 28  1  0  0  0  0
 30 32  1  0  0  0  0
 32 31  1  6  0  0  0
 32 33  1  0  0  0  0
 33 34  1  0  0  0  0
 36 34  1  0  0  0  0
 36 35  1  0  0  0  0
 37 36  1  0  0  0  0
 38 36  1  1  0  0  0
 38 41  1  0  0  0  0
 39 41  2  0  0  0  0
 40 42  2  0  0  0  0
 40 38  1  0  0  0  0
 42 39  1  0  0  0  0
 43 45  2  0  0  0  0
 44 45  1  0  0  0  0
 45 40  1  0  0  0  0
 46 42  1  0  0  0  0
 47 48  1  0  0  0  0
 48 46  1  0  0  0  0
M  END
>  <MODEL>
4

>  <REMARK>
 VINA RESULT:      -7.5      2.714      4.456
  Name = 
  11 active torsions:
  status: ('A' for Active; 'I' for Inactive)
    1  A    between atoms: O_3  and  C_9
    2  A    between atoms: O_3  and  C_44
    3  A    between atoms: C_5  and  C_42
    4  A    between atoms: C_8  and  C_36
    5  A    between atoms: C_9  and  C_36
    6  A    between atoms: C_13  and  O_17
    7  A    between atoms: O_23  and  C_38
    8  A    between atoms: C_32  and  C_48
    9  A    between atoms: C_34  and  C_37
   10  A    between atoms: C_34  and  C_46
   11  A    between atoms: C_42  and  C_44
                            x       y       z     vdW  Elec       q    Type
                         _______ _______ _______ _____ _____    ______ ____

>  <TORSDO>
F 11

$$$$
=
 OpenBabel11062421483D

 48 52  0  0  1  0  0  0  0  0999 V2000
  197.4560  174.7000  140.1310 O   0  0  0  0  0  0  0  0  0  0  0  0
  195.8010  175.7240  144.5680 N   0  0  0  0  0  2  0  0  0  0  0  0
  193.4300  176.1350  141.5280 O   0  0  0  0  0  0  0  0  0  0  0  0
  190.9590  172.7690  141.2800 C   0  0  1  0  0  3  0  0  0  0  0  0
  192.5070  174.7740  146.4670 N   0  0  0  0  0  0  0  0  0  0  0  0
  196.1350  171.8580  141.8970 C   0  0  0  0  0  0  0  0  0  0  0  0
  191.7760  173.8630  140.6130 C   0  0  0  0  0  2  0  0  0  0  0  0
  192.9870  175.9700  146.3970 C   0  0  0  0  0  0  0  0  0  0  0  0
  196.7830  172.6000  140.8670 N   0  0  0  0  0  2  0  0  0  0  0  0
  194.2130  175.0500  140.8470 S   0  0  0  0  0  0  0  0  0  0  0  0
  190.8990  173.0160  142.7780 C   0  0  0  0  0  2  0  0  0  0  0  0
  195.7100  174.7180  141.7750 C   0  0  2  0  0  3  0  0  0  0  0  0
  196.7090  174.0250  140.8860 C   0  0  0  0  0  0  0  0  0  0  0  0
  193.2530  173.5520  140.7530 C   0  0  0  0  0  2  0  0  0  0  0  0
  192.1150  173.0150  144.8920 C   0  0  0  0  0  3  0  0  0  0  0  0
  194.9740  174.5610  144.2950 C   0  0  1  0  0  3  0  0  0  0  0  0
  195.0180  176.6460  145.2870 N   0  0  0  0  0  2  0  0  0  0  0  0
  194.5560  175.4970  139.4520 O   0  0  0  0  0  0  0  0  0  0  0  0
  193.5360  175.0150  144.2970 C   0  0  2  0  0  3  0  0  0  0  0  0
  195.4050  173.8980  143.0230 C   0  0  0  0  0  0  0  0  0  0  0  0
  192.1090  172.4490  143.5110 C   0  0  1  0  0  3  0  0  0  0  0  0
  196.1090  170.6040  141.8510 O   0  0  0  0  0  0  0  0  0  0  0  0
  193.6120  176.3150  145.0810 C   0  0  1  0  0  3  0  0  0  0  0  0
  195.5590  172.5700  143.0430 C   0  0  0  0  0  3  0  0  0  0  0  0
  192.7250  174.1550  145.2150 C   0  0  0  0  0  0  0  0  0  0  0  0
  191.7330  177.0950  148.1930 C   0  0  0  0  0  1  0  0  0  0  0  0
  192.9290  176.8690  147.4630 O   0  0  0  0  0  0  0  0  0  0  0  0
  191.9950  171.0590  143.5860 O   0  0  0  0  0  0  0  0  0  0  0  0
  192.8890  170.6970  144.4770 O   0  0  0  0  0  1  0  0  0  0  0  0
  189.5430  172.7960  140.7360 C   0  0  0  0  0  2  0  0  0  0  0  0
  187.4590  172.8300  141.9410 O   0  0  0  0  0  1  0  0  0  0  0  0
  188.5990  173.5770  141.6550 C   0  0  2  0  0  3  0  0  0  0  0  0
  188.2690  174.8630  141.1680 O   0  0  0  0  0  0  0  0  0  0  0  0
  187.3340  175.4560  142.0400 C   0  0  0  0  0  2  0  0  0  0  0  0
  188.1880  177.3360  140.9040 F   0  0  0  0  0  0  0  0  0  0  0  0
  187.1800  176.9550  141.7690 C   0  0  0  0  0  0  0  0  0  0  0  0
  185.9730  177.1770  141.1310 F   0  0  0  0  0  0  0  0  0  0  0  0
  187.2550  177.8240  143.0430 C   0  0  2  0  0  3  0  0  0  0  0  0
  186.3320  177.1930  145.2210 C   0  0  0  0  0  3  0  0  0  0  0  0
  188.3260  177.4190  144.0080 C   0  0  0  0  0  0  0  0  0  0  0  0
  185.9590  177.7540  143.8530 C   0  0  0  0  0  3  0  0  0  0  0  0
  187.8100  177.0700  145.1840 C   0  0  0  0  0  0  0  0  0  0  0  0
  190.4310  176.4220  143.1350 O   0  0  0  0  0  0  0  0  0  0  0  0
  190.4240  178.5630  143.9310 O   0  0  0  0  0  1  0  0  0  0  0  0
  189.7740  177.5070  143.6990 C   0  0  0  0  0  0  0  0  0  0  0  0
  188.5990  176.6810  146.4020 C   0  0  0  0  0  2  0  0  0  0  0  0
  188.9410  174.5290  147.6330 C   0  0  0  0  0  1  0  0  0  0  0  0
  189.0970  175.2450  146.3050 C   0  0  0  0  0  2  0  0  0  0  0  0
  1 13  2  0  0  0  0
  2 17  1  0  0  0  0
  4 30  1  6  0  0  0
  4 11  1  0  0  0  0
  6 24  1  0  0  0  0
  7 14  1  0  0  0  0
  7  4  1  0  0  0  0
  8  5  2  0  0  0  0
  8 27  1  0  0  0  0
  9 13  1  0  0  0  0
  9  6  1  0  0  0  0
 10  3  2  0  0  0  0
 10 12  1  0  0  0  0
 11 21  1  0  0  0  0
 12 13  1  6  0  0  0
 12 20  1  0  0  0  0
 14 10  1  0  0  0  0
 15 25  2  0  0  0  0
 16 20  1  6  0  0  0
 16 19  1  0  0  0  0
 16  2  1  0  0  0  0
 18 10  2  0  0  0  0
 19 23  1  0  0  0  0
 19 25  1  1  0  0  0
 20 24  2  0  0  0  0
 21 28  1  1  0  0  0
 21 15  1  0  0  0  0
 22  6  2  0  0  0  0
 23 17  1  1  0  0  0
 23  8  1  0  0  0  0
 25  5  1  0  0  0  0
 27 26  1  0  0  0  0
 28 29  1  0  0  0  0
 30 32  1  0  0  0  0
 32 31  1  6  0  0  0
 33 32  1  0  0  0  0
 33 34  1  0  0  0  0
 35 36  1  0  0  0  0
 36 34  1  0  0  0  0
 37 36  1  0  0  0  0
 38 36  1  6  0  0  0
 38 41  1  0  0  0  0
 38 40  1  0  0  0  0
 40 42  2  0  0  0  0
 41 39  2  0  0  0  0
 42 39  1  0  0  0  0
 42 46  1  0  0  0  0
 43 45  2  0  0  0  0
 45 44  1  0  0  0  0
 45 40  1  0  0  0  0
 48 46  1  0  0  0  0
 48 47  1  0  0  0  0
M  END
>  <MODEL>
5

>  <REMARK>
 VINA RESULT:      -7.4      1.409      1.875
  Name = 
  11 active torsions:
  status: ('A' for Active; 'I' for Inactive)
    1  A    between atoms: O_3  and  C_9
    2  A    between atoms: O_3  and  C_44
    3  A    between atoms: C_5  and  C_42
    4  A    between atoms: C_8  and  C_36
    5  A    between atoms: C_9  and  C_36
    6  A    between atoms: C_13  and  O_17
    7  A    between atoms: O_23  and  C_38
    8  A    between atoms: C_32  and  C_48
    9  A    between atoms: C_34  and  C_37
   10  A    between atoms: C_34  and  C_46
   11  A    between atoms: C_42  and  C_44
                            x       y       z     vdW  Elec       q    Type
                         _______ _______ _______ _____ _____    ______ ____

>  <TORSDO>
F 11

$$$$
=
 OpenBabel11062421483D

 48 52  0  0  1  0  0  0  0  0999 V2000
  197.7030  174.0560  143.5220 O   0  0  0  0  0  0  0  0  0  0  0  0
  194.5030  175.7460  146.7450 N   0  0  0  0  0  2  0  0  0  0  0  0
  193.8700  176.3400  142.9660 O   0  0  0  0  0  0  0  0  0  0  0  0
  191.1280  173.4950  141.5940 C   0  0  1  0  0  3  0  0  0  0  0  0
  190.5920  175.6020  146.9410 N   0  0  0  0  0  0  0  0  0  0  0  0
  195.1790  171.6760  144.4730 C   0  0  0  0  0  0  0  0  0  0  0  0
  192.3630  174.3530  141.3800 C   0  0  0  0  0  2  0  0  0  0  0  0
  191.2890  176.6740  147.1080 C   0  0  0  0  0  0  0  0  0  0  0  0
  196.3540  172.1910  143.8530 N   0  0  0  0  0  2  0  0  0  0  0  0
  194.6300  175.0730  142.7000 S   0  0  0  0  0  0  0  0  0  0  0  0
  190.4630  173.8740  142.9060 C   0  0  0  0  0  2  0  0  0  0  0  0
  195.4550  174.5430  144.2010 C   0  0  2  0  0  3  0  0  0  0  0  0
  196.5770  173.6010  143.8520 C   0  0  0  0  0  0  0  0  0  0  0  0
  193.5240  173.7820  142.1670 C   0  0  0  0  0  2  0  0  0  0  0  0
  190.5840  173.8220  145.3410 C   0  0  0  0  0  3  0  0  0  0  0  0
  193.6630  174.7420  146.1160 C   0  0  1  0  0  3  0  0  0  0  0  0
  193.6920  176.8580  147.0420 N   0  0  0  0  0  2  0  0  0  0  0  0
  195.6400  175.3270  141.6150 O   0  0  0  0  0  0  0  0  0  0  0  0
  192.5010  175.4590  145.4730 C   0  0  2  0  0  3  0  0  0  0  0  0
  194.4650  173.9040  145.1680 C   0  0  0  0  0  0  0  0  0  0  0  0
  191.0750  173.1530  144.1010 C   0  0  1  0  0  3  0  0  0  0  0  0
  194.9170  170.4500  144.4070 O   0  0  0  0  0  0  0  0  0  0  0  0
  192.4890  176.7830  146.2200 C   0  0  1  0  0  3  0  0  0  0  0  0
  194.3150  172.5780  145.2420 C   0  0  0  0  0  3  0  0  0  0  0  0
  191.2090  174.8490  145.9160 C   0  0  0  0  0  0  0  0  0  0  0  0
  191.5270  177.6880  149.3400 C   0  0  0  0  0  1  0  0  0  0  0  0
  190.9520  177.6550  148.0430 O   0  0  0  0  0  0  0  0  0  0  0  0
  190.6540  171.8200  144.1020 O   0  0  0  0  0  0  0  0  0  0  0  0
  189.3420  171.8830  144.1220 O   0  0  0  0  0  1  0  0  0  0  0  0
  190.1400  173.7430  140.4690 C   0  0  0  0  0  2  0  0  0  0  0  0
  188.3530  172.2070  139.9740 O   0  0  0  0  0  1  0  0  0  0  0  0
  188.7390  173.2390  140.8270 C   0  0  2  0  0  3  0  0  0  0  0  0
  187.7640  174.2620  140.8790 O   0  0  0  0  0  0  0  0  0  0  0  0
  188.4140  175.5110  140.9510 C   0  0  0  0  0  2  0  0  0  0  0  0
  188.1200  177.8400  141.1550 F   0  0  0  0  0  0  0  0  0  0  0  0
  187.4230  176.6480  141.2100 C   0  0  0  0  0  0  0  0  0  0  0  0
  186.4810  176.6670  140.1980 F   0  0  0  0  0  0  0  0  0  0  0  0
  186.7090  176.5470  142.5750 C   0  0  2  0  0  3  0  0  0  0  0  0
  187.5870  177.4340  144.6810 C   0  0  0  0  0  3  0  0  0  0  0  0
  185.9960  177.7950  142.9970 C   0  0  0  0  0  0  0  0  0  0  0  0
  187.6950  176.2630  143.7100 C   0  0  0  0  0  3  0  0  0  0  0  0
  186.4890  178.2710  144.1380 C   0  0  0  0  0  0  0  0  0  0  0  0
  185.0060  179.0270  141.0760 O   0  0  0  0  0  0  0  0  0  0  0  0
  183.6560  178.1980  142.7220 O   0  0  0  0  0  1  0  0  0  0  0  0
  184.8260  178.3460  142.2730 C   0  0  0  0  0  0  0  0  0  0  0  0
  185.9650  179.4650  144.8840 C   0  0  0  0  0  2  0  0  0  0  0  0
  183.9420  178.6050  146.0810 C   0  0  0  0  0  1  0  0  0  0  0  0
  185.3810  179.0640  146.2320 C   0  0  0  0  0  2  0  0  0  0  0  0
  1 13  2  0  0  0  0
  2 17  1  0  0  0  0
  4 30  1  6  0  0  0
  4 11  1  0  0  0  0
  5  8  2  0  0  0  0
  6 24  1  0  0  0  0
  7  4  1  0  0  0  0
  7 14  1  0  0  0  0
  8 27  1  0  0  0  0
  9  6  1  0  0  0  0
 10  3  2  0  0  0  0
 10 12  1  0  0  0  0
 11 21  1  0  0  0  0
 12 13  1  6  0  0  0
 12 20  1  0  0  0  0
 13  9  1  0  0  0  0
 14 10  1  0  0  0  0
 15 25  2  0  0  0  0
 16 20  1  6  0  0  0
 16  2  1  0  0  0  0
 18 10  2  0  0  0  0
 19 25  1  1  0  0  0
 19 16  1  0  0  0  0
 19 23  1  0  0  0  0
 20 24  2  0  0  0  0
 21 28  1  1  0  0  0
 21 15  1  0  0  0  0
 22  6  2  0  0  0  0
 23 17  1  1  0  0  0
 23  8  1  0  0  0  0
 25  5  1  0  0  0  0
 27 26  1  0  0  0  0
 28 29  1  0  0  0  0
 30 32  1  0  0  0  0
 32 31  1  6  0  0  0
 32 33  1  0  0  0  0
 33 34  1  0  0  0  0
 34 36  1  0  0  0  0
 35 36  1  0  0  0  0
 37 36  1  0  0  0  0
 38 36  1  6  0  0  0
 38 40  1  0  0  0  0
 38 41  1  0  0  0  0
 40 42  2  0  0  0  0
 41 39  2  0  0  0  0
 42 39  1  0  0  0  0
 42 46  1  0  0  0  0
 43 45  2  0  0  0  0
 45 44  1  0  0  0  0
 45 40  1  0  0  0  0
 46 48  1  0  0  0  0
 47 48  1  0  0  0  0
M  END
>  <MODEL>
6

>  <REMARK>
 VINA RESULT:      -7.2      1.516      2.002
  Name = 
  11 active torsions:
  status: ('A' for Active; 'I' for Inactive)
    1  A    between atoms: O_3  and  C_9
    2  A    between atoms: O_3  and  C_44
    3  A    between atoms: C_5  and  C_42
    4  A    between atoms: C_8  and  C_36
    5  A    between atoms: C_9  and  C_36
    6  A    between atoms: C_13  and  O_17
    7  A    between atoms: O_23  and  C_38
    8  A    between atoms: C_32  and  C_48
    9  A    between atoms: C_34  and  C_37
   10  A    between atoms: C_34  and  C_46
   11  A    between atoms: C_42  and  C_44
                            x       y       z     vdW  Elec       q    Type
                         _______ _______ _______ _____ _____    ______ ____

>  <TORSDO>
F 11

$$$$
=
 OpenBabel11062421483D

 48 52  0  0  1  0  0  0  0  0999 V2000
  192.5520  168.9870  142.9470 O   0  0  0  0  0  0  0  0  0  0  0  0
  195.8560  171.8580  140.8690 N   0  0  0  0  0  2  0  0  0  0  0  0
  192.4030  173.3390  141.8280 O   0  0  0  0  0  0  0  0  0  0  0  0
  192.7730  175.3830  145.4580 C   0  0  1  0  0  3  0  0  0  0  0  0
  197.1550  175.4610  141.7020 N   0  0  0  0  0  0  0  0  0  0  0  0
  194.8380  170.5140  145.2680 C   0  0  0  0  0  0  0  0  0  0  0  0
  191.9760  174.5020  144.5110 C   0  0  0  0  0  2  0  0  0  0  0  0
  196.7890  175.0740  140.5280 C   0  0  0  0  0  0  0  0  0  0  0  0
  193.7930  169.6710  144.7910 N   0  0  0  0  0  2  0  0  0  0  0  0
  192.3380  172.3190  142.9270 S   0  0  0  0  0  0  0  0  0  0  0  0
  194.0360  175.8660  144.7680 C   0  0  0  0  0  2  0  0  0  0  0  0
  193.6410  171.1100  142.7020 C   0  0  2  0  0  3  0  0  0  0  0  0
  193.3010  169.8560  143.4640 C   0  0  0  0  0  0  0  0  0  0  0  0
  192.5490  173.1000  144.5150 C   0  0  0  0  0  2  0  0  0  0  0  0
  196.2390  175.2740  143.9060 C   0  0  0  0  0  3  0  0  0  0  0  0
  195.8190  172.4880  142.1780 C   0  0  1  0  0  3  0  0  0  0  0  0
  196.0120  172.8760  139.9100 N   0  0  0  0  0  2  0  0  0  0  0  0
  190.9930  171.6470  142.8910 O   0  0  0  0  0  0  0  0  0  0  0  0
  195.3340  173.9030  141.9890 C   0  0  2  0  0  3  0  0  0  0  0  0
  194.9900  171.6780  143.1270 C   0  0  0  0  0  0  0  0  0  0  0  0
  195.1780  174.8610  144.8690 C   0  0  1  0  0  3  0  0  0  0  0  0
  195.2230  170.4300  146.4590 O   0  0  0  0  0  0  0  0  0  0  0  0
  195.6160  174.1430  140.5140 C   0  0  1  0  0  3  0  0  0  0  0  0
  195.5030  171.4340  144.3370 C   0  0  0  0  0  3  0  0  0  0  0  0
  196.2800  174.8640  142.6380 C   0  0  0  0  0  0  0  0  0  0  0  0
  196.8640  175.2970  138.0760 C   0  0  0  0  0  1  0  0  0  0  0  0
  197.4350  175.4880  139.3620 O   0  0  0  0  0  0  0  0  0  0  0  0
  195.7000  174.8830  146.1650 O   0  0  0  0  0  0  0  0  0  0  0  0
  196.7430  174.0880  146.1190 O   0  0  0  0  0  1  0  0  0  0  0  0
  191.9430  176.5960  145.8360 C   0  0  0  0  0  2  0  0  0  0  0  0
  191.7290  175.3070  147.8590 O   0  0  0  0  0  1  0  0  0  0  0  0
  191.5650  176.5820  147.3210 C   0  0  2  0  0  3  0  0  0  0  0  0
  190.2750  177.0950  147.5830 O   0  0  0  0  0  0  0  0  0  0  0  0
  189.5080  177.0310  146.4020 C   0  0  0  0  0  2  0  0  0  0  0  0
  189.0000  174.9380  145.4470 F   0  0  0  0  0  0  0  0  0  0  0  0
  188.5600  175.8290  146.4070 C   0  0  0  0  0  0  0  0  0  0  0  0
  188.6390  175.1970  147.6340 F   0  0  0  0  0  0  0  0  0  0  0  0
  187.0900  176.2000  146.1140 C   0  0  2  0  0  3  0  0  0  0  0  0
  186.0000  178.2680  146.8390 C   0  0  0  0  0  3  0  0  0  0  0  0
  186.9070  177.1620  144.9810 C   0  0  0  0  0  0  0  0  0  0  0  0
  186.4300  176.8840  147.3120 C   0  0  0  0  0  3  0  0  0  0  0  0
  186.3220  178.2850  145.3900 C   0  0  0  0  0  0  0  0  0  0  0  0
  187.9950  177.7250  142.8160 O   0  0  0  0  0  0  0  0  0  0  0  0
  186.8740  175.7490  143.0530 O   0  0  0  0  0  1  0  0  0  0  0  0
  187.2470  176.8360  143.5750 C   0  0  0  0  0  0  0  0  0  0  0  0
  185.9220  179.4320  144.5070 C   0  0  0  0  0  2  0  0  0  0  0  0
  184.0660  178.4490  143.1460 C   0  0  0  0  0  1  0  0  0  0  0  0
  184.4210  179.4340  144.2440 C   0  0  0  0  0  2  0  0  0  0  0  0
  1 13  2  0  0  0  0
  3 10  2  0  0  0  0
  4 30  1  6  0  0  0
  5 25  1  0  0  0  0
  6 22  2  0  0  0  0
  7 14  1  0  0  0  0
  7  4  1  0  0  0  0
  8  5  2  0  0  0  0
  9  6  1  0  0  0  0
 10 14  1  0  0  0  0
 11 21  1  0  0  0  0
 11  4  1  0  0  0  0
 12 10  1  0  0  0  0
 12 20  1  1  0  0  0
 12 13  1  0  0  0  0
 13  9  1  0  0  0  0
 15 21  1  0  0  0  0
 16  2  1  6  0  0  0
 16 20  1  0  0  0  0
 17  2  1  0  0  0  0
 18 10  2  0  0  0  0
 19 16  1  0  0  0  0
 19 25  1  1  0  0  0
 20 24  2  0  0  0  0
 21 28  1  1  0  0  0
 23 17  1  6  0  0  0
 23  8  1  0  0  0  0
 23 19  1  0  0  0  0
 24  6  1  0  0  0  0
 25 15  2  0  0  0  0
 26 27  1  0  0  0  0
 27  8  1  0  0  0  0
 29 28  1  0  0  0  0
 30 32  1  0  0  0  0
 32 33  1  0  0  0  0
 32 31  1  6  0  0  0
 34 36  1  0  0  0  0
 34 33  1  0  0  0  0
 35 36  1  0  0  0  0
 36 37  1  0  0  0  0
 38 36  1  1  0  0  0
 38 41  1  0  0  0  0
 39 41  2  0  0  0  0
 40 42  2  0  0  0  0
 40 38  1  0  0  0  0
 42 39  1  0  0  0  0
 43 45  2  0  0  0  0
 44 45  1  0  0  0  0
 45 40  1  0  0  0  0
 46 42  1  0  0  0  0
 47 48  1  0  0  0  0
 48 46  1  0  0  0  0
M  END
>  <MODEL>
7

>  <REMARK>
 VINA RESULT:      -7.2      2.749      5.570
  Name = 
  11 active torsions:
  status: ('A' for Active; 'I' for Inactive)
    1  A    between atoms: O_3  and  C_9
    2  A    between atoms: O_3  and  C_44
    3  A    between atoms: C_5  and  C_42
    4  A    between atoms: C_8  and  C_36
    5  A    between atoms: C_9  and  C_36
    6  A    between atoms: C_13  and  O_17
    7  A    between atoms: O_23  and  C_38
    8  A    between atoms: C_32  and  C_48
    9  A    between atoms: C_34  and  C_37
   10  A    between atoms: C_34  and  C_46
   11  A    between atoms: C_42  and  C_44
                            x       y       z     vdW  Elec       q    Type
                         _______ _______ _______ _____ _____    ______ ____

>  <TORSDO>
F 11

$$$$
=
 OpenBabel11062421483D

 48 52  0  0  1  0  0  0  0  0999 V2000
  196.1460  168.8380  142.7010 O   0  0  0  0  0  0  0  0  0  0  0  0
  192.3610  170.6950  140.3140 N   0  0  0  0  0  2  0  0  0  0  0  0
  192.2970  170.6220  144.1900 O   0  0  0  0  0  0  0  0  0  0  0  0
  193.3660  174.4020  145.6280 C   0  0  1  0  0  3  0  0  0  0  0  0
  190.2810  173.9850  140.7670 N   0  0  0  0  0  0  0  0  0  0  0  0
  196.4880  172.3260  141.8930 C   0  0  0  0  0  0  0  0  0  0  0  0
  193.3960  172.8870  145.7390 C   0  0  0  0  0  2  0  0  0  0  0  0
  189.7640  172.8120  140.6240 C   0  0  0  0  0  0  0  0  0  0  0  0
  196.8450  171.0290  142.3650 N   0  0  0  0  0  2  0  0  0  0  0  0
  193.7960  170.7100  144.1570 S   0  0  0  0  0  0  0  0  0  0  0  0
  192.4260  174.8140  144.5080 C   0  0  0  0  0  2  0  0  0  0  0  0
  194.3750  170.4390  142.4820 C   0  0  2  0  0  3  0  0  0  0  0  0
  195.8270  170.0400  142.5110 C   0  0  0  0  0  0  0  0  0  0  0  0
  194.3380  172.3180  144.6980 C   0  0  0  0  0  2  0  0  0  0  0  0
  192.0420  174.9060  142.1020 C   0  0  0  0  0  3  0  0  0  0  0  0
  192.8380  171.9150  140.9410 C   0  0  1  0  0  3  0  0  0  0  0  0
  190.9540  170.7400  140.3040 N   0  0  0  0  0  2  0  0  0  0  0  0
  194.3670  169.6670  145.0780 O   0  0  0  0  0  0  0  0  0  0  0  0
  191.7480  172.4110  141.8590 C   0  0  2  0  0  3  0  0  0  0  0  0
  194.1500  171.6780  141.6230 C   0  0  0  0  0  0  0  0  0  0  0  0
  193.1050  174.8070  143.1440 C   0  0  1  0  0  3  0  0  0  0  0  0
  197.3490  173.2390  141.8440 O   0  0  0  0  0  0  0  0  0  0  0  0
  190.5180  171.7110  141.3020 C   0  0  1  0  0  3  0  0  0  0  0  0
  195.1250  172.5650  141.4040 C   0  0  0  0  0  3  0  0  0  0  0  0
  191.4390  173.8450  141.5660 C   0  0  0  0  0  0  0  0  0  0  0  0
  188.3900  173.1530  138.6090 C   0  0  0  0  0  1  0  0  0  0  0  0
  188.5950  172.5870  139.8940 O   0  0  0  0  0  0  0  0  0  0  0  0
  193.9510  175.9150  143.0420 O   0  0  0  0  0  0  0  0  0  0  0  0
  195.1640  175.4140  143.0760 O   0  0  0  0  0  1  0  0  0  0  0  0
  192.8480  174.9920  146.9260 C   0  0  0  0  0  2  0  0  0  0  0  0
  193.5070  177.2910  147.2000 O   0  0  0  0  0  1  0  0  0  0  0  0
  192.4710  176.4680  146.7650 C   0  0  2  0  0  3  0  0  0  0  0  0
  191.2440  176.8100  147.3770 O   0  0  0  0  0  0  0  0  0  0  0  0
  190.5040  175.6330  147.6100 C   0  0  0  0  0  2  0  0  0  0  0  0
  189.6270  174.4910  145.7440 F   0  0  0  0  0  0  0  0  0  0  0  0
  189.3290  175.5030  146.6360 C   0  0  0  0  0  0  0  0  0  0  0  0
  188.2000  175.1230  147.3390 F   0  0  0  0  0  0  0  0  0  0  0  0
  189.0330  176.7970  145.8490 C   0  0  2  0  0  3  0  0  0  0  0  0
  188.2800  176.8750  143.5210 C   0  0  0  0  0  3  0  0  0  0  0  0
  187.5780  177.1390  145.7430 C   0  0  0  0  0  0  0  0  0  0  0  0
  189.5140  176.7010  144.4000 C   0  0  0  0  0  3  0  0  0  0  0  0
  187.1810  177.1690  144.4730 C   0  0  0  0  0  0  0  0  0  0  0  0
  185.6180  176.7400  147.2200 O   0  0  0  0  0  0  0  0  0  0  0  0
  187.0360  178.4790  147.6460 O   0  0  0  0  0  1  0  0  0  0  0  0
  186.7400  177.4970  146.9120 C   0  0  0  0  0  0  0  0  0  0  0  0
  185.8070  177.5470  143.9970 C   0  0  0  0  0  2  0  0  0  0  0  0
  184.9500  179.8390  144.5240 C   0  0  0  0  0  1  0  0  0  0  0  0
  185.7560  179.0020  143.5480 C   0  0  0  0  0  2  0  0  0  0  0  0
  4  7  1  0  0  0  0
  4 30  1  1  0  0  0
  5 25  1  0  0  0  0
  6  9  1  0  0  0  0
  8  5  2  0  0  0  0
  8 23  1  0  0  0  0
  9 13  1  0  0  0  0
 10  3  2  0  0  0  0
 10 14  1  0  0  0  0
 10 18  2  0  0  0  0
 11  4  1  0  0  0  0
 12 20  1  6  0  0  0
 12 13  1  0  0  0  0
 12 10  1  0  0  0  0
 13  1  2  0  0  0  0
 14  7  1  0  0  0  0
 15 21  1  0  0  0  0
 16  2  1  1  0  0  0
 16 20  1  0  0  0  0
 16 19  1  0  0  0  0
 17  2  1  0  0  0  0
 19 25  1  6  0  0  0
 21 28  1  1  0  0  0
 21 11  1  0  0  0  0
 22  6  2  0  0  0  0
 23 17  1  6  0  0  0
 23 19  1  0  0  0  0
 24 20  2  0  0  0  0
 24  6  1  0  0  0  0
 25 15  2  0  0  0  0
 26 27  1  0  0  0  0
 27  8  1  0  0  0  0
 28 29  1  0  0  0  0
 32 30  1  0  0  0  0
 32 31  1  1  0  0  0
 32 33  1  0  0  0  0
 33 34  1  0  0  0  0
 35 36  1  0  0  0  0
 36 37  1  0  0  0  0
 36 34  1  0  0  0  0
 38 36  1  6  0  0  0
 39 41  2  0  0  0  0
 39 42  1  0  0  0  0
 40 38  1  0  0  0  0
 40 45  1  0  0  0  0
 41 38  1  0  0  0  0
 42 40  2  0  0  0  0
 45 43  2  0  0  0  0
 45 44  1  0  0  0  0
 46 42  1  0  0  0  0
 48 46  1  0  0  0  0
 48 47  1  0  0  0  0
M  END
>  <MODEL>
8

>  <REMARK>
 VINA RESULT:      -7.0      2.725      5.563
  Name = 
  11 active torsions:
  status: ('A' for Active; 'I' for Inactive)
    1  A    between atoms: O_3  and  C_9
    2  A    between atoms: O_3  and  C_44
    3  A    between atoms: C_5  and  C_42
    4  A    between atoms: C_8  and  C_36
    5  A    between atoms: C_9  and  C_36
    6  A    between atoms: C_13  and  O_17
    7  A    between atoms: O_23  and  C_38
    8  A    between atoms: C_32  and  C_48
    9  A    between atoms: C_34  and  C_37
   10  A    between atoms: C_34  and  C_46
   11  A    between atoms: C_42  and  C_44
                            x       y       z     vdW  Elec       q    Type
                         _______ _______ _______ _____ _____    ______ ____

>  <TORSDO>
F 11

$$$$
=
 OpenBabel11062421483D

 48 52  0  0  1  0  0  0  0  0999 V2000
  197.4220  174.9570  143.9340 O   0  0  0  0  0  0  0  0  0  0  0  0
  193.3520  175.4580  146.5150 N   0  0  0  0  0  2  0  0  0  0  0  0
  193.2380  176.0210  142.6800 O   0  0  0  0  0  0  0  0  0  0  0  0
  191.7640  172.5590  140.8520 C   0  0  1  0  0  3  0  0  0  0  0  0
  189.6950  174.1460  146.0010 N   0  0  0  0  0  0  0  0  0  0  0  0
  195.6090  171.8890  144.4260 C   0  0  0  0  0  0  0  0  0  0  0  0
  192.7000  173.7560  140.8590 C   0  0  0  0  0  2  0  0  0  0  0  0
  189.9960  175.3680  146.2850 C   0  0  0  0  0  0  0  0  0  0  0  0
  196.6630  172.7610  144.0260 N   0  0  0  0  0  2  0  0  0  0  0  0
  194.3790  175.0520  142.5640 S   0  0  0  0  0  0  0  0  0  0  0  0
  190.7980  172.6580  142.0190 C   0  0  0  0  0  2  0  0  0  0  0  0
  195.0500  174.7180  144.1920 C   0  0  2  0  0  3  0  0  0  0  0  0
  196.4470  174.1720  144.0570 C   0  0  0  0  0  0  0  0  0  0  0  0
  193.8240  173.5180  141.8470 C   0  0  0  0  0  2  0  0  0  0  0  0
  190.5030  172.5250  144.4360 C   0  0  0  0  0  3  0  0  0  0  0  0
  192.9770  174.2810  145.7500 C   0  0  1  0  0  3  0  0  0  0  0  0
  192.2050  176.2610  146.6540 N   0  0  0  0  0  2  0  0  0  0  0  0
  195.4370  175.6480  141.6780 O   0  0  0  0  0  0  0  0  0  0  0  0
  191.7840  174.6500  144.9030 C   0  0  2  0  0  3  0  0  0  0  0  0
  194.1460  173.7670  144.9680 C   0  0  0  0  0  0  0  0  0  0  0  0
  191.3810  172.0940  143.3100 C   0  0  1  0  0  3  0  0  0  0  0  0
  195.7440  170.6460  144.3210 O   0  0  0  0  0  0  0  0  0  0  0  0
  191.2430  175.8720  145.6290 C   0  0  1  0  0  3  0  0  0  0  0  0
  194.3930  172.4550  145.0220 C   0  0  0  0  0  3  0  0  0  0  0  0
  190.6790  173.6620  145.1100 C   0  0  0  0  0  0  0  0  0  0  0  0
  187.8080  176.0420  147.1910 C   0  0  0  0  0  1  0  0  0  0  0  0
  189.2210  176.1560  147.1380 O   0  0  0  0  0  0  0  0  0  0  0  0
  191.3880  170.6980  143.2420 O   0  0  0  0  0  0  0  0  0  0  0  0
  192.5770  170.3480  143.6760 O   0  0  0  0  0  1  0  0  0  0  0  0
  190.9590  172.5570  139.5660 C   0  0  0  0  0  2  0  0  0  0  0  0
  188.6440  171.9750  139.2520 O   0  0  0  0  0  1  0  0  0  0  0  0
  189.4940  172.9250  139.8160 C   0  0  2  0  0  3  0  0  0  0  0  0
  189.1580  174.2330  139.4010 O   0  0  0  0  0  0  0  0  0  0  0  0
  187.9430  174.6090  140.0100 C   0  0  0  0  0  2  0  0  0  0  0  0
  187.3780  174.9410  142.2730 F   0  0  0  0  0  0  0  0  0  0  0  0
  188.1780  175.4490  141.2680 C   0  0  0  0  0  0  0  0  0  0  0  0
  189.4950  175.3070  141.6670 F   0  0  0  0  0  0  0  0  0  0  0  0
  187.8570  176.9480  141.0790 C   0  0  2  0  0  3  0  0  0  0  0  0
  185.6350  177.9430  141.3310 C   0  0  0  0  0  3  0  0  0  0  0  0
  187.7330  177.7200  142.3560 C   0  0  0  0  0  0  0  0  0  0  0  0
  186.5180  177.1550  140.3690 C   0  0  0  0  0  3  0  0  0  0  0  0
  186.5180  178.2490  142.4840 C   0  0  0  0  0  0  0  0  0  0  0  0
  190.1460  178.1370  142.7880 O   0  0  0  0  0  0  0  0  0  0  0  0
  188.6850  177.9640  144.5350 O   0  0  0  0  0  1  0  0  0  0  0  0
  188.8650  177.9410  143.2860 C   0  0  0  0  0  0  0  0  0  0  0  0
  186.0690  179.1420  143.6050 C   0  0  0  0  0  2  0  0  0  0  0  0
  183.8680  179.0380  144.7910 C   0  0  0  0  0  1  0  0  0  0  0  0
  185.2240  178.3800  144.6180 C   0  0  0  0  0  2  0  0  0  0  0  0
  1 13  2  0  0  0  0
  2 17  1  0  0  0  0
  4 30  1  6  0  0  0
  4  7  1  0  0  0  0
  4 11  1  0  0  0  0
  5  8  2  0  0  0  0
  6 24  1  0  0  0  0
  7 14  1  0  0  0  0
  8 27  1  0  0  0  0
  9 13  1  0  0  0  0
  9  6  1  0  0  0  0
 10  3  2  0  0  0  0
 10 12  1  0  0  0  0
 11 21  1  0  0  0  0
 12 13  1  6  0  0  0
 12 20  1  0  0  0  0
 14 10  1  0  0  0  0
 15 25  2  0  0  0  0
 16 20  1  6  0  0  0
 16  2  1  0  0  0  0
 18 10  2  0  0  0  0
 19 25  1  1  0  0  0
 19 23  1  0  0  0  0
 19 16  1  0  0  0  0
 20 24  2  0  0  0  0
 21 28  1  6  0  0  0
 21 15  1  0  0  0  0
 22  6  2  0  0  0  0
 23  8  1  1  0  0  0
 23 17  1  0  0  0  0
 25  5  1  0  0  0  0
 27 26  1  0  0  0  0
 28 29  1  0  0  0  0
 30 32  1  0  0  0  0
 32 31  1  6  0  0  0
 33 32  1  0  0  0  0
 33 34  1  0  0  0  0
 34 36  1  0  0  0  0
 36 37  1  0  0  0  0
 36 35  1  0  0  0  0
 38 36  1  1  0  0  0
 38 40  1  0  0  0  0
 39 42  1  0  0  0  0
 40 42  2  0  0  0  0
 40 45  1  0  0  0  0
 41 38  1  0  0  0  0
 41 39  2  0  0  0  0
 42 46  1  0  0  0  0
 43 45  2  0  0  0  0
 45 44  1  0  0  0  0
 46 48  1  0  0  0  0
 48 47  1  0  0  0  0
M  END
>  <MODEL>
9

>  <REMARK>
 VINA RESULT:      -7.0      1.484      1.920
  Name = 
  11 active torsions:
  status: ('A' for Active; 'I' for Inactive)
    1  A    between atoms: O_3  and  C_9
    2  A    between atoms: O_3  and  C_44
    3  A    between atoms: C_5  and  C_42
    4  A    between atoms: C_8  and  C_36
    5  A    between atoms: C_9  and  C_36
    6  A    between atoms: C_13  and  O_17
    7  A    between atoms: O_23  and  C_38
    8  A    between atoms: C_32  and  C_48
    9  A    between atoms: C_34  and  C_37
   10  A    between atoms: C_34  and  C_46
   11  A    between atoms: C_42  and  C_44
                            x       y       z     vdW  Elec       q    Type
                         _______ _______ _______ _____ _____    ______ ____

>  <TORSDO>
F 11

$$$$
