=
 OpenBabel11072409323D

 58 65  0  0  1  0  0  0  0  0999 V2000
  189.3520  172.8300  141.2440 C   0  0  2  0  0  3  0  0  0  0  0  0
  190.4320  173.8990  141.1390 C   0  0  2  0  0  3  0  0  0  0  0  0
  191.4600  171.7130  140.8710 C   0  0  1  0  0  3  0  0  0  0  0  0
  190.0830  171.5200  141.4690 C   0  0  0  0  0  2  0  0  0  0  0  0
  191.7720  173.1880  141.0260 C   0  0  0  0  0  2  0  0  0  0  0  0
  192.6660  170.7270  141.7400 S   0  0  0  0  0  0  0  0  0  0  0  0
  192.0570  170.3460  143.3670 C   0  0  0  0  0  1  0  0  0  0  0  0
  193.9640  171.4650  141.8590 O   0  0  0  0  0  0  0  0  0  0  0  0
  192.9060  169.4430  140.9920 O   0  0  0  0  0  0  0  0  0  0  0  0
  190.4160  174.8930  142.3180 C   0  0  2  0  0  3  0  0  0  0  0  0
  190.8680  174.2360  143.6170 C   0  0  0  0  0  2  0  0  0  0  0  0
  193.9900  175.4870  145.0020 C   0  0  0  0  0  0  0  0  0  0  0  0
  193.5660  173.1130  144.9310 C   0  0  0  0  0  3  0  0  0  0  0  0
  192.0010  174.9790  144.2400 C   0  0  0  0  0  0  0  0  0  0  0  0
  197.0910  173.7370  146.2320 C   0  0  0  0  0  1  0  0  0  0  0  0
  195.2790  175.3020  145.4940 C   0  0  0  0  0  3  0  0  0  0  0  0
  195.7180  173.9820  145.7140 C   0  0  0  0  0  0  0  0  0  0  0  0
  194.8620  172.8960  145.4400 C   0  0  0  0  0  3  0  0  0  0  0  0
  193.3950  176.6190  144.7160 O   0  0  0  0  0  0  0  0  0  0  0  0
  192.1930  176.3550  144.2350 C   0  0  0  0  0  3  0  0  0  0  0  0
  193.1690  174.4330  144.7270 C   0  0  0  0  0  0  0  0  0  0  0  0
  189.0110  175.4450  142.5170 C   0  0  0  0  0  2  0  0  0  0  0  0
  188.8540  176.6730  141.8210 O   0  0  0  0  0  0  0  0  0  0  0  0
  186.8330  176.6770  140.7420 O   0  0  0  0  0  0  0  0  0  0  0  0
  187.5930  177.2250  141.5920 C   0  0  0  0  0  0  0  0  0  0  0  0
  185.8190  178.4700  142.6190 C   0  0  0  0  0  0  0  0  0  0  0  0
  186.9190  178.2300  143.6590 N   0  0  0  0  0  0  0  0  0  0  0  0
  184.6030  178.5670  142.3000 O   0  0  0  0  0  0  0  0  0  0  0  0
  187.1730  178.4780  142.3110 C   0  0  1  0  0  3  0  0  0  0  0  0
  187.7510  176.1420  146.5190 C   0  0  0  0  0  2  0  0  0  0  0  0
  189.1010  176.7280  146.1360 C   0  0  0  0  0  2  0  0  0  0  0  0
  186.7740  176.6290  145.4750 C   0  0  0  0  0  2  0  0  0  0  0  0
  188.8380  177.8010  145.0920 C   0  0  0  0  0  2  0  0  0  0  0  0
  187.3370  177.9540  145.0230 C   0  0  0  0  0  3  0  0  0  0  0  0
  188.5750  172.7740  139.9370 C   0  0  0  0  0  2  0  0  0  0  0  0
  188.6900  174.0810  139.1740 C   0  0  0  0  0  2  0  0  0  0  0  0
  188.9730  173.8180  137.7030 C   0  0  0  0  0  2  0  0  0  0  0  0
  189.8390  172.5830  137.5890 C   0  0  0  0  0  2  0  0  0  0  0  0
  191.5380  174.3500  137.0440 C   0  0  0  0  0  1  0  0  0  0  0  0
  191.1560  172.8850  136.8670 C   0  0  1  0  0  3  0  0  0  0  0  0
  193.3290  172.3050  135.2660 O   0  0  0  0  0  1  0  0  0  0  0  0
  193.3550  171.6800  136.5100 C   0  0  1  0  0  0  0  0  0  0  0  0
  192.7060  169.6950  137.6890 O   0  0  0  0  0  1  0  0  0  0  0  0
  192.2480  172.0260  137.4860 C   0  0  2  0  0  3  0  0  0  0  0  0
  192.2680  170.6620  136.7890 C   0  0  1  0  0  3  0  0  0  0  0  0
  196.7000  172.2580  137.9100 O   0  0  0  0  0  0  0  0  0  0  0  0
  195.5640  172.5450  137.4410 C   0  0  0  0  0  0  0  0  0  0  0  0
  194.6610  171.4770  137.1360 N   0  0  0  0  0  2  0  0  0  0  0  0
  195.1800  173.9500  137.1980 C   0  0  0  0  0  3  0  0  0  0  0  0
  194.8860  174.8680  138.1280 C   0  0  0  0  0  3  0  0  0  0  0  0
  194.8950  174.5980  139.5970 C   0  0  0  0  0  2  0  0  0  0  0  0
  195.7350  174.1680  142.0670 O   0  0  0  0  0  0  0  0  0  0  0  0
  197.1250  175.6580  140.1790 C   0  0  0  0  0  2  0  0  0  0  0  0
  195.6140  175.7190  140.3560 C   0  0  2  0  0  0  0  0  0  0  0  0
  197.6220  174.2950  140.5070 N   0  0  0  0  0  2  0  0  0  0  0  0
  195.7700  175.5440  141.8810 C   0  0  1  0  0  3  0  0  0  0  0  0
  197.0810  173.7620  141.7990 C   0  0  0  0  0  2  0  0  0  0  0  0
  194.6230  176.3030  141.3550 C   0  0  0  0  0  2  0  0  0  0  0  0
  1 35  1  6  0  0  0
  1  4  1  0  0  0  0
  2  1  1  0  0  0  0
  2 10  1  1  0  0  0
  3  5  1  0  0  0  0
  3  4  1  0  0  0  0
  3  6  1  1  0  0  0
  5  2  1  0  0  0  0
  6  8  2  0  0  0  0
  6  7  1  0  0  0  0
  9  6  2  0  0  0  0
 10 22  1  1  0  0  0
 10 11  1  0  0  0  0
 11 14  1  0  0  0  0
 12 16  1  0  0  0  0
 13 18  2  0  0  0  0
 14 21  1  0  0  0  0
 16 17  2  0  0  0  0
 17 15  1  0  0  0  0
 18 17  1  0  0  0  0
 19 12  1  0  0  0  0
 20 14  2  0  0  0  0
 20 19  1  0  0  0  0
 21 13  1  0  0  0  0
 21 12  2  0  0  0  0
 23 22  1  0  0  0  0
 24 25  2  0  0  0  0
 25 23  1  0  0  0  0
 26 27  1  0  0  0  0
 27 34  1  0  0  0  0
 28 26  2  0  0  0  0
 29 25  1  6  0  0  0
 29 26  1  0  0  0  0
 29 27  1  0  0  0  0
 31 30  1  0  0  0  0
 32 30  1  0  0  0  0
 33 31  1  0  0  0  0
 34 33  1  0  0  0  0
 34 32  1  0  0  0  0
 36 35  1  0  0  0  0
 37 36  1  0  0  0  0
 38 37  1  0  0  0  0
 40 39  1  1  0  0  0
 40 38  1  0  0  0  0
 42 41  1  6  0  0  0
 42 45  1  0  0  0  0
 42 48  1  0  0  0  0
 42 44  1  0  0  0  0
 44 40  1  6  0  0  0
 45 44  1  0  0  0  0
 45 43  1  1  0  0  0
 47 46  2  0  0  0  0
 48 47  1  0  0  0  0
 49 47  1  0  0  0  0
 49 50  2  0  0  0  0
 50 51  1  0  0  0  0
 53 54  1  0  0  0  0
 53 55  1  0  0  0  0
 54 51  1  6  0  0  0
 54 58  1  0  0  0  0
 54 56  1  0  0  0  0
 55 57  1  0  0  0  0
 56 58  1  1  0  0  0
 56 52  1  0  0  0  0
 57 52  1  0  0  0  0
M  END
>  <MODEL>
1

>  <REMARK>
 VINA RESULT:      -6.2      0.000      0.000
  Name = 
  19 active torsions:
  status: ('A' for Active; 'I' for Inactive)
    1  A    between atoms: C_3  and  C_18
    2  A    between atoms: C_4  and  C_47
    3  A    between atoms: N_5  and  C_46
    4  A    between atoms: C_7  and  N_28
    5  A    between atoms: C_12  and  C_25
    6  A    between atoms: O_13  and  C_39
    7  A    between atoms: O_13  and  C_41
    8  A    between atoms: C_15  and  C_42
    9  A    between atoms: C_17  and  S_19
   10  A    between atoms: C_18  and  C_35
   11  A    between atoms: C_22  and  C_34
   12  A    between atoms: C_22  and  C_35
   13  A    between atoms: C_23  and  C_26
   14  A    between atoms: C_26  and  C_53
   15  A    between atoms: C_34  and  C_58
   16  A    between atoms: C_39  and  C_47
   17  A    between atoms: C_41  and  CA_55
   18  A    between atoms: C_42  and  C_47
   19  A    between atoms: C_45  and  C_58
                            x       y       z     vdW  Elec       q    Type
                         _______ _______ _______ _____ _____    ______ ____

>  <TORSDO>
F 19

$$$$
=
 OpenBabel11072409323D

 58 65  0  0  1  0  0  0  0  0999 V2000
  188.9940  172.6150  140.3760 C   0  0  2  0  0  3  0  0  0  0  0  0
  189.7450  173.9230  140.5900 C   0  0  2  0  0  3  0  0  0  0  0  0
  191.3570  172.1410  140.2230 C   0  0  1  0  0  3  0  0  0  0  0  0
  190.0200  171.5120  140.5520 C   0  0  0  0  0  2  0  0  0  0  0  0
  191.2310  173.6000  140.6150 C   0  0  0  0  0  2  0  0  0  0  0  0
  192.6640  171.3580  141.1490 S   0  0  0  0  0  0  0  0  0  0  0  0
  193.8910  170.7290  140.0260 C   0  0  0  0  0  1  0  0  0  0  0  0
  192.1250  170.2290  141.9730 O   0  0  0  0  0  0  0  0  0  0  0  0
  193.3080  172.3620  142.0660 O   0  0  0  0  0  0  0  0  0  0  0  0
  189.3080  174.6700  141.8670 C   0  0  2  0  0  3  0  0  0  0  0  0
  189.1410  173.7210  143.0480 C   0  0  0  0  0  2  0  0  0  0  0  0
  192.1190  173.9350  145.1240 C   0  0  0  0  0  0  0  0  0  0  0  0
  191.0750  175.9470  144.3000 C   0  0  0  0  0  3  0  0  0  0  0  0
  190.4190  173.5550  143.7990 C   0  0  0  0  0  0  0  0  0  0  0  0
  193.9560  176.8670  146.6150 C   0  0  0  0  0  1  0  0  0  0  0  0
  193.0490  174.6530  145.8730 C   0  0  0  0  0  3  0  0  0  0  0  0
  192.9880  176.0590  145.8260 C   0  0  0  0  0  0  0  0  0  0  0  0
  192.0100  176.7010  145.0380 C   0  0  0  0  0  3  0  0  0  0  0  0
  191.9920  172.6330  145.0380 O   0  0  0  0  0  0  0  0  0  0  0  0
  190.9610  172.3600  144.2580 C   0  0  0  0  0  3  0  0  0  0  0  0
  191.1670  174.5590  144.3730 C   0  0  0  0  0  0  0  0  0  0  0  0
  187.9830  175.3820  141.6270 C   0  0  0  0  0  2  0  0  0  0  0  0
  188.1440  176.7880  141.7480 O   0  0  0  0  0  0  0  0  0  0  0  0
  186.7910  177.8550  140.2370 O   0  0  0  0  0  0  0  0  0  0  0  0
  187.1040  177.6690  141.4490 C   0  0  0  0  0  0  0  0  0  0  0  0
  185.0370  178.1730  142.5570 C   0  0  0  0  0  0  0  0  0  0  0  0
  186.0030  177.5570  143.5740 N   0  0  0  0  0  0  0  0  0  0  0  0
  183.8770  178.3230  142.0860 O   0  0  0  0  0  0  0  0  0  0  0  0
  186.4040  178.4170  142.5520 C   0  0  1  0  0  3  0  0  0  0  0  0
  187.6490  176.5700  146.6640 C   0  0  0  0  0  2  0  0  0  0  0  0
  186.2480  176.9250  147.1370 C   0  0  0  0  0  2  0  0  0  0  0  0
  187.6870  176.8980  145.1900 C   0  0  0  0  0  2  0  0  0  0  0  0
  185.4000  177.1320  145.8930 C   0  0  0  0  0  2  0  0  0  0  0  0
  186.2630  176.7120  144.7280 C   0  0  0  0  0  3  0  0  0  0  0  0
  188.4370  172.5860  138.9600 C   0  0  0  0  0  2  0  0  0  0  0  0
  188.4210  173.9740  138.3470 C   0  0  0  0  0  2  0  0  0  0  0  0
  189.0190  173.9480  136.9500 C   0  0  0  0  0  2  0  0  0  0  0  0
  189.9890  172.7900  136.8590 C   0  0  0  0  0  2  0  0  0  0  0  0
  191.6340  174.6800  136.7060 C   0  0  0  0  0  1  0  0  0  0  0  0
  191.3470  173.2370  136.3110 C   0  0  1  0  0  3  0  0  0  0  0  0
  193.7890  173.1930  135.0220 O   0  0  0  0  0  1  0  0  0  0  0  0
  193.6970  172.3140  136.0980 C   0  0  1  0  0  0  0  0  0  0  0  0
  193.1040  170.0730  136.7160 O   0  0  0  0  0  1  0  0  0  0  0  0
  192.4230  172.3490  136.9190 C   0  0  2  0  0  3  0  0  0  0  0  0
  192.7020  171.1780  135.9710 C   0  0  1  0  0  3  0  0  0  0  0  0
  196.6840  172.8230  138.1710 O   0  0  0  0  0  0  0  0  0  0  0  0
  195.6060  173.1140  137.5850 C   0  0  0  0  0  0  0  0  0  0  0  0
  194.9080  172.0800  136.8840 N   0  0  0  0  0  2  0  0  0  0  0  0
  195.0820  174.4950  137.6090 C   0  0  0  0  0  3  0  0  0  0  0  0
  194.8250  175.2310  138.6960 C   0  0  0  0  0  3  0  0  0  0  0  0
  195.0280  174.7490  140.0960 C   0  0  0  0  0  2  0  0  0  0  0  0
  195.7560  174.3350  142.6030 O   0  0  0  0  0  0  0  0  0  0  0  0
  196.3830  176.6170  141.1490 C   0  0  0  0  0  2  0  0  0  0  0  0
  195.0310  175.9200  141.0840 C   0  0  2  0  0  0  0  0  0  0  0  0
  197.4590  175.6190  141.3950 N   0  0  0  0  0  2  0  0  0  0  0  0
  195.1220  175.5700  142.5840 C   0  0  1  0  0  3  0  0  0  0  0  0
  197.1440  174.6710  142.5120 C   0  0  0  0  0  2  0  0  0  0  0  0
  193.7990  175.7740  141.9690 C   0  0  0  0  0  2  0  0  0  0  0  0
  1 35  1  6  0  0  0
  1  4  1  0  0  0  0
  1  2  1  0  0  0  0
  2  5  1  0  0  0  0
  2 10  1  1  0  0  0
  3  4  1  0  0  0  0
  3  5  1  0  0  0  0
  3  6  1  1  0  0  0
  6  8  2  0  0  0  0
  6  9  2  0  0  0  0
  7  6  1  0  0  0  0
 10 22  1  6  0  0  0
 10 11  1  0  0  0  0
 11 14  1  0  0  0  0
 12 16  1  0  0  0  0
 13 21  1  0  0  0  0
 13 18  2  0  0  0  0
 14 20  2  0  0  0  0
 14 21  1  0  0  0  0
 17 16  2  0  0  0  0
 17 15  1  0  0  0  0
 18 17  1  0  0  0  0
 19 12  1  0  0  0  0
 20 19  1  0  0  0  0
 21 12  2  0  0  0  0
 22 23  1  0  0  0  0
 24 25  2  0  0  0  0
 25 23  1  0  0  0  0
 26 27  1  0  0  0  0
 27 34  1  0  0  0  0
 28 26  2  0  0  0  0
 29 25  1  6  0  0  0
 29 26  1  0  0  0  0
 29 27  1  0  0  0  0
 30 31  1  0  0  0  0
 32 30  1  0  0  0  0
 33 31  1  0  0  0  0
 34 32  1  0  0  0  0
 34 33  1  0  0  0  0
 36 35  1  0  0  0  0
 37 36  1  0  0  0  0
 38 37  1  0  0  0  0
 40 39  1  1  0  0  0
 40 38  1  0  0  0  0
 42 41  1  6  0  0  0
 42 48  1  0  0  0  0
 42 44  1  0  0  0  0
 44 40  1  6  0  0  0
 45 42  1  0  0  0  0
 45 43  1  1  0  0  0
 45 44  1  0  0  0  0
 47 49  1  0  0  0  0
 47 46  2  0  0  0  0
 48 47  1  0  0  0  0
 49 50  2  0  0  0  0
 50 51  1  0  0  0  0
 53 55  1  0  0  0  0
 54 51  1  6  0  0  0
 54 53  1  0  0  0  0
 54 58  1  0  0  0  0
 54 56  1  0  0  0  0
 55 57  1  0  0  0  0
 56 58  1  6  0  0  0
 56 52  1  0  0  0  0
 57 52  1  0  0  0  0
M  END
>  <MODEL>
2

>  <REMARK>
 VINA RESULT:      -6.1      1.353      1.939
  Name = 
  19 active torsions:
  status: ('A' for Active; 'I' for Inactive)
    1  A    between atoms: C_3  and  C_18
    2  A    between atoms: C_4  and  C_47
    3  A    between atoms: N_5  and  C_46
    4  A    between atoms: C_7  and  N_28
    5  A    between atoms: C_12  and  C_25
    6  A    between atoms: O_13  and  C_39
    7  A    between atoms: O_13  and  C_41
    8  A    between atoms: C_15  and  C_42
    9  A    between atoms: C_17  and  S_19
   10  A    between atoms: C_18  and  C_35
   11  A    between atoms: C_22  and  C_34
   12  A    between atoms: C_22  and  C_35
   13  A    between atoms: C_23  and  C_26
   14  A    between atoms: C_26  and  C_53
   15  A    between atoms: C_34  and  C_58
   16  A    between atoms: C_39  and  C_47
   17  A    between atoms: C_41  and  CA_55
   18  A    between atoms: C_42  and  C_47
   19  A    between atoms: C_45  and  C_58
                            x       y       z     vdW  Elec       q    Type
                         _______ _______ _______ _____ _____    ______ ____

>  <TORSDO>
F 19

$$$$
=
 OpenBabel11072409323D

 58 65  0  0  1  0  0  0  0  0999 V2000
  192.6660  173.6260  141.0430 C   0  0  2  0  0  3  0  0  0  0  0  0
  192.4300  172.1710  141.4300 C   0  0  2  0  0  3  0  0  0  0  0  0
  192.2100  172.3900  139.0190 C   0  0  1  0  0  3  0  0  0  0  0  0
  192.1330  173.7730  139.6300 C   0  0  0  0  0  2  0  0  0  0  0  0
  192.0230  171.4220  140.1700 C   0  0  0  0  0  2  0  0  0  0  0  0
  190.9220  172.1680  137.8050 S   0  0  0  0  0  0  0  0  0  0  0  0
  189.8720  170.8190  138.2960 C   0  0  0  0  0  1  0  0  0  0  0  0
  191.5100  171.8700  136.4600 O   0  0  0  0  0  0  0  0  0  0  0  0
  190.0960  173.4220  137.7060 O   0  0  0  0  0  0  0  0  0  0  0  0
  191.3820  172.0060  142.5490 C   0  0  2  0  0  3  0  0  0  0  0  0
  190.9790  173.3480  143.1490 C   0  0  0  0  0  2  0  0  0  0  0  0
  187.7900  174.7550  142.1090 C   0  0  0  0  0  0  0  0  0  0  0  0
  189.6320  176.2130  142.6570 C   0  0  0  0  0  3  0  0  0  0  0  0
  189.5640  173.6880  142.8240 C   0  0  0  0  0  0  0  0  0  0  0  0
  186.6990  178.2880  141.3930 C   0  0  0  0  0  1  0  0  0  0  0  0
  186.9840  175.8210  141.7180 C   0  0  0  0  0  3  0  0  0  0  0  0
  187.5210  177.1200  141.8060 C   0  0  0  0  0  0  0  0  0  0  0  0
  188.8360  177.3130  142.2790 C   0  0  0  0  0  3  0  0  0  0  0  0
  187.4940  173.4780  142.0940 O   0  0  0  0  0  0  0  0  0  0  0  0
  188.5490  172.7950  142.5030 C   0  0  0  0  0  3  0  0  0  0  0  0
  189.0650  174.9440  142.5550 C   0  0  0  0  0  0  0  0  0  0  0  0
  191.9410  171.1270  143.6610 C   0  0  0  0  0  2  0  0  0  0  0  0
  193.1530  170.5120  143.2480 O   0  0  0  0  0  0  0  0  0  0  0  0
  192.5810  168.4990  144.1820 O   0  0  0  0  0  0  0  0  0  0  0  0
  193.3920  169.1540  143.4660 C   0  0  0  0  0  0  0  0  0  0  0  0
  195.0420  169.1200  141.7240 C   0  0  0  0  0  0  0  0  0  0  0  0
  195.7500  169.3010  143.0710 N   0  0  0  0  0  0  0  0  0  0  0  0
  194.9290  169.3680  140.4940 O   0  0  0  0  0  0  0  0  0  0  0  0
  194.6220  168.5010  142.8950 C   0  0  1  0  0  3  0  0  0  0  0  0
  197.6440  171.9870  144.6280 C   0  0  0  0  0  2  0  0  0  0  0  0
  196.9880  171.3130  145.8230 C   0  0  0  0  0  2  0  0  0  0  0  0
  197.1080  171.2820  143.4050 C   0  0  0  0  0  2  0  0  0  0  0  0
  196.3530  170.0290  145.3140 C   0  0  0  0  0  2  0  0  0  0  0  0
  196.8080  169.8820  143.8810 C   0  0  0  0  0  3  0  0  0  0  0  0
  194.1600  173.9130  141.0670 C   0  0  0  0  0  2  0  0  0  0  0  0
  194.6980  173.9030  142.4860 C   0  0  0  0  0  2  0  0  0  0  0  0
  195.9430  174.7690  142.5920 C   0  0  0  0  0  2  0  0  0  0  0  0
  195.7540  175.7520  143.7270 C   0  0  0  0  0  2  0  0  0  0  0  0
  195.5990  174.6990  146.0010 C   0  0  0  0  0  1  0  0  0  0  0  0
  194.8090  175.1990  144.7980 C   0  0  1  0  0  3  0  0  0  0  0  0
  192.4170  174.4560  145.9590 O   0  0  0  0  0  1  0  0  0  0  0  0
  192.5690  175.8300  145.7960 C   0  0  1  0  0  0  0  0  0  0  0  0
  192.1680  177.6530  144.2890 O   0  0  0  0  0  1  0  0  0  0  0  0
  193.8960  176.3260  145.2580 C   0  0  2  0  0  3  0  0  0  0  0  0
  192.6440  176.3480  144.3740 C   0  0  1  0  0  3  0  0  0  0  0  0
  190.1510  177.5600  147.9520 O   0  0  0  0  0  0  0  0  0  0  0  0
  190.5760  176.7180  147.1140 C   0  0  0  0  0  0  0  0  0  0  0  0
  191.9740  176.7000  146.8120 N   0  0  0  0  0  2  0  0  0  0  0  0
  189.6480  175.7820  146.4470 C   0  0  0  0  0  3  0  0  0  0  0  0
  188.4440  176.0770  145.9430 C   0  0  0  0  0  3  0  0  0  0  0  0
  187.8330  177.4400  145.9880 C   0  0  0  0  0  2  0  0  0  0  0  0
  186.0630  179.3740  145.6500 O   0  0  0  0  0  0  0  0  0  0  0  0
  185.4060  176.7140  146.1080 C   0  0  0  0  0  2  0  0  0  0  0  0
  186.5440  177.4360  146.8160 C   0  0  2  0  0  0  0  0  0  0  0  0
  185.2370  177.2560  144.7330 N   0  0  0  0  0  2  0  0  0  0  0  0
  185.7220  178.7420  146.8380 C   0  0  1  0  0  3  0  0  0  0  0  0
  185.2060  178.7530  144.6850 C   0  0  0  0  0  2  0  0  0  0  0  0
  186.7000  178.4860  147.9090 C   0  0  0  0  0  2  0  0  0  0  0  0
  1 35  1  6  0  0  0
  1  2  1  0  0  0  0
  2 10  1  1  0  0  0
  3  6  1  6  0  0  0
  3  4  1  0  0  0  0
  3  5  1  0  0  0  0
  4  1  1  0  0  0  0
  5  2  1  0  0  0  0
  6  7  1  0  0  0  0
  8  6  2  0  0  0  0
  9  6  2  0  0  0  0
 10 11  1  1  0  0  0
 10 22  1  0  0  0  0
 12 21  1  0  0  0  0
 14 11  1  0  0  0  0
 15 17  1  0  0  0  0
 16 17  1  0  0  0  0
 16 12  2  0  0  0  0
 17 18  2  0  0  0  0
 18 13  1  0  0  0  0
 19 12  1  0  0  0  0
 19 20  1  0  0  0  0
 20 14  2  0  0  0  0
 21 13  2  0  0  0  0
 21 14  1  0  0  0  0
 23 25  1  0  0  0  0
 23 22  1  0  0  0  0
 25 24  2  0  0  0  0
 26 29  1  0  0  0  0
 26 27  1  0  0  0  0
 27 34  1  0  0  0  0
 28 26  2  0  0  0  0
 29 27  1  0  0  0  0
 29 25  1  1  0  0  0
 30 31  1  0  0  0  0
 32 34  1  0  0  0  0
 32 30  1  0  0  0  0
 33 31  1  0  0  0  0
 34 33  1  0  0  0  0
 35 36  1  0  0  0  0
 36 37  1  0  0  0  0
 37 38  1  0  0  0  0
 38 40  1  0  0  0  0
 40 39  1  1  0  0  0
 42 41  1  1  0  0  0
 42 48  1  0  0  0  0
 44 40  1  6  0  0  0
 44 42  1  0  0  0  0
 45 43  1  1  0  0  0
 45 44  1  0  0  0  0
 45 42  1  0  0  0  0
 47 46  2  0  0  0  0
 48 47  1  0  0  0  0
 49 47  1  0  0  0  0
 50 51  1  0  0  0  0
 50 49  2  0  0  0  0
 52 56  1  0  0  0  0
 53 54  1  0  0  0  0
 54 51  1  6  0  0  0
 54 56  1  0  0  0  0
 54 58  1  0  0  0  0
 55 53  1  0  0  0  0
 56 58  1  1  0  0  0
 57 55  1  0  0  0  0
 57 52  1  0  0  0  0
M  END
>  <MODEL>
3

>  <REMARK>
 VINA RESULT:      -6.0      2.549      9.350
  Name = 
  19 active torsions:
  status: ('A' for Active; 'I' for Inactive)
    1  A    between atoms: C_3  and  C_18
    2  A    between atoms: C_4  and  C_47
    3  A    between atoms: N_5  and  C_46
    4  A    between atoms: C_7  and  N_28
    5  A    between atoms: C_12  and  C_25
    6  A    between atoms: O_13  and  C_39
    7  A    between atoms: O_13  and  C_41
    8  A    between atoms: C_15  and  C_42
    9  A    between atoms: C_17  and  S_19
   10  A    between atoms: C_18  and  C_35
   11  A    between atoms: C_22  and  C_34
   12  A    between atoms: C_22  and  C_35
   13  A    between atoms: C_23  and  C_26
   14  A    between atoms: C_26  and  C_53
   15  A    between atoms: C_34  and  C_58
   16  A    between atoms: C_39  and  C_47
   17  A    between atoms: C_41  and  CA_55
   18  A    between atoms: C_42  and  C_47
   19  A    between atoms: C_45  and  C_58
                            x       y       z     vdW  Elec       q    Type
                         _______ _______ _______ _____ _____    ______ ____

>  <TORSDO>
F 19

$$$$
=
 OpenBabel11072409323D

 58 65  0  0  1  0  0  0  0  0999 V2000
  189.3660  176.2360  146.4060 C   0  0  2  0  0  3  0  0  0  0  0  0
  189.0670  176.5780  144.9510 C   0  0  2  0  0  3  0  0  0  0  0  0
  187.5200  177.7930  146.3790 C   0  0  1  0  0  3  0  0  0  0  0  0
  188.1530  176.6880  147.1970 C   0  0  0  0  0  2  0  0  0  0  0  0
  187.8290  177.4610  144.9330 C   0  0  0  0  0  2  0  0  0  0  0  0
  185.7570  177.8390  146.6440 S   0  0  0  0  0  0  0  0  0  0  0  0
  185.0690  179.2480  145.8040 C   0  0  0  0  0  1  0  0  0  0  0  0
  185.4440  177.9360  148.1060 O   0  0  0  0  0  0  0  0  0  0  0  0
  185.1280  176.5860  146.0970 O   0  0  0  0  0  0  0  0  0  0  0  0
  188.8860  175.3310  144.0620 C   0  0  2  0  0  3  0  0  0  0  0  0
  190.1490  175.0130  143.2710 C   0  0  0  0  0  2  0  0  0  0  0  0
  190.7660  171.6840  141.9410 C   0  0  0  0  0  0  0  0  0  0  0  0
  190.9750  173.6140  140.5090 C   0  0  0  0  0  3  0  0  0  0  0  0
  190.2290  173.5640  142.9280 C   0  0  0  0  0  0  0  0  0  0  0  0
  192.0110  170.4900  138.5930 C   0  0  0  0  0  1  0  0  0  0  0  0
  191.2040  170.8200  140.9420 C   0  0  0  0  0  3  0  0  0  0  0  0
  191.5320  171.3740  139.6890 C   0  0  0  0  0  0  0  0  0  0  0  0
  191.4110  172.7620  139.4740 C   0  0  0  0  0  3  0  0  0  0  0  0
  190.4270  171.3820  143.1710 O   0  0  0  0  0  0  0  0  0  0  0  0
  190.1110  172.4960  143.8090 C   0  0  0  0  0  3  0  0  0  0  0  0
  190.6610  173.0280  141.7340 C   0  0  0  0  0  0  0  0  0  0  0  0
  187.7420  175.5510  143.0810 C   0  0  0  0  0  2  0  0  0  0  0  0
  188.1750  176.3360  141.9790 O   0  0  0  0  0  0  0  0  0  0  0  0
  187.6490  174.8760  140.2930 O   0  0  0  0  0  0  0  0  0  0  0  0
  187.7310  176.0770  140.6810 C   0  0  0  0  0  0  0  0  0  0  0  0
  186.5090  176.8350  138.7610 C   0  0  0  0  0  0  0  0  0  0  0  0
  186.1160  177.6950  139.9670 N   0  0  0  0  0  0  0  0  0  0  0  0
  186.2190  176.2330  137.6930 O   0  0  0  0  0  0  0  0  0  0  0  0
  187.4070  177.2150  139.7520 C   0  0  1  0  0  3  0  0  0  0  0  0
  182.8800  178.2790  141.5220 C   0  0  0  0  0  2  0  0  0  0  0  0
  183.7960  178.1130  142.7240 C   0  0  0  0  0  2  0  0  0  0  0  0
  183.7360  178.0190  140.3050 C   0  0  0  0  0  2  0  0  0  0  0  0
  185.2210  178.0940  142.1950 C   0  0  0  0  0  2  0  0  0  0  0  0
  185.1230  178.4370  140.7270 C   0  0  0  0  0  3  0  0  0  0  0  0
  190.5980  177.0070  146.8570 C   0  0  0  0  0  2  0  0  0  0  0  0
  191.8660  176.3970  146.2890 C   0  0  0  0  0  2  0  0  0  0  0  0
  191.9740  174.9310  146.6790 C   0  0  0  0  0  2  0  0  0  0  0  0
  192.9220  174.2430  145.7210 C   0  0  0  0  0  2  0  0  0  0  0  0
  195.3320  174.8560  146.0660 C   0  0  0  0  0  1  0  0  0  0  0  0
  194.0590  175.1730  145.2900 C   0  0  1  0  0  3  0  0  0  0  0  0
  195.8140  176.9210  144.0690 O   0  0  0  0  0  1  0  0  0  0  0  0
  195.2280  176.0030  143.2020 C   0  0  1  0  0  0  0  0  0  0  0  0
  193.3550  175.6400  141.7490 O   0  0  0  0  0  1  0  0  0  0  0  0
  194.3300  174.9450  143.8110 C   0  0  2  0  0  3  0  0  0  0  0  0
  193.7290  176.1030  143.0070 C   0  0  1  0  0  3  0  0  0  0  0  0
  197.9360  174.5320  141.2050 O   0  0  0  0  0  0  0  0  0  0  0  0
  197.2770  174.8320  142.2380 C   0  0  0  0  0  0  0  0  0  0  0  0
  196.0360  175.5260  142.0790 N   0  0  0  0  0  2  0  0  0  0  0  0
  197.7830  174.4910  143.5830 C   0  0  0  0  0  3  0  0  0  0  0  0
  197.6790  173.3050  144.1950 C   0  0  0  0  0  3  0  0  0  0  0  0
  197.0070  172.1130  143.5950 C   0  0  0  0  0  2  0  0  0  0  0  0
  194.6470  171.4020  144.5520 O   0  0  0  0  0  0  0  0  0  0  0  0
  196.6870  169.6200  143.9370 C   0  0  0  0  0  2  0  0  0  0  0  0
  196.9180  170.9670  144.6080 C   0  0  2  0  0  0  0  0  0  0  0  0
  195.5210  169.7030  143.0170 N   0  0  0  0  0  2  0  0  0  0  0  0
  195.5930  170.8220  145.3870 C   0  0  1  0  0  3  0  0  0  0  0  0
  194.3210  170.3510  143.6370 C   0  0  0  0  0  2  0  0  0  0  0  0
  196.7010  171.5880  145.9830 C   0  0  0  0  0  2  0  0  0  0  0  0
  1 35  1  1  0  0  0
  1  4  1  0  0  0  0
  2 10  1  6  0  0  0
  2  1  1  0  0  0  0
  3  6  1  6  0  0  0
  3  4  1  0  0  0  0
  5  2  1  0  0  0  0
  5  3  1  0  0  0  0
  6  8  2  0  0  0  0
  7  6  1  0  0  0  0
  9  6  2  0  0  0  0
 10 22  1  6  0  0  0
 11 10  1  0  0  0  0
 12 19  1  0  0  0  0
 13 21  2  0  0  0  0
 14 11  1  0  0  0  0
 14 20  2  0  0  0  0
 15 17  1  0  0  0  0
 16 12  2  0  0  0  0
 17 16  1  0  0  0  0
 18 17  2  0  0  0  0
 18 13  1  0  0  0  0
 19 20  1  0  0  0  0
 21 12  1  0  0  0  0
 21 14  1  0  0  0  0
 23 22  1  0  0  0  0
 24 25  2  0  0  0  0
 25 23  1  0  0  0  0
 26 29  1  0  0  0  0
 26 27  1  0  0  0  0
 27 34  1  0  0  0  0
 28 26  2  0  0  0  0
 29 27  1  0  0  0  0
 29 25  1  1  0  0  0
 30 31  1  0  0  0  0
 32 34  1  0  0  0  0
 32 30  1  0  0  0  0
 33 31  1  0  0  0  0
 34 33  1  0  0  0  0
 36 37  1  0  0  0  0
 36 35  1  0  0  0  0
 38 37  1  0  0  0  0
 40 38  1  0  0  0  0
 40 39  1  1  0  0  0
 42 44  1  0  0  0  0
 42 41  1  1  0  0  0
 44 40  1  1  0  0  0
 45 43  1  6  0  0  0
 45 42  1  0  0  0  0
 45 44  1  0  0  0  0
 46 47  2  0  0  0  0
 47 49  1  0  0  0  0
 48 47  1  0  0  0  0
 48 42  1  0  0  0  0
 49 50  2  0  0  0  0
 51 50  1  0  0  0  0
 52 56  1  0  0  0  0
 53 54  1  0  0  0  0
 54 51  1  6  0  0  0
 54 56  1  0  0  0  0
 54 58  1  0  0  0  0
 55 57  1  0  0  0  0
 55 53  1  0  0  0  0
 56 58  1  1  0  0  0
 57 52  1  0  0  0  0
M  END
>  <MODEL>
4

>  <REMARK>
 VINA RESULT:      -6.0      3.064      6.902
  Name = 
  19 active torsions:
  status: ('A' for Active; 'I' for Inactive)
    1  A    between atoms: C_3  and  C_18
    2  A    between atoms: C_4  and  C_47
    3  A    between atoms: N_5  and  C_46
    4  A    between atoms: C_7  and  N_28
    5  A    between atoms: C_12  and  C_25
    6  A    between atoms: O_13  and  C_39
    7  A    between atoms: O_13  and  C_41
    8  A    between atoms: C_15  and  C_42
    9  A    between atoms: C_17  and  S_19
   10  A    between atoms: C_18  and  C_35
   11  A    between atoms: C_22  and  C_34
   12  A    between atoms: C_22  and  C_35
   13  A    between atoms: C_23  and  C_26
   14  A    between atoms: C_26  and  C_53
   15  A    between atoms: C_34  and  C_58
   16  A    between atoms: C_39  and  C_47
   17  A    between atoms: C_41  and  CA_55
   18  A    between atoms: C_42  and  C_47
   19  A    between atoms: C_45  and  C_58
                            x       y       z     vdW  Elec       q    Type
                         _______ _______ _______ _____ _____    ______ ____

>  <TORSDO>
F 19

$$$$
=
 OpenBabel11072409323D

 58 65  0  0  1  0  0  0  0  0999 V2000
  189.3030  173.2760  142.5490 C   0  0  2  0  0  3  0  0  0  0  0  0
  190.5560  173.9820  142.0460 C   0  0  2  0  0  3  0  0  0  0  0  0
  190.8100  171.5880  141.7050 C   0  0  1  0  0  3  0  0  0  0  0  0
  189.6750  171.8110  142.6810 C   0  0  0  0  0  2  0  0  0  0  0  0
  191.5510  172.9090  141.6280 C   0  0  0  0  0  2  0  0  0  0  0  0
  191.8960  170.2990  142.2880 S   0  0  0  0  0  0  0  0  0  0  0  0
  191.1410  168.7140  142.0030 C   0  0  0  0  0  1  0  0  0  0  0  0
  192.1670  170.4590  143.7520 O   0  0  0  0  0  0  0  0  0  0  0  0
  193.2030  170.3610  141.5440 O   0  0  0  0  0  0  0  0  0  0  0  0
  191.1660  174.9450  143.0840 C   0  0  2  0  0  3  0  0  0  0  0  0
  190.7820  176.3930  142.8060 C   0  0  0  0  0  2  0  0  0  0  0  0
  188.0360  177.6470  144.8340 C   0  0  0  0  0  0  0  0  0  0  0  0
  188.0110  177.9590  142.4420 C   0  0  0  0  0  3  0  0  0  0  0  0
  189.8470  176.9190  143.8410 C   0  0  0  0  0  0  0  0  0  0  0  0
  184.7490  179.2460  143.9280 C   0  0  0  0  0  1  0  0  0  0  0  0
  186.7680  178.2030  144.9810 C   0  0  0  0  0  3  0  0  0  0  0  0
  186.1070  178.6520  143.8210 C   0  0  0  0  0  0  0  0  0  0  0  0
  186.7300  178.5370  142.5610 C   0  0  0  0  0  3  0  0  0  0  0  0
  188.8110  177.1580  145.7720 O   0  0  0  0  0  0  0  0  0  0  0  0
  189.9120  176.6910  145.2100 C   0  0  0  0  0  3  0  0  0  0  0  0
  188.6300  177.5260  143.6120 C   0  0  0  0  0  0  0  0  0  0  0  0
  192.6850  174.8350  143.0700 C   0  0  0  0  0  2  0  0  0  0  0  0
  193.2760  176.0220  143.5790 O   0  0  0  0  0  0  0  0  0  0  0  0
  195.3990  176.0120  142.7190 O   0  0  0  0  0  0  0  0  0  0  0  0
  194.6580  176.1400  143.7350 C   0  0  0  0  0  0  0  0  0  0  0  0
  194.3360  176.0940  146.1120 C   0  0  0  0  0  0  0  0  0  0  0  0
  195.4970  175.1600  145.7540 N   0  0  0  0  0  0  0  0  0  0  0  0
  193.3190  176.3770  146.8000 O   0  0  0  0  0  0  0  0  0  0  0  0
  195.2490  176.3670  145.1010 C   0  0  1  0  0  3  0  0  0  0  0  0
  196.4830  171.7150  145.1290 C   0  0  0  0  0  2  0  0  0  0  0  0
  197.7100  172.4940  144.6810 C   0  0  0  0  0  2  0  0  0  0  0  0
  195.4470  172.7480  145.5050 C   0  0  0  0  0  2  0  0  0  0  0  0
  197.5010  173.9360  145.1130 C   0  0  0  0  0  2  0  0  0  0  0  0
  196.2540  173.9370  145.9650 C   0  0  0  0  0  3  0  0  0  0  0  0
  188.1910  173.4400  141.5230 C   0  0  0  0  0  2  0  0  0  0  0  0
  188.4260  174.6590  140.6500 C   0  0  0  0  0  2  0  0  0  0  0  0
  188.2220  174.3140  139.1840 C   0  0  0  0  0  2  0  0  0  0  0  0
  188.4790  172.8340  138.9940 C   0  0  0  0  0  2  0  0  0  0  0  0
  190.2490  173.8120  137.5070 C   0  0  0  0  0  1  0  0  0  0  0  0
  189.4140  172.5750  137.8090 C   0  0  1  0  0  3  0  0  0  0  0  0
  190.4420  171.0840  135.7250 O   0  0  0  0  0  1  0  0  0  0  0  0
  190.7970  170.6180  136.9880 C   0  0  1  0  0  0  0  0  0  0  0  0
  190.1410  169.1340  138.7550 O   0  0  0  0  0  1  0  0  0  0  0  0
  190.3550  171.4390  138.1830 C   0  0  2  0  0  3  0  0  0  0  0  0
  189.6770  170.1020  137.8690 C   0  0  1  0  0  3  0  0  0  0  0  0
  194.4240  170.0510  136.9010 O   0  0  0  0  0  0  0  0  0  0  0  0
  193.3390  170.6880  136.8110 C   0  0  0  0  0  0  0  0  0  0  0  0
  192.1200  170.0120  137.1370 N   0  0  0  0  0  2  0  0  0  0  0  0
  193.3240  172.0950  136.3630 C   0  0  0  0  0  3  0  0  0  0  0  0
  193.7170  173.1610  137.0710 C   0  0  0  0  0  3  0  0  0  0  0  0
  194.2380  173.0860  138.4690 C   0  0  0  0  0  2  0  0  0  0  0  0
  195.4430  173.2410  140.8170 O   0  0  0  0  0  0  0  0  0  0  0  0
  196.7040  172.4890  138.4590 C   0  0  0  0  0  2  0  0  0  0  0  0
  195.6770  173.6090  138.5460 C   0  0  2  0  0  0  0  0  0  0  0  0
  196.3930  171.4340  139.4590 N   0  0  0  0  0  2  0  0  0  0  0  0
  196.2040  174.0040  139.9420 C   0  0  1  0  0  3  0  0  0  0  0  0
  196.1170  171.9780  140.8280 C   0  0  0  0  0  2  0  0  0  0  0  0
  195.6150  175.0380  139.0730 C   0  0  0  0  0  2  0  0  0  0  0  0
  1 35  1  6  0  0  0
  1  4  1  0  0  0  0
  2  1  1  0  0  0  0
  2 10  1  1  0  0  0
  3  6  1  1  0  0  0
  3  4  1  0  0  0  0
  5  3  1  0  0  0  0
  5  2  1  0  0  0  0
  6  8  2  0  0  0  0
  7  6  1  0  0  0  0
  9  6  2  0  0  0  0
 10 11  1  6  0  0  0
 11 14  1  0  0  0  0
 12 16  1  0  0  0  0
 12 19  1  0  0  0  0
 13 18  2  0  0  0  0
 13 21  1  0  0  0  0
 14 20  2  0  0  0  0
 17 15  1  0  0  0  0
 17 16  2  0  0  0  0
 18 17  1  0  0  0  0
 20 19  1  0  0  0  0
 21 14  1  0  0  0  0
 21 12  2  0  0  0  0
 22 10  1  0  0  0  0
 22 23  1  0  0  0  0
 23 25  1  0  0  0  0
 24 25  2  0  0  0  0
 26 28  2  0  0  0  0
 27 34  1  0  0  0  0
 27 26  1  0  0  0  0
 29 25  1  6  0  0  0
 29 27  1  0  0  0  0
 29 26  1  0  0  0  0
 30 32  1  0  0  0  0
 31 33  1  0  0  0  0
 31 30  1  0  0  0  0
 32 34  1  0  0  0  0
 33 34  1  0  0  0  0
 36 35  1  0  0  0  0
 37 36  1  0  0  0  0
 38 37  1  0  0  0  0
 40 39  1  1  0  0  0
 40 38  1  0  0  0  0
 42 41  1  6  0  0  0
 42 48  1  0  0  0  0
 42 45  1  0  0  0  0
 42 44  1  0  0  0  0
 44 40  1  6  0  0  0
 45 44  1  0  0  0  0
 45 43  1  1  0  0  0
 47 46  2  0  0  0  0
 47 48  1  0  0  0  0
 49 47  1  0  0  0  0
 49 50  2  0  0  0  0
 50 51  1  0  0  0  0
 52 57  1  0  0  0  0
 53 54  1  0  0  0  0
 53 55  1  0  0  0  0
 54 51  1  1  0  0  0
 54 58  1  0  0  0  0
 54 56  1  0  0  0  0
 55 57  1  0  0  0  0
 56 58  1  1  0  0  0
 56 52  1  0  0  0  0
M  END
>  <MODEL>
5

>  <REMARK>
 VINA RESULT:      -5.9      2.279      5.636
  Name = 
  19 active torsions:
  status: ('A' for Active; 'I' for Inactive)
    1  A    between atoms: C_3  and  C_18
    2  A    between atoms: C_4  and  C_47
    3  A    between atoms: N_5  and  C_46
    4  A    between atoms: C_7  and  N_28
    5  A    between atoms: C_12  and  C_25
    6  A    between atoms: O_13  and  C_39
    7  A    between atoms: O_13  and  C_41
    8  A    between atoms: C_15  and  C_42
    9  A    between atoms: C_17  and  S_19
   10  A    between atoms: C_18  and  C_35
   11  A    between atoms: C_22  and  C_34
   12  A    between atoms: C_22  and  C_35
   13  A    between atoms: C_23  and  C_26
   14  A    between atoms: C_26  and  C_53
   15  A    between atoms: C_34  and  C_58
   16  A    between atoms: C_39  and  C_47
   17  A    between atoms: C_41  and  CA_55
   18  A    between atoms: C_42  and  C_47
   19  A    between atoms: C_45  and  C_58
                            x       y       z     vdW  Elec       q    Type
                         _______ _______ _______ _____ _____    ______ ____

>  <TORSDO>
F 19

$$$$
=
 OpenBabel11072409323D

 58 65  0  0  1  0  0  0  0  0999 V2000
  188.5680  175.7290  145.4600 C   0  0  2  0  0  3  0  0  0  0  0  0
  189.2790  177.0510  145.1980 C   0  0  2  0  0  3  0  0  0  0  0  0
  187.0130  177.5110  145.9500 C   0  0  1  0  0  3  0  0  0  0  0  0
  187.0880  176.0590  145.5310 C   0  0  0  0  0  2  0  0  0  0  0  0
  188.2610  178.1650  145.3890 C   0  0  0  0  0  2  0  0  0  0  0  0
  185.5520  178.2830  145.2790 S   0  0  0  0  0  0  0  0  0  0  0  0
  184.2690  178.2930  146.5110 C   0  0  0  0  0  1  0  0  0  0  0  0
  185.0690  177.5410  144.0710 O   0  0  0  0  0  0  0  0  0  0  0  0
  185.8630  179.7010  144.8830 O   0  0  0  0  0  0  0  0  0  0  0  0
  189.9360  177.1180  143.8040 C   0  0  2  0  0  3  0  0  0  0  0  0
  191.2210  177.9370  143.8240 C   0  0  0  0  0  2  0  0  0  0  0  0
  194.0720  175.6950  143.5510 C   0  0  0  0  0  0  0  0  0  0  0  0
  193.4670  176.6240  145.6930 C   0  0  0  0  0  3  0  0  0  0  0  0
  192.4030  177.1080  143.4480 C   0  0  0  0  0  0  0  0  0  0  0  0
  196.3420  174.1660  146.1380 C   0  0  0  0  0  1  0  0  0  0  0  0
  195.0780  174.9100  144.1080 C   0  0  0  0  0  3  0  0  0  0  0  0
  195.2830  174.9910  145.4990 C   0  0  0  0  0  0  0  0  0  0  0  0
  194.4860  175.8490  146.2840 C   0  0  0  0  0  3  0  0  0  0  0  0
  193.7080  175.7590  142.2930 O   0  0  0  0  0  0  0  0  0  0  0  0
  192.6870  176.5920  142.1900 C   0  0  0  0  0  3  0  0  0  0  0  0
  193.2940  176.5150  144.3150 C   0  0  0  0  0  0  0  0  0  0  0  0
  188.9750  177.7470  142.8040 C   0  0  0  0  0  2  0  0  0  0  0  0
  187.9530  176.8270  142.4480 O   0  0  0  0  0  0  0  0  0  0  0  0
  187.5330  176.1290  140.3070 O   0  0  0  0  0  0  0  0  0  0  0  0
  188.1230  175.9160  141.4050 C   0  0  0  0  0  0  0  0  0  0  0  0
  188.1910  173.5210  141.5390 C   0  0  0  0  0  0  0  0  0  0  0  0
  189.1270  173.9790  140.4160 N   0  0  0  0  0  0  0  0  0  0  0  0
  187.3530  172.7100  142.0160 O   0  0  0  0  0  0  0  0  0  0  0  0
  188.9560  174.6790  141.6090 C   0  0  1  0  0  3  0  0  0  0  0  0
  191.0310  172.2400  137.8500 C   0  0  0  0  0  2  0  0  0  0  0  0
  189.6110  172.1710  137.3090 C   0  0  0  0  0  2  0  0  0  0  0  0
  190.9280  172.8930  139.2090 C   0  0  0  0  0  2  0  0  0  0  0  0
  188.7580  173.0700  138.1890 C   0  0  0  0  0  2  0  0  0  0  0  0
  189.7210  173.7910  139.1020 C   0  0  0  0  0  3  0  0  0  0  0  0
  189.0380  175.1640  146.7930 C   0  0  0  0  0  2  0  0  0  0  0  0
  190.4490  174.6130  146.6880 C   0  0  0  0  0  2  0  0  0  0  0  0
  190.6250  173.8400  145.3910 C   0  0  0  0  0  2  0  0  0  0  0  0
  192.0180  173.2490  145.3630 C   0  0  0  0  0  2  0  0  0  0  0  0
  191.8210  172.9090  142.8830 C   0  0  0  0  0  1  0  0  0  0  0  0
  192.1830  172.2540  144.2100 C   0  0  1  0  0  3  0  0  0  0  0  0
  192.6990  169.7520  143.1630 O   0  0  0  0  0  1  0  0  0  0  0  0
  193.8250  170.4090  143.6520 C   0  0  1  0  0  0  0  0  0  0  0  0
  195.1790  170.7270  145.6060 O   0  0  0  0  0  1  0  0  0  0  0  0
  193.6420  171.8270  144.1520 C   0  0  2  0  0  3  0  0  0  0  0  0
  193.8670  170.6800  145.1420 C   0  0  1  0  0  3  0  0  0  0  0  0
  196.4440  170.2780  141.0820 O   0  0  0  0  0  0  0  0  0  0  0  0
  195.3450  170.5930  141.6140 C   0  0  0  0  0  0  0  0  0  0  0  0
  195.0940  170.1780  142.9610 N   0  0  0  0  0  2  0  0  0  0  0  0
  194.3320  171.3580  140.8600 C   0  0  0  0  0  3  0  0  0  0  0  0
  194.5600  172.4040  140.0560 C   0  0  0  0  0  3  0  0  0  0  0  0
  195.9150  172.9790  139.8010 C   0  0  0  0  0  2  0  0  0  0  0  0
  197.7450  174.5140  138.6670 O   0  0  0  0  0  0  0  0  0  0  0  0
  195.1180  175.2910  139.1240 C   0  0  0  0  0  2  0  0  0  0  0  0
  195.9420  174.4790  140.1140 C   0  0  2  0  0  0  0  0  0  0  0  0
  195.5240  174.9590  137.7320 N   0  0  0  0  0  2  0  0  0  0  0  0
  197.2140  175.2550  139.7140 C   0  0  1  0  0  3  0  0  0  0  0  0
  197.0080  174.9710  137.5280 C   0  0  0  0  0  2  0  0  0  0  0  0
  197.0930  174.7220  141.0820 C   0  0  0  0  0  2  0  0  0  0  0  0
  1  4  1  0  0  0  0
  1 35  1  1  0  0  0
  2 10  1  6  0  0  0
  2  5  1  0  0  0  0
  2  1  1  0  0  0  0
  3  6  1  6  0  0  0
  4  3  1  0  0  0  0
  5  3  1  0  0  0  0
  6  7  1  0  0  0  0
  8  6  2  0  0  0  0
  9  6  2  0  0  0  0
 10 22  1  6  0  0  0
 10 11  1  0  0  0  0
 12 16  2  0  0  0  0
 12 21  1  0  0  0  0
 13 18  1  0  0  0  0
 14 11  1  0  0  0  0
 14 21  1  0  0  0  0
 16 17  1  0  0  0  0
 17 15  1  0  0  0  0
 17 18  2  0  0  0  0
 19 12  1  0  0  0  0
 20 19  1  0  0  0  0
 20 14  2  0  0  0  0
 21 13  2  0  0  0  0
 23 22  1  0  0  0  0
 24 25  2  0  0  0  0
 25 23  1  0  0  0  0
 26 29  1  0  0  0  0
 26 28  2  0  0  0  0
 27 26  1  0  0  0  0
 27 29  1  0  0  0  0
 29 25  1  6  0  0  0
 30 32  1  0  0  0  0
 31 30  1  0  0  0  0
 31 33  1  0  0  0  0
 33 34  1  0  0  0  0
 34 32  1  0  0  0  0
 34 27  1  0  0  0  0
 36 35  1  0  0  0  0
 37 36  1  0  0  0  0
 38 37  1  0  0  0  0
 40 39  1  6  0  0  0
 40 38  1  0  0  0  0
 42 41  1  6  0  0  0
 42 44  1  0  0  0  0
 42 45  1  0  0  0  0
 44 40  1  1  0  0  0
 44 45  1  0  0  0  0
 45 43  1  6  0  0  0
 46 47  2  0  0  0  0
 47 48  1  0  0  0  0
 48 42  1  0  0  0  0
 49 47  1  0  0  0  0
 50 49  2  0  0  0  0
 51 50  1  0  0  0  0
 52 56  1  0  0  0  0
 53 54  1  0  0  0  0
 54 51  1  6  0  0  0
 54 58  1  0  0  0  0
 55 53  1  0  0  0  0
 56 54  1  0  0  0  0
 56 58  1  1  0  0  0
 57 55  1  0  0  0  0
 57 52  1  0  0  0  0
M  END
>  <MODEL>
6

>  <REMARK>
 VINA RESULT:      -5.9      2.622      6.164
  Name = 
  19 active torsions:
  status: ('A' for Active; 'I' for Inactive)
    1  A    between atoms: C_3  and  C_18
    2  A    between atoms: C_4  and  C_47
    3  A    between atoms: N_5  and  C_46
    4  A    between atoms: C_7  and  N_28
    5  A    between atoms: C_12  and  C_25
    6  A    between atoms: O_13  and  C_39
    7  A    between atoms: O_13  and  C_41
    8  A    between atoms: C_15  and  C_42
    9  A    between atoms: C_17  and  S_19
   10  A    between atoms: C_18  and  C_35
   11  A    between atoms: C_22  and  C_34
   12  A    between atoms: C_22  and  C_35
   13  A    between atoms: C_23  and  C_26
   14  A    between atoms: C_26  and  C_53
   15  A    between atoms: C_34  and  C_58
   16  A    between atoms: C_39  and  C_47
   17  A    between atoms: C_41  and  CA_55
   18  A    between atoms: C_42  and  C_47
   19  A    between atoms: C_45  and  C_58
                            x       y       z     vdW  Elec       q    Type
                         _______ _______ _______ _____ _____    ______ ____

>  <TORSDO>
F 19

$$$$
=
 OpenBabel11072409323D

 58 65  0  0  1  0  0  0  0  0999 V2000
  194.0830  173.1020  144.8210 C   0  0  2  0  0  3  0  0  0  0  0  0
  193.3390  171.9220  144.2070 C   0  0  2  0  0  3  0  0  0  0  0  0
  195.0890  171.0760  145.6670 C   0  0  1  0  0  3  0  0  0  0  0  0
  195.3740  172.5340  145.3810 C   0  0  0  0  0  2  0  0  0  0  0  0
  194.0520  170.6520  144.6450 C   0  0  0  0  0  2  0  0  0  0  0  0
  196.5710  170.1000  145.4910 S   0  0  0  0  0  0  0  0  0  0  0  0
  196.3200  168.8650  144.2350 C   0  0  0  0  0  1  0  0  0  0  0  0
  196.9160  169.4250  146.7830 O   0  0  0  0  0  0  0  0  0  0  0  0
  197.7170  170.9860  145.0860 O   0  0  0  0  0  0  0  0  0  0  0  0
  193.2320  172.0090  142.6710 C   0  0  2  0  0  3  0  0  0  0  0  0
  192.1340  171.1020  142.1290 C   0  0  0  0  0  2  0  0  0  0  0  0
  189.0730  172.8080  141.1560 C   0  0  0  0  0  0  0  0  0  0  0  0
  190.9750  172.7990  139.6710 C   0  0  0  0  0  3  0  0  0  0  0  0
  190.8370  171.8270  142.0050 C   0  0  0  0  0  0  0  0  0  0  0  0
  188.0310  174.5020  137.9580 C   0  0  0  0  0  1  0  0  0  0  0  0
  188.2740  173.4670  140.2260 C   0  0  0  0  0  3  0  0  0  0  0  0
  188.8490  173.8040  138.9840 C   0  0  0  0  0  0  0  0  0  0  0  0
  190.1930  173.4770  138.7140 C   0  0  0  0  0  3  0  0  0  0  0  0
  188.7350  172.3950  142.3530 O   0  0  0  0  0  0  0  0  0  0  0  0
  189.7720  171.7790  142.8960 C   0  0  0  0  0  3  0  0  0  0  0  0
  190.3700  172.4820  140.8860 C   0  0  0  0  0  0  0  0  0  0  0  0
  194.5540  171.6060  142.0310 C   0  0  0  0  0  2  0  0  0  0  0  0
  195.1380  172.7120  141.3560 O   0  0  0  0  0  0  0  0  0  0  0  0
  194.4160  171.9790  139.3090 O   0  0  0  0  0  0  0  0  0  0  0  0
  194.9970  172.8810  139.9780 C   0  0  0  0  0  0  0  0  0  0  0  0
  194.5790  174.9370  138.8140 C   0  0  0  0  0  0  0  0  0  0  0  0
  195.3920  175.2420  140.0770 N   0  0  0  0  0  0  0  0  0  0  0  0
  193.6790  175.2310  137.9820 O   0  0  0  0  0  0  0  0  0  0  0  0
  195.5720  174.0960  139.3020 C   0  0  1  0  0  3  0  0  0  0  0  0
  195.4670  176.2270  143.5770 C   0  0  0  0  0  2  0  0  0  0  0  0
  196.9310  175.9350  143.2870 C   0  0  0  0  0  2  0  0  0  0  0  0
  194.7130  175.8690  142.3190 C   0  0  0  0  0  2  0  0  0  0  0  0
  197.0530  175.7360  141.7850 C   0  0  0  0  0  2  0  0  0  0  0  0
  195.7070  176.1000  141.2070 C   0  0  0  0  0  3  0  0  0  0  0  0
  193.2440  173.6910  145.9460 C   0  0  0  0  0  2  0  0  0  0  0  0
  193.8570  174.9750  146.4740 C   0  0  0  0  0  2  0  0  0  0  0  0
  192.8350  176.1010  146.4570 C   0  0  0  0  0  2  0  0  0  0  0  0
  192.1100  176.0780  145.1290 C   0  0  0  0  0  2  0  0  0  0  0  0
  190.2670  176.5190  146.7770 C   0  0  0  0  0  1  0  0  0  0  0  0
  190.6040  176.2970  145.3080 C   0  0  1  0  0  3  0  0  0  0  0  0
  190.1020  175.9650  142.6130 O   0  0  0  0  0  1  0  0  0  0  0  0
  190.0420  177.2870  143.0450 C   0  0  1  0  0  0  0  0  0  0  0  0
  191.3410  179.2800  143.3550 O   0  0  0  0  0  1  0  0  0  0  0  0
  190.2070  177.5430  144.5300 C   0  0  2  0  0  3  0  0  0  0  0  0
  191.3310  177.9020  143.5520 C   0  0  1  0  0  3  0  0  0  0  0  0
  186.9690  178.6080  141.5310 O   0  0  0  0  0  0  0  0  0  0  0  0
  187.7050  177.8100  142.1730 C   0  0  0  0  0  0  0  0  0  0  0  0
  189.0730  178.1670  142.3920 N   0  0  0  0  0  2  0  0  0  0  0  0
  187.1710  176.5270  142.6740 C   0  0  0  0  0  3  0  0  0  0  0  0
  186.5780  176.3180  143.8550 C   0  0  0  0  0  3  0  0  0  0  0  0
  186.3660  177.3820  144.8810 C   0  0  0  0  0  2  0  0  0  0  0  0
  186.7900  178.6300  147.1740 O   0  0  0  0  0  0  0  0  0  0  0  0
  184.4220  177.3370  146.5100 C   0  0  0  0  0  2  0  0  0  0  0  0
  185.8040  176.7900  146.1780 C   0  0  2  0  0  0  0  0  0  0  0  0
  184.4440  178.8240  146.4870 N   0  0  0  0  0  2  0  0  0  0  0  0
  186.3610  177.3510  147.5030 C   0  0  1  0  0  3  0  0  0  0  0  0
  185.5930  179.4120  147.2490 C   0  0  0  0  0  2  0  0  0  0  0  0
  186.9620  176.1390  146.9230 C   0  0  0  0  0  2  0  0  0  0  0  0
  1  4  1  0  0  0  0
  1 35  1  1  0  0  0
  2 10  1  6  0  0  0
  2  5  1  0  0  0  0
  2  1  1  0  0  0  0
  3  6  1  6  0  0  0
  4  3  1  0  0  0  0
  5  3  1  0  0  0  0
  6  8  2  0  0  0  0
  7  6  1  0  0  0  0
  9  6  2  0  0  0  0
 10 22  1  6  0  0  0
 11 10  1  0  0  0  0
 12 19  1  0  0  0  0
 13 21  2  0  0  0  0
 14 11  1  0  0  0  0
 14 20  2  0  0  0  0
 15 17  1  0  0  0  0
 16 12  2  0  0  0  0
 17 16  1  0  0  0  0
 18 17  2  0  0  0  0
 18 13  1  0  0  0  0
 19 20  1  0  0  0  0
 21 12  1  0  0  0  0
 21 14  1  0  0  0  0
 23 22  1  0  0  0  0
 24 25  2  0  0  0  0
 25 23  1  0  0  0  0
 26 29  1  0  0  0  0
 26 27  1  0  0  0  0
 27 34  1  0  0  0  0
 28 26  2  0  0  0  0
 29 25  1  1  0  0  0
 29 27  1  0  0  0  0
 31 30  1  0  0  0  0
 32 30  1  0  0  0  0
 33 31  1  0  0  0  0
 34 33  1  0  0  0  0
 34 32  1  0  0  0  0
 35 36  1  0  0  0  0
 37 36  1  0  0  0  0
 38 40  1  0  0  0  0
 38 37  1  0  0  0  0
 40 39  1  1  0  0  0
 42 41  1  6  0  0  0
 42 45  1  0  0  0  0
 42 44  1  0  0  0  0
 44 40  1  1  0  0  0
 45 43  1  6  0  0  0
 45 44  1  0  0  0  0
 46 47  2  0  0  0  0
 47 48  1  0  0  0  0
 47 49  1  0  0  0  0
 48 42  1  0  0  0  0
 49 50  2  0  0  0  0
 50 51  1  0  0  0  0
 52 57  1  0  0  0  0
 52 56  1  0  0  0  0
 54 51  1  6  0  0  0
 54 53  1  0  0  0  0
 54 58  1  0  0  0  0
 54 56  1  0  0  0  0
 55 53  1  0  0  0  0
 55 57  1  0  0  0  0
 56 58  1  6  0  0  0
M  END
>  <MODEL>
7

>  <REMARK>
 VINA RESULT:      -5.8      2.418      9.004
  Name = 
  19 active torsions:
  status: ('A' for Active; 'I' for Inactive)
    1  A    between atoms: C_3  and  C_18
    2  A    between atoms: C_4  and  C_47
    3  A    between atoms: N_5  and  C_46
    4  A    between atoms: C_7  and  N_28
    5  A    between atoms: C_12  and  C_25
    6  A    between atoms: O_13  and  C_39
    7  A    between atoms: O_13  and  C_41
    8  A    between atoms: C_15  and  C_42
    9  A    between atoms: C_17  and  S_19
   10  A    between atoms: C_18  and  C_35
   11  A    between atoms: C_22  and  C_34
   12  A    between atoms: C_22  and  C_35
   13  A    between atoms: C_23  and  C_26
   14  A    between atoms: C_26  and  C_53
   15  A    between atoms: C_34  and  C_58
   16  A    between atoms: C_39  and  C_47
   17  A    between atoms: C_41  and  CA_55
   18  A    between atoms: C_42  and  C_47
   19  A    between atoms: C_45  and  C_58
                            x       y       z     vdW  Elec       q    Type
                         _______ _______ _______ _____ _____    ______ ____

>  <TORSDO>
F 19

$$$$
=
 OpenBabel11072409323D

 58 65  0  0  1  0  0  0  0  0999 V2000
  190.0680  174.1790  142.4250 C   0  0  2  0  0  3  0  0  0  0  0  0
  191.0960  175.3000  142.3280 C   0  0  2  0  0  3  0  0  0  0  0  0
  191.9900  173.3170  141.2440 C   0  0  1  0  0  3  0  0  0  0  0  0
  190.8180  172.8990  142.1040 C   0  0  0  0  0  2  0  0  0  0  0  0
  192.3500  174.7200  141.6940 C   0  0  0  0  0  2  0  0  0  0  0  0
  193.3710  172.2130  141.4860 S   0  0  0  0  0  0  0  0  0  0  0  0
  192.9600  171.0170  142.7370 C   0  0  0  0  0  1  0  0  0  0  0  0
  194.5870  172.9750  141.9130 O   0  0  0  0  0  0  0  0  0  0  0  0
  193.6760  171.4930  140.2000 O   0  0  0  0  0  0  0  0  0  0  0  0
  191.4030  175.9580  143.6890 C   0  0  2  0  0  3  0  0  0  0  0  0
  190.9620  177.4160  143.7240 C   0  0  0  0  0  2  0  0  0  0  0  0
  187.3450  177.7900  143.7980 C   0  0  0  0  0  0  0  0  0  0  0  0
  188.5000  176.8520  145.6960 C   0  0  0  0  0  3  0  0  0  0  0  0
  189.4970  177.5510  143.4770 C   0  0  0  0  0  0  0  0  0  0  0  0
  184.7990  177.2200  146.5140 C   0  0  0  0  0  1  0  0  0  0  0  0
  186.1180  177.7640  144.4550 C   0  0  0  0  0  3  0  0  0  0  0  0
  186.0860  177.2610  145.7710 C   0  0  0  0  0  0  0  0  0  0  0  0
  187.2700  176.8020  146.3830 C   0  0  0  0  0  3  0  0  0  0  0  0
  187.5970  178.2270  142.5870 O   0  0  0  0  0  0  0  0  0  0  0  0
  188.8940  178.1150  142.3600 C   0  0  0  0  0  3  0  0  0  0  0  0
  188.4910  177.3560  144.3970 C   0  0  0  0  0  0  0  0  0  0  0  0
  192.8980  175.8960  143.9740 C   0  0  0  0  0  2  0  0  0  0  0  0
  193.1350  175.4110  145.2870 O   0  0  0  0  0  0  0  0  0  0  0  0
  194.2510  176.9380  146.5810 O   0  0  0  0  0  0  0  0  0  0  0  0
  194.2570  175.8050  146.0180 C   0  0  0  0  0  0  0  0  0  0  0  0
  195.2760  173.7250  145.3940 C   0  0  0  0  0  0  0  0  0  0  0  0
  196.1430  174.8750  144.8710 N   0  0  0  0  0  0  0  0  0  0  0  0
  194.7700  172.5780  145.2670 O   0  0  0  0  0  0  0  0  0  0  0  0
  195.4660  174.9130  146.0890 C   0  0  1  0  0  3  0  0  0  0  0  0
  197.9080  175.0000  141.6930 C   0  0  0  0  0  2  0  0  0  0  0  0
  196.8520  176.0810  141.5240 C   0  0  0  0  0  2  0  0  0  0  0  0
  197.6350  174.3540  143.0310 C   0  0  0  0  0  2  0  0  0  0  0  0
  196.2000  176.2780  142.8830 C   0  0  0  0  0  2  0  0  0  0  0  0
  197.0080  175.4520  143.8550 C   0  0  0  0  0  3  0  0  0  0  0  0
  188.9750  174.4140  141.3930 C   0  0  0  0  0  2  0  0  0  0  0  0
  188.4380  173.1000  140.8540 C   0  0  0  0  0  2  0  0  0  0  0  0
  188.2030  173.1950  139.3550 C   0  0  0  0  0  2  0  0  0  0  0  0
  189.4620  173.7190  138.6980 C   0  0  0  0  0  2  0  0  0  0  0  0
  190.6530  173.6190  136.4900 C   0  0  0  0  0  1  0  0  0  0  0  0
  189.9160  172.8110  137.5510 C   0  0  1  0  0  3  0  0  0  0  0  0
  190.1470  170.4470  136.1430 O   0  0  0  0  0  1  0  0  0  0  0  0
  190.8690  170.4740  137.3340 C   0  0  1  0  0  0  0  0  0  0  0  0
  190.7500  169.9750  139.6770 O   0  0  0  0  0  1  0  0  0  0  0  0
  190.8750  171.7730  138.1160 C   0  0  2  0  0  3  0  0  0  0  0  0
  190.0700  170.5690  138.6180 C   0  0  1  0  0  3  0  0  0  0  0  0
  194.2730  169.3260  136.5730 O   0  0  0  0  0  0  0  0  0  0  0  0
  193.2480  170.0600  136.5190 C   0  0  0  0  0  0  0  0  0  0  0  0
  192.1400  169.7510  137.3700 N   0  0  0  0  0  2  0  0  0  0  0  0
  193.1870  171.2040  135.5870 C   0  0  0  0  0  3  0  0  0  0  0  0
  193.6580  172.4370  135.8070 C   0  0  0  0  0  3  0  0  0  0  0  0
  194.3310  172.8580  137.0720 C   0  0  0  0  0  2  0  0  0  0  0  0
  196.0900  173.8970  138.7510 O   0  0  0  0  0  0  0  0  0  0  0  0
  195.6530  174.8270  136.1700 C   0  0  0  0  0  2  0  0  0  0  0  0
  194.5380  174.3760  137.1050 C   0  0  2  0  0  0  0  0  0  0  0  0
  196.8890  174.0440  136.4390 N   0  0  0  0  0  2  0  0  0  0  0  0
  195.3000  174.9540  138.3160 C   0  0  1  0  0  3  0  0  0  0  0  0
  197.2350  173.9630  137.8940 C   0  0  0  0  0  2  0  0  0  0  0  0
  193.8290  174.9080  138.3440 C   0  0  0  0  0  2  0  0  0  0  0  0
  1 35  1  6  0  0  0
  2  1  1  0  0  0  0
  2 10  1  1  0  0  0
  3  6  1  1  0  0  0
  3  5  1  0  0  0  0
  3  4  1  0  0  0  0
  4  1  1  0  0  0  0
  5  2  1  0  0  0  0
  6  8  2  0  0  0  0
  6  7  1  0  0  0  0
  9  6  2  0  0  0  0
 10 11  1  6  0  0  0
 10 22  1  0  0  0  0
 12 21  2  0  0  0  0
 12 16  1  0  0  0  0
 13 18  2  0  0  0  0
 14 11  1  0  0  0  0
 14 21  1  0  0  0  0
 16 17  2  0  0  0  0
 17 18  1  0  0  0  0
 17 15  1  0  0  0  0
 19 12  1  0  0  0  0
 20 19  1  0  0  0  0
 20 14  2  0  0  0  0
 21 13  1  0  0  0  0
 22 23  1  0  0  0  0
 23 25  1  0  0  0  0
 25 24  2  0  0  0  0
 26 29  1  0  0  0  0
 27 26  1  0  0  0  0
 27 29  1  0  0  0  0
 28 26  2  0  0  0  0
 29 25  1  6  0  0  0
 30 32  1  0  0  0  0
 31 30  1  0  0  0  0
 31 33  1  0  0  0  0
 32 34  1  0  0  0  0
 33 34  1  0  0  0  0
 34 27  1  0  0  0  0
 36 35  1  0  0  0  0
 37 36  1  0  0  0  0
 38 37  1  0  0  0  0
 40 39  1  6  0  0  0
 40 38  1  0  0  0  0
 42 41  1  6  0  0  0
 42 48  1  0  0  0  0
 42 44  1  0  0  0  0
 42 45  1  0  0  0  0
 44 40  1  6  0  0  0
 44 45  1  0  0  0  0
 45 43  1  1  0  0  0
 47 46  2  0  0  0  0
 47 48  1  0  0  0  0
 49 50  2  0  0  0  0
 49 47  1  0  0  0  0
 50 51  1  0  0  0  0
 53 55  1  0  0  0  0
 53 54  1  0  0  0  0
 54 51  1  1  0  0  0
 54 56  1  0  0  0  0
 54 58  1  0  0  0  0
 55 57  1  0  0  0  0
 56 58  1  1  0  0  0
 56 52  1  0  0  0  0
 57 52  1  0  0  0  0
M  END
>  <MODEL>
8

>  <REMARK>
 VINA RESULT:      -5.6      2.089      5.975
  Name = 
  19 active torsions:
  status: ('A' for Active; 'I' for Inactive)
    1  A    between atoms: C_3  and  C_18
    2  A    between atoms: C_4  and  C_47
    3  A    between atoms: N_5  and  C_46
    4  A    between atoms: C_7  and  N_28
    5  A    between atoms: C_12  and  C_25
    6  A    between atoms: O_13  and  C_39
    7  A    between atoms: O_13  and  C_41
    8  A    between atoms: C_15  and  C_42
    9  A    between atoms: C_17  and  S_19
   10  A    between atoms: C_18  and  C_35
   11  A    between atoms: C_22  and  C_34
   12  A    between atoms: C_22  and  C_35
   13  A    between atoms: C_23  and  C_26
   14  A    between atoms: C_26  and  C_53
   15  A    between atoms: C_34  and  C_58
   16  A    between atoms: C_39  and  C_47
   17  A    between atoms: C_41  and  CA_55
   18  A    between atoms: C_42  and  C_47
   19  A    between atoms: C_45  and  C_58
                            x       y       z     vdW  Elec       q    Type
                         _______ _______ _______ _____ _____    ______ ____

>  <TORSDO>
F 19

$$$$
=
 OpenBabel11072409323D

 58 65  0  0  1  0  0  0  0  0999 V2000
  189.2730  172.8250  142.7270 C   0  0  2  0  0  3  0  0  0  0  0  0
  190.3380  173.9120  142.6400 C   0  0  2  0  0  3  0  0  0  0  0  0
  191.2460  171.8450  141.7390 C   0  0  1  0  0  3  0  0  0  0  0  0
  190.0050  171.5100  142.5350 C   0  0  0  0  0  2  0  0  0  0  0  0
  191.6160  173.2620  142.1310 C   0  0  0  0  0  2  0  0  0  0  0  0
  192.5730  170.7230  142.1410 S   0  0  0  0  0  0  0  0  0  0  0  0
  193.1300  169.9090  140.6610 C   0  0  0  0  0  1  0  0  0  0  0  0
  192.1130  169.6930  143.1260 O   0  0  0  0  0  0  0  0  0  0  0  0
  193.7210  171.4890  142.7420 O   0  0  0  0  0  0  0  0  0  0  0  0
  190.5690  174.6420  143.9790 C   0  0  2  0  0  3  0  0  0  0  0  0
  191.5390  173.8830  144.8760 C   0  0  0  0  0  2  0  0  0  0  0  0
  194.3750  176.1080  145.3610 C   0  0  0  0  0  0  0  0  0  0  0  0
  194.2230  174.7620  143.3650 C   0  0  0  0  0  3  0  0  0  0  0  0
  192.6480  174.7600  145.3470 C   0  0  0  0  0  0  0  0  0  0  0  0
  197.2590  177.0510  143.1300 C   0  0  0  0  0  1  0  0  0  0  0  0
  195.5240  176.7520  144.9120 C   0  0  0  0  0  3  0  0  0  0  0  0
  196.0370  176.3840  143.6530 C   0  0  0  0  0  0  0  0  0  0  0  0
  195.3920  175.3890  142.8890 C   0  0  0  0  0  3  0  0  0  0  0  0
  193.7300  176.3070  146.4860 O   0  0  0  0  0  0  0  0  0  0  0  0
  192.6670  175.5220  146.5090 C   0  0  0  0  0  3  0  0  0  0  0  0
  193.7470  175.1550  144.6140 C   0  0  0  0  0  0  0  0  0  0  0  0
  189.2480  174.8030  144.7200 C   0  0  0  0  0  2  0  0  0  0  0  0
  189.4730  175.2540  146.0480 O   0  0  0  0  0  0  0  0  0  0  0  0
  189.6040  177.3210  147.0270 O   0  0  0  0  0  0  0  0  0  0  0  0
  188.8710  176.4140  146.5360 C   0  0  0  0  0  0  0  0  0  0  0  0
  186.9600  177.7690  147.0520 C   0  0  0  0  0  0  0  0  0  0  0  0
  186.9600  177.4700  145.5490 N   0  0  0  0  0  0  0  0  0  0  0  0
  186.7530  178.5450  148.0240 O   0  0  0  0  0  0  0  0  0  0  0  0
  187.3730  176.5550  146.5170 C   0  0  1  0  0  3  0  0  0  0  0  0
  187.6440  177.7260  141.9860 C   0  0  0  0  0  2  0  0  0  0  0  0
  186.4390  176.7990  142.0230 C   0  0  0  0  0  2  0  0  0  0  0  0
  188.0130  177.9880  143.4270 C   0  0  0  0  0  2  0  0  0  0  0  0
  185.9200  176.8050  143.4520 C   0  0  0  0  0  2  0  0  0  0  0  0
  186.7080  177.8710  144.1750 C   0  0  0  0  0  3  0  0  0  0  0  0
  188.2620  173.0260  141.6080 C   0  0  0  0  0  2  0  0  0  0  0  0
  188.4830  174.3490  140.8990 C   0  0  0  0  0  2  0  0  0  0  0  0
  188.4380  174.1620  139.3910 C   0  0  0  0  0  2  0  0  0  0  0  0
  188.5750  172.6870  139.0820 C   0  0  0  0  0  2  0  0  0  0  0  0
  190.0930  173.7280  137.3750 C   0  0  0  0  0  1  0  0  0  0  0  0
  189.3670  172.4550  137.7910 C   0  0  1  0  0  3  0  0  0  0  0  0
  190.0830  170.8760  135.6430 O   0  0  0  0  0  1  0  0  0  0  0  0
  190.6690  170.4980  136.8480 C   0  0  1  0  0  0  0  0  0  0  0  0
  190.3890  169.1030  138.7790 O   0  0  0  0  0  1  0  0  0  0  0  0
  190.4060  171.3750  138.0560 C   0  0  2  0  0  3  0  0  0  0  0  0
  189.7390  170.0000  137.9360 C   0  0  1  0  0  3  0  0  0  0  0  0
  194.2560  170.0610  136.1940 O   0  0  0  0  0  0  0  0  0  0  0  0
  193.1460  170.6550  136.2650 C   0  0  0  0  0  0  0  0  0  0  0  0
  192.0220  169.9450  136.7960 N   0  0  0  0  0  2  0  0  0  0  0  0
  193.0030  172.0490  135.7970 C   0  0  0  0  0  3  0  0  0  0  0  0
  193.7100  173.1060  136.2150 C   0  0  0  0  0  3  0  0  0  0  0  0
  194.7760  173.0350  137.2590 C   0  0  0  0  0  2  0  0  0  0  0  0
  194.7220  172.8470  139.8950 O   0  0  0  0  0  0  0  0  0  0  0  0
  196.2130  174.7240  138.4910 C   0  0  0  0  0  2  0  0  0  0  0  0
  194.7990  174.3110  138.1070 C   0  0  2  0  0  0  0  0  0  0  0  0
  196.9270  173.5760  139.1110 N   0  0  0  0  0  2  0  0  0  0  0  0
  194.4190  174.1690  139.5960 C   0  0  1  0  0  3  0  0  0  0  0  0
  196.1270  172.8810  140.1700 C   0  0  0  0  0  2  0  0  0  0  0  0
  193.3830  174.5430  138.6200 C   0  0  0  0  0  2  0  0  0  0  0  0
  1 35  1  6  0  0  0
  2  1  1  0  0  0  0
  2 10  1  1  0  0  0
  3  5  1  0  0  0  0
  3  6  1  1  0  0  0
  3  4  1  0  0  0  0
  4  1  1  0  0  0  0
  5  2  1  0  0  0  0
  6  9  2  0  0  0  0
  6  8  2  0  0  0  0
  7  6  1  0  0  0  0
 10 22  1  1  0  0  0
 10 11  1  0  0  0  0
 11 14  1  0  0  0  0
 12 19  1  0  0  0  0
 13 21  1  0  0  0  0
 14 20  2  0  0  0  0
 15 17  1  0  0  0  0
 16 12  1  0  0  0  0
 17 16  2  0  0  0  0
 18 13  2  0  0  0  0
 18 17  1  0  0  0  0
 19 20  1  0  0  0  0
 21 14  1  0  0  0  0
 21 12  2  0  0  0  0
 22 23  1  0  0  0  0
 23 25  1  0  0  0  0
 25 24  2  0  0  0  0
 26 28  2  0  0  0  0
 27 29  1  0  0  0  0
 27 26  1  0  0  0  0
 29 25  1  6  0  0  0
 29 26  1  0  0  0  0
 30 31  1  0  0  0  0
 30 32  1  0  0  0  0
 31 33  1  0  0  0  0
 32 34  1  0  0  0  0
 33 34  1  0  0  0  0
 34 27  1  0  0  0  0
 36 35  1  0  0  0  0
 37 36  1  0  0  0  0
 38 37  1  0  0  0  0
 40 39  1  1  0  0  0
 40 38  1  0  0  0  0
 42 41  1  6  0  0  0
 42 45  1  0  0  0  0
 42 44  1  0  0  0  0
 44 40  1  6  0  0  0
 45 44  1  0  0  0  0
 45 43  1  1  0  0  0
 46 47  2  0  0  0  0
 47 48  1  0  0  0  0
 48 42  1  0  0  0  0
 49 50  2  0  0  0  0
 49 47  1  0  0  0  0
 50 51  1  0  0  0  0
 52 57  1  0  0  0  0
 53 55  1  0  0  0  0
 54 51  1  6  0  0  0
 54 53  1  0  0  0  0
 54 58  1  0  0  0  0
 54 56  1  0  0  0  0
 55 57  1  0  0  0  0
 56 58  1  6  0  0  0
 56 52  1  0  0  0  0
M  END
>  <MODEL>
9

>  <REMARK>
 VINA RESULT:      -5.5      2.074      3.004
  Name = 
  19 active torsions:
  status: ('A' for Active; 'I' for Inactive)
    1  A    between atoms: C_3  and  C_18
    2  A    between atoms: C_4  and  C_47
    3  A    between atoms: N_5  and  C_46
    4  A    between atoms: C_7  and  N_28
    5  A    between atoms: C_12  and  C_25
    6  A    between atoms: O_13  and  C_39
    7  A    between atoms: O_13  and  C_41
    8  A    between atoms: C_15  and  C_42
    9  A    between atoms: C_17  and  S_19
   10  A    between atoms: C_18  and  C_35
   11  A    between atoms: C_22  and  C_34
   12  A    between atoms: C_22  and  C_35
   13  A    between atoms: C_23  and  C_26
   14  A    between atoms: C_26  and  C_53
   15  A    between atoms: C_34  and  C_58
   16  A    between atoms: C_39  and  C_47
   17  A    between atoms: C_41  and  CA_55
   18  A    between atoms: C_42  and  C_47
   19  A    between atoms: C_45  and  C_58
                            x       y       z     vdW  Elec       q    Type
                         _______ _______ _______ _____ _____    ______ ____

>  <TORSDO>
F 19

$$$$
