=
 OpenBabel11062421073D

 27 29  0  0  1  0  0  0  0  0999 V2000
  186.3960  177.6360  142.8930 N   0  0  0  0  0  0  0  0  0  0  0  0
  187.0880  177.2810  141.6470 C   0  0  1  0  0  3  0  0  0  0  0  0
  186.3230  177.6900  140.4130 C   0  0  0  0  0  3  0  0  0  0  0  0
  185.1310  177.9360  142.9580 C   0  0  0  0  0  0  0  0  0  0  0  0
  184.3680  178.0700  141.7110 C   0  0  0  0  0  0  0  0  0  0  0  0
  183.1280  178.2840  141.7330 O   0  0  0  0  0  0  0  0  0  0  0  0
  184.4990  178.2250  144.2140 N   0  0  0  0  0  2  0  0  0  0  0  0
  185.0650  178.0100  140.4650 N   0  0  0  0  0  0  0  0  0  0  0  0
  186.1480  177.8560  148.1030 C   0  0  0  0  0  3  0  0  0  0  0  0
  185.0640  178.0740  145.5250 C   0  0  0  0  0  0  0  0  0  0  0  0
  185.8210  176.7040  147.3860 C   0  0  0  0  0  3  0  0  0  0  0  0
  185.9310  179.1170  147.5380 C   0  0  0  0  0  0  0  0  0  0  0  0
  186.2530  180.2610  148.2520 O   0  0  0  0  0  1  0  0  0  0  0  0
  185.3890  179.2230  146.2540 C   0  0  0  0  0  3  0  0  0  0  0  0
  185.2790  176.8120  146.1020 C   0  0  0  0  0  3  0  0  0  0  0  0
  188.4830  177.8850  141.6120 C   0  0  0  0  0  2  0  0  0  0  0  0
  189.8240  176.2830  144.6400 N   0  0  0  0  0  0  0  0  0  0  0  0
  188.9170  175.2830  142.3350 S   0  0  0  0  0  0  0  0  0  0  0  0
  188.9520  175.2290  144.1460 C   0  0  0  0  0  2  0  0  0  0  0  0
  189.4740  177.0070  142.3610 C   0  0  2  0  0  3  0  0  0  0  0  0
  189.5690  177.4500  143.8060 C   0  0  2  0  0  3  0  0  0  0  0  0
  190.7050  178.4510  143.9460 C   0  0  0  0  0  1  0  0  0  0  0  0
  189.3660  176.5970  145.9870 C   0  0  0  0  0  2  0  0  0  0  0  0
  189.4020  175.3510  146.8570 C   0  0  0  0  0  2  0  0  0  0  0  0
  190.7490  175.2300  147.5490 C   0  0  0  0  0  2  0  0  0  0  0  0
  192.6220  176.6880  147.2990 O   0  0  0  0  0  1  0  0  0  0  0  0
  191.3280  176.6070  147.8150 C   0  0  0  0  0  2  0  0  0  0  0  0
  1  4  2  0  0  0  0
  2 16  1  1  0  0  0
  2  1  1  0  0  0  0
  3  8  2  0  0  0  0
  3  2  1  0  0  0  0
  4  7  1  0  0  0  0
  5  6  2  0  0  0  0
  5  4  1  0  0  0  0
  7 10  1  0  0  0  0
  8  5  1  0  0  0  0
 10 15  2  0  0  0  0
 10 14  1  0  0  0  0
 11  9  2  0  0  0  0
 12  9  1  0  0  0  0
 12 13  1  0  0  0  0
 14 12  2  0  0  0  0
 15 11  1  0  0  0  0
 17 23  1  0  0  0  0
 18 20  1  0  0  0  0
 18 19  1  0  0  0  0
 19 17  1  0  0  0  0
 20 16  1  6  0  0  0
 20 21  1  0  0  0  0
 21 22  1  6  0  0  0
 21 17  1  0  0  0  0
 23 24  1  0  0  0  0
 24 25  1  0  0  0  0
 25 27  1  0  0  0  0
 26 27  1  0  0  0  0
M  END
>  <MODEL>
1

>  <REMARK>
 VINA RESULT:      -7.2      0.000      0.000
  Name = 
  7 active torsions:
  status: ('A' for Active; 'I' for Inactive)
    1  A    between atoms: N_1  and  C_18
    2  A    between atoms: C_5  and  C_6
    3  A    between atoms: C_6  and  C_14
    4  A    between atoms: C_7  and  N_25
    5  A    between atoms: C_8  and  C_10
    6  A    between atoms: C_8  and  C_18
    7  A    between atoms: C_10  and  C_22
                            x       y       z     vdW  Elec       q    Type
                         _______ _______ _______ _____ _____    ______ ____

>  <TORSDO>
F 7

$$$$
=
 OpenBabel11062421073D

 27 29  0  0  1  0  0  0  0  0999 V2000
  187.0740  176.2030  142.9880 N   0  0  0  0  0  0  0  0  0  0  0  0
  187.7550  175.0600  142.3640 C   0  0  1  0  0  3  0  0  0  0  0  0
  188.0980  175.3010  140.9150 C   0  0  0  0  0  3  0  0  0  0  0  0
  186.5070  177.1620  142.3160 C   0  0  0  0  0  0  0  0  0  0  0  0
  186.6660  177.1980  140.8570 C   0  0  0  0  0  0  0  0  0  0  0  0
  186.0730  178.0640  140.1630 O   0  0  0  0  0  0  0  0  0  0  0  0
  185.8120  178.2270  142.9820 N   0  0  0  0  0  2  0  0  0  0  0  0
  187.5540  176.2660  140.2370 N   0  0  0  0  0  0  0  0  0  0  0  0
  184.9600  178.5060  147.1270 C   0  0  0  0  0  3  0  0  0  0  0  0
  185.4960  178.3170  144.3790 C   0  0  0  0  0  0  0  0  0  0  0  0
  183.9230  178.6540  146.2030 C   0  0  0  0  0  3  0  0  0  0  0  0
  186.2640  178.2670  146.6820 C   0  0  0  0  0  0  0  0  0  0  0  0
  187.2940  178.1230  147.6000 O   0  0  0  0  0  1  0  0  0  0  0  0
  186.5290  178.1760  145.3120 C   0  0  0  0  0  3  0  0  0  0  0  0
  184.1910  178.5620  144.8340 C   0  0  0  0  0  3  0  0  0  0  0  0
  189.0110  174.6920  143.1370 C   0  0  0  0  0  2  0  0  0  0  0  0
  192.2510  176.4020  143.4760 N   0  0  0  0  0  0  0  0  0  0  0  0
  191.4990  174.2410  142.0960 S   0  0  0  0  0  0  0  0  0  0  0  0
  192.6940  175.0450  143.1960 C   0  0  0  0  0  2  0  0  0  0  0  0
  190.2230  175.4300  142.5890 C   0  0  2  0  0  3  0  0  0  0  0  0
  190.8060  176.3310  143.6560 C   0  0  2  0  0  3  0  0  0  0  0  0
  190.1950  177.7170  143.5250 C   0  0  0  0  0  1  0  0  0  0  0  0
  192.8370  176.7680  144.7580 C   0  0  0  0  0  2  0  0  0  0  0  0
  192.5130  175.7150  145.8040 C   0  0  0  0  0  2  0  0  0  0  0  0
  192.2490  176.3700  147.1480 C   0  0  0  0  0  2  0  0  0  0  0  0
  190.1820  175.2540  147.5720 O   0  0  0  0  0  1  0  0  0  0  0  0
  190.7560  176.5110  147.3800 C   0  0  0  0  0  2  0  0  0  0  0  0
  2  1  1  0  0  0  0
  2 16  1  1  0  0  0
  3  2  1  0  0  0  0
  4  7  1  0  0  0  0
  4  1  2  0  0  0  0
  5  4  1  0  0  0  0
  6  5  2  0  0  0  0
  7 10  1  0  0  0  0
  8  5  1  0  0  0  0
  8  3  2  0  0  0  0
 10 15  2  0  0  0  0
 10 14  1  0  0  0  0
 11  9  2  0  0  0  0
 12  9  1  0  0  0  0
 12 13  1  0  0  0  0
 14 12  2  0  0  0  0
 15 11  1  0  0  0  0
 17 21  1  0  0  0  0
 17 23  1  0  0  0  0
 18 20  1  0  0  0  0
 18 19  1  0  0  0  0
 19 17  1  0  0  0  0
 20 16  1  1  0  0  0
 20 21  1  0  0  0  0
 21 22  1  6  0  0  0
 23 24  1  0  0  0  0
 24 25  1  0  0  0  0
 25 27  1  0  0  0  0
 27 26  1  0  0  0  0
M  END
>  <MODEL>
2

>  <REMARK>
 VINA RESULT:      -6.7      2.051      2.490
  Name = 
  7 active torsions:
  status: ('A' for Active; 'I' for Inactive)
    1  A    between atoms: N_1  and  C_18
    2  A    between atoms: C_5  and  C_6
    3  A    between atoms: C_6  and  C_14
    4  A    between atoms: C_7  and  N_25
    5  A    between atoms: C_8  and  C_10
    6  A    between atoms: C_8  and  C_18
    7  A    between atoms: C_10  and  C_22
                            x       y       z     vdW  Elec       q    Type
                         _______ _______ _______ _____ _____    ______ ____

>  <TORSDO>
F 7

$$$$
=
 OpenBabel11062421073D

 27 29  0  0  1  0  0  0  0  0999 V2000
  186.8810  176.7120  142.7180 N   0  0  0  0  0  0  0  0  0  0  0  0
  187.5470  175.7710  141.8070 C   0  0  1  0  0  3  0  0  0  0  0  0
  187.4880  176.2090  140.3660 C   0  0  0  0  0  3  0  0  0  0  0  0
  186.0330  177.6190  142.3280 C   0  0  0  0  0  0  0  0  0  0  0  0
  185.8250  177.8250  140.8900 C   0  0  0  0  0  0  0  0  0  0  0  0
  184.9600  178.6390  140.4720 O   0  0  0  0  0  0  0  0  0  0  0  0
  185.3740  178.4760  143.2730 N   0  0  0  0  0  2  0  0  0  0  0  0
  186.6600  177.1270  139.9650 N   0  0  0  0  0  0  0  0  0  0  0  0
  185.5300  178.1820  147.5000 C   0  0  0  0  0  3  0  0  0  0  0  0
  185.3990  178.3720  144.7040 C   0  0  0  0  0  0  0  0  0  0  0  0
  184.3050  178.4200  146.8750 C   0  0  0  0  0  3  0  0  0  0  0  0
  186.6910  178.0420  146.7330 C   0  0  0  0  0  0  0  0  0  0  0  0
  187.9090  177.8070  147.3540 O   0  0  0  0  0  1  0  0  0  0  0  0
  186.6240  178.1390  145.3400 C   0  0  0  0  0  3  0  0  0  0  0  0
  184.2400  178.5170  145.4820 C   0  0  0  0  0  3  0  0  0  0  0  0
  188.9940  175.5530  142.2210 C   0  0  0  0  0  2  0  0  0  0  0  0
  191.1280  176.5060  145.0610 N   0  0  0  0  0  0  0  0  0  0  0  0
  190.3160  177.8490  142.9000 S   0  0  0  0  0  0  0  0  0  0  0  0
  191.6560  177.3820  144.0270 C   0  0  0  0  0  2  0  0  0  0  0  0
  189.3500  176.4090  143.4270 C   0  0  2  0  0  3  0  0  0  0  0  0
  190.1910  175.6080  144.3990 C   0  0  2  0  0  3  0  0  0  0  0  0
  189.2790  174.9540  145.4240 C   0  0  0  0  0  1  0  0  0  0  0  0
  192.2500  175.7030  145.5300 C   0  0  0  0  0  2  0  0  0  0  0  0
  192.8990  176.3630  146.7350 C   0  0  0  0  0  2  0  0  0  0  0  0
  194.3930  176.5220  146.5080 C   0  0  0  0  0  2  0  0  0  0  0  0
  195.4920  176.7390  144.4000 O   0  0  0  0  0  1  0  0  0  0  0  0
  194.8040  175.8400  145.2160 C   0  0  0  0  0  2  0  0  0  0  0  0
  2 16  1  1  0  0  0
  2  1  1  0  0  0  0
  3  2  1  0  0  0  0
  4  1  2  0  0  0  0
  4  7  1  0  0  0  0
  5  4  1  0  0  0  0
  6  5  2  0  0  0  0
  7 10  1  0  0  0  0
  8  3  2  0  0  0  0
  8  5  1  0  0  0  0
 10 14  2  0  0  0  0
 10 15  1  0  0  0  0
 11  9  1  0  0  0  0
 12 13  1  0  0  0  0
 12  9  2  0  0  0  0
 14 12  1  0  0  0  0
 15 11  2  0  0  0  0
 17 23  1  0  0  0  0
 18 20  1  0  0  0  0
 18 19  1  0  0  0  0
 19 17  1  0  0  0  0
 20 16  1  6  0  0  0
 20 21  1  0  0  0  0
 21 17  1  0  0  0  0
 21 22  1  1  0  0  0
 23 24  1  0  0  0  0
 25 24  1  0  0  0  0
 26 27  1  0  0  0  0
 27 25  1  0  0  0  0
M  END
>  <MODEL>
3

>  <REMARK>
 VINA RESULT:      -6.7      2.066      2.542
  Name = 
  7 active torsions:
  status: ('A' for Active; 'I' for Inactive)
    1  A    between atoms: N_1  and  C_18
    2  A    between atoms: C_5  and  C_6
    3  A    between atoms: C_6  and  C_14
    4  A    between atoms: C_7  and  N_25
    5  A    between atoms: C_8  and  C_10
    6  A    between atoms: C_8  and  C_18
    7  A    between atoms: C_10  and  C_22
                            x       y       z     vdW  Elec       q    Type
                         _______ _______ _______ _____ _____    ______ ____

>  <TORSDO>
F 7

$$$$
=
 OpenBabel11062421073D

 27 29  0  0  1  0  0  0  0  0999 V2000
  189.8910  175.3300  143.1830 N   0  0  0  0  0  0  0  0  0  0  0  0
  189.1960  175.6690  141.9330 C   0  0  1  0  0  3  0  0  0  0  0  0
  188.2020  174.6170  141.5110 C   0  0  0  0  0  3  0  0  0  0  0  0
  189.9300  174.1310  143.6860 C   0  0  0  0  0  0  0  0  0  0  0  0
  189.1250  173.0720  143.0650 C   0  0  0  0  0  0  0  0  0  0  0  0
  189.1930  171.8840  143.4740 O   0  0  0  0  0  0  0  0  0  0  0  0
  190.6690  173.8510  144.8850 N   0  0  0  0  0  2  0  0  0  0  0  0
  188.2170  173.4210  142.0180 N   0  0  0  0  0  0  0  0  0  0  0  0
  193.2570  176.4620  146.9990 C   0  0  0  0  0  3  0  0  0  0  0  0
  191.5630  174.7340  145.5790 C   0  0  0  0  0  0  0  0  0  0  0  0
  193.7600  175.7140  145.9330 C   0  0  0  0  0  3  0  0  0  0  0  0
  191.9110  176.3470  147.3610 C   0  0  0  0  0  0  0  0  0  0  0  0
  191.4120  177.0880  148.4220 O   0  0  0  0  0  1  0  0  0  0  0  0
  191.0690  175.4830  146.6530 C   0  0  0  0  0  3  0  0  0  0  0  0
  192.9170  174.8510  145.2270 C   0  0  0  0  0  3  0  0  0  0  0  0
  188.5030  177.0170  142.0500 C   0  0  0  0  0  2  0  0  0  0  0  0
  185.3680  178.0210  143.6920 N   0  0  0  0  0  0  0  0  0  0  0  0
  186.0050  177.6390  141.1250 S   0  0  0  0  0  0  0  0  0  0  0  0
  185.2030  178.6560  142.3930 C   0  0  0  0  0  2  0  0  0  0  0  0
  187.0310  176.8440  142.3910 C   0  0  2  0  0  3  0  0  0  0  0  0
  186.7280  177.4980  143.7220 C   0  0  2  0  0  3  0  0  0  0  0  0
  186.8660  176.4640  144.8280 C   0  0  0  0  0  1  0  0  0  0  0  0
  185.2840  179.0860  144.6820 C   0  0  0  0  0  2  0  0  0  0  0  0
  184.0780  178.8700  145.5820 C   0  0  0  0  0  2  0  0  0  0  0  0
  184.5210  178.3730  146.9480 C   0  0  0  0  0  2  0  0  0  0  0  0
  186.7260  178.2430  147.8530 O   0  0  0  0  0  1  0  0  0  0  0  0
  185.7480  179.1350  147.4110 C   0  0  0  0  0  2  0  0  0  0  0  0
  1  4  2  0  0  0  0
  2 16  1  1  0  0  0
  2  1  1  0  0  0  0
  3  2  1  0  0  0  0
  3  8  2  0  0  0  0
  4  7  1  0  0  0  0
  5  6  2  0  0  0  0
  5  4  1  0  0  0  0
  7 10  1  0  0  0  0
  8  5  1  0  0  0  0
  9 12  1  0  0  0  0
 10 14  1  0  0  0  0
 11  9  2  0  0  0  0
 12 13  1  0  0  0  0
 14 12  2  0  0  0  0
 15 10  2  0  0  0  0
 15 11  1  0  0  0  0
 17 21  1  0  0  0  0
 17 23  1  0  0  0  0
 18 20  1  0  0  0  0
 18 19  1  0  0  0  0
 19 17  1  0  0  0  0
 20 16  1  6  0  0  0
 20 21  1  0  0  0  0
 21 22  1  1  0  0  0
 23 24  1  0  0  0  0
 24 25  1  0  0  0  0
 25 27  1  0  0  0  0
 27 26  1  0  0  0  0
M  END
>  <MODEL>
4

>  <REMARK>
 VINA RESULT:      -6.6      2.477      5.946
  Name = 
  7 active torsions:
  status: ('A' for Active; 'I' for Inactive)
    1  A    between atoms: N_1  and  C_18
    2  A    between atoms: C_5  and  C_6
    3  A    between atoms: C_6  and  C_14
    4  A    between atoms: C_7  and  N_25
    5  A    between atoms: C_8  and  C_10
    6  A    between atoms: C_8  and  C_18
    7  A    between atoms: C_10  and  C_22
                            x       y       z     vdW  Elec       q    Type
                         _______ _______ _______ _____ _____    ______ ____

>  <TORSDO>
F 7

$$$$
=
 OpenBabel11062421073D

 27 29  0  0  1  0  0  0  0  0999 V2000
  187.1010  176.1900  142.9520 N   0  0  0  0  0  0  0  0  0  0  0  0
  187.7850  175.0620  142.3060 C   0  0  1  0  0  3  0  0  0  0  0  0
  188.0730  175.3090  140.8470 C   0  0  0  0  0  3  0  0  0  0  0  0
  186.4900  177.1360  142.3000 C   0  0  0  0  0  0  0  0  0  0  0  0
  186.5990  177.1740  140.8370 C   0  0  0  0  0  0  0  0  0  0  0  0
  185.9630  178.0260  140.1640 O   0  0  0  0  0  0  0  0  0  0  0  0
  185.7950  178.1860  142.9900 N   0  0  0  0  0  2  0  0  0  0  0  0
  187.4850  176.2620  140.1870 N   0  0  0  0  0  0  0  0  0  0  0  0
  185.0790  178.4420  147.1620 C   0  0  0  0  0  3  0  0  0  0  0  0
  185.5250  178.2700  144.3970 C   0  0  0  0  0  0  0  0  0  0  0  0
  184.0270  178.6650  146.2710 C   0  0  0  0  0  3  0  0  0  0  0  0
  186.3540  178.1380  146.6750 C   0  0  0  0  0  0  0  0  0  0  0  0
  187.4000  177.9200  147.5590 O   0  0  0  0  0  1  0  0  0  0  0  0
  186.5750  178.0540  145.2970 C   0  0  0  0  0  3  0  0  0  0  0  0
  184.2490  178.5810  144.8940 C   0  0  0  0  0  3  0  0  0  0  0  0
  189.0750  174.7230  143.0360 C   0  0  0  0  0  2  0  0  0  0  0  0
  192.1910  176.6580  143.3150 N   0  0  0  0  0  0  0  0  0  0  0  0
  191.6070  174.3720  142.0630 S   0  0  0  0  0  0  0  0  0  0  0  0
  192.7260  175.3180  143.1280 C   0  0  0  0  0  2  0  0  0  0  0  0
  190.2470  175.5030  142.4610 C   0  0  2  0  0  3  0  0  0  0  0  0
  190.7510  176.5050  143.4780 C   0  0  2  0  0  3  0  0  0  0  0  0
  190.0550  177.8370  143.2510 C   0  0  0  0  0  1  0  0  0  0  0  0
  192.7280  177.1410  144.5800 C   0  0  0  0  0  2  0  0  0  0  0  0
  192.0760  176.4090  145.7410 C   0  0  0  0  0  2  0  0  0  0  0  0
  193.1220  176.0120  146.7690 C   0  0  0  0  0  2  0  0  0  0  0  0
  195.3070  175.2880  146.1340 O   0  0  0  0  0  1  0  0  0  0  0  0
  194.5050  176.4180  146.2950 C   0  0  0  0  0  2  0  0  0  0  0  0
  2  1  1  0  0  0  0
  2 16  1  1  0  0  0
  3  2  1  0  0  0  0
  4  1  2  0  0  0  0
  4  7  1  0  0  0  0
  5  4  1  0  0  0  0
  6  5  2  0  0  0  0
  7 10  1  0  0  0  0
  8  5  1  0  0  0  0
  8  3  2  0  0  0  0
 10 15  2  0  0  0  0
 10 14  1  0  0  0  0
 11  9  2  0  0  0  0
 12  9  1  0  0  0  0
 12 13  1  0  0  0  0
 14 12  2  0  0  0  0
 15 11  1  0  0  0  0
 17 21  1  0  0  0  0
 17 23  1  0  0  0  0
 18 20  1  0  0  0  0
 18 19  1  0  0  0  0
 19 17  1  0  0  0  0
 20 16  1  1  0  0  0
 20 21  1  0  0  0  0
 21 22  1  6  0  0  0
 23 24  1  0  0  0  0
 24 25  1  0  0  0  0
 26 27  1  0  0  0  0
 27 25  1  0  0  0  0
M  END
>  <MODEL>
5

>  <REMARK>
 VINA RESULT:      -6.5      2.177      2.604
  Name = 
  7 active torsions:
  status: ('A' for Active; 'I' for Inactive)
    1  A    between atoms: N_1  and  C_18
    2  A    between atoms: C_5  and  C_6
    3  A    between atoms: C_6  and  C_14
    4  A    between atoms: C_7  and  N_25
    5  A    between atoms: C_8  and  C_10
    6  A    between atoms: C_8  and  C_18
    7  A    between atoms: C_10  and  C_22
                            x       y       z     vdW  Elec       q    Type
                         _______ _______ _______ _____ _____    ______ ____

>  <TORSDO>
F 7

$$$$
=
 OpenBabel11062421073D

 27 29  0  0  1  0  0  0  0  0999 V2000
  189.4330  175.4320  145.5470 N   0  0  0  0  0  0  0  0  0  0  0  0
  190.4460  174.5360  144.9730 C   0  0  1  0  0  3  0  0  0  0  0  0
  191.6550  174.3750  145.8590 C   0  0  0  0  0  3  0  0  0  0  0  0
  189.6720  176.2710  146.5120 C   0  0  0  0  0  0  0  0  0  0  0  0
  190.9810  176.2360  147.1760 C   0  0  0  0  0  0  0  0  0  0  0  0
  191.2790  177.0780  148.0620 O   0  0  0  0  0  0  0  0  0  0  0  0
  188.6520  177.1590  146.9970 N   0  0  0  0  0  2  0  0  0  0  0  0
  191.8970  175.1930  146.8390 N   0  0  0  0  0  0  0  0  0  0  0  0
  184.8490  177.8360  145.2470 C   0  0  0  0  0  3  0  0  0  0  0  0
  187.3530  177.3800  146.4280 C   0  0  0  0  0  0  0  0  0  0  0  0
  184.9460  177.0360  146.3870 C   0  0  0  0  0  3  0  0  0  0  0  0
  186.0000  178.4060  144.6930 C   0  0  0  0  0  0  0  0  0  0  0  0
  185.9040  179.1980  143.5580 O   0  0  0  0  0  1  0  0  0  0  0  0
  187.2470  178.1750  145.2820 C   0  0  0  0  0  3  0  0  0  0  0  0
  186.1930  176.8070  146.9750 C   0  0  0  0  0  3  0  0  0  0  0  0
  189.8470  173.1740  144.6630 C   0  0  0  0  0  2  0  0  0  0  0  0
  189.1970  173.9020  141.1160 N   0  0  0  0  0  0  0  0  0  0  0  0
  191.4630  173.5500  142.4880 S   0  0  0  0  0  0  0  0  0  0  0  0
  190.5130  174.5020  141.2740 C   0  0  0  0  0  2  0  0  0  0  0  0
  189.9300  172.8690  143.1750 C   0  0  2  0  0  3  0  0  0  0  0  0
  188.7640  173.5080  142.4500 C   0  0  2  0  0  3  0  0  0  0  0  0
  187.6260  172.5040  142.3560 C   0  0  0  0  0  1  0  0  0  0  0  0
  188.3120  174.9650  140.6620 C   0  0  0  0  0  2  0  0  0  0  0  0
  187.9900  175.9060  141.8110 C   0  0  0  0  0  2  0  0  0  0  0  0
  187.7900  177.3210  141.2940 C   0  0  0  0  0  2  0  0  0  0  0  0
  189.6650  177.5430  142.7550 O   0  0  0  0  0  1  0  0  0  0  0  0
  188.8460  178.2450  141.8700 C   0  0  0  0  0  2  0  0  0  0  0  0
  1  4  2  0  0  0  0
  2 16  1  1  0  0  0
  2  1  1  0  0  0  0
  2  3  1  0  0  0  0
  3  8  2  0  0  0  0
  4  7  1  0  0  0  0
  4  5  1  0  0  0  0
  5  6  2  0  0  0  0
  8  5  1  0  0  0  0
  9 11  1  0  0  0  0
 10 15  1  0  0  0  0
 10  7  1  0  0  0  0
 11 15  2  0  0  0  0
 12  9  2  0  0  0  0
 12 14  1  0  0  0  0
 13 12  1  0  0  0  0
 14 10  2  0  0  0  0
 17 19  1  0  0  0  0
 17 21  1  0  0  0  0
 18 20  1  0  0  0  0
 19 18  1  0  0  0  0
 20 16  1  1  0  0  0
 21 22  1  6  0  0  0
 21 20  1  0  0  0  0
 23 17  1  0  0  0  0
 23 24  1  0  0  0  0
 25 24  1  0  0  0  0
 25 27  1  0  0  0  0
 27 26  1  0  0  0  0
M  END
>  <MODEL>
6

>  <REMARK>
 VINA RESULT:      -6.3      2.610      5.650
  Name = 
  7 active torsions:
  status: ('A' for Active; 'I' for Inactive)
    1  A    between atoms: N_1  and  C_18
    2  A    between atoms: C_5  and  C_6
    3  A    between atoms: C_6  and  C_14
    4  A    between atoms: C_7  and  N_25
    5  A    between atoms: C_8  and  C_10
    6  A    between atoms: C_8  and  C_18
    7  A    between atoms: C_10  and  C_22
                            x       y       z     vdW  Elec       q    Type
                         _______ _______ _______ _____ _____    ______ ____

>  <TORSDO>
F 7

$$$$
=
 OpenBabel11062421073D

 27 29  0  0  1  0  0  0  0  0999 V2000
  188.0490  174.9360  142.7530 N   0  0  0  0  0  0  0  0  0  0  0  0
  188.5280  173.7700  141.9980 C   0  0  1  0  0  3  0  0  0  0  0  0
  188.6910  174.0510  140.5260 C   0  0  0  0  0  3  0  0  0  0  0  0
  187.4880  175.9730  142.2040 C   0  0  0  0  0  0  0  0  0  0  0  0
  187.4500  176.0680  140.7390 C   0  0  0  0  0  0  0  0  0  0  0  0
  186.8520  177.0160  140.1680 O   0  0  0  0  0  0  0  0  0  0  0  0
  186.9940  177.0610  143.0000 N   0  0  0  0  0  2  0  0  0  0  0  0
  188.1530  175.0930  139.9660 N   0  0  0  0  0  0  0  0  0  0  0  0
  186.7340  177.2420  147.2290 C   0  0  0  0  0  3  0  0  0  0  0  0
  186.8820  177.1090  144.4300 C   0  0  0  0  0  0  0  0  0  0  0  0
  185.5840  176.9800  146.4820 C   0  0  0  0  0  3  0  0  0  0  0  0
  187.9570  177.4420  146.5810 C   0  0  0  0  0  0  0  0  0  0  0  0
  189.1000  177.7050  147.3220 O   0  0  0  0  0  1  0  0  0  0  0  0
  188.0280  177.3770  145.1860 C   0  0  0  0  0  3  0  0  0  0  0  0
  185.6560  176.9150  145.0880 C   0  0  0  0  0  3  0  0  0  0  0  0
  189.8370  173.2550  142.5730 C   0  0  0  0  0  2  0  0  0  0  0  0
  192.6820  174.6960  144.4070 N   0  0  0  0  0  0  0  0  0  0  0  0
  192.0620  174.6490  141.8090 S   0  0  0  0  0  0  0  0  0  0  0  0
  193.3000  174.4410  143.1150 C   0  0  0  0  0  2  0  0  0  0  0  0
  190.7290  174.4060  143.0130 C   0  0  2  0  0  3  0  0  0  0  0  0
  191.3570  174.0910  144.3540 C   0  0  2  0  0  3  0  0  0  0  0  0
  190.4800  174.6560  145.4590 C   0  0  0  0  0  1  0  0  0  0  0  0
  193.4640  173.9570  145.3890 C   0  0  0  0  0  2  0  0  0  0  0  0
  194.6150  174.8120  145.8930 C   0  0  0  0  0  2  0  0  0  0  0  0
  194.0910  176.1130  146.4760 C   0  0  0  0  0  2  0  0  0  0  0  0
  195.4600  176.8490  144.6640 O   0  0  0  0  0  1  0  0  0  0  0  0
  194.6380  177.2960  145.6990 C   0  0  0  0  0  2  0  0  0  0  0  0
  2 16  1  1  0  0  0
  2  1  1  0  0  0  0
  3  2  1  0  0  0  0
  4  1  2  0  0  0  0
  4  7  1  0  0  0  0
  5  4  1  0  0  0  0
  6  5  2  0  0  0  0
  7 10  1  0  0  0  0
  8  3  2  0  0  0  0
  8  5  1  0  0  0  0
 10 15  2  0  0  0  0
 10 14  1  0  0  0  0
 11  9  2  0  0  0  0
 12  9  1  0  0  0  0
 12 13  1  0  0  0  0
 14 12  2  0  0  0  0
 15 11  1  0  0  0  0
 17 23  1  0  0  0  0
 18 20  1  0  0  0  0
 18 19  1  0  0  0  0
 19 17  1  0  0  0  0
 20 16  1  6  0  0  0
 20 21  1  0  0  0  0
 21 17  1  0  0  0  0
 21 22  1  1  0  0  0
 23 24  1  0  0  0  0
 24 25  1  0  0  0  0
 26 27  1  0  0  0  0
 27 25  1  0  0  0  0
M  END
>  <MODEL>
7

>  <REMARK>
 VINA RESULT:      -6.1      2.944      3.651
  Name = 
  7 active torsions:
  status: ('A' for Active; 'I' for Inactive)
    1  A    between atoms: N_1  and  C_18
    2  A    between atoms: C_5  and  C_6
    3  A    between atoms: C_6  and  C_14
    4  A    between atoms: C_7  and  N_25
    5  A    between atoms: C_8  and  C_10
    6  A    between atoms: C_8  and  C_18
    7  A    between atoms: C_10  and  C_22
                            x       y       z     vdW  Elec       q    Type
                         _______ _______ _______ _____ _____    ______ ____

>  <TORSDO>
F 7

$$$$
=
 OpenBabel11062421073D

 27 29  0  0  1  0  0  0  0  0999 V2000
  190.0380  174.6030  143.8090 N   0  0  0  0  0  0  0  0  0  0  0  0
  191.0590  174.0530  144.7110 C   0  0  1  0  0  3  0  0  0  0  0  0
  191.5350  172.6850  144.2920 C   0  0  0  0  0  3  0  0  0  0  0  0
  189.3550  173.8860  142.9660 C   0  0  0  0  0  0  0  0  0  0  0  0
  189.7070  172.4720  142.7870 C   0  0  0  0  0  0  0  0  0  0  0  0
  189.0240  171.7260  142.0390 O   0  0  0  0  0  0  0  0  0  0  0  0
  188.3320  174.4730  142.1460 N   0  0  0  0  0  2  0  0  0  0  0  0
  190.8740  171.9640  143.4360 N   0  0  0  0  0  0  0  0  0  0  0  0
  186.7310  178.3870  142.4630 C   0  0  0  0  0  3  0  0  0  0  0  0
  187.8090  175.8070  142.2350 C   0  0  0  0  0  0  0  0  0  0  0  0
  188.0130  178.2120  141.9370 C   0  0  0  0  0  3  0  0  0  0  0  0
  185.9880  177.2780  142.8780 C   0  0  0  0  0  0  0  0  0  0  0  0
  184.7160  177.4520  143.4040 O   0  0  0  0  0  1  0  0  0  0  0  0
  186.5280  175.9930  142.7660 C   0  0  0  0  0  3  0  0  0  0  0  0
  188.5510  176.9270  141.8250 C   0  0  0  0  0  3  0  0  0  0  0  0
  192.2440  174.9980  144.8270 C   0  0  0  0  0  2  0  0  0  0  0  0
  189.9110  177.4660  146.2410 N   0  0  0  0  0  0  0  0  0  0  0  0
  191.5280  175.6700  147.3790 S   0  0  0  0  0  0  0  0  0  0  0  0
  189.8990  176.4570  147.2890 C   0  0  0  0  0  2  0  0  0  0  0  0
  191.8960  176.2040  145.6860 C   0  0  2  0  0  3  0  0  0  0  0  0
  190.6680  176.8970  145.1340 C   0  0  2  0  0  3  0  0  0  0  0  0
  191.1050  177.9970  144.1790 C   0  0  0  0  0  1  0  0  0  0  0  0
  188.5310  177.6140  145.7990 C   0  0  0  0  0  2  0  0  0  0  0  0
  187.6990  176.4320  146.2700 C   0  0  0  0  0  2  0  0  0  0  0  0
  186.2550  176.8550  146.4820 C   0  0  0  0  0  2  0  0  0  0  0  0
  185.0230  178.5630  147.6050 O   0  0  0  0  0  1  0  0  0  0  0  0
  186.1880  178.3180  146.8770 C   0  0  0  0  0  2  0  0  0  0  0  0
  1  2  1  0  0  0  0
  2 16  1  6  0  0  0
  3  2  1  0  0  0  0
  4  1  2  0  0  0  0
  5  4  1  0  0  0  0
  5  8  1  0  0  0  0
  6  5  2  0  0  0  0
  7 10  1  0  0  0  0
  7  4  1  0  0  0  0
  8  3  2  0  0  0  0
  9 12  1  0  0  0  0
 10 14  1  0  0  0  0
 11  9  2  0  0  0  0
 12 13  1  0  0  0  0
 14 12  2  0  0  0  0
 15 11  1  0  0  0  0
 15 10  2  0  0  0  0
 17 19  1  0  0  0  0
 19 18  1  0  0  0  0
 20 16  1  6  0  0  0
 20 18  1  0  0  0  0
 21 22  1  6  0  0  0
 21 20  1  0  0  0  0
 21 17  1  0  0  0  0
 23 17  1  0  0  0  0
 23 24  1  0  0  0  0
 24 25  1  0  0  0  0
 25 27  1  0  0  0  0
 27 26  1  0  0  0  0
M  END
>  <MODEL>
8

>  <REMARK>
 VINA RESULT:      -6.1      2.856      5.579
  Name = 
  7 active torsions:
  status: ('A' for Active; 'I' for Inactive)
    1  A    between atoms: N_1  and  C_18
    2  A    between atoms: C_5  and  C_6
    3  A    between atoms: C_6  and  C_14
    4  A    between atoms: C_7  and  N_25
    5  A    between atoms: C_8  and  C_10
    6  A    between atoms: C_8  and  C_18
    7  A    between atoms: C_10  and  C_22
                            x       y       z     vdW  Elec       q    Type
                         _______ _______ _______ _____ _____    ______ ____

>  <TORSDO>
F 7

$$$$
=
 OpenBabel11062421073D

 27 29  0  0  1  0  0  0  0  0999 V2000
  186.9730  177.6690  145.2270 N   0  0  0  0  0  0  0  0  0  0  0  0
  187.6710  177.8360  146.5090 C   0  0  1  0  0  3  0  0  0  0  0  0
  186.7270  177.9590  147.6780 C   0  0  0  0  0  3  0  0  0  0  0  0
  185.7160  177.9490  145.0460 C   0  0  0  0  0  0  0  0  0  0  0  0
  184.8960  178.3180  146.2060 C   0  0  0  0  0  0  0  0  0  0  0  0
  183.6950  178.6690  146.0640 O   0  0  0  0  0  0  0  0  0  0  0  0
  185.1010  177.8130  143.7550 N   0  0  0  0  0  2  0  0  0  0  0  0
  185.4650  178.2200  147.5130 N   0  0  0  0  0  0  0  0  0  0  0  0
  187.0600  176.9290  140.0990 C   0  0  0  0  0  3  0  0  0  0  0  0
  185.7560  177.5380  142.5070 C   0  0  0  0  0  0  0  0  0  0  0  0
  186.0660  177.9090  140.1240 C   0  0  0  0  0  3  0  0  0  0  0  0
  187.4020  176.2500  141.2730 C   0  0  0  0  0  0  0  0  0  0  0  0
  188.3880  175.2750  141.2480 O   0  0  0  0  0  1  0  0  0  0  0  0
  186.7490  176.5540  142.4720 C   0  0  0  0  0  3  0  0  0  0  0  0
  185.4140  178.2110  141.3230 C   0  0  0  0  0  3  0  0  0  0  0  0
  188.6420  176.6900  146.7480 C   0  0  0  0  0  2  0  0  0  0  0  0
  191.5250  176.1210  144.5360 N   0  0  0  0  0  0  0  0  0  0  0  0
  189.6660  174.4730  145.5180 S   0  0  0  0  0  0  0  0  0  0  0  0
  191.4100  174.8140  145.1640 C   0  0  0  0  0  2  0  0  0  0  0  0
  189.2890  176.2440  145.4460 C   0  0  2  0  0  3  0  0  0  0  0  0
  190.5870  176.9930  145.2310 C   0  0  2  0  0  3  0  0  0  0  0  0
  190.3130  178.2350  144.3980 C   0  0  0  0  0  1  0  0  0  0  0  0
  192.8700  176.5990  144.8270 C   0  0  0  0  0  2  0  0  0  0  0  0
  193.3180  176.1050  146.1930 C   0  0  0  0  0  2  0  0  0  0  0  0
  194.7710  175.6660  146.1440 C   0  0  0  0  0  2  0  0  0  0  0  0
  195.5250  174.4310  144.2450 O   0  0  0  0  0  1  0  0  0  0  0  0
  195.2900  175.7220  144.7190 C   0  0  0  0  0  2  0  0  0  0  0  0
  1  2  1  0  0  0  0
  2 16  1  1  0  0  0
  2  3  1  0  0  0  0
  4  1  2  0  0  0  0
  4  5  1  0  0  0  0
  5  8  1  0  0  0  0
  6  5  2  0  0  0  0
  7  4  1  0  0  0  0
  8  3  2  0  0  0  0
  9 11  2  0  0  0  0
  9 12  1  0  0  0  0
 10  7  1  0  0  0  0
 11 15  1  0  0  0  0
 12 14  2  0  0  0  0
 13 12  1  0  0  0  0
 14 10  1  0  0  0  0
 15 10  2  0  0  0  0
 17 23  1  0  0  0  0
 17 19  1  0  0  0  0
 17 21  1  0  0  0  0
 19 18  1  0  0  0  0
 20 18  1  0  0  0  0
 20 16  1  1  0  0  0
 21 22  1  6  0  0  0
 21 20  1  0  0  0  0
 23 24  1  0  0  0  0
 25 24  1  0  0  0  0
 26 27  1  0  0  0  0
 27 25  1  0  0  0  0
M  END
>  <MODEL>
9

>  <REMARK>
 VINA RESULT:      -6.1      2.629      4.886
  Name = 
  7 active torsions:
  status: ('A' for Active; 'I' for Inactive)
    1  A    between atoms: N_1  and  C_18
    2  A    between atoms: C_5  and  C_6
    3  A    between atoms: C_6  and  C_14
    4  A    between atoms: C_7  and  N_25
    5  A    between atoms: C_8  and  C_10
    6  A    between atoms: C_8  and  C_18
    7  A    between atoms: C_10  and  C_22
                            x       y       z     vdW  Elec       q    Type
                         _______ _______ _______ _____ _____    ______ ____

>  <TORSDO>
F 7

$$$$
