=
 OpenBabel11062421163D

 56 63  0  0  1  0  0  0  0  0999 V2000
  189.5020  176.6700  144.3900 C   0  0  1  0  0  0  0  0  0  0  0  0
  189.3920  176.0440  143.0360 N   0  0  2  0  0  0  0  0  0  0  0  0
  190.0810  177.9690  144.4560 O   0  0  0  0  0  0  0  0  0  0  0  0
  188.4100  177.0430  143.4600 C   0  0  1  0  0  3  0  0  0  0  0  0
  190.9980  176.9520  144.5350 C   0  0  2  0  0  3  0  0  0  0  0  0
  184.8780  180.1520  144.1340 O   0  0  0  0  0  1  0  0  0  0  0  0
  185.9770  176.8010  142.8010 C   0  0  0  0  0  2  0  0  0  0  0  0
  186.5320  176.9260  145.2470 C   0  0  0  0  0  2  0  0  0  0  0  0
  186.2820  178.4330  145.2690 C   0  0  0  0  0  2  0  0  0  0  0  0
  185.3910  178.1830  142.9550 C   0  0  0  0  0  3  0  0  0  0  0  0
  187.0270  176.4790  143.8650 C   0  0  2  0  0  3  0  0  0  0  0  0
  185.4780  178.9010  144.0850 C   0  0  0  0  0  0  0  0  0  0  0  0
  189.9860  172.3310  143.3660 O   0  0  0  0  0  0  0  0  0  0  0  0
  190.3670  173.2260  144.3440 C   0  0  2  0  0  3  0  0  0  0  0  0
  187.8670  172.8990  142.0840 O   0  0  0  0  0  1  0  0  0  0  0  0
  189.0620  174.5430  140.8480 O   0  0  0  0  0  1  0  0  0  0  0  0
  190.1410  173.6790  142.9260 C   0  0  2  0  0  0  0  0  0  0  0  0
  188.9880  174.6580  143.2920 C   0  0  2  0  0  3  0  0  0  0  0  0
  188.8800  173.8640  142.0560 C   0  0  0  0  0  0  0  0  0  0  0  0
  192.4770  171.8840  144.0470 N   0  0  0  0  0  2  0  0  0  0  0  0
  191.8110  172.9840  144.6700 C   0  0  0  0  0  0  0  0  0  0  0  0
  192.4290  173.7370  145.4710 O   0  0  0  0  0  0  0  0  0  0  0  0
  193.9000  171.8730  143.7090 C   0  0  0  0  0  2  0  0  0  0  0  0
  194.4710  170.7710  145.8820 N   0  0  0  0  0  2  0  0  0  0  0  0
  197.1080  170.4160  144.9340 C   0  0  0  0  0  3  0  0  0  0  0  0
  196.7520  170.0500  146.3510 C   0  0  0  0  0  2  0  0  0  0  0  0
  195.2700  169.6870  146.4610 C   0  0  0  0  0  2  0  0  0  0  0  0
  196.1690  170.8100  144.0600 C   0  0  0  0  0  3  0  0  0  0  0  0
  194.7030  170.7870  144.4280 C   0  0  2  0  0  3  0  0  0  0  0  0
  191.8870  177.0140  143.2900 C   0  0  0  0  0  2  0  0  0  0  0  0
  193.2370  176.3610  143.5770 C   0  0  0  0  0  2  0  0  0  0  0  0
  193.6000  175.3580  142.4900 C   0  0  0  0  0  2  0  0  0  0  0  0
  195.0950  175.0540  142.4990 C   0  0  1  0  0  3  0  0  0  0  0  0
  195.2130  176.7310  140.7630 F   0  0  0  0  0  0  0  0  0  0  0  0
  195.7890  175.5540  141.2190 C   0  0  2  0  0  3  0  0  0  0  0  0
  196.1060  173.3210  140.3930 O   0  0  0  0  0  0  0  0  0  0  0  0
  195.8400  174.5280  140.1270 C   0  0  0  0  0  0  0  0  0  0  0  0
  195.5930  174.9360  138.8200 O   0  0  0  0  0  0  0  0  0  0  0  0
  194.4160  174.5830  138.1090 C   0  0  2  0  0  3  0  0  0  0  0  0
  194.8990  173.9440  135.5540 O   0  0  0  0  0  1  0  0  0  0  0  0
  193.0540  175.2650  136.1260 N   0  0  0  0  0  0  0  0  0  0  0  0
  192.4480  176.4970  135.6570 C   0  0  0  0  0  1  0  0  0  0  0  0
  194.1330  175.6620  137.0520 C   0  0  2  0  0  3  0  0  0  0  0  0
  194.4510  175.2640  135.6630 C   0  0  1  0  0  3  0  0  0  0  0  0
  193.2660  174.4270  139.1040 C   0  0  0  0  0  2  0  0  0  0  0  0
  190.4650  171.2130  139.6140 C   0  0  0  0  0  2  0  0  0  0  0  0
  191.2040  173.2400  138.4710 N   0  0  0  0  0  2  0  0  0  0  0  0
  191.6790  171.3850  140.4950 C   0  0  0  0  0  3  0  0  0  0  0  0
  192.5840  173.0770  138.9320 C   0  0  2  0  0  3  0  0  0  0  0  0
  192.6410  172.2830  140.2130 C   0  0  0  0  0  3  0  0  0  0  0  0
  190.6660  171.8990  138.2570 C   0  0  0  0  0  2  0  0  0  0  0  0
  195.6780  175.6140  143.6400 O   0  0  0  0  0  0  0  0  0  0  0  0
  196.4980  174.6070  144.1620 C   0  0  0  0  0  2  0  0  0  0  0  0
  196.2500  174.4520  145.6210 C   0  0  0  0  0  0  0  0  0  0  0  0
  196.8880  173.5940  146.2830 O   0  0  0  0  0  1  0  0  0  0  0  0
  195.2660  175.2140  146.2360 O   0  0  0  0  0  0  0  0  0  0  0  0
  1  3  1  6  0  0  0
  1  5  1  0  0  0  0
  2 18  1  1  0  0  0
  2  4  1  0  0  0  0
  2  1  1  0  0  0  0
  3  5  1  0  0  0  0
  4 11  1  1  0  0  0
  4  1  1  0  0  0  0
  5 30  1  6  0  0  0
  7 10  1  0  0  0  0
  8  9  1  0  0  0  0
 10 12  2  0  0  0  0
 11  7  1  6  0  0  0
 11  8  1  0  0  0  0
 12  6  1  0  0  0  0
 12  9  1  0  0  0  0
 13 14  1  0  0  0  0
 14 21  1  6  0  0  0
 16 19  1  0  0  0  0
 17 18  1  0  0  0  0
 17 13  1  1  0  0  0
 17 14  1  0  0  0  0
 18 19  1  6  0  0  0
 19 15  1  0  0  0  0
 19 17  1  0  0  0  0
 20 21  1  0  0  0  0
 21 22  2  0  0  0  0
 23 20  1  0  0  0  0
 24 27  1  0  0  0  0
 25 26  1  0  0  0  0
 26 27  1  0  0  0  0
 28 29  1  0  0  0  0
 28 25  2  0  0  0  0
 29 23  1  1  0  0  0
 29 24  1  0  0  0  0
 30 31  1  0  0  0  0
 32 31  1  0  0  0  0
 33 32  1  6  0  0  0
 33 52  1  0  0  0  0
 35 34  1  6  0  0  0
 35 33  1  0  0  0  0
 37 36  2  0  0  0  0
 37 35  1  0  0  0  0
 38 37  1  0  0  0  0
 39 38  1  0  0  0  0
 39 45  1  1  0  0  0
 41 43  1  0  0  0  0
 42 41  1  0  0  0  0
 43 39  1  1  0  0  0
 44 40  1  1  0  0  0
 44 41  1  0  0  0  0
 44 43  1  0  0  0  0
 46 48  1  0  0  0  0
 47 49  1  0  0  0  0
 49 45  1  1  0  0  0
 49 50  1  0  0  0  0
 50 48  2  0  0  0  0
 51 47  1  0  0  0  0
 51 46  1  0  0  0  0
 52 53  1  0  0  0  0
 53 54  1  0  0  0  0
 54 56  2  0  0  0  0
 54 55  1  0  0  0  0
M  END
>  <MODEL>
1

>  <REMARK>
 VINA RESULT:      -6.2      0.000      0.000
  Name = 
  19 active torsions:
  status: ('A' for Active; 'I' for Inactive)
    1  A    between atoms: O_1  and  C_31
    2  A    between atoms: O_1  and  C_35
    3  A    between atoms: C_8  and  N_25
    4  A    between atoms: C_8  and  C_44
    5  A    between atoms: C_11  and  C_35
    6  A    between atoms: C_11  and  C_49
    7  A    between atoms: O_14  and  C_21
    8  A    between atoms: O_14  and  C_27
    9  A    between atoms: C_15  and  C_27
   10  A    between atoms: C_15  and  C_35
   11  A    between atoms: C_17  and  C_38
   12  A    between atoms: N_20  and  C_50
   13  A    between atoms: C_21  and  CA_30
   14  A    between atoms: C_21  and  C_53
   15  A    between atoms: C_22  and  C_31
   16  A    between atoms: C_33  and  C_49
   17  A    between atoms: C_33  and  C_55
   18  A    between atoms: C_39  and  C_53
   19  A    between atoms: C_47  and  C_51
                            x       y       z     vdW  Elec       q    Type
                         _______ _______ _______ _____ _____    ______ ____

>  <TORSDO>
F 19

$$$$
=
 OpenBabel11062421163D

 56 63  0  0  1  0  0  0  0  0999 V2000
  192.1410  172.5330  144.1330 C   0  0  1  0  0  0  0  0  0  0  0  0
  192.2220  173.8560  143.4410 N   0  0  2  0  0  0  0  0  0  0  0  0
  191.2060  171.5900  143.6170 O   0  0  0  0  0  0  0  0  0  0  0  0
  192.9020  172.6920  142.8700 C   0  0  1  0  0  3  0  0  0  0  0  0
  190.6740  172.4380  144.5550 C   0  0  2  0  0  3  0  0  0  0  0  0
  195.3650  169.4620  140.4030 O   0  0  0  0  0  1  0  0  0  0  0  0
  195.1520  172.9780  141.7470 C   0  0  0  0  0  2  0  0  0  0  0  0
  194.9850  171.3630  143.6630 C   0  0  0  0  0  2  0  0  0  0  0  0
  194.7600  170.1910  142.7080 C   0  0  0  0  0  2  0  0  0  0  0  0
  195.3010  171.7690  140.8570 C   0  0  0  0  0  3  0  0  0  0  0  0
  194.4370  172.6650  143.0610 C   0  0  2  0  0  3  0  0  0  0  0  0
  195.1800  170.5080  141.2980 C   0  0  0  0  0  0  0  0  0  0  0  0
  192.9690  176.8410  145.6290 O   0  0  0  0  0  0  0  0  0  0  0  0
  192.2060  175.7780  146.0700 C   0  0  2  0  0  3  0  0  0  0  0  0
  194.8500  176.2820  144.0150 O   0  0  0  0  0  1  0  0  0  0  0  0
  193.2620  176.0200  142.2630 O   0  0  0  0  0  1  0  0  0  0  0  0
  192.3820  176.0480  144.5980 C   0  0  2  0  0  0  0  0  0  0  0  0
  193.0710  174.6830  144.3050 C   0  0  2  0  0  3  0  0  0  0  0  0
  193.5660  175.8900  143.6210 C   0  0  0  0  0  0  0  0  0  0  0  0
  189.6910  175.8990  146.0310 N   0  0  0  0  0  2  0  0  0  0  0  0
  190.9210  176.3170  146.6250 C   0  0  0  0  0  0  0  0  0  0  0  0
  190.9230  177.1170  147.6000 O   0  0  0  0  0  0  0  0  0  0  0  0
  188.4340  175.7580  146.7650 C   0  0  0  0  0  2  0  0  0  0  0  0
  186.2100  176.7720  147.3030 N   0  0  0  0  0  2  0  0  0  0  0  0
  186.3800  178.2580  144.9070 C   0  0  0  0  0  3  0  0  0  0  0  0
  185.1290  178.3030  145.7440 C   0  0  0  0  0  2  0  0  0  0  0  0
  185.4500  178.0220  147.2130 C   0  0  0  0  0  2  0  0  0  0  0  0
  187.4760  177.6070  145.3270 C   0  0  0  0  0  3  0  0  0  0  0  0
  187.5380  176.9980  146.7090 C   0  0  2  0  0  3  0  0  0  0  0  0
  189.6230  173.3120  143.8660 C   0  0  0  0  0  2  0  0  0  0  0  0
  188.7060  172.4470  143.0050 C   0  0  0  0  0  2  0  0  0  0  0  0
  187.9470  173.2960  141.9940 C   0  0  0  0  0  2  0  0  0  0  0  0
  188.8810  174.2680  141.2790 C   0  0  1  0  0  3  0  0  0  0  0  0
  191.0840  174.0370  140.3140 F   0  0  0  0  0  0  0  0  0  0  0  0
  189.7860  173.5500  140.2620 C   0  0  2  0  0  3  0  0  0  0  0  0
  188.0910  173.1780  138.6010 O   0  0  0  0  0  0  0  0  0  0  0  0
  189.2580  173.5900  138.8590 C   0  0  0  0  0  0  0  0  0  0  0  0
  190.0820  174.0850  137.8530 O   0  0  0  0  0  0  0  0  0  0  0  0
  191.2830  173.4430  137.4530 C   0  0  2  0  0  3  0  0  0  0  0  0
  193.4390  174.5060  138.6330 O   0  0  0  0  0  1  0  0  0  0  0  0
  193.4840  173.9260  136.3660 N   0  0  0  0  0  0  0  0  0  0  0  0
  193.9160  174.5390  135.1260 C   0  0  0  0  0  1  0  0  0  0  0  0
  192.1200  174.4310  136.6240 C   0  0  2  0  0  3  0  0  0  0  0  0
  193.2780  175.0110  137.3390 C   0  0  1  0  0  3  0  0  0  0  0  0
  190.9310  172.1780  136.6700 C   0  0  0  0  0  2  0  0  0  0  0  0
  190.9680  169.4230  139.9630 C   0  0  0  0  0  2  0  0  0  0  0  0
  189.9820  170.2640  137.8940 N   0  0  0  0  0  2  0  0  0  0  0  0
  191.9770  170.5370  139.8190 C   0  0  0  0  0  3  0  0  0  0  0  0
  191.2230  170.9330  137.4970 C   0  0  2  0  0  3  0  0  0  0  0  0
  192.0670  171.2750  138.6980 C   0  0  0  0  0  3  0  0  0  0  0  0
  190.3650  169.0470  138.6040 C   0  0  0  0  0  2  0  0  0  0  0  0
  188.1270  175.2710  140.6610 O   0  0  0  0  0  0  0  0  0  0  0  0
  187.5200  175.9690  141.7110 C   0  0  0  0  0  2  0  0  0  0  0  0
  187.5600  177.4320  141.4420 C   0  0  0  0  0  0  0  0  0  0  0  0
  186.5570  178.0130  140.9570 O   0  0  0  0  0  0  0  0  0  0  0  0
  188.7320  178.1410  141.6680 O   0  0  0  0  0  1  0  0  0  0  0  0
  1  3  1  6  0  0  0
  1  5  1  0  0  0  0
  2  1  1  0  0  0  0
  2 18  1  1  0  0  0
  3  5  1  0  0  0  0
  4 11  1  1  0  0  0
  4  2  1  0  0  0  0
  4  1  1  0  0  0  0
  5 30  1  6  0  0  0
  6 12  1  0  0  0  0
  9  8  1  0  0  0  0
 10 12  2  0  0  0  0
 10  7  1  0  0  0  0
 11  7  1  6  0  0  0
 11  8  1  0  0  0  0
 12  9  1  0  0  0  0
 13 14  1  0  0  0  0
 14 21  1  1  0  0  0
 16 19  1  0  0  0  0
 17 13  1  1  0  0  0
 17 14  1  0  0  0  0
 18 19  1  6  0  0  0
 18 17  1  0  0  0  0
 19 15  1  0  0  0  0
 19 17  1  0  0  0  0
 20 21  1  0  0  0  0
 20 23  1  0  0  0  0
 21 22  2  0  0  0  0
 25 28  2  0  0  0  0
 25 26  1  0  0  0  0
 26 27  1  0  0  0  0
 27 24  1  0  0  0  0
 28 29  1  0  0  0  0
 29 23  1  6  0  0  0
 29 24  1  0  0  0  0
 31 30  1  0  0  0  0
 32 31  1  0  0  0  0
 33 32  1  6  0  0  0
 35 34  1  6  0  0  0
 35 33  1  0  0  0  0
 36 37  2  0  0  0  0
 37 35  1  0  0  0  0
 38 37  1  0  0  0  0
 39 45  1  6  0  0  0
 39 38  1  0  0  0  0
 41 43  1  0  0  0  0
 41 44  1  0  0  0  0
 42 41  1  0  0  0  0
 43 44  1  0  0  0  0
 43 39  1  1  0  0  0
 44 40  1  1  0  0  0
 47 51  1  0  0  0  0
 48 46  1  0  0  0  0
 49 45  1  1  0  0  0
 49 47  1  0  0  0  0
 49 50  1  0  0  0  0
 50 48  2  0  0  0  0
 51 46  1  0  0  0  0
 52 33  1  0  0  0  0
 52 53  1  0  0  0  0
 54 56  1  0  0  0  0
 54 53  1  0  0  0  0
 55 54  2  0  0  0  0
M  END
>  <MODEL>
2

>  <REMARK>
 VINA RESULT:      -6.1      2.351      7.578
  Name = 
  19 active torsions:
  status: ('A' for Active; 'I' for Inactive)
    1  A    between atoms: O_1  and  C_31
    2  A    between atoms: O_1  and  C_35
    3  A    between atoms: C_8  and  N_25
    4  A    between atoms: C_8  and  C_44
    5  A    between atoms: C_11  and  C_35
    6  A    between atoms: C_11  and  C_49
    7  A    between atoms: O_14  and  C_21
    8  A    between atoms: O_14  and  C_27
    9  A    between atoms: C_15  and  C_27
   10  A    between atoms: C_15  and  C_35
   11  A    between atoms: C_17  and  C_38
   12  A    between atoms: N_20  and  C_50
   13  A    between atoms: C_21  and  CA_30
   14  A    between atoms: C_21  and  C_53
   15  A    between atoms: C_22  and  C_31
   16  A    between atoms: C_33  and  C_49
   17  A    between atoms: C_33  and  C_55
   18  A    between atoms: C_39  and  C_53
   19  A    between atoms: C_47  and  C_51
                            x       y       z     vdW  Elec       q    Type
                         _______ _______ _______ _____ _____    ______ ____

>  <TORSDO>
F 19

$$$$
=
 OpenBabel11062421163D

 56 63  0  0  1  0  0  0  0  0999 V2000
  188.8280  175.9690  143.0050 C   0  0  1  0  0  0  0  0  0  0  0  0
  188.5720  175.6620  144.4460 N   0  0  2  0  0  0  0  0  0  0  0  0
  188.3040  175.0560  142.0470 O   0  0  0  0  0  0  0  0  0  0  0  0
  187.5240  176.2850  143.6360 C   0  0  1  0  0  3  0  0  0  0  0  0
  189.5570  174.7250  142.4960 C   0  0  2  0  0  3  0  0  0  0  0  0
  183.3700  178.1590  142.2890 O   0  0  0  0  0  1  0  0  0  0  0  0
  186.1350  178.0200  144.8480 C   0  0  0  0  0  2  0  0  0  0  0  0
  187.1170  178.6380  142.6210 C   0  0  0  0  0  2  0  0  0  0  0  0
  185.8300  178.2440  141.8980 C   0  0  0  0  0  2  0  0  0  0  0  0
  184.7960  178.0030  144.1520 C   0  0  0  0  0  3  0  0  0  0  0  0
  187.3050  177.7960  143.8900 C   0  0  2  0  0  3  0  0  0  0  0  0
  184.6490  178.1600  142.8280 C   0  0  0  0  0  0  0  0  0  0  0  0
  191.4240  176.6430  146.7170 O   0  0  0  0  0  0  0  0  0  0  0  0
  191.6220  176.3000  145.3950 C   0  0  2  0  0  3  0  0  0  0  0  0
  189.2520  177.8460  147.2550 O   0  0  0  0  0  1  0  0  0  0  0  0
  188.0730  175.7890  147.0700 O   0  0  0  0  0  1  0  0  0  0  0  0
  190.3850  175.8600  146.1330 C   0  0  2  0  0  0  0  0  0  0  0  0
  189.4040  176.6150  145.1890 C   0  0  2  0  0  3  0  0  0  0  0  0
  189.1260  176.5980  146.6350 C   0  0  0  0  0  0  0  0  0  0  0  0
  194.0290  175.6450  145.0520 N   0  0  0  0  0  2  0  0  0  0  0  0
  192.6870  175.2450  145.3340 C   0  0  0  0  0  0  0  0  0  0  0  0
  192.4070  174.0320  145.5340 O   0  0  0  0  0  0  0  0  0  0  0  0
  195.2130  174.9640  145.5750 C   0  0  0  0  0  2  0  0  0  0  0  0
  196.2270  175.9590  143.5140 N   0  0  0  0  0  2  0  0  0  0  0  0
  197.7080  173.5790  143.1730 C   0  0  0  0  0  3  0  0  0  0  0  0
  197.7540  174.6620  142.1270 C   0  0  0  0  0  2  0  0  0  0  0  0
  197.4760  176.0300  142.7520 C   0  0  0  0  0  2  0  0  0  0  0  0
  197.0590  173.7590  144.3330 C   0  0  0  0  0  3  0  0  0  0  0  0
  196.4520  175.0980  144.6870 C   0  0  2  0  0  3  0  0  0  0  0  0
  189.4520  173.4090  143.2710 C   0  0  0  0  0  2  0  0  0  0  0  0
  189.4940  172.2280  142.3050 C   0  0  0  0  0  2  0  0  0  0  0  0
  190.6180  172.3920  141.2910 C   0  0  0  0  0  2  0  0  0  0  0  0
  190.0740  172.4170  139.8660 C   0  0  1  0  0  3  0  0  0  0  0  0
  190.9910  170.1820  139.8880 F   0  0  0  0  0  0  0  0  0  0  0  0
  190.5340  171.1930  139.0550 C   0  0  2  0  0  3  0  0  0  0  0  0
  191.7620  170.7270  137.0440 O   0  0  0  0  0  0  0  0  0  0  0  0
  191.5540  171.5200  138.0060 C   0  0  0  0  0  0  0  0  0  0  0  0
  192.2660  172.7100  138.1200 O   0  0  0  0  0  0  0  0  0  0  0  0
  193.6430  172.7580  138.4600 C   0  0  2  0  0  3  0  0  0  0  0  0
  194.7410  175.1980  138.3510 O   0  0  0  0  0  1  0  0  0  0  0  0
  195.8800  173.3370  137.5030 N   0  0  0  0  0  0  0  0  0  0  0  0
  196.6100  173.0030  136.2950 C   0  0  0  0  0  1  0  0  0  0  0  0
  194.4530  173.1060  137.2010 C   0  0  2  0  0  3  0  0  0  0  0  0
  195.0070  174.4770  137.1820 C   0  0  1  0  0  3  0  0  0  0  0  0
  194.0500  171.4130  139.0610 C   0  0  0  0  0  2  0  0  0  0  0  0
  193.9300  172.1490  143.2900 C   0  0  0  0  0  2  0  0  0  0  0  0
  193.8440  170.6240  141.3850 N   0  0  0  0  0  2  0  0  0  0  0  0
  194.0740  173.2550  142.2720 C   0  0  0  0  0  3  0  0  0  0  0  0
  194.5120  171.5830  140.5020 C   0  0  2  0  0  3  0  0  0  0  0  0
  194.2920  173.0000  140.9700 C   0  0  0  0  0  3  0  0  0  0  0  0
  194.4100  170.8080  142.7190 C   0  0  0  0  0  2  0  0  0  0  0  0
  188.6780  172.5020  139.9010 O   0  0  0  0  0  0  0  0  0  0  0  0
  188.2850  172.5970  138.5600 C   0  0  0  0  0  2  0  0  0  0  0  0
  188.4500  173.9940  138.0780 C   0  0  0  0  0  0  0  0  0  0  0  0
  189.1810  174.2390  137.0850 O   0  0  0  0  0  0  0  0  0  0  0  0
  187.8430  175.0360  138.7670 O   0  0  0  0  0  1  0  0  0  0  0  0
  1  3  1  1  0  0  0
  1  4  1  0  0  0  0
  1  2  1  0  0  0  0
  2 18  1  1  0  0  0
  3  5  1  0  0  0  0
  4 11  1  1  0  0  0
  4  2  1  0  0  0  0
  5  1  1  0  0  0  0
  5 30  1  1  0  0  0
  6 12  1  0  0  0  0
  9  8  1  0  0  0  0
  9 12  1  0  0  0  0
 10  7  1  0  0  0  0
 11  8  1  6  0  0  0
 11  7  1  0  0  0  0
 12 10  2  0  0  0  0
 14 21  1  1  0  0  0
 14 17  1  0  0  0  0
 14 13  1  0  0  0  0
 17 19  1  0  0  0  0
 17 13  1  1  0  0  0
 18 17  1  0  0  0  0
 18 19  1  1  0  0  0
 19 16  1  0  0  0  0
 19 15  1  0  0  0  0
 20 21  1  0  0  0  0
 20 23  1  0  0  0  0
 21 22  2  0  0  0  0
 24 29  1  0  0  0  0
 25 28  2  0  0  0  0
 26 27  1  0  0  0  0
 26 25  1  0  0  0  0
 27 24  1  0  0  0  0
 28 29  1  0  0  0  0
 29 23  1  6  0  0  0
 31 30  1  0  0  0  0
 32 31  1  0  0  0  0
 33 52  1  0  0  0  0
 33 32  1  1  0  0  0
 35 33  1  0  0  0  0
 35 34  1  1  0  0  0
 36 37  2  0  0  0  0
 37 38  1  0  0  0  0
 37 35  1  0  0  0  0
 38 39  1  0  0  0  0
 39 45  1  6  0  0  0
 42 41  1  0  0  0  0
 43 41  1  0  0  0  0
 43 39  1  1  0  0  0
 44 43  1  0  0  0  0
 44 41  1  0  0  0  0
 44 40  1  1  0  0  0
 47 51  1  0  0  0  0
 48 46  1  0  0  0  0
 49 45  1  6  0  0  0
 49 50  1  0  0  0  0
 49 47  1  0  0  0  0
 50 48  2  0  0  0  0
 51 46  1  0  0  0  0
 53 52  1  0  0  0  0
 54 53  1  0  0  0  0
 54 56  1  0  0  0  0
 55 54  2  0  0  0  0
M  END
>  <MODEL>
3

>  <REMARK>
 VINA RESULT:      -5.8      2.590      5.225
  Name = 
  19 active torsions:
  status: ('A' for Active; 'I' for Inactive)
    1  A    between atoms: O_1  and  C_31
    2  A    between atoms: O_1  and  C_35
    3  A    between atoms: C_8  and  N_25
    4  A    between atoms: C_8  and  C_44
    5  A    between atoms: C_11  and  C_35
    6  A    between atoms: C_11  and  C_49
    7  A    between atoms: O_14  and  C_21
    8  A    between atoms: O_14  and  C_27
    9  A    between atoms: C_15  and  C_27
   10  A    between atoms: C_15  and  C_35
   11  A    between atoms: C_17  and  C_38
   12  A    between atoms: N_20  and  C_50
   13  A    between atoms: C_21  and  CA_30
   14  A    between atoms: C_21  and  C_53
   15  A    between atoms: C_22  and  C_31
   16  A    between atoms: C_33  and  C_49
   17  A    between atoms: C_33  and  C_55
   18  A    between atoms: C_39  and  C_53
   19  A    between atoms: C_47  and  C_51
                            x       y       z     vdW  Elec       q    Type
                         _______ _______ _______ _____ _____    ______ ____

>  <TORSDO>
F 19

$$$$
=
 OpenBabel11062421163D

 56 63  0  0  1  0  0  0  0  0999 V2000
  189.4200  176.0990  142.9180 C   0  0  1  0  0  0  0  0  0  0  0  0
  189.1510  175.6610  144.3230 N   0  0  2  0  0  0  0  0  0  0  0  0
  189.0250  175.2110  141.8780 O   0  0  0  0  0  0  0  0  0  0  0  0
  188.0700  176.2330  143.5180 C   0  0  1  0  0  3  0  0  0  0  0  0
  190.2900  174.9770  142.3520 C   0  0  2  0  0  3  0  0  0  0  0  0
  183.8400  177.8090  142.0320 O   0  0  0  0  0  1  0  0  0  0  0  0
  186.4430  177.7240  144.7580 C   0  0  0  0  0  2  0  0  0  0  0  0
  187.4940  178.6120  142.6570 C   0  0  0  0  0  2  0  0  0  0  0  0
  186.2990  178.1580  141.8190 C   0  0  0  0  0  2  0  0  0  0  0  0
  185.1580  177.6370  143.9720 C   0  0  0  0  0  3  0  0  0  0  0  0
  187.6870  177.6900  143.8690 C   0  0  2  0  0  3  0  0  0  0  0  0
  185.0780  177.8870  142.6570 C   0  0  0  0  0  0  0  0  0  0  0  0
  191.7890  176.7480  146.7950 O   0  0  0  0  0  0  0  0  0  0  0  0
  192.0800  176.5100  145.4670 C   0  0  2  0  0  3  0  0  0  0  0  0
  189.4920  177.7140  147.2880 O   0  0  0  0  0  1  0  0  0  0  0  0
  188.5190  175.5740  146.9200 O   0  0  0  0  0  1  0  0  0  0  0  0
  190.8560  175.9140  146.1120 C   0  0  2  0  0  0  0  0  0  0  0  0
  189.8540  176.6360  145.1640 C   0  0  2  0  0  3  0  0  0  0  0  0
  189.5120  176.5010  146.5900 C   0  0  0  0  0  0  0  0  0  0  0  0
  193.1300  174.4040  144.5690 N   0  0  0  0  0  2  0  0  0  0  0  0
  193.2400  175.5610  145.4000 C   0  0  0  0  0  0  0  0  0  0  0  0
  194.2940  175.7810  146.0580 O   0  0  0  0  0  0  0  0  0  0  0  0
  194.2600  173.7820  143.8790 C   0  0  0  0  0  2  0  0  0  0  0  0
  196.2070  172.8910  145.1750 N   0  0  0  0  0  2  0  0  0  0  0  0
  195.7640  170.3700  143.9830 C   0  0  0  0  0  3  0  0  0  0  0  0
  196.9620  170.5940  144.8670 C   0  0  0  0  0  2  0  0  0  0  0  0
  196.6840  171.7010  145.8850 C   0  0  0  0  0  2  0  0  0  0  0  0
  194.8250  171.3160  143.8290 C   0  0  0  0  0  3  0  0  0  0  0  0
  194.8710  172.5970  144.6310 C   0  0  2  0  0  3  0  0  0  0  0  0
  190.2990  173.6030  143.0270 C   0  0  0  0  0  2  0  0  0  0  0  0
  189.8710  172.5280  142.0320 C   0  0  0  0  0  2  0  0  0  0  0  0
  191.0820  171.8380  141.4190 C   0  0  0  0  0  2  0  0  0  0  0  0
  191.5070  172.5210  140.1230 C   0  0  1  0  0  3  0  0  0  0  0  0
  193.5350  171.3280  140.6750 F   0  0  0  0  0  0  0  0  0  0  0  0
  192.9750  172.2220  139.7730 C   0  0  2  0  0  3  0  0  0  0  0  0
  193.3190  174.5990  139.8270 O   0  0  0  0  0  0  0  0  0  0  0  0
  193.8230  173.4530  139.6480 C   0  0  0  0  0  0  0  0  0  0  0  0
  195.1680  173.3030  139.3270 O   0  0  0  0  0  0  0  0  0  0  0  0
  195.9450  174.3420  138.7500 C   0  0  2  0  0  3  0  0  0  0  0  0
  194.7900  175.6050  136.6900 O   0  0  0  0  0  1  0  0  0  0  0  0
  197.0510  175.0030  136.6060 N   0  0  0  0  0  0  0  0  0  0  0  0
  197.9400  174.3630  135.6560 C   0  0  0  0  0  1  0  0  0  0  0  0
  196.3730  173.9130  137.3360 C   0  0  2  0  0  3  0  0  0  0  0  0
  195.6770  174.6210  136.2400 C   0  0  1  0  0  3  0  0  0  0  0  0
  197.1410  174.6280  139.6580 C   0  0  0  0  0  2  0  0  0  0  0  0
  196.8240  176.7780  143.3610 C   0  0  0  0  0  2  0  0  0  0  0  0
  196.1200  176.3770  141.0580 N   0  0  0  0  0  2  0  0  0  0  0  0
  197.8330  175.6760  143.1410 C   0  0  0  0  0  3  0  0  0  0  0  0
  196.6770  175.0230  141.0530 C   0  0  2  0  0  3  0  0  0  0  0  0
  197.8020  174.8920  142.0480 C   0  0  0  0  0  3  0  0  0  0  0  0
  195.6300  176.6310  142.4100 C   0  0  0  0  0  2  0  0  0  0  0  0
  190.6520  172.1300  139.0870 O   0  0  0  0  0  0  0  0  0  0  0  0
  190.2380  173.3240  138.4860 C   0  0  0  0  0  2  0  0  0  0  0  0
  188.7530  173.4060  138.4830 C   0  0  0  0  0  0  0  0  0  0  0  0
  188.1730  174.3650  137.9150 O   0  0  0  0  0  0  0  0  0  0  0  0
  188.0100  172.4510  139.1650 O   0  0  0  0  0  1  0  0  0  0  0  0
  1  3  1  1  0  0  0
  1  4  1  0  0  0  0
  1  2  1  0  0  0  0
  2 18  1  1  0  0  0
  3  5  1  0  0  0  0
  4 11  1  1  0  0  0
  4  2  1  0  0  0  0
  5  1  1  0  0  0  0
  5 30  1  1  0  0  0
  6 12  1  0  0  0  0
  9  8  1  0  0  0  0
  9 12  1  0  0  0  0
 10  7  1  0  0  0  0
 11  8  1  6  0  0  0
 11  7  1  0  0  0  0
 12 10  2  0  0  0  0
 14 21  1  1  0  0  0
 14 17  1  0  0  0  0
 14 13  1  0  0  0  0
 17 19  1  0  0  0  0
 17 13  1  1  0  0  0
 18 17  1  0  0  0  0
 18 19  1  1  0  0  0
 19 16  1  0  0  0  0
 19 15  1  0  0  0  0
 20 21  1  0  0  0  0
 21 22  2  0  0  0  0
 23 20  1  0  0  0  0
 24 27  1  0  0  0  0
 25 26  1  0  0  0  0
 26 27  1  0  0  0  0
 28 25  2  0  0  0  0
 28 29  1  0  0  0  0
 29 23  1  6  0  0  0
 29 24  1  0  0  0  0
 31 30  1  0  0  0  0
 32 31  1  0  0  0  0
 33 32  1  1  0  0  0
 35 33  1  0  0  0  0
 35 34  1  1  0  0  0
 37 35  1  0  0  0  0
 37 36  2  0  0  0  0
 38 37  1  0  0  0  0
 39 38  1  0  0  0  0
 39 45  1  1  0  0  0
 41 43  1  0  0  0  0
 42 41  1  0  0  0  0
 43 39  1  1  0  0  0
 44 41  1  0  0  0  0
 44 40  1  1  0  0  0
 44 43  1  0  0  0  0
 47 51  1  0  0  0  0
 48 46  1  0  0  0  0
 49 45  1  6  0  0  0
 49 47  1  0  0  0  0
 49 50  1  0  0  0  0
 50 48  2  0  0  0  0
 51 46  1  0  0  0  0
 52 33  1  0  0  0  0
 53 52  1  0  0  0  0
 54 53  1  0  0  0  0
 54 56  1  0  0  0  0
 55 54  2  0  0  0  0
M  END
>  <MODEL>
4

>  <REMARK>
 VINA RESULT:      -5.8      2.258      4.954
  Name = 
  19 active torsions:
  status: ('A' for Active; 'I' for Inactive)
    1  A    between atoms: O_1  and  C_31
    2  A    between atoms: O_1  and  C_35
    3  A    between atoms: C_8  and  N_25
    4  A    between atoms: C_8  and  C_44
    5  A    between atoms: C_11  and  C_35
    6  A    between atoms: C_11  and  C_49
    7  A    between atoms: O_14  and  C_21
    8  A    between atoms: O_14  and  C_27
    9  A    between atoms: C_15  and  C_27
   10  A    between atoms: C_15  and  C_35
   11  A    between atoms: C_17  and  C_38
   12  A    between atoms: N_20  and  C_50
   13  A    between atoms: C_21  and  CA_30
   14  A    between atoms: C_21  and  C_53
   15  A    between atoms: C_22  and  C_31
   16  A    between atoms: C_33  and  C_49
   17  A    between atoms: C_33  and  C_55
   18  A    between atoms: C_39  and  C_53
   19  A    between atoms: C_47  and  C_51
                            x       y       z     vdW  Elec       q    Type
                         _______ _______ _______ _____ _____    ______ ____

>  <TORSDO>
F 19

$$$$
=
 OpenBabel11062421163D

 56 63  0  0  1  0  0  0  0  0999 V2000
  188.4870  175.5560  144.7500 C   0  0  1  0  0  0  0  0  0  0  0  0
  188.7010  176.5650  143.6660 N   0  0  2  0  0  0  0  0  0  0  0  0
  189.4030  175.5740  145.8390 O   0  0  0  0  0  0  0  0  0  0  0  0
  188.0390  176.9600  144.9110 C   0  0  1  0  0  3  0  0  0  0  0  0
  189.8080  174.7870  144.7910 C   0  0  2  0  0  3  0  0  0  0  0  0
  185.9590  179.8220  148.0840 O   0  0  0  0  0  1  0  0  0  0  0  0
  186.1480  178.5980  144.5230 C   0  0  0  0  0  2  0  0  0  0  0  0
  185.7230  176.6390  146.0360 C   0  0  0  0  0  2  0  0  0  0  0  0
  186.0660  177.4670  147.2730 C   0  0  0  0  0  2  0  0  0  0  0  0
  186.1100  179.4520  145.7670 C   0  0  0  0  0  3  0  0  0  0  0  0
  186.5060  177.1400  144.8140 C   0  0  2  0  0  3  0  0  0  0  0  0
  186.0170  178.9480  147.0060 C   0  0  0  0  0  0  0  0  0  0  0  0
  187.8260  175.1420  140.2800 O   0  0  0  0  0  0  0  0  0  0  0  0
  188.1710  174.3390  141.3480 C   0  0  2  0  0  3  0  0  0  0  0  0
  186.5510  177.2680  140.8370 O   0  0  0  0  0  1  0  0  0  0  0  0
  188.5660  178.2680  141.6100 O   0  0  0  0  0  1  0  0  0  0  0  0
  188.5710  175.7910  141.3090 C   0  0  2  0  0  0  0  0  0  0  0  0
  187.7800  176.1700  142.5960 C   0  0  2  0  0  3  0  0  0  0  0  0
  187.7920  177.1140  141.4650 C   0  0  0  0  0  0  0  0  0  0  0  0
  189.7820  173.5450  139.5830 N   0  0  0  0  0  2  0  0  0  0  0  0
  189.2620  173.4090  140.9070 C   0  0  0  0  0  0  0  0  0  0  0  0
  189.7160  172.5280  141.6870 O   0  0  0  0  0  0  0  0  0  0  0  0
  191.1660  173.2500  139.2130 C   0  0  0  0  0  2  0  0  0  0  0  0
  190.7720  172.6290  136.8200 N   0  0  0  0  0  2  0  0  0  0  0  0
  190.2550  169.9820  137.6600 C   0  0  0  0  0  3  0  0  0  0  0  0
  190.0640  170.3750  136.2190 C   0  0  0  0  0  2  0  0  0  0  0  0
  190.9750  171.5480  135.8510 C   0  0  0  0  0  2  0  0  0  0  0  0
  190.7780  170.8380  138.5520 C   0  0  0  0  0  3  0  0  0  0  0  0
  191.3050  172.1870  138.1200 C   0  0  2  0  0  3  0  0  0  0  0  0
  191.0720  175.4080  144.1900 C   0  0  0  0  0  2  0  0  0  0  0  0
  191.9490  174.3200  143.5760 C   0  0  0  0  0  2  0  0  0  0  0  0
  191.9530  173.0690  144.4440 C   0  0  0  0  0  2  0  0  0  0  0  0
  192.5860  171.8910  143.7100 C   0  0  1  0  0  3  0  0  0  0  0  0
  193.9920  171.9210  145.6750 F   0  0  0  0  0  0  0  0  0  0  0  0
  193.8940  171.4340  144.3790 C   0  0  2  0  0  3  0  0  0  0  0  0
  196.2650  171.4250  143.9950 O   0  0  0  0  0  0  0  0  0  0  0  0
  195.1210  171.7760  143.5870 C   0  0  0  0  0  0  0  0  0  0  0  0
  194.9700  172.4900  142.4030 O   0  0  0  0  0  0  0  0  0  0  0  0
  195.2720  173.8720  142.2890 C   0  0  2  0  0  3  0  0  0  0  0  0
  194.4040  175.5510  140.3920 O   0  0  0  0  0  1  0  0  0  0  0  0
  196.6700  175.4720  140.9700 N   0  0  0  0  0  0  0  0  0  0  0  0
  197.9390  175.4090  140.2710 C   0  0  0  0  0  1  0  0  0  0  0  0
  196.1830  174.0820  141.0690 C   0  0  2  0  0  3  0  0  0  0  0  0
  195.6360  174.9930  140.0390 C   0  0  1  0  0  3  0  0  0  0  0  0
  195.9220  174.3450  143.5890 C   0  0  0  0  0  2  0  0  0  0  0  0
  194.5620  177.2290  146.4640 C   0  0  0  0  0  2  0  0  0  0  0  0
  195.5740  176.6720  144.3130 N   0  0  0  0  0  2  0  0  0  0  0  0
  194.4940  175.7410  146.7070 C   0  0  0  0  0  3  0  0  0  0  0  0
  195.0130  175.3190  144.3250 C   0  0  2  0  0  3  0  0  0  0  0  0
  194.7530  174.8490  145.7330 C   0  0  0  0  0  3  0  0  0  0  0  0
  194.5970  177.5430  144.9630 C   0  0  0  0  0  2  0  0  0  0  0  0
  191.6660  170.8400  143.6330 O   0  0  0  0  0  0  0  0  0  0  0  0
  192.4360  169.7000  143.3730 C   0  0  0  0  0  2  0  0  0  0  0  0
  192.1190  169.1680  142.0200 C   0  0  0  0  0  0  0  0  0  0  0  0
  193.0430  168.9200  141.2060 O   0  0  0  0  0  0  0  0  0  0  0  0
  190.7940  169.0060  141.6390 O   0  0  0  0  0  1  0  0  0  0  0  0
  1  5  1  0  0  0  0
  1  4  1  0  0  0  0
  1  3  1  1  0  0  0
  2 18  1  6  0  0  0
  2  1  1  0  0  0  0
  2  4  1  0  0  0  0
  4 11  1  6  0  0  0
  5 30  1  6  0  0  0
  5  3  1  0  0  0  0
  7 10  1  0  0  0  0
  8  9  1  0  0  0  0
 10 12  2  0  0  0  0
 11  7  1  1  0  0  0
 11  8  1  0  0  0  0
 12  9  1  0  0  0  0
 12  6  1  0  0  0  0
 13 14  1  0  0  0  0
 14 21  1  6  0  0  0
 15 19  1  0  0  0  0
 17 13  1  6  0  0  0
 17 14  1  0  0  0  0
 17 19  1  0  0  0  0
 17 18  1  0  0  0  0
 18 19  1  6  0  0  0
 19 16  1  0  0  0  0
 20 21  1  0  0  0  0
 21 22  2  0  0  0  0
 23 20  1  0  0  0  0
 24 29  1  0  0  0  0
 25 28  2  0  0  0  0
 26 25  1  0  0  0  0
 27 26  1  0  0  0  0
 27 24  1  0  0  0  0
 29 28  1  0  0  0  0
 29 23  1  1  0  0  0
 31 30  1  0  0  0  0
 31 32  1  0  0  0  0
 33 35  1  0  0  0  0
 33 32  1  1  0  0  0
 35 34  1  1  0  0  0
 37 36  2  0  0  0  0
 37 35  1  0  0  0  0
 38 37  1  0  0  0  0
 39 38  1  0  0  0  0
 39 45  1  1  0  0  0
 41 43  1  0  0  0  0
 42 41  1  0  0  0  0
 43 39  1  1  0  0  0
 44 40  1  1  0  0  0
 44 41  1  0  0  0  0
 44 43  1  0  0  0  0
 46 48  1  0  0  0  0
 47 49  1  0  0  0  0
 47 51  1  0  0  0  0
 49 45  1  1  0  0  0
 49 50  1  0  0  0  0
 50 48  2  0  0  0  0
 51 46  1  0  0  0  0
 52 33  1  0  0  0  0
 53 52  1  0  0  0  0
 54 53  1  0  0  0  0
 55 54  2  0  0  0  0
 56 54  1  0  0  0  0
M  END
>  <MODEL>
5

>  <REMARK>
 VINA RESULT:      -5.7      2.749      5.873
  Name = 
  19 active torsions:
  status: ('A' for Active; 'I' for Inactive)
    1  A    between atoms: O_1  and  C_31
    2  A    between atoms: O_1  and  C_35
    3  A    between atoms: C_8  and  N_25
    4  A    between atoms: C_8  and  C_44
    5  A    between atoms: C_11  and  C_35
    6  A    between atoms: C_11  and  C_49
    7  A    between atoms: O_14  and  C_21
    8  A    between atoms: O_14  and  C_27
    9  A    between atoms: C_15  and  C_27
   10  A    between atoms: C_15  and  C_35
   11  A    between atoms: C_17  and  C_38
   12  A    between atoms: N_20  and  C_50
   13  A    between atoms: C_21  and  CA_30
   14  A    between atoms: C_21  and  C_53
   15  A    between atoms: C_22  and  C_31
   16  A    between atoms: C_33  and  C_49
   17  A    between atoms: C_33  and  C_55
   18  A    between atoms: C_39  and  C_53
   19  A    between atoms: C_47  and  C_51
                            x       y       z     vdW  Elec       q    Type
                         _______ _______ _______ _____ _____    ______ ____

>  <TORSDO>
F 19

$$$$
=
 OpenBabel11062421163D

 56 63  0  0  1  0  0  0  0  0999 V2000
  188.5540  176.1940  142.8960 C   0  0  1  0  0  0  0  0  0  0  0  0
  188.3530  175.8720  144.3420 N   0  0  2  0  0  0  0  0  0  0  0  0
  188.0340  175.2660  141.9490 O   0  0  0  0  0  0  0  0  0  0  0  0
  187.2590  176.4590  143.5680 C   0  0  1  0  0  3  0  0  0  0  0  0
  189.3110  174.9790  142.3590 C   0  0  2  0  0  3  0  0  0  0  0  0
  183.1360  178.2650  142.0420 O   0  0  0  0  0  1  0  0  0  0  0  0
  185.7710  178.1410  144.7360 C   0  0  0  0  0  2  0  0  0  0  0  0
  186.8500  178.8200  142.5720 C   0  0  0  0  0  2  0  0  0  0  0  0
  185.6100  178.4110  141.7780 C   0  0  0  0  0  2  0  0  0  0  0  0
  184.4690  178.1070  143.9730 C   0  0  0  0  0  3  0  0  0  0  0  0
  186.9930  177.9600  143.8350 C   0  0  2  0  0  3  0  0  0  0  0  0
  184.3860  178.2840  142.6460 C   0  0  0  0  0  0  0  0  0  0  0  0
  191.3890  177.0040  146.2800 O   0  0  0  0  0  0  0  0  0  0  0  0
  191.4160  176.8210  144.9130 C   0  0  2  0  0  3  0  0  0  0  0  0
  189.2010  177.8450  147.2600 O   0  0  0  0  0  1  0  0  0  0  0  0
  188.2610  175.6740  147.0080 O   0  0  0  0  0  1  0  0  0  0  0  0
  190.3720  176.1480  145.7640 C   0  0  2  0  0  0  0  0  0  0  0  0
  189.1720  176.8520  145.0640 C   0  0  2  0  0  3  0  0  0  0  0  0
  189.1290  176.6570  146.5240 C   0  0  0  0  0  0  0  0  0  0  0  0
  193.7860  176.0750  145.3250 N   0  0  0  0  0  2  0  0  0  0  0  0
  192.5760  175.9310  144.5770 C   0  0  0  0  0  0  0  0  0  0  0  0
  192.4870  175.0700  143.6610 O   0  0  0  0  0  0  0  0  0  0  0  0
  194.7040  174.9740  145.6150 C   0  0  0  0  0  2  0  0  0  0  0  0
  196.1730  176.1760  143.9840 N   0  0  0  0  0  2  0  0  0  0  0  0
  196.3980  173.7750  142.5160 C   0  0  0  0  0  3  0  0  0  0  0  0
  196.9980  175.0510  141.9860 C   0  0  0  0  0  2  0  0  0  0  0  0
  197.3520  175.9990  143.1330 C   0  0  0  0  0  2  0  0  0  0  0  0
  195.8450  173.7200  143.7370 C   0  0  0  0  0  3  0  0  0  0  0  0
  195.9100  174.9040  144.6750 C   0  0  2  0  0  3  0  0  0  0  0  0
  189.2790  173.6570  143.1310 C   0  0  0  0  0  2  0  0  0  0  0  0
  189.9310  172.5520  142.3040 C   0  0  0  0  0  2  0  0  0  0  0  0
  191.2030  172.0490  142.9720 C   0  0  0  0  0  2  0  0  0  0  0  0
  191.6760  170.7420  142.3430 C   0  0  1  0  0  3  0  0  0  0  0  0
  193.2530  172.1930  141.2260 F   0  0  0  0  0  0  0  0  0  0  0  0
  192.5730  170.9880  141.1160 C   0  0  2  0  0  3  0  0  0  0  0  0
  190.9350  170.0400  139.6370 O   0  0  0  0  0  0  0  0  0  0  0  0
  191.8360  170.9090  139.8120 C   0  0  0  0  0  0  0  0  0  0  0  0
  192.1700  171.8090  138.8050 O   0  0  0  0  0  0  0  0  0  0  0  0
  191.4850  173.0360  138.6060 C   0  0  2  0  0  3  0  0  0  0  0  0
  188.9220  173.6750  139.0490 O   0  0  0  0  0  1  0  0  0  0  0  0
  189.9380  174.1640  136.9980 N   0  0  0  0  0  0  0  0  0  0  0  0
  189.6110  174.0140  135.5930 C   0  0  0  0  0  1  0  0  0  0  0  0
  190.5090  172.8730  137.4300 C   0  0  2  0  0  3  0  0  0  0  0  0
  189.1030  173.2090  137.7430 C   0  0  1  0  0  3  0  0  0  0  0  0
  192.5120  174.1420  138.3620 C   0  0  0  0  0  2  0  0  0  0  0  0
  196.7190  173.8870  137.5460 C   0  0  0  0  0  2  0  0  0  0  0  0
  194.8480  173.9380  139.1130 N   0  0  0  0  0  2  0  0  0  0  0  0
  195.6860  174.0530  136.4580 C   0  0  0  0  0  3  0  0  0  0  0  0
  193.8850  173.5500  138.0800 C   0  0  2  0  0  3  0  0  0  0  0  0
  194.3680  173.9500  136.7080 C   0  0  0  0  0  3  0  0  0  0  0  0
  196.1030  173.2580  138.8020 C   0  0  0  0  0  2  0  0  0  0  0  0
  192.3410  169.9740  143.3050 O   0  0  0  0  0  0  0  0  0  0  0  0
  192.7820  170.8940  144.2640 C   0  0  0  0  0  2  0  0  0  0  0  0
  193.9860  170.3660  144.9610 C   0  0  0  0  0  0  0  0  0  0  0  0
  194.5970  171.0800  145.7950 O   0  0  0  0  0  1  0  0  0  0  0  0
  194.4690  169.1050  144.6390 O   0  0  0  0  0  0  0  0  0  0  0  0
  1  3  1  1  0  0  0
  1  4  1  0  0  0  0
  1  2  1  0  0  0  0
  2 18  1  1  0  0  0
  3  5  1  0  0  0  0
  4 11  1  1  0  0  0
  4  2  1  0  0  0  0
  5  1  1  0  0  0  0
  5 30  1  1  0  0  0
  6 12  1  0  0  0  0
  9  8  1  0  0  0  0
  9 12  1  0  0  0  0
 10  7  1  0  0  0  0
 11  8  1  6  0  0  0
 11  7  1  0  0  0  0
 12 10  2  0  0  0  0
 14 21  1  1  0  0  0
 14 17  1  0  0  0  0
 14 13  1  0  0  0  0
 17 13  1  1  0  0  0
 17 19  1  0  0  0  0
 18 17  1  0  0  0  0
 18 19  1  1  0  0  0
 19 16  1  0  0  0  0
 19 15  1  0  0  0  0
 20 23  1  0  0  0  0
 21 20  1  0  0  0  0
 22 21  2  0  0  0  0
 24 29  1  0  0  0  0
 25 28  2  0  0  0  0
 26 25  1  0  0  0  0
 26 27  1  0  0  0  0
 27 24  1  0  0  0  0
 28 29  1  0  0  0  0
 29 23  1  6  0  0  0
 31 32  1  0  0  0  0
 31 30  1  0  0  0  0
 33 32  1  1  0  0  0
 33 52  1  0  0  0  0
 35 34  1  1  0  0  0
 35 33  1  0  0  0  0
 36 37  2  0  0  0  0
 37 35  1  0  0  0  0
 38 37  1  0  0  0  0
 39 45  1  6  0  0  0
 39 38  1  0  0  0  0
 41 43  1  0  0  0  0
 41 44  1  0  0  0  0
 42 41  1  0  0  0  0
 43 44  1  0  0  0  0
 43 39  1  1  0  0  0
 44 40  1  1  0  0  0
 46 51  1  0  0  0  0
 48 50  2  0  0  0  0
 48 46  1  0  0  0  0
 49 45  1  1  0  0  0
 49 47  1  0  0  0  0
 50 49  1  0  0  0  0
 51 47  1  0  0  0  0
 52 53  1  0  0  0  0
 53 54  1  0  0  0  0
 54 55  1  0  0  0  0
 56 54  2  0  0  0  0
M  END
>  <MODEL>
6

>  <REMARK>
 VINA RESULT:      -5.7      2.458      4.604
  Name = 
  19 active torsions:
  status: ('A' for Active; 'I' for Inactive)
    1  A    between atoms: O_1  and  C_31
    2  A    between atoms: O_1  and  C_35
    3  A    between atoms: C_8  and  N_25
    4  A    between atoms: C_8  and  C_44
    5  A    between atoms: C_11  and  C_35
    6  A    between atoms: C_11  and  C_49
    7  A    between atoms: O_14  and  C_21
    8  A    between atoms: O_14  and  C_27
    9  A    between atoms: C_15  and  C_27
   10  A    between atoms: C_15  and  C_35
   11  A    between atoms: C_17  and  C_38
   12  A    between atoms: N_20  and  C_50
   13  A    between atoms: C_21  and  CA_30
   14  A    between atoms: C_21  and  C_53
   15  A    between atoms: C_22  and  C_31
   16  A    between atoms: C_33  and  C_49
   17  A    between atoms: C_33  and  C_55
   18  A    between atoms: C_39  and  C_53
   19  A    between atoms: C_47  and  C_51
                            x       y       z     vdW  Elec       q    Type
                         _______ _______ _______ _____ _____    ______ ____

>  <TORSDO>
F 19

$$$$
=
 OpenBabel11062421163D

 56 63  0  0  1  0  0  0  0  0999 V2000
  193.6010  172.9340  142.6140 C   0  0  1  0  0  0  0  0  0  0  0  0
  193.6220  171.8660  143.6610 N   0  0  2  0  0  0  0  0  0  0  0  0
  192.3960  173.6790  142.4750 O   0  0  0  0  0  0  0  0  0  0  0  0
  193.8150  173.2650  144.0440 C   0  0  1  0  0  3  0  0  0  0  0  0
  192.4290  172.5360  141.7180 C   0  0  2  0  0  3  0  0  0  0  0  0
  194.5810  177.6830  145.6210 O   0  0  0  0  0  1  0  0  0  0  0  0
  195.4110  174.0130  145.8620 C   0  0  0  0  0  2  0  0  0  0  0  0
  195.8440  174.7930  143.5150 C   0  0  0  0  0  2  0  0  0  0  0  0
  195.0900  176.0990  143.7660 C   0  0  0  0  0  2  0  0  0  0  0  0
  195.0150  175.4370  146.1670 C   0  0  0  0  0  3  0  0  0  0  0  0
  195.2720  173.6620  144.3800 C   0  0  2  0  0  3  0  0  0  0  0  0
  194.9230  176.3940  145.2330 C   0  0  0  0  0  0  0  0  0  0  0  0
  195.6850  169.0110  142.3020 O   0  0  0  0  0  0  0  0  0  0  0  0
  195.2140  170.0270  141.4960 C   0  0  2  0  0  3  0  0  0  0  0  0
  196.3070  169.6580  144.6790 O   0  0  0  0  0  1  0  0  0  0  0  0
  194.0000  169.7500  145.2520 O   0  0  0  0  0  1  0  0  0  0  0  0
  194.5660  169.7270  142.8220 C   0  0  2  0  0  0  0  0  0  0  0  0
  194.8680  171.1300  143.4260 C   0  0  2  0  0  3  0  0  0  0  0  0
  194.9940  169.9420  144.2890 C   0  0  0  0  0  0  0  0  0  0  0  0
  194.0440  170.2670  139.2790 N   0  0  0  0  0  2  0  0  0  0  0  0
  194.4990  169.4120  140.3300 C   0  0  0  0  0  0  0  0  0  0  0  0
  194.3070  168.1670  140.2720 O   0  0  0  0  0  0  0  0  0  0  0  0
  193.9570  169.8630  137.8760 C   0  0  0  0  0  2  0  0  0  0  0  0
  191.9190  170.8720  136.8290 N   0  0  0  0  0  2  0  0  0  0  0  0
  190.3320  169.1960  138.4560 C   0  0  0  0  0  3  0  0  0  0  0  0
  189.6890  170.2410  137.5830 C   0  0  0  0  0  2  0  0  0  0  0  0
  190.5670  170.5460  136.3680 C   0  0  0  0  0  2  0  0  0  0  0  0
  191.6520  168.9600  138.4020 C   0  0  0  0  0  3  0  0  0  0  0  0
  192.5250  169.6480  137.3780 C   0  0  2  0  0  3  0  0  0  0  0  0
  191.3520  171.5840  142.2460 C   0  0  0  0  0  2  0  0  0  0  0  0
  190.1120  171.6510  141.3590 C   0  0  0  0  0  2  0  0  0  0  0  0
  189.0840  172.6180  141.9300 C   0  0  0  0  0  2  0  0  0  0  0  0
  188.6710  173.6580  140.8930 C   0  0  1  0  0  3  0  0  0  0  0  0
  190.1010  175.3980  141.7690 F   0  0  0  0  0  0  0  0  0  0  0  0
  188.7880  175.0910  141.4410 C   0  0  2  0  0  3  0  0  0  0  0  0
  186.7020  175.8000  142.3980 O   0  0  0  0  0  0  0  0  0  0  0  0
  187.8720  175.3660  142.5970 C   0  0  0  0  0  0  0  0  0  0  0  0
  188.3420  175.1350  143.8860 O   0  0  0  0  0  0  0  0  0  0  0  0
  188.7120  176.1810  144.7710 C   0  0  2  0  0  3  0  0  0  0  0  0
  190.6460  177.8400  143.9490 O   0  0  0  0  0  1  0  0  0  0  0  0
  190.6360  177.0110  146.1380 N   0  0  0  0  0  0  0  0  0  0  0  0
  191.5950  176.4160  147.0480 C   0  0  0  0  0  1  0  0  0  0  0  0
  190.1340  175.9110  145.2900 C   0  0  2  0  0  3  0  0  0  0  0  0
  191.1650  176.8380  144.7750 C   0  0  1  0  0  3  0  0  0  0  0  0
  187.6860  176.2580  145.9020 C   0  0  0  0  0  2  0  0  0  0  0  0
  184.4400  179.0470  145.5580 C   0  0  0  0  0  2  0  0  0  0  0  0
  186.6510  178.2530  144.8950 N   0  0  0  0  0  2  0  0  0  0  0  0
  184.4310  177.9030  146.5420 C   0  0  0  0  0  3  0  0  0  0  0  0
  186.3970  176.9080  145.4170 C   0  0  2  0  0  3  0  0  0  0  0  0
  185.3650  176.9350  146.5160 C   0  0  0  0  0  3  0  0  0  0  0  0
  185.3800  178.7570  144.3810 C   0  0  0  0  0  2  0  0  0  0  0  0
  189.4430  173.4970  139.7370 O   0  0  0  0  0  0  0  0  0  0  0  0
  188.5580  173.7130  138.6750 C   0  0  0  0  0  2  0  0  0  0  0  0
  189.3090  174.1310  137.4610 C   0  0  0  0  0  0  0  0  0  0  0  0
  190.5600  174.0150  137.4200 O   0  0  0  0  0  1  0  0  0  0  0  0
  188.6300  174.7090  136.3970 O   0  0  0  0  0  0  0  0  0  0  0  0
  1  3  1  1  0  0  0
  1  2  1  0  0  0  0
  1  4  1  0  0  0  0
  2 18  1  6  0  0  0
  2  4  1  0  0  0  0
  4 11  1  6  0  0  0
  5 30  1  1  0  0  0
  5  3  1  0  0  0  0
  5  1  1  0  0  0  0
  7 10  1  0  0  0  0
  8  9  1  0  0  0  0
  9 12  1  0  0  0  0
 11  8  1  6  0  0  0
 11  7  1  0  0  0  0
 12  6  1  0  0  0  0
 12 10  2  0  0  0  0
 14 21  1  6  0  0  0
 14 13  1  0  0  0  0
 14 17  1  0  0  0  0
 17 13  1  1  0  0  0
 17 18  1  0  0  0  0
 17 19  1  0  0  0  0
 18 19  1  1  0  0  0
 19 15  1  0  0  0  0
 19 16  1  0  0  0  0
 20 21  1  0  0  0  0
 22 21  2  0  0  0  0
 23 20  1  0  0  0  0
 24 29  1  0  0  0  0
 26 25  1  0  0  0  0
 27 24  1  0  0  0  0
 27 26  1  0  0  0  0
 28 25  2  0  0  0  0
 29 23  1  1  0  0  0
 29 28  1  0  0  0  0
 31 32  1  0  0  0  0
 31 30  1  0  0  0  0
 33 35  1  0  0  0  0
 33 32  1  1  0  0  0
 35 34  1  1  0  0  0
 35 37  1  0  0  0  0
 36 37  2  0  0  0  0
 37 38  1  0  0  0  0
 38 39  1  0  0  0  0
 39 45  1  1  0  0  0
 41 42  1  0  0  0  0
 43 39  1  6  0  0  0
 43 41  1  0  0  0  0
 44 40  1  6  0  0  0
 44 43  1  0  0  0  0
 44 41  1  0  0  0  0
 46 48  1  0  0  0  0
 47 49  1  0  0  0  0
 49 45  1  1  0  0  0
 49 50  1  0  0  0  0
 50 48  2  0  0  0  0
 51 47  1  0  0  0  0
 51 46  1  0  0  0  0
 52 33  1  0  0  0  0
 53 52  1  0  0  0  0
 54 53  1  0  0  0  0
 55 54  1  0  0  0  0
 56 54  2  0  0  0  0
M  END
>  <MODEL>
7

>  <REMARK>
 VINA RESULT:      -5.7      2.841      8.745
  Name = 
  19 active torsions:
  status: ('A' for Active; 'I' for Inactive)
    1  A    between atoms: O_1  and  C_31
    2  A    between atoms: O_1  and  C_35
    3  A    between atoms: C_8  and  N_25
    4  A    between atoms: C_8  and  C_44
    5  A    between atoms: C_11  and  C_35
    6  A    between atoms: C_11  and  C_49
    7  A    between atoms: O_14  and  C_21
    8  A    between atoms: O_14  and  C_27
    9  A    between atoms: C_15  and  C_27
   10  A    between atoms: C_15  and  C_35
   11  A    between atoms: C_17  and  C_38
   12  A    between atoms: N_20  and  C_50
   13  A    between atoms: C_21  and  CA_30
   14  A    between atoms: C_21  and  C_53
   15  A    between atoms: C_22  and  C_31
   16  A    between atoms: C_33  and  C_49
   17  A    between atoms: C_33  and  C_55
   18  A    between atoms: C_39  and  C_53
   19  A    between atoms: C_47  and  C_51
                            x       y       z     vdW  Elec       q    Type
                         _______ _______ _______ _____ _____    ______ ____

>  <TORSDO>
F 19

$$$$
=
 OpenBabel11062421163D

 56 63  0  0  1  0  0  0  0  0999 V2000
  191.1800  172.5520  139.8830 C   0  0  1  0  0  0  0  0  0  0  0  0
  192.1890  173.6500  140.0050 N   0  0  2  0  0  0  0  0  0  0  0  0
  189.8290  172.8780  140.1910 O   0  0  0  0  0  0  0  0  0  0  0  0
  191.3380  173.5700  138.8170 C   0  0  1  0  0  3  0  0  0  0  0  0
  190.5610  172.4750  141.2790 C   0  0  2  0  0  3  0  0  0  0  0  0
  189.0610  174.1030  134.6800 O   0  0  0  0  0  1  0  0  0  0  0  0
  192.3250  174.1720  136.5650 C   0  0  0  0  0  2  0  0  0  0  0  0
  191.2810  171.9040  136.8280 C   0  0  0  0  0  2  0  0  0  0  0  0
  189.9480  172.4080  136.2770 C   0  0  0  0  0  2  0  0  0  0  0  0
  191.1390  174.5190  135.6990 C   0  0  0  0  0  3  0  0  0  0  0  0
  192.0340  173.0340  137.5430 C   0  0  2  0  0  3  0  0  0  0  0  0
  190.0900  173.7030  135.5220 C   0  0  0  0  0  0  0  0  0  0  0  0
  195.5750  172.4950  141.2110 O   0  0  0  0  0  0  0  0  0  0  0  0
  194.4080  171.8540  141.5730 C   0  0  2  0  0  3  0  0  0  0  0  0
  195.6280  173.5030  138.8790 O   0  0  0  0  0  1  0  0  0  0  0  0
  194.2600  175.2980  139.6290 O   0  0  0  0  0  1  0  0  0  0  0  0
  194.3910  173.2820  141.0940 C   0  0  2  0  0  0  0  0  0  0  0  0
  193.4890  172.9870  139.8600 C   0  0  2  0  0  3  0  0  0  0  0  0
  194.5980  173.9450  139.7160 C   0  0  0  0  0  0  0  0  0  0  0  0
  195.6260  171.7280  143.7740 N   0  0  0  0  0  2  0  0  0  0  0  0
  194.3840  171.7260  143.0670 C   0  0  0  0  0  0  0  0  0  0  0  0
  193.2920  171.6250  143.6900 O   0  0  0  0  0  0  0  0  0  0  0  0
  195.7980  172.2590  145.1250 C   0  0  0  0  0  2  0  0  0  0  0  0
  194.6640  174.4850  145.2820 N   0  0  0  0  0  2  0  0  0  0  0  0
  196.6450  175.5430  143.5700 C   0  0  0  0  0  3  0  0  0  0  0  0
  195.4740  176.3900  143.9950 C   0  0  0  0  0  2  0  0  0  0  0  0
  194.9320  175.9240  145.3480 C   0  0  0  0  0  2  0  0  0  0  0  0
  196.8360  174.3150  144.0760 C   0  0  0  0  0  3  0  0  0  0  0  0
  195.9520  173.7810  145.1800 C   0  0  2  0  0  3  0  0  0  0  0  0
  190.6860  173.6640  142.2360 C   0  0  0  0  0  2  0  0  0  0  0  0
  189.4210  173.7910  143.0810 C   0  0  0  0  0  2  0  0  0  0  0  0
  189.7140  174.4960  144.3990 C   0  0  0  0  0  2  0  0  0  0  0  0
  190.1510  175.9390  144.1660 C   0  0  1  0  0  3  0  0  0  0  0  0
  187.8700  176.2810  144.8840 F   0  0  0  0  0  0  0  0  0  0  0  0
  189.0290  176.9380  144.4970 C   0  0  2  0  0  3  0  0  0  0  0  0
  189.4110  177.8660  142.3140 O   0  0  0  0  0  0  0  0  0  0  0  0
  188.7460  177.9090  143.3880 C   0  0  0  0  0  0  0  0  0  0  0  0
  187.7430  178.8540  143.5740 O   0  0  0  0  0  0  0  0  0  0  0  0
  186.3620  178.5510  143.4460 C   0  0  2  0  0  3  0  0  0  0  0  0
  186.3150  176.1790  142.2030 O   0  0  0  0  0  1  0  0  0  0  0  0
  184.7300  177.8250  141.6950 N   0  0  0  0  0  0  0  0  0  0  0  0
  184.1630  178.4140  140.4970 C   0  0  0  0  0  1  0  0  0  0  0  0
  185.9910  178.5490  141.9540 C   0  0  2  0  0  3  0  0  0  0  0  0
  186.0150  177.2160  141.3130 C   0  0  1  0  0  3  0  0  0  0  0  0
  185.5550  179.5740  144.2450 C   0  0  0  0  0  2  0  0  0  0  0  0
  185.8070  177.3630  147.9180 C   0  0  0  0  0  2  0  0  0  0  0  0
  186.1860  179.3950  146.6190 N   0  0  0  0  0  2  0  0  0  0  0  0
  185.2500  176.7710  146.6450 C   0  0  0  0  0  3  0  0  0  0  0  0
  185.1880  179.0200  145.6150 C   0  0  2  0  0  3  0  0  0  0  0  0
  185.0090  177.5240  145.5560 C   0  0  0  0  0  3  0  0  0  0  0  0
  185.7070  178.8940  147.9040 C   0  0  0  0  0  2  0  0  0  0  0  0
  191.3000  176.2060  144.9180 O   0  0  0  0  0  0  0  0  0  0  0  0
  190.8360  176.8230  146.0860 C   0  0  0  0  0  2  0  0  0  0  0  0
  191.4480  176.1800  147.2800 C   0  0  0  0  0  0  0  0  0  0  0  0
  192.1150  175.1220  147.1570 O   0  0  0  0  0  0  0  0  0  0  0  0
  191.2240  176.7170  148.5400 O   0  0  0  0  0  1  0  0  0  0  0  0
  1  2  1  0  0  0  0
  1  3  1  1  0  0  0
  1  5  1  0  0  0  0
  2 18  1  6  0  0  0
  3  5  1  0  0  0  0
  4 11  1  6  0  0  0
  4  1  1  0  0  0  0
  4  2  1  0  0  0  0
  5 30  1  1  0  0  0
  6 12  1  0  0  0  0
  8 11  1  0  0  0  0
  9  8  1  0  0  0  0
 10  7  1  0  0  0  0
 11  7  1  6  0  0  0
 12 10  2  0  0  0  0
 12  9  1  0  0  0  0
 13 14  1  0  0  0  0
 14 21  1  1  0  0  0
 15 19  1  0  0  0  0
 16 19  1  0  0  0  0
 17 13  1  6  0  0  0
 17 14  1  0  0  0  0
 18 19  1  6  0  0  0
 18 17  1  0  0  0  0
 19 17  1  0  0  0  0
 20 23  1  0  0  0  0
 21 22  2  0  0  0  0
 21 20  1  0  0  0  0
 24 27  1  0  0  0  0
 25 26  1  0  0  0  0
 25 28  2  0  0  0  0
 26 27  1  0  0  0  0
 28 29  1  0  0  0  0
 29 23  1  6  0  0  0
 29 24  1  0  0  0  0
 30 31  1  0  0  0  0
 31 32  1  0  0  0  0
 33 32  1  1  0  0  0
 33 35  1  0  0  0  0
 33 52  1  0  0  0  0
 35 34  1  6  0  0  0
 36 37  2  0  0  0  0
 37 38  1  0  0  0  0
 37 35  1  0  0  0  0
 39 38  1  0  0  0  0
 39 45  1  1  0  0  0
 41 43  1  0  0  0  0
 42 41  1  0  0  0  0
 43 39  1  1  0  0  0
 44 41  1  0  0  0  0
 44 43  1  0  0  0  0
 44 40  1  1  0  0  0
 47 51  1  0  0  0  0
 48 46  1  0  0  0  0
 49 45  1  6  0  0  0
 49 47  1  0  0  0  0
 50 49  1  0  0  0  0
 50 48  2  0  0  0  0
 51 46  1  0  0  0  0
 52 53  1  0  0  0  0
 53 54  1  0  0  0  0
 54 56  1  0  0  0  0
 55 54  2  0  0  0  0
M  END
>  <MODEL>
8

>  <REMARK>
 VINA RESULT:      -5.7      2.606      7.939
  Name = 
  19 active torsions:
  status: ('A' for Active; 'I' for Inactive)
    1  A    between atoms: O_1  and  C_31
    2  A    between atoms: O_1  and  C_35
    3  A    between atoms: C_8  and  N_25
    4  A    between atoms: C_8  and  C_44
    5  A    between atoms: C_11  and  C_35
    6  A    between atoms: C_11  and  C_49
    7  A    between atoms: O_14  and  C_21
    8  A    between atoms: O_14  and  C_27
    9  A    between atoms: C_15  and  C_27
   10  A    between atoms: C_15  and  C_35
   11  A    between atoms: C_17  and  C_38
   12  A    between atoms: N_20  and  C_50
   13  A    between atoms: C_21  and  CA_30
   14  A    between atoms: C_21  and  C_53
   15  A    between atoms: C_22  and  C_31
   16  A    between atoms: C_33  and  C_49
   17  A    between atoms: C_33  and  C_55
   18  A    between atoms: C_39  and  C_53
   19  A    between atoms: C_47  and  C_51
                            x       y       z     vdW  Elec       q    Type
                         _______ _______ _______ _____ _____    ______ ____

>  <TORSDO>
F 19

$$$$
=
 OpenBabel11062421163D

 56 63  0  0  1  0  0  0  0  0999 V2000
  188.5210  176.3280  145.2520 C   0  0  1  0  0  0  0  0  0  0  0  0
  188.9080  177.0230  143.9850 N   0  0  2  0  0  0  0  0  0  0  0  0
  189.1890  176.7350  146.4420 O   0  0  0  0  0  0  0  0  0  0  0  0
  187.9850  177.6700  144.9180 C   0  0  1  0  0  3  0  0  0  0  0  0
  189.8390  175.7400  145.7570 C   0  0  2  0  0  3  0  0  0  0  0  0
  184.7370  178.7000  148.2320 O   0  0  0  0  0  1  0  0  0  0  0  0
  185.8760  179.0450  144.6540 C   0  0  0  0  0  2  0  0  0  0  0  0
  185.6360  176.6060  145.2000 C   0  0  0  0  0  2  0  0  0  0  0  0
  185.5370  176.9080  146.6950 C   0  0  0  0  0  2  0  0  0  0  0  0
  185.4070  179.3150  146.0630 C   0  0  0  0  0  3  0  0  0  0  0  0
  186.4990  177.6580  144.4900 C   0  0  2  0  0  3  0  0  0  0  0  0
  185.1990  178.3490  146.9700 C   0  0  0  0  0  0  0  0  0  0  0  0
  188.8350  174.8980  140.8660 O   0  0  0  0  0  0  0  0  0  0  0  0
  189.1740  174.3810  142.0990 C   0  0  2  0  0  3  0  0  0  0  0  0
  187.0940  176.7490  140.8620 O   0  0  0  0  0  1  0  0  0  0  0  0
  188.7360  178.2870  141.6350 O   0  0  0  0  0  1  0  0  0  0  0  0
  189.2780  175.8580  141.8220 C   0  0  2  0  0  0  0  0  0  0  0  0
  188.2490  176.2610  142.9200 C   0  0  2  0  0  3  0  0  0  0  0  0
  188.2370  176.9810  141.6350 C   0  0  0  0  0  0  0  0  0  0  0  0
  190.4820  172.2290  142.0430 N   0  0  0  0  0  2  0  0  0  0  0  0
  190.4810  173.6560  141.9640 C   0  0  0  0  0  0  0  0  0  0  0  0
  191.5560  174.2890  141.7790 O   0  0  0  0  0  0  0  0  0  0  0  0
  191.4210  171.3710  141.3230 C   0  0  0  0  0  2  0  0  0  0  0  0
  192.3020  171.9790  139.0600 N   0  0  0  0  0  2  0  0  0  0  0  0
  189.6470  172.4640  138.2290 C   0  0  0  0  0  3  0  0  0  0  0  0
  190.8000  172.7720  137.3120 C   0  0  0  0  0  2  0  0  0  0  0  0
  191.9990  171.8770  137.6290 C   0  0  0  0  0  2  0  0  0  0  0  0
  189.8390  171.8530  139.4080 C   0  0  0  0  0  3  0  0  0  0  0  0
  191.2040  171.3430  139.8080 C   0  0  2  0  0  3  0  0  0  0  0  0
  191.1700  176.3020  145.2500 C   0  0  0  0  0  2  0  0  0  0  0  0
  192.3310  175.6560  146.0010 C   0  0  0  0  0  2  0  0  0  0  0  0
  193.6440  176.3610  145.6870 C   0  0  0  0  0  2  0  0  0  0  0  0
  194.6140  175.4250  144.9740 C   0  0  1  0  0  3  0  0  0  0  0  0
  195.7150  177.5280  144.5250 F   0  0  0  0  0  0  0  0  0  0  0  0
  195.6430  176.2000  144.1310 C   0  0  2  0  0  3  0  0  0  0  0  0
  194.2560  176.3010  142.1730 O   0  0  0  0  0  0  0  0  0  0  0  0
  195.4060  176.0940  142.6540 C   0  0  0  0  0  0  0  0  0  0  0  0
  196.4780  175.7600  141.8320 O   0  0  0  0  0  0  0  0  0  0  0  0
  196.4160  174.7230  140.8650 C   0  0  2  0  0  3  0  0  0  0  0  0
  194.7230  172.7420  141.4810 O   0  0  0  0  0  1  0  0  0  0  0  0
  196.8360  172.2730  140.5910 N   0  0  0  0  0  0  0  0  0  0  0  0
  197.9310  171.3690  140.8850 C   0  0  0  0  0  1  0  0  0  0  0  0
  197.0230  173.4460  141.4680 C   0  0  2  0  0  3  0  0  0  0  0  0
  196.0370  172.4010  141.8200 C   0  0  1  0  0  3  0  0  0  0  0  0
  197.1530  175.1780  139.6050 C   0  0  0  0  0  2  0  0  0  0  0  0
  194.5080  175.5300  136.2410 C   0  0  0  0  0  2  0  0  0  0  0  0
  196.7370  175.6680  137.2280 N   0  0  0  0  0  2  0  0  0  0  0  0
  194.0250  175.1640  137.6240 C   0  0  0  0  0  3  0  0  0  0  0  0
  196.3620  174.8120  138.3560 C   0  0  2  0  0  3  0  0  0  0  0  0
  194.8800  174.8800  138.6230 C   0  0  0  0  0  3  0  0  0  0  0  0
  195.9930  175.1880  136.0660 C   0  0  0  0  0  2  0  0  0  0  0  0
  195.2490  174.6060  145.9140 O   0  0  0  0  0  0  0  0  0  0  0  0
  195.3260  173.3470  145.3070 C   0  0  0  0  0  2  0  0  0  0  0  0
  196.6890  172.7770  145.4840 C   0  0  0  0  0  0  0  0  0  0  0  0
  197.6850  173.3530  144.9790 O   0  0  0  0  0  0  0  0  0  0  0  0
  196.8490  171.5720  146.1550 O   0  0  0  0  0  1  0  0  0  0  0  0
  1  5  1  0  0  0  0
  1  3  1  1  0  0  0
  2 18  1  6  0  0  0
  2  4  1  0  0  0  0
  2  1  1  0  0  0  0
  4 11  1  6  0  0  0
  4  1  1  0  0  0  0
  5 30  1  6  0  0  0
  5  3  1  0  0  0  0
  7 10  1  0  0  0  0
  8  9  1  0  0  0  0
  9 12  1  0  0  0  0
 10 12  2  0  0  0  0
 11  7  1  1  0  0  0
 11  8  1  0  0  0  0
 12  6  1  0  0  0  0
 13 14  1  0  0  0  0
 14 21  1  6  0  0  0
 15 19  1  0  0  0  0
 17 13  1  6  0  0  0
 17 14  1  0  0  0  0
 17 18  1  0  0  0  0
 18 19  1  6  0  0  0
 19 16  1  0  0  0  0
 19 17  1  0  0  0  0
 21 20  1  0  0  0  0
 22 21  2  0  0  0  0
 23 20  1  0  0  0  0
 24 29  1  0  0  0  0
 25 28  2  0  0  0  0
 26 27  1  0  0  0  0
 26 25  1  0  0  0  0
 27 24  1  0  0  0  0
 28 29  1  0  0  0  0
 29 23  1  1  0  0  0
 30 31  1  0  0  0  0
 32 31  1  0  0  0  0
 33 32  1  1  0  0  0
 33 52  1  0  0  0  0
 35 34  1  1  0  0  0
 35 33  1  0  0  0  0
 36 37  2  0  0  0  0
 37 35  1  0  0  0  0
 38 37  1  0  0  0  0
 39 45  1  6  0  0  0
 39 38  1  0  0  0  0
 41 42  1  0  0  0  0
 41 43  1  0  0  0  0
 41 44  1  0  0  0  0
 43 39  1  6  0  0  0
 43 44  1  0  0  0  0
 44 40  1  6  0  0  0
 46 48  1  0  0  0  0
 47 49  1  0  0  0  0
 48 50  2  0  0  0  0
 49 50  1  0  0  0  0
 49 45  1  1  0  0  0
 51 46  1  0  0  0  0
 51 47  1  0  0  0  0
 53 54  1  0  0  0  0
 53 52  1  0  0  0  0
 54 56  1  0  0  0  0
 55 54  2  0  0  0  0
M  END
>  <MODEL>
9

>  <REMARK>
 VINA RESULT:      -5.6      2.336      4.713
  Name = 
  19 active torsions:
  status: ('A' for Active; 'I' for Inactive)
    1  A    between atoms: O_1  and  C_31
    2  A    between atoms: O_1  and  C_35
    3  A    between atoms: C_8  and  N_25
    4  A    between atoms: C_8  and  C_44
    5  A    between atoms: C_11  and  C_35
    6  A    between atoms: C_11  and  C_49
    7  A    between atoms: O_14  and  C_21
    8  A    between atoms: O_14  and  C_27
    9  A    between atoms: C_15  and  C_27
   10  A    between atoms: C_15  and  C_35
   11  A    between atoms: C_17  and  C_38
   12  A    between atoms: N_20  and  C_50
   13  A    between atoms: C_21  and  CA_30
   14  A    between atoms: C_21  and  C_53
   15  A    between atoms: C_22  and  C_31
   16  A    between atoms: C_33  and  C_49
   17  A    between atoms: C_33  and  C_55
   18  A    between atoms: C_39  and  C_53
   19  A    between atoms: C_47  and  C_51
                            x       y       z     vdW  Elec       q    Type
                         _______ _______ _______ _____ _____    ______ ____

>  <TORSDO>
F 19

$$$$
