=
 OpenBabel11072409203D

 58 67  0  0  1  0  0  0  0  0999 V2000
  194.2790  171.8950  142.9640 C   0  0  1  0  0  3  0  0  0  0  0  0
  195.5560  171.8910  143.6970 N   0  0  0  0  0  0  0  0  0  0  0  0
  195.5390  169.9840  142.1620 C   0  0  0  0  0  2  0  0  0  0  0  0
  194.5360  172.0920  141.4790 C   0  0  0  0  0  2  0  0  0  0  0  0
  195.2980  170.8820  140.9620 C   0  0  1  0  0  0  0  0  0  0  0  0
  194.8780  170.6260  143.3720 C   0  0  2  0  0  3  0  0  0  0  0  0
  195.2440  172.1790  145.0860 C   0  0  0  0  0  2  0  0  0  0  0  0
  197.2890  173.4920  144.8640 N   0  0  0  0  0  2  0  0  0  0  0  0
  196.5090  172.6600  145.7930 C   0  0  1  0  0  3  0  0  0  0  0  0
  196.6200  174.1220  146.0180 C   0  0  2  0  0  3  0  0  0  0  0  0
  195.4430  174.9530  145.5750 C   0  0  0  0  0  0  0  0  0  0  0  0
  195.2640  175.2220  144.2130 C   0  0  0  0  0  3  0  0  0  0  0  0
  193.3720  176.1230  146.0580 C   0  0  0  0  0  3  0  0  0  0  0  0
  194.1520  175.9460  143.7770 C   0  0  0  0  0  3  0  0  0  0  0  0
  193.2030  176.4090  144.6950 C   0  0  0  0  0  0  0  0  0  0  0  0
  194.4810  175.3960  146.4960 C   0  0  0  0  0  3  0  0  0  0  0  0
  190.3590  176.1150  145.5000 N   0  0  0  0  0  0  0  0  0  0  0  0
  190.6930  176.9480  144.5610 C   0  0  0  0  0  0  0  0  0  0  0  0
  188.9970  175.9200  145.8760 C   0  0  0  0  0  0  0  0  0  0  0  0
  184.9990  178.9700  143.3880 O   0  0  0  0  0  0  0  0  0  0  0  0
  185.8140  178.2870  144.0640 C   0  0  0  0  0  0  0  0  0  0  0  0
  187.9720  176.6840  145.2450 N   0  0  0  0  0  0  0  0  0  0  0  0
  188.2420  177.5380  144.3020 C   0  0  0  0  0  0  0  0  0  0  0  0
  188.7030  175.0880  146.7710 O   0  0  0  0  0  0  0  0  0  0  0  0
  192.0710  177.1410  144.2060 N   0  0  0  0  0  2  0  0  0  0  0  0
  189.6520  177.7410  143.8080 C   0  0  0  0  0  2  0  0  0  0  0  0
  187.1940  178.2890  143.6780 N   0  0  0  0  0  2  0  0  0  0  0  0
  185.3920  177.5260  145.1710 O   0  0  0  0  0  0  0  0  0  0  0  0
  185.6900  177.7280  147.6390 C   0  0  0  0  0  2  0  0  0  0  0  0
  184.8250  177.9760  146.4130 C   0  0  0  0  0  3  0  0  0  0  0  0
  185.6560  179.1040  147.0000 C   0  0  0  0  0  2  0  0  0  0  0  0
  196.6700  171.3190  140.4310 C   0  0  0  0  0  2  0  0  0  0  0  0
  195.9740  172.8690  137.9090 O   0  0  0  0  0  0  0  0  0  0  0  0
  195.7630  173.9220  136.9570 C   0  0  0  0  0  2  0  0  0  0  0  0
  196.4800  173.4310  139.0660 C   0  0  0  0  0  0  0  0  0  0  0  0
  197.3190  173.6080  141.3110 C   0  0  0  0  0  3  0  0  0  0  0  0
  196.6150  174.7700  138.8980 C   0  0  0  0  0  0  0  0  0  0  0  0
  197.4560  175.0010  141.1320 C   0  0  0  0  0  3  0  0  0  0  0  0
  196.8240  172.8010  140.2660 C   0  0  0  0  0  0  0  0  0  0  0  0
  197.1010  175.6010  139.9070 C   0  0  0  0  0  3  0  0  0  0  0  0
  196.1970  175.1150  137.6280 O   0  0  0  0  0  0  0  0  0  0  0  0
  194.5060  170.1370  139.8710 C   0  0  0  0  0  2  0  0  0  0  0  0
  193.2400  171.6110  138.4810 O   0  0  0  0  0  0  0  0  0  0  0  0
  191.9940  170.5190  140.1330 N   0  0  0  0  0  0  0  0  0  0  0  0
  193.2260  170.8090  139.4550 C   0  0  0  0  0  0  0  0  0  0  0  0
  191.9190  169.4090  141.0710 C   0  0  0  0  0  1  0  0  0  0  0  0
  190.7470  171.1420  139.6930 C   0  0  0  0  0  2  0  0  0  0  0  0
  189.6480  172.4620  141.5690 C   0  0  2  0  0  3  0  0  0  0  0  0
  190.5120  172.5380  140.3160 C   0  0  2  0  0  3  0  0  0  0  0  0
  188.3540  173.1790  141.2070 C   0  0  0  0  0  2  0  0  0  0  0  0
  189.8970  173.5410  139.4290 N   0  0  0  0  0  0  0  0  0  0  0  0
  188.4780  173.5160  139.7340 C   0  0  0  0  0  2  0  0  0  0  0  0
  190.0840  173.2700  138.0060 C   0  0  0  0  0  1  0  0  0  0  0  0
  189.5340  173.2860  143.8840 O   0  0  0  0  0  0  0  0  0  0  0  0
  190.5660  172.3310  144.0450 C   0  0  1  0  0  3  0  0  0  0  0  0
  190.3750  173.0780  142.7740 C   0  0  1  0  0  0  0  0  0  0  0  0
  191.1970  174.1840  142.5430 O   0  0  0  0  0  1  0  0  0  0  0  0
  191.6020  172.8870  144.8060 O   0  0  0  0  0  1  0  0  0  0  0  0
  1  4  1  6  0  0  0
  1  6  1  0  0  0  0
  1  2  1  0  0  0  0
  2  7  1  0  0  0  0
  5 42  1  6  0  0  0
  5  4  1  0  0  0  0
  5  3  1  0  0  0  0
  6  3  1  6  0  0  0
  6  2  1  0  0  0  0
  8  9  1  0  0  0  0
  8 10  1  0  0  0  0
  9  7  1  6  0  0  0
  9 10  1  0  0  0  0
 10 11  1  6  0  0  0
 11 16  1  0  0  0  0
 12 11  2  0  0  0  0
 13 16  2  0  0  0  0
 14 12  1  0  0  0  0
 14 15  2  0  0  0  0
 15 13  1  0  0  0  0
 17 19  1  0  0  0  0
 18 17  2  0  0  0  0
 19 24  2  0  0  0  0
 20 21  2  0  0  0  0
 21 28  1  0  0  0  0
 22 19  1  0  0  0  0
 23 22  2  0  0  0  0
 25 18  1  0  0  0  0
 25 15  1  0  0  0  0
 26 23  1  0  0  0  0
 26 18  1  0  0  0  0
 27 21  1  0  0  0  0
 27 23  1  0  0  0  0
 28 30  1  0  0  0  0
 30 31  1  0  0  0  0
 30 29  1  0  0  0  0
 31 29  1  0  0  0  0
 32  5  1  0  0  0  0
 33 35  1  0  0  0  0
 34 41  1  0  0  0  0
 34 33  1  0  0  0  0
 35 39  1  0  0  0  0
 37 35  2  0  0  0  0
 37 40  1  0  0  0  0
 38 36  1  0  0  0  0
 39 32  1  0  0  0  0
 39 36  2  0  0  0  0
 40 38  2  0  0  0  0
 41 37  1  0  0  0  0
 43 45  2  0  0  0  0
 44 46  1  0  0  0  0
 45 42  1  0  0  0  0
 45 44  1  0  0  0  0
 47 44  1  0  0  0  0
 48 50  1  6  0  0  0
 48 56  1  0  0  0  0
 49 47  1  6  0  0  0
 49 48  1  0  0  0  0
 51 52  1  0  0  0  0
 51 49  1  0  0  0  0
 52 50  1  0  0  0  0
 53 51  1  0  0  0  0
 54 55  1  0  0  0  0
 55 58  1  1  0  0  0
 56 57  1  6  0  0  0
 56 54  1  0  0  0  0
 56 55  1  0  0  0  0
M  END
>  <MODEL>
1

>  <REMARK>
 VINA RESULT:      -7.6      0.000      0.000
  Name = 
  13 active torsions:
  status: ('A' for Active; 'I' for Inactive)
    1  A    between atoms: C_4  and  C_40
    2  A    between atoms: C_10  and  N_25
    3  A    between atoms: C_10  and  C_26
    4  A    between atoms: N_12  and  C_14
    5  A    between atoms: C_14  and  C_24
    6  A    between atoms: C_16  and  C_30
    7  A    between atoms: C_23  and  O_47
    8  A    between atoms: C_27  and  C_45
    9  A    between atoms: C_31  and  C_46
   10  A    between atoms: C_34  and  N_52
   11  A    between atoms: C_39  and  C_45
   12  A    between atoms: C_39  and  C_46
   13  A    between atoms: O_47  and  C_48
                            x       y       z     vdW  Elec       q    Type
                         _______ _______ _______ _____ _____    ______ ____

>  <TORSDO>
F 13

$$$$
=
 OpenBabel11072409203D

 58 67  0  0  1  0  0  0  0  0999 V2000
  192.4400  173.4150  143.5030 C   0  0  1  0  0  3  0  0  0  0  0  0
  192.8970  173.7400  144.8640 N   0  0  0  0  0  0  0  0  0  0  0  0
  193.6370  171.4710  144.3190 C   0  0  0  0  0  2  0  0  0  0  0  0
  193.6370  173.1870  142.5950 C   0  0  0  0  0  2  0  0  0  0  0  0
  194.3760  171.9490  143.0820 C   0  0  1  0  0  0  0  0  0  0  0  0
  192.4370  172.3800  144.5350 C   0  0  2  0  0  3  0  0  0  0  0  0
  191.7880  174.3960  145.5340 C   0  0  0  0  0  2  0  0  0  0  0  0
  192.9800  176.5080  145.8110 N   0  0  0  0  0  2  0  0  0  0  0  0
  192.3380  175.4030  146.5410 C   0  0  1  0  0  3  0  0  0  0  0  0
  191.7160  176.7490  146.5320 C   0  0  2  0  0  3  0  0  0  0  0  0
  190.5710  176.9450  145.5700 C   0  0  0  0  0  0  0  0  0  0  0  0
  190.8250  177.4700  144.2980 C   0  0  0  0  0  3  0  0  0  0  0  0
  188.2340  176.6810  144.9750 C   0  0  0  0  0  3  0  0  0  0  0  0
  189.7870  177.6120  143.3730 C   0  0  0  0  0  3  0  0  0  0  0  0
  188.4840  177.2270  143.7070 C   0  0  0  0  0  0  0  0  0  0  0  0
  189.2700  176.5360  145.9000 C   0  0  0  0  0  3  0  0  0  0  0  0
  185.6690  178.0680  144.1460 N   0  0  0  0  0  0  0  0  0  0  0  0
  186.0750  177.7290  142.9600 C   0  0  0  0  0  0  0  0  0  0  0  0
  184.3120  178.4320  144.3950 C   0  0  0  0  0  0  0  0  0  0  0  0
  180.6890  178.6080  140.1150 O   0  0  0  0  0  0  0  0  0  0  0  0
  181.4260  178.6760  141.1350 C   0  0  0  0  0  0  0  0  0  0  0  0
  183.3810  178.4730  143.3160 N   0  0  0  0  0  0  0  0  0  0  0  0
  183.7270  178.1510  142.1050 C   0  0  0  0  0  0  0  0  0  0  0  0
  183.9420  178.7310  145.5590 O   0  0  0  0  0  0  0  0  0  0  0  0
  187.4480  177.3790  142.7270 N   0  0  0  0  0  2  0  0  0  0  0  0
  185.1260  177.6880  141.7860 C   0  0  0  0  0  2  0  0  0  0  0  0
  182.7720  178.1920  141.0390 N   0  0  0  0  0  2  0  0  0  0  0  0
  180.9510  179.2040  142.3510 O   0  0  0  0  0  0  0  0  0  0  0  0
  178.7210  178.3160  143.0280 C   0  0  0  0  0  2  0  0  0  0  0  0
  179.6020  179.5200  142.7320 C   0  0  0  0  0  3  0  0  0  0  0  0
  179.3420  179.1010  144.1690 C   0  0  0  0  0  2  0  0  0  0  0  0
  195.7990  172.3290  143.5130 C   0  0  0  0  0  2  0  0  0  0  0  0
  195.9120  175.3090  144.1090 O   0  0  0  0  0  0  0  0  0  0  0  0
  196.1840  176.7160  144.0370 C   0  0  0  0  0  2  0  0  0  0  0  0
  196.4560  174.7070  142.9910 C   0  0  0  0  0  0  0  0  0  0  0  0
  197.0920  172.9910  141.4340 C   0  0  0  0  0  3  0  0  0  0  0  0
  197.0440  175.6490  142.2110 C   0  0  0  0  0  0  0  0  0  0  0  0
  197.7030  173.9740  140.6260 C   0  0  0  0  0  3  0  0  0  0  0  0
  196.4560  173.3540  142.6380 C   0  0  0  0  0  0  0  0  0  0  0  0
  197.6830  175.3290  141.0140 C   0  0  0  0  0  3  0  0  0  0  0  0
  196.8980  176.8870  142.8030 O   0  0  0  0  0  0  0  0  0  0  0  0
  194.4100  170.8490  142.0050 C   0  0  0  0  0  2  0  0  0  0  0  0
  194.1650  171.7220  139.7940 O   0  0  0  0  0  0  0  0  0  0  0  0
  192.2220  170.7720  140.6880 N   0  0  0  0  0  0  0  0  0  0  0  0
  193.6040  171.1530  140.7710 C   0  0  0  0  0  0  0  0  0  0  0  0
  191.6450  169.8890  141.6890 C   0  0  0  0  0  1  0  0  0  0  0  0
  191.4590  171.0310  139.4670 C   0  0  0  0  0  2  0  0  0  0  0  0
  189.2980  172.2910  139.9250 C   0  0  2  0  0  3  0  0  0  0  0  0
  190.7490  172.4050  139.4750 C   0  0  2  0  0  3  0  0  0  0  0  0
  188.4690  172.6550  138.7010 C   0  0  0  0  0  2  0  0  0  0  0  0
  190.7470  173.1330  138.1930 N   0  0  0  0  0  0  0  0  0  0  0  0
  189.4680  172.8300  137.5740 C   0  0  0  0  0  2  0  0  0  0  0  0
  191.8210  172.7400  137.2850 C   0  0  0  0  0  1  0  0  0  0  0  0
  187.7430  173.0220  141.6850 O   0  0  0  0  0  0  0  0  0  0  0  0
  188.8320  172.6400  142.5040 C   0  0  1  0  0  3  0  0  0  0  0  0
  189.0280  173.1940  141.1380 C   0  0  1  0  0  0  0  0  0  0  0  0
  189.3600  174.5470  141.0300 O   0  0  0  0  0  1  0  0  0  0  0  0
  189.0460  173.6200  143.4820 O   0  0  0  0  0  1  0  0  0  0  0  0
  1  4  1  6  0  0  0
  1  6  1  0  0  0  0
  1  2  1  0  0  0  0
  2  7  1  0  0  0  0
  4  5  1  0  0  0  0
  5 42  1  6  0  0  0
  5 32  1  0  0  0  0
  5  3  1  0  0  0  0
  6  3  1  6  0  0  0
  6  2  1  0  0  0  0
  8 10  1  0  0  0  0
  8  9  1  0  0  0  0
  9  7  1  6  0  0  0
 10 11  1  6  0  0  0
 10  9  1  0  0  0  0
 11 16  1  0  0  0  0
 12 11  2  0  0  0  0
 13 16  2  0  0  0  0
 14 15  2  0  0  0  0
 14 12  1  0  0  0  0
 15 13  1  0  0  0  0
 17 19  1  0  0  0  0
 18 17  2  0  0  0  0
 19 24  2  0  0  0  0
 20 21  2  0  0  0  0
 21 28  1  0  0  0  0
 22 19  1  0  0  0  0
 23 22  2  0  0  0  0
 25 18  1  0  0  0  0
 25 15  1  0  0  0  0
 26 23  1  0  0  0  0
 26 18  1  0  0  0  0
 27 21  1  0  0  0  0
 27 23  1  0  0  0  0
 28 30  1  0  0  0  0
 29 31  1  0  0  0  0
 30 29  1  0  0  0  0
 30 31  1  0  0  0  0
 34 33  1  0  0  0  0
 35 33  1  0  0  0  0
 36 39  2  0  0  0  0
 37 41  1  0  0  0  0
 37 35  2  0  0  0  0
 38 40  2  0  0  0  0
 38 36  1  0  0  0  0
 39 35  1  0  0  0  0
 39 32  1  0  0  0  0
 40 37  1  0  0  0  0
 41 34  1  0  0  0  0
 43 45  2  0  0  0  0
 44 45  1  0  0  0  0
 44 46  1  0  0  0  0
 45 42  1  0  0  0  0
 47 44  1  0  0  0  0
 48 50  1  6  0  0  0
 48 56  1  0  0  0  0
 49 47  1  6  0  0  0
 49 48  1  0  0  0  0
 51 49  1  0  0  0  0
 52 51  1  0  0  0  0
 52 50  1  0  0  0  0
 53 51  1  0  0  0  0
 54 55  1  0  0  0  0
 55 58  1  1  0  0  0
 56 57  1  6  0  0  0
 56 54  1  0  0  0  0
 56 55  1  0  0  0  0
M  END
>  <MODEL>
2

>  <REMARK>
 VINA RESULT:      -7.0      2.688      4.260
  Name = 
  13 active torsions:
  status: ('A' for Active; 'I' for Inactive)
    1  A    between atoms: C_4  and  C_40
    2  A    between atoms: C_10  and  N_25
    3  A    between atoms: C_10  and  C_26
    4  A    between atoms: N_12  and  C_14
    5  A    between atoms: C_14  and  C_24
    6  A    between atoms: C_16  and  C_30
    7  A    between atoms: C_23  and  O_47
    8  A    between atoms: C_27  and  C_45
    9  A    between atoms: C_31  and  C_46
   10  A    between atoms: C_34  and  N_52
   11  A    between atoms: C_39  and  C_45
   12  A    between atoms: C_39  and  C_46
   13  A    between atoms: O_47  and  C_48
                            x       y       z     vdW  Elec       q    Type
                         _______ _______ _______ _____ _____    ______ ____

>  <TORSDO>
F 13

$$$$
=
 OpenBabel11072409203D

 58 67  0  0  1  0  0  0  0  0999 V2000
  195.0830  174.2720  139.7760 C   0  0  1  0  0  3  0  0  0  0  0  0
  195.8070  173.9460  141.0170 N   0  0  0  0  0  0  0  0  0  0  0  0
  194.0570  172.2680  140.6770 C   0  0  0  0  0  2  0  0  0  0  0  0
  195.2660  173.1550  138.7630 C   0  0  0  0  0  2  0  0  0  0  0  0
  194.5970  171.9020  139.3060 C   0  0  1  0  0  0  0  0  0  0  0  0
  194.3520  173.7390  140.9240 C   0  0  2  0  0  3  0  0  0  0  0  0
  195.9980  175.1960  141.7320 C   0  0  0  0  0  2  0  0  0  0  0  0
  197.6390  176.5200  142.9620 N   0  0  0  0  0  2  0  0  0  0  0  0
  197.3800  175.1920  142.3830 C   0  0  1  0  0  3  0  0  0  0  0  0
  197.4130  175.3680  143.8550 C   0  0  2  0  0  3  0  0  0  0  0  0
  196.0750  175.4670  144.5420 C   0  0  0  0  0  0  0  0  0  0  0  0
  195.5080  176.7280  144.7630 C   0  0  0  0  0  3  0  0  0  0  0  0
  194.0930  174.4320  145.4840 C   0  0  0  0  0  3  0  0  0  0  0  0
  194.2450  176.8410  145.3510 C   0  0  0  0  0  3  0  0  0  0  0  0
  193.5330  175.6960  145.7240 C   0  0  0  0  0  0  0  0  0  0  0  0
  195.3530  174.3170  144.8930 C   0  0  0  0  0  3  0  0  0  0  0  0
  191.1100  176.9070  144.5070 N   0  0  0  0  0  0  0  0  0  0  0  0
  191.0890  176.4940  145.7380 C   0  0  0  0  0  0  0  0  0  0  0  0
  189.9750  177.5330  143.9110 C   0  0  0  0  0  0  0  0  0  0  0  0
  185.2420  178.0410  146.8810 O   0  0  0  0  0  0  0  0  0  0  0  0
  186.2220  177.9150  146.0970 C   0  0  0  0  0  0  0  0  0  0  0  0
  188.7700  177.6750  144.6580 N   0  0  0  0  0  0  0  0  0  0  0  0
  188.6840  177.2760  145.8930 C   0  0  0  0  0  0  0  0  0  0  0  0
  190.0330  177.9460  142.7240 O   0  0  0  0  0  0  0  0  0  0  0  0
  192.2360  175.8530  146.3160 N   0  0  0  0  0  2  0  0  0  0  0  0
  189.8670  176.6720  146.6060 C   0  0  0  0  0  2  0  0  0  0  0  0
  187.4640  177.4360  146.6270 N   0  0  0  0  0  2  0  0  0  0  0  0
  186.1160  178.2430  144.7310 O   0  0  0  0  0  0  0  0  0  0  0  0
  185.8340  177.7520  142.3030 C   0  0  0  0  0  2  0  0  0  0  0  0
  185.2930  177.6390  143.7190 C   0  0  0  0  0  3  0  0  0  0  0  0
  186.0100  176.4610  143.0810 C   0  0  0  0  0  2  0  0  0  0  0  0
  195.6440  170.7970  139.5030 C   0  0  0  0  0  2  0  0  0  0  0  0
  197.3040  171.3820  141.9830 O   0  0  0  0  0  0  0  0  0  0  0  0
  197.8500  171.3540  143.3100 C   0  0  0  0  0  2  0  0  0  0  0  0
  196.3370  170.3980  141.8950 C   0  0  0  0  0  0  0  0  0  0  0  0
  194.6040  169.0110  140.9750 C   0  0  0  0  0  3  0  0  0  0  0  0
  196.2490  169.7440  143.0790 C   0  0  0  0  0  0  0  0  0  0  0  0
  194.5140  168.3340  142.2090 C   0  0  0  0  0  3  0  0  0  0  0  0
  195.5280  170.0620  140.8050 C   0  0  0  0  0  0  0  0  0  0  0  0
  195.3480  168.6990  143.2850 C   0  0  0  0  0  3  0  0  0  0  0  0
  197.1540  170.2850  143.9690 O   0  0  0  0  0  0  0  0  0  0  0  0
  193.4630  171.4180  138.3830 C   0  0  0  0  0  2  0  0  0  0  0  0
  191.7950  170.3850  139.7460 O   0  0  0  0  0  0  0  0  0  0  0  0
  191.1800  172.4600  138.8590 N   0  0  0  0  0  0  0  0  0  0  0  0
  192.1050  171.3750  139.0280 C   0  0  0  0  0  0  0  0  0  0  0  0
  191.6210  173.7110  138.2610 C   0  0  0  0  0  1  0  0  0  0  0  0
  189.8800  172.4310  139.5270 C   0  0  0  0  0  2  0  0  0  0  0  0
  189.8440  172.0760  142.0460 C   0  0  2  0  0  3  0  0  0  0  0  0
  189.8980  173.1030  140.9210 C   0  0  2  0  0  3  0  0  0  0  0  0
  188.5020  172.3020  142.7300 C   0  0  0  0  0  2  0  0  0  0  0  0
  188.8240  174.0790  141.1770 N   0  0  0  0  0  0  0  0  0  0  0  0
  187.7930  173.3480  141.8920 C   0  0  0  0  0  2  0  0  0  0  0  0
  188.2460  174.6570  139.9660 C   0  0  0  0  0  1  0  0  0  0  0  0
  190.8320  171.6710  144.2610 O   0  0  0  0  0  0  0  0  0  0  0  0
  191.8320  171.0640  143.4640 C   0  0  1  0  0  3  0  0  0  0  0  0
  191.0460  172.2330  142.9890 C   0  0  1  0  0  0  0  0  0  0  0  0
  191.6420  173.4940  143.0810 O   0  0  0  0  0  1  0  0  0  0  0  0
  193.0960  171.4580  143.9220 O   0  0  0  0  0  1  0  0  0  0  0  0
  1  4  1  6  0  0  0
  1  6  1  0  0  0  0
  1  2  1  0  0  0  0
  2  7  1  0  0  0  0
  4  5  1  0  0  0  0
  5 42  1  6  0  0  0
  5 32  1  0  0  0  0
  5  3  1  0  0  0  0
  6  3  1  6  0  0  0
  6  2  1  0  0  0  0
  8 10  1  0  0  0  0
  9  7  1  6  0  0  0
  9  8  1  0  0  0  0
  9 10  1  0  0  0  0
 10 11  1  6  0  0  0
 11 12  2  0  0  0  0
 11 16  1  0  0  0  0
 12 14  1  0  0  0  0
 13 15  1  0  0  0  0
 14 15  2  0  0  0  0
 15 25  1  0  0  0  0
 16 13  2  0  0  0  0
 17 18  2  0  0  0  0
 18 25  1  0  0  0  0
 18 26  1  0  0  0  0
 19 17  1  0  0  0  0
 19 22  1  0  0  0  0
 21 27  1  0  0  0  0
 21 20  2  0  0  0  0
 22 23  2  0  0  0  0
 23 26  1  0  0  0  0
 23 27  1  0  0  0  0
 24 19  2  0  0  0  0
 28 21  1  0  0  0  0
 29 31  1  0  0  0  0
 29 30  1  0  0  0  0
 30 28  1  0  0  0  0
 31 30  1  0  0  0  0
 32 39  1  0  0  0  0
 33 34  1  0  0  0  0
 34 41  1  0  0  0  0
 35 33  1  0  0  0  0
 35 37  1  0  0  0  0
 36 38  2  0  0  0  0
 37 40  2  0  0  0  0
 37 41  1  0  0  0  0
 38 40  1  0  0  0  0
 39 36  1  0  0  0  0
 39 35  2  0  0  0  0
 42 45  1  0  0  0  0
 44 45  1  0  0  0  0
 44 47  1  0  0  0  0
 45 43  2  0  0  0  0
 46 44  1  0  0  0  0
 48 50  1  1  0  0  0
 48 56  1  0  0  0  0
 49 47  1  6  0  0  0
 49 51  1  0  0  0  0
 49 48  1  0  0  0  0
 51 52  1  0  0  0  0
 52 50  1  0  0  0  0
 53 51  1  0  0  0  0
 55 58  1  1  0  0  0
 55 54  1  0  0  0  0
 56 57  1  6  0  0  0
 56 55  1  0  0  0  0
 56 54  1  0  0  0  0
M  END
>  <MODEL>
3

>  <REMARK>
 VINA RESULT:      -6.8      1.990      3.540
  Name = 
  13 active torsions:
  status: ('A' for Active; 'I' for Inactive)
    1  A    between atoms: C_4  and  C_40
    2  A    between atoms: C_10  and  N_25
    3  A    between atoms: C_10  and  C_26
    4  A    between atoms: N_12  and  C_14
    5  A    between atoms: C_14  and  C_24
    6  A    between atoms: C_16  and  C_30
    7  A    between atoms: C_23  and  O_47
    8  A    between atoms: C_27  and  C_45
    9  A    between atoms: C_31  and  C_46
   10  A    between atoms: C_34  and  N_52
   11  A    between atoms: C_39  and  C_45
   12  A    between atoms: C_39  and  C_46
   13  A    between atoms: O_47  and  C_48
                            x       y       z     vdW  Elec       q    Type
                         _______ _______ _______ _____ _____    ______ ____

>  <TORSDO>
F 13

$$$$
=
 OpenBabel11072409203D

 58 67  0  0  1  0  0  0  0  0999 V2000
  194.5500  172.9210  140.9880 C   0  0  1  0  0  3  0  0  0  0  0  0
  195.8760  172.9240  141.6270 N   0  0  0  0  0  0  0  0  0  0  0  0
  195.5770  170.7870  140.4720 C   0  0  0  0  0  2  0  0  0  0  0  0
  194.7020  172.8270  139.4790 C   0  0  0  0  0  2  0  0  0  0  0  0
  195.3170  171.4760  139.1450 C   0  0  1  0  0  0  0  0  0  0  0  0
  195.0710  171.6920  141.5830 C   0  0  2  0  0  3  0  0  0  0  0  0
  195.7010  173.4810  142.9570 C   0  0  0  0  0  2  0  0  0  0  0  0
  196.8280  175.6430  142.8350 N   0  0  0  0  0  2  0  0  0  0  0  0
  196.9540  174.2660  143.3390 C   0  0  1  0  0  3  0  0  0  0  0  0
  196.7620  175.3910  144.2860 C   0  0  2  0  0  3  0  0  0  0  0  0
  195.3600  175.5870  144.8080 C   0  0  0  0  0  0  0  0  0  0  0  0
  194.9510  174.8940  145.9530 C   0  0  0  0  0  3  0  0  0  0  0  0
  193.2120  176.7120  144.7420 C   0  0  0  0  0  3  0  0  0  0  0  0
  193.6740  175.1000  146.4830 C   0  0  0  0  0  3  0  0  0  0  0  0
  192.7930  176.0020  145.8770 C   0  0  0  0  0  0  0  0  0  0  0  0
  194.4880  176.5110  144.2120 C   0  0  0  0  0  3  0  0  0  0  0  0
  190.2270  176.5200  144.4720 N   0  0  0  0  0  0  0  0  0  0  0  0
  190.2730  176.5010  145.7700 C   0  0  0  0  0  0  0  0  0  0  0  0
  189.0190  176.8100  143.7720 C   0  0  0  0  0  0  0  0  0  0  0  0
  184.3030  177.6900  146.6800 O   0  0  0  0  0  0  0  0  0  0  0  0
  185.2780  177.4360  145.9240 C   0  0  0  0  0  0  0  0  0  0  0  0
  187.8160  177.0430  144.5000 N   0  0  0  0  0  0  0  0  0  0  0  0
  187.7950  177.0320  145.8010 C   0  0  0  0  0  0  0  0  0  0  0  0
  189.0120  176.8460  142.5150 O   0  0  0  0  0  0  0  0  0  0  0  0
  191.4950  176.1930  146.4580 N   0  0  0  0  0  2  0  0  0  0  0  0
  189.0500  176.8030  146.6030 C   0  0  0  0  0  2  0  0  0  0  0  0
  186.5760  177.2760  146.5110 N   0  0  0  0  0  2  0  0  0  0  0  0
  185.1160  177.3190  144.5290 O   0  0  0  0  0  0  0  0  0  0  0  0
  185.5970  179.0200  142.7700 C   0  0  0  0  0  2  0  0  0  0  0  0
  184.5680  178.2710  143.6020 C   0  0  0  0  0  3  0  0  0  0  0  0
  184.8500  177.8430  142.1710 C   0  0  0  0  0  2  0  0  0  0  0  0
  196.6740  171.6790  138.4570 C   0  0  0  0  0  2  0  0  0  0  0  0
  195.6920  172.6410  135.7440 O   0  0  0  0  0  0  0  0  0  0  0  0
  195.3990  173.4510  134.5960 C   0  0  0  0  0  2  0  0  0  0  0  0
  196.4010  173.4120  136.6450 C   0  0  0  0  0  0  0  0  0  0  0  0
  197.5830  174.0400  138.6410 C   0  0  0  0  0  3  0  0  0  0  0  0
  196.5860  174.6530  136.1310 C   0  0  0  0  0  0  0  0  0  0  0  0
  197.7720  175.3310  138.1020 C   0  0  0  0  0  3  0  0  0  0  0  0
  196.8880  173.0580  137.9070 C   0  0  0  0  0  0  0  0  0  0  0  0
  197.2690  175.6510  136.8250 C   0  0  0  0  0  3  0  0  0  0  0  0
  196.0000  174.7230  134.8830 O   0  0  0  0  0  0  0  0  0  0  0  0
  194.3820  170.6300  138.2610 C   0  0  0  0  0  2  0  0  0  0  0  0
  192.7690  171.9360  137.0780 O   0  0  0  0  0  0  0  0  0  0  0  0
  191.9530  170.8970  139.0090 N   0  0  0  0  0  0  0  0  0  0  0  0
  193.0030  171.2040  138.0780 C   0  0  0  0  0  0  0  0  0  0  0  0
  192.1400  169.8530  140.0040 C   0  0  0  0  0  1  0  0  0  0  0  0
  190.6050  171.4220  138.7980 C   0  0  0  0  0  2  0  0  0  0  0  0
  189.7500  172.6780  140.8370 C   0  0  2  0  0  3  0  0  0  0  0  0
  190.3810  172.8040  139.4560 C   0  0  2  0  0  3  0  0  0  0  0  0
  188.3660  173.2990  140.7040 C   0  0  0  0  0  2  0  0  0  0  0  0
  189.5540  173.7530  138.6890 N   0  0  0  0  0  0  0  0  0  0  0  0
  188.2130  173.6300  139.2320 C   0  0  0  0  0  2  0  0  0  0  0  0
  189.5140  173.4820  137.2550 C   0  0  0  0  0  1  0  0  0  0  0  0
  190.0040  173.4400  143.1620 O   0  0  0  0  0  0  0  0  0  0  0  0
  191.1510  172.6140  143.0790 C   0  0  1  0  0  3  0  0  0  0  0  0
  190.6260  173.3560  141.9020 C   0  0  1  0  0  0  0  0  0  0  0  0
  191.2540  174.5570  141.5620 O   0  0  0  0  0  1  0  0  0  0  0  0
  192.2460  173.2780  143.6470 O   0  0  0  0  0  1  0  0  0  0  0  0
  1  4  1  6  0  0  0
  1  6  1  0  0  0  0
  1  2  1  0  0  0  0
  2  7  1  0  0  0  0
  5 42  1  6  0  0  0
  5  4  1  0  0  0  0
  5  3  1  0  0  0  0
  6  3  1  6  0  0  0
  6  2  1  0  0  0  0
  8  9  1  0  0  0  0
  8 10  1  0  0  0  0
  9  7  1  6  0  0  0
  9 10  1  0  0  0  0
 10 11  1  6  0  0  0
 11 12  1  0  0  0  0
 12 14  2  0  0  0  0
 13 15  2  0  0  0  0
 15 25  1  0  0  0  0
 15 14  1  0  0  0  0
 16 13  1  0  0  0  0
 16 11  2  0  0  0  0
 17 18  2  0  0  0  0
 18 25  1  0  0  0  0
 18 26  1  0  0  0  0
 19 17  1  0  0  0  0
 19 22  1  0  0  0  0
 21 27  1  0  0  0  0
 21 20  2  0  0  0  0
 22 23  2  0  0  0  0
 23 27  1  0  0  0  0
 23 26  1  0  0  0  0
 24 19  2  0  0  0  0
 28 21  1  0  0  0  0
 29 30  1  0  0  0  0
 30 28  1  0  0  0  0
 31 29  1  0  0  0  0
 31 30  1  0  0  0  0
 32  5  1  0  0  0  0
 33 35  1  0  0  0  0
 34 41  1  0  0  0  0
 34 33  1  0  0  0  0
 35 39  1  0  0  0  0
 37 35  2  0  0  0  0
 37 40  1  0  0  0  0
 38 36  1  0  0  0  0
 39 32  1  0  0  0  0
 39 36  2  0  0  0  0
 40 38  2  0  0  0  0
 41 37  1  0  0  0  0
 43 45  2  0  0  0  0
 44 46  1  0  0  0  0
 45 42  1  0  0  0  0
 45 44  1  0  0  0  0
 47 44  1  0  0  0  0
 48 50  1  6  0  0  0
 48 56  1  0  0  0  0
 49 47  1  6  0  0  0
 49 48  1  0  0  0  0
 51 52  1  0  0  0  0
 51 49  1  0  0  0  0
 52 50  1  0  0  0  0
 53 51  1  0  0  0  0
 55 54  1  0  0  0  0
 55 58  1  1  0  0  0
 56 57  1  6  0  0  0
 56 55  1  0  0  0  0
 56 54  1  0  0  0  0
M  END
>  <MODEL>
4

>  <REMARK>
 VINA RESULT:      -6.7      1.598      2.280
  Name = 
  13 active torsions:
  status: ('A' for Active; 'I' for Inactive)
    1  A    between atoms: C_4  and  C_40
    2  A    between atoms: C_10  and  N_25
    3  A    between atoms: C_10  and  C_26
    4  A    between atoms: N_12  and  C_14
    5  A    between atoms: C_14  and  C_24
    6  A    between atoms: C_16  and  C_30
    7  A    between atoms: C_23  and  O_47
    8  A    between atoms: C_27  and  C_45
    9  A    between atoms: C_31  and  C_46
   10  A    between atoms: C_34  and  N_52
   11  A    between atoms: C_39  and  C_45
   12  A    between atoms: C_39  and  C_46
   13  A    between atoms: O_47  and  C_48
                            x       y       z     vdW  Elec       q    Type
                         _______ _______ _______ _____ _____    ______ ____

>  <TORSDO>
F 13

$$$$
=
 OpenBabel11072409203D

 58 67  0  0  1  0  0  0  0  0999 V2000
  194.1170  173.7110  141.5020 C   0  0  1  0  0  3  0  0  0  0  0  0
  195.3390  174.3060  140.9360 N   0  0  0  0  0  0  0  0  0  0  0  0
  195.5580  171.8690  140.8610 C   0  0  0  0  0  2  0  0  0  0  0  0
  193.3960  172.8990  140.4390 C   0  0  0  0  0  2  0  0  0  0  0  0
  194.2800  171.7230  140.0540 C   0  0  1  0  0  0  0  0  0  0  0  0
  195.4140  173.0880  141.7590 C   0  0  2  0  0  3  0  0  0  0  0  0
  195.7090  175.4100  141.8020 C   0  0  0  0  0  2  0  0  0  0  0  0
  197.5530  176.3130  143.1220 N   0  0  0  0  0  2  0  0  0  0  0  0
  197.0460  175.0960  142.4700 C   0  0  1  0  0  3  0  0  0  0  0  0
  197.0800  175.1880  143.9500 C   0  0  2  0  0  3  0  0  0  0  0  0
  195.7730  175.5220  144.6240 C   0  0  0  0  0  0  0  0  0  0  0  0
  194.9970  174.4900  145.1660 C   0  0  0  0  0  3  0  0  0  0  0  0
  194.1710  177.1420  145.4580 C   0  0  0  0  0  3  0  0  0  0  0  0
  193.8080  174.7820  145.8410 C   0  0  0  0  0  3  0  0  0  0  0  0
  193.3820  176.1070  145.9840 C   0  0  0  0  0  0  0  0  0  0  0  0
  195.3610  176.8530  144.7870 C   0  0  0  0  0  3  0  0  0  0  0  0
  190.7460  176.8760  144.8490 N   0  0  0  0  0  0  0  0  0  0  0  0
  190.9090  176.7940  146.1350 C   0  0  0  0  0  0  0  0  0  0  0  0
  189.5060  177.2860  144.2780 C   0  0  0  0  0  0  0  0  0  0  0  0
  185.1570  178.3740  147.6510 O   0  0  0  0  0  0  0  0  0  0  0  0
  186.0370  178.0850  146.7970 C   0  0  0  0  0  0  0  0  0  0  0  0
  188.3960  177.5730  145.1250 N   0  0  0  0  0  0  0  0  0  0  0  0
  188.4930  177.5040  146.4210 C   0  0  0  0  0  0  0  0  0  0  0  0
  189.3860  177.3800  143.0300 O   0  0  0  0  0  0  0  0  0  0  0  0
  192.1610  176.3660  146.6910 N   0  0  0  0  0  2  0  0  0  0  0  0
  189.7950  177.1460  147.0910 C   0  0  0  0  0  2  0  0  0  0  0  0
  187.3660  177.8040  147.2520 N   0  0  0  0  0  2  0  0  0  0  0  0
  185.7390  178.0450  145.4210 O   0  0  0  0  0  0  0  0  0  0  0  0
  185.7930  178.8760  143.0700 C   0  0  0  0  0  2  0  0  0  0  0  0
  185.4460  179.1330  144.5280 C   0  0  0  0  0  3  0  0  0  0  0  0
  184.3580  178.7370  143.5440 C   0  0  0  0  0  2  0  0  0  0  0  0
  194.6590  171.8200  138.5700 C   0  0  0  0  0  2  0  0  0  0  0  0
  192.3280  170.8200  136.8930 O   0  0  0  0  0  0  0  0  0  0  0  0
  191.1800  170.7560  136.0330 C   0  0  0  0  0  2  0  0  0  0  0  0
  192.7020  172.1450  137.0120 C   0  0  0  0  0  0  0  0  0  0  0  0
  193.9210  174.0920  137.7170 C   0  0  0  0  0  3  0  0  0  0  0  0
  191.8720  172.9190  136.2700 C   0  0  0  0  0  0  0  0  0  0  0  0
  193.0540  174.8940  136.9450 C   0  0  0  0  0  3  0  0  0  0  0  0
  193.7510  172.6940  137.7580 C   0  0  0  0  0  0  0  0  0  0  0  0
  192.0090  174.3050  136.2040 C   0  0  0  0  0  3  0  0  0  0  0  0
  190.9340  172.1180  135.6500 O   0  0  0  0  0  0  0  0  0  0  0  0
  193.5950  170.3760  140.3530 C   0  0  0  0  0  2  0  0  0  0  0  0
  191.2740  170.3110  139.7920 O   0  0  0  0  0  0  0  0  0  0  0  0
  191.7180  170.7310  142.0500 N   0  0  0  0  0  0  0  0  0  0  0  0
  192.1350  170.4790  140.6990 C   0  0  0  0  0  0  0  0  0  0  0  0
  192.6820  170.6610  143.1370 C   0  0  0  0  0  1  0  0  0  0  0  0
  190.2960  170.7830  142.3850 C   0  0  0  0  0  2  0  0  0  0  0  0
  190.5040  173.1430  141.4600 C   0  0  2  0  0  3  0  0  0  0  0  0
  189.7260  172.2210  142.3910 C   0  0  2  0  0  3  0  0  0  0  0  0
  191.1790  174.1580  142.3750 C   0  0  0  0  0  2  0  0  0  0  0  0
  189.6700  172.8830  143.7060 N   0  0  0  0  0  0  0  0  0  0  0  0
  190.8700  173.6980  143.7860 C   0  0  0  0  0  2  0  0  0  0  0  0
  189.6460  171.9580  144.8360 C   0  0  0  0  0  1  0  0  0  0  0  0
  190.2400  174.1600  139.2370 O   0  0  0  0  0  0  0  0  0  0  0  0
  189.2830  173.1230  139.1160 C   0  0  1  0  0  3  0  0  0  0  0  0
  189.5740  173.7800  140.4170 C   0  0  1  0  0  0  0  0  0  0  0  0
  188.6960  174.7770  140.8500 O   0  0  0  0  0  1  0  0  0  0  0  0
  188.1120  173.6350  138.5430 O   0  0  0  0  0  1  0  0  0  0  0  0
  1  4  1  6  0  0  0
  1  6  1  0  0  0  0
  2  1  1  0  0  0  0
  2  6  1  0  0  0  0
  2  7  1  0  0  0  0
  5 32  1  6  0  0  0
  5 42  1  0  0  0  0
  5  4  1  0  0  0  0
  5  3  1  0  0  0  0
  6  3  1  6  0  0  0
  8 10  1  0  0  0  0
  9  7  1  6  0  0  0
  9  8  1  0  0  0  0
  9 10  1  0  0  0  0
 10 11  1  6  0  0  0
 11 16  2  0  0  0  0
 11 12  1  0  0  0  0
 12 14  2  0  0  0  0
 13 15  2  0  0  0  0
 14 15  1  0  0  0  0
 15 25  1  0  0  0  0
 16 13  1  0  0  0  0
 17 18  2  0  0  0  0
 18 25  1  0  0  0  0
 18 26  1  0  0  0  0
 19 17  1  0  0  0  0
 19 22  1  0  0  0  0
 21 27  1  0  0  0  0
 21 20  2  0  0  0  0
 22 23  2  0  0  0  0
 23 26  1  0  0  0  0
 23 27  1  0  0  0  0
 24 19  2  0  0  0  0
 28 21  1  0  0  0  0
 29 31  1  0  0  0  0
 29 30  1  0  0  0  0
 30 28  1  0  0  0  0
 31 30  1  0  0  0  0
 33 35  1  0  0  0  0
 34 33  1  0  0  0  0
 35 39  1  0  0  0  0
 36 39  2  0  0  0  0
 37 35  2  0  0  0  0
 38 36  1  0  0  0  0
 39 32  1  0  0  0  0
 40 37  1  0  0  0  0
 40 38  2  0  0  0  0
 41 34  1  0  0  0  0
 41 37  1  0  0  0  0
 42 45  1  0  0  0  0
 43 45  2  0  0  0  0
 44 47  1  0  0  0  0
 44 46  1  0  0  0  0
 45 44  1  0  0  0  0
 48 50  1  1  0  0  0
 48 49  1  0  0  0  0
 49 47  1  1  0  0  0
 49 51  1  0  0  0  0
 50 52  1  0  0  0  0
 51 52  1  0  0  0  0
 51 53  1  0  0  0  0
 54 56  1  0  0  0  0
 55 58  1  6  0  0  0
 55 54  1  0  0  0  0
 55 56  1  0  0  0  0
 56 57  1  1  0  0  0
 56 48  1  0  0  0  0
M  END
>  <MODEL>
5

>  <REMARK>
 VINA RESULT:      -6.5      2.234      3.639
  Name = 
  13 active torsions:
  status: ('A' for Active; 'I' for Inactive)
    1  A    between atoms: C_4  and  C_40
    2  A    between atoms: C_10  and  N_25
    3  A    between atoms: C_10  and  C_26
    4  A    between atoms: N_12  and  C_14
    5  A    between atoms: C_14  and  C_24
    6  A    between atoms: C_16  and  C_30
    7  A    between atoms: C_23  and  O_47
    8  A    between atoms: C_27  and  C_45
    9  A    between atoms: C_31  and  C_46
   10  A    between atoms: C_34  and  N_52
   11  A    between atoms: C_39  and  C_45
   12  A    between atoms: C_39  and  C_46
   13  A    between atoms: O_47  and  C_48
                            x       y       z     vdW  Elec       q    Type
                         _______ _______ _______ _____ _____    ______ ____

>  <TORSDO>
F 13

$$$$
=
 OpenBabel11072409203D

 58 67  0  0  1  0  0  0  0  0999 V2000
  193.9520  172.8460  140.8150 C   0  0  1  0  0  3  0  0  0  0  0  0
  195.3580  172.5870  141.1690 N   0  0  0  0  0  0  0  0  0  0  0  0
  194.4980  170.6500  139.9440 C   0  0  0  0  0  2  0  0  0  0  0  0
  193.8000  172.8900  139.3030 C   0  0  0  0  0  2  0  0  0  0  0  0
  194.1090  171.5070  138.7520 C   0  0  1  0  0  0  0  0  0  0  0  0
  194.3670  171.4990  141.1990 C   0  0  2  0  0  3  0  0  0  0  0  0
  195.5310  173.0210  142.5440 C   0  0  0  0  0  2  0  0  0  0  0  0
  196.8430  175.0380  142.1340 N   0  0  0  0  0  2  0  0  0  0  0  0
  196.9020  173.6780  142.6910 C   0  0  1  0  0  3  0  0  0  0  0  0
  196.9730  174.8550  143.5910 C   0  0  2  0  0  3  0  0  0  0  0  0
  195.6960  175.2260  144.3010 C   0  0  0  0  0  0  0  0  0  0  0  0
  195.3160  174.5160  145.4470 C   0  0  0  0  0  3  0  0  0  0  0  0
  193.7710  176.6760  144.5830 C   0  0  0  0  0  3  0  0  0  0  0  0
  194.1630  174.8770  146.1500 C   0  0  0  0  0  3  0  0  0  0  0  0
  193.3780  175.9520  145.7190 C   0  0  0  0  0  0  0  0  0  0  0  0
  194.9240  176.3190  143.8810 C   0  0  0  0  0  3  0  0  0  0  0  0
  190.6640  176.5790  144.6870 N   0  0  0  0  0  0  0  0  0  0  0  0
  190.9170  176.6550  145.9590 C   0  0  0  0  0  0  0  0  0  0  0  0
  189.3830  176.9180  144.1590 C   0  0  0  0  0  0  0  0  0  0  0  0
  185.2740  178.4160  147.6720 O   0  0  0  0  0  0  0  0  0  0  0  0
  186.0940  178.0240  146.7990 C   0  0  0  0  0  0  0  0  0  0  0  0
  188.3340  177.3080  145.0410 N   0  0  0  0  0  0  0  0  0  0  0  0
  188.5210  177.3970  146.3250 C   0  0  0  0  0  0  0  0  0  0  0  0
  189.1760  176.8590  142.9200 O   0  0  0  0  0  0  0  0  0  0  0  0
  192.2080  176.2960  146.4740 N   0  0  0  0  0  2  0  0  0  0  0  0
  189.8700  177.1230  146.9410 C   0  0  0  0  0  2  0  0  0  0  0  0
  187.4540  177.7980  147.1910 N   0  0  0  0  0  2  0  0  0  0  0  0
  185.7010  177.8160  145.4630 O   0  0  0  0  0  0  0  0  0  0  0  0
  184.7570  179.4330  143.8160 C   0  0  0  0  0  2  0  0  0  0  0  0
  184.5230  178.2850  144.7850 C   0  0  0  0  0  3  0  0  0  0  0  0
  184.6240  178.0150  143.2930 C   0  0  0  0  0  2  0  0  0  0  0  0
  195.3260  171.5790  137.8190 C   0  0  0  0  0  2  0  0  0  0  0  0
  197.2020  173.8250  138.6450 O   0  0  0  0  0  0  0  0  0  0  0  0
  197.9330  175.0590  138.6910 C   0  0  0  0  0  2  0  0  0  0  0  0
  196.3600  173.8630  137.5500 C   0  0  0  0  0  0  0  0  0  0  0  0
  194.7220  173.1670  135.9360 C   0  0  0  0  0  3  0  0  0  0  0  0
  196.5050  175.0500  136.9100 C   0  0  0  0  0  0  0  0  0  0  0  0
  194.8760  174.4030  135.2720 C   0  0  0  0  0  3  0  0  0  0  0  0
  195.4720  172.8840  137.0950 C   0  0  0  0  0  0  0  0  0  0  0  0
  195.7800  175.3670  135.7610 C   0  0  0  0  0  3  0  0  0  0  0  0
  197.4450  175.8140  137.5700 O   0  0  0  0  0  0  0  0  0  0  0  0
  192.8970  170.9050  138.0170 C   0  0  0  0  0  2  0  0  0  0  0  0
  191.2290  172.5270  137.4740 O   0  0  0  0  0  0  0  0  0  0  0  0
  190.7590  171.2440  139.3730 N   0  0  0  0  0  0  0  0  0  0  0  0
  191.5950  171.6160  138.2670 C   0  0  0  0  0  0  0  0  0  0  0  0
  191.0390  170.0320  140.1270 C   0  0  0  0  0  1  0  0  0  0  0  0
  189.4730  171.9090  139.5820 C   0  0  0  0  0  2  0  0  0  0  0  0
  189.3190  172.7740  141.9690 C   0  0  2  0  0  3  0  0  0  0  0  0
  189.5710  173.1420  140.5120 C   0  0  2  0  0  3  0  0  0  0  0  0
  188.0180  173.4750  142.3390 C   0  0  0  0  0  2  0  0  0  0  0  0
  188.6710  174.2630  140.1880 N   0  0  0  0  0  0  0  0  0  0  0  0
  187.5160  174.0990  141.0510 C   0  0  0  0  0  2  0  0  0  0  0  0
  188.2280  174.2850  138.7960 C   0  0  0  0  0  1  0  0  0  0  0  0
  190.1730  173.3090  144.2120 O   0  0  0  0  0  0  0  0  0  0  0  0
  191.0770  172.2720  143.8780 C   0  0  1  0  0  3  0  0  0  0  0  0
  190.5080  173.1830  142.8510 C   0  0  1  0  0  0  0  0  0  0  0  0
  191.3020  174.2490  142.4200 O   0  0  0  0  0  1  0  0  0  0  0  0
  192.3780  172.6560  144.2290 O   0  0  0  0  0  1  0  0  0  0  0  0
  1  4  1  6  0  0  0
  1  2  1  0  0  0  0
  1  6  1  0  0  0  0
  2  6  1  0  0  0  0
  2  7  1  0  0  0  0
  5 32  1  6  0  0  0
  5  4  1  0  0  0  0
  5  3  1  0  0  0  0
  6  3  1  6  0  0  0
  8  9  1  0  0  0  0
  8 10  1  0  0  0  0
  9  7  1  1  0  0  0
  9 10  1  0  0  0  0
 10 11  1  1  0  0  0
 11 12  1  0  0  0  0
 12 14  2  0  0  0  0
 13 15  2  0  0  0  0
 15 14  1  0  0  0  0
 15 25  1  0  0  0  0
 16 11  2  0  0  0  0
 16 13  1  0  0  0  0
 17 18  2  0  0  0  0
 18 25  1  0  0  0  0
 18 26  1  0  0  0  0
 19 17  1  0  0  0  0
 19 22  1  0  0  0  0
 21 27  1  0  0  0  0
 21 20  2  0  0  0  0
 22 23  2  0  0  0  0
 23 26  1  0  0  0  0
 23 27  1  0  0  0  0
 24 19  2  0  0  0  0
 28 21  1  0  0  0  0
 29 30  1  0  0  0  0
 30 28  1  0  0  0  0
 31 29  1  0  0  0  0
 31 30  1  0  0  0  0
 33 34  1  0  0  0  0
 35 33  1  0  0  0  0
 36 39  2  0  0  0  0
 37 35  2  0  0  0  0
 37 41  1  0  0  0  0
 38 40  2  0  0  0  0
 38 36  1  0  0  0  0
 39 35  1  0  0  0  0
 39 32  1  0  0  0  0
 40 37  1  0  0  0  0
 41 34  1  0  0  0  0
 42 45  1  0  0  0  0
 42  5  1  0  0  0  0
 43 45  2  0  0  0  0
 44 47  1  0  0  0  0
 44 46  1  0  0  0  0
 45 44  1  0  0  0  0
 48 50  1  1  0  0  0
 48 56  1  0  0  0  0
 49 47  1  6  0  0  0
 49 48  1  0  0  0  0
 51 49  1  0  0  0  0
 51 52  1  0  0  0  0
 52 50  1  0  0  0  0
 53 51  1  0  0  0  0
 55 54  1  0  0  0  0
 55 58  1  1  0  0  0
 56 57  1  6  0  0  0
 56 55  1  0  0  0  0
 56 54  1  0  0  0  0
M  END
>  <MODEL>
6

>  <REMARK>
 VINA RESULT:      -6.4      1.586      2.607
  Name = 
  13 active torsions:
  status: ('A' for Active; 'I' for Inactive)
    1  A    between atoms: C_4  and  C_40
    2  A    between atoms: C_10  and  N_25
    3  A    between atoms: C_10  and  C_26
    4  A    between atoms: N_12  and  C_14
    5  A    between atoms: C_14  and  C_24
    6  A    between atoms: C_16  and  C_30
    7  A    between atoms: C_23  and  O_47
    8  A    between atoms: C_27  and  C_45
    9  A    between atoms: C_31  and  C_46
   10  A    between atoms: C_34  and  N_52
   11  A    between atoms: C_39  and  C_45
   12  A    between atoms: C_39  and  C_46
   13  A    between atoms: O_47  and  C_48
                            x       y       z     vdW  Elec       q    Type
                         _______ _______ _______ _____ _____    ______ ____

>  <TORSDO>
F 13

$$$$
=
 OpenBabel11072409203D

 58 67  0  0  1  0  0  0  0  0999 V2000
  193.5320  173.6200  140.1560 C   0  0  1  0  0  3  0  0  0  0  0  0
  193.6900  172.8520  138.9090 N   0  0  0  0  0  0  0  0  0  0  0  0
  194.8150  175.0090  138.6380 C   0  0  0  0  0  2  0  0  0  0  0  0
  194.8920  173.8700  140.7850 C   0  0  0  0  0  2  0  0  0  0  0  0
  195.6920  174.7680  139.8540 C   0  0  1  0  0  0  0  0  0  0  0  0
  193.4850  174.3090  138.8680 C   0  0  2  0  0  3  0  0  0  0  0  0
  192.4020  172.2480  138.6220 C   0  0  0  0  0  2  0  0  0  0  0  0
  193.6420  170.2760  139.3520 N   0  0  0  0  0  2  0  0  0  0  0  0
  192.5840  170.7420  138.4420 C   0  0  1  0  0  3  0  0  0  0  0  0
  192.2410  169.8940  139.6090 C   0  0  2  0  0  3  0  0  0  0  0  0
  191.6940  170.6150  140.8150 C   0  0  0  0  0  0  0  0  0  0  0  0
  192.5080  170.7870  141.9400 C   0  0  0  0  0  3  0  0  0  0  0  0
  189.9430  171.8890  141.9100 C   0  0  0  0  0  3  0  0  0  0  0  0
  192.0390  171.4970  143.0490 C   0  0  0  0  0  3  0  0  0  0  0  0
  190.7510  172.0440  143.0460 C   0  0  0  0  0  0  0  0  0  0  0  0
  190.4110  171.1830  140.8000 C   0  0  0  0  0  3  0  0  0  0  0  0
  189.2080  174.5810  143.1160 N   0  0  0  0  0  0  0  0  0  0  0  0
  189.6160  174.0300  144.2200 C   0  0  0  0  0  0  0  0  0  0  0  0
  188.5040  175.8220  143.1170 C   0  0  0  0  0  0  0  0  0  0  0  0
  187.2840  178.2830  148.0090 O   0  0  0  0  0  0  0  0  0  0  0  0
  187.4360  177.7880  146.8600 C   0  0  0  0  0  0  0  0  0  0  0  0
  188.1960  176.4610  144.3540 N   0  0  0  0  0  0  0  0  0  0  0  0
  188.5710  175.9570  145.4930 C   0  0  0  0  0  0  0  0  0  0  0  0
  188.1440  176.3440  142.0310 O   0  0  0  0  0  0  0  0  0  0  0  0
  190.3100  172.7740  144.2000 N   0  0  0  0  0  2  0  0  0  0  0  0
  189.3790  174.6860  145.5590 C   0  0  0  0  0  2  0  0  0  0  0  0
  188.2560  176.6200  146.7220 N   0  0  0  0  0  2  0  0  0  0  0  0
  186.8290  178.3620  145.7270 O   0  0  0  0  0  0  0  0  0  0  0  0
  185.2590  179.6390  144.2690 C   0  0  0  0  0  2  0  0  0  0  0  0
  185.5340  178.9760  145.6100 C   0  0  0  0  0  3  0  0  0  0  0  0
  184.6970  178.2600  144.5640 C   0  0  0  0  0  2  0  0  0  0  0  0
  196.9510  174.0310  139.3760 C   0  0  0  0  0  2  0  0  0  0  0  0
  196.3970  171.8040  137.3800 O   0  0  0  0  0  0  0  0  0  0  0  0
  196.2680  171.0420  136.1700 C   0  0  0  0  0  2  0  0  0  0  0  0
  196.9140  173.0430  137.0550 C   0  0  0  0  0  0  0  0  0  0  0  0
  197.7180  175.2930  137.3140 C   0  0  0  0  0  3  0  0  0  0  0  0
  197.1310  173.1070  135.7180 C   0  0  0  0  0  0  0  0  0  0  0  0
  197.9410  175.3550  135.9220 C   0  0  0  0  0  3  0  0  0  0  0  0
  197.1960  174.1220  137.8990 C   0  0  0  0  0  0  0  0  0  0  0  0
  197.6460  174.2470  135.1020 C   0  0  0  0  0  3  0  0  0  0  0  0
  196.7600  171.9110  135.1380 O   0  0  0  0  0  0  0  0  0  0  0  0
  196.0670  176.0990  140.5310 C   0  0  0  0  0  2  0  0  0  0  0  0
  194.0820  176.4500  141.8130 O   0  0  0  0  0  0  0  0  0  0  0  0
  196.0650  176.5100  143.0530 N   0  0  0  0  0  0  0  0  0  0  0  0
  195.3410  176.3720  141.8200 C   0  0  0  0  0  0  0  0  0  0  0  0
  197.4760  176.1620  143.1160 C   0  0  0  0  0  1  0  0  0  0  0  0
  195.3480  176.7300  144.3080 C   0  0  0  0  0  2  0  0  0  0  0  0
  194.9870  174.2200  144.5090 C   0  0  2  0  0  3  0  0  0  0  0  0
  195.3720  175.4980  145.2440 C   0  0  2  0  0  3  0  0  0  0  0  0
  193.6640  173.7860  145.1260 C   0  0  0  0  0  2  0  0  0  0  0  0
  194.5120  175.5840  146.4390 N   0  0  0  0  0  0  0  0  0  0  0  0
  193.2830  174.8960  146.0860 C   0  0  0  0  0  2  0  0  0  0  0  0
  194.1940  176.9500  146.8450 C   0  0  0  0  0  1  0  0  0  0  0  0
  195.6240  171.9080  145.0550 O   0  0  0  0  0  0  0  0  0  0  0  0
  196.1520  171.9740  143.7430 C   0  0  1  0  0  3  0  0  0  0  0  0
  196.0960  173.1640  144.6320 C   0  0  1  0  0  0  0  0  0  0  0  0
  197.2660  173.5230  145.3070 O   0  0  0  0  0  1  0  0  0  0  0  0
  197.4360  171.4130  143.7290 O   0  0  0  0  0  1  0  0  0  0  0  0
  1  4  1  1  0  0  0
  2  1  1  0  0  0  0
  3  5  1  0  0  0  0
  5 32  1  6  0  0  0
  5 42  1  0  0  0  0
  5  4  1  0  0  0  0
  6  3  1  1  0  0  0
  6  2  1  0  0  0  0
  6  1  1  0  0  0  0
  7  2  1  0  0  0  0
  8 10  1  0  0  0  0
  9  7  1  1  0  0  0
  9  8  1  0  0  0  0
  9 10  1  0  0  0  0
 10 11  1  1  0  0  0
 11 12  1  0  0  0  0
 12 14  2  0  0  0  0
 13 15  2  0  0  0  0
 15 14  1  0  0  0  0
 15 25  1  0  0  0  0
 16 11  2  0  0  0  0
 16 13  1  0  0  0  0
 17 19  1  0  0  0  0
 17 18  2  0  0  0  0
 18 26  1  0  0  0  0
 19 22  1  0  0  0  0
 21 20  2  0  0  0  0
 22 23  2  0  0  0  0
 23 26  1  0  0  0  0
 23 27  1  0  0  0  0
 24 19  2  0  0  0  0
 25 18  1  0  0  0  0
 27 21  1  0  0  0  0
 28 21  1  0  0  0  0
 29 31  1  0  0  0  0
 29 30  1  0  0  0  0
 30 28  1  0  0  0  0
 31 30  1  0  0  0  0
 34 33  1  0  0  0  0
 35 33  1  0  0  0  0
 35 39  1  0  0  0  0
 36 39  2  0  0  0  0
 37 35  2  0  0  0  0
 38 36  1  0  0  0  0
 39 32  1  0  0  0  0
 40 37  1  0  0  0  0
 40 38  2  0  0  0  0
 41 37  1  0  0  0  0
 41 34  1  0  0  0  0
 42 45  1  0  0  0  0
 43 45  2  0  0  0  0
 44 46  1  0  0  0  0
 44 47  1  0  0  0  0
 45 44  1  0  0  0  0
 48 56  1  0  0  0  0
 48 50  1  1  0  0  0
 48 49  1  0  0  0  0
 49 47  1  6  0  0  0
 49 51  1  0  0  0  0
 50 52  1  0  0  0  0
 51 53  1  0  0  0  0
 52 51  1  0  0  0  0
 55 58  1  1  0  0  0
 55 56  1  0  0  0  0
 55 54  1  0  0  0  0
 56 54  1  0  0  0  0
 56 57  1  1  0  0  0
M  END
>  <MODEL>
7

>  <REMARK>
 VINA RESULT:      -6.4      2.398      5.655
  Name = 
  13 active torsions:
  status: ('A' for Active; 'I' for Inactive)
    1  A    between atoms: C_4  and  C_40
    2  A    between atoms: C_10  and  N_25
    3  A    between atoms: C_10  and  C_26
    4  A    between atoms: N_12  and  C_14
    5  A    between atoms: C_14  and  C_24
    6  A    between atoms: C_16  and  C_30
    7  A    between atoms: C_23  and  O_47
    8  A    between atoms: C_27  and  C_45
    9  A    between atoms: C_31  and  C_46
   10  A    between atoms: C_34  and  N_52
   11  A    between atoms: C_39  and  C_45
   12  A    between atoms: C_39  and  C_46
   13  A    between atoms: O_47  and  C_48
                            x       y       z     vdW  Elec       q    Type
                         _______ _______ _______ _____ _____    ______ ____

>  <TORSDO>
F 13

$$$$
=
 OpenBabel11072409203D

 58 67  0  0  1  0  0  0  0  0999 V2000
  191.6780  174.1240  138.1380 C   0  0  1  0  0  3  0  0  0  0  0  0
  192.1610  173.7610  136.7950 N   0  0  0  0  0  0  0  0  0  0  0  0
  194.0440  173.6400  138.3540 C   0  0  0  0  0  2  0  0  0  0  0  0
  191.8300  172.9420  139.0800 C   0  0  0  0  0  2  0  0  0  0  0  0
  193.3140  172.6520  139.2460 C   0  0  1  0  0  0  0  0  0  0  0  0
  193.0090  174.5470  137.7060 C   0  0  2  0  0  3  0  0  0  0  0  0
  191.5700  174.7080  135.8660 C   0  0  0  0  0  2  0  0  0  0  0  0
  190.2400  172.7930  135.1440 N   0  0  0  0  0  2  0  0  0  0  0  0
  191.0140  173.9480  134.6630 C   0  0  1  0  0  3  0  0  0  0  0  0
  189.5380  173.9310  134.5220 C   0  0  2  0  0  3  0  0  0  0  0  0
  188.7630  174.7170  135.5500 C   0  0  0  0  0  0  0  0  0  0  0  0
  188.2550  175.9770  135.2100 C   0  0  0  0  0  3  0  0  0  0  0  0
  187.7160  174.9030  137.7310 C   0  0  0  0  0  3  0  0  0  0  0  0
  187.4910  176.7010  136.1300 C   0  0  0  0  0  3  0  0  0  0  0  0
  187.2240  176.1740  137.3980 C   0  0  0  0  0  0  0  0  0  0  0  0
  188.4760  174.1760  136.8120 C   0  0  0  0  0  3  0  0  0  0  0  0
  187.4450  176.2910  140.3580 N   0  0  0  0  0  0  0  0  0  0  0  0
  186.5060  176.9460  139.7440 C   0  0  0  0  0  0  0  0  0  0  0  0
  187.5470  176.2930  141.7810 C   0  0  0  0  0  0  0  0  0  0  0  0
  183.9420  179.3630  144.7900 O   0  0  0  0  0  0  0  0  0  0  0  0
  184.8480  178.7000  144.2170 C   0  0  0  0  0  0  0  0  0  0  0  0
  186.6320  177.0630  142.5560 N   0  0  0  0  0  0  0  0  0  0  0  0
  185.6740  177.7450  142.0000 C   0  0  0  0  0  0  0  0  0  0  0  0
  188.4520  175.6290  142.3490 O   0  0  0  0  0  0  0  0  0  0  0  0
  186.4270  176.9430  138.3100 N   0  0  0  0  0  2  0  0  0  0  0  0
  185.4650  177.7290  140.5070 C   0  0  0  0  0  2  0  0  0  0  0  0
  184.7610  178.5050  142.8000 N   0  0  0  0  0  2  0  0  0  0  0  0
  185.9240  178.1490  144.9410 O   0  0  0  0  0  0  0  0  0  0  0  0
  187.2710  176.5760  146.3300 C   0  0  0  0  0  2  0  0  0  0  0  0
  185.9040  177.1180  145.9420 C   0  0  0  0  0  3  0  0  0  0  0  0
  186.5810  177.5980  147.2150 C   0  0  0  0  0  2  0  0  0  0  0  0
  193.6300  171.2420  138.7270 C   0  0  0  0  0  2  0  0  0  0  0  0
  192.2500  169.7550  140.9920 O   0  0  0  0  0  0  0  0  0  0  0  0
  191.3450  168.9390  141.7510 C   0  0  0  0  0  2  0  0  0  0  0  0
  191.8600  169.7120  139.6670 C   0  0  0  0  0  0  0  0  0  0  0  0
  191.8320  170.1560  137.3060 C   0  0  0  0  0  3  0  0  0  0  0  0
  190.7740  168.9090  139.5410 C   0  0  0  0  0  0  0  0  0  0  0  0
  190.7020  169.3200  137.1790 C   0  0  0  0  0  3  0  0  0  0  0  0
  192.4280  170.3610  138.5670 C   0  0  0  0  0  0  0  0  0  0  0  0
  190.1570  168.6810  138.3110 C   0  0  0  0  0  3  0  0  0  0  0  0
  190.4280  168.4100  140.7810 O   0  0  0  0  0  0  0  0  0  0  0  0
  193.7610  172.8040  140.7120 C   0  0  0  0  0  2  0  0  0  0  0  0
  191.8890  172.9100  142.1920 O   0  0  0  0  0  0  0  0  0  0  0  0
  192.9130  174.9700  141.7680 N   0  0  0  0  0  0  0  0  0  0  0  0
  192.7930  173.5510  141.5890 C   0  0  0  0  0  0  0  0  0  0  0  0
  194.0970  175.6700  141.2960 C   0  0  0  0  0  1  0  0  0  0  0  0
  191.9960  175.6810  142.6580 C   0  0  0  0  0  2  0  0  0  0  0  0
  193.3210  175.2070  144.7770 C   0  0  2  0  0  3  0  0  0  0  0  0
  192.6990  176.2840  143.8970 C   0  0  2  0  0  3  0  0  0  0  0  0
  192.5300  175.2460  146.0780 C   0  0  0  0  0  2  0  0  0  0  0  0
  191.8540  177.1190  144.7700 N   0  0  0  0  0  0  0  0  0  0  0  0
  191.4120  176.2430  145.8410 C   0  0  0  0  0  2  0  0  0  0  0  0
  190.6840  177.6830  144.1020 C   0  0  0  0  0  1  0  0  0  0  0  0
  195.3610  174.7930  146.0860 O   0  0  0  0  0  0  0  0  0  0  0  0
  195.8270  174.3670  144.8190 C   0  0  1  0  0  3  0  0  0  0  0  0
  194.8250  175.4550  144.9660 C   0  0  1  0  0  0  0  0  0  0  0  0
  195.2830  176.7730  144.8850 O   0  0  0  0  0  1  0  0  0  0  0  0
  197.1080  174.8880  144.5940 O   0  0  0  0  0  1  0  0  0  0  0  0
  1  4  1  1  0  0  0
  2  6  1  0  0  0  0
  2  1  1  0  0  0  0
  3  5  1  0  0  0  0
  4  5  1  0  0  0  0
  5 32  1  6  0  0  0
  5 42  1  0  0  0  0
  6  1  1  0  0  0  0
  6  3  1  1  0  0  0
  7  2  1  0  0  0  0
  9  8  1  0  0  0  0
  9  7  1  1  0  0  0
 10  9  1  0  0  0  0
 10  8  1  0  0  0  0
 10 11  1  1  0  0  0
 11 16  1  0  0  0  0
 12 11  2  0  0  0  0
 12 14  1  0  0  0  0
 14 15  2  0  0  0  0
 15 13  1  0  0  0  0
 15 25  1  0  0  0  0
 16 13  2  0  0  0  0
 17 19  1  0  0  0  0
 18 17  2  0  0  0  0
 18 26  1  0  0  0  0
 19 24  2  0  0  0  0
 19 22  1  0  0  0  0
 21 20  2  0  0  0  0
 21 28  1  0  0  0  0
 23 22  2  0  0  0  0
 23 27  1  0  0  0  0
 25 18  1  0  0  0  0
 26 23  1  0  0  0  0
 27 21  1  0  0  0  0
 28 30  1  0  0  0  0
 29 31  1  0  0  0  0
 30 29  1  0  0  0  0
 30 31  1  0  0  0  0
 33 34  1  0  0  0  0
 35 33  1  0  0  0  0
 36 39  1  0  0  0  0
 37 35  1  0  0  0  0
 37 41  1  0  0  0  0
 38 36  2  0  0  0  0
 38 40  1  0  0  0  0
 39 32  1  0  0  0  0
 39 35  2  0  0  0  0
 40 37  2  0  0  0  0
 41 34  1  0  0  0  0
 42 45  1  0  0  0  0
 44 47  1  0  0  0  0
 45 44  1  0  0  0  0
 45 43  2  0  0  0  0
 46 44  1  0  0  0  0
 48 56  1  0  0  0  0
 48 50  1  1  0  0  0
 49 47  1  6  0  0  0
 49 51  1  0  0  0  0
 49 48  1  0  0  0  0
 51 52  1  0  0  0  0
 52 50  1  0  0  0  0
 53 51  1  0  0  0  0
 55 58  1  1  0  0  0
 55 56  1  0  0  0  0
 55 54  1  0  0  0  0
 56 57  1  6  0  0  0
 56 54  1  0  0  0  0
M  END
>  <MODEL>
8

>  <REMARK>
 VINA RESULT:      -6.3      2.846      7.067
  Name = 
  13 active torsions:
  status: ('A' for Active; 'I' for Inactive)
    1  A    between atoms: C_4  and  C_40
    2  A    between atoms: C_10  and  N_25
    3  A    between atoms: C_10  and  C_26
    4  A    between atoms: N_12  and  C_14
    5  A    between atoms: C_14  and  C_24
    6  A    between atoms: C_16  and  C_30
    7  A    between atoms: C_23  and  O_47
    8  A    between atoms: C_27  and  C_45
    9  A    between atoms: C_31  and  C_46
   10  A    between atoms: C_34  and  N_52
   11  A    between atoms: C_39  and  C_45
   12  A    between atoms: C_39  and  C_46
   13  A    between atoms: O_47  and  C_48
                            x       y       z     vdW  Elec       q    Type
                         _______ _______ _______ _____ _____    ______ ____

>  <TORSDO>
F 13

$$$$
=
 OpenBabel11072409203D

 58 67  0  0  1  0  0  0  0  0999 V2000
  193.5930  174.4530  138.2650 C   0  0  1  0  0  3  0  0  0  0  0  0
  193.5020  174.0390  136.8550 N   0  0  0  0  0  0  0  0  0  0  0  0
  195.5910  175.2770  137.1660 C   0  0  0  0  0  2  0  0  0  0  0  0
  194.7950  173.7950  138.9220 C   0  0  0  0  0  2  0  0  0  0  0  0
  196.0540  174.3310  138.2590 C   0  0  1  0  0  0  0  0  0  0  0  0
  194.0730  175.3470  137.2130 C   0  0  2  0  0  3  0  0  0  0  0  0
  192.1360  174.2890  136.4310 C   0  0  0  0  0  2  0  0  0  0  0  0
  192.1520  171.8660  136.1390 N   0  0  0  0  0  2  0  0  0  0  0  0
  191.6620  173.1270  135.5610 C   0  0  1  0  0  3  0  0  0  0  0  0
  190.7120  172.1780  136.1910 C   0  0  2  0  0  3  0  0  0  0  0  0
  190.2790  172.5090  137.5980 C   0  0  0  0  0  0  0  0  0  0  0  0
  190.9400  171.9130  138.6780 C   0  0  0  0  0  3  0  0  0  0  0  0
  188.9280  173.7890  139.1540 C   0  0  0  0  0  3  0  0  0  0  0  0
  190.5890  172.2440  139.9900 C   0  0  0  0  0  3  0  0  0  0  0  0
  189.5760  173.1760  140.2370 C   0  0  0  0  0  0  0  0  0  0  0  0
  189.2790  173.4620  137.8430 C   0  0  0  0  0  3  0  0  0  0  0  0
  188.5040  175.7340  141.3010 N   0  0  0  0  0  0  0  0  0  0  0  0
  188.7900  174.7570  142.1070 C   0  0  0  0  0  0  0  0  0  0  0  0
  188.0310  176.9890  141.7870 C   0  0  0  0  0  0  0  0  0  0  0  0
  187.1860  177.6570  147.2930 O   0  0  0  0  0  0  0  0  0  0  0  0
  187.2670  177.5990  146.0370 C   0  0  0  0  0  0  0  0  0  0  0  0
  187.8200  177.1730  143.1850 N   0  0  0  0  0  0  0  0  0  0  0  0
  188.0820  176.2310  144.0430 C   0  0  0  0  0  0  0  0  0  0  0  0
  187.7870  177.9250  140.9840 O   0  0  0  0  0  0  0  0  0  0  0  0
  189.2520  173.4970  141.5980 N   0  0  0  0  0  2  0  0  0  0  0  0
  188.6520  174.9060  143.6030 C   0  0  0  0  0  2  0  0  0  0  0  0
  187.8690  176.4410  145.4430 N   0  0  0  0  0  2  0  0  0  0  0  0
  186.7890  178.6430  145.2210 O   0  0  0  0  0  0  0  0  0  0  0  0
  184.8950  179.4630  143.8220 C   0  0  0  0  0  2  0  0  0  0  0  0
  185.4880  179.2530  145.2060 C   0  0  0  0  0  3  0  0  0  0  0  0
  184.4500  178.2830  144.6660 C   0  0  0  0  0  2  0  0  0  0  0  0
  196.8150  173.1820  137.5830 C   0  0  0  0  0  2  0  0  0  0  0  0
  195.6220  171.5550  135.3070 O   0  0  0  0  0  0  0  0  0  0  0  0
  194.9910  170.5170  134.5430 C   0  0  0  0  0  2  0  0  0  0  0  0
  195.6420  171.1620  136.6320 C   0  0  0  0  0  0  0  0  0  0  0  0
  196.0680  171.2130  138.9960 C   0  0  0  0  0  3  0  0  0  0  0  0
  195.0520  169.9470  136.7520 C   0  0  0  0  0  0  0  0  0  0  0  0
  195.4540  169.9480  139.1170 C   0  0  0  0  0  3  0  0  0  0  0  0
  196.1680  171.8380  137.7370 C   0  0  0  0  0  0  0  0  0  0  0  0
  194.9340  169.2970  137.9810 C   0  0  0  0  0  3  0  0  0  0  0  0
  194.6340  169.5170  135.5100 O   0  0  0  0  0  0  0  0  0  0  0  0
  196.9600  175.0620  139.2680 C   0  0  0  0  0  2  0  0  0  0  0  0
  197.4240  173.5520  141.0610 O   0  0  0  0  0  0  0  0  0  0  0  0
  196.0290  175.3420  141.6310 N   0  0  0  0  0  0  0  0  0  0  0  0
  196.8170  174.5950  140.6910 C   0  0  0  0  0  0  0  0  0  0  0  0
  195.5500  176.6720  141.2890 C   0  0  0  0  0  1  0  0  0  0  0  0
  195.9340  174.9070  143.0230 C   0  0  0  0  0  2  0  0  0  0  0  0
  193.8890  175.5170  144.4080 C   0  0  2  0  0  3  0  0  0  0  0  0
  194.4970  174.5110  143.4380 C   0  0  2  0  0  3  0  0  0  0  0  0
  193.7250  174.7600  145.7190 C   0  0  0  0  0  2  0  0  0  0  0  0
  194.3500  173.1780  144.0510 N   0  0  0  0  0  0  0  0  0  0  0  0
  194.3630  173.4040  145.4860 C   0  0  0  0  0  2  0  0  0  0  0  0
  195.4200  172.2450  143.7060 C   0  0  0  0  0  1  0  0  0  0  0  0
  191.5710  176.2160  144.8380 O   0  0  0  0  0  0  0  0  0  0  0  0
  192.0550  177.4150  144.2630 C   0  0  1  0  0  3  0  0  0  0  0  0
  192.5710  176.0820  143.8570 C   0  0  1  0  0  0  0  0  0  0  0  0
  192.0630  175.5210  142.6830 O   0  0  0  0  0  1  0  0  0  0  0  0
  191.1220  177.8990  143.3370 O   0  0  0  0  0  1  0  0  0  0  0  0
  1  4  1  1  0  0  0
  2  6  1  0  0  0  0
  2  1  1  0  0  0  0
  3  5  1  0  0  0  0
  5 32  1  6  0  0  0
  5  4  1  0  0  0  0
  5 42  1  0  0  0  0
  6  3  1  1  0  0  0
  6  1  1  0  0  0  0
  7  2  1  0  0  0  0
  8 10  1  0  0  0  0
  9  8  1  0  0  0  0
  9 10  1  0  0  0  0
  9  7  1  1  0  0  0
 10 11  1  1  0  0  0
 11 16  2  0  0  0  0
 11 12  1  0  0  0  0
 12 14  2  0  0  0  0
 13 15  2  0  0  0  0
 14 15  1  0  0  0  0
 15 25  1  0  0  0  0
 16 13  1  0  0  0  0
 17 19  1  0  0  0  0
 17 18  2  0  0  0  0
 18 26  1  0  0  0  0
 19 22  1  0  0  0  0
 21 20  2  0  0  0  0
 22 23  2  0  0  0  0
 23 27  1  0  0  0  0
 24 19  2  0  0  0  0
 25 18  1  0  0  0  0
 26 23  1  0  0  0  0
 27 21  1  0  0  0  0
 28 21  1  0  0  0  0
 29 31  1  0  0  0  0
 29 30  1  0  0  0  0
 30 28  1  0  0  0  0
 31 30  1  0  0  0  0
 32 39  1  0  0  0  0
 33 35  1  0  0  0  0
 34 33  1  0  0  0  0
 34 41  1  0  0  0  0
 35 37  2  0  0  0  0
 35 39  1  0  0  0  0
 36 38  1  0  0  0  0
 37 40  1  0  0  0  0
 39 36  2  0  0  0  0
 40 38  2  0  0  0  0
 41 37  1  0  0  0  0
 42 45  1  0  0  0  0
 44 47  1  0  0  0  0
 45 43  2  0  0  0  0
 45 44  1  0  0  0  0
 46 44  1  0  0  0  0
 48 50  1  1  0  0  0
 49 47  1  1  0  0  0
 49 51  1  0  0  0  0
 49 48  1  0  0  0  0
 51 52  1  0  0  0  0
 52 50  1  0  0  0  0
 53 51  1  0  0  0  0
 55 58  1  6  0  0  0
 55 54  1  0  0  0  0
 56 57  1  6  0  0  0
 56 55  1  0  0  0  0
 56 48  1  0  0  0  0
 56 54  1  0  0  0  0
M  END
>  <MODEL>
9

>  <REMARK>
 VINA RESULT:      -6.1      2.297      6.096
  Name = 
  13 active torsions:
  status: ('A' for Active; 'I' for Inactive)
    1  A    between atoms: C_4  and  C_40
    2  A    between atoms: C_10  and  N_25
    3  A    between atoms: C_10  and  C_26
    4  A    between atoms: N_12  and  C_14
    5  A    between atoms: C_14  and  C_24
    6  A    between atoms: C_16  and  C_30
    7  A    between atoms: C_23  and  O_47
    8  A    between atoms: C_27  and  C_45
    9  A    between atoms: C_31  and  C_46
   10  A    between atoms: C_34  and  N_52
   11  A    between atoms: C_39  and  C_45
   12  A    between atoms: C_39  and  C_46
   13  A    between atoms: O_47  and  C_48
                            x       y       z     vdW  Elec       q    Type
                         _______ _______ _______ _____ _____    ______ ____

>  <TORSDO>
F 13

$$$$
