=
 OpenBabel11072409113D

 65 68  0  0  1  0  0  0  0  0999 V2000
  188.5440  175.7700  141.7630 O   0  0  0  0  0  0  0  0  0  0  0  0
  189.6840  176.0720  143.8920 C   0  0  2  0  0  3  0  0  0  0  0  0
  191.0760  172.4740  142.3240 C   0  0  1  0  0  3  0  0  0  0  0  0
  189.0720  174.5820  141.2320 C   0  0  1  0  0  3  0  0  0  0  0  0
  189.2950  173.5260  143.5930 C   0  0  2  0  0  3  0  0  0  0  0  0
  190.7820  173.1960  143.6350 C   0  0  0  0  0  2  0  0  0  0  0  0
  188.7980  173.3620  142.1480 C   0  0  2  0  0  3  0  0  0  0  0  0
  189.7050  172.2170  141.6990 C   0  0  0  0  0  2  0  0  0  0  0  0
  189.6450  176.3610  142.3820 C   0  0  0  0  0  2  0  0  0  0  0  0
  188.8920  174.8250  144.2850 C   0  0  0  0  0  2  0  0  0  0  0  0
  193.7930  176.2790  141.0500 C   0  0  0  0  0  2  0  0  0  0  0  0
  193.4240  174.1440  139.8690 C   0  0  0  0  0  2  0  0  0  0  0  0
  192.8830  172.8450  140.4410 C   0  0  1  0  0  3  0  0  0  0  0  0
  192.4950  174.5390  142.0520 N   0  0  0  0  0  2  0  0  0  0  0  0
  193.4120  175.0100  141.0760 C   0  0  0  0  0  0  0  0  0  0  0  0
  191.8420  173.4140  141.4030 C   0  0  2  0  0  3  0  0  0  0  0  0
  192.3200  172.0430  139.4490 O   0  0  0  0  0  0  0  0  0  0  0  0
  193.0170  170.7990  139.4050 C   0  0  2  0  0  3  0  0  0  0  0  0
  190.8790  169.6100  139.7710 O   0  0  0  0  0  1  0  0  0  0  0  0
  192.5370  168.5290  138.6430 O   0  0  0  0  0  0  0  0  0  0  0  0
  192.1500  169.5730  139.2410 C   0  0  0  0  0  0  0  0  0  0  0  0
  194.4080  170.6240  140.5850 S   0  0  2  0  0  0  0  0  0  0  0  0
  195.4400  169.8250  139.8040 O   0  0  0  0  0  0  0  0  0  0  0  0
  194.7210  168.4050  142.0130 F   0  0  0  0  0  0  0  0  0  0  0  0
  193.8530  169.4850  141.9130 C   0  0  1  0  0  3  0  0  0  0  0  0
  193.7440  170.2470  143.2270 C   0  0  0  0  0  2  0  0  0  0  0  0
  195.0760  170.7850  143.7560 C   0  0  0  0  0  2  0  0  0  0  0  0
  195.3720  170.2850  145.1010 N   0  0  0  0  0  2  0  0  0  0  0  0
  195.5590  171.4630  145.9330 C   0  0  0  0  0  2  0  0  0  0  0  0
  197.0090  171.9050  145.8830 C   0  0  0  0  0  2  0  0  0  0  0  0
  197.1590  173.3930  145.5900 C   0  0  0  0  0  2  0  0  0  0  0  0
  195.1780  174.8550  145.0990 C   0  0  0  0  0  0  0  0  0  0  0  0
  195.9170  174.1380  145.9600 C   0  0  0  0  0  3  0  0  0  0  0  0
  193.0660  176.7120  144.5880 O   0  0  0  0  0  0  0  0  0  0  0  0
  193.9070  175.8970  145.8150 P   0  0  0  0  0  0  0  0  0  0  0  0
  192.8110  174.9060  146.6510 O   0  0  0  0  0  1  0  0  0  0  0  0
  194.5090  176.9100  146.7770 O   0  0  0  0  0  1  0  0  0  0  0  0
  195.6000  175.1110  143.6860 C   0  0  0  0  0  2  0  0  0  0  0  0
  196.2870  177.2600  144.2840 O   0  0  0  0  0  0  0  0  0  0  0  0
  196.5250  176.2680  143.6130 C   0  0  0  0  0  3  0  0  0  0  0  0
  186.1470  176.7130  146.5700 C   0  0  0  0  0  1  0  0  0  0  0  0
  189.0990  177.2260  144.6100 C   0  0  0  0  0  3  0  0  0  0  0  0
  187.8350  177.2530  144.9350 C   0  0  0  0  0  0  0  0  0  0  0  0
  186.5840  177.3620  145.2960 C   0  0  0  0  0  0  0  0  0  0  0  0
  185.7640  178.4970  144.7650 C   0  0  1  0  0  3  0  0  0  0  0  0
  186.4830  179.2270  143.8060 O   0  0  0  0  0  1  0  0  0  0  0  0
  184.5620  178.0200  144.2250 O   0  0  0  0  0  0  0  0  0  0  0  0
  184.8650  177.5940  142.9060 C   0  0  0  0  0  2  0  0  0  0  0  0
  184.0940  178.4320  141.8570 C   0  0  1  0  0  3  0  0  0  0  0  0
  183.9190  177.4300  139.6680 O   0  0  0  0  0  1  0  0  0  0  0  0
  184.7090  178.2640  140.4550 C   0  0  2  0  0  3  0  0  0  0  0  0
  186.1320  177.7020  140.4880 C   0  0  0  0  0  2  0  0  0  0  0  0
  186.6030  177.4750  139.1950 O   0  0  0  0  0  1  0  0  0  0  0  0
  182.6020  178.0850  141.9090 C   0  0  0  0  0  2  0  0  0  0  0  0
  180.7400  179.1730  141.8790 O   0  0  0  0  0  1  0  0  0  0  0  0
  181.8470  179.0140  141.1760 O   0  0  0  0  0  0  0  0  0  0  0  0
  188.6430  174.3360  139.7770 C   0  0  0  0  0  2  0  0  0  0  0  0
  188.1920  172.9030  139.4860 C   0  0  0  0  0  2  0  0  0  0  0  0
  189.0840  172.1820  138.0500 S   0  0  0  0  0  0  0  0  0  0  0  0
  190.5680  173.8330  136.5080 C   0  0  2  0  0  3  0  0  0  0  0  0
  189.3240  173.6920  135.8450 O   0  0  0  0  0  0  0  0  0  0  0  0
  189.2800  173.8240  137.2520 C   0  0  1  0  0  3  0  0  0  0  0  0
  191.0630  175.1380  136.3140 O   0  0  0  0  0  0  0  0  0  0  0  0
  192.4560  175.1270  136.5220 C   0  0  0  0  0  2  0  0  0  0  0  0
  193.2030  175.1900  135.2570 N   0  0  0  0  0  1  0  0  0  0  0  0
  1  9  1  0  0  0  0
  2 10  1  0  0  0  0
  2 42  1  1  0  0  0
  3  8  1  6  0  0  0
  3  6  1  0  0  0  0
  4 57  1  6  0  0  0
  4  1  1  0  0  0  0
  4  7  1  0  0  0  0
  5  6  1  6  0  0  0
  5 10  1  0  0  0  0
  7  8  1  6  0  0  0
  7  5  1  0  0  0  0
  9  2  1  0  0  0  0
 11 15  2  0  0  0  0
 12 13  1  0  0  0  0
 12 15  1  0  0  0  0
 13 17  1  6  0  0  0
 13 16  1  0  0  0  0
 15 14  1  0  0  0  0
 16 14  1  1  0  0  0
 16  3  1  0  0  0  0
 18 21  1  1  0  0  0
 18 17  1  0  0  0  0
 18 22  1  0  0  0  0
 20 21  2  0  0  0  0
 21 19  1  0  0  0  0
 22 23  2  6  0  0  0
 22 25  1  0  0  0  0
 25 24  1  1  0  0  0
 25 26  1  0  0  0  0
 26 27  1  0  0  0  0
 27 28  1  0  0  0  0
 28 29  1  0  0  0  0
 30 29  1  0  0  0  0
 31 30  1  0  0  0  0
 31 33  1  0  0  0  0
 32 35  1  0  0  0  0
 32 33  2  0  0  0  0
 34 35  2  0  0  0  0
 35 36  1  0  0  0  0
 35 37  1  0  0  0  0
 38 32  1  0  0  0  0
 40 38  1  0  0  0  0
 40 39  2  0  0  0  0
 42 43  2  0  0  0  0
 43 44  2  0  0  0  0
 44 41  1  0  0  0  0
 45 46  1  6  0  0  0
 45 44  1  0  0  0  0
 47 45  1  0  0  0  0
 48 47  1  0  0  0  0
 49 54  1  6  0  0  0
 49 48  1  0  0  0  0
 51 50  1  6  0  0  0
 51 52  1  0  0  0  0
 51 49  1  0  0  0  0
 53 52  1  0  0  0  0
 56 55  1  0  0  0  0
 56 54  1  0  0  0  0
 58 57  1  0  0  0  0
 59 58  1  0  0  0  0
 60 63  1  6  0  0  0
 60 62  1  0  0  0  0
 61 60  1  0  0  0  0
 61 62  1  0  0  0  0
 62 59  1  1  0  0  0
 63 64  1  0  0  0  0
 65 64  1  0  0  0  0
M  END
>  <MODEL>
1

>  <REMARK>
 VINA RESULT:      -5.2      0.000      0.000
  Name = 
  31 active torsions:
  status: ('A' for Active; 'I' for Inactive)
    1  A    between atoms: C_2  and  O_28
    2  A    between atoms: C_2  and  C_57
    3  A    between atoms: O_3  and  C_24
    4  A    between atoms: O_3  and  C_34
    5  A    between atoms: C_8  and  C_26
    6  A    between atoms: O_9  and  C_30
    7  A    between atoms: O_9  and  C_53
    8  A    between atoms: N_10  and  C_38
    9  A    between atoms: N_10  and  C_55
   10  A    between atoms: C_12  and  C_60
   11  A    between atoms: C_14  and  C_38
   12  A    between atoms: C_14  and  C_44
   13  A    between atoms: C_15  and  C_39
   14  A    between atoms: C_18  and  C_52
   15  A    between atoms: S_21  and  C_61
   16  A    between atoms: S_21  and  C_65
   17  A    between atoms: C_23  and  C_29
   18  A    between atoms: C_23  and  C_33
   19  A    between atoms: O_28  and  C_59
   20  A    between atoms: C_31  and  C_42
   21  A    between atoms: C_31  and  C_52
   22  A    between atoms: C_31  and  C_59
   23  A    between atoms: C_33  and  P_35
   24  A    between atoms: C_39  and  C_61
   25  A    between atoms: S_40  and  C_53
   26  A    between atoms: S_40  and  C_56
   27  A    between atoms: C_42  and  O_62
   28  A    between atoms: C_44  and  C_45
   29  A    between atoms: C_53  and  C_58
   30  A    between atoms: C_55  and  C_63
   31  A    between atoms: C_56  and  C_63
                            x       y       z     vdW  Elec       q    Type
                         _______ _______ _______ _____ _____    ______ ____

>  <TORSDO>
F 31

$$$$
=
 OpenBabel11072409113D

 65 68  0  0  1  0  0  0  0  0999 V2000
  189.7360  176.1660  143.8780 O   0  0  0  0  0  0  0  0  0  0  0  0
  189.7470  176.8080  146.2250 C   0  0  2  0  0  3  0  0  0  0  0  0
  192.6290  173.8300  145.8170 C   0  0  1  0  0  3  0  0  0  0  0  0
  190.7520  175.2040  143.7580 C   0  0  1  0  0  3  0  0  0  0  0  0
  190.2630  174.2690  146.1300 C   0  0  2  0  0  3  0  0  0  0  0  0
  191.6230  174.4210  146.7990 C   0  0  0  0  0  2  0  0  0  0  0  0
  190.4820  173.9580  144.6410 C   0  0  2  0  0  3  0  0  0  0  0  0
  191.7790  173.1550  144.7400 C   0  0  0  0  0  2  0  0  0  0  0  0
  190.2590  177.0720  144.7990 C   0  0  0  0  0  2  0  0  0  0  0  0
  189.2560  175.3750  146.4310 C   0  0  0  0  0  2  0  0  0  0  0  0
  194.9670  178.0610  145.4820 C   0  0  0  0  0  2  0  0  0  0  0  0
  195.1130  176.0650  144.0390 C   0  0  0  0  0  2  0  0  0  0  0  0
  194.6680  174.6490  144.3600 C   0  0  1  0  0  3  0  0  0  0  0  0
  193.7710  176.0660  146.0350 N   0  0  0  0  0  2  0  0  0  0  0  0
  194.7690  176.7620  145.3050 C   0  0  0  0  0  0  0  0  0  0  0  0
  193.4050  174.9630  145.1610 C   0  0  2  0  0  3  0  0  0  0  0  0
  194.4050  173.9190  143.2020 O   0  0  0  0  0  0  0  0  0  0  0  0
  195.4040  172.9120  143.0490 C   0  0  2  0  0  3  0  0  0  0  0  0
  196.9550  172.4710  144.9250 O   0  0  0  0  0  1  0  0  0  0  0  0
  195.0280  171.2610  144.8070 O   0  0  0  0  0  0  0  0  0  0  0  0
  195.7650  172.1560  144.3060 C   0  0  0  0  0  0  0  0  0  0  0  0
  196.8170  173.3520  141.9670 S   0  0  2  0  0  0  0  0  0  0  0  0
  196.2120  174.3280  140.9690 O   0  0  0  0  0  0  0  0  0  0  0  0
  197.5860  170.8140  141.8010 F   0  0  0  0  0  0  0  0  0  0  0  0
  197.2190  171.8650  140.9690 C   0  0  1  0  0  3  0  0  0  0  0  0
  196.0290  171.5020  140.0900 C   0  0  0  0  0  2  0  0  0  0  0  0
  196.4040  170.8180  138.7730 C   0  0  0  0  0  2  0  0  0  0  0  0
  196.5240  169.3660  138.9260 N   0  0  0  0  0  2  0  0  0  0  0  0
  195.2290  168.8170  138.5590 C   0  0  0  0  0  2  0  0  0  0  0  0
  194.6820  169.5480  137.3470 C   0  0  0  0  0  2  0  0  0  0  0  0
  193.1690  169.7140  137.3950 C   0  0  0  0  0  2  0  0  0  0  0  0
  191.9440  171.8580  136.9420 C   0  0  0  0  0  0  0  0  0  0  0  0
  192.7960  171.1330  137.6840 C   0  0  0  0  0  3  0  0  0  0  0  0
  190.2720  174.0790  137.6100 O   0  0  0  0  0  1  0  0  0  0  0  0
  191.8730  173.6140  137.2990 P   0  0  0  0  0  0  0  0  0  0  0  0
  192.7990  173.9160  138.6900 O   0  0  0  0  0  1  0  0  0  0  0  0
  192.4230  174.4300  136.1380 O   0  0  0  0  0  0  0  0  0  0  0  0
  191.3760  171.3690  135.6470 C   0  0  0  0  0  2  0  0  0  0  0  0
  189.5540  170.6000  136.8860 O   0  0  0  0  0  0  0  0  0  0  0  0
  189.9470  171.0050  135.8030 C   0  0  0  0  0  3  0  0  0  0  0  0
  185.2940  176.3790  146.5050 C   0  0  0  0  0  1  0  0  0  0  0  0
  188.6140  177.7200  146.4960 C   0  0  0  0  0  3  0  0  0  0  0  0
  187.4100  177.4510  146.0700 C   0  0  0  0  0  0  0  0  0  0  0  0
  186.1780  177.2590  145.6810 C   0  0  0  0  0  0  0  0  0  0  0  0
  185.5280  178.2660  144.7820 C   0  0  1  0  0  3  0  0  0  0  0  0
  185.8380  179.5730  145.1890 O   0  0  0  0  0  1  0  0  0  0  0  0
  185.9190  178.0560  143.4520 O   0  0  0  0  0  0  0  0  0  0  0  0
  184.7750  178.3260  142.6580 C   0  0  0  0  0  2  0  0  0  0  0  0
  185.1560  178.4990  141.1670 C   0  0  1  0  0  3  0  0  0  0  0  0
  187.4850  177.9730  140.8090 O   0  0  0  0  0  1  0  0  0  0  0  0
  186.1980  177.4470  140.7380 C   0  0  2  0  0  3  0  0  0  0  0  0
  185.9620  176.9150  139.3220 C   0  0  0  0  0  2  0  0  0  0  0  0
  187.1750  176.7330  138.6570 O   0  0  0  0  0  1  0  0  0  0  0  0
  183.8920  178.4860  140.3020 C   0  0  0  0  0  2  0  0  0  0  0  0
  181.8570  177.7960  140.4900 O   0  0  0  0  0  1  0  0  0  0  0  0
  182.7390  178.5670  141.1000 O   0  0  0  0  0  0  0  0  0  0  0  0
  191.0570  174.8360  142.2970 C   0  0  0  0  0  2  0  0  0  0  0  0
  189.8170  174.6850  141.4130 C   0  0  0  0  0  2  0  0  0  0  0  0
  189.1270  172.9830  141.4850 S   0  0  0  0  0  0  0  0  0  0  0  0
  191.1390  171.1800  141.5540 C   0  0  2  0  0  3  0  0  0  0  0  0
  190.4060  170.9020  140.3750 O   0  0  0  0  0  0  0  0  0  0  0  0
  190.6150  172.2650  140.6830 C   0  0  1  0  0  3  0  0  0  0  0  0
  192.5080  170.9310  141.3310 O   0  0  0  0  0  0  0  0  0  0  0  0
  192.9740  170.0510  142.3280 C   0  0  0  0  0  2  0  0  0  0  0  0
  193.4950  168.8000  141.7590 N   0  0  0  0  0  1  0  0  0  0  0  0
  1  9  1  0  0  0  0
  2 10  1  0  0  0  0
  2 42  1  6  0  0  0
  3  8  1  6  0  0  0
  3  6  1  0  0  0  0
  4 57  1  6  0  0  0
  4  1  1  0  0  0  0
  4  7  1  0  0  0  0
  5 10  1  6  0  0  0
  5  6  1  0  0  0  0
  7  8  1  1  0  0  0
  7  5  1  0  0  0  0
  9  2  1  0  0  0  0
 12 13  1  0  0  0  0
 12 15  1  0  0  0  0
 13 17  1  6  0  0  0
 13 16  1  0  0  0  0
 15 11  2  0  0  0  0
 15 14  1  0  0  0  0
 16  3  1  0  0  0  0
 16 14  1  1  0  0  0
 18 17  1  1  0  0  0
 18 21  1  0  0  0  0
 21 20  2  0  0  0  0
 21 19  1  0  0  0  0
 22 23  2  6  0  0  0
 22 18  1  0  0  0  0
 25 24  1  1  0  0  0
 25 22  1  0  0  0  0
 26 25  1  0  0  0  0
 27 28  1  0  0  0  0
 27 26  1  0  0  0  0
 29 28  1  0  0  0  0
 30 31  1  0  0  0  0
 30 29  1  0  0  0  0
 31 33  1  0  0  0  0
 32 35  1  0  0  0  0
 32 33  2  0  0  0  0
 35 34  1  0  0  0  0
 35 36  1  0  0  0  0
 37 35  2  0  0  0  0
 38 40  1  0  0  0  0
 38 32  1  0  0  0  0
 40 39  2  0  0  0  0
 43 42  2  0  0  0  0
 44 43  2  0  0  0  0
 44 41  1  0  0  0  0
 45 46  1  1  0  0  0
 45 44  1  0  0  0  0
 47 45  1  0  0  0  0
 48 47  1  0  0  0  0
 49 54  1  6  0  0  0
 49 48  1  0  0  0  0
 51 50  1  6  0  0  0
 51 49  1  0  0  0  0
 52 51  1  0  0  0  0
 53 52  1  0  0  0  0
 54 56  1  0  0  0  0
 55 56  1  0  0  0  0
 58 59  1  0  0  0  0
 58 57  1  0  0  0  0
 60 63  1  6  0  0  0
 61 62  1  0  0  0  0
 61 60  1  0  0  0  0
 62 59  1  1  0  0  0
 62 60  1  0  0  0  0
 63 64  1  0  0  0  0
 65 64  1  0  0  0  0
M  END
>  <MODEL>
2

>  <REMARK>
 VINA RESULT:      -5.1      2.755      5.628
  Name = 
  31 active torsions:
  status: ('A' for Active; 'I' for Inactive)
    1  A    between atoms: C_2  and  O_28
    2  A    between atoms: C_2  and  C_57
    3  A    between atoms: O_3  and  C_24
    4  A    between atoms: O_3  and  C_34
    5  A    between atoms: C_8  and  C_26
    6  A    between atoms: O_9  and  C_30
    7  A    between atoms: O_9  and  C_53
    8  A    between atoms: N_10  and  C_38
    9  A    between atoms: N_10  and  C_55
   10  A    between atoms: C_12  and  C_60
   11  A    between atoms: C_14  and  C_38
   12  A    between atoms: C_14  and  C_44
   13  A    between atoms: C_15  and  C_39
   14  A    between atoms: C_18  and  C_52
   15  A    between atoms: S_21  and  C_61
   16  A    between atoms: S_21  and  C_65
   17  A    between atoms: C_23  and  C_29
   18  A    between atoms: C_23  and  C_33
   19  A    between atoms: O_28  and  C_59
   20  A    between atoms: C_31  and  C_42
   21  A    between atoms: C_31  and  C_52
   22  A    between atoms: C_31  and  C_59
   23  A    between atoms: C_33  and  P_35
   24  A    between atoms: C_39  and  C_61
   25  A    between atoms: S_40  and  C_53
   26  A    between atoms: S_40  and  C_56
   27  A    between atoms: C_42  and  O_62
   28  A    between atoms: C_44  and  C_45
   29  A    between atoms: C_53  and  C_58
   30  A    between atoms: C_55  and  C_63
   31  A    between atoms: C_56  and  C_63
                            x       y       z     vdW  Elec       q    Type
                         _______ _______ _______ _____ _____    ______ ____

>  <TORSDO>
F 31

$$$$
=
 OpenBabel11072409113D

 65 68  0  0  1  0  0  0  0  0999 V2000
  190.5010  176.9200  145.1070 O   0  0  0  0  0  0  0  0  0  0  0  0
  190.4510  176.8770  142.6740 C   0  0  2  0  0  3  0  0  0  0  0  0
  193.9260  174.8800  143.8060 C   0  0  1  0  0  3  0  0  0  0  0  0
  191.6490  176.1930  145.4620 C   0  0  1  0  0  3  0  0  0  0  0  0
  192.9400  177.0550  143.3810 C   0  0  2  0  0  3  0  0  0  0  0  0
  193.3270  175.7470  142.7040 C   0  0  0  0  0  2  0  0  0  0  0  0
  192.9430  176.8390  144.9030 C   0  0  2  0  0  3  0  0  0  0  0  0
  194.0710  175.8130  145.0080 C   0  0  0  0  0  2  0  0  0  0  0  0
  190.0140  176.2290  143.9980 C   0  0  0  0  0  2  0  0  0  0  0  0
  191.7020  177.7460  142.8160 C   0  0  0  0  0  2  0  0  0  0  0  0
  190.0450  172.0120  143.3620 C   0  0  0  0  0  2  0  0  0  0  0  0
  192.1000  171.6830  144.6860 C   0  0  0  0  0  2  0  0  0  0  0  0
  193.4340  172.3920  144.5280 C   0  0  1  0  0  3  0  0  0  0  0  0
  191.8470  173.5780  143.2280 N   0  0  0  0  0  2  0  0  0  0  0  0
  191.3130  172.3150  143.5970 C   0  0  0  0  0  0  0  0  0  0  0  0
  192.9280  173.7900  144.1750 C   0  0  2  0  0  3  0  0  0  0  0  0
  194.1710  172.3680  145.7110 O   0  0  0  0  0  0  0  0  0  0  0  0
  195.4100  171.7010  145.4740 C   0  0  2  0  0  3  0  0  0  0  0  0
  196.7720  169.7700  146.2060 O   0  0  0  0  0  0  0  0  0  0  0  0
  194.5030  169.6050  146.3370 O   0  0  0  0  0  1  0  0  0  0  0  0
  195.5120  170.3000  146.0290 C   0  0  0  0  0  0  0  0  0  0  0  0
  196.9150  172.7290  145.6590 S   0  0  2  0  0  0  0  0  0  0  0  0
  196.3910  174.0230  146.2630 O   0  0  0  0  0  0  0  0  0  0  0  0
  196.5260  172.7910  143.0320 F   0  0  0  0  0  0  0  0  0  0  0  0
  197.4640  173.1980  143.9720 C   0  0  1  0  0  3  0  0  0  0  0  0
  197.7100  174.6990  143.9140 C   0  0  0  0  0  2  0  0  0  0  0  0
  197.9410  175.2460  142.5030 C   0  0  0  0  0  2  0  0  0  0  0  0
  196.7210  175.8200  141.9310 N   0  0  0  0  0  2  0  0  0  0  0  0
  196.7600  175.5100  140.5120 C   0  0  0  0  0  2  0  0  0  0  0  0
  195.3600  175.5740  139.9300 C   0  0  0  0  0  2  0  0  0  0  0  0
  195.2040  174.7180  138.6790 C   0  0  0  0  0  2  0  0  0  0  0  0
  194.3390  172.3730  138.9110 C   0  0  0  0  0  0  0  0  0  0  0  0
  194.1270  173.6970  138.8630 C   0  0  0  0  0  3  0  0  0  0  0  0
  193.3160  169.7590  138.3700 O   0  0  0  0  0  1  0  0  0  0  0  0
  192.8830  171.3300  138.8420 P   0  0  0  0  0  0  0  0  0  0  0  0
  192.2020  171.2550  140.3950 O   0  0  0  0  0  1  0  0  0  0  0  0
  191.8570  171.8880  137.8670 O   0  0  0  0  0  0  0  0  0  0  0  0
  195.6740  171.7540  138.6400 C   0  0  0  0  0  2  0  0  0  0  0  0
  197.1480  171.5960  136.8370 O   0  0  0  0  0  0  0  0  0  0  0  0
  196.0040  171.8250  137.1950 C   0  0  0  0  0  3  0  0  0  0  0  0
  185.9760  176.8030  142.9180 C   0  0  0  0  0  1  0  0  0  0  0  0
  189.3530  177.7390  142.1840 C   0  0  0  0  0  3  0  0  0  0  0  0
  188.1530  177.2640  141.9890 C   0  0  0  0  0  0  0  0  0  0  0  0
  186.9280  176.8710  141.7670 C   0  0  0  0  0  0  0  0  0  0  0  0
  186.3570  176.9950  140.3870 C   0  0  1  0  0  3  0  0  0  0  0  0
  185.7680  178.2560  140.2020 O   0  0  0  0  0  1  0  0  0  0  0  0
  187.3520  176.7670  139.4260 O   0  0  0  0  0  0  0  0  0  0  0  0
  187.1000  175.4740  138.8990 C   0  0  0  0  0  2  0  0  0  0  0  0
  188.3790  174.8660  138.2740 C   0  0  1  0  0  3  0  0  0  0  0  0
  187.7850  172.7540  139.2830 O   0  0  0  0  0  1  0  0  0  0  0  0
  188.8460  173.6290  139.0650 C   0  0  2  0  0  3  0  0  0  0  0  0
  189.4740  173.9830  140.4160 C   0  0  0  0  0  2  0  0  0  0  0  0
  190.8430  174.2130  140.2770 O   0  0  0  0  0  1  0  0  0  0  0  0
  188.1470  174.5800  136.7870 C   0  0  0  0  0  2  0  0  0  0  0  0
  187.0670  176.1100  135.7160 O   0  0  0  0  0  1  0  0  0  0  0  0
  188.3000  175.7490  136.0240 O   0  0  0  0  0  0  0  0  0  0  0  0
  191.7350  175.9110  146.9700 C   0  0  0  0  0  2  0  0  0  0  0  0
  190.4110  176.0770  147.7190 C   0  0  0  0  0  2  0  0  0  0  0  0
  189.2030  174.7650  147.2760 S   0  0  0  0  0  0  0  0  0  0  0  0
  187.9120  177.0930  146.8130 C   0  0  2  0  0  3  0  0  0  0  0  0
  187.0030  176.0660  146.4610 O   0  0  0  0  0  0  0  0  0  0  0  0
  187.7710  175.8580  147.6290 C   0  0  1  0  0  3  0  0  0  0  0  0
  187.2070  178.1810  147.3660 O   0  0  0  0  0  0  0  0  0  0  0  0
  186.1080  178.4750  146.5340 C   0  0  0  0  0  2  0  0  0  0  0  0
  184.8680  178.6520  147.3030 N   0  0  0  0  0  1  0  0  0  0  0  0
  1  4  1  0  0  0  0
  2 42  1  1  0  0  0
  2 10  1  0  0  0  0
  2  9  1  0  0  0  0
  3  6  1  6  0  0  0
  3 16  1  0  0  0  0
  3  8  1  0  0  0  0
  4 57  1  1  0  0  0
  5  6  1  6  0  0  0
  5  7  1  0  0  0  0
  7  8  1  6  0  0  0
  7  4  1  0  0  0  0
  9  1  1  0  0  0  0
 10  5  1  0  0  0  0
 11 15  2  0  0  0  0
 13 12  1  0  0  0  0
 13 17  1  1  0  0  0
 14 15  1  0  0  0  0
 15 12  1  0  0  0  0
 16 14  1  6  0  0  0
 16 13  1  0  0  0  0
 18 22  1  0  0  0  0
 18 17  1  1  0  0  0
 18 21  1  0  0  0  0
 21 19  2  0  0  0  0
 21 20  1  0  0  0  0
 22 23  2  1  0  0  0
 25 24  1  6  0  0  0
 25 22  1  0  0  0  0
 26 25  1  0  0  0  0
 27 26  1  0  0  0  0
 28 27  1  0  0  0  0
 29 28  1  0  0  0  0
 30 29  1  0  0  0  0
 31 33  1  0  0  0  0
 31 30  1  0  0  0  0
 33 32  2  0  0  0  0
 34 35  1  0  0  0  0
 35 32  1  0  0  0  0
 35 36  1  0  0  0  0
 37 35  2  0  0  0  0
 38 32  1  0  0  0  0
 39 40  2  0  0  0  0
 40 38  1  0  0  0  0
 43 42  2  0  0  0  0
 44 43  2  0  0  0  0
 44 41  1  0  0  0  0
 45 46  1  6  0  0  0
 45 44  1  0  0  0  0
 47 45  1  0  0  0  0
 48 47  1  0  0  0  0
 49 54  1  6  0  0  0
 49 48  1  0  0  0  0
 49 51  1  0  0  0  0
 51 50  1  1  0  0  0
 51 52  1  0  0  0  0
 53 52  1  0  0  0  0
 55 56  1  0  0  0  0
 56 54  1  0  0  0  0
 57 58  1  0  0  0  0
 59 58  1  0  0  0  0
 60 63  1  1  0  0  0
 60 62  1  0  0  0  0
 61 60  1  0  0  0  0
 61 62  1  0  0  0  0
 62 59  1  6  0  0  0
 64 65  1  0  0  0  0
 64 63  1  0  0  0  0
M  END
>  <MODEL>
3

>  <REMARK>
 VINA RESULT:      -4.7      3.319      7.118
  Name = 
  31 active torsions:
  status: ('A' for Active; 'I' for Inactive)
    1  A    between atoms: C_2  and  O_28
    2  A    between atoms: C_2  and  C_57
    3  A    between atoms: O_3  and  C_24
    4  A    between atoms: O_3  and  C_34
    5  A    between atoms: C_8  and  C_26
    6  A    between atoms: O_9  and  C_30
    7  A    between atoms: O_9  and  C_53
    8  A    between atoms: N_10  and  C_38
    9  A    between atoms: N_10  and  C_55
   10  A    between atoms: C_12  and  C_60
   11  A    between atoms: C_14  and  C_38
   12  A    between atoms: C_14  and  C_44
   13  A    between atoms: C_15  and  C_39
   14  A    between atoms: C_18  and  C_52
   15  A    between atoms: S_21  and  C_61
   16  A    between atoms: S_21  and  C_65
   17  A    between atoms: C_23  and  C_29
   18  A    between atoms: C_23  and  C_33
   19  A    between atoms: O_28  and  C_59
   20  A    between atoms: C_31  and  C_42
   21  A    between atoms: C_31  and  C_52
   22  A    between atoms: C_31  and  C_59
   23  A    between atoms: C_33  and  P_35
   24  A    between atoms: C_39  and  C_61
   25  A    between atoms: S_40  and  C_53
   26  A    between atoms: S_40  and  C_56
   27  A    between atoms: C_42  and  O_62
   28  A    between atoms: C_44  and  C_45
   29  A    between atoms: C_53  and  C_58
   30  A    between atoms: C_55  and  C_63
   31  A    between atoms: C_56  and  C_63
                            x       y       z     vdW  Elec       q    Type
                         _______ _______ _______ _____ _____    ______ ____

>  <TORSDO>
F 31

$$$$
=
 OpenBabel11072409113D

 65 68  0  0  1  0  0  0  0  0999 V2000
  189.2520  173.5840  139.0890 O   0  0  0  0  0  0  0  0  0  0  0  0
  189.2230  173.4490  141.5190 C   0  0  2  0  0  3  0  0  0  0  0  0
  192.3850  171.0520  140.2530 C   0  0  1  0  0  3  0  0  0  0  0  0
  190.3580  172.8150  138.6930 C   0  0  1  0  0  3  0  0  0  0  0  0
  189.9910  171.1340  140.6370 C   0  0  2  0  0  3  0  0  0  0  0  0
  191.3360  171.2000  141.3500 C   0  0  0  0  0  2  0  0  0  0  0  0
  190.2240  171.3340  139.1310 C   0  0  2  0  0  3  0  0  0  0  0  0
  191.5960  170.6730  139.0000 C   0  0  0  0  0  2  0  0  0  0  0  0
  189.6910  174.1990  140.2610 C   0  0  0  0  0  2  0  0  0  0  0  0
  188.8810  171.9830  141.2510 C   0  0  0  0  0  2  0  0  0  0  0  0
  193.5530  175.6850  141.0660 C   0  0  0  0  0  2  0  0  0  0  0  0
  194.7010  173.9920  139.6850 C   0  0  0  0  0  2  0  0  0  0  0  0
  194.5390  172.4830  139.7360 C   0  0  1  0  0  3  0  0  0  0  0  0
  192.7760  173.4240  141.0100 N   0  0  0  0  0  2  0  0  0  0  0  0
  193.7630  174.4130  140.7570 C   0  0  0  0  0  0  0  0  0  0  0  0
  193.0370  172.4060  140.0060 C   0  0  2  0  0  3  0  0  0  0  0  0
  194.9010  171.8880  138.5280 O   0  0  0  0  0  0  0  0  0  0  0  0
  196.2310  171.3830  138.6380 C   0  0  2  0  0  3  0  0  0  0  0  0
  197.2440  171.1210  136.3970 O   0  0  0  0  0  0  0  0  0  0  0  0
  197.9410  172.8530  137.7030 O   0  0  0  0  0  1  0  0  0  0  0  0
  197.1930  171.8430  137.5690 C   0  0  0  0  0  0  0  0  0  0  0  0
  196.3750  169.6190  139.1160 S   0  0  2  0  0  0  0  0  0  0  0  0
  195.5760  168.8930  138.0450 O   0  0  0  0  0  0  0  0  0  0  0  0
  194.4400  168.4030  140.4700 F   0  0  0  0  0  0  0  0  0  0  0  0
  195.4000  169.3910  140.6530 C   0  0  1  0  0  3  0  0  0  0  0  0
  196.3360  169.0640  141.8080 C   0  0  0  0  0  2  0  0  0  0  0  0
  195.6240  168.6810  143.1080 C   0  0  0  0  0  2  0  0  0  0  0  0
  196.4360  168.9860  144.2880 N   0  0  0  0  0  2  0  0  0  0  0  0
  196.1650  170.3770  144.6110 C   0  0  0  0  0  2  0  0  0  0  0  0
  197.2740  170.9310  145.4860 C   0  0  0  0  0  2  0  0  0  0  0  0
  197.0750  172.4020  145.8270 C   0  0  0  0  0  2  0  0  0  0  0  0
  195.2800  173.9480  144.9950 C   0  0  0  0  0  0  0  0  0  0  0  0
  195.6540  172.8130  145.6050 C   0  0  0  0  0  3  0  0  0  0  0  0
  193.2870  175.9320  144.4790 O   0  0  0  0  0  1  0  0  0  0  0  0
  193.5420  174.3750  145.1010 P   0  0  0  0  0  0  0  0  0  0  0  0
  192.6610  173.2700  144.1600 O   0  0  0  0  0  0  0  0  0  0  0  0
  193.0530  174.3170  146.5410 O   0  0  0  0  0  1  0  0  0  0  0  0
  196.2530  175.0110  144.5910 C   0  0  0  0  0  2  0  0  0  0  0  0
  196.8180  175.9600  142.5350 O   0  0  0  0  0  0  0  0  0  0  0  0
  196.5440  174.9350  143.1390 C   0  0  0  0  0  3  0  0  0  0  0  0
  186.9570  177.1940  140.5510 C   0  0  0  0  0  1  0  0  0  0  0  0
  188.0070  174.1110  142.0400 C   0  0  0  0  0  3  0  0  0  0  0  0
  187.8240  175.3960  141.9060 C   0  0  0  0  0  0  0  0  0  0  0  0
  187.5630  176.6730  141.8150 C   0  0  0  0  0  0  0  0  0  0  0  0
  187.3760  177.4730  143.0680 C   0  0  1  0  0  3  0  0  0  0  0  0
  186.0480  177.9140  143.1850 O   0  0  0  0  0  1  0  0  0  0  0  0
  187.7470  176.7180  144.1890 O   0  0  0  0  0  0  0  0  0  0  0  0
  188.1750  177.6520  145.1680 C   0  0  0  0  0  2  0  0  0  0  0  0
  187.9690  177.0960  146.5980 C   0  0  1  0  0  3  0  0  0  0  0  0
  185.6630  176.4460  146.3040 O   0  0  0  0  0  1  0  0  0  0  0  0
  186.5060  177.2630  147.0520 C   0  0  2  0  0  3  0  0  0  0  0  0
  186.0080  178.7070  146.9470 C   0  0  0  0  0  2  0  0  0  0  0  0
  184.7340  178.8300  147.5020 O   0  0  0  0  0  1  0  0  0  0  0  0
  188.4620  175.6480  146.6690 C   0  0  0  0  0  2  0  0  0  0  0  0
  190.3360  175.8560  147.7180 O   0  0  0  0  0  1  0  0  0  0  0  0
  189.8570  175.5860  146.5170 O   0  0  0  0  0  0  0  0  0  0  0  0
  190.6830  172.9620  137.1990 C   0  0  0  0  0  2  0  0  0  0  0  0
  191.4720  174.2240  136.8450 C   0  0  0  0  0  2  0  0  0  0  0  0
  193.2030  173.8380  136.3630 S   0  0  0  0  0  0  0  0  0  0  0  0
  193.4900  176.4470  135.7170 C   0  0  2  0  0  3  0  0  0  0  0  0
  194.4830  175.7510  134.9840 O   0  0  0  0  0  0  0  0  0  0  0  0
  193.2110  175.1390  135.0670 C   0  0  1  0  0  3  0  0  0  0  0  0
  193.0140  177.5330  134.9570 O   0  0  0  0  0  0  0  0  0  0  0  0
  193.6580  178.7070  135.3970 C   0  0  0  0  0  2  0  0  0  0  0  0
  194.7750  179.0840  134.5180 N   0  0  0  0  0  1  0  0  0  0  0  0
  1  9  1  0  0  0  0
  2 42  1  6  0  0  0
  3  8  1  6  0  0  0
  3  6  1  0  0  0  0
  4 57  1  6  0  0  0
  4  1  1  0  0  0  0
  4  7  1  0  0  0  0
  5 10  1  1  0  0  0
  5  6  1  0  0  0  0
  7  8  1  1  0  0  0
  7  5  1  0  0  0  0
  9  2  1  0  0  0  0
 10  2  1  0  0  0  0
 12 13  1  0  0  0  0
 12 15  1  0  0  0  0
 13 17  1  6  0  0  0
 13 16  1  0  0  0  0
 15 14  1  0  0  0  0
 15 11  2  0  0  0  0
 16  3  1  0  0  0  0
 16 14  1  1  0  0  0
 17 18  1  0  0  0  0
 18 21  1  6  0  0  0
 18 22  1  0  0  0  0
 19 21  2  0  0  0  0
 21 20  1  0  0  0  0
 22 23  2  6  0  0  0
 22 25  1  0  0  0  0
 25 24  1  6  0  0  0
 25 26  1  0  0  0  0
 26 27  1  0  0  0  0
 27 28  1  0  0  0  0
 28 29  1  0  0  0  0
 29 30  1  0  0  0  0
 30 31  1  0  0  0  0
 32 35  1  0  0  0  0
 32 33  2  0  0  0  0
 33 31  1  0  0  0  0
 34 35  1  0  0  0  0
 35 37  1  0  0  0  0
 36 35  2  0  0  0  0
 38 32  1  0  0  0  0
 39 40  2  0  0  0  0
 40 38  1  0  0  0  0
 41 44  1  0  0  0  0
 43 42  2  0  0  0  0
 44 43  2  0  0  0  0
 44 45  1  0  0  0  0
 45 46  1  1  0  0  0
 45 47  1  0  0  0  0
 47 48  1  0  0  0  0
 49 48  1  6  0  0  0
 49 54  1  0  0  0  0
 49 51  1  0  0  0  0
 51 50  1  6  0  0  0
 52 51  1  0  0  0  0
 52 53  1  0  0  0  0
 56 54  1  0  0  0  0
 56 55  1  0  0  0  0
 58 57  1  0  0  0  0
 59 58  1  0  0  0  0
 60 63  1  6  0  0  0
 61 62  1  0  0  0  0
 61 60  1  0  0  0  0
 62 60  1  0  0  0  0
 62 59  1  1  0  0  0
 63 64  1  0  0  0  0
 65 64  1  0  0  0  0
M  END
>  <MODEL>
4

>  <REMARK>
 VINA RESULT:      -4.4      2.379      4.314
  Name = 
  31 active torsions:
  status: ('A' for Active; 'I' for Inactive)
    1  A    between atoms: C_2  and  O_28
    2  A    between atoms: C_2  and  C_57
    3  A    between atoms: O_3  and  C_24
    4  A    between atoms: O_3  and  C_34
    5  A    between atoms: C_8  and  C_26
    6  A    between atoms: O_9  and  C_30
    7  A    between atoms: O_9  and  C_53
    8  A    between atoms: N_10  and  C_38
    9  A    between atoms: N_10  and  C_55
   10  A    between atoms: C_12  and  C_60
   11  A    between atoms: C_14  and  C_38
   12  A    between atoms: C_14  and  C_44
   13  A    between atoms: C_15  and  C_39
   14  A    between atoms: C_18  and  C_52
   15  A    between atoms: S_21  and  C_61
   16  A    between atoms: S_21  and  C_65
   17  A    between atoms: C_23  and  C_29
   18  A    between atoms: C_23  and  C_33
   19  A    between atoms: O_28  and  C_59
   20  A    between atoms: C_31  and  C_42
   21  A    between atoms: C_31  and  C_52
   22  A    between atoms: C_31  and  C_59
   23  A    between atoms: C_33  and  P_35
   24  A    between atoms: C_39  and  C_61
   25  A    between atoms: S_40  and  C_53
   26  A    between atoms: S_40  and  C_56
   27  A    between atoms: C_42  and  O_62
   28  A    between atoms: C_44  and  C_45
   29  A    between atoms: C_53  and  C_58
   30  A    between atoms: C_55  and  C_63
   31  A    between atoms: C_56  and  C_63
                            x       y       z     vdW  Elec       q    Type
                         _______ _______ _______ _____ _____    ______ ____

>  <TORSDO>
F 31

$$$$
=
 OpenBabel11072409113D

 65 68  0  0  1  0  0  0  0  0999 V2000
  189.6490  176.2030  143.8870 O   0  0  0  0  0  0  0  0  0  0  0  0
  188.0740  174.9480  142.5200 C   0  0  2  0  0  3  0  0  0  0  0  0
  191.8680  173.5740  141.4880 C   0  0  1  0  0  3  0  0  0  0  0  0
  190.9120  175.6820  143.5600 C   0  0  1  0  0  3  0  0  0  0  0  0
  190.2090  175.3000  141.0910 C   0  0  2  0  0  3  0  0  0  0  0  0
  190.4660  173.8070  140.9330 C   0  0  0  0  0  2  0  0  0  0  0  0
  191.2520  175.8770  142.0610 C   0  0  2  0  0  3  0  0  0  0  0  0
  192.4370  174.9740  141.7200 C   0  0  0  0  0  2  0  0  0  0  0  0
  188.8220  175.0820  143.8570 C   0  0  0  0  0  2  0  0  0  0  0  0
  188.7600  175.6890  141.3720 C   0  0  0  0  0  2  0  0  0  0  0  0
  189.7240  171.4060  145.2550 C   0  0  0  0  0  2  0  0  0  0  0  0
  192.0710  171.2940  144.5030 C   0  0  0  0  0  2  0  0  0  0  0  0
  192.6320  171.6680  143.1420 C   0  0  1  0  0  3  0  0  0  0  0  0
  190.4130  172.4950  143.2410 N   0  0  0  0  0  2  0  0  0  0  0  0
  190.6270  171.5730  144.2990 C   0  0  0  0  0  0  0  0  0  0  0  0
  191.7550  172.8830  142.8400 C   0  0  2  0  0  3  0  0  0  0  0  0
  193.9880  171.9870  143.2160 O   0  0  0  0  0  0  0  0  0  0  0  0
  194.7430  170.9550  142.5810 C   0  0  2  0  0  3  0  0  0  0  0  0
  196.6460  169.4610  143.0930 O   0  0  0  0  0  0  0  0  0  0  0  0
  196.8430  171.6740  143.5980 O   0  0  0  0  0  1  0  0  0  0  0  0
  196.1360  170.7400  143.1250 C   0  0  0  0  0  0  0  0  0  0  0  0
  194.5900  170.8650  140.7570 S   0  0  2  0  0  0  0  0  0  0  0  0
  194.4470  169.3750  140.4850 O   0  0  0  0  0  0  0  0  0  0  0  0
  197.0220  170.1720  139.9400 F   0  0  0  0  0  0  0  0  0  0  0  0
  196.2270  171.3060  140.0540 C   0  0  1  0  0  3  0  0  0  0  0  0
  196.0350  171.9990  138.7110 C   0  0  0  0  0  2  0  0  0  0  0  0
  196.8810  173.2610  138.5270 C   0  0  0  0  0  2  0  0  0  0  0  0
  196.5090  173.9980  137.3160 N   0  0  0  0  0  2  0  0  0  0  0  0
  195.9820  173.0070  136.3920 C   0  0  0  0  0  2  0  0  0  0  0  0
  195.9230  173.5870  134.9910 C   0  0  0  0  0  2  0  0  0  0  0  0
  194.4980  173.8630  134.5290 C   0  0  0  0  0  2  0  0  0  0  0  0
  192.4300  173.2200  135.7990 C   0  0  0  0  0  0  0  0  0  0  0  0
  193.5430  172.8820  135.1310 C   0  0  0  0  0  3  0  0  0  0  0  0
  190.8050  170.8780  135.5820 O   0  0  0  0  0  0  0  0  0  0  0  0
  191.5970  171.9000  136.6810 P   0  0  0  0  0  0  0  0  0  0  0  0
  192.7650  170.9910  137.5120 O   0  0  0  0  0  1  0  0  0  0  0  0
  190.5880  172.4570  137.6740 O   0  0  0  0  0  1  0  0  0  0  0  0
  192.0900  174.6360  136.1470 C   0  0  0  0  0  2  0  0  0  0  0  0
  193.0920  174.6020  138.2550 O   0  0  0  0  0  0  0  0  0  0  0  0
  193.0220  175.1640  137.1740 C   0  0  0  0  0  3  0  0  0  0  0  0
  185.5210  177.8270  140.2200 C   0  0  0  0  0  1  0  0  0  0  0  0
  186.7170  175.5150  142.6790 C   0  0  0  0  0  3  0  0  0  0  0  0
  186.3920  176.6600  142.1430 C   0  0  0  0  0  0  0  0  0  0  0  0
  185.9850  177.7950  141.6410 C   0  0  0  0  0  0  0  0  0  0  0  0
  185.5050  178.8730  142.5640 C   0  0  1  0  0  3  0  0  0  0  0  0
  184.2810  178.5180  143.1520 O   0  0  0  0  0  1  0  0  0  0  0  0
  186.4680  179.1390  143.5470 O   0  0  0  0  0  0  0  0  0  0  0  0
  185.7480  179.4230  144.7360 C   0  0  0  0  0  2  0  0  0  0  0  0
  186.5200  178.9340  145.9870 C   0  0  1  0  0  3  0  0  0  0  0  0
  186.6060  179.3660  148.3610 O   0  0  0  0  0  1  0  0  0  0  0  0
  185.7390  179.2510  147.2770 C   0  0  2  0  0  3  0  0  0  0  0  0
  184.6770  178.2000  147.6070 C   0  0  0  0  0  2  0  0  0  0  0  0
  183.6580  178.2130  146.6540 O   0  0  0  0  0  1  0  0  0  0  0  0
  186.8650  177.4490  145.8380 C   0  0  0  0  0  2  0  0  0  0  0  0
  187.8220  175.9390  147.0450 O   0  0  0  0  0  1  0  0  0  0  0  0
  188.0440  177.1370  146.5330 O   0  0  0  0  0  0  0  0  0  0  0  0
  192.0260  176.1910  144.4890 C   0  0  0  0  0  2  0  0  0  0  0  0
  192.3390  175.2630  145.6650 C   0  0  0  0  0  2  0  0  0  0  0  0
  193.9540  175.6670  146.4440 S   0  0  0  0  0  0  0  0  0  0  0  0
  195.8300  175.3990  144.5180 C   0  0  2  0  0  3  0  0  0  0  0  0
  196.2520  174.5760  145.5920 O   0  0  0  0  0  0  0  0  0  0  0  0
  194.8700  174.5690  145.2930 C   0  0  1  0  0  3  0  0  0  0  0  0
  196.1870  174.8000  143.2940 O   0  0  0  0  0  0  0  0  0  0  0  0
  197.0880  175.6490  142.6230 C   0  0  0  0  0  2  0  0  0  0  0  0
  197.0680  177.0150  143.1670 N   0  0  0  0  0  1  0  0  0  0  0  0
  2 42  1  1  0  0  0
  2  9  1  0  0  0  0
  3  6  1  1  0  0  0
  3  8  1  0  0  0  0
  3 16  1  0  0  0  0
  4  1  1  0  0  0  0
  4 57  1  1  0  0  0
  5  6  1  1  0  0  0
  5 10  1  0  0  0  0
  5  7  1  0  0  0  0
  7  8  1  6  0  0  0
  7  4  1  0  0  0  0
  9  1  1  0  0  0  0
 10  2  1  0  0  0  0
 13 17  1  1  0  0  0
 13 12  1  0  0  0  0
 14 15  1  0  0  0  0
 15 12  1  0  0  0  0
 15 11  2  0  0  0  0
 16 13  1  0  0  0  0
 16 14  1  6  0  0  0
 18 21  1  6  0  0  0
 18 17  1  0  0  0  0
 19 21  2  0  0  0  0
 21 20  1  0  0  0  0
 22 23  2  1  0  0  0
 22 18  1  0  0  0  0
 25 24  1  6  0  0  0
 25 22  1  0  0  0  0
 26 25  1  0  0  0  0
 27 26  1  0  0  0  0
 28 27  1  0  0  0  0
 29 28  1  0  0  0  0
 30 29  1  0  0  0  0
 31 30  1  0  0  0  0
 31 33  1  0  0  0  0
 32 38  1  0  0  0  0
 32 35  1  0  0  0  0
 33 32  2  0  0  0  0
 34 35  2  0  0  0  0
 35 36  1  0  0  0  0
 35 37  1  0  0  0  0
 38 40  1  0  0  0  0
 40 39  2  0  0  0  0
 41 44  1  0  0  0  0
 43 42  2  0  0  0  0
 44 43  2  0  0  0  0
 44 45  1  0  0  0  0
 45 46  1  1  0  0  0
 45 47  1  0  0  0  0
 47 48  1  0  0  0  0
 49 48  1  6  0  0  0
 49 51  1  0  0  0  0
 51 52  1  0  0  0  0
 51 50  1  1  0  0  0
 53 52  1  0  0  0  0
 54 49  1  0  0  0  0
 54 56  1  0  0  0  0
 56 55  1  0  0  0  0
 57 58  1  0  0  0  0
 58 59  1  0  0  0  0
 60 63  1  6  0  0  0
 60 62  1  0  0  0  0
 60 61  1  0  0  0  0
 62 61  1  0  0  0  0
 62 59  1  1  0  0  0
 64 65  1  0  0  0  0
 64 63  1  0  0  0  0
M  END
>  <MODEL>
5

>  <REMARK>
 VINA RESULT:      -4.1      2.988      6.864
  Name = 
  31 active torsions:
  status: ('A' for Active; 'I' for Inactive)
    1  A    between atoms: C_2  and  O_28
    2  A    between atoms: C_2  and  C_57
    3  A    between atoms: O_3  and  C_24
    4  A    between atoms: O_3  and  C_34
    5  A    between atoms: C_8  and  C_26
    6  A    between atoms: O_9  and  C_30
    7  A    between atoms: O_9  and  C_53
    8  A    between atoms: N_10  and  C_38
    9  A    between atoms: N_10  and  C_55
   10  A    between atoms: C_12  and  C_60
   11  A    between atoms: C_14  and  C_38
   12  A    between atoms: C_14  and  C_44
   13  A    between atoms: C_15  and  C_39
   14  A    between atoms: C_18  and  C_52
   15  A    between atoms: S_21  and  C_61
   16  A    between atoms: S_21  and  C_65
   17  A    between atoms: C_23  and  C_29
   18  A    between atoms: C_23  and  C_33
   19  A    between atoms: O_28  and  C_59
   20  A    between atoms: C_31  and  C_42
   21  A    between atoms: C_31  and  C_52
   22  A    between atoms: C_31  and  C_59
   23  A    between atoms: C_33  and  P_35
   24  A    between atoms: C_39  and  C_61
   25  A    between atoms: S_40  and  C_53
   26  A    between atoms: S_40  and  C_56
   27  A    between atoms: C_42  and  O_62
   28  A    between atoms: C_44  and  C_45
   29  A    between atoms: C_53  and  C_58
   30  A    between atoms: C_55  and  C_63
   31  A    between atoms: C_56  and  C_63
                            x       y       z     vdW  Elec       q    Type
                         _______ _______ _______ _____ _____    ______ ____

>  <TORSDO>
F 31

$$$$
=
 OpenBabel11072409113D

 65 68  0  0  1  0  0  0  0  0999 V2000
  189.5200  176.3060  144.0200 O   0  0  0  0  0  0  0  0  0  0  0  0
  189.6060  176.8150  146.3980 C   0  0  2  0  0  3  0  0  0  0  0  0
  192.4910  173.8870  145.7260 C   0  0  1  0  0  3  0  0  0  0  0  0
  190.5370  175.3600  143.8120 C   0  0  1  0  0  3  0  0  0  0  0  0
  190.1340  174.2890  146.1420 C   0  0  2  0  0  3  0  0  0  0  0  0
  191.5150  174.4150  146.7730 C   0  0  0  0  0  2  0  0  0  0  0  0
  190.3050  174.0650  144.6310 C   0  0  2  0  0  3  0  0  0  0  0  0
  191.6090  173.2680  144.6410 C   0  0  0  0  0  2  0  0  0  0  0  0
  190.0680  177.1620  144.9730 C   0  0  0  0  0  2  0  0  0  0  0  0
  189.1310  175.3680  146.5390 C   0  0  0  0  0  2  0  0  0  0  0  0
  194.9300  178.0720  145.5760 C   0  0  0  0  0  2  0  0  0  0  0  0
  194.8640  176.2300  143.9350 C   0  0  0  0  0  2  0  0  0  0  0  0
  194.4040  174.8010  144.1580 C   0  0  1  0  0  3  0  0  0  0  0  0
  193.7260  176.0610  146.0470 N   0  0  0  0  0  2  0  0  0  0  0  0
  194.6710  176.8030  145.2920 C   0  0  0  0  0  0  0  0  0  0  0  0
  193.2380  175.0620  145.1100 C   0  0  2  0  0  3  0  0  0  0  0  0
  194.0020  174.1990  142.9660 O   0  0  0  0  0  0  0  0  0  0  0  0
  194.7710  173.0140  142.7610 C   0  0  2  0  0  3  0  0  0  0  0  0
  194.6050  170.5650  142.4550 O   0  0  0  0  0  1  0  0  0  0  0  0
  192.7960  171.8450  141.9260 O   0  0  0  0  0  0  0  0  0  0  0  0
  193.9850  171.7910  142.3520 C   0  0  0  0  0  0  0  0  0  0  0  0
  196.1110  172.7150  143.9740 S   0  0  2  0  0  0  0  0  0  0  0  0
  196.5680  174.1150  144.3530 O   0  0  0  0  0  0  0  0  0  0  0  0
  197.5310  170.6180  143.1720 F   0  0  0  0  0  0  0  0  0  0  0  0
  197.5280  172.0010  143.0530 C   0  0  1  0  0  3  0  0  0  0  0  0
  197.4650  172.4430  141.5960 C   0  0  0  0  0  2  0  0  0  0  0  0
  197.9200  173.8840  141.3540 C   0  0  0  0  0  2  0  0  0  0  0  0
  197.7200  174.2950  139.9620 N   0  0  0  0  0  2  0  0  0  0  0  0
  197.0930  173.1640  139.2980 C   0  0  0  0  0  2  0  0  0  0  0  0
  197.8680  172.8060  138.0440 C   0  0  0  0  0  2  0  0  0  0  0  0
  197.2640  171.6220  137.2980 C   0  0  0  0  0  2  0  0  0  0  0  0
  195.3150  170.5150  138.4280 C   0  0  0  0  0  0  0  0  0  0  0  0
  195.8130  171.4690  137.6270 C   0  0  0  0  0  3  0  0  0  0  0  0
  193.0020  169.6250  137.0020 O   0  0  0  0  0  0  0  0  0  0  0  0
  193.5300  170.3420  138.4460 P   0  0  0  0  0  0  0  0  0  0  0  0
  193.1030  169.3270  139.7380 O   0  0  0  0  0  1  0  0  0  0  0  0
  192.8520  171.6930  138.6190 O   0  0  0  0  0  1  0  0  0  0  0  0
  196.1460  169.3970  138.9730 C   0  0  0  0  0  2  0  0  0  0  0  0
  196.3570  168.1660  137.0020 O   0  0  0  0  0  0  0  0  0  0  0  0
  195.9740  168.1680  138.1610 C   0  0  0  0  0  3  0  0  0  0  0  0
  185.1590  176.3540  146.7290 C   0  0  0  0  0  1  0  0  0  0  0  0
  188.4770  177.7010  146.7580 C   0  0  0  0  0  3  0  0  0  0  0  0
  187.2650  177.4610  146.3360 C   0  0  0  0  0  0  0  0  0  0  0  0
  186.0260  177.2960  145.9570 C   0  0  0  0  0  0  0  0  0  0  0  0
  185.3590  178.3650  145.1480 C   0  0  1  0  0  3  0  0  0  0  0  0
  184.6650  179.2590  145.9770 O   0  0  0  0  0  1  0  0  0  0  0  0
  186.3020  179.0460  144.3660 O   0  0  0  0  0  0  0  0  0  0  0  0
  185.5680  179.6920  143.3380 C   0  0  0  0  0  2  0  0  0  0  0  0
  185.3060  178.7340  142.1510 C   0  0  1  0  0  3  0  0  0  0  0  0
  187.6990  178.5250  142.3870 O   0  0  0  0  0  1  0  0  0  0  0  0
  186.5850  177.9680  141.7640 C   0  0  2  0  0  3  0  0  0  0  0  0
  186.8320  177.9380  140.2540 C   0  0  0  0  0  2  0  0  0  0  0  0
  186.0540  176.9520  139.6470 O   0  0  0  0  0  1  0  0  0  0  0  0
  184.1250  177.8140  142.4760 C   0  0  0  0  0  2  0  0  0  0  0  0
  183.3440  178.5280  140.5960 O   0  0  0  0  0  1  0  0  0  0  0  0
  182.9570  178.2490  141.8280 O   0  0  0  0  0  0  0  0  0  0  0  0
  190.7950  175.0790  142.3230 C   0  0  0  0  0  2  0  0  0  0  0  0
  189.9460  173.9470  141.7390 C   0  0  0  0  0  2  0  0  0  0  0  0
  188.5100  174.5890  140.7880 S   0  0  0  0  0  0  0  0  0  0  0  0
  189.1080  173.7130  138.3030 C   0  0  2  0  0  3  0  0  0  0  0  0
  189.9140  172.9560  139.1890 O   0  0  0  0  0  0  0  0  0  0  0  0
  188.5820  173.1970  139.5940 C   0  0  1  0  0  3  0  0  0  0  0  0
  188.7230  172.9110  137.2110 O   0  0  0  0  0  0  0  0  0  0  0  0
  189.8800  172.3530  136.6310 C   0  0  0  0  0  2  0  0  0  0  0  0
  189.5570  171.4470  135.5200 N   0  0  0  0  0  1  0  0  0  0  0  0
  1  9  1  0  0  0  0
  2 10  1  0  0  0  0
  2 42  1  6  0  0  0
  3  8  1  6  0  0  0
  3  6  1  0  0  0  0
  4 57  1  6  0  0  0
  4  1  1  0  0  0  0
  4  7  1  0  0  0  0
  5 10  1  6  0  0  0
  5  6  1  0  0  0  0
  7  8  1  1  0  0  0
  7  5  1  0  0  0  0
  9  2  1  0  0  0  0
 12 13  1  0  0  0  0
 12 15  1  0  0  0  0
 13 17  1  6  0  0  0
 13 16  1  0  0  0  0
 15 11  2  0  0  0  0
 15 14  1  0  0  0  0
 16  3  1  0  0  0  0
 16 14  1  1  0  0  0
 18 21  1  1  0  0  0
 18 17  1  0  0  0  0
 18 22  1  0  0  0  0
 20 21  2  0  0  0  0
 21 19  1  0  0  0  0
 22 23  2  6  0  0  0
 25 24  1  6  0  0  0
 25 22  1  0  0  0  0
 26 25  1  0  0  0  0
 27 26  1  0  0  0  0
 28 27  1  0  0  0  0
 29 28  1  0  0  0  0
 30 29  1  0  0  0  0
 31 33  1  0  0  0  0
 31 30  1  0  0  0  0
 32 35  1  0  0  0  0
 32 38  1  0  0  0  0
 33 32  2  0  0  0  0
 34 35  2  0  0  0  0
 35 37  1  0  0  0  0
 35 36  1  0  0  0  0
 39 40  2  0  0  0  0
 40 38  1  0  0  0  0
 43 42  2  0  0  0  0
 44 43  2  0  0  0  0
 44 41  1  0  0  0  0
 45 44  1  0  0  0  0
 45 46  1  1  0  0  0
 47 45  1  0  0  0  0
 48 47  1  0  0  0  0
 49 54  1  1  0  0  0
 49 48  1  0  0  0  0
 51 49  1  0  0  0  0
 51 50  1  1  0  0  0
 52 51  1  0  0  0  0
 53 52  1  0  0  0  0
 55 56  1  0  0  0  0
 56 54  1  0  0  0  0
 58 57  1  0  0  0  0
 59 58  1  0  0  0  0
 60 63  1  6  0  0  0
 60 61  1  0  0  0  0
 60 62  1  0  0  0  0
 61 62  1  0  0  0  0
 62 59  1  1  0  0  0
 64 63  1  0  0  0  0
 65 64  1  0  0  0  0
M  END
>  <MODEL>
6

>  <REMARK>
 VINA RESULT:      -3.9      2.861      5.072
  Name = 
  31 active torsions:
  status: ('A' for Active; 'I' for Inactive)
    1  A    between atoms: C_2  and  O_28
    2  A    between atoms: C_2  and  C_57
    3  A    between atoms: O_3  and  C_24
    4  A    between atoms: O_3  and  C_34
    5  A    between atoms: C_8  and  C_26
    6  A    between atoms: O_9  and  C_30
    7  A    between atoms: O_9  and  C_53
    8  A    between atoms: N_10  and  C_38
    9  A    between atoms: N_10  and  C_55
   10  A    between atoms: C_12  and  C_60
   11  A    between atoms: C_14  and  C_38
   12  A    between atoms: C_14  and  C_44
   13  A    between atoms: C_15  and  C_39
   14  A    between atoms: C_18  and  C_52
   15  A    between atoms: S_21  and  C_61
   16  A    between atoms: S_21  and  C_65
   17  A    between atoms: C_23  and  C_29
   18  A    between atoms: C_23  and  C_33
   19  A    between atoms: O_28  and  C_59
   20  A    between atoms: C_31  and  C_42
   21  A    between atoms: C_31  and  C_52
   22  A    between atoms: C_31  and  C_59
   23  A    between atoms: C_33  and  P_35
   24  A    between atoms: C_39  and  C_61
   25  A    between atoms: S_40  and  C_53
   26  A    between atoms: S_40  and  C_56
   27  A    between atoms: C_42  and  O_62
   28  A    between atoms: C_44  and  C_45
   29  A    between atoms: C_53  and  C_58
   30  A    between atoms: C_55  and  C_63
   31  A    between atoms: C_56  and  C_63
                            x       y       z     vdW  Elec       q    Type
                         _______ _______ _______ _____ _____    ______ ____

>  <TORSDO>
F 31

$$$$
=
 OpenBabel11072409113D

 65 68  0  0  1  0  0  0  0  0999 V2000
  188.4990  174.0800  139.1270 O   0  0  0  0  0  0  0  0  0  0  0  0
  188.5560  173.9430  141.5560 C   0  0  2  0  0  3  0  0  0  0  0  0
  191.3320  171.1680  140.1640 C   0  0  1  0  0  3  0  0  0  0  0  0
  189.4810  173.1780  138.6870 C   0  0  1  0  0  3  0  0  0  0  0  0
  188.9860  171.5520  140.6490 C   0  0  2  0  0  3  0  0  0  0  0  0
  190.3570  171.4450  141.3040 C   0  0  0  0  0  2  0  0  0  0  0  0
  189.1790  171.7250  139.1340 C   0  0  2  0  0  3  0  0  0  0  0  0
  190.4490  170.8960  138.9470 C   0  0  0  0  0  2  0  0  0  0  0  0
  189.0620  174.6310  140.2770 C   0  0  0  0  0  2  0  0  0  0  0  0
  188.0200  172.5330  141.3060 C   0  0  0  0  0  2  0  0  0  0  0  0
  193.0820  175.6270  140.8950 C   0  0  0  0  0  2  0  0  0  0  0  0
  193.9780  173.7940  139.5080 C   0  0  0  0  0  2  0  0  0  0  0  0
  193.6320  172.3180  139.5790 C   0  0  1  0  0  3  0  0  0  0  0  0
  192.0320  173.4800  140.8850 N   0  0  0  0  0  2  0  0  0  0  0  0
  193.1260  174.3370  140.5970 C   0  0  0  0  0  0  0  0  0  0  0  0
  192.1400  172.4290  139.8870 C   0  0  2  0  0  3  0  0  0  0  0  0
  193.8880  171.6710  138.3710 O   0  0  0  0  0  0  0  0  0  0  0  0
  194.9550  170.7430  138.5560 C   0  0  2  0  0  3  0  0  0  0  0  0
  195.5630  170.2850  136.2020 O   0  0  0  0  0  0  0  0  0  0  0  0
  197.1900  171.0290  137.6130 O   0  0  0  0  0  1  0  0  0  0  0  0
  195.9810  170.7010  137.4470 C   0  0  0  0  0  0  0  0  0  0  0  0
  194.4820  169.1140  139.2480 S   0  0  2  0  0  0  0  0  0  0  0  0
  193.1020  168.8630  138.6600 O   0  0  0  0  0  0  0  0  0  0  0  0
  193.6220  168.2070  141.5920 F   0  0  0  0  0  0  0  0  0  0  0  0
  194.1810  169.3530  141.0420 C   0  0  1  0  0  3  0  0  0  0  0  0
  195.4840  169.7330  141.7320 C   0  0  0  0  0  2  0  0  0  0  0  0
  195.3520  169.9790  143.2380 C   0  0  0  0  0  2  0  0  0  0  0  0
  196.4690  170.7690  143.7630 N   0  0  0  0  0  2  0  0  0  0  0  0
  196.2160  170.9190  145.1870 C   0  0  0  0  0  2  0  0  0  0  0  0
  197.2920  171.7870  145.8130 C   0  0  0  0  0  2  0  0  0  0  0  0
  196.8910  173.2550  145.8910 C   0  0  0  0  0  2  0  0  0  0  0  0
  194.8430  174.5110  145.1640 C   0  0  0  0  0  0  0  0  0  0  0  0
  195.4190  173.4170  145.6850 C   0  0  0  0  0  3  0  0  0  0  0  0
  192.4650  175.7850  144.2170 O   0  0  0  0  0  0  0  0  0  0  0  0
  193.0560  174.6040  145.2810 P   0  0  0  0  0  0  0  0  0  0  0  0
  192.4100  173.1010  144.8290 O   0  0  0  0  0  1  0  0  0  0  0  0
  192.6190  174.9360  146.7010 O   0  0  0  0  0  1  0  0  0  0  0  0
  195.6050  175.7630  144.8600 C   0  0  0  0  0  2  0  0  0  0  0  0
  195.7870  174.8370  142.7250 O   0  0  0  0  0  0  0  0  0  0  0  0
  195.9710  175.8210  143.4230 C   0  0  0  0  0  3  0  0  0  0  0  0
  186.4280  177.7140  140.3950 C   0  0  0  0  0  1  0  0  0  0  0  0
  187.4570  174.7530  142.1250 C   0  0  0  0  0  3  0  0  0  0  0  0
  187.3400  176.0240  141.8540 C   0  0  0  0  0  0  0  0  0  0  0  0
  187.1500  177.2980  141.6360 C   0  0  0  0  0  0  0  0  0  0  0  0
  187.1690  178.2500  142.7930 C   0  0  1  0  0  3  0  0  0  0  0  0
  186.4310  179.4070  142.4990 O   0  0  0  0  0  1  0  0  0  0  0  0
  186.6720  177.6260  143.9460 O   0  0  0  0  0  0  0  0  0  0  0  0
  186.5450  178.6480  144.9220 C   0  0  0  0  0  2  0  0  0  0  0  0
  186.2680  178.0510  146.3240 C   0  0  1  0  0  3  0  0  0  0  0  0
  187.9500  178.4400  148.0110 O   0  0  0  0  0  1  0  0  0  0  0  0
  187.5720  177.5730  146.9900 C   0  0  2  0  0  3  0  0  0  0  0  0
  188.7360  177.4420  146.0030 C   0  0  0  0  0  2  0  0  0  0  0  0
  188.9170  176.1110  145.6300 O   0  0  0  0  0  1  0  0  0  0  0  0
  185.4900  179.0610  147.1740 C   0  0  0  0  0  2  0  0  0  0  0  0
  183.7630  178.3030  146.1260 O   0  0  0  0  0  1  0  0  0  0  0  0
  184.1550  178.6540  147.3370 O   0  0  0  0  0  0  0  0  0  0  0  0
  189.7580  173.2850  137.1790 C   0  0  0  0  0  2  0  0  0  0  0  0
  191.1580  172.8290  136.7610 C   0  0  0  0  0  2  0  0  0  0  0  0
  191.6470  173.5240  135.1320 S   0  0  0  0  0  0  0  0  0  0  0  0
  194.1390  174.5610  134.9880 C   0  0  2  0  0  3  0  0  0  0  0  0
  193.2580  175.6680  135.0460 O   0  0  0  0  0  0  0  0  0  0  0  0
  192.9530  174.5720  135.8850 C   0  0  1  0  0  3  0  0  0  0  0  0
  195.3300  174.8660  135.6740 O   0  0  0  0  0  0  0  0  0  0  0  0
  196.2560  175.4000  134.7550 C   0  0  0  0  0  2  0  0  0  0  0  0
  196.6230  176.7850  135.0860 N   0  0  0  0  0  1  0  0  0  0  0  0
  1  9  1  0  0  0  0
  2 42  1  6  0  0  0
  3  8  1  6  0  0  0
  3  6  1  0  0  0  0
  4 57  1  6  0  0  0
  4  1  1  0  0  0  0
  4  7  1  0  0  0  0
  5  6  1  1  0  0  0
  5 10  1  0  0  0  0
  7  8  1  1  0  0  0
  7  5  1  0  0  0  0
  9  2  1  0  0  0  0
 10  2  1  0  0  0  0
 12 13  1  0  0  0  0
 12 15  1  0  0  0  0
 13 17  1  6  0  0  0
 13 16  1  0  0  0  0
 15 14  1  0  0  0  0
 15 11  2  0  0  0  0
 16  3  1  0  0  0  0
 16 14  1  1  0  0  0
 17 18  1  0  0  0  0
 18 21  1  6  0  0  0
 18 22  1  0  0  0  0
 19 21  2  0  0  0  0
 21 20  1  0  0  0  0
 22 23  2  6  0  0  0
 22 25  1  0  0  0  0
 25 24  1  1  0  0  0
 25 26  1  0  0  0  0
 26 27  1  0  0  0  0
 27 28  1  0  0  0  0
 28 29  1  0  0  0  0
 29 30  1  0  0  0  0
 30 31  1  0  0  0  0
 32 35  1  0  0  0  0
 32 33  2  0  0  0  0
 33 31  1  0  0  0  0
 34 35  2  0  0  0  0
 35 37  1  0  0  0  0
 36 35  1  0  0  0  0
 38 32  1  0  0  0  0
 39 40  2  0  0  0  0
 40 38  1  0  0  0  0
 41 44  1  0  0  0  0
 43 42  2  0  0  0  0
 44 43  2  0  0  0  0
 44 45  1  0  0  0  0
 45 46  1  6  0  0  0
 45 47  1  0  0  0  0
 47 48  1  0  0  0  0
 49 48  1  6  0  0  0
 49 51  1  0  0  0  0
 49 54  1  0  0  0  0
 51 50  1  1  0  0  0
 52 51  1  0  0  0  0
 53 52  1  0  0  0  0
 54 56  1  0  0  0  0
 55 56  1  0  0  0  0
 58 57  1  0  0  0  0
 59 58  1  0  0  0  0
 60 61  1  0  0  0  0
 60 63  1  1  0  0  0
 60 62  1  0  0  0  0
 61 62  1  0  0  0  0
 62 59  1  6  0  0  0
 64 65  1  0  0  0  0
 64 63  1  0  0  0  0
M  END
>  <MODEL>
7

>  <REMARK>
 VINA RESULT:      -3.5      2.175      3.638
  Name = 
  31 active torsions:
  status: ('A' for Active; 'I' for Inactive)
    1  A    between atoms: C_2  and  O_28
    2  A    between atoms: C_2  and  C_57
    3  A    between atoms: O_3  and  C_24
    4  A    between atoms: O_3  and  C_34
    5  A    between atoms: C_8  and  C_26
    6  A    between atoms: O_9  and  C_30
    7  A    between atoms: O_9  and  C_53
    8  A    between atoms: N_10  and  C_38
    9  A    between atoms: N_10  and  C_55
   10  A    between atoms: C_12  and  C_60
   11  A    between atoms: C_14  and  C_38
   12  A    between atoms: C_14  and  C_44
   13  A    between atoms: C_15  and  C_39
   14  A    between atoms: C_18  and  C_52
   15  A    between atoms: S_21  and  C_61
   16  A    between atoms: S_21  and  C_65
   17  A    between atoms: C_23  and  C_29
   18  A    between atoms: C_23  and  C_33
   19  A    between atoms: O_28  and  C_59
   20  A    between atoms: C_31  and  C_42
   21  A    between atoms: C_31  and  C_52
   22  A    between atoms: C_31  and  C_59
   23  A    between atoms: C_33  and  P_35
   24  A    between atoms: C_39  and  C_61
   25  A    between atoms: S_40  and  C_53
   26  A    between atoms: S_40  and  C_56
   27  A    between atoms: C_42  and  O_62
   28  A    between atoms: C_44  and  C_45
   29  A    between atoms: C_53  and  C_58
   30  A    between atoms: C_55  and  C_63
   31  A    between atoms: C_56  and  C_63
                            x       y       z     vdW  Elec       q    Type
                         _______ _______ _______ _____ _____    ______ ____

>  <TORSDO>
F 31

$$$$
=
 OpenBabel11072409113D

 65 68  0  0  1  0  0  0  0  0999 V2000
  189.2080  173.7730  139.1290 O   0  0  0  0  0  0  0  0  0  0  0  0
  189.4340  173.2280  141.4900 C   0  0  2  0  0  3  0  0  0  0  0  0
  191.9260  170.5940  139.4410 C   0  0  1  0  0  3  0  0  0  0  0  0
  190.0980  172.9110  138.4680 C   0  0  1  0  0  3  0  0  0  0  0  0
  189.6490  171.0050  140.1720 C   0  0  2  0  0  3  0  0  0  0  0  0
  191.0560  170.7240  140.6860 C   0  0  0  0  0  2  0  0  0  0  0  0
  189.7410  171.4200  138.6960 C   0  0  2  0  0  3  0  0  0  0  0  0
  190.9410  170.5730  138.2710 C   0  0  0  0  0  2  0  0  0  0  0  0
  189.8860  174.0960  140.3030 C   0  0  0  0  0  2  0  0  0  0  0  0
  188.7960  171.9080  141.0590 C   0  0  0  0  0  2  0  0  0  0  0  0
  193.8800  174.8510  140.6820 C   0  0  0  0  0  2  0  0  0  0  0  0
  194.6810  173.1640  139.0710 C   0  0  0  0  0  2  0  0  0  0  0  0
  194.2700  171.7050  138.9680 C   0  0  1  0  0  3  0  0  0  0  0  0
  192.7340  172.7690  140.4260 N   0  0  0  0  0  2  0  0  0  0  0  0
  193.8630  173.6060  140.2290 C   0  0  0  0  0  0  0  0  0  0  0  0
  192.7860  171.8430  139.3060 C   0  0  2  0  0  3  0  0  0  0  0  0
  194.4860  171.2000  137.6860 O   0  0  0  0  0  0  0  0  0  0  0  0
  195.8640  170.8540  137.5490 C   0  0  2  0  0  3  0  0  0  0  0  0
  195.5700  171.0860  135.1040 O   0  0  0  0  0  0  0  0  0  0  0  0
  197.6860  171.1360  135.9480 O   0  0  0  0  0  1  0  0  0  0  0  0
  196.4460  171.0320  136.1670 C   0  0  0  0  0  0  0  0  0  0  0  0
  196.3950  169.3390  138.4330 S   0  0  2  0  0  0  0  0  0  0  0  0
  195.2170  168.3930  138.2580 O   0  0  0  0  0  0  0  0  0  0  0  0
  196.5040  168.5650  140.9720 F   0  0  0  0  0  0  0  0  0  0  0  0
  196.4070  169.7320  140.2250 C   0  0  1  0  0  3  0  0  0  0  0  0
  197.5470  170.6950  140.5290 C   0  0  0  0  0  2  0  0  0  0  0  0
  197.6500  171.1070  142.0000 C   0  0  0  0  0  2  0  0  0  0  0  0
  197.5590  172.5590  142.1690 N   0  0  0  0  0  2  0  0  0  0  0  0
  197.2670  172.7800  143.5760 C   0  0  0  0  0  2  0  0  0  0  0  0
  197.3340  174.2640  143.8900 C   0  0  0  0  0  2  0  0  0  0  0  0
  196.0690  175.0080  143.4820 C   0  0  0  0  0  2  0  0  0  0  0  0
  193.7590  175.0350  144.4640 C   0  0  0  0  0  0  0  0  0  0  0  0
  194.8570  174.3670  144.0790 C   0  0  0  0  0  3  0  0  0  0  0  0
  192.1890  174.9360  146.8510 O   0  0  0  0  0  1  0  0  0  0  0  0
  192.5550  174.1090  145.4160 P   0  0  0  0  0  0  0  0  0  0  0  0
  191.1350  173.9720  144.4980 O   0  0  0  0  0  0  0  0  0  0  0  0
  193.0770  172.7190  145.7510 O   0  0  0  0  0  1  0  0  0  0  0  0
  193.6790  176.5290  144.4720 C   0  0  0  0  0  2  0  0  0  0  0  0
  192.3360  177.5110  142.8350 O   0  0  0  0  0  0  0  0  0  0  0  0
  192.3740  176.9910  143.9380 C   0  0  0  0  0  3  0  0  0  0  0  0
  188.4050  177.5570  142.0390 C   0  0  0  0  0  1  0  0  0  0  0  0
  188.4320  173.9840  142.2720 C   0  0  0  0  0  3  0  0  0  0  0  0
  188.6350  175.2260  142.6170 C   0  0  0  0  0  0  0  0  0  0  0  0
  188.7580  176.4680  143.0020 C   0  0  0  0  0  0  0  0  0  0  0  0
  188.7350  176.7870  144.4650 C   0  0  1  0  0  3  0  0  0  0  0  0
  189.2140  178.0850  144.7020 O   0  0  0  0  0  1  0  0  0  0  0  0
  187.4390  176.6360  144.9770 O   0  0  0  0  0  0  0  0  0  0  0  0
  186.9450  177.9500  145.1900 C   0  0  0  0  0  2  0  0  0  0  0  0
  185.5030  177.9210  145.7520 C   0  0  1  0  0  3  0  0  0  0  0  0
  184.3520  178.1620  147.8600 O   0  0  0  0  0  1  0  0  0  0  0  0
  185.5050  177.6540  147.2690 C   0  0  2  0  0  3  0  0  0  0  0  0
  186.7230  178.2490  147.9800 C   0  0  0  0  0  2  0  0  0  0  0  0
  186.5470  179.6150  148.1990 O   0  0  0  0  0  1  0  0  0  0  0  0
  184.7690  179.2080  145.3650 C   0  0  0  0  0  2  0  0  0  0  0  0
  185.4150  181.0800  144.5100 O   0  0  0  0  0  1  0  0  0  0  0  0
  185.3470  179.7920  144.2260 O   0  0  0  0  0  0  0  0  0  0  0  0
  190.2710  173.2560  136.9800 C   0  0  0  0  0  2  0  0  0  0  0  0
  191.4480  172.5520  136.3020 C   0  0  0  0  0  2  0  0  0  0  0  0
  192.1590  173.5620  134.9420 S   0  0  0  0  0  0  0  0  0  0  0  0
  194.2210  175.2700  135.3050 C   0  0  2  0  0  3  0  0  0  0  0  0
  193.3490  175.4730  136.4020 O   0  0  0  0  0  0  0  0  0  0  0  0
  193.5510  174.1350  135.9930 C   0  0  1  0  0  3  0  0  0  0  0  0
  195.5560  175.4360  135.7240 O   0  0  0  0  0  0  0  0  0  0  0  0
  196.1420  176.4700  134.9670 C   0  0  0  0  0  2  0  0  0  0  0  0
  197.6080  176.3680  134.9380 N   0  0  0  0  0  1  0  0  0  0  0  0
  1  9  1  0  0  0  0
  2 42  1  6  0  0  0
  3  8  1  6  0  0  0
  3  6  1  0  0  0  0
  4 57  1  6  0  0  0
  4  7  1  0  0  0  0
  4  1  1  0  0  0  0
  5  6  1  1  0  0  0
  5 10  1  0  0  0  0
  7  8  1  6  0  0  0
  7  5  1  0  0  0  0
  9  2  1  0  0  0  0
 10  2  1  0  0  0  0
 12 15  1  0  0  0  0
 13 17  1  6  0  0  0
 13 12  1  0  0  0  0
 13 16  1  0  0  0  0
 15 14  1  0  0  0  0
 15 11  2  0  0  0  0
 16  3  1  0  0  0  0
 16 14  1  1  0  0  0
 18 21  1  6  0  0  0
 18 17  1  0  0  0  0
 18 22  1  0  0  0  0
 19 21  2  0  0  0  0
 20 21  1  0  0  0  0
 22 23  2  1  0  0  0
 22 25  1  0  0  0  0
 25 26  1  0  0  0  0
 25 24  1  1  0  0  0
 26 27  1  0  0  0  0
 27 28  1  0  0  0  0
 28 29  1  0  0  0  0
 29 30  1  0  0  0  0
 31 30  1  0  0  0  0
 31 33  1  0  0  0  0
 32 38  1  0  0  0  0
 32 35  1  0  0  0  0
 33 32  2  0  0  0  0
 35 37  1  0  0  0  0
 35 34  1  0  0  0  0
 36 35  2  0  0  0  0
 39 40  2  0  0  0  0
 40 38  1  0  0  0  0
 41 44  1  0  0  0  0
 42 43  2  0  0  0  0
 43 44  2  0  0  0  0
 44 45  1  0  0  0  0
 45 46  1  6  0  0  0
 45 47  1  0  0  0  0
 47 48  1  0  0  0  0
 49 48  1  1  0  0  0
 49 51  1  0  0  0  0
 51 50  1  1  0  0  0
 51 52  1  0  0  0  0
 52 53  1  0  0  0  0
 54 49  1  0  0  0  0
 56 55  1  0  0  0  0
 56 54  1  0  0  0  0
 58 57  1  0  0  0  0
 59 58  1  0  0  0  0
 60 63  1  1  0  0  0
 60 62  1  0  0  0  0
 60 61  1  0  0  0  0
 62 59  1  6  0  0  0
 62 61  1  0  0  0  0
 64 63  1  0  0  0  0
 65 64  1  0  0  0  0
M  END
>  <MODEL>
8

>  <REMARK>
 VINA RESULT:      -3.3      2.672      4.167
  Name = 
  31 active torsions:
  status: ('A' for Active; 'I' for Inactive)
    1  A    between atoms: C_2  and  O_28
    2  A    between atoms: C_2  and  C_57
    3  A    between atoms: O_3  and  C_24
    4  A    between atoms: O_3  and  C_34
    5  A    between atoms: C_8  and  C_26
    6  A    between atoms: O_9  and  C_30
    7  A    between atoms: O_9  and  C_53
    8  A    between atoms: N_10  and  C_38
    9  A    between atoms: N_10  and  C_55
   10  A    between atoms: C_12  and  C_60
   11  A    between atoms: C_14  and  C_38
   12  A    between atoms: C_14  and  C_44
   13  A    between atoms: C_15  and  C_39
   14  A    between atoms: C_18  and  C_52
   15  A    between atoms: S_21  and  C_61
   16  A    between atoms: S_21  and  C_65
   17  A    between atoms: C_23  and  C_29
   18  A    between atoms: C_23  and  C_33
   19  A    between atoms: O_28  and  C_59
   20  A    between atoms: C_31  and  C_42
   21  A    between atoms: C_31  and  C_52
   22  A    between atoms: C_31  and  C_59
   23  A    between atoms: C_33  and  P_35
   24  A    between atoms: C_39  and  C_61
   25  A    between atoms: S_40  and  C_53
   26  A    between atoms: S_40  and  C_56
   27  A    between atoms: C_42  and  O_62
   28  A    between atoms: C_44  and  C_45
   29  A    between atoms: C_53  and  C_58
   30  A    between atoms: C_55  and  C_63
   31  A    between atoms: C_56  and  C_63
                            x       y       z     vdW  Elec       q    Type
                         _______ _______ _______ _____ _____    ______ ____

>  <TORSDO>
F 31

$$$$
=
 OpenBabel11072409113D

 65 68  0  0  1  0  0  0  0  0999 V2000
  190.3890  176.7000  145.4410 O   0  0  0  0  0  0  0  0  0  0  0  0
  190.1200  176.8710  143.0280 C   0  0  2  0  0  3  0  0  0  0  0  0
  193.5550  174.6040  143.6620 C   0  0  1  0  0  3  0  0  0  0  0  0
  191.5180  175.8870  145.6260 C   0  0  1  0  0  3  0  0  0  0  0  0
  192.6680  176.8570  143.5100 C   0  0  2  0  0  3  0  0  0  0  0  0
  192.9140  175.5940  142.6950 C   0  0  0  0  0  2  0  0  0  0  0  0
  192.7930  176.5100  145.0020 C   0  0  2  0  0  3  0  0  0  0  0  0
  193.8630  175.4210  144.9170 C   0  0  0  0  0  2  0  0  0  0  0  0
  189.7640  176.1350  144.3300 C   0  0  0  0  0  2  0  0  0  0  0  0
  191.4280  177.6580  143.1220 C   0  0  0  0  0  2  0  0  0  0  0  0
  189.5170  171.9480  143.3130 C   0  0  0  0  0  2  0  0  0  0  0  0
  191.6350  171.4450  144.4750 C   0  0  0  0  0  2  0  0  0  0  0  0
  192.9890  172.1020  144.2700 C   0  0  1  0  0  3  0  0  0  0  0  0
  191.3820  173.4360  143.1500 N   0  0  0  0  0  2  0  0  0  0  0  0
  190.8120  172.1780  143.4790 C   0  0  0  0  0  0  0  0  0  0  0  0
  192.5310  173.5400  144.0330 C   0  0  2  0  0  3  0  0  0  0  0  0
  193.7980  171.9720  145.3970 O   0  0  0  0  0  0  0  0  0  0  0  0
  194.8170  171.0080  145.1300 C   0  0  2  0  0  3  0  0  0  0  0  0
  193.8110  168.8860  145.9080 O   0  0  0  0  0  0  0  0  0  0  0  0
  195.7250  169.6070  146.9110 O   0  0  0  0  0  1  0  0  0  0  0  0
  194.8290  169.8040  146.0430 C   0  0  0  0  0  0  0  0  0  0  0  0
  196.4650  171.6880  144.7070 S   0  0  2  0  0  0  0  0  0  0  0  0
  196.3150  173.1780  144.9750 O   0  0  0  0  0  0  0  0  0  0  0  0
  195.7790  170.6120  142.3780 F   0  0  0  0  0  0  0  0  0  0  0  0
  196.6520  171.5640  142.8860 C   0  0  1  0  0  3  0  0  0  0  0  0
  196.4270  172.9320  142.2550 C   0  0  0  0  0  2  0  0  0  0  0  0
  197.4470  173.3050  141.1770 C   0  0  0  0  0  2  0  0  0  0  0  0
  196.7990  173.7570  139.9430 N   0  0  0  0  0  2  0  0  0  0  0  0
  196.7830  172.6060  139.0560 C   0  0  0  0  0  2  0  0  0  0  0  0
  195.8220  172.8520  137.9070 C   0  0  0  0  0  2  0  0  0  0  0  0
  195.2360  171.5630  137.3450 C   0  0  0  0  0  2  0  0  0  0  0  0
  193.3120  170.2300  138.2510 C   0  0  0  0  0  0  0  0  0  0  0  0
  194.5180  170.7950  138.4080 C   0  0  0  0  0  3  0  0  0  0  0  0
  193.5940  168.6300  140.6030 O   0  0  0  0  0  1  0  0  0  0  0  0
  192.5190  169.6160  139.7380 P   0  0  0  0  0  0  0  0  0  0  0  0
  192.1050  170.9440  140.7110 O   0  0  0  0  0  1  0  0  0  0  0  0
  191.2640  168.8250  139.4010 O   0  0  0  0  0  0  0  0  0  0  0  0
  192.4750  170.4300  137.0270 C   0  0  0  0  0  2  0  0  0  0  0  0
  191.9420  172.5440  137.8590 O   0  0  0  0  0  0  0  0  0  0  0  0
  191.5690  171.5930  137.1910 C   0  0  0  0  0  3  0  0  0  0  0  0
  185.6480  176.6730  142.7890 C   0  0  0  0  0  1  0  0  0  0  0  0
  189.0360  177.8290  142.7150 C   0  0  0  0  0  3  0  0  0  0  0  0
  187.8800  177.4220  142.2660 C   0  0  0  0  0  0  0  0  0  0  0  0
  186.6980  177.1010  141.8140 C   0  0  0  0  0  0  0  0  0  0  0  0
  186.2510  177.6340  140.4870 C   0  0  1  0  0  3  0  0  0  0  0  0
  186.1790  179.0360  140.5110 O   0  0  0  0  0  1  0  0  0  0  0  0
  187.1140  177.2000  139.4710 O   0  0  0  0  0  0  0  0  0  0  0  0
  186.3820  176.2510  138.7120 C   0  0  0  0  0  2  0  0  0  0  0  0
  187.3260  175.3650  137.8630 C   0  0  1  0  0  3  0  0  0  0  0  0
  187.4350  177.2380  136.3430 O   0  0  0  0  0  1  0  0  0  0  0  0
  188.1940  176.2250  136.9230 C   0  0  2  0  0  3  0  0  0  0  0  0
  188.8580  175.4110  135.8100 C   0  0  0  0  0  2  0  0  0  0  0  0
  188.7580  176.0750  134.5870 O   0  0  0  0  0  1  0  0  0  0  0  0
  188.1480  174.4540  138.7790 C   0  0  0  0  0  2  0  0  0  0  0  0
  187.9230  172.3500  139.2020 O   0  0  0  0  0  1  0  0  0  0  0  0
  188.2730  173.1690  138.2260 O   0  0  0  0  0  0  0  0  0  0  0  0
  191.7210  175.4710  147.0910 C   0  0  0  0  0  2  0  0  0  0  0  0
  190.6950  176.0590  148.0620 C   0  0  0  0  0  2  0  0  0  0  0  0
  189.0380  175.2920  147.8540 S   0  0  0  0  0  0  0  0  0  0  0  0
  186.9110  176.5720  146.7850 C   0  0  2  0  0  3  0  0  0  0  0  0
  187.3220  177.3550  147.8920 O   0  0  0  0  0  0  0  0  0  0  0  0
  188.3480  176.8100  147.0860 C   0  0  1  0  0  3  0  0  0  0  0  0
  186.4330  177.4130  145.7610 O   0  0  0  0  0  0  0  0  0  0  0  0
  185.3340  178.1440  146.2540 C   0  0  0  0  0  2  0  0  0  0  0  0
  185.2180  179.4630  145.6150 N   0  0  0  0  0  1  0  0  0  0  0  0
  1  4  1  0  0  0  0
  2 42  1  1  0  0  0
  2 10  1  0  0  0  0
  2  9  1  0  0  0  0
  3  6  1  6  0  0  0
  3 16  1  0  0  0  0
  3  8  1  0  0  0  0
  4 57  1  1  0  0  0
  5  6  1  6  0  0  0
  5  7  1  0  0  0  0
  7  8  1  6  0  0  0
  7  4  1  0  0  0  0
  9  1  1  0  0  0  0
 10  5  1  0  0  0  0
 11 15  2  0  0  0  0
 13 12  1  0  0  0  0
 13 17  1  1  0  0  0
 14 15  1  0  0  0  0
 15 12  1  0  0  0  0
 16 14  1  6  0  0  0
 16 13  1  0  0  0  0
 18 17  1  1  0  0  0
 18 21  1  0  0  0  0
 19 21  2  0  0  0  0
 21 20  1  0  0  0  0
 22 23  2  6  0  0  0
 22 18  1  0  0  0  0
 25 24  1  6  0  0  0
 25 22  1  0  0  0  0
 26 25  1  0  0  0  0
 27 26  1  0  0  0  0
 28 27  1  0  0  0  0
 29 28  1  0  0  0  0
 30 29  1  0  0  0  0
 31 30  1  0  0  0  0
 31 33  1  0  0  0  0
 32 33  2  0  0  0  0
 32 35  1  0  0  0  0
 35 34  1  0  0  0  0
 35 36  1  0  0  0  0
 37 35  2  0  0  0  0
 38 40  1  0  0  0  0
 38 32  1  0  0  0  0
 40 39  2  0  0  0  0
 43 42  2  0  0  0  0
 44 43  2  0  0  0  0
 44 41  1  0  0  0  0
 45 46  1  1  0  0  0
 45 44  1  0  0  0  0
 47 45  1  0  0  0  0
 48 47  1  0  0  0  0
 49 48  1  1  0  0  0
 49 54  1  0  0  0  0
 51 50  1  6  0  0  0
 51 49  1  0  0  0  0
 52 51  1  0  0  0  0
 53 52  1  0  0  0  0
 56 54  1  0  0  0  0
 56 55  1  0  0  0  0
 57 58  1  0  0  0  0
 59 58  1  0  0  0  0
 60 63  1  6  0  0  0
 60 62  1  0  0  0  0
 60 61  1  0  0  0  0
 62 59  1  1  0  0  0
 62 61  1  0  0  0  0
 63 64  1  0  0  0  0
 65 64  1  0  0  0  0
M  END
>  <MODEL>
9

>  <REMARK>
 VINA RESULT:      -3.1      3.355      7.085
  Name = 
  31 active torsions:
  status: ('A' for Active; 'I' for Inactive)
    1  A    between atoms: C_2  and  O_28
    2  A    between atoms: C_2  and  C_57
    3  A    between atoms: O_3  and  C_24
    4  A    between atoms: O_3  and  C_34
    5  A    between atoms: C_8  and  C_26
    6  A    between atoms: O_9  and  C_30
    7  A    between atoms: O_9  and  C_53
    8  A    between atoms: N_10  and  C_38
    9  A    between atoms: N_10  and  C_55
   10  A    between atoms: C_12  and  C_60
   11  A    between atoms: C_14  and  C_38
   12  A    between atoms: C_14  and  C_44
   13  A    between atoms: C_15  and  C_39
   14  A    between atoms: C_18  and  C_52
   15  A    between atoms: S_21  and  C_61
   16  A    between atoms: S_21  and  C_65
   17  A    between atoms: C_23  and  C_29
   18  A    between atoms: C_23  and  C_33
   19  A    between atoms: O_28  and  C_59
   20  A    between atoms: C_31  and  C_42
   21  A    between atoms: C_31  and  C_52
   22  A    between atoms: C_31  and  C_59
   23  A    between atoms: C_33  and  P_35
   24  A    between atoms: C_39  and  C_61
   25  A    between atoms: S_40  and  C_53
   26  A    between atoms: S_40  and  C_56
   27  A    between atoms: C_42  and  O_62
   28  A    between atoms: C_44  and  C_45
   29  A    between atoms: C_53  and  C_58
   30  A    between atoms: C_55  and  C_63
   31  A    between atoms: C_56  and  C_63
                            x       y       z     vdW  Elec       q    Type
                         _______ _______ _______ _____ _____    ______ ____

>  <TORSDO>
F 31

$$$$
