=
 OpenBabel11072409313D

 40 43  0  0  1  0  0  0  0  0999 V2000
  194.1670  175.9860  144.3260 C   0  0  2  0  0  0  0  0  0  0  0  0
  195.1910  174.4540  142.8390 C   0  0  1  0  0  3  0  0  0  0  0  0
  196.5220  176.4580  143.4420 C   0  0  0  0  0  2  0  0  0  0  0  0
  195.4870  176.7460  144.5450 C   0  0  0  0  0  2  0  0  0  0  0  0
  194.1760  174.4850  145.3560 S   0  0  0  0  0  0  0  0  0  0  0  0
  194.9130  173.5080  143.9950 C   0  0  1  0  0  3  0  0  0  0  0  0
  194.0830  175.4970  142.8980 C   0  0  0  0  0  2  0  0  0  0  0  0
  196.5330  175.0410  143.0350 N   0  0  0  0  0  2  0  0  0  0  0  0
  191.8180  176.3460  144.8010 N   0  0  0  0  0  0  0  0  0  0  0  0
  192.9890  176.8510  144.6460 C   0  0  0  0  0  3  0  0  0  0  0  0
  190.5980  178.3030  144.0790 C   0  0  0  0  0  1  0  0  0  0  0  0
  190.6870  177.1850  145.1070 C   0  0  1  0  0  3  0  0  0  0  0  0
  189.6840  175.0160  144.9140 F   0  0  0  0  0  0  0  0  0  0  0  0
  189.3930  176.3580  145.1070 C   0  0  1  0  0  3  0  0  0  0  0  0
  188.5900  176.5100  146.4100 C   0  0  0  0  0  0  0  0  0  0  0  0
  189.3440  177.2180  147.3340 F   0  0  0  0  0  0  0  0  0  0  0  0
  188.3470  175.2530  146.9360 F   0  0  0  0  0  0  0  0  0  0  0  0
  186.1940  177.0440  147.0700 C   0  0  0  0  0  0  0  0  0  0  0  0
  185.0040  177.6550  146.8230 N   0  0  0  0  0  0  0  0  0  0  0  0
  185.8390  178.5900  144.7890 C   0  0  0  0  0  0  0  0  0  0  0  0
  183.5320  179.0320  145.5100 N   0  0  0  0  0  1  0  0  0  0  0  0
  186.3320  176.2910  148.1910 F   0  0  0  0  0  0  0  0  0  0  0  0
  185.6580  179.4160  143.5620 C   0  0  0  0  0  1  0  0  0  0  0  0
  187.0660  177.9720  145.0230 C   0  0  0  0  0  3  0  0  0  0  0  0
  184.8010  178.4170  145.7160 C   0  0  0  0  0  0  0  0  0  0  0  0
  187.2630  177.1910  146.1680 C   0  0  0  0  0  0  0  0  0  0  0  0
  193.9780  172.4780  143.5720 N   0  0  0  0  0  2  0  0  0  0  0  0
  192.9210  172.4260  144.5670 C   0  0  0  0  0  2  0  0  0  0  0  0
  190.5180  171.8700  144.5070 N   0  0  0  0  0  0  0  0  0  0  0  0
  189.2880  171.8700  143.9270 C   0  0  0  0  0  3  0  0  0  0  0  0
  191.5960  172.4250  143.8900 C   0  0  0  0  0  0  0  0  0  0  0  0
  190.1970  173.0380  142.0150 C   0  0  0  0  0  0  0  0  0  0  0  0
  189.1060  172.4530  142.6710 C   0  0  0  0  0  3  0  0  0  0  0  0
  191.4520  173.0240  142.6360 C   0  0  0  0  0  3  0  0  0  0  0  0
  190.0250  173.6600  140.6900 C   0  0  0  0  0  0  0  0  0  0  0  0
  191.0250  173.7930  139.9310 O   0  0  0  0  0  0  0  0  0  0  0  0
  188.0870  175.1690  140.6770 C   0  0  0  0  0  3  0  0  0  0  0  0
  188.7190  174.1030  140.2780 N   0  0  0  0  0  0  0  0  0  0  0  0
  187.9700  177.4900  141.4690 C   0  0  0  0  0  1  0  0  0  0  0  0
  188.6340  176.1430  141.6660 C   0  0  0  0  0  2  0  0  0  0  0  0
  1  4  1  0  0  0  0
  1 10  1  1  0  0  0
  1  5  1  0  0  0  0
  2  7  1  1  0  0  0
  2  8  1  0  0  0  0
  2  6  1  0  0  0  0
  3  4  1  0  0  0  0
  6 27  1  6  0  0  0
  6  5  1  0  0  0  0
  7  1  1  0  0  0  0
  8  3  1  0  0  0  0
  9 12  1  0  0  0  0
 10  9  2  0  0  0  0
 12 11  1  6  0  0  0
 12 14  1  0  0  0  0
 14 13  1  1  0  0  0
 14 15  1  0  0  0  0
 15 17  1  0  0  0  0
 15 16  1  0  0  0  0
 18 22  1  0  0  0  0
 19 18  1  0  0  0  0
 20 24  2  0  0  0  0
 20 25  1  0  0  0  0
 21 25  1  0  0  0  0
 23 20  1  0  0  0  0
 24 26  1  0  0  0  0
 25 19  2  0  0  0  0
 26 15  1  0  0  0  0
 26 18  2  0  0  0  0
 27 28  1  0  0  0  0
 30 29  1  0  0  0  0
 31 29  2  0  0  0  0
 31 28  1  0  0  0  0
 32 34  2  0  0  0  0
 32 33  1  0  0  0  0
 33 30  2  0  0  0  0
 34 31  1  0  0  0  0
 35 32  1  0  0  0  0
 36 35  2  0  0  0  0
 37 40  1  0  0  0  0
 38 37  2  0  0  0  0
 38 35  1  0  0  0  0
 39 40  1  0  0  0  0
M  END
>  <MODEL>
1

>  <REMARK>
 VINA RESULT:      -7.4      0.000      0.000
  Name = 
  11 active torsions:
  status: ('A' for Active; 'I' for Inactive)
    1  A    between atoms: N_1  and  C_11
    2  A    between atoms: C_2  and  C_17
    3  A    between atoms: C_6  and  C_38
    4  A    between atoms: C_8  and  C_23
    5  A    between atoms: C_9  and  C_35
    6  A    between atoms: C_9  and  C_40
    7  A    between atoms: C_11  and  C_35
    8  A    between atoms: C_20  and  C_29
    9  A    between atoms: C_23  and  N_31
   10  A    between atoms: C_27  and  N_39
   11  A    between atoms: C_38  and  N_39
                            x       y       z     vdW  Elec       q    Type
                         _______ _______ _______ _____ _____    ______ ____

>  <TORSDO>
F 11

$$$$
=
 OpenBabel11072409313D

 40 43  0  0  1  0  0  0  0  0999 V2000
  193.9210  175.7650  143.9390 C   0  0  2  0  0  0  0  0  0  0  0  0
  195.0050  174.7520  142.0940 C   0  0  1  0  0  3  0  0  0  0  0  0
  196.4380  176.0940  143.6100 C   0  0  0  0  0  2  0  0  0  0  0  0
  195.2620  176.1280  144.6030 C   0  0  0  0  0  2  0  0  0  0  0  0
  193.5590  174.0110  144.2680 S   0  0  0  0  0  0  0  0  0  0  0  0
  194.4070  173.5070  142.7260 C   0  0  1  0  0  3  0  0  0  0  0  0
  194.0410  175.8800  142.4370 C   0  0  0  0  0  2  0  0  0  0  0  0
  196.3510  174.9620  142.6700 N   0  0  0  0  0  2  0  0  0  0  0  0
  191.6650  176.1610  144.7290 N   0  0  0  0  0  0  0  0  0  0  0  0
  192.8190  176.6450  144.4390 C   0  0  0  0  0  3  0  0  0  0  0  0
  190.4420  178.1920  144.2580 C   0  0  0  0  0  1  0  0  0  0  0  0
  190.6070  177.0150  145.2080 C   0  0  1  0  0  3  0  0  0  0  0  0
  189.5450  174.8660  145.2610 F   0  0  0  0  0  0  0  0  0  0  0  0
  189.2920  176.2280  145.3120 C   0  0  1  0  0  3  0  0  0  0  0  0
  188.5120  176.5420  146.5990 C   0  0  0  0  0  0  0  0  0  0  0  0
  189.2920  177.3320  147.4290 F   0  0  0  0  0  0  0  0  0  0  0  0
  188.2520  175.3560  147.2650 F   0  0  0  0  0  0  0  0  0  0  0  0
  186.0830  177.0600  147.1470 C   0  0  0  0  0  0  0  0  0  0  0  0
  184.9050  177.6690  146.8480 N   0  0  0  0  0  0  0  0  0  0  0  0
  185.8330  178.6260  144.8660 C   0  0  0  0  0  0  0  0  0  0  0  0
  183.4920  179.0520  145.4770 N   0  0  0  0  0  1  0  0  0  0  0  0
  186.1700  176.2970  148.2650 F   0  0  0  0  0  0  0  0  0  0  0  0
  185.7090  179.4630  143.6390 C   0  0  0  0  0  1  0  0  0  0  0  0
  187.0500  178.0110  145.1530 C   0  0  0  0  0  3  0  0  0  0  0  0
  184.7520  178.4400  145.7380 C   0  0  0  0  0  0  0  0  0  0  0  0
  187.1950  177.2200  146.2990 C   0  0  0  0  0  0  0  0  0  0  0  0
  193.4480  172.9070  141.8140 N   0  0  0  0  0  2  0  0  0  0  0  0
  192.1830  172.8170  142.5240 C   0  0  0  0  0  2  0  0  0  0  0  0
  191.0100  172.9340  140.3570 N   0  0  0  0  0  0  0  0  0  0  0  0
  190.0090  173.3610  139.5420 C   0  0  0  0  0  3  0  0  0  0  0  0
  191.0860  173.3250  141.6570 C   0  0  0  0  0  0  0  0  0  0  0  0
  189.0730  174.6360  141.3710 C   0  0  0  0  0  0  0  0  0  0  0  0
  189.0240  174.2200  140.0340 C   0  0  0  0  0  3  0  0  0  0  0  0
  190.1140  174.1780  142.1880 C   0  0  0  0  0  3  0  0  0  0  0  0
  188.0410  175.5400  141.9100 C   0  0  0  0  0  0  0  0  0  0  0  0
  187.0230  175.0550  142.4750 O   0  0  0  0  0  0  0  0  0  0  0  0
  187.5620  177.7710  141.0000 C   0  0  0  0  0  3  0  0  0  0  0  0
  188.2130  176.9640  141.7870 N   0  0  0  0  0  0  0  0  0  0  0  0
  185.2260  178.1270  140.3300 C   0  0  0  0  0  1  0  0  0  0  0  0
  186.4890  177.3340  140.0590 C   0  0  0  0  0  2  0  0  0  0  0  0
  1  5  1  0  0  0  0
  1 10  1  1  0  0  0
  1  4  1  0  0  0  0
  2  7  1  1  0  0  0
  2  8  1  0  0  0  0
  2  6  1  0  0  0  0
  3  4  1  0  0  0  0
  6 27  1  6  0  0  0
  6  5  1  0  0  0  0
  7  1  1  0  0  0  0
  8  3  1  0  0  0  0
  9 12  1  0  0  0  0
 10  9  2  0  0  0  0
 12 11  1  6  0  0  0
 12 14  1  0  0  0  0
 14 13  1  1  0  0  0
 14 15  1  0  0  0  0
 15 17  1  0  0  0  0
 15 16  1  0  0  0  0
 18 22  1  0  0  0  0
 19 18  1  0  0  0  0
 20 24  2  0  0  0  0
 20 25  1  0  0  0  0
 21 25  1  0  0  0  0
 23 20  1  0  0  0  0
 24 26  1  0  0  0  0
 25 19  2  0  0  0  0
 26 15  1  0  0  0  0
 26 18  2  0  0  0  0
 27 28  1  0  0  0  0
 29 31  1  0  0  0  0
 30 33  1  0  0  0  0
 30 29  2  0  0  0  0
 31 34  2  0  0  0  0
 31 28  1  0  0  0  0
 32 35  1  0  0  0  0
 32 34  1  0  0  0  0
 33 32  2  0  0  0  0
 35 36  2  0  0  0  0
 37 38  2  0  0  0  0
 38 35  1  0  0  0  0
 40 39  1  0  0  0  0
 40 37  1  0  0  0  0
M  END
>  <MODEL>
2

>  <REMARK>
 VINA RESULT:      -7.4      1.450      1.924
  Name = 
  11 active torsions:
  status: ('A' for Active; 'I' for Inactive)
    1  A    between atoms: N_1  and  C_11
    2  A    between atoms: C_2  and  C_17
    3  A    between atoms: C_6  and  C_38
    4  A    between atoms: C_8  and  C_23
    5  A    between atoms: C_9  and  C_35
    6  A    between atoms: C_9  and  C_40
    7  A    between atoms: C_11  and  C_35
    8  A    between atoms: C_20  and  C_29
    9  A    between atoms: C_23  and  N_31
   10  A    between atoms: C_27  and  N_39
   11  A    between atoms: C_38  and  N_39
                            x       y       z     vdW  Elec       q    Type
                         _______ _______ _______ _____ _____    ______ ____

>  <TORSDO>
F 11

$$$$
=
 OpenBabel11072409313D

 40 43  0  0  1  0  0  0  0  0999 V2000
  186.8020  177.6810  145.2660 C   0  0  2  0  0  0  0  0  0  0  0  0
  185.0850  177.3670  143.6660 C   0  0  1  0  0  3  0  0  0  0  0  0
  184.5790  178.9230  145.5310 C   0  0  0  0  0  2  0  0  0  0  0  0
  186.0740  178.8800  145.8990 C   0  0  0  0  0  2  0  0  0  0  0  0
  187.6530  178.2410  143.7570 S   0  0  0  0  0  0  0  0  0  0  0  0
  186.1910  177.8350  142.7340 C   0  0  1  0  0  3  0  0  0  0  0  0
  185.7970  176.6510  144.8060 C   0  0  0  0  0  2  0  0  0  0  0  0
  184.3340  178.5550  144.1250 N   0  0  0  0  0  2  0  0  0  0  0  0
  188.7200  176.3100  145.8240 N   0  0  0  0  0  0  0  0  0  0  0  0
  187.7660  177.0680  146.2320 C   0  0  0  0  0  3  0  0  0  0  0  0
  188.9690  174.5540  147.4660 C   0  0  0  0  0  1  0  0  0  0  0  0
  189.6440  175.7200  146.7600 C   0  0  1  0  0  3  0  0  0  0  0  0
  190.5910  174.8270  144.7460 F   0  0  0  0  0  0  0  0  0  0  0  0
  190.9080  175.2400  146.0320 C   0  0  1  0  0  3  0  0  0  0  0  0
  191.9960  176.3240  145.9520 C   0  0  0  0  0  0  0  0  0  0  0  0
  192.3190  176.7460  147.2320 F   0  0  0  0  0  0  0  0  0  0  0  0
  191.4940  177.4140  145.2610 F   0  0  0  0  0  0  0  0  0  0  0  0
  193.3670  175.9840  143.8370 C   0  0  0  0  0  0  0  0  0  0  0  0
  194.4760  175.5140  143.2060 N   0  0  0  0  0  0  0  0  0  0  0  0
  195.3750  174.7010  145.2650 C   0  0  0  0  0  0  0  0  0  0  0  0
  196.6130  174.4090  143.1630 N   0  0  0  0  0  1  0  0  0  0  0  0
  192.4020  176.6000  143.1090 F   0  0  0  0  0  0  0  0  0  0  0  0
  196.4460  174.0120  146.0390 C   0  0  0  0  0  1  0  0  0  0  0  0
  194.2460  175.1740  145.9310 C   0  0  0  0  0  3  0  0  0  0  0  0
  195.4740  174.8810  143.8780 C   0  0  0  0  0  0  0  0  0  0  0  0
  193.2250  175.8250  145.2280 C   0  0  0  0  0  0  0  0  0  0  0  0
  186.5270  176.7730  141.8010 N   0  0  0  0  0  2  0  0  0  0  0  0
  187.9630  176.5680  141.8860 C   0  0  0  0  0  2  0  0  0  0  0  0
  188.1900  174.9140  140.0700 N   0  0  0  0  0  0  0  0  0  0  0  0
  188.5140  173.6860  139.5810 C   0  0  0  0  0  3  0  0  0  0  0  0
  188.3040  175.2060  141.3940 C   0  0  0  0  0  0  0  0  0  0  0  0
  189.1120  172.9650  141.8100 C   0  0  0  0  0  0  0  0  0  0  0  0
  188.9790  172.6910  140.4430 C   0  0  0  0  0  3  0  0  0  0  0  0
  188.7730  174.2380  142.2860 C   0  0  0  0  0  3  0  0  0  0  0  0
  189.6030  171.9280  142.7350 C   0  0  0  0  0  0  0  0  0  0  0  0
  189.0960  171.8300  143.8860 O   0  0  0  0  0  0  0  0  0  0  0  0
  191.9350  171.2070  142.4590 C   0  0  0  0  0  3  0  0  0  0  0  0
  190.6530  171.0390  142.3110 N   0  0  0  0  0  0  0  0  0  0  0  0
  192.7570  172.1060  144.5910 C   0  0  0  0  0  1  0  0  0  0  0  0
  192.5510  172.3960  143.1180 C   0  0  0  0  0  2  0  0  0  0  0  0
  1  4  1  0  0  0  0
  1 10  1  1  0  0  0
  2  8  1  0  0  0  0
  2  7  1  1  0  0  0
  3  4  1  0  0  0  0
  5  1  1  0  0  0  0
  6 27  1  6  0  0  0
  6  2  1  0  0  0  0
  6  5  1  0  0  0  0
  7  1  1  0  0  0  0
  8  3  1  0  0  0  0
  9 10  2  0  0  0  0
  9 12  1  0  0  0  0
 12 11  1  6  0  0  0
 14 13  1  6  0  0  0
 14 12  1  0  0  0  0
 15 14  1  0  0  0  0
 15 16  1  0  0  0  0
 17 15  1  0  0  0  0
 18 26  1  0  0  0  0
 19 18  2  0  0  0  0
 19 25  1  0  0  0  0
 20 24  1  0  0  0  0
 20 23  1  0  0  0  0
 21 25  1  0  0  0  0
 22 18  1  0  0  0  0
 25 20  2  0  0  0  0
 26 24  2  0  0  0  0
 26 15  1  0  0  0  0
 27 28  1  0  0  0  0
 29 31  1  0  0  0  0
 30 29  2  0  0  0  0
 30 33  1  0  0  0  0
 31 28  1  0  0  0  0
 31 34  2  0  0  0  0
 32 34  1  0  0  0  0
 32 35  1  0  0  0  0
 33 32  2  0  0  0  0
 35 36  2  0  0  0  0
 37 40  1  0  0  0  0
 38 37  2  0  0  0  0
 38 35  1  0  0  0  0
 40 39  1  0  0  0  0
M  END
>  <MODEL>
3

>  <REMARK>
 VINA RESULT:      -7.3      2.369      7.487
  Name = 
  11 active torsions:
  status: ('A' for Active; 'I' for Inactive)
    1  A    between atoms: N_1  and  C_11
    2  A    between atoms: C_2  and  C_17
    3  A    between atoms: C_6  and  C_38
    4  A    between atoms: C_8  and  C_23
    5  A    between atoms: C_9  and  C_35
    6  A    between atoms: C_9  and  C_40
    7  A    between atoms: C_11  and  C_35
    8  A    between atoms: C_20  and  C_29
    9  A    between atoms: C_23  and  N_31
   10  A    between atoms: C_27  and  N_39
   11  A    between atoms: C_38  and  N_39
                            x       y       z     vdW  Elec       q    Type
                         _______ _______ _______ _____ _____    ______ ____

>  <TORSDO>
F 11

$$$$
=
 OpenBabel11072409313D

 40 43  0  0  1  0  0  0  0  0999 V2000
  186.8570  177.7870  144.6720 C   0  0  2  0  0  0  0  0  0  0  0  0
  185.2150  177.1940  143.0710 C   0  0  1  0  0  3  0  0  0  0  0  0
  184.5060  178.7860  144.8360 C   0  0  0  0  0  2  0  0  0  0  0  0
  185.9890  178.9310  145.2240 C   0  0  0  0  0  2  0  0  0  0  0  0
  187.6700  178.3520  143.1440 S   0  0  0  0  0  0  0  0  0  0  0  0
  186.2800  177.7290  142.1280 C   0  0  1  0  0  3  0  0  0  0  0  0
  185.9800  176.6270  144.2590 C   0  0  0  0  0  2  0  0  0  0  0  0
  184.3300  178.3160  143.4500 N   0  0  0  0  0  2  0  0  0  0  0  0
  188.5930  176.3010  145.4790 N   0  0  0  0  0  0  0  0  0  0  0  0
  187.8640  177.3390  145.6840 C   0  0  0  0  0  3  0  0  0  0  0  0
  188.9270  174.8320  147.3680 C   0  0  0  0  0  1  0  0  0  0  0  0
  189.5600  175.8750  146.4590 C   0  0  1  0  0  3  0  0  0  0  0  0
  190.6390  175.3270  144.3890 F   0  0  0  0  0  0  0  0  0  0  0  0
  190.8000  175.2930  145.7660 C   0  0  1  0  0  3  0  0  0  0  0  0
  192.0930  176.0410  146.1330 C   0  0  0  0  0  0  0  0  0  0  0  0
  191.9910  176.5240  147.4290 F   0  0  0  0  0  0  0  0  0  0  0  0
  192.2370  177.1280  145.2870 F   0  0  0  0  0  0  0  0  0  0  0  0
  194.6070  175.6670  146.1620 C   0  0  0  0  0  0  0  0  0  0  0  0
  195.6870  174.8540  146.0100 N   0  0  0  0  0  0  0  0  0  0  0  0
  194.2840  172.9890  145.4990 C   0  0  0  0  0  0  0  0  0  0  0  0
  196.7270  172.7370  145.5380 N   0  0  0  0  0  1  0  0  0  0  0  0
  194.8010  176.9720  146.4800 F   0  0  0  0  0  0  0  0  0  0  0  0
  194.1000  171.5540  145.1420 C   0  0  0  0  0  1  0  0  0  0  0  0
  193.1640  173.8050  145.6500 C   0  0  0  0  0  3  0  0  0  0  0  0
  195.5590  173.5400  145.6850 C   0  0  0  0  0  0  0  0  0  0  0  0
  193.3080  175.1570  145.9860 C   0  0  0  0  0  0  0  0  0  0  0  0
  186.7490  176.6600  141.2620 N   0  0  0  0  0  2  0  0  0  0  0  0
  188.1800  176.5300  141.4800 C   0  0  0  0  0  2  0  0  0  0  0  0
  187.6200  174.1860  142.0050 N   0  0  0  0  0  0  0  0  0  0  0  0
  187.9090  172.8600  142.0890 C   0  0  0  0  0  3  0  0  0  0  0  0
  188.5420  175.0910  141.5810 C   0  0  0  0  0  0  0  0  0  0  0  0
  190.1450  173.3040  141.2850 C   0  0  0  0  0  0  0  0  0  0  0  0
  189.1770  172.3960  141.7320 C   0  0  0  0  0  3  0  0  0  0  0  0
  189.8200  174.6640  141.2070 C   0  0  0  0  0  3  0  0  0  0  0  0
  191.4890  172.8340  140.9020 C   0  0  0  0  0  0  0  0  0  0  0  0
  191.8530  171.6670  141.2150 O   0  0  0  0  0  0  0  0  0  0  0  0
  193.2950  174.4820  140.6610 C   0  0  0  0  0  3  0  0  0  0  0  0
  192.3650  173.7120  140.1730 N   0  0  0  0  0  0  0  0  0  0  0  0
  193.8140  176.0390  142.4860 C   0  0  0  0  0  1  0  0  0  0  0  0
  193.6150  174.5840  142.1150 C   0  0  0  0  0  2  0  0  0  0  0  0
  1  4  1  0  0  0  0
  1 10  1  1  0  0  0
  2  8  1  0  0  0  0
  2  7  1  1  0  0  0
  3  4  1  0  0  0  0
  5  1  1  0  0  0  0
  6 27  1  6  0  0  0
  6  2  1  0  0  0  0
  6  5  1  0  0  0  0
  7  1  1  0  0  0  0
  8  3  1  0  0  0  0
  9 10  2  0  0  0  0
  9 12  1  0  0  0  0
 12 11  1  1  0  0  0
 14 13  1  6  0  0  0
 14 15  1  0  0  0  0
 14 12  1  0  0  0  0
 15 16  1  0  0  0  0
 17 15  1  0  0  0  0
 18 22  1  0  0  0  0
 19 18  1  0  0  0  0
 20 24  2  0  0  0  0
 20 25  1  0  0  0  0
 21 25  1  0  0  0  0
 23 20  1  0  0  0  0
 24 26  1  0  0  0  0
 25 19  2  0  0  0  0
 26 15  1  0  0  0  0
 26 18  2  0  0  0  0
 27 28  1  0  0  0  0
 28 31  1  0  0  0  0
 29 30  1  0  0  0  0
 31 29  2  0  0  0  0
 32 33  1  0  0  0  0
 33 30  2  0  0  0  0
 34 32  2  0  0  0  0
 34 31  1  0  0  0  0
 35 36  2  0  0  0  0
 35 32  1  0  0  0  0
 37 40  1  0  0  0  0
 38 37  2  0  0  0  0
 38 35  1  0  0  0  0
 40 39  1  0  0  0  0
M  END
>  <MODEL>
4

>  <REMARK>
 VINA RESULT:      -7.3      2.616      7.362
  Name = 
  11 active torsions:
  status: ('A' for Active; 'I' for Inactive)
    1  A    between atoms: N_1  and  C_11
    2  A    between atoms: C_2  and  C_17
    3  A    between atoms: C_6  and  C_38
    4  A    between atoms: C_8  and  C_23
    5  A    between atoms: C_9  and  C_35
    6  A    between atoms: C_9  and  C_40
    7  A    between atoms: C_11  and  C_35
    8  A    between atoms: C_20  and  C_29
    9  A    between atoms: C_23  and  N_31
   10  A    between atoms: C_27  and  N_39
   11  A    between atoms: C_38  and  N_39
                            x       y       z     vdW  Elec       q    Type
                         _______ _______ _______ _____ _____    ______ ____

>  <TORSDO>
F 11

$$$$
=
 OpenBabel11072409313D

 40 43  0  0  1  0  0  0  0  0999 V2000
  191.0930  171.9100  142.6400 C   0  0  2  0  0  0  0  0  0  0  0  0
  190.3730  172.3580  140.4290 C   0  0  1  0  0  3  0  0  0  0  0  0
  191.3200  170.1030  140.8410 C   0  0  0  0  0  2  0  0  0  0  0  0
  191.2420  170.4060  142.3490 C   0  0  0  0  0  2  0  0  0  0  0  0
  189.3340  172.2780  142.9350 S   0  0  0  0  0  0  0  0  0  0  0  0
  189.0710  172.6410  141.1610 C   0  0  1  0  0  3  0  0  0  0  0  0
  191.4750  172.7130  141.4180 C   0  0  0  0  0  2  0  0  0  0  0  0
  190.3890  170.9280  140.0510 N   0  0  0  0  0  2  0  0  0  0  0  0
  192.6880  173.3530  143.7540 N   0  0  0  0  0  0  0  0  0  0  0  0
  191.9310  172.3170  143.8100 C   0  0  0  0  0  3  0  0  0  0  0  0
  194.6300  172.7410  145.0550 C   0  0  0  0  0  1  0  0  0  0  0  0
  193.4950  173.7390  144.8840 C   0  0  1  0  0  3  0  0  0  0  0  0
  193.7260  175.6230  143.4190 F   0  0  0  0  0  0  0  0  0  0  0  0
  194.0570  175.1530  144.6810 C   0  0  1  0  0  3  0  0  0  0  0  0
  193.5490  176.1530  145.7320 C   0  0  0  0  0  0  0  0  0  0  0  0
  194.1210  177.3940  145.5000 F   0  0  0  0  0  0  0  0  0  0  0  0
  193.9540  175.7290  146.9870 F   0  0  0  0  0  0  0  0  0  0  0  0
  191.3730  177.1660  144.8920 C   0  0  0  0  0  0  0  0  0  0  0  0
  190.0160  177.2440  144.9140 N   0  0  0  0  0  0  0  0  0  0  0  0
  189.8850  175.5300  146.5740 C   0  0  0  0  0  0  0  0  0  0  0  0
  187.8420  176.5850  145.7070 N   0  0  0  0  0  1  0  0  0  0  0  0
  192.0710  177.9830  144.0630 F   0  0  0  0  0  0  0  0  0  0  0  0
  189.0950  174.6500  147.4800 C   0  0  0  0  0  1  0  0  0  0  0  0
  191.2750  175.4340  146.5670 C   0  0  0  0  0  3  0  0  0  0  0  0
  189.2610  176.4570  145.7270 C   0  0  0  0  0  0  0  0  0  0  0  0
  192.0410  176.2500  145.7250 C   0  0  0  0  0  0  0  0  0  0  0  0
  188.7110  174.0390  140.9960 N   0  0  0  0  0  2  0  0  0  0  0  0
  187.7410  174.3550  142.0320 C   0  0  0  0  0  2  0  0  0  0  0  0
  188.5930  176.6560  141.7840 N   0  0  0  0  0  0  0  0  0  0  0  0
  188.4630  178.0090  141.8330 C   0  0  0  0  0  3  0  0  0  0  0  0
  187.5680  175.8290  142.1220 C   0  0  0  0  0  0  0  0  0  0  0  0
  186.1780  177.7550  142.5830 C   0  0  0  0  0  0  0  0  0  0  0  0
  187.2540  178.5820  142.2350 C   0  0  0  0  0  3  0  0  0  0  0  0
  186.3400  176.3650  142.5210 C   0  0  0  0  0  3  0  0  0  0  0  0
  184.8940  178.3400  143.0070 C   0  0  0  0  0  0  0  0  0  0  0  0
  183.8160  177.8780  142.5400 O   0  0  0  0  0  0  0  0  0  0  0  0
  184.7530  179.3490  145.2420 C   0  0  0  0  0  3  0  0  0  0  0  0
  184.8860  179.4270  143.9500 N   0  0  0  0  0  0  0  0  0  0  0  0
  185.0110  178.2580  147.4270 C   0  0  0  0  0  1  0  0  0  0  0  0
  184.5790  178.0680  145.9870 C   0  0  0  0  0  2  0  0  0  0  0  0
  1  5  1  0  0  0  0
  1 10  1  1  0  0  0
  2  6  1  0  0  0  0
  2  7  1  1  0  0  0
  3  4  1  0  0  0  0
  4  1  1  0  0  0  0
  6 27  1  1  0  0  0
  6  5  1  0  0  0  0
  7  1  1  0  0  0  0
  8  2  1  0  0  0  0
  8  3  1  0  0  0  0
  9 10  2  0  0  0  0
  9 12  1  0  0  0  0
 12 11  1  6  0  0  0
 14 13  1  6  0  0  0
 14 12  1  0  0  0  0
 14 15  1  0  0  0  0
 15 17  1  0  0  0  0
 16 15  1  0  0  0  0
 18 19  2  0  0  0  0
 18 26  1  0  0  0  0
 19 25  1  0  0  0  0
 20 23  1  0  0  0  0
 21 25  1  0  0  0  0
 22 18  1  0  0  0  0
 24 20  1  0  0  0  0
 25 20  2  0  0  0  0
 26 15  1  0  0  0  0
 26 24  2  0  0  0  0
 27 28  1  0  0  0  0
 28 31  1  0  0  0  0
 29 30  2  0  0  0  0
 29 31  1  0  0  0  0
 30 33  1  0  0  0  0
 31 34  2  0  0  0  0
 32 35  1  0  0  0  0
 33 32  2  0  0  0  0
 34 32  1  0  0  0  0
 35 38  1  0  0  0  0
 36 35  2  0  0  0  0
 37 40  1  0  0  0  0
 38 37  2  0  0  0  0
 40 39  1  0  0  0  0
M  END
>  <MODEL>
5

>  <REMARK>
 VINA RESULT:      -7.2      2.927      6.107
  Name = 
  11 active torsions:
  status: ('A' for Active; 'I' for Inactive)
    1  A    between atoms: N_1  and  C_11
    2  A    between atoms: C_2  and  C_17
    3  A    between atoms: C_6  and  C_38
    4  A    between atoms: C_8  and  C_23
    5  A    between atoms: C_9  and  C_35
    6  A    between atoms: C_9  and  C_40
    7  A    between atoms: C_11  and  C_35
    8  A    between atoms: C_20  and  C_29
    9  A    between atoms: C_23  and  N_31
   10  A    between atoms: C_27  and  N_39
   11  A    between atoms: C_38  and  N_39
                            x       y       z     vdW  Elec       q    Type
                         _______ _______ _______ _____ _____    ______ ____

>  <TORSDO>
F 11

$$$$
=
 OpenBabel11072409313D

 40 43  0  0  1  0  0  0  0  0999 V2000
  191.0210  172.4830  142.7270 C   0  0  2  0  0  0  0  0  0  0  0  0
  190.2380  173.0050  140.5530 C   0  0  1  0  0  3  0  0  0  0  0  0
  191.1300  170.7140  140.8800 C   0  0  0  0  0  2  0  0  0  0  0  0
  191.1140  170.9830  142.3960 C   0  0  0  0  0  2  0  0  0  0  0  0
  189.2860  172.8960  143.0930 S   0  0  0  0  0  0  0  0  0  0  0  0
  188.9720  173.3090  141.3380 C   0  0  1  0  0  3  0  0  0  0  0  0
  191.3840  173.3030  141.5110 C   0  0  0  0  0  2  0  0  0  0  0  0
  190.1980  171.5850  140.1430 N   0  0  0  0  0  2  0  0  0  0  0  0
  193.1440  172.4730  143.8940 N   0  0  0  0  0  0  0  0  0  0  0  0
  191.9120  172.8360  143.8750 C   0  0  0  0  0  3  0  0  0  0  0  0
  194.5250  171.5400  145.6440 C   0  0  0  0  0  1  0  0  0  0  0  0
  193.9960  172.8150  145.0050 C   0  0  1  0  0  3  0  0  0  0  0  0
  195.0910  173.8850  143.1590 F   0  0  0  0  0  0  0  0  0  0  0  0
  195.1620  173.6950  144.5310 C   0  0  1  0  0  3  0  0  0  0  0  0
  195.1900  175.0690  145.2210 C   0  0  0  0  0  0  0  0  0  0  0  0
  196.0470  175.9120  144.5310 F   0  0  0  0  0  0  0  0  0  0  0  0
  195.6890  174.9150  146.5040 F   0  0  0  0  0  0  0  0  0  0  0  0
  193.2160  176.3150  144.2140 C   0  0  0  0  0  0  0  0  0  0  0  0
  191.9760  176.8630  144.3290 N   0  0  0  0  0  0  0  0  0  0  0  0
  191.8230  176.1850  146.6140 C   0  0  0  0  0  0  0  0  0  0  0  0
  189.9770  177.4080  145.5510 N   0  0  0  0  0  1  0  0  0  0  0  0
  193.8710  176.4020  143.0300 F   0  0  0  0  0  0  0  0  0  0  0  0
  191.0850  176.1110  147.9070 C   0  0  0  0  0  1  0  0  0  0  0  0
  193.0930  175.6170  146.5190 C   0  0  0  0  0  3  0  0  0  0  0  0
  191.2710  176.8160  145.4910 C   0  0  0  0  0  0  0  0  0  0  0  0
  193.8080  175.6720  145.3160 C   0  0  0  0  0  0  0  0  0  0  0  0
  188.6490  174.7210  141.2180 N   0  0  0  0  0  2  0  0  0  0  0  0
  187.9480  175.1030  142.4330 C   0  0  0  0  0  2  0  0  0  0  0  0
  186.9670  176.7860  140.9190 N   0  0  0  0  0  0  0  0  0  0  0  0
  186.2420  177.9070  140.6600 C   0  0  0  0  0  3  0  0  0  0  0  0
  187.1680  176.3460  142.1910 C   0  0  0  0  0  0  0  0  0  0  0  0
  185.8640  178.2030  143.0290 C   0  0  0  0  0  0  0  0  0  0  0  0
  185.6790  178.6350  141.7100 C   0  0  0  0  0  3  0  0  0  0  0  0
  186.6140  177.0440  143.2680 C   0  0  0  0  0  3  0  0  0  0  0  0
  185.2760  178.9560  144.1510 C   0  0  0  0  0  0  0  0  0  0  0  0
  185.5680  180.1750  144.3030 O   0  0  0  0  0  0  0  0  0  0  0  0
  184.6240  177.9080  146.2750 C   0  0  0  0  0  3  0  0  0  0  0  0
  184.3760  178.2930  145.0560 N   0  0  0  0  0  0  0  0  0  0  0  0
  186.6980  176.7910  146.9680 C   0  0  0  0  0  1  0  0  0  0  0  0
  185.9360  178.1010  146.9600 C   0  0  0  0  0  2  0  0  0  0  0  0
  1  5  1  0  0  0  0
  1 10  1  1  0  0  0
  2  6  1  0  0  0  0
  2  7  1  1  0  0  0
  3  4  1  0  0  0  0
  4  1  1  0  0  0  0
  6 27  1  1  0  0  0
  6  5  1  0  0  0  0
  7  1  1  0  0  0  0
  8  2  1  0  0  0  0
  8  3  1  0  0  0  0
  9 12  1  0  0  0  0
 10  9  2  0  0  0  0
 12 11  1  6  0  0  0
 14 13  1  6  0  0  0
 14 12  1  0  0  0  0
 14 15  1  0  0  0  0
 15 26  1  0  0  0  0
 15 17  1  0  0  0  0
 16 15  1  0  0  0  0
 18 19  2  0  0  0  0
 18 26  1  0  0  0  0
 19 25  1  0  0  0  0
 20 23  1  0  0  0  0
 22 18  1  0  0  0  0
 24 20  1  0  0  0  0
 25 21  1  0  0  0  0
 25 20  2  0  0  0  0
 26 24  2  0  0  0  0
 27 28  1  0  0  0  0
 29 31  1  0  0  0  0
 30 29  2  0  0  0  0
 30 33  1  0  0  0  0
 31 28  1  0  0  0  0
 31 34  2  0  0  0  0
 32 34  1  0  0  0  0
 32 35  1  0  0  0  0
 33 32  2  0  0  0  0
 35 36  2  0  0  0  0
 35 38  1  0  0  0  0
 37 40  1  0  0  0  0
 38 37  2  0  0  0  0
 40 39  1  0  0  0  0
M  END
>  <MODEL>
6

>  <REMARK>
 VINA RESULT:      -7.0      3.193      6.819
  Name = 
  11 active torsions:
  status: ('A' for Active; 'I' for Inactive)
    1  A    between atoms: N_1  and  C_11
    2  A    between atoms: C_2  and  C_17
    3  A    between atoms: C_6  and  C_38
    4  A    between atoms: C_8  and  C_23
    5  A    between atoms: C_9  and  C_35
    6  A    between atoms: C_9  and  C_40
    7  A    between atoms: C_11  and  C_35
    8  A    between atoms: C_20  and  C_29
    9  A    between atoms: C_23  and  N_31
   10  A    between atoms: C_27  and  N_39
   11  A    between atoms: C_38  and  N_39
                            x       y       z     vdW  Elec       q    Type
                         _______ _______ _______ _____ _____    ______ ____

>  <TORSDO>
F 11

$$$$
=
 OpenBabel11072409313D

 40 43  0  0  1  0  0  0  0  0999 V2000
  190.2030  174.8340  144.9580 C   0  0  2  0  0  0  0  0  0  0  0  0
  191.2500  176.0450  146.7040 C   0  0  1  0  0  3  0  0  0  0  0  0
  189.2440  174.7280  147.3290 C   0  0  0  0  0  2  0  0  0  0  0  0
  189.3280  174.0480  145.9500 C   0  0  0  0  0  2  0  0  0  0  0  0
  191.8650  174.0900  144.9240 S   0  0  0  0  0  0  0  0  0  0  0  0
  192.4380  175.2120  146.2510 C   0  0  1  0  0  3  0  0  0  0  0  0
  190.4030  176.2480  145.4540 C   0  0  0  0  0  2  0  0  0  0  0  0
  190.5350  175.2950  147.7580 N   0  0  0  0  0  2  0  0  0  0  0  0
  189.2900  175.9530  143.0130 N   0  0  0  0  0  0  0  0  0  0  0  0
  189.5910  174.8470  143.5930 C   0  0  0  0  0  3  0  0  0  0  0  0
  188.7900  174.5620  141.1010 C   0  0  0  0  0  1  0  0  0  0  0  0
  188.6980  175.9580  141.6980 C   0  0  1  0  0  3  0  0  0  0  0  0
  186.5290  175.5980  142.6550 F   0  0  0  0  0  0  0  0  0  0  0  0
  187.2320  176.4070  141.7750 C   0  0  1  0  0  3  0  0  0  0  0  0
  187.0810  177.8720  142.2170 C   0  0  0  0  0  0  0  0  0  0  0  0
  186.3800  178.5740  141.2490 F   0  0  0  0  0  0  0  0  0  0  0  0
  188.3390  178.4400  142.3250 F   0  0  0  0  0  0  0  0  0  0  0  0
  185.0050  178.1920  143.6510 C   0  0  0  0  0  0  0  0  0  0  0  0
  184.4120  178.3000  144.8700 N   0  0  0  0  0  0  0  0  0  0  0  0
  186.5050  178.0020  145.9820 C   0  0  0  0  0  0  0  0  0  0  0  0
  184.4420  178.3340  147.2750 N   0  0  0  0  0  1  0  0  0  0  0  0
  184.2450  178.2960  142.5320 F   0  0  0  0  0  0  0  0  0  0  0  0
  187.3180  177.9000  147.2270 C   0  0  0  0  0  1  0  0  0  0  0  0
  187.1330  177.8890  144.7430 C   0  0  0  0  0  3  0  0  0  0  0  0
  185.1190  178.2120  146.0270 C   0  0  0  0  0  0  0  0  0  0  0  0
  186.3930  177.9800  143.5580 C   0  0  0  0  0  0  0  0  0  0  0  0
  193.4810  176.0840  145.7370 N   0  0  0  0  0  2  0  0  0  0  0  0
  194.6810  175.8180  146.5130 C   0  0  0  0  0  2  0  0  0  0  0  0
  196.3620  174.0570  146.1140 N   0  0  0  0  0  0  0  0  0  0  0  0
  197.2780  173.4070  145.3480 C   0  0  0  0  0  3  0  0  0  0  0  0
  195.6940  175.1480  145.6530 C   0  0  0  0  0  0  0  0  0  0  0  0
  196.8740  174.9710  143.5490 C   0  0  0  0  0  0  0  0  0  0  0  0
  197.5510  173.8540  144.0530 C   0  0  0  0  0  3  0  0  0  0  0  0
  195.9340  175.6210  144.3600 C   0  0  0  0  0  3  0  0  0  0  0  0
  197.1470  175.4570  142.1850 C   0  0  0  0  0  0  0  0  0  0  0  0
  197.9400  174.8140  141.4430 O   0  0  0  0  0  0  0  0  0  0  0  0
  195.3290  176.7550  141.1620 C   0  0  0  0  0  3  0  0  0  0  0  0
  196.5030  176.6550  141.7170 N   0  0  0  0  0  0  0  0  0  0  0  0
  193.2320  175.6730  141.8420 C   0  0  0  0  0  1  0  0  0  0  0  0
  194.4240  175.5950  140.9100 C   0  0  0  0  0  2  0  0  0  0  0  0
  1 10  1  6  0  0  0
  1  7  1  0  0  0  0
  1  4  1  0  0  0  0
  2  7  1  6  0  0  0
  2  8  1  0  0  0  0
  3  8  1  0  0  0  0
  4  3  1  0  0  0  0
  5  1  1  0  0  0  0
  5  6  1  0  0  0  0
  6 27  1  6  0  0  0
  6  2  1  0  0  0  0
  9 10  2  0  0  0  0
 12 11  1  1  0  0  0
 12 14  1  0  0  0  0
 12  9  1  0  0  0  0
 14 15  1  0  0  0  0
 14 13  1  1  0  0  0
 15 17  1  0  0  0  0
 15 26  1  0  0  0  0
 16 15  1  0  0  0  0
 18 19  1  0  0  0  0
 19 25  2  0  0  0  0
 20 25  1  0  0  0  0
 20 23  1  0  0  0  0
 22 18  1  0  0  0  0
 24 20  2  0  0  0  0
 25 21  1  0  0  0  0
 26 18  2  0  0  0  0
 26 24  1  0  0  0  0
 27 28  1  0  0  0  0
 30 29  2  0  0  0  0
 31 29  1  0  0  0  0
 31 28  1  0  0  0  0
 32 33  2  0  0  0  0
 32 34  1  0  0  0  0
 33 30  1  0  0  0  0
 34 31  2  0  0  0  0
 35 32  1  0  0  0  0
 36 35  2  0  0  0  0
 37 38  2  0  0  0  0
 38 35  1  0  0  0  0
 40 37  1  0  0  0  0
 40 39  1  0  0  0  0
M  END
>  <MODEL>
7

>  <REMARK>
 VINA RESULT:      -7.0      2.769      5.451
  Name = 
  11 active torsions:
  status: ('A' for Active; 'I' for Inactive)
    1  A    between atoms: N_1  and  C_11
    2  A    between atoms: C_2  and  C_17
    3  A    between atoms: C_6  and  C_38
    4  A    between atoms: C_8  and  C_23
    5  A    between atoms: C_9  and  C_35
    6  A    between atoms: C_9  and  C_40
    7  A    between atoms: C_11  and  C_35
    8  A    between atoms: C_20  and  C_29
    9  A    between atoms: C_23  and  N_31
   10  A    between atoms: C_27  and  N_39
   11  A    between atoms: C_38  and  N_39
                            x       y       z     vdW  Elec       q    Type
                         _______ _______ _______ _____ _____    ______ ____

>  <TORSDO>
F 11

$$$$
=
 OpenBabel11072409313D

 40 43  0  0  1  0  0  0  0  0999 V2000
  186.6010  177.5910  145.1380 C   0  0  2  0  0  0  0  0  0  0  0  0
  184.8910  177.5880  143.4990 C   0  0  1  0  0  3  0  0  0  0  0  0
  184.4520  178.9210  145.5450 C   0  0  0  0  0  2  0  0  0  0  0  0
  185.9360  178.7420  145.9130 C   0  0  0  0  0  2  0  0  0  0  0  0
  187.5050  178.2860  143.7180 S   0  0  0  0  0  0  0  0  0  0  0  0
  186.0360  178.1030  142.6420 C   0  0  1  0  0  3  0  0  0  0  0  0
  185.5430  176.6910  144.5430 C   0  0  0  0  0  2  0  0  0  0  0  0
  184.2060  178.7510  144.1010 N   0  0  0  0  0  2  0  0  0  0  0  0
  188.7830  176.9980  146.0090 N   0  0  0  0  0  0  0  0  0  0  0  0
  187.5130  176.8020  146.0230 C   0  0  0  0  0  3  0  0  0  0  0  0
  188.9620  174.9390  147.2610 C   0  0  0  0  0  1  0  0  0  0  0  0
  189.6560  176.2330  146.8630 C   0  0  1  0  0  3  0  0  0  0  0  0
  191.2630  176.9290  145.2250 F   0  0  0  0  0  0  0  0  0  0  0  0
  190.9760  175.9270  146.1400 C   0  0  1  0  0  3  0  0  0  0  0  0
  192.1630  175.7800  147.1060 C   0  0  0  0  0  0  0  0  0  0  0  0
  191.8150  174.9170  148.1340 F   0  0  0  0  0  0  0  0  0  0  0  0
  192.4410  177.0150  147.6660 F   0  0  0  0  0  0  0  0  0  0  0  0
  194.4680  176.1600  146.1010 C   0  0  0  0  0  0  0  0  0  0  0  0
  195.5660  175.6980  145.4450 N   0  0  0  0  0  0  0  0  0  0  0  0
  194.6410  173.4990  145.3210 C   0  0  0  0  0  0  0  0  0  0  0  0
  196.8540  173.9760  144.3670 N   0  0  0  0  0  1  0  0  0  0  0  0
  194.4120  177.4670  146.4620 F   0  0  0  0  0  0  0  0  0  0  0  0
  194.7230  172.0710  144.9050 C   0  0  0  0  0  1  0  0  0  0  0  0
  193.5050  173.9520  145.9910 C   0  0  0  0  0  3  0  0  0  0  0  0
  195.6790  174.4020  145.0510 C   0  0  0  0  0  0  0  0  0  0  0  0
  193.4020  175.2900  146.3930 C   0  0  0  0  0  0  0  0  0  0  0  0
  186.3220  177.1500  141.5830 N   0  0  0  0  0  2  0  0  0  0  0  0
  187.7610  176.9470  141.5680 C   0  0  0  0  0  2  0  0  0  0  0  0
  187.9010  175.2880  139.7470 N   0  0  0  0  0  0  0  0  0  0  0  0
  188.1930  174.0560  139.2490 C   0  0  0  0  0  3  0  0  0  0  0  0
  188.0680  175.5810  141.0650 C   0  0  0  0  0  0  0  0  0  0  0  0
  188.8660  173.3310  141.4550 C   0  0  0  0  0  0  0  0  0  0  0  0
  188.6790  173.0570  140.0940 C   0  0  0  0  0  3  0  0  0  0  0  0
  188.5590  174.6080  141.9410 C   0  0  0  0  0  3  0  0  0  0  0  0
  189.3800  172.2890  142.3630 C   0  0  0  0  0  0  0  0  0  0  0  0
  188.6750  171.9110  143.3380 O   0  0  0  0  0  0  0  0  0  0  0  0
  191.8350  172.2940  142.2710 C   0  0  0  0  0  3  0  0  0  0  0  0
  190.6780  171.7160  142.1220 N   0  0  0  0  0  0  0  0  0  0  0  0
  192.5730  174.5390  141.6050 C   0  0  0  0  0  1  0  0  0  0  0  0
  192.0110  173.7010  142.7350 C   0  0  0  0  0  2  0  0  0  0  0  0
  1  4  1  0  0  0  0
  1 10  1  1  0  0  0
  2  8  1  0  0  0  0
  2  7  1  1  0  0  0
  3  4  1  0  0  0  0
  5  1  1  0  0  0  0
  6 27  1  6  0  0  0
  6  2  1  0  0  0  0
  6  5  1  0  0  0  0
  7  1  1  0  0  0  0
  8  3  1  0  0  0  0
  9 10  2  0  0  0  0
  9 12  1  0  0  0  0
 12 11  1  6  0  0  0
 14 13  1  6  0  0  0
 14 12  1  0  0  0  0
 14 15  1  0  0  0  0
 15 17  1  0  0  0  0
 15 16  1  0  0  0  0
 18 26  1  0  0  0  0
 18 22  1  0  0  0  0
 19 18  2  0  0  0  0
 20 24  1  0  0  0  0
 21 25  1  0  0  0  0
 23 20  1  0  0  0  0
 24 26  2  0  0  0  0
 25 20  2  0  0  0  0
 25 19  1  0  0  0  0
 26 15  1  0  0  0  0
 28 27  1  0  0  0  0
 29 31  1  0  0  0  0
 30 29  2  0  0  0  0
 30 33  1  0  0  0  0
 31 28  1  0  0  0  0
 31 34  2  0  0  0  0
 32 34  1  0  0  0  0
 32 35  1  0  0  0  0
 33 32  2  0  0  0  0
 35 36  2  0  0  0  0
 37 40  1  0  0  0  0
 38 37  2  0  0  0  0
 38 35  1  0  0  0  0
 39 40  1  0  0  0  0
M  END
>  <MODEL>
8

>  <REMARK>
 VINA RESULT:      -7.0      2.543      7.544
  Name = 
  11 active torsions:
  status: ('A' for Active; 'I' for Inactive)
    1  A    between atoms: N_1  and  C_11
    2  A    between atoms: C_2  and  C_17
    3  A    between atoms: C_6  and  C_38
    4  A    between atoms: C_8  and  C_23
    5  A    between atoms: C_9  and  C_35
    6  A    between atoms: C_9  and  C_40
    7  A    between atoms: C_11  and  C_35
    8  A    between atoms: C_20  and  C_29
    9  A    between atoms: C_23  and  N_31
   10  A    between atoms: C_27  and  N_39
   11  A    between atoms: C_38  and  N_39
                            x       y       z     vdW  Elec       q    Type
                         _______ _______ _______ _____ _____    ______ ____

>  <TORSDO>
F 11

$$$$
=
 OpenBabel11072409313D

 40 43  0  0  1  0  0  0  0  0999 V2000
  193.2940  174.8110  145.3120 C   0  0  2  0  0  0  0  0  0  0  0  0
  194.0110  174.7810  143.0550 C   0  0  1  0  0  3  0  0  0  0  0  0
  195.3890  176.1140  144.6290 C   0  0  0  0  0  2  0  0  0  0  0  0
  194.6100  175.4550  145.7820 C   0  0  0  0  0  2  0  0  0  0  0  0
  193.5650  173.0260  145.0770 S   0  0  0  0  0  0  0  0  0  0  0  0
  194.0150  173.2850  143.3220 C   0  0  1  0  0  3  0  0  0  0  0  0
  192.9160  175.3460  143.9490 C   0  0  0  0  0  2  0  0  0  0  0  0
  195.3490  175.3130  143.3920 N   0  0  0  0  0  2  0  0  0  0  0  0
  191.8760  176.2590  146.6400 N   0  0  0  0  0  0  0  0  0  0  0  0
  192.1910  175.0640  146.2900 C   0  0  0  0  0  3  0  0  0  0  0  0
  191.3440  177.3340  148.7370 C   0  0  0  0  0  1  0  0  0  0  0  0
  190.8130  176.4950  147.5850 C   0  0  1  0  0  3  0  0  0  0  0  0
  190.0850  177.8880  145.7740 F   0  0  0  0  0  0  0  0  0  0  0  0
  189.6410  177.2120  146.9010 C   0  0  1  0  0  3  0  0  0  0  0  0
  188.5130  176.2510  146.4910 C   0  0  0  0  0  0  0  0  0  0  0  0
  188.2720  175.3590  147.5250 F   0  0  0  0  0  0  0  0  0  0  0  0
  188.9240  175.5210  145.3890 F   0  0  0  0  0  0  0  0  0  0  0  0
  186.1490  177.0400  146.9980 C   0  0  0  0  0  0  0  0  0  0  0  0
  185.0190  177.7070  146.6390 N   0  0  0  0  0  0  0  0  0  0  0  0
  185.9820  178.3300  144.5430 C   0  0  0  0  0  0  0  0  0  0  0  0
  183.6990  179.0280  145.1230 N   0  0  0  0  0  1  0  0  0  0  0  0
  186.1960  176.4160  148.2020 F   0  0  0  0  0  0  0  0  0  0  0  0
  185.9010  179.0170  143.2230 C   0  0  0  0  0  1  0  0  0  0  0  0
  187.1490  177.6520  144.8910 C   0  0  0  0  0  3  0  0  0  0  0  0
  184.9080  178.3460  145.4440 C   0  0  0  0  0  0  0  0  0  0  0  0
  187.2510  176.9980  146.1250 C   0  0  0  0  0  0  0  0  0  0  0  0
  193.0390  172.6320  142.4660 N   0  0  0  0  0  2  0  0  0  0  0  0
  193.4790  172.8220  141.0940 C   0  0  0  0  0  2  0  0  0  0  0  0
  192.4230  171.9030  139.0630 N   0  0  0  0  0  0  0  0  0  0  0  0
  191.3770  171.7350  138.2100 C   0  0  0  0  0  3  0  0  0  0  0  0
  192.3190  172.6830  140.1730 C   0  0  0  0  0  0  0  0  0  0  0  0
  190.0190  173.1710  139.6040 C   0  0  0  0  0  0  0  0  0  0  0  0
  190.1580  172.3670  138.4650 C   0  0  0  0  0  3  0  0  0  0  0  0
  191.1130  173.3250  140.4660 C   0  0  0  0  0  3  0  0  0  0  0  0
  188.7400  173.8440  139.8920 C   0  0  0  0  0  0  0  0  0  0  0  0
  188.1830  174.5310  138.9920 O   0  0  0  0  0  0  0  0  0  0  0  0
  187.9210  174.6490  142.0630 C   0  0  0  0  0  3  0  0  0  0  0  0
  188.1440  173.7060  141.1940 N   0  0  0  0  0  0  0  0  0  0  0  0
  189.6390  176.3700  142.4060 C   0  0  0  0  0  1  0  0  0  0  0  0
  188.2620  176.0850  141.8420 C   0  0  0  0  0  2  0  0  0  0  0  0
  1  4  1  0  0  0  0
  1 10  1  1  0  0  0
  2  6  1  0  0  0  0
  2  8  1  0  0  0  0
  2  7  1  1  0  0  0
  3  4  1  0  0  0  0
  5  1  1  0  0  0  0
  6 27  1  6  0  0  0
  6  5  1  0  0  0  0
  7  1  1  0  0  0  0
  8  3  1  0  0  0  0
  9 12  1  0  0  0  0
 10  9  2  0  0  0  0
 12 11  1  1  0  0  0
 14 13  1  6  0  0  0
 14 12  1  0  0  0  0
 15 14  1  0  0  0  0
 15 16  1  0  0  0  0
 17 15  1  0  0  0  0
 18 22  1  0  0  0  0
 19 18  1  0  0  0  0
 20 24  2  0  0  0  0
 20 25  1  0  0  0  0
 21 25  1  0  0  0  0
 23 20  1  0  0  0  0
 24 26  1  0  0  0  0
 25 19  2  0  0  0  0
 26 15  1  0  0  0  0
 26 18  2  0  0  0  0
 28 27  1  0  0  0  0
 29 31  1  0  0  0  0
 30 33  1  0  0  0  0
 30 29  2  0  0  0  0
 31 34  2  0  0  0  0
 31 28  1  0  0  0  0
 32 35  1  0  0  0  0
 32 34  1  0  0  0  0
 33 32  2  0  0  0  0
 35 38  1  0  0  0  0
 36 35  2  0  0  0  0
 38 37  2  0  0  0  0
 40 37  1  0  0  0  0
 40 39  1  0  0  0  0
M  END
>  <MODEL>
9

>  <REMARK>
 VINA RESULT:      -7.0      1.770      2.399
  Name = 
  11 active torsions:
  status: ('A' for Active; 'I' for Inactive)
    1  A    between atoms: N_1  and  C_11
    2  A    between atoms: C_2  and  C_17
    3  A    between atoms: C_6  and  C_38
    4  A    between atoms: C_8  and  C_23
    5  A    between atoms: C_9  and  C_35
    6  A    between atoms: C_9  and  C_40
    7  A    between atoms: C_11  and  C_35
    8  A    between atoms: C_20  and  C_29
    9  A    between atoms: C_23  and  N_31
   10  A    between atoms: C_27  and  N_39
   11  A    between atoms: C_38  and  N_39
                            x       y       z     vdW  Elec       q    Type
                         _______ _______ _______ _____ _____    ______ ____

>  <TORSDO>
F 11

$$$$
