=
 OpenBabel11062420423D

 45 48  0  0  1  0  0  0  0  0999 V2000
  192.8150  173.9440  145.6100 C   0  0  0  0  0  2  0  0  0  0  0  0
  192.6480  172.7690  144.6540 C   0  0  1  0  0  3  0  0  0  0  0  0
  191.9720  171.4760  142.1610 C   0  0  2  0  0  3  0  0  0  0  0  0
  191.1840  172.6100  144.2380 C   0  0  0  0  0  2  0  0  0  0  0  0
  189.7200  171.2770  142.9450 F   0  0  0  0  0  0  0  0  0  0  0  0
  193.5530  172.8740  143.4920 N   0  0  0  0  0  0  0  0  0  0  0  0
  193.4150  171.6820  142.6440 C   0  0  0  0  0  2  0  0  0  0  0  0
  191.0350  171.3730  143.3640 C   0  0  1  0  0  3  0  0  0  0  0  0
  192.4870  169.4920  139.0190 O   0  0  0  0  0  1  0  0  0  0  0  0
  190.6520  170.2510  140.4160 C   0  0  0  0  0  2  0  0  0  0  0  0
  192.0000  170.5380  139.8010 C   0  0  1  0  0  0  0  0  0  0  0  0
  191.9080  170.2240  141.2910 C   0  0  1  0  0  3  0  0  0  0  0  0
  192.2410  171.9670  139.3220 C   0  0  0  0  0  2  0  0  0  0  0  0
  191.0140  172.5180  138.6150 C   0  0  0  0  0  2  0  0  0  0  0  0
  190.3780  173.5840  139.4830 C   0  0  0  0  0  2  0  0  0  0  0  0
  188.1380  173.5270  138.3960 O   0  0  0  0  0  0  0  0  0  0  0  0
  188.9060  173.3800  139.5400 C   0  0  0  0  0  0  0  0  0  0  0  0
  188.3550  173.0880  140.6310 O   0  0  0  0  0  1  0  0  0  0  0  0
  193.2630  174.0650  142.6910 C   0  0  0  0  0  2  0  0  0  0  0  0
  194.5430  174.8500  142.4520 C   0  0  0  0  0  2  0  0  0  0  0  0
  194.2790  175.0470  139.9630 C   0  0  0  0  0  1  0  0  0  0  0  0
  194.4140  175.8040  141.2690 C   0  0  2  0  0  3  0  0  0  0  0  0
  195.5120  176.6640  141.2150 O   0  0  0  0  0  1  0  0  0  0  0  0
  191.4870  174.6360  145.8600 C   0  0  0  0  0  2  0  0  0  0  0  0
  191.6910  175.9390  146.3280 O   0  0  0  0  0  0  0  0  0  0  0  0
  190.6010  178.3160  144.0280 N   0  0  0  0  0  2  0  0  0  0  0  0
  188.8910  175.3430  143.4390 O   0  0  0  0  0  1  0  0  0  0  0  0
  191.1350  177.0480  144.3030 N   0  0  0  0  0  0  0  0  0  0  0  0
  189.3820  175.9700  145.7180 C   0  0  0  0  0  2  0  0  0  0  0  0
  192.4830  177.1930  144.2660 O   0  0  0  0  0  1  0  0  0  0  0  0
  188.4560  176.1370  144.5070 C   0  0  1  0  0  3  0  0  0  0  0  0
  189.4000  178.1340  143.2270 C   0  0  0  0  0  2  0  0  0  0  0  0
  190.7270  176.7170  145.6750 C   0  0  1  0  0  3  0  0  0  0  0  0
  188.2530  177.5970  144.0870 C   0  0  1  0  0  3  0  0  0  0  0  0
  187.8510  177.5200  141.1460 O   0  0  0  0  0  1  0  0  0  0  0  0
  185.0260  177.9360  140.1560 C   0  0  0  0  0  1  0  0  0  0  0  0
  186.7870  177.7410  142.0100 C   0  0  0  0  0  0  0  0  0  0  0  0
  186.9270  177.7780  143.4040 C   0  0  0  0  0  0  0  0  0  0  0  0
  185.4850  177.9480  141.5720 C   0  0  0  0  0  0  0  0  0  0  0  0
  185.7170  178.0260  144.0540 C   0  0  0  0  0  0  0  0  0  0  0  0
  184.4890  178.1850  142.9070 S   0  0  0  0  0  0  0  0  0  0  0  0
  185.5580  178.1030  145.4370 O   0  0  0  0  0  0  0  0  0  0  0  0
  185.2530  176.9610  146.2260 C   0  0  0  0  0  2  0  0  0  0  0  0
  186.6830  178.3230  147.7420 C   0  0  0  0  0  1  0  0  0  0  0  0
  186.1280  176.9390  147.4640 C   0  0  0  0  0  2  0  0  0  0  0  0
  1 24  1  0  0  0  0
  2  1  1  1  0  0  0
  3  7  1  1  0  0  0
  3  8  1  0  0  0  0
  4  2  1  0  0  0  0
  6  2  1  0  0  0  0
  7  6  1  0  0  0  0
  8  5  1  6  0  0  0
  8  4  1  0  0  0  0
 11  9  1  6  0  0  0
 11 10  1  0  0  0  0
 11 12  1  0  0  0  0
 12 10  1  6  0  0  0
 12  3  1  0  0  0  0
 13 11  1  0  0  0  0
 14 13  1  0  0  0  0
 14 15  1  0  0  0  0
 15 17  1  0  0  0  0
 16 17  2  0  0  0  0
 17 18  1  0  0  0  0
 19  6  1  0  0  0  0
 20 19  1  0  0  0  0
 22 21  1  6  0  0  0
 22 20  1  0  0  0  0
 23 22  1  0  0  0  0
 24 25  1  0  0  0  0
 26 28  1  0  0  0  0
 28 33  1  0  0  0  0
 30 28  1  0  0  0  0
 31 27  1  6  0  0  0
 31 29  1  0  0  0  0
 32 26  1  0  0  0  0
 32 34  1  0  0  0  0
 33 29  1  0  0  0  0
 33 25  1  6  0  0  0
 34 38  1  6  0  0  0
 34 31  1  0  0  0  0
 35 37  1  0  0  0  0
 36 39  1  0  0  0  0
 37 38  1  0  0  0  0
 38 40  2  0  0  0  0
 39 37  2  0  0  0  0
 39 41  1  0  0  0  0
 40 42  1  0  0  0  0
 41 40  1  0  0  0  0
 42 43  1  0  0  0  0
 43 45  1  0  0  0  0
 45 44  1  0  0  0  0
M  END
>  <MODEL>
1

>  <REMARK>
 VINA RESULT:      -6.1      0.000      0.000
  Name = 
  16 active torsions:
  status: ('A' for Active; 'I' for Inactive)
    1  A    between atoms: C_5  and  O_22
    2  A    between atoms: C_5  and  C_36
    3  A    between atoms: C_6  and  C_16
    4  A    between atoms: C_6  and  N_32
    5  A    between atoms: C_8  and  C_12
    6  A    between atoms: C_8  and  C_35
    7  A    between atoms: C_10  and  C_41
    8  A    between atoms: C_12  and  C_17
    9  A    between atoms: C_13  and  C_16
   10  A    between atoms: C_14  and  C_18
   11  A    between atoms: C_21  and  C_45
   12  A    between atoms: O_22  and  C_29
   13  A    between atoms: C_25  and  C_35
   14  A    between atoms: O_38  and  C_43
   15  A    between atoms: O_38  and  C_44
   16  A    between atoms: C_41  and  C_43
                            x       y       z     vdW  Elec       q    Type
                         _______ _______ _______ _____ _____    ______ ____

>  <TORSDO>
F 16

$$$$
=
 OpenBabel11062420423D

 45 48  0  0  1  0  0  0  0  0999 V2000
  194.1370  173.2360  144.8300 C   0  0  0  0  0  2  0  0  0  0  0  0
  193.7690  172.3580  143.6410 C   0  0  1  0  0  3  0  0  0  0  0  0
  192.2870  171.6050  141.2790 C   0  0  2  0  0  3  0  0  0  0  0  0
  192.3290  171.8540  143.7610 C   0  0  0  0  0  2  0  0  0  0  0  0
  190.7040  170.5060  142.6970 F   0  0  0  0  0  0  0  0  0  0  0  0
  194.0200  173.0410  142.3560 N   0  0  0  0  0  0  0  0  0  0  0  0
  193.7300  172.1280  141.2420 C   0  0  0  0  0  2  0  0  0  0  0  0
  192.0260  170.9030  142.6110 C   0  0  1  0  0  3  0  0  0  0  0  0
  191.7860  170.7620  137.6580 O   0  0  0  0  0  1  0  0  0  0  0  0
  190.5710  170.5950  139.7540 C   0  0  0  0  0  2  0  0  0  0  0  0
  191.5060  171.3870  138.8730 C   0  0  1  0  0  0  0  0  0  0  0  0
  192.0610  170.6670  140.0960 C   0  0  1  0  0  3  0  0  0  0  0  0
  191.3270  172.9030  138.8760 C   0  0  0  0  0  2  0  0  0  0  0  0
  190.5250  173.3590  137.6700 C   0  0  0  0  0  2  0  0  0  0  0  0
  189.0560  173.4020  138.0390 C   0  0  0  0  0  2  0  0  0  0  0  0
  188.8280  174.8730  136.0420 O   0  0  0  0  0  0  0  0  0  0  0  0
  188.3800  174.5010  137.3000 C   0  0  0  0  0  0  0  0  0  0  0  0
  187.4100  175.1050  137.8230 O   0  0  0  0  0  1  0  0  0  0  0  0
  193.1940  174.2420  142.2160 C   0  0  0  0  0  2  0  0  0  0  0  0
  193.8470  175.2060  141.2380 C   0  0  0  0  0  2  0  0  0  0  0  0
  196.2190  175.8000  141.8080 C   0  0  0  0  0  1  0  0  0  0  0  0
  194.7630  176.2000  141.9430 C   0  0  2  0  0  3  0  0  0  0  0  0
  194.4180  176.3090  143.2910 O   0  0  0  0  0  1  0  0  0  0  0  0
  192.9540  173.4080  145.7680 C   0  0  0  0  0  2  0  0  0  0  0  0
  192.6930  174.7640  145.9890 O   0  0  0  0  0  0  0  0  0  0  0  0
  189.3950  174.9340  147.0910 N   0  0  0  0  0  2  0  0  0  0  0  0
  190.1080  177.8240  145.2900 O   0  0  0  0  0  1  0  0  0  0  0  0
  190.6770  175.4970  147.0070 N   0  0  0  0  0  0  0  0  0  0  0  0
  191.0520  175.7300  144.5480 C   0  0  0  0  0  2  0  0  0  0  0  0
  191.3410  175.0850  148.1150 O   0  0  0  0  0  1  0  0  0  0  0  0
  189.8330  176.6610  144.5610 C   0  0  1  0  0  3  0  0  0  0  0  0
  188.4430  175.9010  146.5630 C   0  0  0  0  0  2  0  0  0  0  0  0
  191.3100  174.9030  145.8210 C   0  0  1  0  0  3  0  0  0  0  0  0
  188.5450  175.9800  145.0380 C   0  0  1  0  0  3  0  0  0  0  0  0
  187.0650  178.2210  146.3040 O   0  0  0  0  0  1  0  0  0  0  0  0
  184.6740  179.2870  144.7950 C   0  0  0  0  0  1  0  0  0  0  0  0
  186.6650  177.6960  145.0830 C   0  0  0  0  0  0  0  0  0  0  0  0
  187.3360  176.6450  144.4430 C   0  0  0  0  0  0  0  0  0  0  0  0
  185.5610  178.1650  144.3820 C   0  0  0  0  0  0  0  0  0  0  0  0
  186.7370  176.2890  143.2340 C   0  0  0  0  0  0  0  0  0  0  0  0
  185.3970  177.2780  142.9620 S   0  0  0  0  0  0  0  0  0  0  0  0
  187.1990  175.2860  142.3830 O   0  0  0  0  0  0  0  0  0  0  0  0
  188.1090  175.5540  141.3250 C   0  0  0  0  0  2  0  0  0  0  0  0
  188.9300  173.2520  141.7980 C   0  0  0  0  0  1  0  0  0  0  0  0
  189.3360  174.6740  141.4620 C   0  0  0  0  0  2  0  0  0  0  0  0
  1 24  1  0  0  0  0
  2  4  1  0  0  0  0
  2  1  1  1  0  0  0
  3  7  1  1  0  0  0
  3  8  1  0  0  0  0
  6  2  1  0  0  0  0
  7  6  1  0  0  0  0
  8  5  1  6  0  0  0
  8  4  1  0  0  0  0
 11  9  1  6  0  0  0
 11 13  1  0  0  0  0
 11 10  1  0  0  0  0
 11 12  1  0  0  0  0
 12 10  1  1  0  0  0
 12  3  1  0  0  0  0
 14 15  1  0  0  0  0
 14 13  1  0  0  0  0
 16 17  2  0  0  0  0
 17 18  1  0  0  0  0
 17 15  1  0  0  0  0
 19  6  1  0  0  0  0
 20 22  1  0  0  0  0
 20 19  1  0  0  0  0
 22 21  1  1  0  0  0
 22 23  1  0  0  0  0
 24 25  1  0  0  0  0
 28 26  1  0  0  0  0
 28 30  1  0  0  0  0
 29 31  1  0  0  0  0
 29 33  1  0  0  0  0
 31 34  1  0  0  0  0
 31 27  1  1  0  0  0
 32 26  1  0  0  0  0
 33 25  1  1  0  0  0
 33 28  1  0  0  0  0
 34 38  1  1  0  0  0
 34 32  1  0  0  0  0
 37 35  1  0  0  0  0
 38 37  1  0  0  0  0
 39 36  1  0  0  0  0
 39 37  2  0  0  0  0
 40 38  2  0  0  0  0
 41 40  1  0  0  0  0
 41 39  1  0  0  0  0
 42 40  1  0  0  0  0
 43 45  1  0  0  0  0
 43 42  1  0  0  0  0
 45 44  1  0  0  0  0
M  END
>  <MODEL>
2

>  <REMARK>
 VINA RESULT:      -6.0      1.838      3.072
  Name = 
  16 active torsions:
  status: ('A' for Active; 'I' for Inactive)
    1  A    between atoms: C_5  and  O_22
    2  A    between atoms: C_5  and  C_36
    3  A    between atoms: C_6  and  C_16
    4  A    between atoms: C_6  and  N_32
    5  A    between atoms: C_8  and  C_12
    6  A    between atoms: C_8  and  C_35
    7  A    between atoms: C_10  and  C_41
    8  A    between atoms: C_12  and  C_17
    9  A    between atoms: C_13  and  C_16
   10  A    between atoms: C_14  and  C_18
   11  A    between atoms: C_21  and  C_45
   12  A    between atoms: O_22  and  C_29
   13  A    between atoms: C_25  and  C_35
   14  A    between atoms: O_38  and  C_43
   15  A    between atoms: O_38  and  C_44
   16  A    between atoms: C_41  and  C_43
                            x       y       z     vdW  Elec       q    Type
                         _______ _______ _______ _____ _____    ______ ____

>  <TORSDO>
F 16

$$$$
=
 OpenBabel11062420423D

 45 48  0  0  1  0  0  0  0  0999 V2000
  194.6110  176.3900  145.8180 C   0  0  0  0  0  2  0  0  0  0  0  0
  194.6710  176.4220  144.2950 C   0  0  1  0  0  3  0  0  0  0  0  0
  195.2510  175.3960  141.6580 C   0  0  2  0  0  3  0  0  0  0  0  0
  196.1170  176.3270  143.8050 C   0  0  0  0  0  2  0  0  0  0  0  0
  197.4540  176.3080  141.8550 F   0  0  0  0  0  0  0  0  0  0  0  0
  193.8030  175.3910  143.6910 N   0  0  0  0  0  0  0  0  0  0  0  0
  193.8300  175.5150  142.2260 C   0  0  0  0  0  2  0  0  0  0  0  0
  196.1500  176.4590  142.2890 C   0  0  1  0  0  3  0  0  0  0  0  0
  194.1300  174.4720  138.2000 O   0  0  0  0  0  1  0  0  0  0  0  0
  196.1870  174.5660  139.4850 C   0  0  0  0  0  2  0  0  0  0  0  0
  194.7100  174.2650  139.4510 C   0  0  1  0  0  0  0  0  0  0  0  0
  195.1980  175.5340  140.1390 C   0  0  1  0  0  3  0  0  0  0  0  0
  194.2390  173.0670  140.2710 C   0  0  0  0  0  2  0  0  0  0  0  0
  192.7980  172.7140  139.9420 C   0  0  0  0  0  2  0  0  0  0  0  0
  192.4620  171.3730  140.5600 C   0  0  0  0  0  2  0  0  0  0  0  0
  190.5730  172.6550  141.5570 O   0  0  0  0  0  1  0  0  0  0  0  0
  191.1220  171.4320  141.2020 C   0  0  0  0  0  0  0  0  0  0  0  0
  190.4910  170.3710  141.4390 O   0  0  0  0  0  0  0  0  0  0  0  0
  194.2330  174.0420  144.0640 C   0  0  0  0  0  2  0  0  0  0  0  0
  193.0310  173.1120  144.1100 C   0  0  0  0  0  2  0  0  0  0  0  0
  194.5760  171.2080  143.5690 C   0  0  0  0  0  1  0  0  0  0  0  0
  193.4310  171.6790  144.4440 C   0  0  2  0  0  3  0  0  0  0  0  0
  192.3380  170.8240  144.3080 O   0  0  0  0  0  1  0  0  0  0  0  0
  193.1860  176.5690  146.3110 C   0  0  0  0  0  2  0  0  0  0  0  0
  192.7180  175.3910  146.9030 O   0  0  0  0  0  0  0  0  0  0  0  0
  189.3790  174.6340  147.5330 N   0  0  0  0  0  2  0  0  0  0  0  0
  189.6260  178.0310  146.8210 O   0  0  0  0  0  1  0  0  0  0  0  0
  190.5220  175.4000  147.8040 N   0  0  0  0  0  0  0  0  0  0  0  0
  191.0320  176.4850  145.6130 C   0  0  0  0  0  2  0  0  0  0  0  0
  191.1680  174.7660  148.8140 O   0  0  0  0  0  1  0  0  0  0  0  0
  189.6520  177.1420  145.7400 C   0  0  1  0  0  3  0  0  0  0  0  0
  188.2940  175.5460  147.1990 C   0  0  0  0  0  2  0  0  0  0  0  0
  191.3530  175.3430  146.5940 C   0  0  1  0  0  3  0  0  0  0  0  0
  188.4960  176.1360  145.8010 C   0  0  1  0  0  3  0  0  0  0  0  0
  186.4890  177.5430  147.4770 O   0  0  0  0  0  1  0  0  0  0  0  0
  184.0580  178.6290  146.0500 C   0  0  0  0  0  1  0  0  0  0  0  0
  186.3050  177.3950  146.1090 C   0  0  0  0  0  0  0  0  0  0  0  0
  187.2280  176.7460  145.2770 C   0  0  0  0  0  0  0  0  0  0  0  0
  185.1870  177.8750  145.4390 C   0  0  0  0  0  0  0  0  0  0  0  0
  186.8130  176.7160  143.9440 C   0  0  0  0  0  0  0  0  0  0  0  0
  185.3240  177.4970  143.8050 S   0  0  0  0  0  0  0  0  0  0  0  0
  187.5390  176.1460  142.8990 O   0  0  0  0  0  0  0  0  0  0  0  0
  187.6110  176.7500  141.6150 C   0  0  0  0  0  2  0  0  0  0  0  0
  189.7300  177.8390  142.3390 C   0  0  0  0  0  1  0  0  0  0  0  0
  188.3710  178.0590  141.7010 C   0  0  0  0  0  2  0  0  0  0  0  0
  1 24  1  0  0  0  0
  2  1  1  1  0  0  0
  3  7  1  1  0  0  0
  3  8  1  0  0  0  0
  4  2  1  0  0  0  0
  6 19  1  0  0  0  0
  6  2  1  0  0  0  0
  7  6  1  0  0  0  0
  8  5  1  6  0  0  0
  8  4  1  0  0  0  0
 11  9  1  6  0  0  0
 11 10  1  0  0  0  0
 11 12  1  0  0  0  0
 11 13  1  0  0  0  0
 12 10  1  6  0  0  0
 12  3  1  0  0  0  0
 14 13  1  0  0  0  0
 14 15  1  0  0  0  0
 15 17  1  0  0  0  0
 17 18  2  0  0  0  0
 17 16  1  0  0  0  0
 19 20  1  0  0  0  0
 20 22  1  0  0  0  0
 22 21  1  6  0  0  0
 23 22  1  0  0  0  0
 24 25  1  0  0  0  0
 26 28  1  0  0  0  0
 28 30  1  0  0  0  0
 29 31  1  0  0  0  0
 29 33  1  0  0  0  0
 31 34  1  0  0  0  0
 31 27  1  1  0  0  0
 32 26  1  0  0  0  0
 33 25  1  1  0  0  0
 33 28  1  0  0  0  0
 34 38  1  1  0  0  0
 34 32  1  0  0  0  0
 37 35  1  0  0  0  0
 38 37  1  0  0  0  0
 39 36  1  0  0  0  0
 39 37  2  0  0  0  0
 40 38  2  0  0  0  0
 41 40  1  0  0  0  0
 41 39  1  0  0  0  0
 42 40  1  0  0  0  0
 43 45  1  0  0  0  0
 43 42  1  0  0  0  0
 45 44  1  0  0  0  0
M  END
>  <MODEL>
3

>  <REMARK>
 VINA RESULT:      -6.0      2.575      4.600
  Name = 
  16 active torsions:
  status: ('A' for Active; 'I' for Inactive)
    1  A    between atoms: C_5  and  O_22
    2  A    between atoms: C_5  and  C_36
    3  A    between atoms: C_6  and  C_16
    4  A    between atoms: C_6  and  N_32
    5  A    between atoms: C_8  and  C_12
    6  A    between atoms: C_8  and  C_35
    7  A    between atoms: C_10  and  C_41
    8  A    between atoms: C_12  and  C_17
    9  A    between atoms: C_13  and  C_16
   10  A    between atoms: C_14  and  C_18
   11  A    between atoms: C_21  and  C_45
   12  A    between atoms: O_22  and  C_29
   13  A    between atoms: C_25  and  C_35
   14  A    between atoms: O_38  and  C_43
   15  A    between atoms: O_38  and  C_44
   16  A    between atoms: C_41  and  C_43
                            x       y       z     vdW  Elec       q    Type
                         _______ _______ _______ _____ _____    ______ ____

>  <TORSDO>
F 16

$$$$
=
 OpenBabel11062420423D

 45 48  0  0  1  0  0  0  0  0999 V2000
  194.8700  175.7600  145.4640 C   0  0  0  0  0  2  0  0  0  0  0  0
  194.9550  175.8920  143.9480 C   0  0  1  0  0  3  0  0  0  0  0  0
  195.0990  174.9420  141.2240 C   0  0  2  0  0  3  0  0  0  0  0  0
  196.2430  175.2590  143.4180 C   0  0  0  0  0  2  0  0  0  0  0  0
  197.4800  174.8610  141.4430 F   0  0  0  0  0  0  0  0  0  0  0  0
  193.7510  175.3560  143.2820 N   0  0  0  0  0  0  0  0  0  0  0  0
  193.8420  175.5800  141.8330 C   0  0  0  0  0  2  0  0  0  0  0  0
  196.3450  175.4920  141.9180 C   0  0  1  0  0  3  0  0  0  0  0  0
  193.8290  174.6940  137.7030 O   0  0  0  0  0  1  0  0  0  0  0  0
  195.7890  174.0510  138.9840 C   0  0  0  0  0  2  0  0  0  0  0  0
  194.2900  174.2170  138.9290 C   0  0  1  0  0  0  0  0  0  0  0  0
  195.1250  175.2160  139.7230 C   0  0  1  0  0  3  0  0  0  0  0  0
  193.4600  173.1550  139.6450 C   0  0  0  0  0  2  0  0  0  0  0  0
  192.0440  173.1090  139.0950 C   0  0  0  0  0  2  0  0  0  0  0  0
  191.0790  173.5610  140.1720 C   0  0  0  0  0  2  0  0  0  0  0  0
  190.1340  171.2620  140.0110 O   0  0  0  0  0  0  0  0  0  0  0  0
  189.9380  172.6120  140.2610 C   0  0  0  0  0  0  0  0  0  0  0  0
  188.7900  173.0350  140.5480 O   0  0  0  0  0  1  0  0  0  0  0  0
  193.5900  173.9230  143.5350 C   0  0  0  0  0  2  0  0  0  0  0  0
  192.1120  173.5750  143.6130 C   0  0  0  0  0  2  0  0  0  0  0  0
  192.1710  171.1630  142.9150 C   0  0  0  0  0  1  0  0  0  0  0  0
  191.8890  172.1310  144.0480 C   0  0  2  0  0  3  0  0  0  0  0  0
  190.5850  171.9580  144.5150 O   0  0  0  0  0  1  0  0  0  0  0  0
  193.8790  176.7560  146.0430 C   0  0  0  0  0  2  0  0  0  0  0  0
  193.0600  176.1400  146.9950 O   0  0  0  0  0  0  0  0  0  0  0  0
  189.9190  174.6790  146.6500 N   0  0  0  0  0  2  0  0  0  0  0  0
  189.6010  178.1090  146.1660 O   0  0  0  0  0  1  0  0  0  0  0  0
  190.7570  175.6270  147.2560 N   0  0  0  0  0  0  0  0  0  0  0  0
  191.5740  176.9960  145.3330 C   0  0  0  0  0  2  0  0  0  0  0  0
  191.2380  175.0390  148.3790 O   0  0  0  0  0  1  0  0  0  0  0  0
  190.1000  177.3520  145.1010 C   0  0  1  0  0  3  0  0  0  0  0  0
  188.7880  175.3850  146.0660 C   0  0  0  0  0  2  0  0  0  0  0  0
  191.8670  175.8520  146.3200 C   0  0  1  0  0  3  0  0  0  0  0  0
  189.2150  176.1350  144.8020 C   0  0  1  0  0  3  0  0  0  0  0  0
  189.1680  176.1510  141.8330 O   0  0  0  0  0  1  0  0  0  0  0  0
  186.5840  177.0170  140.5270 C   0  0  0  0  0  1  0  0  0  0  0  0
  188.0540  176.5290  142.5710 C   0  0  0  0  0  0  0  0  0  0  0  0
  188.0260  176.5300  143.9720 C   0  0  0  0  0  0  0  0  0  0  0  0
  186.8630  176.9430  141.9880 C   0  0  0  0  0  0  0  0  0  0  0  0
  186.8000  176.9590  144.4810 C   0  0  0  0  0  0  0  0  0  0  0  0
  185.7610  177.3220  143.2010 S   0  0  0  0  0  0  0  0  0  0  0  0
  186.4880  177.0470  145.8370 O   0  0  0  0  0  0  0  0  0  0  0  0
  185.1580  176.8990  146.3150 C   0  0  0  0  0  2  0  0  0  0  0  0
  185.8460  179.0320  147.4000 C   0  0  0  0  0  1  0  0  0  0  0  0
  184.6720  178.2080  146.9060 C   0  0  0  0  0  2  0  0  0  0  0  0
  1 24  1  0  0  0  0
  2  1  1  1  0  0  0
  3  7  1  1  0  0  0
  3  8  1  0  0  0  0
  4  2  1  0  0  0  0
  6 19  1  0  0  0  0
  6  2  1  0  0  0  0
  7  6  1  0  0  0  0
  8  5  1  6  0  0  0
  8  4  1  0  0  0  0
 11  9  1  6  0  0  0
 11 10  1  0  0  0  0
 11 13  1  0  0  0  0
 11 12  1  0  0  0  0
 12 10  1  6  0  0  0
 12  3  1  0  0  0  0
 14 13  1  0  0  0  0
 14 15  1  0  0  0  0
 15 17  1  0  0  0  0
 16 17  2  0  0  0  0
 17 18  1  0  0  0  0
 19 20  1  0  0  0  0
 20 22  1  0  0  0  0
 22 21  1  6  0  0  0
 22 23  1  0  0  0  0
 24 25  1  0  0  0  0
 26 28  1  0  0  0  0
 28 30  1  0  0  0  0
 29 33  1  0  0  0  0
 31 29  1  0  0  0  0
 31 27  1  1  0  0  0
 32 26  1  0  0  0  0
 33 25  1  1  0  0  0
 33 28  1  0  0  0  0
 34 38  1  1  0  0  0
 34 31  1  0  0  0  0
 34 32  1  0  0  0  0
 35 37  1  0  0  0  0
 36 39  1  0  0  0  0
 37 38  1  0  0  0  0
 38 40  2  0  0  0  0
 39 37  2  0  0  0  0
 39 41  1  0  0  0  0
 40 42  1  0  0  0  0
 41 40  1  0  0  0  0
 42 43  1  0  0  0  0
 43 45  1  0  0  0  0
 45 44  1  0  0  0  0
M  END
>  <MODEL>
4

>  <REMARK>
 VINA RESULT:      -6.0      2.299      3.777
  Name = 
  16 active torsions:
  status: ('A' for Active; 'I' for Inactive)
    1  A    between atoms: C_5  and  O_22
    2  A    between atoms: C_5  and  C_36
    3  A    between atoms: C_6  and  C_16
    4  A    between atoms: C_6  and  N_32
    5  A    between atoms: C_8  and  C_12
    6  A    between atoms: C_8  and  C_35
    7  A    between atoms: C_10  and  C_41
    8  A    between atoms: C_12  and  C_17
    9  A    between atoms: C_13  and  C_16
   10  A    between atoms: C_14  and  C_18
   11  A    between atoms: C_21  and  C_45
   12  A    between atoms: O_22  and  C_29
   13  A    between atoms: C_25  and  C_35
   14  A    between atoms: O_38  and  C_43
   15  A    between atoms: O_38  and  C_44
   16  A    between atoms: C_41  and  C_43
                            x       y       z     vdW  Elec       q    Type
                         _______ _______ _______ _____ _____    ______ ____

>  <TORSDO>
F 16

$$$$
=
 OpenBabel11062420423D

 45 48  0  0  1  0  0  0  0  0999 V2000
  193.7120  173.7030  145.7520 C   0  0  0  0  0  2  0  0  0  0  0  0
  193.2030  172.6730  144.7500 C   0  0  1  0  0  3  0  0  0  0  0  0
  191.9720  171.7640  142.3010 C   0  0  2  0  0  3  0  0  0  0  0  0
  191.6920  172.8100  144.5480 C   0  0  0  0  0  2  0  0  0  0  0  0
  189.8480  171.8830  143.3970 F   0  0  0  0  0  0  0  0  0  0  0  0
  193.9480  172.7320  143.4760 N   0  0  0  0  0  0  0  0  0  0  0  0
  193.4790  171.6700  142.5760 C   0  0  0  0  0  2  0  0  0  0  0  0
  191.2020  171.7090  143.6200 C   0  0  1  0  0  3  0  0  0  0  0  0
  191.8220  169.9590  139.0160 O   0  0  0  0  0  1  0  0  0  0  0  0
  190.3020  171.0220  140.5830 C   0  0  0  0  0  2  0  0  0  0  0  0
  191.6440  171.0280  139.8930 C   0  0  1  0  0  0  0  0  0  0  0  0
  191.5600  170.6320  141.3630 C   0  0  1  0  0  3  0  0  0  0  0  0
  192.1950  172.3920  139.4850 C   0  0  0  0  0  2  0  0  0  0  0  0
  191.0770  173.3230  139.0490 C   0  0  0  0  0  2  0  0  0  0  0  0
  190.8940  173.2100  137.5490 C   0  0  0  0  0  2  0  0  0  0  0  0
  188.4890  172.8870  138.1130 O   0  0  0  0  0  1  0  0  0  0  0  0
  189.5450  172.6630  137.2430 C   0  0  0  0  0  0  0  0  0  0  0  0
  189.3660  171.9830  136.2010 O   0  0  0  0  0  0  0  0  0  0  0  0
  193.7790  174.0280  142.8150 C   0  0  0  0  0  2  0  0  0  0  0  0
  194.9550  174.2920  141.8890 C   0  0  0  0  0  2  0  0  0  0  0  0
  196.2960  175.4890  143.6420 C   0  0  0  0  0  1  0  0  0  0  0  0
  196.2770  174.3440  142.6480 C   0  0  2  0  0  3  0  0  0  0  0  0
  197.3450  174.4620  141.7590 O   0  0  0  0  0  1  0  0  0  0  0  0
  192.5750  174.5640  146.2730 C   0  0  0  0  0  2  0  0  0  0  0  0
  192.9760  175.9000  146.3750 O   0  0  0  0  0  0  0  0  0  0  0  0
  191.2240  178.0680  144.2880 N   0  0  0  0  0  2  0  0  0  0  0  0
  189.3880  175.1310  144.6210 O   0  0  0  0  0  1  0  0  0  0  0  0
  191.8070  176.8140  144.5210 N   0  0  0  0  0  0  0  0  0  0  0  0
  190.5940  175.9720  146.5360 C   0  0  0  0  0  2  0  0  0  0  0  0
  193.0720  176.8920  144.0390 O   0  0  0  0  0  1  0  0  0  0  0  0
  189.3280  176.0520  145.6730 C   0  0  1  0  0  3  0  0  0  0  0  0
  189.8270  177.8580  143.9380 C   0  0  0  0  0  2  0  0  0  0  0  0
  191.8600  176.6480  145.9800 C   0  0  1  0  0  3  0  0  0  0  0  0
  189.0140  177.4680  145.1750 C   0  0  1  0  0  3  0  0  0  0  0  0
  187.0220  178.0550  147.2970 O   0  0  0  0  0  1  0  0  0  0  0  0
  184.1430  178.3130  146.4160 C   0  0  0  0  0  1  0  0  0  0  0  0
  186.6360  177.9050  145.9720 C   0  0  0  0  0  0  0  0  0  0  0  0
  187.5400  177.6360  144.9360 C   0  0  0  0  0  0  0  0  0  0  0  0
  185.3160  178.0060  145.5510 C   0  0  0  0  0  0  0  0  0  0  0  0
  186.9100  177.5180  143.6960 C   0  0  0  0  0  0  0  0  0  0  0  0
  185.2500  177.7580  143.8880 S   0  0  0  0  0  0  0  0  0  0  0  0
  187.5650  177.2650  142.4920 O   0  0  0  0  0  0  0  0  0  0  0  0
  187.2360  176.1510  141.6740 C   0  0  0  0  0  2  0  0  0  0  0  0
  188.1750  173.8530  141.4790 C   0  0  0  0  0  1  0  0  0  0  0  0
  188.4810  175.3360  141.3840 C   0  0  0  0  0  2  0  0  0  0  0  0
  1 24  1  0  0  0  0
  2  1  1  1  0  0  0
  3  7  1  1  0  0  0
  3  8  1  0  0  0  0
  4  2  1  0  0  0  0
  6  2  1  0  0  0  0
  7  6  1  0  0  0  0
  8  5  1  6  0  0  0
  8  4  1  0  0  0  0
 11  9  1  6  0  0  0
 11 10  1  0  0  0  0
 11 12  1  0  0  0  0
 12 10  1  1  0  0  0
 12  3  1  0  0  0  0
 13 11  1  0  0  0  0
 14 13  1  0  0  0  0
 15 14  1  0  0  0  0
 17 15  1  0  0  0  0
 17 16  1  0  0  0  0
 18 17  2  0  0  0  0
 19  6  1  0  0  0  0
 20 22  1  0  0  0  0
 20 19  1  0  0  0  0
 22 21  1  1  0  0  0
 23 22  1  0  0  0  0
 24 25  1  0  0  0  0
 26 28  1  0  0  0  0
 28 33  1  0  0  0  0
 30 28  1  0  0  0  0
 31 27  1  6  0  0  0
 31 29  1  0  0  0  0
 32 26  1  0  0  0  0
 32 34  1  0  0  0  0
 33 25  1  6  0  0  0
 33 29  1  0  0  0  0
 34 38  1  6  0  0  0
 34 31  1  0  0  0  0
 37 35  1  0  0  0  0
 38 37  1  0  0  0  0
 39 37  2  0  0  0  0
 39 36  1  0  0  0  0
 40 41  1  0  0  0  0
 40 38  2  0  0  0  0
 41 39  1  0  0  0  0
 42 40  1  0  0  0  0
 43 42  1  0  0  0  0
 45 44  1  0  0  0  0
 45 43  1  0  0  0  0
M  END
>  <MODEL>
5

>  <REMARK>
 VINA RESULT:      -6.0      1.384      2.789
  Name = 
  16 active torsions:
  status: ('A' for Active; 'I' for Inactive)
    1  A    between atoms: C_5  and  O_22
    2  A    between atoms: C_5  and  C_36
    3  A    between atoms: C_6  and  C_16
    4  A    between atoms: C_6  and  N_32
    5  A    between atoms: C_8  and  C_12
    6  A    between atoms: C_8  and  C_35
    7  A    between atoms: C_10  and  C_41
    8  A    between atoms: C_12  and  C_17
    9  A    between atoms: C_13  and  C_16
   10  A    between atoms: C_14  and  C_18
   11  A    between atoms: C_21  and  C_45
   12  A    between atoms: O_22  and  C_29
   13  A    between atoms: C_25  and  C_35
   14  A    between atoms: O_38  and  C_43
   15  A    between atoms: O_38  and  C_44
   16  A    between atoms: C_41  and  C_43
                            x       y       z     vdW  Elec       q    Type
                         _______ _______ _______ _____ _____    ______ ____

>  <TORSDO>
F 16

$$$$
=
 OpenBabel11062420423D

 45 48  0  0  1  0  0  0  0  0999 V2000
  194.6310  176.1720  145.5410 C   0  0  0  0  0  2  0  0  0  0  0  0
  194.7600  176.2140  144.0230 C   0  0  1  0  0  3  0  0  0  0  0  0
  195.5270  175.2360  141.4160 C   0  0  2  0  0  3  0  0  0  0  0  0
  196.2310  176.2100  143.6020 C   0  0  0  0  0  2  0  0  0  0  0  0
  197.6580  176.2820  141.7180 F   0  0  0  0  0  0  0  0  0  0  0  0
  193.9880  175.1340  143.3770 N   0  0  0  0  0  0  0  0  0  0  0  0
  194.0760  175.2640  141.9160 C   0  0  0  0  0  2  0  0  0  0  0  0
  196.3270  176.3500  142.0890 C   0  0  1  0  0  3  0  0  0  0  0  0
  194.8570  174.1250  137.8960 O   0  0  0  0  0  1  0  0  0  0  0  0
  196.7580  174.6640  139.3070 C   0  0  0  0  0  2  0  0  0  0  0  0
  195.3910  174.0380  139.1810 C   0  0  1  0  0  0  0  0  0  0  0  0
  195.5380  175.3770  139.8960 C   0  0  1  0  0  3  0  0  0  0  0  0
  195.1520  172.7550  139.9730 C   0  0  0  0  0  2  0  0  0  0  0  0
  194.0350  171.9330  139.3530 C   0  0  0  0  0  2  0  0  0  0  0  0
  192.7280  172.2720  140.0400 C   0  0  0  0  0  2  0  0  0  0  0  0
  190.3280  171.8390  139.5340 O   0  0  0  0  0  1  0  0  0  0  0  0
  191.6020  172.1450  139.0780 C   0  0  0  0  0  0  0  0  0  0  0  0
  191.8060  172.3000  137.8480 O   0  0  0  0  0  0  0  0  0  0  0  0
  194.4820  173.8120  143.7680 C   0  0  0  0  0  2  0  0  0  0  0  0
  193.3560  172.7940  143.6830 C   0  0  0  0  0  2  0  0  0  0  0  0
  194.8050  170.8240  143.1150 C   0  0  0  0  0  1  0  0  0  0  0  0
  193.8130  171.4020  144.1050 C   0  0  2  0  0  3  0  0  0  0  0  0
  192.7170  170.5500  144.2410 O   0  0  0  0  0  1  0  0  0  0  0  0
  193.1800  176.3120  145.9680 C   0  0  0  0  0  2  0  0  0  0  0  0
  192.6950  175.1000  146.4700 O   0  0  0  0  0  0  0  0  0  0  0  0
  189.3390  174.7470  147.3250 N   0  0  0  0  0  2  0  0  0  0  0  0
  189.8270  177.9550  146.0710 O   0  0  0  0  0  1  0  0  0  0  0  0
  190.5510  175.4430  147.4320 N   0  0  0  0  0  0  0  0  0  0  0  0
  191.0440  176.1220  145.0790 C   0  0  0  0  0  2  0  0  0  0  0  0
  191.1910  174.9210  148.5080 O   0  0  0  0  0  1  0  0  0  0  0  0
  189.7300  176.9090  145.1460 C   0  0  1  0  0  3  0  0  0  0  0  0
  188.3170  175.6870  146.8870 C   0  0  0  0  0  2  0  0  0  0  0  0
  191.3180  175.1240  146.2190 C   0  0  1  0  0  3  0  0  0  0  0  0
  188.5000  176.0300  145.4060 C   0  0  1  0  0  3  0  0  0  0  0  0
  186.8130  178.0170  146.8280 O   0  0  0  0  0  1  0  0  0  0  0  0
  184.3930  179.0470  145.3400 C   0  0  0  0  0  1  0  0  0  0  0  0
  186.4920  177.5880  145.5470 C   0  0  0  0  0  0  0  0  0  0  0  0
  187.2620  176.6600  144.8340 C   0  0  0  0  0  0  0  0  0  0  0  0
  185.3760  178.0400  144.8530 C   0  0  0  0  0  0  0  0  0  0  0  0
  186.7300  176.3820  143.5740 C   0  0  0  0  0  0  0  0  0  0  0  0
  185.3250  177.2900  143.3480 S   0  0  0  0  0  0  0  0  0  0  0  0
  187.2940  175.5060  142.6480 O   0  0  0  0  0  0  0  0  0  0  0  0
  188.3500  175.9020  141.7820 C   0  0  0  0  0  2  0  0  0  0  0  0
  190.4020  174.5000  141.9320 C   0  0  0  0  0  1  0  0  0  0  0  0
  189.0630  174.6770  141.2430 C   0  0  0  0  0  2  0  0  0  0  0  0
  1 24  1  0  0  0  0
  2  1  1  1  0  0  0
  3  7  1  1  0  0  0
  3  8  1  0  0  0  0
  4  2  1  0  0  0  0
  6 19  1  0  0  0  0
  6  2  1  0  0  0  0
  7  6  1  0  0  0  0
  8  5  1  6  0  0  0
  8  4  1  0  0  0  0
 11  9  1  6  0  0  0
 11 10  1  0  0  0  0
 11 12  1  0  0  0  0
 11 13  1  0  0  0  0
 12 10  1  6  0  0  0
 12  3  1  0  0  0  0
 14 13  1  0  0  0  0
 14 15  1  0  0  0  0
 17 16  1  0  0  0  0
 17 15  1  0  0  0  0
 18 17  2  0  0  0  0
 20 19  1  0  0  0  0
 20 22  1  0  0  0  0
 22 21  1  6  0  0  0
 22 23  1  0  0  0  0
 24 25  1  0  0  0  0
 26 28  1  0  0  0  0
 28 30  1  0  0  0  0
 29 31  1  0  0  0  0
 29 33  1  0  0  0  0
 31 34  1  0  0  0  0
 31 27  1  1  0  0  0
 32 26  1  0  0  0  0
 33 25  1  1  0  0  0
 33 28  1  0  0  0  0
 34 38  1  1  0  0  0
 34 32  1  0  0  0  0
 37 35  1  0  0  0  0
 38 37  1  0  0  0  0
 39 36  1  0  0  0  0
 39 37  2  0  0  0  0
 40 38  2  0  0  0  0
 41 40  1  0  0  0  0
 41 39  1  0  0  0  0
 42 40  1  0  0  0  0
 43 42  1  0  0  0  0
 45 43  1  0  0  0  0
 45 44  1  0  0  0  0
M  END
>  <MODEL>
6

>  <REMARK>
 VINA RESULT:      -5.9      2.620      4.637
  Name = 
  16 active torsions:
  status: ('A' for Active; 'I' for Inactive)
    1  A    between atoms: C_5  and  O_22
    2  A    between atoms: C_5  and  C_36
    3  A    between atoms: C_6  and  C_16
    4  A    between atoms: C_6  and  N_32
    5  A    between atoms: C_8  and  C_12
    6  A    between atoms: C_8  and  C_35
    7  A    between atoms: C_10  and  C_41
    8  A    between atoms: C_12  and  C_17
    9  A    between atoms: C_13  and  C_16
   10  A    between atoms: C_14  and  C_18
   11  A    between atoms: C_21  and  C_45
   12  A    between atoms: O_22  and  C_29
   13  A    between atoms: C_25  and  C_35
   14  A    between atoms: O_38  and  C_43
   15  A    between atoms: O_38  and  C_44
   16  A    between atoms: C_41  and  C_43
                            x       y       z     vdW  Elec       q    Type
                         _______ _______ _______ _____ _____    ______ ____

>  <TORSDO>
F 16

$$$$
=
 OpenBabel11062420423D

 45 48  0  0  1  0  0  0  0  0999 V2000
  191.8940  174.5920  145.8670 C   0  0  0  0  0  2  0  0  0  0  0  0
  191.5440  173.3680  145.0310 C   0  0  1  0  0  3  0  0  0  0  0  0
  191.3420  171.7950  142.6160 C   0  0  2  0  0  3  0  0  0  0  0  0
  190.4990  173.7140  143.9690 C   0  0  0  0  0  2  0  0  0  0  0  0
  189.2030  172.7900  142.2200 F   0  0  0  0  0  0  0  0  0  0  0  0
  192.7480  172.7380  144.4500 N   0  0  0  0  0  0  0  0  0  0  0  0
  192.3690  171.5180  143.7240 C   0  0  0  0  0  2  0  0  0  0  0  0
  190.1000  172.4520  143.2170 C   0  0  1  0  0  3  0  0  0  0  0  0
  192.1040  168.7070  140.6270 O   0  0  0  0  0  1  0  0  0  0  0  0
  190.7820  170.7330  140.4150 C   0  0  0  0  0  2  0  0  0  0  0  0
  192.0550  170.0760  140.8890 C   0  0  1  0  0  0  0  0  0  0  0  0
  190.9990  170.4860  141.9100 C   0  0  1  0  0  3  0  0  0  0  0  0
  193.3400  170.8840  140.7310 C   0  0  0  0  0  2  0  0  0  0  0  0
  193.3130  171.7040  139.4520 C   0  0  0  0  0  2  0  0  0  0  0  0
  194.2180  172.9080  139.6160 C   0  0  0  0  0  2  0  0  0  0  0  0
  194.0480  175.2630  140.4070 O   0  0  0  0  0  1  0  0  0  0  0  0
  193.4150  174.0950  140.0120 C   0  0  0  0  0  0  0  0  0  0  0  0
  192.1600  174.0350  140.0050 O   0  0  0  0  0  0  0  0  0  0  0  0
  193.4390  173.6450  143.5320 C   0  0  0  0  0  2  0  0  0  0  0  0
  194.9400  173.4270  143.6240 C   0  0  0  0  0  2  0  0  0  0  0  0
  197.0110  174.6430  144.3570 C   0  0  0  0  0  1  0  0  0  0  0  0
  195.7100  174.7430  143.5860 C   0  0  2  0  0  3  0  0  0  0  0  0
  194.9280  175.7800  144.0940 O   0  0  0  0  0  1  0  0  0  0  0  0
  190.8140  175.6540  145.7570 C   0  0  0  0  0  2  0  0  0  0  0  0
  191.3530  176.8600  145.2970 O   0  0  0  0  0  0  0  0  0  0  0  0
  189.8730  178.2830  142.4850 N   0  0  0  0  0  2  0  0  0  0  0  0
  187.8320  175.7050  143.6220 O   0  0  0  0  0  1  0  0  0  0  0  0
  190.3570  177.1540  143.1610 N   0  0  0  0  0  0  0  0  0  0  0  0
  188.9760  177.0820  145.2410 C   0  0  0  0  0  2  0  0  0  0  0  0
  191.6500  177.0140  142.7790 O   0  0  0  0  0  1  0  0  0  0  0  0
  187.7710  176.9240  144.3050 C   0  0  1  0  0  3  0  0  0  0  0  0
  188.4880  178.0280  142.1170 C   0  0  0  0  0  2  0  0  0  0  0  0
  190.3140  177.4810  144.5930 C   0  0  1  0  0  3  0  0  0  0  0  0
  187.5790  178.1060  143.3470 C   0  0  1  0  0  3  0  0  0  0  0  0
  186.5060  177.4940  140.6470 O   0  0  0  0  0  1  0  0  0  0  0  0
  183.5410  177.9150  140.2440 C   0  0  0  0  0  1  0  0  0  0  0  0
  185.6770  177.9540  141.6620 C   0  0  0  0  0  0  0  0  0  0  0  0
  186.1370  178.2470  142.9530 C   0  0  0  0  0  0  0  0  0  0  0  0
  184.3150  178.1660  141.4910 C   0  0  0  0  0  0  0  0  0  0  0  0
  185.1170  178.7030  143.7910 C   0  0  0  0  0  0  0  0  0  0  0  0
  183.6620  178.7270  142.9360 S   0  0  0  0  0  0  0  0  0  0  0  0
  185.2850  179.0560  145.1290 O   0  0  0  0  0  0  0  0  0  0  0  0
  184.4340  178.5590  146.1520 C   0  0  0  0  0  2  0  0  0  0  0  0
  185.9390  177.1680  147.5670 C   0  0  0  0  0  1  0  0  0  0  0  0
  184.8400  177.1450  146.5220 C   0  0  0  0  0  2  0  0  0  0  0  0
  2  1  1  6  0  0  0
  3  8  1  0  0  0  0
  3  7  1  1  0  0  0
  4  2  1  0  0  0  0
  6  2  1  0  0  0  0
  7  6  1  0  0  0  0
  8  5  1  6  0  0  0
  8  4  1  0  0  0  0
 10 11  1  0  0  0  0
 11  9  1  6  0  0  0
 11 12  1  0  0  0  0
 12 10  1  6  0  0  0
 12  3  1  0  0  0  0
 13 11  1  0  0  0  0
 14 15  1  0  0  0  0
 14 13  1  0  0  0  0
 15 17  1  0  0  0  0
 17 16  1  0  0  0  0
 18 17  2  0  0  0  0
 19 20  1  0  0  0  0
 19  6  1  0  0  0  0
 22 20  1  0  0  0  0
 22 23  1  0  0  0  0
 22 21  1  1  0  0  0
 24  1  1  0  0  0  0
 25 24  1  0  0  0  0
 26 28  1  0  0  0  0
 28 33  1  0  0  0  0
 30 28  1  0  0  0  0
 31 27  1  6  0  0  0
 31 29  1  0  0  0  0
 32 26  1  0  0  0  0
 32 34  1  0  0  0  0
 33 29  1  0  0  0  0
 33 25  1  1  0  0  0
 34 38  1  6  0  0  0
 34 31  1  0  0  0  0
 35 37  1  0  0  0  0
 36 39  1  0  0  0  0
 37 38  1  0  0  0  0
 38 40  2  0  0  0  0
 39 37  2  0  0  0  0
 39 41  1  0  0  0  0
 40 42  1  0  0  0  0
 41 40  1  0  0  0  0
 42 43  1  0  0  0  0
 43 45  1  0  0  0  0
 45 44  1  0  0  0  0
M  END
>  <MODEL>
7

>  <REMARK>
 VINA RESULT:      -5.9      1.665      2.182
  Name = 
  16 active torsions:
  status: ('A' for Active; 'I' for Inactive)
    1  A    between atoms: C_5  and  O_22
    2  A    between atoms: C_5  and  C_36
    3  A    between atoms: C_6  and  C_16
    4  A    between atoms: C_6  and  N_32
    5  A    between atoms: C_8  and  C_12
    6  A    between atoms: C_8  and  C_35
    7  A    between atoms: C_10  and  C_41
    8  A    between atoms: C_12  and  C_17
    9  A    between atoms: C_13  and  C_16
   10  A    between atoms: C_14  and  C_18
   11  A    between atoms: C_21  and  C_45
   12  A    between atoms: O_22  and  C_29
   13  A    between atoms: C_25  and  C_35
   14  A    between atoms: O_38  and  C_43
   15  A    between atoms: O_38  and  C_44
   16  A    between atoms: C_41  and  C_43
                            x       y       z     vdW  Elec       q    Type
                         _______ _______ _______ _____ _____    ______ ____

>  <TORSDO>
F 16

$$$$
=
 OpenBabel11062420423D

 45 48  0  0  1  0  0  0  0  0999 V2000
  192.6860  174.8660  144.8430 C   0  0  0  0  0  2  0  0  0  0  0  0
  191.3730  175.0970  145.5810 C   0  0  1  0  0  3  0  0  0  0  0  0
  188.8360  176.3730  146.1080 C   0  0  2  0  0  3  0  0  0  0  0  0
  191.3260  176.5030  146.1820 C   0  0  0  0  0  2  0  0  0  0  0  0
  189.9890  177.9610  147.4760 F   0  0  0  0  0  0  0  0  0  0  0  0
  190.2050  174.8140  144.7220 N   0  0  0  0  0  0  0  0  0  0  0  0
  188.9670  174.9690  145.4990 C   0  0  0  0  0  2  0  0  0  0  0  0
  190.0480  176.6670  146.9920 C   0  0  1  0  0  3  0  0  0  0  0  0
  185.1070  176.4250  146.5130 O   0  0  0  0  0  1  0  0  0  0  0  0
  187.0020  177.8940  146.8910 C   0  0  0  0  0  2  0  0  0  0  0  0
  186.3430  176.8480  146.0260 C   0  0  1  0  0  0  0  0  0  0  0  0
  187.5320  176.4580  146.8970 C   0  0  1  0  0  3  0  0  0  0  0  0
  186.5040  177.0100  144.5170 C   0  0  0  0  0  2  0  0  0  0  0  0
  186.6300  178.4750  144.1370 C   0  0  0  0  0  2  0  0  0  0  0  0
  186.1180  178.6670  142.7240 C   0  0  0  0  0  2  0  0  0  0  0  0
  188.3800  178.2970  141.7480 O   0  0  0  0  0  1  0  0  0  0  0  0
  187.0270  177.9910  141.7600 C   0  0  0  0  0  0  0  0  0  0  0  0
  186.5670  177.1540  140.9440 O   0  0  0  0  0  0  0  0  0  0  0  0
  190.1580  175.7100  143.5650 C   0  0  0  0  0  2  0  0  0  0  0  0
  189.4030  175.0440  142.4270 C   0  0  0  0  0  2  0  0  0  0  0  0
  190.3020  172.7230  142.0900 C   0  0  0  0  0  1  0  0  0  0  0  0
  190.3100  174.1530  141.5860 C   0  0  2  0  0  3  0  0  0  0  0  0
  191.6130  174.6530  141.5780 O   0  0  0  0  0  1  0  0  0  0  0  0
  193.3380  173.5660  145.2840 C   0  0  0  0  0  2  0  0  0  0  0  0
  194.6770  173.5250  144.8820 O   0  0  0  0  0  0  0  0  0  0  0  0
  195.4380  176.2000  142.7870 N   0  0  0  0  0  2  0  0  0  0  0  0
  196.8840  173.3220  141.4720 O   0  0  0  0  0  1  0  0  0  0  0  0
  195.8560  175.1170  143.5730 N   0  0  0  0  0  0  0  0  0  0  0  0
  194.7160  173.1580  142.5220 C   0  0  0  0  0  2  0  0  0  0  0  0
  196.1070  175.6220  144.8060 O   0  0  0  0  0  1  0  0  0  0  0  0
  195.5130  173.5100  141.2600 C   0  0  1  0  0  3  0  0  0  0  0  0
  195.9690  176.0150  141.4450 C   0  0  0  0  0  2  0  0  0  0  0  0
  194.7110  174.2000  143.6550 C   0  0  1  0  0  3  0  0  0  0  0  0
  195.2080  174.9090  140.7110 C   0  0  1  0  0  3  0  0  0  0  0  0
  197.8470  175.4450  139.4610 O   0  0  0  0  0  1  0  0  0  0  0  0
  197.9300  175.4890  136.4410 C   0  0  0  0  0  1  0  0  0  0  0  0
  196.7160  175.2310  138.6850 C   0  0  0  0  0  0  0  0  0  0  0  0
  195.4520  174.9670  139.2290 C   0  0  0  0  0  0  0  0  0  0  0  0
  196.7320  175.2620  137.2960 C   0  0  0  0  0  0  0  0  0  0  0  0
  194.4730  174.7990  138.2480 C   0  0  0  0  0  0  0  0  0  0  0  0
  195.1780  174.9680  136.7230 S   0  0  0  0  0  0  0  0  0  0  0  0
  193.1330  174.5150  138.5020 O   0  0  0  0  0  0  0  0  0  0  0  0
  192.3470  173.7330  137.6130 C   0  0  0  0  0  2  0  0  0  0  0  0
  190.0120  173.0200  138.1020 C   0  0  0  0  0  1  0  0  0  0  0  0
  191.4790  172.7710  138.4000 C   0  0  0  0  0  2  0  0  0  0  0  0
  1 24  1  0  0  0  0
  2  1  1  6  0  0  0
  2  4  1  0  0  0  0
  3  7  1  1  0  0  0
  3 12  1  0  0  0  0
  3  8  1  0  0  0  0
  4  8  1  0  0  0  0
  6  7  1  0  0  0  0
  6  2  1  0  0  0  0
  8  5  1  6  0  0  0
 11  9  1  1  0  0  0
 11 10  1  0  0  0  0
 11 12  1  0  0  0  0
 12 10  1  1  0  0  0
 13 11  1  0  0  0  0
 14 13  1  0  0  0  0
 15 14  1  0  0  0  0
 16 17  1  0  0  0  0
 17 15  1  0  0  0  0
 18 17  2  0  0  0  0
 19  6  1  0  0  0  0
 20 19  1  0  0  0  0
 22 21  1  1  0  0  0
 22 20  1  0  0  0  0
 23 22  1  0  0  0  0
 25 24  1  0  0  0  0
 26 28  1  0  0  0  0
 28 33  1  0  0  0  0
 28 30  1  0  0  0  0
 29 33  1  0  0  0  0
 31 27  1  1  0  0  0
 31 29  1  0  0  0  0
 32 26  1  0  0  0  0
 33 25  1  1  0  0  0
 34 38  1  6  0  0  0
 34 31  1  0  0  0  0
 34 32  1  0  0  0  0
 36 39  1  0  0  0  0
 37 38  1  0  0  0  0
 37 35  1  0  0  0  0
 39 37  2  0  0  0  0
 40 42  1  0  0  0  0
 40 38  2  0  0  0  0
 41 39  1  0  0  0  0
 41 40  1  0  0  0  0
 43 45  1  0  0  0  0
 43 42  1  0  0  0  0
 44 45  1  0  0  0  0
M  END
>  <MODEL>
8

>  <REMARK>
 VINA RESULT:      -5.9      3.227      8.173
  Name = 
  16 active torsions:
  status: ('A' for Active; 'I' for Inactive)
    1  A    between atoms: C_5  and  O_22
    2  A    between atoms: C_5  and  C_36
    3  A    between atoms: C_6  and  C_16
    4  A    between atoms: C_6  and  N_32
    5  A    between atoms: C_8  and  C_12
    6  A    between atoms: C_8  and  C_35
    7  A    between atoms: C_10  and  C_41
    8  A    between atoms: C_12  and  C_17
    9  A    between atoms: C_13  and  C_16
   10  A    between atoms: C_14  and  C_18
   11  A    between atoms: C_21  and  C_45
   12  A    between atoms: O_22  and  C_29
   13  A    between atoms: C_25  and  C_35
   14  A    between atoms: O_38  and  C_43
   15  A    between atoms: O_38  and  C_44
   16  A    between atoms: C_41  and  C_43
                            x       y       z     vdW  Elec       q    Type
                         _______ _______ _______ _____ _____    ______ ____

>  <TORSDO>
F 16

$$$$
=
 OpenBabel11062420423D

 45 48  0  0  1  0  0  0  0  0999 V2000
  191.0150  174.2430  145.2880 C   0  0  0  0  0  2  0  0  0  0  0  0
  192.3610  174.8710  144.9490 C   0  0  1  0  0  3  0  0  0  0  0  0
  195.1530  174.8790  144.2070 C   0  0  2  0  0  3  0  0  0  0  0  0
  193.4300  174.4450  145.9580 C   0  0  0  0  0  2  0  0  0  0  0  0
  195.7080  174.7220  146.5290 F   0  0  0  0  0  0  0  0  0  0  0  0
  192.7620  174.5900  143.5550 N   0  0  0  0  0  0  0  0  0  0  0  0
  194.0220  175.2830  143.2510 C   0  0  0  0  0  2  0  0  0  0  0  0
  194.7360  175.1640  145.6500 C   0  0  1  0  0  3  0  0  0  0  0  0
  197.8520  176.0370  141.8740 O   0  0  0  0  0  1  0  0  0  0  0  0
  197.6340  174.7010  143.8890 C   0  0  0  0  0  2  0  0  0  0  0  0
  197.0650  175.1070  142.5520 C   0  0  1  0  0  0  0  0  0  0  0  0
  196.4240  175.6360  143.8310 C   0  0  1  0  0  3  0  0  0  0  0  0
  196.3860  174.0100  141.7370 C   0  0  0  0  0  2  0  0  0  0  0  0
  196.6030  174.2240  140.2490 C   0  0  0  0  0  2  0  0  0  0  0  0
  195.2720  174.1190  139.5340 C   0  0  0  0  0  2  0  0  0  0  0  0
  193.8620  172.2030  138.7970 O   0  0  0  0  0  1  0  0  0  0  0  0
  195.1210  172.7650  138.9370 C   0  0  0  0  0  0  0  0  0  0  0  0
  196.1390  172.1220  138.5750 O   0  0  0  0  0  0  0  0  0  0  0  0
  192.9380  173.1550  143.3250 C   0  0  0  0  0  2  0  0  0  0  0  0
  192.4000  172.7820  141.9530 C   0  0  0  0  0  2  0  0  0  0  0  0
  189.8960  172.9330  142.0630 C   0  0  0  0  0  1  0  0  0  0  0  0
  191.1680  173.6020  141.5830 C   0  0  2  0  0  3  0  0  0  0  0  0
  191.1150  173.8050  140.2040 O   0  0  0  0  0  1  0  0  0  0  0  0
  189.9090  175.2840  145.2710 C   0  0  0  0  0  2  0  0  0  0  0  0
  190.4360  176.5600  145.0460 O   0  0  0  0  0  0  0  0  0  0  0  0
  188.9450  178.4320  142.5180 N   0  0  0  0  0  2  0  0  0  0  0  0
  186.9090  175.6990  143.2150 O   0  0  0  0  0  1  0  0  0  0  0  0
  189.4320  177.2060  142.9940 N   0  0  0  0  0  0  0  0  0  0  0  0
  188.0590  176.7860  145.0380 C   0  0  0  0  0  2  0  0  0  0  0  0
  190.7240  177.1330  142.5890 O   0  0  0  0  0  1  0  0  0  0  0  0
  186.8500  176.7870  144.0930 C   0  0  1  0  0  3  0  0  0  0  0  0
  187.5590  178.2420  142.1180 C   0  0  0  0  0  2  0  0  0  0  0  0
  189.3940  177.2890  144.4610 C   0  0  1  0  0  3  0  0  0  0  0  0
  186.6550  178.1120  143.3470 C   0  0  1  0  0  3  0  0  0  0  0  0
  185.4880  177.5340  140.6790 O   0  0  0  0  0  1  0  0  0  0  0  0
  182.5360  178.0850  140.3460 C   0  0  0  0  0  1  0  0  0  0  0  0
  184.7070  178.0360  141.7110 C   0  0  0  0  0  0  0  0  0  0  0  0
  185.2110  178.3160  142.9880 C   0  0  0  0  0  0  0  0  0  0  0  0
  183.3510  178.3080  141.5720 C   0  0  0  0  0  0  0  0  0  0  0  0
  184.2340  178.8220  143.8480 C   0  0  0  0  0  0  0  0  0  0  0  0
  182.7610  178.9070  143.0290 S   0  0  0  0  0  0  0  0  0  0  0  0
  184.4510  179.1750  145.1780 O   0  0  0  0  0  0  0  0  0  0  0  0
  184.0830  178.3220  146.2540 C   0  0  0  0  0  2  0  0  0  0  0  0
  186.0450  179.4310  147.3130 C   0  0  0  0  0  1  0  0  0  0  0  0
  185.2580  178.1400  147.1950 C   0  0  0  0  0  2  0  0  0  0  0  0
  2  1  1  1  0  0  0
  2  4  1  0  0  0  0
  3  7  1  6  0  0  0
  3  8  1  0  0  0  0
  6  2  1  0  0  0  0
  7  6  1  0  0  0  0
  8  4  1  0  0  0  0
  8  5  1  1  0  0  0
 11  9  1  6  0  0  0
 11 12  1  0  0  0  0
 11 10  1  0  0  0  0
 12 10  1  1  0  0  0
 12  3  1  0  0  0  0
 13 11  1  0  0  0  0
 14 13  1  0  0  0  0
 15 14  1  0  0  0  0
 16 17  1  0  0  0  0
 17 15  1  0  0  0  0
 18 17  2  0  0  0  0
 19  6  1  0  0  0  0
 20 19  1  0  0  0  0
 22 20  1  0  0  0  0
 22 21  1  6  0  0  0
 23 22  1  0  0  0  0
 24  1  1  0  0  0  0
 25 24  1  0  0  0  0
 26 28  1  0  0  0  0
 28 33  1  0  0  0  0
 30 28  1  0  0  0  0
 31 27  1  6  0  0  0
 31 29  1  0  0  0  0
 32 26  1  0  0  0  0
 32 34  1  0  0  0  0
 33 29  1  0  0  0  0
 33 25  1  1  0  0  0
 34 38  1  6  0  0  0
 34 31  1  0  0  0  0
 35 37  1  0  0  0  0
 36 39  1  0  0  0  0
 37 38  1  0  0  0  0
 38 40  2  0  0  0  0
 39 37  2  0  0  0  0
 39 41  1  0  0  0  0
 40 42  1  0  0  0  0
 41 40  1  0  0  0  0
 42 43  1  0  0  0  0
 43 45  1  0  0  0  0
 45 44  1  0  0  0  0
M  END
>  <MODEL>
9

>  <REMARK>
 VINA RESULT:      -5.8      2.319      4.275
  Name = 
  16 active torsions:
  status: ('A' for Active; 'I' for Inactive)
    1  A    between atoms: C_5  and  O_22
    2  A    between atoms: C_5  and  C_36
    3  A    between atoms: C_6  and  C_16
    4  A    between atoms: C_6  and  N_32
    5  A    between atoms: C_8  and  C_12
    6  A    between atoms: C_8  and  C_35
    7  A    between atoms: C_10  and  C_41
    8  A    between atoms: C_12  and  C_17
    9  A    between atoms: C_13  and  C_16
   10  A    between atoms: C_14  and  C_18
   11  A    between atoms: C_21  and  C_45
   12  A    between atoms: O_22  and  C_29
   13  A    between atoms: C_25  and  C_35
   14  A    between atoms: O_38  and  C_43
   15  A    between atoms: O_38  and  C_44
   16  A    between atoms: C_41  and  C_43
                            x       y       z     vdW  Elec       q    Type
                         _______ _______ _______ _____ _____    ______ ____

>  <TORSDO>
F 16

$$$$
