=
 OpenBabel11062420143D

 52 56  0  0  1  0  0  0  0  0999 V2000
  186.4070  177.9360  142.3520 C   0  0  1  0  0  3  0  0  0  0  0  0
  185.9640  176.6300  144.5250 C   0  0  0  0  0  2  0  0  0  0  0  0
  185.3660  178.0260  146.5390 C   0  0  0  0  0  2  0  0  0  0  0  0
  185.5760  179.2770  145.7350 C   0  0  0  0  0  3  0  0  0  0  0  0
  186.2670  176.9080  146.0080 C   0  0  2  0  0  3  0  0  0  0  0  0
  185.6460  177.8860  143.6790 C   0  0  1  0  0  3  0  0  0  0  0  0
  185.7260  179.2050  144.4090 C   0  0  0  0  0  3  0  0  0  0  0  0
  188.6390  176.4210  146.7860 C   0  0  0  0  0  0  0  0  0  0  0  0
  189.9940  176.8630  146.8880 N   0  0  0  0  0  2  0  0  0  0  0  0
  188.3050  175.2830  147.2190 O   0  0  0  0  0  0  0  0  0  0  0  0
  187.6690  177.2790  146.1840 N   0  0  0  0  0  2  0  0  0  0  0  0
  191.0630  176.0130  147.3950 C   0  0  0  0  0  2  0  0  0  0  0  0
  192.3990  176.4930  146.8500 C   0  0  0  0  0  2  0  0  0  0  0  0
  193.2990  175.3130  146.5160 C   0  0  0  0  0  2  0  0  0  0  0  0
  195.6630  174.5870  146.0030 C   0  0  0  0  0  2  0  0  0  0  0  0
  194.4950  175.5830  143.6140 C   0  0  0  0  0  2  0  0  0  0  0  0
  194.6980  175.7700  146.1120 C   0  0  1  0  0  3  0  0  0  0  0  0
  195.4230  173.8210  144.6860 C   0  0  1  0  0  3  0  0  0  0  0  0
  195.5810  174.6870  143.5880 O   0  0  0  0  0  0  0  0  0  0  0  0
  194.6460  176.5510  144.7950 C   0  0  0  0  0  2  0  0  0  0  0  0
  196.2680  172.5480  144.4790 C   0  0  0  0  0  3  0  0  0  0  0  0
  196.5550  171.8640  145.8050 C   0  0  0  0  0  2  0  0  0  0  0  0
  195.5550  171.2510  144.8440 C   0  0  0  0  0  2  0  0  0  0  0  0
  185.8810  177.6030  139.8850 C   0  0  0  0  0  1  0  0  0  0  0  0
  185.5310  178.3530  141.1590 C   0  0  0  0  0  3  0  0  0  0  0  0
  184.0690  178.1350  141.4880 C   0  0  0  0  0  1  0  0  0  0  0  0
  187.5570  178.7290  142.4820 O   0  0  0  0  0  0  0  0  0  0  0  0
  188.6110  177.9500  141.9910 C   0  0  0  0  0  2  0  0  0  0  0  0
  189.4820  177.4360  143.1310 C   0  0  2  0  0  3  0  0  0  0  0  0
  190.7360  178.0450  143.0650 O   0  0  0  0  0  1  0  0  0  0  0  0
  188.7090  175.1790  142.4760 C   0  0  0  0  0  3  0  0  0  0  0  0
  189.6300  175.9450  143.0800 C   0  0  0  0  0  0  0  0  0  0  0  0
  190.8120  175.3180  143.7070 C   0  0  0  0  0  3  0  0  0  0  0  0
  188.8090  173.6780  142.5270 C   0  0  0  0  0  2  0  0  0  0  0  0
  191.0990  174.0320  143.4810 C   0  0  0  0  0  3  0  0  0  0  0  0
  190.2720  173.2090  142.5240 C   0  0  2  0  0  3  0  0  0  0  0  0
  190.8310  173.3090  141.1760 N   0  0  0  0  0  2  0  0  0  0  0  0
  190.8810  171.0170  141.4650 F   0  0  0  0  0  0  0  0  0  0  0  0
  190.7900  172.0070  140.5040 C   0  0  0  0  0  0  0  0  0  0  0  0
  189.5810  171.8520  139.8440 F   0  0  0  0  0  0  0  0  0  0  0  0
  191.9550  171.8740  139.4980 C   0  0  2  0  0  3  0  0  0  0  0  0
  193.3310  172.2300  140.0010 C   0  0  0  0  0  0  0  0  0  0  0  0
  196.0320  172.7960  140.6530 C   0  0  0  0  0  3  0  0  0  0  0  0
  195.3240  173.6600  139.9140 C   0  0  0  0  0  0  0  0  0  0  0  0
  193.9710  171.4740  141.1380 C   0  0  0  0  0  2  0  0  0  0  0  0
  195.4890  171.4270  140.9610 C   0  0  0  0  0  2  0  0  0  0  0  0
  193.9570  173.2930  139.4800 C   0  0  0  0  0  3  0  0  0  0  0  0
  195.7400  176.0130  140.3940 O   0  0  0  0  0  0  0  0  0  0  0  0
  195.8690  174.9360  139.5450 N   0  0  0  0  0  0  0  0  0  0  0  0
  196.3930  175.1030  138.4220 O   0  0  0  0  0  0  0  0  0  0  0  0
  192.0650  171.3390  137.2700 C   0  0  0  0  0  1  0  0  0  0  0  0
  191.6750  172.3280  138.1880 O   0  0  0  0  0  0  0  0  0  0  0  0
  1 25  1  6  0  0  0
  1 27  1  0  0  0  0
  2  5  1  0  0  0  0
  4  3  1  0  0  0  0
  5 11  1  6  0  0  0
  5  3  1  0  0  0  0
  6  1  1  6  0  0  0
  6  7  1  0  0  0  0
  6  2  1  0  0  0  0
  7  4  2  0  0  0  0
  8  9  1  0  0  0  0
  8 10  2  0  0  0  0
  9 12  1  0  0  0  0
 11  8  1  0  0  0  0
 13 12  1  0  0  0  0
 14 13  1  0  0  0  0
 15 17  1  0  0  0  0
 16 20  1  0  0  0  0
 17 14  1  6  0  0  0
 18 21  1  6  0  0  0
 18 15  1  0  0  0  0
 19 16  1  0  0  0  0
 19 18  1  0  0  0  0
 20 17  1  0  0  0  0
 21 23  1  0  0  0  0
 21 22  1  0  0  0  0
 23 22  1  0  0  0  0
 24 25  1  0  0  0  0
 25 26  1  0  0  0  0
 28 27  1  0  0  0  0
 28 29  1  0  0  0  0
 29 30  1  6  0  0  0
 31 34  1  0  0  0  0
 31 32  2  0  0  0  0
 32 29  1  0  0  0  0
 32 33  1  0  0  0  0
 35 33  2  0  0  0  0
 36 37  1  6  0  0  0
 36 34  1  0  0  0  0
 36 35  1  0  0  0  0
 39 37  1  0  0  0  0
 39 38  1  0  0  0  0
 40 39  1  0  0  0  0
 41 52  1  6  0  0  0
 41 42  1  0  0  0  0
 41 39  1  0  0  0  0
 42 45  1  0  0  0  0
 43 46  1  0  0  0  0
 44 43  2  0  0  0  0
 46 45  1  0  0  0  0
 47 44  1  0  0  0  0
 47 42  2  0  0  0  0
 49 44  1  0  0  0  0
 49 48  2  0  0  0  0
 50 49  2  0  0  0  0
 51 52  1  0  0  0  0
M  END
>  <MODEL>
1

>  <REMARK>
 VINA RESULT:      -7.0      0.000      0.000
  Name = 
  18 active torsions:
  status: ('A' for Active; 'I' for Inactive)
    1  A    between atoms: C_1  and  C_36
    2  A    between atoms: C_2  and  O_14
    3  A    between atoms: C_2  and  C_19
    4  A    between atoms: C_3  and  C_9
    5  A    between atoms: C_4  and  C_30
    6  A    between atoms: C_4  and  C_31
    7  A    between atoms: C_5  and  O_14
    8  A    between atoms: C_5  and  C_43
    9  A    between atoms: C_5  and  C_49
   10  A    between atoms: C_9  and  O_23
   11  A    between atoms: C_9  and  C_28
   12  A    between atoms: N_12  and  C_31
   13  A    between atoms: C_16  and  C_19
   14  A    between atoms: N_17  and  C_38
   15  A    between atoms: N_18  and  C_42
   16  A    between atoms: N_21  and  C_28
   17  A    between atoms: N_21  and  C_52
   18  A    between atoms: C_26  and  C_30
                            x       y       z     vdW  Elec       q    Type
                         _______ _______ _______ _____ _____    ______ ____

>  <TORSDO>
F 18

$$$$
=
 OpenBabel11062420143D

 52 56  0  0  1  0  0  0  0  0999 V2000
  186.4120  177.9050  142.4530 C   0  0  1  0  0  3  0  0  0  0  0  0
  185.9950  176.5900  144.6250 C   0  0  0  0  0  2  0  0  0  0  0  0
  185.4580  177.9790  146.6600 C   0  0  0  0  0  2  0  0  0  0  0  0
  185.6700  179.2330  145.8610 C   0  0  0  0  0  3  0  0  0  0  0  0
  186.3320  176.8530  146.1040 C   0  0  2  0  0  3  0  0  0  0  0  0
  185.6780  177.8560  143.7950 C   0  0  1  0  0  3  0  0  0  0  0  0
  185.7920  179.1680  144.5310 C   0  0  0  0  0  3  0  0  0  0  0  0
  188.7120  176.3280  146.8310 C   0  0  0  0  0  0  0  0  0  0  0  0
  190.0750  176.7500  146.9080 N   0  0  0  0  0  2  0  0  0  0  0  0
  188.3700  175.1920  147.2650 O   0  0  0  0  0  0  0  0  0  0  0  0
  187.7420  177.2030  146.2540 N   0  0  0  0  0  2  0  0  0  0  0  0
  191.1410  175.8820  147.3900 C   0  0  0  0  0  2  0  0  0  0  0  0
  192.4630  176.3020  146.7660 C   0  0  0  0  0  2  0  0  0  0  0  0
  192.7650  175.4680  145.5320 C   0  0  0  0  0  2  0  0  0  0  0  0
  195.2350  175.6850  145.0480 C   0  0  0  0  0  2  0  0  0  0  0  0
  194.0010  174.3970  142.8390 C   0  0  0  0  0  2  0  0  0  0  0  0
  193.8240  176.1270  144.6520 C   0  0  1  0  0  3  0  0  0  0  0  0
  195.5220  174.2690  144.5080 C   0  0  1  0  0  3  0  0  0  0  0  0
  195.3750  174.2480  143.1080 O   0  0  0  0  0  0  0  0  0  0  0  0
  193.5550  175.8260  143.1750 C   0  0  0  0  0  2  0  0  0  0  0  0
  196.8800  173.6560  144.9040 C   0  0  0  0  0  3  0  0  0  0  0  0
  197.0480  173.6370  146.4140 C   0  0  0  0  0  2  0  0  0  0  0  0
  196.7780  172.3420  145.6710 C   0  0  0  0  0  2  0  0  0  0  0  0
  185.8730  177.6690  139.9770 C   0  0  0  0  0  1  0  0  0  0  0  0
  185.5230  178.3610  141.2840 C   0  0  0  0  0  3  0  0  0  0  0  0
  184.0660  178.1130  141.6130 C   0  0  0  0  0  1  0  0  0  0  0  0
  187.5850  178.6660  142.5690 O   0  0  0  0  0  0  0  0  0  0  0  0
  188.6130  177.8550  142.0710 C   0  0  0  0  0  2  0  0  0  0  0  0
  189.2130  176.9990  143.1800 C   0  0  2  0  0  3  0  0  0  0  0  0
  190.4970  177.4580  143.4740 O   0  0  0  0  0  1  0  0  0  0  0  0
  188.5890  175.1010  141.7210 C   0  0  0  0  0  3  0  0  0  0  0  0
  189.2600  175.5520  142.7930 C   0  0  0  0  0  0  0  0  0  0  0  0
  190.0600  174.6150  143.6080 C   0  0  0  0  0  3  0  0  0  0  0  0
  188.5520  173.6300  141.4040 C   0  0  0  0  0  2  0  0  0  0  0  0
  190.3170  173.3790  143.1660 C   0  0  0  0  0  3  0  0  0  0  0  0
  189.8650  172.9350  141.7960 C   0  0  2  0  0  3  0  0  0  0  0  0
  190.9050  173.2300  140.8130 N   0  0  0  0  0  2  0  0  0  0  0  0
  192.2280  171.5150  140.0090 F   0  0  0  0  0  0  0  0  0  0  0  0
  191.0100  172.1450  139.8330 C   0  0  0  0  0  0  0  0  0  0  0  0
  190.0100  171.2110  140.0500 F   0  0  0  0  0  0  0  0  0  0  0  0
  190.9050  172.6970  138.3940 C   0  0  2  0  0  3  0  0  0  0  0  0
  192.1850  172.7750  137.6000 C   0  0  0  0  0  0  0  0  0  0  0  0
  194.4510  173.1720  135.9430 C   0  0  0  0  0  3  0  0  0  0  0  0
  194.2510  173.9610  137.0080 C   0  0  0  0  0  0  0  0  0  0  0  0
  192.6050  171.6610  136.6760 C   0  0  0  0  0  2  0  0  0  0  0  0
  193.3810  172.2200  135.4820 C   0  0  0  0  0  2  0  0  0  0  0  0
  193.0020  173.8200  137.7890 C   0  0  0  0  0  3  0  0  0  0  0  0
  195.7930  175.7660  136.4620 O   0  0  0  0  0  0  0  0  0  0  0  0
  195.2320  174.9300  137.4020 N   0  0  0  0  0  0  0  0  0  0  0  0
  195.6460  174.9730  138.5820 O   0  0  0  0  0  0  0  0  0  0  0  0
  189.3840  173.7060  137.0040 C   0  0  0  0  0  1  0  0  0  0  0  0
  190.0500  173.8130  138.2360 O   0  0  0  0  0  0  0  0  0  0  0  0
  1 25  1  6  0  0  0
  1 27  1  0  0  0  0
  2  5  1  0  0  0  0
  4  3  1  0  0  0  0
  5 11  1  6  0  0  0
  5  3  1  0  0  0  0
  6  1  1  6  0  0  0
  6  7  1  0  0  0  0
  6  2  1  0  0  0  0
  7  4  2  0  0  0  0
  8  9  1  0  0  0  0
  8 10  2  0  0  0  0
  9 12  1  0  0  0  0
 11  8  1  0  0  0  0
 13 12  1  0  0  0  0
 14 13  1  0  0  0  0
 16 19  1  0  0  0  0
 16 20  1  0  0  0  0
 17 15  1  0  0  0  0
 17 14  1  1  0  0  0
 18 21  1  6  0  0  0
 18 15  1  0  0  0  0
 19 18  1  0  0  0  0
 20 17  1  0  0  0  0
 21 23  1  0  0  0  0
 21 22  1  0  0  0  0
 23 22  1  0  0  0  0
 24 25  1  0  0  0  0
 25 26  1  0  0  0  0
 28 27  1  0  0  0  0
 28 29  1  0  0  0  0
 29 30  1  6  0  0  0
 31 32  2  0  0  0  0
 32 29  1  0  0  0  0
 32 33  1  0  0  0  0
 34 31  1  0  0  0  0
 34 36  1  0  0  0  0
 35 33  2  0  0  0  0
 36 37  1  6  0  0  0
 36 35  1  0  0  0  0
 39 38  1  0  0  0  0
 39 40  1  0  0  0  0
 39 37  1  0  0  0  0
 41 52  1  1  0  0  0
 41 39  1  0  0  0  0
 42 47  2  0  0  0  0
 42 41  1  0  0  0  0
 43 44  2  0  0  0  0
 44 49  1  0  0  0  0
 44 47  1  0  0  0  0
 45 42  1  0  0  0  0
 46 43  1  0  0  0  0
 46 45  1  0  0  0  0
 48 49  2  0  0  0  0
 49 50  2  0  0  0  0
 51 52  1  0  0  0  0
M  END
>  <MODEL>
2

>  <REMARK>
 VINA RESULT:      -6.7      1.359      1.857
  Name = 
  18 active torsions:
  status: ('A' for Active; 'I' for Inactive)
    1  A    between atoms: C_1  and  C_36
    2  A    between atoms: C_2  and  O_14
    3  A    between atoms: C_2  and  C_19
    4  A    between atoms: C_3  and  C_9
    5  A    between atoms: C_4  and  C_30
    6  A    between atoms: C_4  and  C_31
    7  A    between atoms: C_5  and  O_14
    8  A    between atoms: C_5  and  C_43
    9  A    between atoms: C_5  and  C_49
   10  A    between atoms: C_9  and  O_23
   11  A    between atoms: C_9  and  C_28
   12  A    between atoms: N_12  and  C_31
   13  A    between atoms: C_16  and  C_19
   14  A    between atoms: N_17  and  C_38
   15  A    between atoms: N_18  and  C_42
   16  A    between atoms: N_21  and  C_28
   17  A    between atoms: N_21  and  C_52
   18  A    between atoms: C_26  and  C_30
                            x       y       z     vdW  Elec       q    Type
                         _______ _______ _______ _____ _____    ______ ____

>  <TORSDO>
F 18

$$$$
=
 OpenBabel11062420143D

 52 56  0  0  1  0  0  0  0  0999 V2000
  186.9270  177.9100  145.5280 C   0  0  1  0  0  3  0  0  0  0  0  0
  188.2750  177.8450  143.3370 C   0  0  0  0  0  2  0  0  0  0  0  0
  186.9400  177.4070  141.2430 C   0  0  0  0  0  2  0  0  0  0  0  0
  185.7000  177.2260  142.0700 C   0  0  0  0  0  3  0  0  0  0  0  0
  188.1720  177.0000  142.0550 C   0  0  2  0  0  3  0  0  0  0  0  0
  186.9230  178.1610  144.0190 C   0  0  1  0  0  3  0  0  0  0  0  0
  185.7030  177.5600  143.3650 C   0  0  0  0  0  3  0  0  0  0  0  0
  189.2520  174.7530  142.5550 C   0  0  0  0  0  0  0  0  0  0  0  0
  189.0780  173.3770  142.9030 N   0  0  0  0  0  2  0  0  0  0  0  0
  190.4110  175.2320  142.4070 O   0  0  0  0  0  0  0  0  0  0  0  0
  188.1000  175.5790  142.3820 N   0  0  0  0  0  2  0  0  0  0  0  0
  190.1980  172.4930  143.1960 C   0  0  0  0  0  2  0  0  0  0  0  0
  190.1580  171.2920  142.2640 C   0  0  0  0  0  2  0  0  0  0  0  0
  190.2350  171.7350  140.8110 C   0  0  0  0  0  2  0  0  0  0  0  0
  191.4560  170.9300  138.7510 C   0  0  0  0  0  2  0  0  0  0  0  0
  192.1370  173.6520  139.1880 C   0  0  0  0  0  2  0  0  0  0  0  0
  191.5950  171.4150  140.1970 C   0  0  1  0  0  3  0  0  0  0  0  0
  191.1980  172.1240  137.8090 C   0  0  1  0  0  3  0  0  0  0  0  0
  192.2460  173.0580  137.9160 O   0  0  0  0  0  0  0  0  0  0  0  0
  192.5170  172.6370  140.2730 C   0  0  0  0  0  2  0  0  0  0  0  0
  190.9510  171.7760  136.3280 C   0  0  0  0  0  3  0  0  0  0  0  0
  190.4650  170.3440  136.1790 C   0  0  0  0  0  2  0  0  0  0  0  0
  189.4930  171.4920  135.9820 C   0  0  0  0  0  2  0  0  0  0  0  0
  184.7230  177.2450  146.6120 C   0  0  0  0  0  1  0  0  0  0  0  0
  185.6470  178.3900  146.2330 C   0  0  0  0  0  3  0  0  0  0  0  0
  186.0040  179.1830  147.4730 C   0  0  0  0  0  1  0  0  0  0  0  0
  187.2200  176.5650  145.7950 O   0  0  0  0  0  0  0  0  0  0  0  0
  188.4040  176.5760  146.5420 C   0  0  0  0  0  2  0  0  0  0  0  0
  189.2220  175.3170  146.2790 C   0  0  2  0  0  3  0  0  0  0  0  0
  189.0940  174.4490  147.3640 O   0  0  0  0  0  1  0  0  0  0  0  0
  191.6380  174.8310  146.5010 C   0  0  0  0  0  3  0  0  0  0  0  0
  190.6670  175.6400  146.0470 C   0  0  0  0  0  0  0  0  0  0  0  0
  191.0210  176.8680  145.3060 C   0  0  0  0  0  3  0  0  0  0  0  0
  193.0850  175.2180  146.3610 C   0  0  0  0  0  2  0  0  0  0  0  0
  192.2720  177.0660  144.8760 C   0  0  0  0  0  3  0  0  0  0  0  0
  193.3340  176.0130  145.0700 C   0  0  2  0  0  3  0  0  0  0  0  0
  193.3520  175.1120  143.9190 N   0  0  0  0  0  2  0  0  0  0  0  0
  193.7300  175.9660  141.8050 F   0  0  0  0  0  0  0  0  0  0  0  0
  194.3700  175.5330  142.9510 C   0  0  0  0  0  0  0  0  0  0  0  0
  195.0990  176.5960  143.4610 F   0  0  0  0  0  0  0  0  0  0  0  0
  195.3200  174.3620  142.6140 C   0  0  2  0  0  3  0  0  0  0  0  0
  195.9130  173.6110  143.7790 C   0  0  0  0  0  0  0  0  0  0  0  0
  196.7380  172.2420  146.1210 C   0  0  0  0  0  3  0  0  0  0  0  0
  195.9960  171.6110  145.2000 C   0  0  0  0  0  0  0  0  0  0  0  0
  197.0520  174.1830  144.5850 C   0  0  0  0  0  2  0  0  0  0  0  0
  196.9580  173.7280  146.0410 C   0  0  0  0  0  2  0  0  0  0  0  0
  195.4720  172.3750  144.0460 C   0  0  0  0  0  3  0  0  0  0  0  0
  194.5760  169.7880  145.9710 O   0  0  0  0  0  0  0  0  0  0  0  0
  195.7110  170.2100  145.3150 N   0  0  0  0  0  0  0  0  0  0  0  0
  196.5260  169.3590  144.8960 O   0  0  0  0  0  0  0  0  0  0  0  0
  196.1110  173.5660  140.6130 C   0  0  0  0  0  1  0  0  0  0  0  0
  196.2240  174.6040  141.5530 O   0  0  0  0  0  0  0  0  0  0  0  0
  1 27  1  6  0  0  0
  1 25  1  0  0  0  0
  2  6  1  0  0  0  0
  3  5  1  0  0  0  0
  3  4  1  0  0  0  0
  4  7  2  0  0  0  0
  5 11  1  1  0  0  0
  5  2  1  0  0  0  0
  6  1  1  1  0  0  0
  7  6  1  0  0  0  0
  8  9  1  0  0  0  0
  9 12  1  0  0  0  0
 10  8  2  0  0  0  0
 11  8  1  0  0  0  0
 13 12  1  0  0  0  0
 14 13  1  0  0  0  0
 15 17  1  0  0  0  0
 16 20  1  0  0  0  0
 17 20  1  0  0  0  0
 17 14  1  6  0  0  0
 18 21  1  6  0  0  0
 18 19  1  0  0  0  0
 18 15  1  0  0  0  0
 19 16  1  0  0  0  0
 22 21  1  0  0  0  0
 23 22  1  0  0  0  0
 23 21  1  0  0  0  0
 25 24  1  0  0  0  0
 25 26  1  0  0  0  0
 27 28  1  0  0  0  0
 29 28  1  0  0  0  0
 29 30  1  1  0  0  0
 32 29  1  0  0  0  0
 32 31  2  0  0  0  0
 33 32  1  0  0  0  0
 34 31  1  0  0  0  0
 35 36  1  0  0  0  0
 35 33  2  0  0  0  0
 36 37  1  6  0  0  0
 36 34  1  0  0  0  0
 38 39  1  0  0  0  0
 39 40  1  0  0  0  0
 39 37  1  0  0  0  0
 41 52  1  1  0  0  0
 41 39  1  0  0  0  0
 41 42  1  0  0  0  0
 42 47  2  0  0  0  0
 42 45  1  0  0  0  0
 44 49  1  0  0  0  0
 44 43  2  0  0  0  0
 45 46  1  0  0  0  0
 46 43  1  0  0  0  0
 47 44  1  0  0  0  0
 49 48  2  0  0  0  0
 50 49  2  0  0  0  0
 51 52  1  0  0  0  0
M  END
>  <MODEL>
3

>  <REMARK>
 VINA RESULT:      -6.7      2.506      6.090
  Name = 
  18 active torsions:
  status: ('A' for Active; 'I' for Inactive)
    1  A    between atoms: C_1  and  C_36
    2  A    between atoms: C_2  and  O_14
    3  A    between atoms: C_2  and  C_19
    4  A    between atoms: C_3  and  C_9
    5  A    between atoms: C_4  and  C_30
    6  A    between atoms: C_4  and  C_31
    7  A    between atoms: C_5  and  O_14
    8  A    between atoms: C_5  and  C_43
    9  A    between atoms: C_5  and  C_49
   10  A    between atoms: C_9  and  O_23
   11  A    between atoms: C_9  and  C_28
   12  A    between atoms: N_12  and  C_31
   13  A    between atoms: C_16  and  C_19
   14  A    between atoms: N_17  and  C_38
   15  A    between atoms: N_18  and  C_42
   16  A    between atoms: N_21  and  C_28
   17  A    between atoms: N_21  and  C_52
   18  A    between atoms: C_26  and  C_30
                            x       y       z     vdW  Elec       q    Type
                         _______ _______ _______ _____ _____    ______ ____

>  <TORSDO>
F 18

$$$$
=
 OpenBabel11062420143D

 52 56  0  0  1  0  0  0  0  0999 V2000
  186.2970  177.9460  142.4580 C   0  0  1  0  0  3  0  0  0  0  0  0
  186.0460  176.5870  144.6290 C   0  0  0  0  0  2  0  0  0  0  0  0
  185.7110  177.9370  146.7330 C   0  0  0  0  0  2  0  0  0  0  0  0
  185.8730  179.2050  145.9460 C   0  0  0  0  0  3  0  0  0  0  0  0
  186.5140  176.8110  146.0780 C   0  0  2  0  0  3  0  0  0  0  0  0
  185.6810  177.8770  143.8570 C   0  0  1  0  0  3  0  0  0  0  0  0
  185.8790  179.1700  144.6090 C   0  0  0  0  0  3  0  0  0  0  0  0
  188.9440  176.2140  146.5310 C   0  0  0  0  0  0  0  0  0  0  0  0
  190.3150  176.6170  146.5040 N   0  0  0  0  0  2  0  0  0  0  0  0
  188.6280  175.0530  146.9180 O   0  0  0  0  0  0  0  0  0  0  0  0
  187.9380  177.1360  146.1130 N   0  0  0  0  0  2  0  0  0  0  0  0
  191.4090  175.7070  146.8170 C   0  0  0  0  0  2  0  0  0  0  0  0
  192.6910  176.4990  147.0170 C   0  0  0  0  0  2  0  0  0  0  0  0
  193.8800  175.7570  146.4260 C   0  0  0  0  0  2  0  0  0  0  0  0
  194.2360  176.1040  143.9490 C   0  0  0  0  0  2  0  0  0  0  0  0
  195.5420  173.7020  144.7130 C   0  0  0  0  0  2  0  0  0  0  0  0
  193.5770  175.2360  145.0240 C   0  0  1  0  0  3  0  0  0  0  0  0
  195.7420  175.7840  143.8530 C   0  0  1  0  0  3  0  0  0  0  0  0
  195.9270  174.4190  143.5640 O   0  0  0  0  0  0  0  0  0  0  0  0
  194.0210  173.7760  144.8890 C   0  0  0  0  0  2  0  0  0  0  0  0
  196.5560  176.6470  142.8680 C   0  0  0  0  0  3  0  0  0  0  0  0
  197.1580  175.7920  141.7660 C   0  0  0  0  0  2  0  0  0  0  0  0
  195.9840  176.7010  141.4560 C   0  0  0  0  0  2  0  0  0  0  0  0
  185.5410  177.7530  140.0360 C   0  0  0  0  0  1  0  0  0  0  0  0
  185.3140  178.4280  141.3780 C   0  0  0  0  0  3  0  0  0  0  0  0
  183.8890  178.1900  141.8300 C   0  0  0  0  0  1  0  0  0  0  0  0
  187.4810  178.6970  142.4860 O   0  0  0  0  0  0  0  0  0  0  0  0
  188.4400  177.9180  141.8270 C   0  0  0  0  0  2  0  0  0  0  0  0
  189.3250  177.1860  142.8280 C   0  0  2  0  0  3  0  0  0  0  0  0
  190.6400  177.6360  142.6970 O   0  0  0  0  0  1  0  0  0  0  0  0
  188.3310  175.1440  141.8470 C   0  0  0  0  0  3  0  0  0  0  0  0
  189.2670  175.7010  142.6310 C   0  0  0  0  0  0  0  0  0  0  0  0
  190.2590  174.8450  143.3140 C   0  0  0  0  0  3  0  0  0  0  0  0
  188.2110  173.6480  141.7430 C   0  0  0  0  0  2  0  0  0  0  0  0
  190.3880  173.5560  142.9810 C   0  0  0  0  0  3  0  0  0  0  0  0
  189.5820  172.9620  141.8530 C   0  0  2  0  0  3  0  0  0  0  0  0
  190.3160  173.0990  140.5960 N   0  0  0  0  0  2  0  0  0  0  0  0
  190.6920  170.8290  140.8170 F   0  0  0  0  0  0  0  0  0  0  0  0
  190.3810  171.8120  139.8960 C   0  0  0  0  0  0  0  0  0  0  0  0
  189.1450  171.5080  139.3460 F   0  0  0  0  0  0  0  0  0  0  0  0
  191.4520  171.8500  138.7830 C   0  0  2  0  0  3  0  0  0  0  0  0
  191.1850  172.7630  137.6130 C   0  0  0  0  0  0  0  0  0  0  0  0
  190.5360  174.6820  135.6290 C   0  0  0  0  0  3  0  0  0  0  0  0
  191.6070  174.8620  136.4140 C   0  0  0  0  0  0  0  0  0  0  0  0
  190.2490  172.3620  136.5020 C   0  0  0  0  0  2  0  0  0  0  0  0
  189.5440  173.5900  135.9260 C   0  0  0  0  0  2  0  0  0  0  0  0
  191.8600  173.9160  137.5230 C   0  0  0  0  0  3  0  0  0  0  0  0
  193.7090  176.0090  136.8670 O   0  0  0  0  0  0  0  0  0  0  0  0
  192.5120  175.9530  136.1870 N   0  0  0  0  0  0  0  0  0  0  0  0
  192.1920  176.9000  135.4360 O   0  0  0  0  0  0  0  0  0  0  0  0
  193.3560  170.5700  138.8100 C   0  0  0  0  0  1  0  0  0  0  0  0
  192.0030  170.5950  138.4320 O   0  0  0  0  0  0  0  0  0  0  0  0
  1 25  1  6  0  0  0
  1 27  1  0  0  0  0
  2  5  1  0  0  0  0
  4  3  1  0  0  0  0
  5 11  1  6  0  0  0
  5  3  1  0  0  0  0
  6  1  1  6  0  0  0
  6  7  1  0  0  0  0
  6  2  1  0  0  0  0
  7  4  2  0  0  0  0
  8 10  2  0  0  0  0
  9  8  1  0  0  0  0
  9 12  1  0  0  0  0
 11  8  1  0  0  0  0
 12 13  1  0  0  0  0
 14 13  1  0  0  0  0
 15 17  1  0  0  0  0
 16 20  1  0  0  0  0
 17 14  1  1  0  0  0
 18 21  1  6  0  0  0
 18 15  1  0  0  0  0
 19 18  1  0  0  0  0
 19 16  1  0  0  0  0
 20 17  1  0  0  0  0
 22 21  1  0  0  0  0
 23 22  1  0  0  0  0
 23 21  1  0  0  0  0
 24 25  1  0  0  0  0
 25 26  1  0  0  0  0
 28 27  1  0  0  0  0
 28 29  1  0  0  0  0
 29 30  1  6  0  0  0
 31 32  2  0  0  0  0
 32 29  1  0  0  0  0
 32 33  1  0  0  0  0
 34 31  1  0  0  0  0
 34 36  1  0  0  0  0
 35 33  2  0  0  0  0
 36 37  1  6  0  0  0
 36 35  1  0  0  0  0
 39 37  1  0  0  0  0
 39 38  1  0  0  0  0
 40 39  1  0  0  0  0
 41 52  1  6  0  0  0
 41 39  1  0  0  0  0
 42 41  1  0  0  0  0
 43 46  1  0  0  0  0
 43 44  2  0  0  0  0
 44 47  1  0  0  0  0
 45 42  1  0  0  0  0
 46 45  1  0  0  0  0
 47 42  2  0  0  0  0
 49 44  1  0  0  0  0
 49 48  2  0  0  0  0
 50 49  2  0  0  0  0
 52 51  1  0  0  0  0
M  END
>  <MODEL>
4

>  <REMARK>
 VINA RESULT:      -6.6      1.804      2.839
  Name = 
  18 active torsions:
  status: ('A' for Active; 'I' for Inactive)
    1  A    between atoms: C_1  and  C_36
    2  A    between atoms: C_2  and  O_14
    3  A    between atoms: C_2  and  C_19
    4  A    between atoms: C_3  and  C_9
    5  A    between atoms: C_4  and  C_30
    6  A    between atoms: C_4  and  C_31
    7  A    between atoms: C_5  and  O_14
    8  A    between atoms: C_5  and  C_43
    9  A    between atoms: C_5  and  C_49
   10  A    between atoms: C_9  and  O_23
   11  A    between atoms: C_9  and  C_28
   12  A    between atoms: N_12  and  C_31
   13  A    between atoms: C_16  and  C_19
   14  A    between atoms: N_17  and  C_38
   15  A    between atoms: N_18  and  C_42
   16  A    between atoms: N_21  and  C_28
   17  A    between atoms: N_21  and  C_52
   18  A    between atoms: C_26  and  C_30
                            x       y       z     vdW  Elec       q    Type
                         _______ _______ _______ _____ _____    ______ ____

>  <TORSDO>
F 18

$$$$
=
 OpenBabel11062420143D

 52 56  0  0  1  0  0  0  0  0999 V2000
  191.0140  175.0090  145.1810 C   0  0  1  0  0  3  0  0  0  0  0  0
  189.7690  173.0780  144.0200 C   0  0  0  0  0  2  0  0  0  0  0  0
  191.0420  171.8980  142.1900 C   0  0  0  0  0  2  0  0  0  0  0  0
  192.1750  172.8710  142.3500 C   0  0  0  0  0  3  0  0  0  0  0  0
  189.7200  172.5710  142.5680 C   0  0  2  0  0  3  0  0  0  0  0  0
  191.1320  173.6650  144.4590 C   0  0  1  0  0  3  0  0  0  0  0  0
  192.2010  173.7040  143.3950 C   0  0  0  0  0  3  0  0  0  0  0  0
  188.3590  174.5820  141.8130 C   0  0  0  0  0  0  0  0  0  0  0  0
  188.1910  175.6470  140.8750 N   0  0  0  0  0  2  0  0  0  0  0  0
  187.5550  174.4500  142.7780 O   0  0  0  0  0  0  0  0  0  0  0  0
  189.4470  173.6730  141.6490 N   0  0  0  0  0  2  0  0  0  0  0  0
  187.1700  176.6750  141.0260 C   0  0  0  0  0  2  0  0  0  0  0  0
  187.7850  177.9210  141.6410 C   0  0  0  0  0  2  0  0  0  0  0  0
  186.9900  178.3700  142.8570 C   0  0  0  0  0  2  0  0  0  0  0  0
  185.7420  177.0010  144.5750 C   0  0  0  0  0  2  0  0  0  0  0  0
  184.0940  179.1790  143.7970 C   0  0  0  0  0  2  0  0  0  0  0  0
  185.7930  177.4580  143.1140 C   0  0  1  0  0  3  0  0  0  0  0  0
  185.2000  178.1340  145.4710 C   0  0  1  0  0  3  0  0  0  0  0  0
  183.9220  178.5260  145.0330 O   0  0  0  0  0  0  0  0  0  0  0  0
  184.4910  178.1620  142.7200 C   0  0  0  0  0  2  0  0  0  0  0  0
  185.1740  177.8450  146.9850 C   0  0  0  0  0  3  0  0  0  0  0  0
  186.2400  176.8320  147.3640 C   0  0  0  0  0  2  0  0  0  0  0  0
  186.4250  178.2910  147.7340 C   0  0  0  0  0  2  0  0  0  0  0  0
  189.4710  174.9160  147.2020 C   0  0  0  0  0  1  0  0  0  0  0  0
  189.6060  175.2860  145.7340 C   0  0  0  0  0  3  0  0  0  0  0  0
  189.2520  176.7460  145.5460 C   0  0  0  0  0  1  0  0  0  0  0  0
  192.0120  175.1230  146.1600 O   0  0  0  0  0  0  0  0  0  0  0  0
  192.7800  176.2340  145.7890 C   0  0  0  0  0  2  0  0  0  0  0  0
  194.1230  176.2290  146.5080 C   0  0  2  0  0  3  0  0  0  0  0  0
  194.5030  177.5430  146.7860 O   0  0  0  0  0  1  0  0  0  0  0  0
  195.7570  174.4130  146.1160 C   0  0  0  0  0  3  0  0  0  0  0  0
  195.1810  175.5490  145.6920 C   0  0  0  0  0  0  0  0  0  0  0  0
  195.5890  176.1450  144.4040 C   0  0  0  0  0  3  0  0  0  0  0  0
  196.8940  173.7990  145.3460 C   0  0  0  0  0  2  0  0  0  0  0  0
  196.3470  175.4540  143.5450 C   0  0  0  0  0  3  0  0  0  0  0  0
  196.7410  174.0260  143.8340 C   0  0  2  0  0  3  0  0  0  0  0  0
  195.7360  173.1160  143.2860 N   0  0  0  0  0  2  0  0  0  0  0  0
  197.5750  171.7870  142.8490 F   0  0  0  0  0  0  0  0  0  0  0  0
  196.3510  172.1800  142.3400 C   0  0  0  0  0  0  0  0  0  0  0  0
  195.5590  171.0490  142.2090 F   0  0  0  0  0  0  0  0  0  0  0  0
  196.5420  172.8460  140.9600 C   0  0  2  0  0  3  0  0  0  0  0  0
  195.2970  173.3260  140.2580 C   0  0  0  0  0  0  0  0  0  0  0  0
  193.1030  174.1380  138.6560 C   0  0  0  0  0  3  0  0  0  0  0  0
  193.2580  172.8470  138.9790 C   0  0  0  0  0  0  0  0  0  0  0  0
  194.9160  174.7850  140.2440 C   0  0  0  0  0  2  0  0  0  0  0  0
  194.1920  175.1360  138.9440 C   0  0  0  0  0  2  0  0  0  0  0  0
  194.4730  172.4240  139.7100 C   0  0  0  0  0  3  0  0  0  0  0  0
  191.0700  172.2790  138.0680 O   0  0  0  0  0  0  0  0  0  0  0  0
  192.2600  171.8750  138.6320 N   0  0  0  0  0  0  0  0  0  0  0  0
  192.4260  170.6670  138.9090 O   0  0  0  0  0  0  0  0  0  0  0  0
  197.9410  173.1550  139.1680 C   0  0  0  0  0  1  0  0  0  0  0  0
  197.4870  172.2200  140.1120 O   0  0  0  0  0  0  0  0  0  0  0  0
  1 25  1  1  0  0  0
  1 27  1  0  0  0  0
  2  6  1  0  0  0  0
  3  4  1  0  0  0  0
  3  5  1  0  0  0  0
  4  7  2  0  0  0  0
  5 11  1  6  0  0  0
  5  2  1  0  0  0  0
  6  1  1  6  0  0  0
  7  6  1  0  0  0  0
  8 10  2  0  0  0  0
  9 12  1  0  0  0  0
  9  8  1  0  0  0  0
 11  8  1  0  0  0  0
 12 13  1  0  0  0  0
 13 14  1  0  0  0  0
 15 18  1  0  0  0  0
 16 19  1  0  0  0  0
 17 14  1  1  0  0  0
 17 15  1  0  0  0  0
 18 21  1  1  0  0  0
 19 18  1  0  0  0  0
 20 17  1  0  0  0  0
 20 16  1  0  0  0  0
 21 22  1  0  0  0  0
 21 23  1  0  0  0  0
 22 23  1  0  0  0  0
 25 24  1  0  0  0  0
 26 25  1  0  0  0  0
 28 27  1  0  0  0  0
 28 29  1  0  0  0  0
 29 30  1  6  0  0  0
 32 31  2  0  0  0  0
 32 29  1  0  0  0  0
 33 32  1  0  0  0  0
 34 31  1  0  0  0  0
 35 36  1  0  0  0  0
 35 33  2  0  0  0  0
 36 37  1  1  0  0  0
 36 34  1  0  0  0  0
 39 38  1  0  0  0  0
 39 37  1  0  0  0  0
 40 39  1  0  0  0  0
 41 52  1  6  0  0  0
 41 39  1  0  0  0  0
 42 41  1  0  0  0  0
 43 46  1  0  0  0  0
 43 44  2  0  0  0  0
 44 47  1  0  0  0  0
 45 42  1  0  0  0  0
 46 45  1  0  0  0  0
 47 42  2  0  0  0  0
 48 49  2  0  0  0  0
 49 50  2  0  0  0  0
 49 44  1  0  0  0  0
 51 52  1  0  0  0  0
M  END
>  <MODEL>
5

>  <REMARK>
 VINA RESULT:      -6.5      2.563      7.394
  Name = 
  18 active torsions:
  status: ('A' for Active; 'I' for Inactive)
    1  A    between atoms: C_1  and  C_36
    2  A    between atoms: C_2  and  O_14
    3  A    between atoms: C_2  and  C_19
    4  A    between atoms: C_3  and  C_9
    5  A    between atoms: C_4  and  C_30
    6  A    between atoms: C_4  and  C_31
    7  A    between atoms: C_5  and  O_14
    8  A    between atoms: C_5  and  C_43
    9  A    between atoms: C_5  and  C_49
   10  A    between atoms: C_9  and  O_23
   11  A    between atoms: C_9  and  C_28
   12  A    between atoms: N_12  and  C_31
   13  A    between atoms: C_16  and  C_19
   14  A    between atoms: N_17  and  C_38
   15  A    between atoms: N_18  and  C_42
   16  A    between atoms: N_21  and  C_28
   17  A    between atoms: N_21  and  C_52
   18  A    between atoms: C_26  and  C_30
                            x       y       z     vdW  Elec       q    Type
                         _______ _______ _______ _____ _____    ______ ____

>  <TORSDO>
F 18

$$$$
=
 OpenBabel11062420143D

 52 56  0  0  1  0  0  0  0  0999 V2000
  192.6530  172.3960  139.4620 C   0  0  1  0  0  3  0  0  0  0  0  0
  190.2040  171.8030  139.9860 C   0  0  0  0  0  2  0  0  0  0  0  0
  188.4680  172.9940  138.5970 C   0  0  0  0  0  2  0  0  0  0  0  0
  189.5490  173.7900  137.9260 C   0  0  0  0  0  3  0  0  0  0  0  0
  188.9000  172.6210  140.0170 C   0  0  2  0  0  3  0  0  0  0  0  0
  191.2290  172.2540  138.9190 C   0  0  1  0  0  3  0  0  0  0  0  0
  190.8330  173.4550  138.0950 C   0  0  0  0  0  3  0  0  0  0  0  0
  188.9210  173.8670  142.2340 C   0  0  0  0  0  0  0  0  0  0  0  0
  189.1380  175.0960  142.9290 N   0  0  0  0  0  2  0  0  0  0  0  0
  188.6020  172.8230  142.8690 O   0  0  0  0  0  0  0  0  0  0  0  0
  189.0730  173.8320  140.8140 N   0  0  0  0  0  2  0  0  0  0  0  0
  189.1020  175.1950  144.3820 C   0  0  0  0  0  2  0  0  0  0  0  0
  188.6180  176.5780  144.7880 C   0  0  0  0  0  2  0  0  0  0  0  0
  187.5830  176.4810  145.8970 C   0  0  0  0  0  2  0  0  0  0  0  0
  186.6360  178.6720  145.0660 C   0  0  0  0  0  2  0  0  0  0  0  0
  184.6100  177.3180  146.5230 C   0  0  0  0  0  2  0  0  0  0  0  0
  187.0530  177.8570  146.2940 C   0  0  1  0  0  3  0  0  0  0  0  0
  185.2700  178.1860  144.5420 C   0  0  1  0  0  3  0  0  0  0  0  0
  184.2990  178.2910  145.5550 O   0  0  0  0  0  0  0  0  0  0  0  0
  185.8850  177.7180  147.2750 C   0  0  0  0  0  2  0  0  0  0  0  0
  184.7610  178.8600  143.2520 C   0  0  0  0  0  3  0  0  0  0  0  0
  185.4910  178.3220  142.0330 C   0  0  0  0  0  2  0  0  0  0  0  0
  184.0520  177.9180  142.2860 C   0  0  0  0  0  2  0  0  0  0  0  0
  193.8760  170.2140  139.9290 C   0  0  0  0  0  1  0  0  0  0  0  0
  193.6220  171.3280  138.9270 C   0  0  0  0  0  3  0  0  0  0  0  0
  193.0860  170.7380  137.6400 C   0  0  0  0  0  1  0  0  0  0  0  0
  193.1220  173.7020  139.2580 O   0  0  0  0  0  0  0  0  0  0  0  0
  194.4860  173.6680  139.5740 C   0  0  0  0  0  2  0  0  0  0  0  0
  195.0400  175.0790  139.7350 C   0  0  2  0  0  3  0  0  0  0  0  0
  196.0420  175.2920  138.7870 O   0  0  0  0  0  1  0  0  0  0  0  0
  195.8500  176.5410  141.5590 C   0  0  0  0  0  3  0  0  0  0  0  0
  195.5810  175.3030  141.1140 C   0  0  0  0  0  0  0  0  0  0  0  0
  195.8180  174.1380  141.9920 C   0  0  0  0  0  3  0  0  0  0  0  0
  196.4970  176.7480  142.9010 C   0  0  0  0  0  2  0  0  0  0  0  0
  196.0720  174.3090  143.2940 C   0  0  0  0  0  3  0  0  0  0  0  0
  196.0470  175.6840  143.9150 C   0  0  2  0  0  3  0  0  0  0  0  0
  194.7000  175.9850  144.3970 N   0  0  0  0  0  2  0  0  0  0  0  0
  195.6930  174.9150  146.1890 F   0  0  0  0  0  0  0  0  0  0  0  0
  194.5660  175.6220  145.8110 C   0  0  0  0  0  0  0  0  0  0  0  0
  194.4990  176.7670  146.5900 F   0  0  0  0  0  0  0  0  0  0  0  0
  193.3030  174.7620  146.0370 C   0  0  2  0  0  3  0  0  0  0  0  0
  193.1880  173.4960  145.2250 C   0  0  0  0  0  0  0  0  0  0  0  0
  193.2660  171.1960  143.5700 C   0  0  0  0  0  3  0  0  0  0  0  0
  193.9360  171.2120  144.7300 C   0  0  0  0  0  0  0  0  0  0  0  0
  192.1350  173.3410  144.1570 C   0  0  0  0  0  2  0  0  0  0  0  0
  192.6500  172.4550  143.0230 C   0  0  0  0  0  2  0  0  0  0  0  0
  193.9850  172.4620  145.5200 C   0  0  0  0  0  3  0  0  0  0  0  0
  194.7360  169.8310  146.5710 O   0  0  0  0  0  0  0  0  0  0  0  0
  194.5980  170.0350  145.2160 N   0  0  0  0  0  0  0  0  0  0  0  0
  195.1230  169.2260  144.4200 O   0  0  0  0  0  0  0  0  0  0  0  0
  191.6680  175.4270  147.5030 C   0  0  0  0  0  1  0  0  0  0  0  0
  192.0940  175.4860  146.1660 O   0  0  0  0  0  0  0  0  0  0  0  0
  1 25  1  6  0  0  0
  2  5  1  0  0  0  0
  3  5  1  0  0  0  0
  4  7  2  0  0  0  0
  4  3  1  0  0  0  0
  5 11  1  1  0  0  0
  6  1  1  1  0  0  0
  6  2  1  0  0  0  0
  7  6  1  0  0  0  0
  8 10  2  0  0  0  0
  8  9  1  0  0  0  0
  9 12  1  0  0  0  0
 11  8  1  0  0  0  0
 12 13  1  0  0  0  0
 13 14  1  0  0  0  0
 15 17  1  0  0  0  0
 16 20  1  0  0  0  0
 17 14  1  6  0  0  0
 17 20  1  0  0  0  0
 18 21  1  6  0  0  0
 18 15  1  0  0  0  0
 18 19  1  0  0  0  0
 19 16  1  0  0  0  0
 22 23  1  0  0  0  0
 22 21  1  0  0  0  0
 23 21  1  0  0  0  0
 25 24  1  0  0  0  0
 26 25  1  0  0  0  0
 27  1  1  0  0  0  0
 27 28  1  0  0  0  0
 28 29  1  0  0  0  0
 29 30  1  6  0  0  0
 29 32  1  0  0  0  0
 31 34  1  0  0  0  0
 32 31  2  0  0  0  0
 32 33  1  0  0  0  0
 33 35  2  0  0  0  0
 34 36  1  0  0  0  0
 35 36  1  0  0  0  0
 36 37  1  6  0  0  0
 37 39  1  0  0  0  0
 39 41  1  0  0  0  0
 39 38  1  0  0  0  0
 39 40  1  0  0  0  0
 41 52  1  6  0  0  0
 42 47  2  0  0  0  0
 42 41  1  0  0  0  0
 43 44  2  0  0  0  0
 44 49  1  0  0  0  0
 44 47  1  0  0  0  0
 45 42  1  0  0  0  0
 46 43  1  0  0  0  0
 46 45  1  0  0  0  0
 49 48  2  0  0  0  0
 50 49  2  0  0  0  0
 52 51  1  0  0  0  0
M  END
>  <MODEL>
6

>  <REMARK>
 VINA RESULT:      -6.3      2.964      8.374
  Name = 
  18 active torsions:
  status: ('A' for Active; 'I' for Inactive)
    1  A    between atoms: C_1  and  C_36
    2  A    between atoms: C_2  and  O_14
    3  A    between atoms: C_2  and  C_19
    4  A    between atoms: C_3  and  C_9
    5  A    between atoms: C_4  and  C_30
    6  A    between atoms: C_4  and  C_31
    7  A    between atoms: C_5  and  O_14
    8  A    between atoms: C_5  and  C_43
    9  A    between atoms: C_5  and  C_49
   10  A    between atoms: C_9  and  O_23
   11  A    between atoms: C_9  and  C_28
   12  A    between atoms: N_12  and  C_31
   13  A    between atoms: C_16  and  C_19
   14  A    between atoms: N_17  and  C_38
   15  A    between atoms: N_18  and  C_42
   16  A    between atoms: N_21  and  C_28
   17  A    between atoms: N_21  and  C_52
   18  A    between atoms: C_26  and  C_30
                            x       y       z     vdW  Elec       q    Type
                         _______ _______ _______ _____ _____    ______ ____

>  <TORSDO>
F 18

$$$$
=
 OpenBabel11062420143D

 52 56  0  0  1  0  0  0  0  0999 V2000
  186.2340  178.4140  141.8480 C   0  0  1  0  0  3  0  0  0  0  0  0
  186.8440  176.0410  142.6360 C   0  0  0  0  0  2  0  0  0  0  0  0
  189.2930  175.6290  143.0730 C   0  0  0  0  0  2  0  0  0  0  0  0
  189.6130  177.0160  142.5950 C   0  0  0  0  0  3  0  0  0  0  0  0
  188.0390  175.1110  142.3660 C   0  0  2  0  0  3  0  0  0  0  0  0
  187.1890  177.5490  142.6730 C   0  0  1  0  0  3  0  0  0  0  0  0
  188.6290  177.8990  142.3910 C   0  0  0  0  0  3  0  0  0  0  0  0
  188.4060  173.7560  140.2440 C   0  0  0  0  0  0  0  0  0  0  0  0
  188.6250  173.7540  138.8320 N   0  0  0  0  0  2  0  0  0  0  0  0
  188.3110  172.6670  140.8760 O   0  0  0  0  0  0  0  0  0  0  0  0
  188.2910  175.0030  140.9310 N   0  0  0  0  0  2  0  0  0  0  0  0
  188.6530  172.5310  138.0420 C   0  0  0  0  0  2  0  0  0  0  0  0
  189.4290  172.7710  136.7570 C   0  0  0  0  0  2  0  0  0  0  0  0
  189.6970  171.4580  136.0370 C   0  0  0  0  0  2  0  0  0  0  0  0
  191.9040  171.4710  137.2680 C   0  0  0  0  0  2  0  0  0  0  0  0
  191.1940  168.7750  136.7330 C   0  0  0  0  0  2  0  0  0  0  0  0
  191.1920  171.1620  135.9480 C   0  0  1  0  0  3  0  0  0  0  0  0
  191.6390  170.3500  138.2940 C   0  0  1  0  0  3  0  0  0  0  0  0
  192.0720  169.1130  137.7800 O   0  0  0  0  0  0  0  0  0  0  0  0
  191.4240  169.7050  135.5360 C   0  0  0  0  0  2  0  0  0  0  0  0
  192.2240  170.5690  139.7030 C   0  0  0  0  0  3  0  0  0  0  0  0
  191.8170  171.9240  140.2570 C   0  0  0  0  0  2  0  0  0  0  0  0
  191.1820  170.6630  140.8110 C   0  0  0  0  0  2  0  0  0  0  0  0
  184.2350  178.2910  140.2780 C   0  0  0  0  0  1  0  0  0  0  0  0
  185.5420  177.6470  140.7080 C   0  0  0  0  0  3  0  0  0  0  0  0
  186.4700  177.5410  139.5160 C   0  0  0  0  0  1  0  0  0  0  0  0
  185.3230  179.0700  142.6890 O   0  0  0  0  0  0  0  0  0  0  0  0
  184.5140  178.0620  143.2300 C   0  0  0  0  0  2  0  0  0  0  0  0
  184.0660  178.4250  144.6410 C   0  0  2  0  0  3  0  0  0  0  0  0
  183.7790  179.7900  144.6970 O   0  0  0  0  0  1  0  0  0  0  0  0
  185.3420  176.8010  146.0030 C   0  0  0  0  0  3  0  0  0  0  0  0
  185.1120  178.0780  145.6560 C   0  0  0  0  0  0  0  0  0  0  0  0
  185.8970  179.1620  146.2810 C   0  0  0  0  0  3  0  0  0  0  0  0
  186.3140  176.4700  147.1020 C   0  0  0  0  0  2  0  0  0  0  0  0
  186.9870  178.8830  147.0050 C   0  0  0  0  0  3  0  0  0  0  0  0
  187.4850  177.4650  147.1400 C   0  0  2  0  0  3  0  0  0  0  0  0
  188.4330  177.1700  146.0660 N   0  0  0  0  0  2  0  0  0  0  0  0
  190.3850  178.2940  145.5500 F   0  0  0  0  0  0  0  0  0  0  0  0
  189.8030  177.4670  146.4930 C   0  0  0  0  0  0  0  0  0  0  0  0
  189.7870  178.1420  147.7040 F   0  0  0  0  0  0  0  0  0  0  0  0
  190.6250  176.1660  146.6330 C   0  0  2  0  0  3  0  0  0  0  0  0
  192.0220  176.1800  146.0660 C   0  0  0  0  0  0  0  0  0  0  0  0
  194.6440  175.8780  145.0290 C   0  0  0  0  0  3  0  0  0  0  0  0
  193.5810  175.6800  144.2370 C   0  0  0  0  0  0  0  0  0  0  0  0
  193.1730  176.7850  146.8290 C   0  0  0  0  0  2  0  0  0  0  0  0
  194.4720  176.0440  146.5150 C   0  0  0  0  0  2  0  0  0  0  0  0
  192.2230  175.7210  144.8240 C   0  0  0  0  0  3  0  0  0  0  0  0
  192.6380  175.2180  142.0380 O   0  0  0  0  0  0  0  0  0  0  0  0
  193.7420  175.4370  142.8320 N   0  0  0  0  0  0  0  0  0  0  0  0
  194.8840  175.3430  142.3300 O   0  0  0  0  0  0  0  0  0  0  0  0
  189.3710  174.5090  147.6050 C   0  0  0  0  0  1  0  0  0  0  0  0
  189.9090  174.9700  146.3920 O   0  0  0  0  0  0  0  0  0  0  0  0
  1 25  1  6  0  0  0
  1 27  1  0  0  0  0
  2  6  1  0  0  0  0
  4  3  1  0  0  0  0
  5 11  1  6  0  0  0
  5  2  1  0  0  0  0
  5  3  1  0  0  0  0
  6  1  1  6  0  0  0
  7  4  2  0  0  0  0
  7  6  1  0  0  0  0
  8 10  2  0  0  0  0
  8 11  1  0  0  0  0
  9  8  1  0  0  0  0
 12  9  1  0  0  0  0
 13 12  1  0  0  0  0
 14 13  1  0  0  0  0
 15 18  1  0  0  0  0
 16 19  1  0  0  0  0
 17 14  1  1  0  0  0
 17 15  1  0  0  0  0
 18 21  1  1  0  0  0
 19 18  1  0  0  0  0
 20 17  1  0  0  0  0
 20 16  1  0  0  0  0
 21 22  1  0  0  0  0
 21 23  1  0  0  0  0
 22 23  1  0  0  0  0
 24 25  1  0  0  0  0
 26 25  1  0  0  0  0
 27 28  1  0  0  0  0
 28 29  1  0  0  0  0
 29 30  1  6  0  0  0
 29 32  1  0  0  0  0
 31 34  1  0  0  0  0
 32 31  2  0  0  0  0
 32 33  1  0  0  0  0
 33 35  2  0  0  0  0
 34 36  1  0  0  0  0
 35 36  1  0  0  0  0
 36 37  1  6  0  0  0
 37 39  1  0  0  0  0
 38 39  1  0  0  0  0
 39 41  1  0  0  0  0
 39 40  1  0  0  0  0
 41 52  1  6  0  0  0
 42 41  1  0  0  0  0
 42 45  1  0  0  0  0
 43 46  1  0  0  0  0
 44 47  1  0  0  0  0
 44 43  2  0  0  0  0
 46 45  1  0  0  0  0
 47 42  2  0  0  0  0
 48 49  2  0  0  0  0
 49 44  1  0  0  0  0
 50 49  2  0  0  0  0
 52 51  1  0  0  0  0
M  END
>  <MODEL>
7

>  <REMARK>
 VINA RESULT:      -6.3      2.773      7.164
  Name = 
  18 active torsions:
  status: ('A' for Active; 'I' for Inactive)
    1  A    between atoms: C_1  and  C_36
    2  A    between atoms: C_2  and  O_14
    3  A    between atoms: C_2  and  C_19
    4  A    between atoms: C_3  and  C_9
    5  A    between atoms: C_4  and  C_30
    6  A    between atoms: C_4  and  C_31
    7  A    between atoms: C_5  and  O_14
    8  A    between atoms: C_5  and  C_43
    9  A    between atoms: C_5  and  C_49
   10  A    between atoms: C_9  and  O_23
   11  A    between atoms: C_9  and  C_28
   12  A    between atoms: N_12  and  C_31
   13  A    between atoms: C_16  and  C_19
   14  A    between atoms: N_17  and  C_38
   15  A    between atoms: N_18  and  C_42
   16  A    between atoms: N_21  and  C_28
   17  A    between atoms: N_21  and  C_52
   18  A    between atoms: C_26  and  C_30
                            x       y       z     vdW  Elec       q    Type
                         _______ _______ _______ _____ _____    ______ ____

>  <TORSDO>
F 18

$$$$
=
 OpenBabel11062420143D

 52 56  0  0  1  0  0  0  0  0999 V2000
  195.2610  173.8170  143.8900 C   0  0  1  0  0  3  0  0  0  0  0  0
  196.5510  173.5630  141.6770 C   0  0  0  0  0  2  0  0  0  0  0  0
  197.3280  175.7130  140.6100 C   0  0  0  0  0  2  0  0  0  0  0  0
  196.6330  176.4980  141.6850 C   0  0  0  0  0  3  0  0  0  0  0  0
  196.5980  174.3880  140.3790 C   0  0  2  0  0  3  0  0  0  0  0  0
  196.3370  174.3920  142.9660 C   0  0  1  0  0  3  0  0  0  0  0  0
  196.1560  175.8770  142.7680 C   0  0  0  0  0  3  0  0  0  0  0  0
  194.9150  174.7200  138.5010 C   0  0  0  0  0  0  0  0  0  0  0  0
  193.5570  174.9520  138.1190 N   0  0  0  0  0  2  0  0  0  0  0  0
  195.8090  174.5770  137.6200 O   0  0  0  0  0  0  0  0  0  0  0  0
  195.2470  174.6490  139.8870 N   0  0  0  0  0  2  0  0  0  0  0  0
  193.1180  174.9390  136.7300 C   0  0  0  0  0  2  0  0  0  0  0  0
  191.7600  174.2620  136.6300 C   0  0  0  0  0  2  0  0  0  0  0  0
  191.4890  173.4140  137.8620 C   0  0  0  0  0  2  0  0  0  0  0  0
  189.6950  172.0320  138.9820 C   0  0  0  0  0  2  0  0  0  0  0  0
  188.4410  174.1590  137.5790 C   0  0  0  0  0  2  0  0  0  0  0  0
  190.3050  172.4750  137.6490 C   0  0  1  0  0  3  0  0  0  0  0  0
  188.8240  173.1610  139.5720 C   0  0  1  0  0  3  0  0  0  0  0  0
  187.8120  173.5160  138.6610 O   0  0  0  0  0  0  0  0  0  0  0  0
  189.2470  173.1410  136.7630 C   0  0  0  0  0  2  0  0  0  0  0  0
  188.2130  172.8880  140.9610 C   0  0  0  0  0  3  0  0  0  0  0  0
  189.2990  172.7100  142.0080 C   0  0  0  0  0  2  0  0  0  0  0  0
  188.4740  173.9820  141.9900 C   0  0  0  0  0  2  0  0  0  0  0  0
  197.1630  172.6900  145.1490 C   0  0  0  0  0  1  0  0  0  0  0  0
  195.8040  173.3610  145.2540 C   0  0  0  0  0  3  0  0  0  0  0  0
  195.8950  174.5420  146.1980 C   0  0  0  0  0  1  0  0  0  0  0  0
  194.1910  174.7170  144.0070 O   0  0  0  0  0  0  0  0  0  0  0  0
  193.0650  174.0280  143.5400 C   0  0  0  0  0  2  0  0  0  0  0  0
  191.9190  174.9920  143.2550 C   0  0  2  0  0  3  0  0  0  0  0  0
  192.4330  176.1750  142.7230 O   0  0  0  0  0  1  0  0  0  0  0  0
  190.9540  176.5470  144.9190 C   0  0  0  0  0  3  0  0  0  0  0  0
  191.1280  175.2860  144.4940 C   0  0  0  0  0  0  0  0  0  0  0  0
  190.5340  174.1650  145.2510 C   0  0  0  0  0  3  0  0  0  0  0  0
  190.2540  176.8250  146.2220 C   0  0  0  0  0  2  0  0  0  0  0  0
  189.6340  174.3970  146.2140 C   0  0  0  0  0  3  0  0  0  0  0  0
  189.1470  175.7960  146.5000 C   0  0  2  0  0  3  0  0  0  0  0  0
  187.9710  176.0860  145.6820 N   0  0  0  0  0  2  0  0  0  0  0  0
  186.2870  176.3060  147.2490 F   0  0  0  0  0  0  0  0  0  0  0  0
  187.0820  177.0240  146.3740 C   0  0  0  0  0  0  0  0  0  0  0  0
  187.8280  177.9260  147.1160 F   0  0  0  0  0  0  0  0  0  0  0  0
  186.1980  177.7860  145.3620 C   0  0  2  0  0  3  0  0  0  0  0  0
  186.7230  177.9030  143.9530 C   0  0  0  0  0  0  0  0  0  0  0  0
  187.6680  177.7970  141.2820 C   0  0  0  0  0  3  0  0  0  0  0  0
  186.3510  177.8100  141.5290 C   0  0  0  0  0  0  0  0  0  0  0  0
  188.1540  178.2910  143.6790 C   0  0  0  0  0  2  0  0  0  0  0  0
  188.6560  177.6170  142.4020 C   0  0  0  0  0  2  0  0  0  0  0  0
  185.8760  177.7410  142.9290 C   0  0  0  0  0  3  0  0  0  0  0  0
  185.6190  177.2120  139.2830 O   0  0  0  0  0  0  0  0  0  0  0  0
  185.3990  177.8970  140.4580 N   0  0  0  0  0  0  0  0  0  0  0  0
  184.4080  178.6540  140.5470 O   0  0  0  0  0  0  0  0  0  0  0  0
  184.2090  178.7310  146.0050 C   0  0  0  0  0  1  0  0  0  0  0  0
  185.5860  178.9610  145.8580 O   0  0  0  0  0  0  0  0  0  0  0  0
  1 27  1  1  0  0  0
  1 25  1  0  0  0  0
  2  6  1  0  0  0  0
  3  4  1  0  0  0  0
  4  7  2  0  0  0  0
  5 11  1  1  0  0  0
  5  3  1  0  0  0  0
  5  2  1  0  0  0  0
  6  1  1  6  0  0  0
  7  6  1  0  0  0  0
  8 11  1  0  0  0  0
  9  8  1  0  0  0  0
 10  8  2  0  0  0  0
 12  9  1  0  0  0  0
 13 12  1  0  0  0  0
 13 14  1  0  0  0  0
 15 18  1  0  0  0  0
 16 19  1  0  0  0  0
 17 14  1  1  0  0  0
 17 15  1  0  0  0  0
 18 21  1  1  0  0  0
 19 18  1  0  0  0  0
 20 16  1  0  0  0  0
 20 17  1  0  0  0  0
 21 23  1  0  0  0  0
 21 22  1  0  0  0  0
 23 22  1  0  0  0  0
 24 25  1  0  0  0  0
 25 26  1  0  0  0  0
 28 27  1  0  0  0  0
 29 30  1  1  0  0  0
 29 28  1  0  0  0  0
 29 32  1  0  0  0  0
 31 34  1  0  0  0  0
 32 31  2  0  0  0  0
 32 33  1  0  0  0  0
 33 35  2  0  0  0  0
 34 36  1  0  0  0  0
 35 36  1  0  0  0  0
 36 37  1  6  0  0  0
 37 39  1  0  0  0  0
 39 40  1  0  0  0  0
 39 38  1  0  0  0  0
 41 52  1  1  0  0  0
 41 39  1  0  0  0  0
 42 41  1  0  0  0  0
 43 44  2  0  0  0  0
 43 46  1  0  0  0  0
 44 47  1  0  0  0  0
 45 42  1  0  0  0  0
 46 45  1  0  0  0  0
 47 42  2  0  0  0  0
 48 49  2  0  0  0  0
 49 50  2  0  0  0  0
 49 44  1  0  0  0  0
 52 51  1  0  0  0  0
M  END
>  <MODEL>
8

>  <REMARK>
 VINA RESULT:      -6.3      2.890      9.631
  Name = 
  18 active torsions:
  status: ('A' for Active; 'I' for Inactive)
    1  A    between atoms: C_1  and  C_36
    2  A    between atoms: C_2  and  O_14
    3  A    between atoms: C_2  and  C_19
    4  A    between atoms: C_3  and  C_9
    5  A    between atoms: C_4  and  C_30
    6  A    between atoms: C_4  and  C_31
    7  A    between atoms: C_5  and  O_14
    8  A    between atoms: C_5  and  C_43
    9  A    between atoms: C_5  and  C_49
   10  A    between atoms: C_9  and  O_23
   11  A    between atoms: C_9  and  C_28
   12  A    between atoms: N_12  and  C_31
   13  A    between atoms: C_16  and  C_19
   14  A    between atoms: N_17  and  C_38
   15  A    between atoms: N_18  and  C_42
   16  A    between atoms: N_21  and  C_28
   17  A    between atoms: N_21  and  C_52
   18  A    between atoms: C_26  and  C_30
                            x       y       z     vdW  Elec       q    Type
                         _______ _______ _______ _____ _____    ______ ____

>  <TORSDO>
F 18

$$$$
=
 OpenBabel11062420143D

 52 56  0  0  1  0  0  0  0  0999 V2000
  185.5730  177.2390  142.8360 C   0  0  1  0  0  3  0  0  0  0  0  0
  186.0970  176.5030  145.2460 C   0  0  0  0  0  2  0  0  0  0  0  0
  185.9710  178.3160  146.9950 C   0  0  0  0  0  2  0  0  0  0  0  0
  185.6910  179.3310  145.9250 C   0  0  0  0  0  3  0  0  0  0  0  0
  186.8210  177.1780  146.4250 C   0  0  2  0  0  3  0  0  0  0  0  0
  185.3120  177.4690  144.3260 C   0  0  1  0  0  3  0  0  0  0  0  0
  185.4050  178.9330  144.6810 C   0  0  0  0  0  3  0  0  0  0  0  0
  189.1750  176.8680  145.5140 C   0  0  0  0  0  0  0  0  0  0  0  0
  190.4010  177.4730  145.0960 N   0  0  0  0  0  2  0  0  0  0  0  0
  189.0280  175.6160  145.4500 O   0  0  0  0  0  0  0  0  0  0  0  0
  188.1190  177.6970  146.0010 N   0  0  0  0  0  2  0  0  0  0  0  0
  191.4890  176.7130  144.4960 C   0  0  0  0  0  2  0  0  0  0  0  0
  191.3470  176.7280  142.9820 C   0  0  0  0  0  2  0  0  0  0  0  0
  192.6990  176.9330  142.3170 C   0  0  0  0  0  2  0  0  0  0  0  0
  193.5170  174.7460  141.3530 C   0  0  0  0  0  2  0  0  0  0  0  0
  195.6870  176.5770  141.3810 C   0  0  0  0  0  2  0  0  0  0  0  0
  193.6150  175.7290  142.5220 C   0  0  1  0  0  3  0  0  0  0  0  0
  194.3150  175.2740  140.1430 C   0  0  1  0  0  3  0  0  0  0  0  0
  195.6600  175.4770  140.5030 O   0  0  0  0  0  0  0  0  0  0  0  0
  195.0620  176.1870  142.7270 C   0  0  0  0  0  2  0  0  0  0  0  0
  194.2360  174.4260  138.8570 C   0  0  0  0  0  3  0  0  0  0  0  0
  192.7950  174.0830  138.5200 C   0  0  0  0  0  2  0  0  0  0  0  0
  193.5360  175.1140  137.6910 C   0  0  0  0  0  2  0  0  0  0  0  0
  185.3820  178.2040  140.4900 C   0  0  0  0  0  1  0  0  0  0  0  0
  184.8970  178.2800  141.9280 C   0  0  0  0  0  3  0  0  0  0  0  0
  183.3940  178.1030  141.9650 C   0  0  0  0  0  1  0  0  0  0  0  0
  186.9500  177.1240  142.5960 O   0  0  0  0  0  0  0  0  0  0  0  0
  187.1930  175.7550  142.4280 C   0  0  0  0  0  2  0  0  0  0  0  0
  188.2930  175.5220  141.3990 C   0  0  2  0  0  3  0  0  0  0  0  0
  187.7930  175.7810  140.1220 O   0  0  0  0  0  1  0  0  0  0  0  0
  189.7230  173.6790  140.5770 C   0  0  0  0  0  3  0  0  0  0  0  0
  188.8240  174.1230  141.4700 C   0  0  0  0  0  0  0  0  0  0  0  0
  188.3460  173.2250  142.5420 C   0  0  0  0  0  3  0  0  0  0  0  0
  190.1670  172.2410  140.5880 C   0  0  0  0  0  2  0  0  0  0  0  0
  188.9640  172.0630  142.7800 C   0  0  0  0  0  3  0  0  0  0  0  0
  190.2050  171.6730  142.0160 C   0  0  2  0  0  3  0  0  0  0  0  0
  191.3910  172.1570  142.7190 N   0  0  0  0  0  2  0  0  0  0  0  0
  192.0450  170.0970  141.9010 F   0  0  0  0  0  0  0  0  0  0  0  0
  192.5160  171.2370  142.5250 C   0  0  0  0  0  0  0  0  0  0  0  0
  193.4660  171.8160  141.6980 F   0  0  0  0  0  0  0  0  0  0  0  0
  193.1600  170.8680  143.8800 C   0  0  2  0  0  3  0  0  0  0  0  0
  194.0120  171.9240  144.5380 C   0  0  0  0  0  0  0  0  0  0  0  0
  195.5370  174.1040  145.5190 C   0  0  0  0  0  3  0  0  0  0  0  0
  194.2100  174.0730  145.7080 C   0  0  0  0  0  0  0  0  0  0  0  0
  195.5030  171.7560  144.6760 C   0  0  0  0  0  2  0  0  0  0  0  0
  196.2040  173.1120  144.6050 C   0  0  0  0  0  2  0  0  0  0  0  0
  193.4150  172.9920  145.0830 C   0  0  0  0  0  3  0  0  0  0  0  0
  194.1780  176.2680  146.7640 O   0  0  0  0  0  0  0  0  0  0  0  0
  193.5560  175.0660  146.5100 N   0  0  0  0  0  0  0  0  0  0  0  0
  192.4550  174.8220  147.0510 O   0  0  0  0  0  0  0  0  0  0  0  0
  192.9110  168.8120  144.8670 C   0  0  0  0  0  1  0  0  0  0  0  0
  193.6850  169.5570  143.9630 O   0  0  0  0  0  0  0  0  0  0  0  0
  1 25  1  6  0  0  0
  2  5  1  0  0  0  0
  4  3  1  0  0  0  0
  5 11  1  6  0  0  0
  5  3  1  0  0  0  0
  6  1  1  6  0  0  0
  6  7  1  0  0  0  0
  6  2  1  0  0  0  0
  7  4  2  0  0  0  0
  8 11  1  0  0  0  0
  9  8  1  0  0  0  0
 10  8  2  0  0  0  0
 12  9  1  0  0  0  0
 13 12  1  0  0  0  0
 14 13  1  0  0  0  0
 15 17  1  0  0  0  0
 16 20  1  0  0  0  0
 17 14  1  6  0  0  0
 17 20  1  0  0  0  0
 18 21  1  6  0  0  0
 18 19  1  0  0  0  0
 18 15  1  0  0  0  0
 19 16  1  0  0  0  0
 22 21  1  0  0  0  0
 23 22  1  0  0  0  0
 23 21  1  0  0  0  0
 24 25  1  0  0  0  0
 25 26  1  0  0  0  0
 27  1  1  0  0  0  0
 28 27  1  0  0  0  0
 29 30  1  6  0  0  0
 29 32  1  0  0  0  0
 29 28  1  0  0  0  0
 31 34  1  0  0  0  0
 31 32  2  0  0  0  0
 32 33  1  0  0  0  0
 33 35  2  0  0  0  0
 34 36  1  0  0  0  0
 36 37  1  1  0  0  0
 36 35  1  0  0  0  0
 38 39  1  0  0  0  0
 39 37  1  0  0  0  0
 39 41  1  0  0  0  0
 40 39  1  0  0  0  0
 41 52  1  6  0  0  0
 41 42  1  0  0  0  0
 42 45  1  0  0  0  0
 42 47  2  0  0  0  0
 43 44  2  0  0  0  0
 44 49  1  0  0  0  0
 46 45  1  0  0  0  0
 46 43  1  0  0  0  0
 47 44  1  0  0  0  0
 49 48  2  0  0  0  0
 49 50  2  0  0  0  0
 52 51  1  0  0  0  0
M  END
>  <MODEL>
9

>  <REMARK>
 VINA RESULT:      -6.3      2.180      4.188
  Name = 
  18 active torsions:
  status: ('A' for Active; 'I' for Inactive)
    1  A    between atoms: C_1  and  C_36
    2  A    between atoms: C_2  and  O_14
    3  A    between atoms: C_2  and  C_19
    4  A    between atoms: C_3  and  C_9
    5  A    between atoms: C_4  and  C_30
    6  A    between atoms: C_4  and  C_31
    7  A    between atoms: C_5  and  O_14
    8  A    between atoms: C_5  and  C_43
    9  A    between atoms: C_5  and  C_49
   10  A    between atoms: C_9  and  O_23
   11  A    between atoms: C_9  and  C_28
   12  A    between atoms: N_12  and  C_31
   13  A    between atoms: C_16  and  C_19
   14  A    between atoms: N_17  and  C_38
   15  A    between atoms: N_18  and  C_42
   16  A    between atoms: N_21  and  C_28
   17  A    between atoms: N_21  and  C_52
   18  A    between atoms: C_26  and  C_30
                            x       y       z     vdW  Elec       q    Type
                         _______ _______ _______ _____ _____    ______ ____

>  <TORSDO>
F 18

$$$$
