=
 OpenBabel11062421243D

 31 32  0  0  1  0  0  0  0  0999 V2000
  190.3630  176.7590  144.0340 C   0  0  0  0  0  0  0  0  0  0  0  0
  191.3440  177.0500  143.3700 O   0  0  0  0  0  0  0  0  0  0  0  0
  190.0840  177.4930  145.3140 C   0  0  0  0  0  2  0  0  0  0  0  0
  190.0400  176.5430  146.5070 C   0  0  0  0  0  2  0  0  0  0  0  0
  191.3380  176.5320  147.2520 C   0  0  0  0  0  0  0  0  0  0  0  0
  191.3830  177.0430  148.4040 O   0  0  0  0  0  0  0  0  0  0  0  0
  194.8580  174.7370  145.6370 C   0  0  0  0  0  0  0  0  0  0  0  0
  193.5890  172.5640  145.2520 C   0  0  0  0  0  1  0  0  0  0  0  0
  193.6660  173.9830  145.7070 C   0  0  0  0  0  0  0  0  0  0  0  0
  193.7440  176.6170  146.5810 C   0  0  0  0  0  3  0  0  0  0  0  0
  192.5170  174.5790  146.2250 C   0  0  0  0  0  3  0  0  0  0  0  0
  192.5420  175.9050  146.6720 C   0  0  0  0  0  0  0  0  0  0  0  0
  194.8570  176.0260  146.0730 N   0  0  0  0  0  0  0  0  0  0  0  0
  196.1440  174.1760  145.1030 C   0  0  2  0  0  3  0  0  0  0  0  0
  197.0150  173.6280  146.2180 C   0  0  0  0  0  1  0  0  0  0  0  0
  196.8420  175.1410  144.3730 O   0  0  0  0  0  1  0  0  0  0  0  0
  189.4910  175.6210  143.5860 C   0  0  1  0  0  3  0  0  0  0  0  0
  188.7820  175.9420  141.9430 S   0  0  0  0  0  0  0  0  0  0  0  0
  187.5120  177.0310  142.5910 C   0  0  0  0  0  0  0  0  0  0  0  0
  187.5160  178.2140  142.2880 O   0  0  0  0  0  0  0  0  0  0  0  0
  186.4390  176.4870  143.4790 C   0  0  0  0  0  2  0  0  0  0  0  0
  186.0340  177.4890  148.2350 O   0  0  0  0  0  0  0  0  0  0  0  0
  184.4110  179.1110  145.3860 C   0  0  0  0  0  2  0  0  0  0  0  0
  186.2260  176.8100  145.9550 C   0  0  0  0  0  2  0  0  0  0  0  0
  185.6780  177.6820  147.0440 C   0  0  0  0  0  0  0  0  0  0  0  0
  184.6780  178.6650  146.7510 N   0  0  0  0  0  2  0  0  0  0  0  0
  186.0910  177.4740  144.5830 C   0  0  2  0  0  3  0  0  0  0  0  0
  184.6710  177.9890  144.3880 C   0  0  0  0  0  2  0  0  0  0  0  0
  190.2410  174.2980  143.5850 C   0  0  0  0  0  2  0  0  0  0  0  0
  189.3340  173.2380  143.5950 O   0  0  0  0  0  0  0  0  0  0  0  0
  189.8400  172.3540  144.5480 C   0  0  0  0  0  1  0  0  0  0  0  0
  1  3  1  0  0  0  0
  2  1  2  0  0  0  0
  3  4  1  0  0  0  0
  4  5  1  0  0  0  0
  5  6  2  0  0  0  0
  7  9  2  0  0  0  0
  7 13  1  0  0  0  0
  8  9  1  0  0  0  0
  9 11  1  0  0  0  0
 10 12  1  0  0  0  0
 11 12  2  0  0  0  0
 12  5  1  0  0  0  0
 13 10  2  0  0  0  0
 14  7  1  0  0  0  0
 14 15  1  1  0  0  0
 16 14  1  0  0  0  0
 17 29  1  6  0  0  0
 17  1  1  0  0  0  0
 18 19  1  0  0  0  0
 18 17  1  0  0  0  0
 19 21  1  0  0  0  0
 20 19  2  0  0  0  0
 23 26  1  0  0  0  0
 24 25  1  0  0  0  0
 25 22  2  0  0  0  0
 26 25  1  0  0  0  0
 27 21  1  6  0  0  0
 27 24  1  0  0  0  0
 28 27  1  0  0  0  0
 28 23  1  0  0  0  0
 29 30  1  0  0  0  0
 30 31  1  0  0  0  0
M  END
>  <MODEL>
1

>  <REMARK>
 VINA RESULT:      -6.5      0.000      0.000
  Name = 
  12 active torsions:
  status: ('A' for Active; 'I' for Inactive)
    1  A    between atoms: C_2  and  C_14
    2  A    between atoms: C_2  and  C_24
    3  A    between atoms: O_3  and  C_6
    4  A    between atoms: C_4  and  C_9
    5  A    between atoms: S_5  and  C_23
    6  A    between atoms: S_5  and  C_30
    7  A    between atoms: C_6  and  C_30
    8  A    between atoms: C_7  and  C_23
    9  A    between atoms: C_7  and  C_28
   10  A    between atoms: C_14  and  C_20
   11  A    between atoms: C_19  and  C_20
   12  A    between atoms: C_19  and  C_30
                            x       y       z     vdW  Elec       q    Type
                         _______ _______ _______ _____ _____    ______ ____

>  <TORSDO>
F 12

$$$$
=
 OpenBabel11062421243D

 31 32  0  0  1  0  0  0  0  0999 V2000
  193.2060  176.0790  146.6810 C   0  0  0  0  0  0  0  0  0  0  0  0
  193.8390  177.0270  147.1170 O   0  0  0  0  0  0  0  0  0  0  0  0
  192.0760  175.5040  147.4860 C   0  0  0  0  0  2  0  0  0  0  0  0
  190.8860  176.4570  147.5400 C   0  0  0  0  0  2  0  0  0  0  0  0
  189.6270  175.7950  147.0730 C   0  0  0  0  0  0  0  0  0  0  0  0
  189.4300  174.5850  147.3660 O   0  0  0  0  0  0  0  0  0  0  0  0
  186.7100  177.9350  144.8090 C   0  0  0  0  0  0  0  0  0  0  0  0
  184.8840  177.1670  146.4080 C   0  0  0  0  0  1  0  0  0  0  0  0
  186.3060  177.2210  145.9580 C   0  0  0  0  0  0  0  0  0  0  0  0
  188.9670  177.2720  145.1680 C   0  0  0  0  0  3  0  0  0  0  0  0
  187.2660  176.5330  146.6990 C   0  0  0  0  0  3  0  0  0  0  0  0
  188.6100  176.5480  146.3120 C   0  0  0  0  0  0  0  0  0  0  0  0
  188.0240  177.9390  144.4540 N   0  0  0  0  0  0  0  0  0  0  0  0
  185.7460  178.6970  143.9450 C   0  0  2  0  0  3  0  0  0  0  0  0
  186.0990  178.5670  142.4750 C   0  0  0  0  0  1  0  0  0  0  0  0
  185.7020  180.0420  144.3160 O   0  0  0  0  0  1  0  0  0  0  0  0
  193.6180  175.4660  145.3730 C   0  0  1  0  0  3  0  0  0  0  0  0
  192.3380  175.7010  144.1030 S   0  0  0  0  0  0  0  0  0  0  0  0
  191.7330  174.0190  144.2570 C   0  0  0  0  0  0  0  0  0  0  0  0
  192.5040  173.1250  144.5690 O   0  0  0  0  0  0  0  0  0  0  0  0
  190.2860  173.7170  144.0280 C   0  0  0  0  0  2  0  0  0  0  0  0
  187.7650  175.9430  140.4960 O   0  0  0  0  0  0  0  0  0  0  0  0
  189.2460  172.5990  140.5200 C   0  0  0  0  0  2  0  0  0  0  0  0
  188.8700  174.9270  142.3510 C   0  0  0  0  0  2  0  0  0  0  0  0
  188.3380  174.9190  140.9500 C   0  0  0  0  0  0  0  0  0  0  0  0
  188.3870  173.7240  140.1620 N   0  0  0  0  0  2  0  0  0  0  0  0
  189.9290  173.8410  142.5540 C   0  0  2  0  0  3  0  0  0  0  0  0
  189.4170  172.5050  142.0320 C   0  0  0  0  0  2  0  0  0  0  0  0
  194.9490  176.0160  144.8850 C   0  0  0  0  0  2  0  0  0  0  0  0
  195.9640  175.0920  145.1350 O   0  0  0  0  0  0  0  0  0  0  0  0
  196.7930  175.1710  144.0150 C   0  0  0  0  0  1  0  0  0  0  0  0
  1  2  2  0  0  0  0
  1  3  1  0  0  0  0
  3  4  1  0  0  0  0
  5  6  2  0  0  0  0
  5  4  1  0  0  0  0
  7  9  1  0  0  0  0
  9  8  1  0  0  0  0
  9 11  2  0  0  0  0
 10 12  2  0  0  0  0
 12 11  1  0  0  0  0
 12  5  1  0  0  0  0
 13  7  2  0  0  0  0
 13 10  1  0  0  0  0
 14 15  1  6  0  0  0
 14 16  1  0  0  0  0
 14  7  1  0  0  0  0
 17 29  1  6  0  0  0
 17  1  1  0  0  0  0
 18 19  1  0  0  0  0
 18 17  1  0  0  0  0
 19 20  2  0  0  0  0
 21 19  1  0  0  0  0
 22 25  2  0  0  0  0
 23 28  1  0  0  0  0
 24 27  1  0  0  0  0
 25 24  1  0  0  0  0
 26 23  1  0  0  0  0
 26 25  1  0  0  0  0
 27 21  1  1  0  0  0
 28 27  1  0  0  0  0
 29 30  1  0  0  0  0
 31 30  1  0  0  0  0
M  END
>  <MODEL>
2

>  <REMARK>
 VINA RESULT:      -6.3      2.687      7.065
  Name = 
  12 active torsions:
  status: ('A' for Active; 'I' for Inactive)
    1  A    between atoms: C_2  and  C_14
    2  A    between atoms: C_2  and  C_24
    3  A    between atoms: O_3  and  C_6
    4  A    between atoms: C_4  and  C_9
    5  A    between atoms: S_5  and  C_23
    6  A    between atoms: S_5  and  C_30
    7  A    between atoms: C_6  and  C_30
    8  A    between atoms: C_7  and  C_23
    9  A    between atoms: C_7  and  C_28
   10  A    between atoms: C_14  and  C_20
   11  A    between atoms: C_19  and  C_20
   12  A    between atoms: C_19  and  C_30
                            x       y       z     vdW  Elec       q    Type
                         _______ _______ _______ _____ _____    ______ ____

>  <TORSDO>
F 12

$$$$
=
 OpenBabel11062421243D

 31 32  0  0  1  0  0  0  0  0999 V2000
  193.1370  175.9750  146.6020 C   0  0  0  0  0  0  0  0  0  0  0  0
  193.7010  176.9260  147.1180 O   0  0  0  0  0  0  0  0  0  0  0  0
  191.8570  175.4570  147.1930 C   0  0  0  0  0  2  0  0  0  0  0  0
  190.7260  176.4710  147.0510 C   0  0  0  0  0  2  0  0  0  0  0  0
  189.3880  175.8010  146.9950 C   0  0  0  0  0  0  0  0  0  0  0  0
  189.2540  174.6650  147.5250 O   0  0  0  0  0  0  0  0  0  0  0  0
  186.0750  177.7920  145.1860 C   0  0  0  0  0  0  0  0  0  0  0  0
  186.4380  176.4750  143.0380 C   0  0  0  0  0  1  0  0  0  0  0  0
  186.7870  176.8230  144.4470 C   0  0  0  0  0  0  0  0  0  0  0  0
  187.4950  177.4310  147.0620 C   0  0  0  0  0  3  0  0  0  0  0  0
  187.8620  176.1680  145.0480 C   0  0  0  0  0  3  0  0  0  0  0  0
  188.2310  176.4660  146.3640 C   0  0  0  0  0  0  0  0  0  0  0  0
  186.4500  178.0620  146.4660 N   0  0  0  0  0  0  0  0  0  0  0  0
  184.9110  178.5540  144.6190 C   0  0  2  0  0  3  0  0  0  0  0  0
  185.3390  179.9150  144.1020 C   0  0  0  0  0  1  0  0  0  0  0  0
  183.8980  178.6920  145.5690 O   0  0  0  0  0  1  0  0  0  0  0  0
  193.7760  175.3000  145.4220 C   0  0  1  0  0  3  0  0  0  0  0  0
  193.9260  176.4410  144.0130 S   0  0  0  0  0  0  0  0  0  0  0  0
  192.7120  175.5540  143.0350 C   0  0  0  0  0  0  0  0  0  0  0  0
  193.0540  175.0000  142.0020 O   0  0  0  0  0  0  0  0  0  0  0  0
  191.2920  175.4710  143.4970 C   0  0  0  0  0  2  0  0  0  0  0  0
  187.9840  173.0680  140.8380 O   0  0  0  0  0  0  0  0  0  0  0  0
  189.7090  172.0100  143.8860 C   0  0  0  0  0  2  0  0  0  0  0  0
  189.4950  174.4040  142.1150 C   0  0  0  0  0  2  0  0  0  0  0  0
  188.7120  173.1510  141.8610 C   0  0  0  0  0  0  0  0  0  0  0  0
  188.7090  172.0900  142.8240 N   0  0  0  0  0  2  0  0  0  0  0  0
  190.6570  174.1530  143.0780 C   0  0  2  0  0  3  0  0  0  0  0  0
  190.1660  173.4020  144.3080 C   0  0  0  0  0  2  0  0  0  0  0  0
  195.1360  174.7150  145.7710 C   0  0  0  0  0  2  0  0  0  0  0  0
  196.0870  175.1390  144.8430 O   0  0  0  0  0  0  0  0  0  0  0  0
  196.7880  173.9800  144.5070 C   0  0  0  0  0  1  0  0  0  0  0  0
  1  2  2  0  0  0  0
  1  3  1  0  0  0  0
  4  3  1  0  0  0  0
  5  4  1  0  0  0  0
  5  6  2  0  0  0  0
  7 13  1  0  0  0  0
  8  9  1  0  0  0  0
  9 11  1  0  0  0  0
  9  7  2  0  0  0  0
 11 12  2  0  0  0  0
 12  5  1  0  0  0  0
 12 10  1  0  0  0  0
 13 10  2  0  0  0  0
 14 15  1  1  0  0  0
 14  7  1  0  0  0  0
 14 16  1  0  0  0  0
 17 29  1  1  0  0  0
 17  1  1  0  0  0  0
 18 17  1  0  0  0  0
 19 21  1  0  0  0  0
 19 18  1  0  0  0  0
 20 19  2  0  0  0  0
 22 25  2  0  0  0  0
 23 28  1  0  0  0  0
 24 27  1  0  0  0  0
 25 24  1  0  0  0  0
 25 26  1  0  0  0  0
 26 23  1  0  0  0  0
 27 21  1  1  0  0  0
 27 28  1  0  0  0  0
 30 29  1  0  0  0  0
 31 30  1  0  0  0  0
M  END
>  <MODEL>
3

>  <REMARK>
 VINA RESULT:      -6.2      2.540      7.249
  Name = 
  12 active torsions:
  status: ('A' for Active; 'I' for Inactive)
    1  A    between atoms: C_2  and  C_14
    2  A    between atoms: C_2  and  C_24
    3  A    between atoms: O_3  and  C_6
    4  A    between atoms: C_4  and  C_9
    5  A    between atoms: S_5  and  C_23
    6  A    between atoms: S_5  and  C_30
    7  A    between atoms: C_6  and  C_30
    8  A    between atoms: C_7  and  C_23
    9  A    between atoms: C_7  and  C_28
   10  A    between atoms: C_14  and  C_20
   11  A    between atoms: C_19  and  C_20
   12  A    between atoms: C_19  and  C_30
                            x       y       z     vdW  Elec       q    Type
                         _______ _______ _______ _____ _____    ______ ____

>  <TORSDO>
F 12

$$$$
=
 OpenBabel11062421243D

 31 32  0  0  1  0  0  0  0  0999 V2000
  189.4060  174.6340  144.9520 C   0  0  0  0  0  0  0  0  0  0  0  0
  189.7180  173.4820  145.2060 O   0  0  0  0  0  0  0  0  0  0  0  0
  189.3870  175.6600  146.0480 C   0  0  0  0  0  2  0  0  0  0  0  0
  190.1680  175.1880  147.2700 C   0  0  0  0  0  2  0  0  0  0  0  0
  191.4540  175.9390  147.4270 C   0  0  0  0  0  0  0  0  0  0  0  0
  191.4870  176.9350  148.1990 O   0  0  0  0  0  0  0  0  0  0  0  0
  195.0300  174.7100  145.4480 C   0  0  0  0  0  0  0  0  0  0  0  0
  194.0200  172.4130  145.0170 C   0  0  0  0  0  1  0  0  0  0  0  0
  193.9530  173.8040  145.5550 C   0  0  0  0  0  0  0  0  0  0  0  0
  193.7680  176.3740  146.5890 C   0  0  0  0  0  3  0  0  0  0  0  0
  192.7830  174.2160  146.1940 C   0  0  0  0  0  3  0  0  0  0  0  0
  192.6770  175.5070  146.7220 C   0  0  0  0  0  0  0  0  0  0  0  0
  194.9020  175.9620  145.9640 N   0  0  0  0  0  0  0  0  0  0  0  0
  196.3300  174.3520  144.7860 C   0  0  2  0  0  3  0  0  0  0  0  0
  197.3240  173.7890  145.7860 C   0  0  0  0  0  1  0  0  0  0  0  0
  196.8750  175.4580  144.1310 O   0  0  0  0  0  1  0  0  0  0  0  0
  188.9810  174.9830  143.5540 C   0  0  1  0  0  3  0  0  0  0  0  0
  189.7920  176.5060  142.9810 S   0  0  0  0  0  0  0  0  0  0  0  0
  188.2360  177.3120  142.6010 C   0  0  0  0  0  0  0  0  0  0  0  0
  188.2310  178.3430  141.9450 O   0  0  0  0  0  0  0  0  0  0  0  0
  186.9460  176.7110  143.0620 C   0  0  0  0  0  2  0  0  0  0  0  0
  185.1540  177.9850  147.4160 O   0  0  0  0  0  0  0  0  0  0  0  0
  184.0750  179.0250  144.0780 C   0  0  0  0  0  2  0  0  0  0  0  0
  186.0450  177.1790  145.3530 C   0  0  0  0  0  2  0  0  0  0  0  0
  185.0920  178.0090  146.1590 C   0  0  0  0  0  0  0  0  0  0  0  0
  184.0500  178.7500  145.5130 N   0  0  0  0  0  2  0  0  0  0  0  0
  186.1600  177.6940  143.9170 C   0  0  2  0  0  3  0  0  0  0  0  0
  184.7740  177.9010  143.3220 C   0  0  0  0  0  2  0  0  0  0  0  0
  189.2500  173.8470  142.5800 C   0  0  0  0  0  2  0  0  0  0  0  0
  190.1350  174.2710  141.5890 O   0  0  0  0  0  0  0  0  0  0  0  0
  191.0130  173.2000  141.4220 C   0  0  0  0  0  1  0  0  0  0  0  0
  1  2  2  0  0  0  0
  1  3  1  0  0  0  0
  3  4  1  0  0  0  0
  4  5  1  0  0  0  0
  5  6  2  0  0  0  0
  7  9  2  0  0  0  0
  7 13  1  0  0  0  0
  8  9  1  0  0  0  0
  9 11  1  0  0  0  0
 10 12  1  0  0  0  0
 11 12  2  0  0  0  0
 12  5  1  0  0  0  0
 13 10  2  0  0  0  0
 14  7  1  0  0  0  0
 14 15  1  1  0  0  0
 16 14  1  0  0  0  0
 17 29  1  6  0  0  0
 17  1  1  0  0  0  0
 18 17  1  0  0  0  0
 19 18  1  0  0  0  0
 19 21  1  0  0  0  0
 20 19  2  0  0  0  0
 23 26  1  0  0  0  0
 24 25  1  0  0  0  0
 25 22  2  0  0  0  0
 26 25  1  0  0  0  0
 27 21  1  6  0  0  0
 27 24  1  0  0  0  0
 28 27  1  0  0  0  0
 28 23  1  0  0  0  0
 30 29  1  0  0  0  0
 31 30  1  0  0  0  0
M  END
>  <MODEL>
4

>  <REMARK>
 VINA RESULT:      -6.1      1.265      1.474
  Name = 
  12 active torsions:
  status: ('A' for Active; 'I' for Inactive)
    1  A    between atoms: C_2  and  C_14
    2  A    between atoms: C_2  and  C_24
    3  A    between atoms: O_3  and  C_6
    4  A    between atoms: C_4  and  C_9
    5  A    between atoms: S_5  and  C_23
    6  A    between atoms: S_5  and  C_30
    7  A    between atoms: C_6  and  C_30
    8  A    between atoms: C_7  and  C_23
    9  A    between atoms: C_7  and  C_28
   10  A    between atoms: C_14  and  C_20
   11  A    between atoms: C_19  and  C_20
   12  A    between atoms: C_19  and  C_30
                            x       y       z     vdW  Elec       q    Type
                         _______ _______ _______ _____ _____    ______ ____

>  <TORSDO>
F 12

$$$$
=
 OpenBabel11062421243D

 31 32  0  0  1  0  0  0  0  0999 V2000
  193.0370  176.1720  146.5000 C   0  0  0  0  0  0  0  0  0  0  0  0
  193.6250  176.9140  147.2690 O   0  0  0  0  0  0  0  0  0  0  0  0
  191.8980  175.3310  147.0000 C   0  0  0  0  0  2  0  0  0  0  0  0
  190.7180  176.1920  147.4420 C   0  0  0  0  0  2  0  0  0  0  0  0
  189.4130  175.6110  146.9960 C   0  0  0  0  0  0  0  0  0  0  0  0
  189.1500  174.4120  147.2840 O   0  0  0  0  0  0  0  0  0  0  0  0
  186.5850  177.9410  144.8060 C   0  0  0  0  0  0  0  0  0  0  0  0
  184.7610  177.3130  146.4670 C   0  0  0  0  0  1  0  0  0  0  0  0
  186.1690  177.2640  145.9730 C   0  0  0  0  0  0  0  0  0  0  0  0
  188.8010  177.1200  145.1010 C   0  0  0  0  0  3  0  0  0  0  0  0
  187.1000  176.5130  146.6890 C   0  0  0  0  0  3  0  0  0  0  0  0
  188.4290  176.4300  146.2610 C   0  0  0  0  0  0  0  0  0  0  0  0
  187.8850  177.8490  144.4110 N   0  0  0  0  0  0  0  0  0  0  0  0
  185.6520  178.7650  143.9670 C   0  0  2  0  0  3  0  0  0  0  0  0
  186.0080  178.6770  142.4940 C   0  0  0  0  0  1  0  0  0  0  0  0
  185.6490  180.0960  144.3860 O   0  0  0  0  0  1  0  0  0  0  0  0
  193.5130  176.0690  145.0790 C   0  0  1  0  0  3  0  0  0  0  0  0
  192.2860  176.7520  143.9230 S   0  0  0  0  0  0  0  0  0  0  0  0
  192.5930  175.4870  142.6900 C   0  0  0  0  0  0  0  0  0  0  0  0
  193.3750  175.7070  141.7770 O   0  0  0  0  0  0  0  0  0  0  0  0
  191.9160  174.1570  142.7930 C   0  0  0  0  0  2  0  0  0  0  0  0
  187.3390  172.6970  141.9530 O   0  0  0  0  0  0  0  0  0  0  0  0
  189.9720  173.5410  139.5570 C   0  0  0  0  0  2  0  0  0  0  0  0
  189.5870  173.2790  142.5060 C   0  0  0  0  0  2  0  0  0  0  0  0
  188.4860  172.9960  141.5290 C   0  0  0  0  0  0  0  0  0  0  0  0
  188.7540  172.9650  140.1230 N   0  0  0  0  0  2  0  0  0  0  0  0
  190.7180  174.0800  141.8590 C   0  0  2  0  0  3  0  0  0  0  0  0
  191.1310  173.4360  140.5420 C   0  0  0  0  0  2  0  0  0  0  0  0
  194.8570  176.7510  144.8810 C   0  0  0  0  0  2  0  0  0  0  0  0
  195.7520  175.8680  144.2750 O   0  0  0  0  0  0  0  0  0  0  0  0
  196.4430  176.6510  143.3500 C   0  0  0  0  0  1  0  0  0  0  0  0
  1  3  1  0  0  0  0
  1  2  2  0  0  0  0
  3  4  1  0  0  0  0
  5  6  2  0  0  0  0
  5  4  1  0  0  0  0
  7  9  1  0  0  0  0
  9  8  1  0  0  0  0
  9 11  2  0  0  0  0
 10 12  2  0  0  0  0
 12 11  1  0  0  0  0
 12  5  1  0  0  0  0
 13  7  2  0  0  0  0
 13 10  1  0  0  0  0
 14 15  1  6  0  0  0
 14 16  1  0  0  0  0
 14  7  1  0  0  0  0
 17 29  1  1  0  0  0
 17  1  1  0  0  0  0
 18 17  1  0  0  0  0
 19 21  1  0  0  0  0
 19 18  1  0  0  0  0
 20 19  2  0  0  0  0
 23 26  1  0  0  0  0
 23 28  1  0  0  0  0
 25 22  2  0  0  0  0
 25 24  1  0  0  0  0
 26 25  1  0  0  0  0
 27 24  1  0  0  0  0
 27 21  1  1  0  0  0
 28 27  1  0  0  0  0
 30 29  1  0  0  0  0
 31 30  1  0  0  0  0
M  END
>  <MODEL>
5

>  <REMARK>
 VINA RESULT:      -6.0      2.846      7.264
  Name = 
  12 active torsions:
  status: ('A' for Active; 'I' for Inactive)
    1  A    between atoms: C_2  and  C_14
    2  A    between atoms: C_2  and  C_24
    3  A    between atoms: O_3  and  C_6
    4  A    between atoms: C_4  and  C_9
    5  A    between atoms: S_5  and  C_23
    6  A    between atoms: S_5  and  C_30
    7  A    between atoms: C_6  and  C_30
    8  A    between atoms: C_7  and  C_23
    9  A    between atoms: C_7  and  C_28
   10  A    between atoms: C_14  and  C_20
   11  A    between atoms: C_19  and  C_20
   12  A    between atoms: C_19  and  C_30
                            x       y       z     vdW  Elec       q    Type
                         _______ _______ _______ _____ _____    ______ ____

>  <TORSDO>
F 12

$$$$
=
 OpenBabel11062421243D

 31 32  0  0  1  0  0  0  0  0999 V2000
  193.2320  175.8160  146.5240 C   0  0  0  0  0  0  0  0  0  0  0  0
  193.6700  176.9090  146.8410 O   0  0  0  0  0  0  0  0  0  0  0  0
  192.0710  175.2310  147.2760 C   0  0  0  0  0  2  0  0  0  0  0  0
  190.9320  176.2360  147.4160 C   0  0  0  0  0  2  0  0  0  0  0  0
  189.6380  175.6770  146.9100 C   0  0  0  0  0  0  0  0  0  0  0  0
  189.2460  174.5600  147.3440 O   0  0  0  0  0  0  0  0  0  0  0  0
  187.2330  177.9080  144.1790 C   0  0  0  0  0  0  0  0  0  0  0  0
  189.1330  177.9080  142.4850 C   0  0  0  0  0  1  0  0  0  0  0  0
  188.5420  177.5350  143.8030 C   0  0  0  0  0  0  0  0  0  0  0  0
  187.5060  176.8180  146.2770 C   0  0  0  0  0  3  0  0  0  0  0  0
  189.3180  176.7970  144.6960 C   0  0  0  0  0  3  0  0  0  0  0  0
  188.8100  176.4300  145.9470 C   0  0  0  0  0  0  0  0  0  0  0  0
  186.7590  177.5360  145.3990 N   0  0  0  0  0  0  0  0  0  0  0  0
  186.3290  178.7090  143.2870 C   0  0  2  0  0  3  0  0  0  0  0  0
  185.5350  179.7320  144.0790 C   0  0  0  0  0  1  0  0  0  0  0  0
  185.4670  177.8740  142.5730 O   0  0  0  0  0  1  0  0  0  0  0  0
  193.9110  175.0490  145.4250 C   0  0  1  0  0  3  0  0  0  0  0  0
  192.8290  174.8820  143.9730 S   0  0  0  0  0  0  0  0  0  0  0  0
  192.4720  173.1570  144.3120 C   0  0  0  0  0  0  0  0  0  0  0  0
  193.2810  172.4800  144.9280 O   0  0  0  0  0  0  0  0  0  0  0  0
  191.1770  172.5560  143.8640 C   0  0  0  0  0  2  0  0  0  0  0  0
  187.1750  174.8600  142.2930 O   0  0  0  0  0  0  0  0  0  0  0  0
  190.1210  173.7960  140.4030 C   0  0  0  0  0  2  0  0  0  0  0  0
  189.0170  173.6210  143.1710 C   0  0  0  0  0  2  0  0  0  0  0  0
  188.2730  174.2930  142.0570 C   0  0  0  0  0  0  0  0  0  0  0  0
  188.7530  174.2070  140.7100 N   0  0  0  0  0  2  0  0  0  0  0  0
  190.4960  173.4370  142.8270 C   0  0  2  0  0  3  0  0  0  0  0  0
  190.6390  172.8120  141.4460 C   0  0  0  0  0  2  0  0  0  0  0  0
  195.2330  175.6840  145.0240 C   0  0  0  0  0  2  0  0  0  0  0  0
  195.5200  175.3820  143.6930 O   0  0  0  0  0  0  0  0  0  0  0  0
  196.7290  176.0320  143.4400 C   0  0  0  0  0  1  0  0  0  0  0  0
  1  2  2  0  0  0  0
  1  3  1  0  0  0  0
  3  4  1  0  0  0  0
  5  6  2  0  0  0  0
  5  4  1  0  0  0  0
  7 13  1  0  0  0  0
  8  9  1  0  0  0  0
  9  7  2  0  0  0  0
  9 11  1  0  0  0  0
 11 12  2  0  0  0  0
 12 10  1  0  0  0  0
 12  5  1  0  0  0  0
 13 10  2  0  0  0  0
 14 15  1  1  0  0  0
 14  7  1  0  0  0  0
 16 14  1  0  0  0  0
 17 29  1  6  0  0  0
 17  1  1  0  0  0  0
 18 19  1  0  0  0  0
 18 17  1  0  0  0  0
 19 20  2  0  0  0  0
 21 19  1  0  0  0  0
 23 26  1  0  0  0  0
 23 28  1  0  0  0  0
 25 22  2  0  0  0  0
 25 24  1  0  0  0  0
 26 25  1  0  0  0  0
 27 24  1  0  0  0  0
 27 21  1  1  0  0  0
 28 27  1  0  0  0  0
 30 29  1  0  0  0  0
 31 30  1  0  0  0  0
M  END
>  <MODEL>
6

>  <REMARK>
 VINA RESULT:      -6.0      2.628      7.000
  Name = 
  12 active torsions:
  status: ('A' for Active; 'I' for Inactive)
    1  A    between atoms: C_2  and  C_14
    2  A    between atoms: C_2  and  C_24
    3  A    between atoms: O_3  and  C_6
    4  A    between atoms: C_4  and  C_9
    5  A    between atoms: S_5  and  C_23
    6  A    between atoms: S_5  and  C_30
    7  A    between atoms: C_6  and  C_30
    8  A    between atoms: C_7  and  C_23
    9  A    between atoms: C_7  and  C_28
   10  A    between atoms: C_14  and  C_20
   11  A    between atoms: C_19  and  C_20
   12  A    between atoms: C_19  and  C_30
                            x       y       z     vdW  Elec       q    Type
                         _______ _______ _______ _____ _____    ______ ____

>  <TORSDO>
F 12

$$$$
=
 OpenBabel11062421243D

 31 32  0  0  1  0  0  0  0  0999 V2000
  192.1240  175.8880  145.4360 C   0  0  0  0  0  0  0  0  0  0  0  0
  192.3560  176.9910  144.9690 O   0  0  0  0  0  0  0  0  0  0  0  0
  191.9590  175.7270  146.9200 C   0  0  0  0  0  2  0  0  0  0  0  0
  190.7420  176.4910  147.4340 C   0  0  0  0  0  2  0  0  0  0  0  0
  189.4620  175.8530  146.9910 C   0  0  0  0  0  0  0  0  0  0  0  0
  189.2430  174.6510  147.2990 O   0  0  0  0  0  0  0  0  0  0  0  0
  186.5610  178.0320  144.7430 C   0  0  0  0  0  0  0  0  0  0  0  0
  184.7890  177.5040  146.4930 C   0  0  0  0  0  1  0  0  0  0  0  0
  186.1820  177.4280  145.9610 C   0  0  0  0  0  0  0  0  0  0  0  0
  188.7880  177.2380  145.0240 C   0  0  0  0  0  3  0  0  0  0  0  0
  187.1370  176.7270  146.6960 C   0  0  0  0  0  3  0  0  0  0  0  0
  188.4540  176.6210  146.2350 C   0  0  0  0  0  0  0  0  0  0  0  0
  187.8490  177.9200  144.3170 N   0  0  0  0  0  0  0  0  0  0  0  0
  185.5990  178.7980  143.8810 C   0  0  2  0  0  3  0  0  0  0  0  0
  185.9390  178.6530  142.4090 C   0  0  0  0  0  1  0  0  0  0  0  0
  185.5740  180.1460  144.2420 O   0  0  0  0  0  1  0  0  0  0  0  0
  192.0740  174.7020  144.5160 C   0  0  1  0  0  3  0  0  0  0  0  0
  191.4730  175.1750  142.8660 S   0  0  0  0  0  0  0  0  0  0  0  0
  189.8680  174.4150  143.1220 C   0  0  0  0  0  0  0  0  0  0  0  0
  189.6810  173.7110  144.1030 O   0  0  0  0  0  0  0  0  0  0  0  0
  188.7560  174.6620  142.1520 C   0  0  0  0  0  2  0  0  0  0  0  0
  187.9730  174.6340  137.3380 O   0  0  0  0  0  0  0  0  0  0  0  0
  189.5190  172.0720  139.4430 C   0  0  0  0  0  2  0  0  0  0  0  0
  188.1790  174.7260  139.7150 C   0  0  0  0  0  2  0  0  0  0  0  0
  188.3480  174.0500  138.3880 C   0  0  0  0  0  0  0  0  0  0  0  0
  188.8380  172.7060  138.3160 N   0  0  0  0  0  2  0  0  0  0  0  0
  189.1040  174.1220  140.7730 C   0  0  2  0  0  3  0  0  0  0  0  0
  188.9860  172.6040  140.7680 C   0  0  0  0  0  2  0  0  0  0  0  0
  193.4260  174.0140  144.4050 C   0  0  0  0  0  2  0  0  0  0  0  0
  193.3100  172.6780  144.7870 O   0  0  0  0  0  0  0  0  0  0  0  0
  194.4940  172.4070  145.4740 C   0  0  0  0  0  1  0  0  0  0  0  0
  1  3  1  0  0  0  0
  2  1  2  0  0  0  0
  3  4  1  0  0  0  0
  5  6  2  0  0  0  0
  5  4  1  0  0  0  0
  7  9  1  0  0  0  0
  9  8  1  0  0  0  0
  9 11  2  0  0  0  0
 10 12  2  0  0  0  0
 12 11  1  0  0  0  0
 12  5  1  0  0  0  0
 13  7  2  0  0  0  0
 13 10  1  0  0  0  0
 14 15  1  6  0  0  0
 14 16  1  0  0  0  0
 14  7  1  0  0  0  0
 17 29  1  6  0  0  0
 17  1  1  0  0  0  0
 18 19  1  0  0  0  0
 18 17  1  0  0  0  0
 19 20  2  0  0  0  0
 21 19  1  0  0  0  0
 22 25  2  0  0  0  0
 23 28  1  0  0  0  0
 24 27  1  0  0  0  0
 25 24  1  0  0  0  0
 26 25  1  0  0  0  0
 26 23  1  0  0  0  0
 27 21  1  1  0  0  0
 28 27  1  0  0  0  0
 29 30  1  0  0  0  0
 30 31  1  0  0  0  0
M  END
>  <MODEL>
7

>  <REMARK>
 VINA RESULT:      -6.0      3.254      7.169
  Name = 
  12 active torsions:
  status: ('A' for Active; 'I' for Inactive)
    1  A    between atoms: C_2  and  C_14
    2  A    between atoms: C_2  and  C_24
    3  A    between atoms: O_3  and  C_6
    4  A    between atoms: C_4  and  C_9
    5  A    between atoms: S_5  and  C_23
    6  A    between atoms: S_5  and  C_30
    7  A    between atoms: C_6  and  C_30
    8  A    between atoms: C_7  and  C_23
    9  A    between atoms: C_7  and  C_28
   10  A    between atoms: C_14  and  C_20
   11  A    between atoms: C_19  and  C_20
   12  A    between atoms: C_19  and  C_30
                            x       y       z     vdW  Elec       q    Type
                         _______ _______ _______ _____ _____    ______ ____

>  <TORSDO>
F 12

$$$$
=
 OpenBabel11062421243D

 31 32  0  0  1  0  0  0  0  0999 V2000
  188.2370  173.6450  141.9500 C   0  0  0  0  0  0  0  0  0  0  0  0
  187.3880  172.7690  141.9750 O   0  0  0  0  0  0  0  0  0  0  0  0
  187.8260  175.0840  142.0620 C   0  0  0  0  0  2  0  0  0  0  0  0
  189.0360  176.0020  142.2110 C   0  0  0  0  0  2  0  0  0  0  0  0
  188.6260  177.4220  142.4490 C   0  0  0  0  0  0  0  0  0  0  0  0
  188.9950  178.3080  141.6310 O   0  0  0  0  0  0  0  0  0  0  0  0
  186.2210  178.5090  145.8040 C   0  0  0  0  0  0  0  0  0  0  0  0
  184.4280  179.4180  144.2420 C   0  0  0  0  0  1  0  0  0  0  0  0
  185.7440  178.7610  144.4990 C   0  0  0  0  0  0  0  0  0  0  0  0
  188.2070  177.5480  144.9090 C   0  0  0  0  0  3  0  0  0  0  0  0
  186.5300  178.3940  143.4070 C   0  0  0  0  0  3  0  0  0  0  0  0
  187.7740  177.7840  143.5990 C   0  0  0  0  0  0  0  0  0  0  0  0
  187.4320  177.9090  145.9650 N   0  0  0  0  0  0  0  0  0  0  0  0
  185.4490  178.8770  147.0380 C   0  0  2  0  0  3  0  0  0  0  0  0
  186.3290  179.5850  148.0510 C   0  0  0  0  0  1  0  0  0  0  0  0
  184.8600  177.7480  147.6110 O   0  0  0  0  0  1  0  0  0  0  0  0
  189.6740  173.2610  141.7390 C   0  0  1  0  0  3  0  0  0  0  0  0
  190.0260  171.6200  142.4390 S   0  0  0  0  0  0  0  0  0  0  0  0
  191.2090  172.2670  143.6230 C   0  0  0  0  0  0  0  0  0  0  0  0
  191.8730  171.4960  144.2990 O   0  0  0  0  0  0  0  0  0  0  0  0
  191.3990  173.7440  143.7640 C   0  0  0  0  0  2  0  0  0  0  0  0
  188.5510  174.6650  147.6150 O   0  0  0  0  0  0  0  0  0  0  0  0
  191.9330  175.8660  146.9020 C   0  0  0  0  0  2  0  0  0  0  0  0
  189.7870  174.2340  145.6180 C   0  0  0  0  0  2  0  0  0  0  0  0
  189.6100  174.8680  146.9650 C   0  0  0  0  0  0  0  0  0  0  0  0
  190.5900  175.7820  147.4710 N   0  0  0  0  0  2  0  0  0  0  0  0
  191.2620  174.1770  145.2160 C   0  0  2  0  0  3  0  0  0  0  0  0
  191.9130  175.5390  145.4130 C   0  0  0  0  0  2  0  0  0  0  0  0
  190.0610  173.3000  140.2700 C   0  0  0  0  0  2  0  0  0  0  0  0
  190.3920  172.0170  139.8320 O   0  0  0  0  0  0  0  0  0  0  0  0
  189.3990  171.6970  138.9050 C   0  0  0  0  0  1  0  0  0  0  0  0
  1  2  2  0  0  0  0
  1  3  1  0  0  0  0
  3  4  1  0  0  0  0
  4  5  1  0  0  0  0
  5 12  1  0  0  0  0
  6  5  2  0  0  0  0
  7 13  1  0  0  0  0
  7 14  1  0  0  0  0
  8  9  1  0  0  0  0
  9  7  2  0  0  0  0
 10 13  2  0  0  0  0
 11 12  2  0  0  0  0
 11  9  1  0  0  0  0
 12 10  1  0  0  0  0
 14 16  1  0  0  0  0
 14 15  1  1  0  0  0
 17 29  1  6  0  0  0
 17  1  1  0  0  0  0
 17 18  1  0  0  0  0
 18 19  1  0  0  0  0
 19 21  1  0  0  0  0
 19 20  2  0  0  0  0
 23 26  1  0  0  0  0
 24 25  1  0  0  0  0
 25 26  1  0  0  0  0
 25 22  2  0  0  0  0
 27 21  1  6  0  0  0
 27 28  1  0  0  0  0
 27 24  1  0  0  0  0
 28 23  1  0  0  0  0
 30 29  1  0  0  0  0
 31 30  1  0  0  0  0
M  END
>  <MODEL>
8

>  <REMARK>
 VINA RESULT:      -5.9      2.764      7.242
  Name = 
  12 active torsions:
  status: ('A' for Active; 'I' for Inactive)
    1  A    between atoms: C_2  and  C_14
    2  A    between atoms: C_2  and  C_24
    3  A    between atoms: O_3  and  C_6
    4  A    between atoms: C_4  and  C_9
    5  A    between atoms: S_5  and  C_23
    6  A    between atoms: S_5  and  C_30
    7  A    between atoms: C_6  and  C_30
    8  A    between atoms: C_7  and  C_23
    9  A    between atoms: C_7  and  C_28
   10  A    between atoms: C_14  and  C_20
   11  A    between atoms: C_19  and  C_20
   12  A    between atoms: C_19  and  C_30
                            x       y       z     vdW  Elec       q    Type
                         _______ _______ _______ _____ _____    ______ ____

>  <TORSDO>
F 12

$$$$
=
 OpenBabel11062421243D

 31 32  0  0  1  0  0  0  0  0999 V2000
  187.4820  176.7510  146.4670 C   0  0  0  0  0  0  0  0  0  0  0  0
  186.5270  176.5800  147.2070 O   0  0  0  0  0  0  0  0  0  0  0  0
  188.8040  176.1220  146.7990 C   0  0  0  0  0  2  0  0  0  0  0  0
  189.9180  177.1620  146.8650 C   0  0  0  0  0  2  0  0  0  0  0  0
  191.2000  176.5680  147.3590 C   0  0  0  0  0  0  0  0  0  0  0  0
  191.4080  176.5150  148.6020 O   0  0  0  0  0  0  0  0  0  0  0  0
  194.1310  175.0220  144.6680 C   0  0  0  0  0  0  0  0  0  0  0  0
  193.5580  172.6480  145.3860 C   0  0  0  0  0  1  0  0  0  0  0  0
  193.3670  174.1270  145.4490 C   0  0  0  0  0  0  0  0  0  0  0  0
  192.9710  176.8690  145.6220 C   0  0  0  0  0  3  0  0  0  0  0  0
  192.4040  174.6380  146.3180 C   0  0  0  0  0  3  0  0  0  0  0  0
  192.1950  176.0180  146.4180 C   0  0  0  0  0  0  0  0  0  0  0  0
  193.9060  176.3600  144.7780 N   0  0  0  0  0  0  0  0  0  0  0  0
  195.1950  174.5640  143.7130 C   0  0  2  0  0  3  0  0  0  0  0  0
  196.5760  174.6670  144.3320 C   0  0  0  0  0  1  0  0  0  0  0  0
  195.1410  175.2920  142.5230 O   0  0  0  0  0  1  0  0  0  0  0  0
  187.3260  177.6470  145.2710 C   0  0  1  0  0  3  0  0  0  0  0  0
  186.9290  176.6880  143.7780 S   0  0  0  0  0  0  0  0  0  0  0  0
  188.3780  177.2710  142.8960 C   0  0  0  0  0  0  0  0  0  0  0  0
  188.2470  178.0460  141.9610 O   0  0  0  0  0  0  0  0  0  0  0  0
  189.7430  176.8290  143.3190 C   0  0  0  0  0  2  0  0  0  0  0  0
  189.8770  171.9930  143.9380 O   0  0  0  0  0  0  0  0  0  0  0  0
  191.7680  174.0760  141.6000 C   0  0  0  0  0  2  0  0  0  0  0  0
  189.8050  174.3770  143.8290 C   0  0  0  0  0  2  0  0  0  0  0  0
  190.3220  173.0380  143.3960 C   0  0  0  0  0  0  0  0  0  0  0  0
  191.3870  172.9460  142.4430 N   0  0  0  0  0  2  0  0  0  0  0  0
  190.0650  175.4480  142.7680 C   0  0  2  0  0  3  0  0  0  0  0  0
  191.5190  175.3980  142.3190 C   0  0  0  0  0  2  0  0  0  0  0  0
  186.2750  178.7210  145.5010 C   0  0  0  0  0  2  0  0  0  0  0  0
  185.9530  179.3370  144.2910 O   0  0  0  0  0  0  0  0  0  0  0  0
  184.5590  179.3830  144.2820 C   0  0  0  0  0  1  0  0  0  0  0  0
  1  3  1  0  0  0  0
  1  2  2  0  0  0  0
  3  4  1  0  0  0  0
  4  5  1  0  0  0  0
  5  6  2  0  0  0  0
  7 13  2  0  0  0  0
  7  9  1  0  0  0  0
  8  9  1  0  0  0  0
  9 11  2  0  0  0  0
 10 12  2  0  0  0  0
 11 12  1  0  0  0  0
 12  5  1  0  0  0  0
 13 10  1  0  0  0  0
 14 15  1  1  0  0  0
 14  7  1  0  0  0  0
 16 14  1  0  0  0  0
 17 29  1  1  0  0  0
 17  1  1  0  0  0  0
 18 17  1  0  0  0  0
 19 21  1  0  0  0  0
 19 18  1  0  0  0  0
 20 19  2  0  0  0  0
 23 28  1  0  0  0  0
 23 26  1  0  0  0  0
 25 24  1  0  0  0  0
 25 22  2  0  0  0  0
 26 25  1  0  0  0  0
 27 21  1  1  0  0  0
 27 24  1  0  0  0  0
 28 27  1  0  0  0  0
 30 29  1  0  0  0  0
 31 30  1  0  0  0  0
M  END
>  <MODEL>
9

>  <REMARK>
 VINA RESULT:      -5.9      2.284      4.720
  Name = 
  12 active torsions:
  status: ('A' for Active; 'I' for Inactive)
    1  A    between atoms: C_2  and  C_14
    2  A    between atoms: C_2  and  C_24
    3  A    between atoms: O_3  and  C_6
    4  A    between atoms: C_4  and  C_9
    5  A    between atoms: S_5  and  C_23
    6  A    between atoms: S_5  and  C_30
    7  A    between atoms: C_6  and  C_30
    8  A    between atoms: C_7  and  C_23
    9  A    between atoms: C_7  and  C_28
   10  A    between atoms: C_14  and  C_20
   11  A    between atoms: C_19  and  C_20
   12  A    between atoms: C_19  and  C_30
                            x       y       z     vdW  Elec       q    Type
                         _______ _______ _______ _____ _____    ______ ____

>  <TORSDO>
F 12

$$$$
