=
 OpenBabel11062421223D

 51 58  0  0  1  0  0  0  0  0999 V2000
  192.2020  172.4290  143.2030 C   0  0  2  0  0  3  0  0  0  0  0  0
  190.1910  172.1920  137.0820 C   0  0  0  0  0  2  0  0  0  0  0  0
  192.9860  172.3260  139.4480 C   0  0  1  0  0  3  0  0  0  0  0  0
  188.5020  173.4020  138.4140 N   0  0  0  0  0  0  0  0  0  0  0  0
  188.1210  174.7240  138.9060 C   0  0  0  0  0  1  0  0  0  0  0  0
  193.3690  170.6980  142.0100 O   0  0  0  0  0  1  0  0  0  0  0  0
  191.2140  173.6110  143.0780 C   0  0  1  0  0  3  0  0  0  0  0  0
  189.8390  173.1490  142.6830 C   0  0  0  0  0  0  0  0  0  0  0  0
  192.4910  171.7730  141.8510 C   0  0  2  0  0  3  0  0  0  0  0  0
  189.0470  172.6890  143.5490 O   0  0  0  0  0  0  0  0  0  0  0  0
  193.1130  172.7850  140.8990 C   0  0  0  0  0  2  0  0  0  0  0  0
  189.8670  173.4500  137.8640 C   0  0  1  0  0  3  0  0  0  0  0  0
  191.5720  172.2470  139.0390 N   0  0  2  0  0  0  0  0  0  0  0  0
  191.4500  171.6370  137.7200 C   0  0  0  0  0  2  0  0  0  0  0  0
  188.2970  172.3130  139.4000 C   0  0  0  0  0  2  0  0  0  0  0  0
  190.9510  173.5630  138.9230 C   0  0  0  0  0  2  0  0  0  0  0  0
  191.7540  171.4040  144.2400 C   0  0  0  0  0  1  0  0  0  0  0  0
  188.2190  172.7360  140.8720 C   0  0  0  0  0  2  0  0  0  0  0  0
  189.4930  173.1540  141.3340 O   0  0  0  0  0  0  0  0  0  0  0  0
  195.5870  174.6100  136.8730 C   0  0  0  0  0  0  0  0  0  0  0  0
  193.8670  173.1460  138.5350 C   0  0  0  0  0  0  0  0  0  0  0  0
  195.6040  173.2130  136.8410 C   0  0  0  0  0  3  0  0  0  0  0  0
  196.4580  175.3540  136.0320 N   0  0  0  0  0  1  0  0  0  0  0  0
  194.7170  175.2770  137.7410 C   0  0  0  0  0  3  0  0  0  0  0  0
  193.8620  174.5490  138.5720 C   0  0  0  0  0  3  0  0  0  0  0  0
  194.7500  172.4830  137.6730 C   0  0  0  0  0  3  0  0  0  0  0  0
  191.2110  174.5230  144.3220 C   0  0  1  0  0  3  0  0  0  0  0  0
  193.5530  176.5320  146.3550 O   0  0  0  0  0  0  0  0  0  0  0  0
  192.1760  174.8980  147.2710 O   0  0  0  0  0  0  0  0  0  0  0  0
  192.6340  174.6850  144.9040 C   0  0  1  0  0  3  0  0  0  0  0  0
  193.4220  176.7080  143.9870 C   0  0  2  0  0  3  0  0  0  0  0  0
  193.7830  175.2370  144.0420 C   0  0  2  0  0  3  0  0  0  0  0  0
  193.6950  175.9270  142.8420 O   0  0  0  0  0  0  0  0  0  0  0  0
  194.2660  177.0460  145.2050 C   0  0  0  0  0  2  0  0  0  0  0  0
  192.7460  175.3700  146.2510 C   0  0  0  0  0  0  0  0  0  0  0  0
  190.5340  175.8720  144.0550 C   0  0  0  0  0  2  0  0  0  0  0  0
  186.7230  177.4960  146.0300 C   0  0  0  0  0  0  0  0  0  0  0  0
  187.9880  177.6880  143.1130 C   0  0  0  0  0  2  0  0  0  0  0  0
  186.8100  176.9630  144.6270 C   0  0  1  0  0  3  0  0  0  0  0  0
  189.0300  175.3070  146.0520 C   0  0  0  0  0  3  0  0  0  0  0  0
  186.5930  177.9940  143.5580 C   0  0  2  0  0  3  0  0  0  0  0  0
  189.2310  176.0100  144.7720 C   0  0  0  0  0  0  0  0  0  0  0  0
  185.9440  178.6200  146.2870 O   0  0  0  0  0  1  0  0  0  0  0  0
  187.2970  176.8690  147.0700 C   0  0  0  0  0  3  0  0  0  0  0  0
  188.2460  176.7250  144.2500 C   0  0  0  0  0  0  0  0  0  0  0  0
  188.1900  175.6800  147.0340 C   0  0  0  0  0  3  0  0  0  0  0  0
  184.2470  178.1430  142.7100 C   0  0  0  0  0  2  0  0  0  0  0  0
  185.5910  177.4830  142.5250 C   0  0  1  0  0  3  0  0  0  0  0  0
  184.8710  178.1940  140.4100 C   0  0  0  0  0  2  0  0  0  0  0  0
  186.0500  177.7860  141.1730 N   0  0  0  0  0  2  0  0  0  0  0  0
  183.6680  178.1660  141.3260 C   0  0  0  0  0  2  0  0  0  0  0  0
  1 17  1  1  0  0  0
  2 14  1  0  0  0  0
  3 21  1  6  0  0  0
  3 11  1  0  0  0  0
  4  5  1  0  0  0  0
  4 15  1  0  0  0  0
  7  1  1  0  0  0  0
  7 27  1  1  0  0  0
  8  7  1  0  0  0  0
  8 10  2  0  0  0  0
  9  6  1  1  0  0  0
  9  1  1  0  0  0  0
 11  9  1  0  0  0  0
 12  2  1  1  0  0  0
 12  4  1  0  0  0  0
 12 16  1  0  0  0  0
 13 14  1  6  0  0  0
 13  3  1  0  0  0  0
 15 18  1  0  0  0  0
 16 13  1  0  0  0  0
 18 19  1  0  0  0  0
 19  8  1  0  0  0  0
 20 24  1  0  0  0  0
 21 25  1  0  0  0  0
 22 20  2  0  0  0  0
 22 26  1  0  0  0  0
 23 20  1  0  0  0  0
 24 25  2  0  0  0  0
 26 21  2  0  0  0  0
 27 36  1  6  0  0  0
 30 27  1  6  0  0  0
 30 35  1  0  0  0  0
 31 32  1  0  0  0  0
 31 34  1  1  0  0  0
 32 33  1  6  0  0  0
 32 30  1  0  0  0  0
 33 31  1  0  0  0  0
 34 28  1  0  0  0  0
 35 28  1  0  0  0  0
 35 29  2  0  0  0  0
 36 42  1  0  0  0  0
 37 43  1  0  0  0  0
 37 44  2  0  0  0  0
 38 45  1  0  0  0  0
 39 45  1  6  0  0  0
 39 37  1  0  0  0  0
 40 46  2  0  0  0  0
 41 38  1  6  0  0  0
 41 39  1  0  0  0  0
 42 40  1  0  0  0  0
 45 42  2  0  0  0  0
 46 44  1  0  0  0  0
 48 47  1  1  0  0  0
 48 41  1  0  0  0  0
 49 50  1  0  0  0  0
 49 51  1  0  0  0  0
 50 48  1  0  0  0  0
 51 47  1  0  0  0  0
M  END
>  <MODEL>
1

>  <REMARK>
 VINA RESULT:      -9.1      0.000      0.000
  Name = 
  6 active torsions:
  status: ('A' for Active; 'I' for Inactive)
    1  A    between atoms: C_6  and  C_16
    2  A    between atoms: C_7  and  C_17
    3  A    between atoms: C_7  and  C_18
    4  A    between atoms: C_7  and  C_21
    5  A    between atoms: C_21  and  C_33
    6  A    between atoms: C_24  and  C_32
                            x       y       z     vdW  Elec       q    Type
                         _______ _______ _______ _____ _____    ______ ____

>  <TORSDO>
F 6

$$$$
=
 OpenBabel11062421223D

 51 58  0  0  1  0  0  0  0  0999 V2000
  192.0080  176.2340  142.7030 C   0  0  2  0  0  3  0  0  0  0  0  0
  196.9390  172.0980  143.0680 C   0  0  0  0  0  2  0  0  0  0  0  0
  194.6240  174.0190  140.9770 C   0  0  1  0  0  3  0  0  0  0  0  0
  195.4920  171.7650  145.0390 N   0  0  0  0  0  0  0  0  0  0  0  0
  194.3250  171.0350  145.5290 C   0  0  0  0  0  1  0  0  0  0  0  0
  193.8040  176.9510  141.2740 O   0  0  0  0  0  1  0  0  0  0  0  0
  191.4910  175.1020  143.6200 C   0  0  1  0  0  3  0  0  0  0  0  0
  192.3450  174.9480  144.8480 C   0  0  0  0  0  0  0  0  0  0  0  0
  193.3640  175.8970  142.0770 C   0  0  2  0  0  3  0  0  0  0  0  0
  192.1810  175.7110  145.8390 O   0  0  0  0  0  0  0  0  0  0  0  0
  193.2500  174.6390  141.2270 C   0  0  0  0  0  2  0  0  0  0  0  0
  195.5960  171.6130  143.5780 C   0  0  1  0  0  3  0  0  0  0  0  0
  195.2370  173.5650  142.2380 N   0  0  2  0  0  0  0  0  0  0  0  0
  196.6160  173.1430  142.0180 C   0  0  0  0  0  2  0  0  0  0  0  0
  195.5530  173.1750  145.4950 C   0  0  0  0  0  2  0  0  0  0  0  0
  194.5560  172.4050  142.8030 C   0  0  0  0  0  2  0  0  0  0  0  0
  192.0350  177.5870  143.4060 C   0  0  0  0  0  1  0  0  0  0  0  0
  194.2270  173.8000  145.9480 C   0  0  0  0  0  2  0  0  0  0  0  0
  193.3750  174.0120  144.8350 O   0  0  0  0  0  0  0  0  0  0  0  0
  194.4840  171.1100  137.7940 C   0  0  0  0  0  0  0  0  0  0  0  0
  194.5630  172.9750  139.8870 C   0  0  0  0  0  0  0  0  0  0  0  0
  195.6300  171.8830  138.0000 C   0  0  0  0  0  3  0  0  0  0  0  0
  194.4420  170.1650  136.7340 N   0  0  0  0  0  1  0  0  0  0  0  0
  193.3730  171.2740  138.6270 C   0  0  0  0  0  3  0  0  0  0  0  0
  193.4100  172.2050  139.6690 C   0  0  0  0  0  3  0  0  0  0  0  0
  195.6680  172.8160  139.0410 C   0  0  0  0  0  3  0  0  0  0  0  0
  189.9880  175.2300  143.9400 C   0  0  1  0  0  3  0  0  0  0  0  0
  190.0830  171.8620  142.4210 O   0  0  0  0  0  0  0  0  0  0  0  0
  190.3580  172.2210  144.7020 O   0  0  0  0  0  0  0  0  0  0  0  0
  189.2090  173.9730  143.4900 C   0  0  1  0  0  3  0  0  0  0  0  0
  189.6060  173.8290  141.1710 C   0  0  2  0  0  3  0  0  0  0  0  0
  188.4540  173.9490  142.1490 C   0  0  2  0  0  3  0  0  0  0  0  0
  188.5970  174.8120  141.0730 O   0  0  0  0  0  0  0  0  0  0  0  0
  189.5430  172.3100  141.1550 C   0  0  0  0  0  2  0  0  0  0  0  0
  189.9340  172.6470  143.5930 C   0  0  0  0  0  0  0  0  0  0  0  0
  189.7320  175.5780  145.4110 C   0  0  0  0  0  2  0  0  0  0  0  0
  186.1600  178.4520  145.6200 C   0  0  0  0  0  0  0  0  0  0  0  0
  188.0830  177.4380  143.2910 C   0  0  0  0  0  2  0  0  0  0  0  0
  186.4270  177.4840  144.5000 C   0  0  1  0  0  3  0  0  0  0  0  0
  187.7020  175.9930  146.9190 C   0  0  0  0  0  3  0  0  0  0  0  0
  186.7610  178.1320  143.1890 C   0  0  2  0  0  3  0  0  0  0  0  0
  188.3860  176.1880  145.6280 C   0  0  0  0  0  0  0  0  0  0  0  0
  185.6830  179.7250  145.3230 O   0  0  0  0  0  1  0  0  0  0  0  0
  186.2760  178.1010  146.9110 C   0  0  0  0  0  3  0  0  0  0  0  0
  187.7880  176.8680  144.6610 C   0  0  0  0  0  0  0  0  0  0  0  0
  186.7890  176.8180  147.4620 C   0  0  0  0  0  3  0  0  0  0  0  0
  184.6600  178.2930  141.8450 C   0  0  0  0  0  2  0  0  0  0  0  0
  185.9330  177.5130  142.0660 C   0  0  1  0  0  3  0  0  0  0  0  0
  185.7280  177.8670  139.7560 C   0  0  0  0  0  2  0  0  0  0  0  0
  186.6800  177.5220  140.8120 N   0  0  0  0  0  2  0  0  0  0  0  0
  184.3720  178.1000  140.3850 C   0  0  0  0  0  2  0  0  0  0  0  0
  1 17  1  1  0  0  0
  1  7  1  0  0  0  0
  2 12  1  0  0  0  0
  3 21  1  6  0  0  0
  3 11  1  0  0  0  0
  3 13  1  0  0  0  0
  4 15  1  0  0  0  0
  4  5  1  0  0  0  0
  7 27  1  1  0  0  0
  7  8  1  0  0  0  0
  8 10  2  0  0  0  0
  9  6  1  6  0  0  0
  9  1  1  0  0  0  0
 11  9  1  0  0  0  0
 12 16  1  6  0  0  0
 12  4  1  0  0  0  0
 13 14  1  6  0  0  0
 13 16  1  0  0  0  0
 14  2  1  0  0  0  0
 15 18  1  0  0  0  0
 19  8  1  0  0  0  0
 19 18  1  0  0  0  0
 20 22  2  0  0  0  0
 20 24  1  0  0  0  0
 22 26  1  0  0  0  0
 23 20  1  0  0  0  0
 24 25  2  0  0  0  0
 25 21  1  0  0  0  0
 26 21  2  0  0  0  0
 27 36  1  1  0  0  0
 28 35  1  0  0  0  0
 30 35  1  0  0  0  0
 30 27  1  6  0  0  0
 31 34  1  6  0  0  0
 31 32  1  0  0  0  0
 32 33  1  6  0  0  0
 32 30  1  0  0  0  0
 33 31  1  0  0  0  0
 34 28  1  0  0  0  0
 35 29  2  0  0  0  0
 36 42  1  0  0  0  0
 37 44  2  0  0  0  0
 38 45  1  0  0  0  0
 39 45  1  1  0  0  0
 39 37  1  0  0  0  0
 40 46  2  0  0  0  0
 41 38  1  6  0  0  0
 41 39  1  0  0  0  0
 42 40  1  0  0  0  0
 43 37  1  0  0  0  0
 44 46  1  0  0  0  0
 45 42  2  0  0  0  0
 48 47  1  6  0  0  0
 48 41  1  0  0  0  0
 49 51  1  0  0  0  0
 49 50  1  0  0  0  0
 50 48  1  0  0  0  0
 51 47  1  0  0  0  0
M  END
>  <MODEL>
2

>  <REMARK>
 VINA RESULT:      -8.0      2.198      4.753
  Name = 
  6 active torsions:
  status: ('A' for Active; 'I' for Inactive)
    1  A    between atoms: C_6  and  C_16
    2  A    between atoms: C_7  and  C_17
    3  A    between atoms: C_7  and  C_18
    4  A    between atoms: C_7  and  C_21
    5  A    between atoms: C_21  and  C_33
    6  A    between atoms: C_24  and  C_32
                            x       y       z     vdW  Elec       q    Type
                         _______ _______ _______ _____ _____    ______ ____

>  <TORSDO>
F 6

$$$$
=
 OpenBabel11062421223D

 51 58  0  0  1  0  0  0  0  0999 V2000
  190.6360  172.0500  142.0070 C   0  0  2  0  0  3  0  0  0  0  0  0
  190.8500  170.8580  135.6750 C   0  0  0  0  0  2  0  0  0  0  0  0
  192.1740  170.1860  139.0260 C   0  0  1  0  0  3  0  0  0  0  0  0
  190.1310  173.1950  136.0070 N   0  0  0  0  0  0  0  0  0  0  0  0
  190.6190  174.5620  136.1700 C   0  0  0  0  0  1  0  0  0  0  0  0
  190.6090  169.6800  141.6050 O   0  0  0  0  0  1  0  0  0  0  0  0
  190.7920  173.4450  141.3600 C   0  0  1  0  0  3  0  0  0  0  0  0
  189.6560  173.7560  140.4260 C   0  0  0  0  0  0  0  0  0  0  0  0
  190.7770  170.9190  140.9850 C   0  0  2  0  0  3  0  0  0  0  0  0
  188.5580  174.1820  140.8770 O   0  0  0  0  0  0  0  0  0  0  0  0
  192.1550  170.9670  140.3390 C   0  0  0  0  0  2  0  0  0  0  0  0
  191.2520  172.2480  136.1270 C   0  0  1  0  0  3  0  0  0  0  0  0
  191.2710  170.7980  138.0330 N   0  0  2  0  0  0  0  0  0  0  0  0
  191.1550  169.9500  136.8520 C   0  0  0  0  0  2  0  0  0  0  0  0
  188.9770  172.8610  136.8780 C   0  0  0  0  0  2  0  0  0  0  0  0
  191.7660  172.0830  137.5480 C   0  0  0  0  0  2  0  0  0  0  0  0
  189.3440  171.9220  142.8100 C   0  0  0  0  0  1  0  0  0  0  0  0
  188.7880  173.7420  138.1200 C   0  0  0  0  0  2  0  0  0  0  0  0
  189.8070  173.4790  139.0710 O   0  0  0  0  0  0  0  0  0  0  0  0
  196.2130  169.4410  137.7080 C   0  0  0  0  0  0  0  0  0  0  0  0
  193.5870  169.9570  138.5450 C   0  0  0  0  0  0  0  0  0  0  0  0
  195.2310  168.4540  137.5800 C   0  0  0  0  0  3  0  0  0  0  0  0
  197.5440  169.1800  137.2840 N   0  0  0  0  0  1  0  0  0  0  0  0
  195.8870  170.6820  138.2620 C   0  0  0  0  0  3  0  0  0  0  0  0
  194.5790  170.9400  138.6820 C   0  0  0  0  0  3  0  0  0  0  0  0
  193.9230  168.7110  138.0020 C   0  0  0  0  0  3  0  0  0  0  0  0
  191.0480  174.5590  142.3940 C   0  0  1  0  0  3  0  0  0  0  0  0
  194.6790  174.2560  141.7760 O   0  0  0  0  0  0  0  0  0  0  0  0
  193.1060  174.2350  140.0640 O   0  0  0  0  0  0  0  0  0  0  0  0
  192.3970  175.2690  142.1340 C   0  0  1  0  0  3  0  0  0  0  0  0
  193.7640  174.6200  143.9410 C   0  0  2  0  0  3  0  0  0  0  0  0
  193.2090  175.8740  143.2930 C   0  0  2  0  0  3  0  0  0  0  0  0
  193.0730  175.6260  144.6520 O   0  0  0  0  0  0  0  0  0  0  0  0
  195.0410  174.6610  143.1170 C   0  0  0  0  0  2  0  0  0  0  0  0
  193.3920  174.5410  141.2530 C   0  0  0  0  0  0  0  0  0  0  0  0
  189.8800  175.5470  142.4890 C   0  0  0  0  0  2  0  0  0  0  0  0
  188.2580  176.8480  146.5810 C   0  0  0  0  0  0  0  0  0  0  0  0
  187.6660  177.6940  143.5670 C   0  0  0  0  0  2  0  0  0  0  0  0
  187.4320  176.6830  145.3360 C   0  0  1  0  0  3  0  0  0  0  0  0
  189.6880  174.5890  144.8580 C   0  0  0  0  0  3  0  0  0  0  0  0
  186.8590  177.9610  144.7980 C   0  0  2  0  0  3  0  0  0  0  0  0
  189.2670  175.5790  143.8510 C   0  0  0  0  0  0  0  0  0  0  0  0
  188.0010  177.9160  147.4350 O   0  0  0  0  0  1  0  0  0  0  0  0
  189.1810  175.9450  146.9520 C   0  0  0  0  0  3  0  0  0  0  0  0
  188.3240  176.4610  144.1460 C   0  0  0  0  0  0  0  0  0  0  0  0
  189.6420  174.7520  146.1930 C   0  0  0  0  0  3  0  0  0  0  0  0
  184.6040  179.0370  144.8560 C   0  0  0  0  0  2  0  0  0  0  0  0
  185.3720  177.7900  144.4950 C   0  0  1  0  0  3  0  0  0  0  0  0
  183.9730  178.2910  142.6810 C   0  0  0  0  0  2  0  0  0  0  0  0
  185.1650  177.5380  143.0720 N   0  0  0  0  0  2  0  0  0  0  0  0
  183.4570  179.0410  143.8890 C   0  0  0  0  0  2  0  0  0  0  0  0
  1 17  1  6  0  0  0
  2 14  1  0  0  0  0
  3 21  1  6  0  0  0
  3 11  1  0  0  0  0
  4 12  1  0  0  0  0
  4  5  1  0  0  0  0
  4 15  1  0  0  0  0
  7  1  1  0  0  0  0
  7 27  1  1  0  0  0
  8 10  2  0  0  0  0
  8  7  1  0  0  0  0
  9  6  1  1  0  0  0
  9  1  1  0  0  0  0
 11  9  1  0  0  0  0
 12  2  1  1  0  0  0
 12 16  1  0  0  0  0
 13 14  1  6  0  0  0
 13  3  1  0  0  0  0
 15 18  1  0  0  0  0
 16 13  1  0  0  0  0
 18 19  1  0  0  0  0
 19  8  1  0  0  0  0
 20 24  1  0  0  0  0
 21 25  1  0  0  0  0
 22 20  2  0  0  0  0
 22 26  1  0  0  0  0
 23 20  1  0  0  0  0
 24 25  2  0  0  0  0
 26 21  2  0  0  0  0
 27 36  1  6  0  0  0
 28 34  1  0  0  0  0
 29 35  2  0  0  0  0
 30 27  1  1  0  0  0
 30 32  1  0  0  0  0
 31 34  1  1  0  0  0
 31 33  1  0  0  0  0
 32 31  1  0  0  0  0
 32 33  1  1  0  0  0
 35 28  1  0  0  0  0
 35 30  1  0  0  0  0
 36 42  1  0  0  0  0
 37 44  2  0  0  0  0
 37 43  1  0  0  0  0
 38 45  1  0  0  0  0
 39 45  1  6  0  0  0
 39 37  1  0  0  0  0
 40 46  2  0  0  0  0
 41 38  1  6  0  0  0
 41 39  1  0  0  0  0
 42 45  2  0  0  0  0
 42 40  1  0  0  0  0
 46 44  1  0  0  0  0
 48 41  1  0  0  0  0
 48 47  1  6  0  0  0
 49 50  1  0  0  0  0
 49 51  1  0  0  0  0
 50 48  1  0  0  0  0
 51 47  1  0  0  0  0
M  END
>  <MODEL>
3

>  <REMARK>
 VINA RESULT:      -7.9      2.158      3.022
  Name = 
  6 active torsions:
  status: ('A' for Active; 'I' for Inactive)
    1  A    between atoms: C_6  and  C_16
    2  A    between atoms: C_7  and  C_17
    3  A    between atoms: C_7  and  C_18
    4  A    between atoms: C_7  and  C_21
    5  A    between atoms: C_21  and  C_33
    6  A    between atoms: C_24  and  C_32
                            x       y       z     vdW  Elec       q    Type
                         _______ _______ _______ _____ _____    ______ ____

>  <TORSDO>
F 6

$$$$
=
 OpenBabel11062421223D

 51 58  0  0  1  0  0  0  0  0999 V2000
  190.8600  172.0680  143.0640 C   0  0  2  0  0  3  0  0  0  0  0  0
  192.1250  176.4320  147.6380 C   0  0  0  0  0  2  0  0  0  0  0  0
  189.6340  174.6370  145.6370 C   0  0  1  0  0  3  0  0  0  0  0  0
  193.9900  176.4300  146.0220 N   0  0  0  0  0  0  0  0  0  0  0  0
  194.4600  177.0190  144.7700 C   0  0  0  0  0  1  0  0  0  0  0  0
  189.5170  171.6450  145.0130 O   0  0  0  0  0  1  0  0  0  0  0  0
  191.8560  173.0440  142.3970 C   0  0  1  0  0  3  0  0  0  0  0  0
  193.1620  173.1010  143.1400 C   0  0  0  0  0  0  0  0  0  0  0  0
  190.3960  172.5630  144.4360 C   0  0  2  0  0  3  0  0  0  0  0  0
  194.0390  172.2140  142.9560 O   0  0  0  0  0  0  0  0  0  0  0  0
  189.6910  173.9060  144.2970 C   0  0  0  0  0  2  0  0  0  0  0  0
  192.5710  176.7650  146.2270 C   0  0  1  0  0  3  0  0  0  0  0  0
  190.9880  174.9720  146.1170 N   0  0  2  0  0  0  0  0  0  0  0  0
  190.9360  175.5040  147.4740 C   0  0  0  0  0  2  0  0  0  0  0  0
  194.2820  174.9810  146.1500 C   0  0  0  0  0  2  0  0  0  0  0  0
  191.6230  176.0090  145.3100 C   0  0  0  0  0  2  0  0  0  0  0  0
  191.4010  170.6430  143.1350 C   0  0  0  0  0  1  0  0  0  0  0  0
  194.5450  174.2230  144.8420 C   0  0  0  0  0  2  0  0  0  0  0  0
  193.3450  174.0950  144.0970 O   0  0  0  0  0  0  0  0  0  0  0  0
  186.8090  177.8950  145.5220 C   0  0  0  0  0  0  0  0  0  0  0  0
  188.6720  175.8000  145.5850 C   0  0  0  0  0  0  0  0  0  0  0  0
  186.9300  177.1020  146.6650 C   0  0  0  0  0  3  0  0  0  0  0  0
  185.8650  178.9570  145.4880 N   0  0  0  0  0  1  0  0  0  0  0  0
  187.6100  177.6380  144.4060 C   0  0  0  0  0  3  0  0  0  0  0  0
  188.5380  176.5930  144.4350 C   0  0  0  0  0  3  0  0  0  0  0  0
  187.8570  176.0540  146.6950 C   0  0  0  0  0  3  0  0  0  0  0  0
  192.0290  172.7830  140.8870 C   0  0  1  0  0  3  0  0  0  0  0  0
  190.2030  171.7070  137.8610 O   0  0  0  0  0  0  0  0  0  0  0  0
  191.7470  170.3500  138.9460 O   0  0  0  0  0  0  0  0  0  0  0  0
  190.7720  172.1160  140.2830 C   0  0  1  0  0  3  0  0  0  0  0  0
  189.8030  173.7910  138.9370 C   0  0  2  0  0  3  0  0  0  0  0  0
  189.4600  172.9040  140.1190 C   0  0  2  0  0  3  0  0  0  0  0  0
  189.2800  174.2790  140.1540 O   0  0  0  0  0  0  0  0  0  0  0  0
  189.2520  172.7970  137.9270 C   0  0  0  0  0  2  0  0  0  0  0  0
  190.9650  171.3370  138.9980 C   0  0  0  0  0  0  0  0  0  0  0  0
  192.4430  174.0450  140.1220 C   0  0  0  0  0  2  0  0  0  0  0  0
  196.3500  174.7280  137.8120 C   0  0  0  0  0  0  0  0  0  0  0  0
  195.2420  175.6440  140.6550 C   0  0  0  0  0  2  0  0  0  0  0  0
  196.2520  174.4900  139.2940 C   0  0  1  0  0  3  0  0  0  0  0  0
  193.7770  172.9100  138.2510 C   0  0  0  0  0  3  0  0  0  0  0  0
  196.6450  175.6660  140.1380 C   0  0  2  0  0  3  0  0  0  0  0  0
  193.7230  173.8650  139.3720 C   0  0  0  0  0  0  0  0  0  0  0  0
  197.2580  175.6660  137.3300 O   0  0  0  0  0  1  0  0  0  0  0  0
  195.6570  173.9980  136.9230 C   0  0  0  0  0  3  0  0  0  0  0  0
  194.8140  174.5260  139.7300 C   0  0  0  0  0  0  0  0  0  0  0  0
  194.6180  172.9710  137.2020 C   0  0  0  0  0  3  0  0  0  0  0  0
  197.2480  175.8640  142.5550 C   0  0  0  0  0  2  0  0  0  0  0  0
  197.6130  175.2300  141.2350 C   0  0  1  0  0  3  0  0  0  0  0  0
  197.6430  173.5310  142.8520 C   0  0  0  0  0  2  0  0  0  0  0  0
  197.5680  173.7820  141.4130 N   0  0  0  0  0  2  0  0  0  0  0  0
  197.7070  174.8600  143.5720 C   0  0  0  0  0  2  0  0  0  0  0  0
  1 17  1  1  0  0  0
  1  9  1  0  0  0  0
  3 21  1  6  0  0  0
  3 13  1  0  0  0  0
  4 15  1  0  0  0  0
  4 12  1  0  0  0  0
  5  4  1  0  0  0  0
  7 27  1  6  0  0  0
  7  1  1  0  0  0  0
  7  8  1  0  0  0  0
  8 19  1  0  0  0  0
  9  6  1  6  0  0  0
 10  8  2  0  0  0  0
 11  9  1  0  0  0  0
 11  3  1  0  0  0  0
 12 16  1  6  0  0  0
 12  2  1  0  0  0  0
 13 16  1  6  0  0  0
 13 14  1  0  0  0  0
 14  2  1  0  0  0  0
 18 15  1  0  0  0  0
 19 18  1  0  0  0  0
 20 22  1  0  0  0  0
 21 26  1  0  0  0  0
 22 26  2  0  0  0  0
 23 20  1  0  0  0  0
 24 25  1  0  0  0  0
 24 20  2  0  0  0  0
 25 21  2  0  0  0  0
 27 36  1  6  0  0  0
 28 34  1  0  0  0  0
 28 35  1  0  0  0  0
 29 35  2  0  0  0  0
 30 27  1  6  0  0  0
 31 34  1  6  0  0  0
 31 32  1  0  0  0  0
 31 33  1  0  0  0  0
 32 33  1  1  0  0  0
 32 30  1  0  0  0  0
 35 30  1  0  0  0  0
 39 37  1  6  0  0  0
 39 45  1  0  0  0  0
 39 41  1  0  0  0  0
 40 42  1  0  0  0  0
 41 38  1  1  0  0  0
 41 48  1  0  0  0  0
 42 45  2  0  0  0  0
 42 36  1  0  0  0  0
 43 37  1  0  0  0  0
 44 46  1  0  0  0  0
 44 37  2  0  0  0  0
 45 38  1  0  0  0  0
 46 40  2  0  0  0  0
 47 51  1  0  0  0  0
 48 50  1  0  0  0  0
 48 47  1  1  0  0  0
 49 51  1  0  0  0  0
 50 49  1  0  0  0  0
M  END
>  <MODEL>
4

>  <REMARK>
 VINA RESULT:      -7.9      2.845      9.450
  Name = 
  6 active torsions:
  status: ('A' for Active; 'I' for Inactive)
    1  A    between atoms: C_6  and  C_16
    2  A    between atoms: C_7  and  C_17
    3  A    between atoms: C_7  and  C_18
    4  A    between atoms: C_7  and  C_21
    5  A    between atoms: C_21  and  C_33
    6  A    between atoms: C_24  and  C_32
                            x       y       z     vdW  Elec       q    Type
                         _______ _______ _______ _____ _____    ______ ____

>  <TORSDO>
F 6

$$$$
=
 OpenBabel11062421223D

 51 58  0  0  1  0  0  0  0  0999 V2000
  191.8330  172.1400  143.0230 C   0  0  2  0  0  3  0  0  0  0  0  0
  189.8260  170.4880  137.1240 C   0  0  0  0  0  2  0  0  0  0  0  0
  192.3970  170.2610  139.7250 C   0  0  1  0  0  3  0  0  0  0  0  0
  188.9430  172.7310  137.6500 N   0  0  0  0  0  0  0  0  0  0  0  0
  189.2470  174.1590  137.5810 C   0  0  0  0  0  1  0  0  0  0  0  0
  192.0120  169.7620  142.7190 O   0  0  0  0  0  1  0  0  0  0  0  0
  191.5240  173.4880  142.3330 C   0  0  1  0  0  3  0  0  0  0  0  0
  190.0880  173.5750  141.8990 C   0  0  0  0  0  0  0  0  0  0  0  0
  191.7480  170.9600  142.0520 C   0  0  2  0  0  3  0  0  0  0  0  0
  189.1900  173.8900  142.7270 O   0  0  0  0  0  0  0  0  0  0  0  0
  192.7570  171.1340  140.9260 C   0  0  0  0  0  2  0  0  0  0  0  0
  190.1560  171.9500  137.3540 C   0  0  1  0  0  3  0  0  0  0  0  0
  191.1070  170.6700  139.1400 N   0  0  2  0  0  0  0  0  0  0  0  0
  190.6830  169.7230  138.1150 C   0  0  0  0  0  2  0  0  0  0  0  0
  188.2660  172.3220  138.9050 C   0  0  0  0  0  2  0  0  0  0  0  0
  191.1840  171.9660  138.4720 C   0  0  0  0  0  2  0  0  0  0  0  0
  190.9740  171.9110  144.2630 C   0  0  0  0  0  1  0  0  0  0  0  0
  188.4290  173.2660  140.1030 C   0  0  0  0  0  2  0  0  0  0  0  0
  189.7580  173.2130  140.5960 O   0  0  0  0  0  0  0  0  0  0  0  0
  195.7000  169.9350  136.9700 C   0  0  0  0  0  0  0  0  0  0  0  0
  193.5420  170.1790  138.7450 C   0  0  0  0  0  0  0  0  0  0  0  0
  194.8320  168.8580  137.1680 C   0  0  0  0  0  3  0  0  0  0  0  0
  196.7950  169.8130  136.0710 N   0  0  0  0  0  1  0  0  0  0  0  0
  195.4980  171.1310  137.6650 C   0  0  0  0  0  3  0  0  0  0  0  0
  194.4240  171.2530  138.5510 C   0  0  0  0  0  3  0  0  0  0  0  0
  193.7580  168.9780  138.0560 C   0  0  0  0  0  3  0  0  0  0  0  0
  191.9810  174.7040  143.1620 C   0  0  1  0  0  3  0  0  0  0  0  0
  195.1690  174.3660  141.3250 O   0  0  0  0  0  0  0  0  0  0  0  0
  193.1140  174.5470  140.2540 O   0  0  0  0  0  0  0  0  0  0  0  0
  193.2010  175.4000  142.5160 C   0  0  1  0  0  3  0  0  0  0  0  0
  195.0580  174.5500  143.6940 C   0  0  2  0  0  3  0  0  0  0  0  0
  194.3880  175.8720  143.3750 C   0  0  2  0  0  3  0  0  0  0  0  0
  194.7030  175.5020  144.6750 O   0  0  0  0  0  0  0  0  0  0  0  0
  195.9840  174.6350  142.4900 C   0  0  0  0  0  2  0  0  0  0  0  0
  193.7990  174.7320  141.2950 C   0  0  0  0  0  0  0  0  0  0  0  0
  190.8350  175.6830  143.4430 C   0  0  0  0  0  2  0  0  0  0  0  0
  190.0400  177.4390  147.6080 C   0  0  0  0  0  0  0  0  0  0  0  0
  188.5590  177.5980  144.7920 C   0  0  0  0  0  2  0  0  0  0  0  0
  188.9840  176.9110  146.6770 C   0  0  1  0  0  3  0  0  0  0  0  0
  191.4380  175.1650  145.8790 C   0  0  0  0  0  3  0  0  0  0  0  0
  188.0430  177.9540  146.1510 C   0  0  2  0  0  3  0  0  0  0  0  0
  190.5840  175.8660  144.9040 C   0  0  0  0  0  0  0  0  0  0  0  0
  189.7850  178.5900  148.3470 O   0  0  0  0  0  1  0  0  0  0  0  0
  191.1920  176.7850  147.8270 C   0  0  0  0  0  3  0  0  0  0  0  0
  189.5810  176.6200  145.3280 C   0  0  0  0  0  0  0  0  0  0  0  0
  191.6900  175.5640  147.1390 C   0  0  0  0  0  3  0  0  0  0  0  0
  185.8770  178.2960  147.3500 C   0  0  0  0  0  2  0  0  0  0  0  0
  186.5970  177.4870  146.3000 C   0  0  1  0  0  3  0  0  0  0  0  0
  184.5360  178.1310  145.3860 C   0  0  0  0  0  2  0  0  0  0  0  0
  185.8740  177.6500  145.0420 N   0  0  0  0  0  2  0  0  0  0  0  0
  184.4500  178.2900  146.8870 C   0  0  0  0  0  2  0  0  0  0  0  0
  1 17  1  1  0  0  0
  2 14  1  0  0  0  0
  3 21  1  6  0  0  0
  3 11  1  0  0  0  0
  4 15  1  0  0  0  0
  5  4  1  0  0  0  0
  7  1  1  0  0  0  0
  7 27  1  1  0  0  0
  8  7  1  0  0  0  0
  8 10  2  0  0  0  0
  9  6  1  1  0  0  0
  9  1  1  0  0  0  0
 11  9  1  0  0  0  0
 12  2  1  1  0  0  0
 12  4  1  0  0  0  0
 12 16  1  0  0  0  0
 13 14  1  6  0  0  0
 13  3  1  0  0  0  0
 15 18  1  0  0  0  0
 16 13  1  0  0  0  0
 18 19  1  0  0  0  0
 19  8  1  0  0  0  0
 20 22  2  0  0  0  0
 20 24  1  0  0  0  0
 22 26  1  0  0  0  0
 23 20  1  0  0  0  0
 24 25  2  0  0  0  0
 25 21  1  0  0  0  0
 26 21  2  0  0  0  0
 27 36  1  6  0  0  0
 28 34  1  0  0  0  0
 29 35  2  0  0  0  0
 30 27  1  1  0  0  0
 30 32  1  0  0  0  0
 31 34  1  6  0  0  0
 31 33  1  0  0  0  0
 32 31  1  0  0  0  0
 32 33  1  1  0  0  0
 35 28  1  0  0  0  0
 35 30  1  0  0  0  0
 36 42  1  0  0  0  0
 37 44  2  0  0  0  0
 37 43  1  0  0  0  0
 38 45  1  0  0  0  0
 39 45  1  6  0  0  0
 39 37  1  0  0  0  0
 40 46  2  0  0  0  0
 41 38  1  6  0  0  0
 41 48  1  0  0  0  0
 41 39  1  0  0  0  0
 42 45  2  0  0  0  0
 42 40  1  0  0  0  0
 46 44  1  0  0  0  0
 48 47  1  1  0  0  0
 49 51  1  0  0  0  0
 50 49  1  0  0  0  0
 50 48  1  0  0  0  0
 51 47  1  0  0  0  0
M  END
>  <MODEL>
5

>  <REMARK>
 VINA RESULT:      -7.7      2.245      3.171
  Name = 
  6 active torsions:
  status: ('A' for Active; 'I' for Inactive)
    1  A    between atoms: C_6  and  C_16
    2  A    between atoms: C_7  and  C_17
    3  A    between atoms: C_7  and  C_18
    4  A    between atoms: C_7  and  C_21
    5  A    between atoms: C_21  and  C_33
    6  A    between atoms: C_24  and  C_32
                            x       y       z     vdW  Elec       q    Type
                         _______ _______ _______ _____ _____    ______ ____

>  <TORSDO>
F 6

$$$$
=
 OpenBabel11062421223D

 51 58  0  0  1  0  0  0  0  0999 V2000
  194.1730  172.2590  143.5640 C   0  0  2  0  0  3  0  0  0  0  0  0
  193.3300  170.3410  137.4670 C   0  0  0  0  0  2  0  0  0  0  0  0
  195.4730  171.9510  139.9670 C   0  0  1  0  0  3  0  0  0  0  0  0
  191.1280  170.9270  138.4140 N   0  0  0  0  0  0  0  0  0  0  0  0
  190.1920  172.0300  138.6160 C   0  0  0  0  0  1  0  0  0  0  0  0
  196.0850  171.0100  142.8120 O   0  0  0  0  0  1  0  0  0  0  0  0
  192.8300  172.8990  143.1430 C   0  0  1  0  0  3  0  0  0  0  0  0
  191.8200  171.8610  142.7410 C   0  0  0  0  0  0  0  0  0  0  0  0
  194.8900  171.5930  142.3870 C   0  0  2  0  0  3  0  0  0  0  0  0
  191.1540  171.2460  143.6170 O   0  0  0  0  0  0  0  0  0  0  0  0
  195.1970  172.6250  141.3100 C   0  0  0  0  0  2  0  0  0  0  0  0
  192.4290  171.4530  137.9690 C   0  0  1  0  0  3  0  0  0  0  0  0
  194.2780  171.2390  139.4760 N   0  0  2  0  0  0  0  0  0  0  0  0
  194.5990  170.4510  138.2910 C   0  0  0  0  0  2  0  0  0  0  0  0
  191.2250  170.0030  139.5710 C   0  0  0  0  0  2  0  0  0  0  0  0
  193.2150  172.1520  139.0650 C   0  0  0  0  0  2  0  0  0  0  0  0
  194.0170  171.3010  144.7410 C   0  0  0  0  0  1  0  0  0  0  0  0
  190.7740  170.5640  140.9260 C   0  0  0  0  0  2  0  0  0  0  0  0
  191.7010  171.5300  141.3940 O   0  0  0  0  0  0  0  0  0  0  0  0
  197.3170  174.6920  137.1940 C   0  0  0  0  0  0  0  0  0  0  0  0
  196.0840  172.9200  138.9830 C   0  0  0  0  0  0  0  0  0  0  0  0
  197.7490  173.3660  137.2730 C   0  0  0  0  0  3  0  0  0  0  0  0
  197.9410  175.5920  136.2870 N   0  0  0  0  0  1  0  0  0  0  0  0
  196.2760  175.1380  138.0130 C   0  0  0  0  0  3  0  0  0  0  0  0
  195.6630  174.2560  138.9070 C   0  0  0  0  0  3  0  0  0  0  0  0
  197.1370  172.4830  138.1690 C   0  0  0  0  0  3  0  0  0  0  0  0
  192.2890  173.8970  144.1870 C   0  0  1  0  0  3  0  0  0  0  0  0
  193.3420  176.7510  146.2850 O   0  0  0  0  0  0  0  0  0  0  0  0
  192.6410  174.7240  147.1810 O   0  0  0  0  0  0  0  0  0  0  0  0
  193.4390  174.6470  144.8980 C   0  0  1  0  0  3  0  0  0  0  0  0
  193.4490  176.7870  143.9090 C   0  0  2  0  0  3  0  0  0  0  0  0
  194.3650  175.5970  144.1170 C   0  0  2  0  0  3  0  0  0  0  0  0
  194.1570  176.1540  142.8630 O   0  0  0  0  0  0  0  0  0  0  0  0
  193.9240  177.4780  145.1770 C   0  0  0  0  0  2  0  0  0  0  0  0
  193.0940  175.3580  146.1900 C   0  0  0  0  0  0  0  0  0  0  0  0
  191.2490  174.8540  143.5950 C   0  0  0  0  0  2  0  0  0  0  0  0
  188.1610  176.5480  146.5390 C   0  0  0  0  0  0  0  0  0  0  0  0
  189.3200  177.4880  143.7240 C   0  0  0  0  0  2  0  0  0  0  0  0
  188.0360  176.5810  145.0410 C   0  0  1  0  0  3  0  0  0  0  0  0
  189.7190  173.9920  145.4620 C   0  0  0  0  0  3  0  0  0  0  0  0
  188.0950  177.9550  144.4440 C   0  0  2  0  0  3  0  0  0  0  0  0
  190.0710  175.0470  144.4940 C   0  0  0  0  0  0  0  0  0  0  0  0
  187.7600  177.6530  147.2820 O   0  0  0  0  0  1  0  0  0  0  0  0
  188.5620  175.4490  147.1990 C   0  0  0  0  0  3  0  0  0  0  0  0
  189.3230  176.1360  144.4030 C   0  0  0  0  0  0  0  0  0  0  0  0
  189.0620  174.1730  146.6220 C   0  0  0  0  0  3  0  0  0  0  0  0
  186.0670  176.9290  143.4040 C   0  0  0  0  0  2  0  0  0  0  0  0
  186.9500  178.1520  143.4530 C   0  0  1  0  0  3  0  0  0  0  0  0
  184.7300  178.8950  143.5960 C   0  0  0  0  0  2  0  0  0  0  0  0
  186.1180  179.2840  143.8480 N   0  0  0  0  0  2  0  0  0  0  0  0
  184.7140  177.4810  143.0600 C   0  0  0  0  0  2  0  0  0  0  0  0
  1 17  1  1  0  0  0
  2 14  1  0  0  0  0
  3 21  1  6  0  0  0
  3 11  1  0  0  0  0
  4  5  1  0  0  0  0
  4 15  1  0  0  0  0
  7  1  1  0  0  0  0
  7 27  1  1  0  0  0
  8  7  1  0  0  0  0
  8 10  2  0  0  0  0
  9  6  1  1  0  0  0
  9  1  1  0  0  0  0
 11  9  1  0  0  0  0
 12  2  1  1  0  0  0
 12  4  1  0  0  0  0
 12 16  1  0  0  0  0
 13 14  1  6  0  0  0
 13  3  1  0  0  0  0
 15 18  1  0  0  0  0
 16 13  1  0  0  0  0
 18 19  1  0  0  0  0
 19  8  1  0  0  0  0
 20 22  2  0  0  0  0
 20 24  1  0  0  0  0
 22 26  1  0  0  0  0
 23 20  1  0  0  0  0
 24 25  2  0  0  0  0
 25 21  1  0  0  0  0
 26 21  2  0  0  0  0
 27 36  1  6  0  0  0
 30 27  1  6  0  0  0
 30 35  1  0  0  0  0
 31 32  1  0  0  0  0
 31 34  1  1  0  0  0
 32 33  1  6  0  0  0
 32 30  1  0  0  0  0
 33 31  1  0  0  0  0
 34 28  1  0  0  0  0
 35 28  1  0  0  0  0
 35 29  2  0  0  0  0
 36 42  1  0  0  0  0
 37 44  2  0  0  0  0
 37 43  1  0  0  0  0
 38 45  1  0  0  0  0
 39 45  1  6  0  0  0
 39 37  1  0  0  0  0
 40 46  2  0  0  0  0
 41 38  1  6  0  0  0
 41 39  1  0  0  0  0
 42 40  1  0  0  0  0
 45 42  2  0  0  0  0
 46 44  1  0  0  0  0
 48 47  1  1  0  0  0
 48 50  1  0  0  0  0
 48 41  1  0  0  0  0
 49 50  1  0  0  0  0
 51 47  1  0  0  0  0
 51 49  1  0  0  0  0
M  END
>  <MODEL>
6

>  <REMARK>
 VINA RESULT:      -7.6      1.696      2.226
  Name = 
  6 active torsions:
  status: ('A' for Active; 'I' for Inactive)
    1  A    between atoms: C_6  and  C_16
    2  A    between atoms: C_7  and  C_17
    3  A    between atoms: C_7  and  C_18
    4  A    between atoms: C_7  and  C_21
    5  A    between atoms: C_21  and  C_33
    6  A    between atoms: C_24  and  C_32
                            x       y       z     vdW  Elec       q    Type
                         _______ _______ _______ _____ _____    ______ ____

>  <TORSDO>
F 6

$$$$
=
 OpenBabel11062421223D

 51 58  0  0  1  0  0  0  0  0999 V2000
  192.9750  171.6880  142.6120 C   0  0  2  0  0  3  0  0  0  0  0  0
  192.3610  171.4620  136.1980 C   0  0  0  0  0  2  0  0  0  0  0  0
  194.5440  171.8660  139.1140 C   0  0  1  0  0  3  0  0  0  0  0  0
  190.2730  172.3680  137.1520 N   0  0  0  0  0  0  0  0  0  0  0  0
  189.6120  173.6010  137.5710 C   0  0  0  0  0  1  0  0  0  0  0  0
  194.6030  170.1890  141.6720 O   0  0  0  0  0  1  0  0  0  0  0  0
  191.8770  172.7290  142.2950 C   0  0  1  0  0  3  0  0  0  0  0  0
  190.6980  172.1030  141.6040 C   0  0  0  0  0  0  0  0  0  0  0  0
  193.6350  171.1400  141.3440 C   0  0  2  0  0  3  0  0  0  0  0  0
  189.8150  171.5000  142.2710 O   0  0  0  0  0  0  0  0  0  0  0  0
  194.2930  172.2710  140.5650 C   0  0  0  0  0  2  0  0  0  0  0  0
  191.7030  172.6260  136.9110 C   0  0  1  0  0  3  0  0  0  0  0  0
  193.2740  171.6130  138.4080 N   0  0  2  0  0  0  0  0  0  0  0  0
  193.5230  171.0540  137.0840 C   0  0  0  0  0  2  0  0  0  0  0  0
  190.0220  171.2160  138.0530 C   0  0  0  0  0  2  0  0  0  0  0  0
  192.5100  172.8370  138.1810 C   0  0  0  0  0  2  0  0  0  0  0  0
  192.4690  170.5650  143.5120 C   0  0  0  0  0  1  0  0  0  0  0  0
  189.5750  171.5570  139.4810 C   0  0  0  0  0  2  0  0  0  0  0  0
  190.6490  172.1220  140.2140 O   0  0  0  0  0  0  0  0  0  0  0  0
  197.1100  174.7100  137.1310 C   0  0  0  0  0  0  0  0  0  0  0  0
  195.4710  172.8390  138.4260 C   0  0  0  0  0  0  0  0  0  0  0  0
  196.2450  175.1230  138.1480 C   0  0  0  0  0  3  0  0  0  0  0  0
  197.9410  175.6570  136.4740 N   0  0  0  0  0  1  0  0  0  0  0  0
  197.1520  173.3650  136.7540 C   0  0  0  0  0  3  0  0  0  0  0  0
  196.3330  172.4310  137.3960 C   0  0  0  0  0  3  0  0  0  0  0  0
  195.4240  174.1900  138.7900 C   0  0  0  0  0  3  0  0  0  0  0  0
  191.4810  173.5730  143.5230 C   0  0  1  0  0  3  0  0  0  0  0  0
  194.6710  175.2670  142.7390 O   0  0  0  0  0  0  0  0  0  0  0  0
  192.8370  175.3150  141.3100 O   0  0  0  0  0  0  0  0  0  0  0  0
  192.3500  174.8470  143.6340 C   0  0  1  0  0  3  0  0  0  0  0  0
  194.2760  174.1500  144.8010 C   0  0  2  0  0  3  0  0  0  0  0  0
  193.1450  175.1530  144.9160 C   0  0  2  0  0  3  0  0  0  0  0  0
  193.4650  174.2850  145.9500 O   0  0  0  0  0  0  0  0  0  0  0  0
  195.1860  175.1340  144.0850 C   0  0  0  0  0  2  0  0  0  0  0  0
  193.2830  175.1400  142.4760 C   0  0  0  0  0  0  0  0  0  0  0  0
  189.9820  173.8880  143.5550 C   0  0  0  0  0  2  0  0  0  0  0  0
  189.2620  176.9670  146.8820 C   0  0  0  0  0  0  0  0  0  0  0  0
  188.5430  176.8120  143.7830 C   0  0  0  0  0  2  0  0  0  0  0  0
  188.2750  176.6110  145.8060 C   0  0  1  0  0  3  0  0  0  0  0  0
  189.8410  173.9350  146.1140 C   0  0  0  0  0  3  0  0  0  0  0  0
  187.9890  177.7190  144.8360 C   0  0  2  0  0  3  0  0  0  0  0  0
  189.5680  174.5760  144.8150 C   0  0  0  0  0  0  0  0  0  0  0  0
  189.3950  178.2950  147.2750 O   0  0  0  0  0  1  0  0  0  0  0  0
  189.9600  176.0340  147.5500 C   0  0  0  0  0  3  0  0  0  0  0  0
  188.9270  175.7350  144.7730 C   0  0  0  0  0  0  0  0  0  0  0  0
  190.0020  174.5700  147.2890 C   0  0  0  0  0  3  0  0  0  0  0  0
  185.7810  177.9790  145.9780 C   0  0  0  0  0  2  0  0  0  0  0  0
  186.4820  177.8800  144.6460 C   0  0  1  0  0  3  0  0  0  0  0  0
  185.0050  179.6970  144.5180 C   0  0  0  0  0  2  0  0  0  0  0  0
  186.1880  179.1000  143.9000 N   0  0  0  0  0  2  0  0  0  0  0  0
  184.5830  178.8350  145.6870 C   0  0  0  0  0  2  0  0  0  0  0  0
  1 17  1  6  0  0  0
  2 14  1  0  0  0  0
  3 21  1  6  0  0  0
  3 11  1  0  0  0  0
  4  5  1  0  0  0  0
  4 15  1  0  0  0  0
  7  1  1  0  0  0  0
  7 27  1  1  0  0  0
  8 10  2  0  0  0  0
  8  7  1  0  0  0  0
  9  6  1  1  0  0  0
  9  1  1  0  0  0  0
 11  9  1  0  0  0  0
 12  2  1  1  0  0  0
 12  4  1  0  0  0  0
 12 16  1  0  0  0  0
 13 14  1  6  0  0  0
 13  3  1  0  0  0  0
 15 18  1  0  0  0  0
 16 13  1  0  0  0  0
 18 19  1  0  0  0  0
 19  8  1  0  0  0  0
 20 22  1  0  0  0  0
 21 26  1  0  0  0  0
 22 26  2  0  0  0  0
 23 20  1  0  0  0  0
 24 20  2  0  0  0  0
 24 25  1  0  0  0  0
 25 21  2  0  0  0  0
 27 36  1  6  0  0  0
 28 34  1  0  0  0  0
 29 35  2  0  0  0  0
 30 27  1  1  0  0  0
 30 32  1  0  0  0  0
 31 34  1  1  0  0  0
 31 32  1  0  0  0  0
 31 33  1  0  0  0  0
 32 33  1  1  0  0  0
 35 28  1  0  0  0  0
 35 30  1  0  0  0  0
 36 42  1  0  0  0  0
 37 43  1  0  0  0  0
 37 44  2  0  0  0  0
 38 45  1  0  0  0  0
 39 45  1  6  0  0  0
 39 37  1  0  0  0  0
 40 46  2  0  0  0  0
 41 38  1  6  0  0  0
 41 39  1  0  0  0  0
 42 40  1  0  0  0  0
 45 42  2  0  0  0  0
 46 44  1  0  0  0  0
 48 41  1  0  0  0  0
 48 47  1  1  0  0  0
 49 51  1  0  0  0  0
 50 49  1  0  0  0  0
 50 48  1  0  0  0  0
 51 47  1  0  0  0  0
M  END
>  <MODEL>
7

>  <REMARK>
 VINA RESULT:      -7.5      1.820      2.532
  Name = 
  6 active torsions:
  status: ('A' for Active; 'I' for Inactive)
    1  A    between atoms: C_6  and  C_16
    2  A    between atoms: C_7  and  C_17
    3  A    between atoms: C_7  and  C_18
    4  A    between atoms: C_7  and  C_21
    5  A    between atoms: C_21  and  C_33
    6  A    between atoms: C_24  and  C_32
                            x       y       z     vdW  Elec       q    Type
                         _______ _______ _______ _____ _____    ______ ____

>  <TORSDO>
F 6

$$$$
=
 OpenBabel11062421223D

 51 58  0  0  1  0  0  0  0  0999 V2000
  190.6540  171.9730  142.8740 C   0  0  2  0  0  3  0  0  0  0  0  0
  192.2940  176.2950  147.3680 C   0  0  0  0  0  2  0  0  0  0  0  0
  189.6460  174.5850  145.5000 C   0  0  1  0  0  3  0  0  0  0  0  0
  194.0740  176.2290  145.6610 N   0  0  0  0  0  0  0  0  0  0  0  0
  194.5000  176.8010  144.3850 C   0  0  0  0  0  1  0  0  0  0  0  0
  189.3970  171.5980  144.8890 O   0  0  0  0  0  1  0  0  0  0  0  0
  191.6480  172.9150  142.1560 C   0  0  1  0  0  3  0  0  0  0  0  0
  192.9900  172.9280  142.8320 C   0  0  0  0  0  0  0  0  0  0  0  0
  190.2770  172.4850  144.2670 C   0  0  2  0  0  3  0  0  0  0  0  0
  193.8270  172.0120  142.6060 O   0  0  0  0  0  0  0  0  0  0  0  0
  189.6120  173.8510  144.1600 C   0  0  0  0  0  2  0  0  0  0  0  0
  192.6790  176.6120  145.9360 C   0  0  1  0  0  3  0  0  0  0  0  0
  191.0330  174.8740  145.9100 N   0  0  2  0  0  0  0  0  0  0  0  0
  191.0680  175.4080  147.2660 C   0  0  0  0  0  2  0  0  0  0  0  0
  194.3230  174.7720  145.7780 C   0  0  0  0  0  2  0  0  0  0  0  0
  191.6620  175.8890  145.0700 C   0  0  0  0  0  2  0  0  0  0  0  0
  191.1500  170.5310  142.9220 C   0  0  0  0  0  1  0  0  0  0  0  0
  194.4940  174.0040  144.4600 C   0  0  0  0  0  2  0  0  0  0  0  0
  193.2550  173.9160  143.7760 O   0  0  0  0  0  0  0  0  0  0  0  0
  186.9300  177.9360  145.5160 C   0  0  0  0  0  0  0  0  0  0  0  0
  188.7230  175.7800  145.4930 C   0  0  0  0  0  0  0  0  0  0  0  0
  187.0650  177.1270  146.6470 C   0  0  0  0  0  3  0  0  0  0  0  0
  186.0220  179.0290  145.5260 N   0  0  0  0  0  1  0  0  0  0  0  0
  187.6820  177.6650  144.3700 C   0  0  0  0  0  3  0  0  0  0  0  0
  188.5740  176.5890  144.3560 C   0  0  0  0  0  3  0  0  0  0  0  0
  187.9570  176.0490  146.6340 C   0  0  0  0  0  3  0  0  0  0  0  0
  191.7360  172.6480  140.6400 C   0  0  1  0  0  3  0  0  0  0  0  0
  189.5120  172.0910  137.7420 O   0  0  0  0  0  0  0  0  0  0  0  0
  191.2190  170.6220  138.3170 O   0  0  0  0  0  0  0  0  0  0  0  0
  190.4160  172.0530  140.0960 C   0  0  1  0  0  3  0  0  0  0  0  0
  189.2350  173.9090  139.2510 C   0  0  2  0  0  3  0  0  0  0  0  0
  189.0810  172.7980  140.2710 C   0  0  2  0  0  3  0  0  0  0  0  0
  188.8840  174.1310  140.6010 O   0  0  0  0  0  0  0  0  0  0  0  0
  188.5620  173.1040  138.1500 C   0  0  0  0  0  2  0  0  0  0  0  0
  190.4360  171.5450  138.6690 C   0  0  0  0  0  0  0  0  0  0  0  0
  192.1840  173.8850  139.8550 C   0  0  0  0  0  2  0  0  0  0  0  0
  196.7120  173.2860  140.3070 C   0  0  0  0  0  0  0  0  0  0  0  0
  194.4170  171.8310  138.6440 C   0  0  0  0  0  2  0  0  0  0  0  0
  195.9450  173.1450  139.0210 C   0  0  1  0  0  3  0  0  0  0  0  0
  194.2340  175.2670  140.5290 C   0  0  0  0  0  3  0  0  0  0  0  0
  195.9010  171.7480  138.4750 C   0  0  2  0  0  3  0  0  0  0  0  0
  193.6660  174.0730  139.8790 C   0  0  0  0  0  0  0  0  0  0  0  0
  197.7350  172.3870  140.5940 O   0  0  0  0  0  1  0  0  0  0  0  0
  196.5080  174.3080  141.1530 C   0  0  0  0  0  3  0  0  0  0  0  0
  194.4670  173.1980  139.2900 C   0  0  0  0  0  0  0  0  0  0  0  0
  195.4620  175.3630  141.0700 C   0  0  0  0  0  3  0  0  0  0  0  0
  195.0650  171.3640  136.1520 C   0  0  0  0  0  2  0  0  0  0  0  0
  196.2590  171.7480  136.9910 C   0  0  1  0  0  3  0  0  0  0  0  0
  196.1120  173.3030  135.2420 C   0  0  0  0  0  2  0  0  0  0  0  0
  196.6880  173.0770  136.5670 N   0  0  0  0  0  2  0  0  0  0  0  0
  195.2890  172.0940  134.8600 C   0  0  0  0  0  2  0  0  0  0  0  0
  1 17  1  1  0  0  0
  1  9  1  0  0  0  0
  3 21  1  6  0  0  0
  3 13  1  0  0  0  0
  4 15  1  0  0  0  0
  4 12  1  0  0  0  0
  5  4  1  0  0  0  0
  7 27  1  6  0  0  0
  7  8  1  0  0  0  0
  7  1  1  0  0  0  0
  8 19  1  0  0  0  0
  9  6  1  6  0  0  0
 10  8  2  0  0  0  0
 11  9  1  0  0  0  0
 11  3  1  0  0  0  0
 12 16  1  6  0  0  0
 12  2  1  0  0  0  0
 13 16  1  6  0  0  0
 13 14  1  0  0  0  0
 14  2  1  0  0  0  0
 18 15  1  0  0  0  0
 19 18  1  0  0  0  0
 20 23  1  0  0  0  0
 20 22  1  0  0  0  0
 21 26  1  0  0  0  0
 24 20  2  0  0  0  0
 25 24  1  0  0  0  0
 25 21  2  0  0  0  0
 26 22  2  0  0  0  0
 27 36  1  6  0  0  0
 28 34  1  0  0  0  0
 28 35  1  0  0  0  0
 29 35  2  0  0  0  0
 30 32  1  0  0  0  0
 30 27  1  6  0  0  0
 31 34  1  6  0  0  0
 31 32  1  0  0  0  0
 31 33  1  0  0  0  0
 32 33  1  1  0  0  0
 35 30  1  0  0  0  0
 36 42  1  0  0  0  0
 37 43  1  0  0  0  0
 37 44  2  0  0  0  0
 38 45  1  0  0  0  0
 39 45  1  1  0  0  0
 39 37  1  0  0  0  0
 40 46  2  0  0  0  0
 41 38  1  6  0  0  0
 41 39  1  0  0  0  0
 42 40  1  0  0  0  0
 45 42  2  0  0  0  0
 46 44  1  0  0  0  0
 48 47  1  6  0  0  0
 48 41  1  0  0  0  0
 49 50  1  0  0  0  0
 50 48  1  0  0  0  0
 51 49  1  0  0  0  0
 51 47  1  0  0  0  0
M  END
>  <MODEL>
8

>  <REMARK>
 VINA RESULT:      -7.5      2.676      9.375
  Name = 
  6 active torsions:
  status: ('A' for Active; 'I' for Inactive)
    1  A    between atoms: C_6  and  C_16
    2  A    between atoms: C_7  and  C_17
    3  A    between atoms: C_7  and  C_18
    4  A    between atoms: C_7  and  C_21
    5  A    between atoms: C_21  and  C_33
    6  A    between atoms: C_24  and  C_32
                            x       y       z     vdW  Elec       q    Type
                         _______ _______ _______ _____ _____    ______ ____

>  <TORSDO>
F 6

$$$$
=
 OpenBabel11062421223D

 51 58  0  0  1  0  0  0  0  0999 V2000
  192.1330  176.6240  144.1310 C   0  0  2  0  0  3  0  0  0  0  0  0
  187.0660  176.1860  140.1690 C   0  0  0  0  0  2  0  0  0  0  0  0
  188.6680  177.8430  143.0180 C   0  0  1  0  0  3  0  0  0  0  0  0
  188.0570  173.9400  140.4230 N   0  0  0  0  0  0  0  0  0  0  0  0
  188.0270  172.7290  141.2400 C   0  0  0  0  0  1  0  0  0  0  0  0
  191.5660  178.7930  143.2610 O   0  0  0  0  0  1  0  0  0  0  0  0
  191.7080  175.1410  144.2150 C   0  0  1  0  0  3  0  0  0  0  0  0
  191.7700  174.4660  142.8740 C   0  0  0  0  0  0  0  0  0  0  0  0
  191.1350  177.4670  143.3320 C   0  0  2  0  0  3  0  0  0  0  0  0
  192.8680  174.0380  142.4250 O   0  0  0  0  0  0  0  0  0  0  0  0
  189.7650  177.4240  143.9950 C   0  0  0  0  0  2  0  0  0  0  0  0
  187.3140  175.0160  141.1010 C   0  0  1  0  0  3  0  0  0  0  0  0
  188.5710  176.8930  141.8930 N   0  0  2  0  0  0  0  0  0  0  0  0
  187.6520  177.3930  140.8760 C   0  0  0  0  0  2  0  0  0  0  0  0
  189.4180  174.3400  139.9920 C   0  0  0  0  0  2  0  0  0  0  0  0
  188.0380  175.5970  142.3030 C   0  0  0  0  0  2  0  0  0  0  0  0
  193.5560  176.7930  143.6070 C   0  0  0  0  0  1  0  0  0  0  0  0
  190.5830  173.7880  140.8240 C   0  0  0  0  0  2  0  0  0  0  0  0
  190.6150  174.4060  142.1000 O   0  0  0  0  0  0  0  0  0  0  0  0
  184.9410  178.5080  145.0850 C   0  0  0  0  0  0  0  0  0  0  0  0
  187.3680  178.1130  143.7370 C   0  0  0  0  0  0  0  0  0  0  0  0
  185.9260  177.6910  145.6440 C   0  0  0  0  0  3  0  0  0  0  0  0
  183.7100  178.7100  145.7660 N   0  0  0  0  0  1  0  0  0  0  0  0
  185.1620  179.1210  143.8480 C   0  0  0  0  0  3  0  0  0  0  0  0
  186.3700  178.9230  143.1740 C   0  0  0  0  0  3  0  0  0  0  0  0
  187.1350  177.4900  144.9700 C   0  0  0  0  0  3  0  0  0  0  0  0
  192.4570  174.3650  145.3180 C   0  0  1  0  0  3  0  0  0  0  0  0
  189.8890  176.1060  147.3260 O   0  0  0  0  0  0  0  0  0  0  0  0
  189.5410  174.0080  146.3850 O   0  0  0  0  0  0  0  0  0  0  0  0
  191.8520  174.6460  146.7130 C   0  0  1  0  0  3  0  0  0  0  0  0
  192.0790  176.9750  146.9980 C   0  0  2  0  0  3  0  0  0  0  0  0
  192.4940  175.6760  147.6600 C   0  0  2  0  0  3  0  0  0  0  0  0
  193.4120  176.6680  147.3480 O   0  0  0  0  0  0  0  0  0  0  0  0
  190.8150  177.0940  147.8360 C   0  0  0  0  0  2  0  0  0  0  0  0
  190.3580  174.8870  146.7720 C   0  0  0  0  0  0  0  0  0  0  0  0
  192.5500  172.8660  145.0150 C   0  0  0  0  0  2  0  0  0  0  0  0
  196.4380  170.5610  145.8160 C   0  0  0  0  0  0  0  0  0  0  0  0
  193.5090  169.7460  144.8650 C   0  0  0  0  0  2  0  0  0  0  0  0
  195.4820  170.2790  144.6910 C   0  0  1  0  0  3  0  0  0  0  0  0
  195.0680  173.3400  145.0970 C   0  0  0  0  0  3  0  0  0  0  0  0
  194.7790  168.9580  144.7920 C   0  0  2  0  0  3  0  0  0  0  0  0
  193.9600  172.3720  145.0020 C   0  0  0  0  0  0  0  0  0  0  0  0
  197.0340  169.4990  146.4890 O   0  0  0  0  0  1  0  0  0  0  0  0
  196.8150  171.8090  146.1380 C   0  0  0  0  0  3  0  0  0  0  0  0
  194.2220  171.0800  144.8670 C   0  0  0  0  0  0  0  0  0  0  0  0
  196.2970  173.0880  145.5810 C   0  0  0  0  0  3  0  0  0  0  0  0
  193.5140  168.2100  142.7700 C   0  0  0  0  0  2  0  0  0  0  0  0
  194.8550  168.2130  143.4610 C   0  0  1  0  0  3  0  0  0  0  0  0
  195.2250  168.8260  141.2280 C   0  0  0  0  0  2  0  0  0  0  0  0
  195.8120  168.8580  142.5670 N   0  0  0  0  0  2  0  0  0  0  0  0
  193.8640  168.1700  141.3120 C   0  0  0  0  0  2  0  0  0  0  0  0
  1 17  1  6  0  0  0
  1  7  1  0  0  0  0
  2 14  1  0  0  0  0
  3 21  1  1  0  0  0
  3 11  1  0  0  0  0
  4 12  1  0  0  0  0
  4  5  1  0  0  0  0
  7 27  1  1  0  0  0
  8  7  1  0  0  0  0
  9  6  1  1  0  0  0
  9 11  1  0  0  0  0
  9  1  1  0  0  0  0
 10  8  2  0  0  0  0
 12  2  1  6  0  0  0
 12 16  1  0  0  0  0
 13 14  1  6  0  0  0
 13 16  1  0  0  0  0
 13  3  1  0  0  0  0
 15  4  1  0  0  0  0
 15 18  1  0  0  0  0
 18 19  1  0  0  0  0
 19  8  1  0  0  0  0
 20 22  1  0  0  0  0
 20 23  1  0  0  0  0
 21 26  1  0  0  0  0
 24 20  2  0  0  0  0
 25 21  2  0  0  0  0
 25 24  1  0  0  0  0
 26 22  2  0  0  0  0
 27 36  1  6  0  0  0
 28 34  1  0  0  0  0
 29 35  2  0  0  0  0
 30 27  1  6  0  0  0
 30 35  1  0  0  0  0
 30 32  1  0  0  0  0
 31 33  1  0  0  0  0
 31 32  1  0  0  0  0
 31 34  1  1  0  0  0
 32 33  1  6  0  0  0
 35 28  1  0  0  0  0
 37 44  2  0  0  0  0
 37 43  1  0  0  0  0
 38 45  1  0  0  0  0
 39 41  1  0  0  0  0
 39 45  1  1  0  0  0
 39 37  1  0  0  0  0
 40 46  2  0  0  0  0
 41 38  1  6  0  0  0
 42 36  1  0  0  0  0
 42 40  1  0  0  0  0
 45 42  2  0  0  0  0
 46 44  1  0  0  0  0
 48 47  1  6  0  0  0
 48 41  1  0  0  0  0
 49 51  1  0  0  0  0
 49 50  1  0  0  0  0
 50 48  1  0  0  0  0
 51 47  1  0  0  0  0
M  END
>  <MODEL>
9

>  <REMARK>
 VINA RESULT:      -7.4      3.055      8.541
  Name = 
  6 active torsions:
  status: ('A' for Active; 'I' for Inactive)
    1  A    between atoms: C_6  and  C_16
    2  A    between atoms: C_7  and  C_17
    3  A    between atoms: C_7  and  C_18
    4  A    between atoms: C_7  and  C_21
    5  A    between atoms: C_21  and  C_33
    6  A    between atoms: C_24  and  C_32
                            x       y       z     vdW  Elec       q    Type
                         _______ _______ _______ _____ _____    ______ ____

>  <TORSDO>
F 6

$$$$
