=
 OpenBabel11062421083D

 27 30  0  0  1  0  0  0  0  0999 V2000
  185.0770  178.9090  143.4340 C   0  0  1  0  0  3  0  0  0  0  0  0
  189.5280  175.8850  145.1970 C   0  0  0  0  0  2  0  0  0  0  0  0
  183.6910  178.9800  145.2930 N   0  0  0  0  0  2  0  0  0  0  0  0
  187.0240  177.9250  144.6320 C   0  0  0  0  0  0  0  0  0  0  0  0
  187.5720  177.7250  143.2040 C   0  0  2  0  0  3  0  0  0  0  0  0
  188.8310  175.6360  143.8570 C   0  0  1  0  0  3  0  0  0  0  0  0
  184.8370  178.6110  145.7540 C   0  0  0  0  0  0  0  0  0  0  0  0
  184.5120  178.2010  141.1100 C   0  0  0  0  0  1  0  0  0  0  0  0
  186.5050  177.1910  142.2220 C   0  0  0  0  0  2  0  0  0  0  0  0
  183.7710  179.1500  143.9330 O   0  0  0  0  0  0  0  0  0  0  0  0
  189.2940  177.3000  145.7260 C   0  0  0  0  0  2  0  0  0  0  0  0
  185.0000  178.2740  147.1590 C   0  0  0  0  0  3  0  0  0  0  0  0
  185.8030  178.4850  144.6710 C   0  0  0  0  0  0  0  0  0  0  0  0
  188.8510  176.9080  143.0160 C   0  0  0  0  0  2  0  0  0  0  0  0
  185.0900  177.7540  142.4380 C   0  0  1  0  0  3  0  0  0  0  0  0
  186.1050  177.8320  147.7370 C   0  0  0  0  0  3  0  0  0  0  0  0
  187.8370  177.6060  145.8590 C   0  0  1  0  0  3  0  0  0  0  0  0
  187.4140  177.5740  147.1280 C   0  0  0  0  0  3  0  0  0  0  0  0
  189.4500  174.4620  143.0860 C   0  0  2  0  0  3  0  0  0  0  0  0
  190.8380  174.1520  143.6660 C   0  0  2  0  0  3  0  0  0  0  0  0
  192.1710  174.9840  142.7390 S   0  0  0  0  0  1  0  0  0  0  0  0
  191.0710  172.7770  143.6970 O   0  0  0  0  0  0  0  0  0  0  0  0
  190.0940  172.2700  144.5560 C   0  0  0  0  0  1  0  0  0  0  0  0
  189.5450  174.7630  141.7090 O   0  0  0  0  0  0  0  0  0  0  0  0
  187.8700  172.9640  141.6770 C   0  0  0  0  0  1  0  0  0  0  0  0
  188.9600  173.7260  140.9410 C   0  0  0  0  0  3  0  0  0  0  0  0
  188.5150  174.1510  139.5470 C   0  0  0  0  0  1  0  0  0  0  0  0
  1 10  1  1  0  0  0
  1 13  1  0  0  0  0
  2 11  1  0  0  0  0
  3  7  1  0  0  0  0
  4 13  2  0  0  0  0
  4 17  1  0  0  0  0
  5  9  1  6  0  0  0
  5  4  1  0  0  0  0
  6 19  1  6  0  0  0
  6  2  1  0  0  0  0
  7 12  2  0  0  0  0
  9 15  1  0  0  0  0
 10  3  1  0  0  0  0
 12 16  1  0  0  0  0
 13  7  1  0  0  0  0
 14  5  1  0  0  0  0
 14  6  1  0  0  0  0
 15  8  1  6  0  0  0
 15  1  1  0  0  0  0
 17 11  1  1  0  0  0
 17 18  1  0  0  0  0
 18 16  2  0  0  0  0
 19 24  1  6  0  0  0
 19 20  1  0  0  0  0
 20 21  1  6  0  0  0
 20 22  1  0  0  0  0
 22 23  1  0  0  0  0
 26 25  1  0  0  0  0
 26 24  1  0  0  0  0
 27 26  1  0  0  0  0
M  END
>  <MODEL>
1

>  <REMARK>
 VINA RESULT:      -7.6      0.000      0.000
  Name = 
  5 active torsions:
  status: ('A' for Active; 'I' for Inactive)
    1  A    between atoms: C_1  and  C_3
    2  A    between atoms: C_1  and  C_10
    3  A    between atoms: C_1  and  O_25
    4  A    between atoms: C_3  and  O_7
    5  A    between atoms: C_17  and  O_25
                            x       y       z     vdW  Elec       q    Type
                         _______ _______ _______ _____ _____    ______ ____

>  <TORSDO>
F 5

$$$$
=
 OpenBabel11062421083D

 27 30  0  0  1  0  0  0  0  0999 V2000
  186.5140  178.3460  142.8120 C   0  0  1  0  0  3  0  0  0  0  0  0
  189.9600  176.1790  146.7480 C   0  0  0  0  0  2  0  0  0  0  0  0
  184.4020  178.1150  143.7450 N   0  0  0  0  0  2  0  0  0  0  0  0
  187.7510  177.7220  144.8800 C   0  0  0  0  0  0  0  0  0  0  0  0
  188.9580  177.6590  143.9220 C   0  0  2  0  0  3  0  0  0  0  0  0
  190.0720  175.8320  145.2620 C   0  0  1  0  0  3  0  0  0  0  0  0
  185.2140  177.9580  144.7330 C   0  0  0  0  0  0  0  0  0  0  0  0
  187.3060  177.5950  140.5700 C   0  0  0  0  0  1  0  0  0  0  0  0
  188.6290  176.9560  142.5870 C   0  0  0  0  0  2  0  0  0  0  0  0
  185.1130  178.3260  142.5890 O   0  0  0  0  0  0  0  0  0  0  0  0
  189.2520  177.5130  146.9870 C   0  0  0  0  0  2  0  0  0  0  0  0
  184.7170  177.6280  146.0590 C   0  0  0  0  0  3  0  0  0  0  0  0
  186.5950  178.0410  144.2740 C   0  0  0  0  0  0  0  0  0  0  0  0
  190.2830  177.1030  144.4450 C   0  0  0  0  0  2  0  0  0  0  0  0
  187.2190  177.2360  142.0390 C   0  0  1  0  0  3  0  0  0  0  0  0
  185.4490  177.3900  147.1350 C   0  0  0  0  0  3  0  0  0  0  0  0
  187.8920  177.5350  146.3670 C   0  0  1  0  0  3  0  0  0  0  0  0
  186.9100  177.3970  147.2650 C   0  0  0  0  0  3  0  0  0  0  0  0
  191.1850  174.8130  144.9820 C   0  0  2  0  0  3  0  0  0  0  0  0
  192.5330  175.5460  144.8980 C   0  0  2  0  0  3  0  0  0  0  0  0
  193.4370  175.1470  143.3650 S   0  0  0  0  0  1  0  0  0  0  0  0
  193.3290  175.2560  146.0060 O   0  0  0  0  0  0  0  0  0  0  0  0
  193.7170  176.5020  146.5000 C   0  0  0  0  0  1  0  0  0  0  0  0
  190.9290  174.1090  143.7840 O   0  0  0  0  0  0  0  0  0  0  0  0
  189.0170  173.2300  142.5140 C   0  0  0  0  0  1  0  0  0  0  0  0
  189.6800  173.4440  143.8650 C   0  0  0  0  0  3  0  0  0  0  0  0
  189.7010  172.1690  144.6980 C   0  0  0  0  0  1  0  0  0  0  0  0
  1 10  1  6  0  0  0
  1 13  1  0  0  0  0
  2 11  1  0  0  0  0
  3  7  1  0  0  0  0
  4 17  1  0  0  0  0
  5  9  1  6  0  0  0
  5 14  1  0  0  0  0
  5  4  1  0  0  0  0
  6 19  1  1  0  0  0
  6  2  1  0  0  0  0
  7 12  2  0  0  0  0
 10  3  1  0  0  0  0
 12 16  1  0  0  0  0
 13  7  1  0  0  0  0
 13  4  2  0  0  0  0
 14  6  1  0  0  0  0
 15  8  1  6  0  0  0
 15  9  1  0  0  0  0
 15  1  1  0  0  0  0
 16 18  2  0  0  0  0
 17 11  1  1  0  0  0
 17 18  1  0  0  0  0
 19 24  1  6  0  0  0
 20 21  1  6  0  0  0
 20 19  1  0  0  0  0
 20 22  1  0  0  0  0
 22 23  1  0  0  0  0
 24 26  1  0  0  0  0
 25 26  1  0  0  0  0
 26 27  1  0  0  0  0
M  END
>  <MODEL>
2

>  <REMARK>
 VINA RESULT:      -7.6      1.714      2.479
  Name = 
  5 active torsions:
  status: ('A' for Active; 'I' for Inactive)
    1  A    between atoms: C_1  and  C_3
    2  A    between atoms: C_1  and  C_10
    3  A    between atoms: C_1  and  O_25
    4  A    between atoms: C_3  and  O_7
    5  A    between atoms: C_17  and  O_25
                            x       y       z     vdW  Elec       q    Type
                         _______ _______ _______ _____ _____    ______ ____

>  <TORSDO>
F 5

$$$$
=
 OpenBabel11062421083D

 27 30  0  0  1  0  0  0  0  0999 V2000
  186.2730  178.4820  142.7520 C   0  0  1  0  0  3  0  0  0  0  0  0
  189.6270  176.0460  146.6090 C   0  0  0  0  0  2  0  0  0  0  0  0
  184.1680  178.4000  143.7250 N   0  0  0  0  0  2  0  0  0  0  0  0
  187.5010  177.7570  144.7920 C   0  0  0  0  0  0  0  0  0  0  0  0
  188.6820  177.6120  143.8100 C   0  0  2  0  0  3  0  0  0  0  0  0
  189.6850  175.7000  145.1200 C   0  0  1  0  0  3  0  0  0  0  0  0
  184.9850  178.1790  144.6970 C   0  0  0  0  0  0  0  0  0  0  0  0
  186.9640  177.6880  140.4910 C   0  0  0  0  0  1  0  0  0  0  0  0
  188.2750  176.9420  142.4780 C   0  0  0  0  0  2  0  0  0  0  0  0
  184.8710  178.5660  142.5560 O   0  0  0  0  0  0  0  0  0  0  0  0
  189.0230  177.4260  146.8680 C   0  0  0  0  0  2  0  0  0  0  0  0
  184.4910  177.8790  146.0300 C   0  0  0  0  0  3  0  0  0  0  0  0
  186.3590  178.1630  144.2100 C   0  0  0  0  0  0  0  0  0  0  0  0
  189.9720  176.9570  144.3050 C   0  0  0  0  0  2  0  0  0  0  0  0
  186.8800  177.3280  141.9600 C   0  0  1  0  0  3  0  0  0  0  0  0
  185.2250  177.5810  147.0910 C   0  0  0  0  0  3  0  0  0  0  0  0
  187.6570  177.5520  146.2750 C   0  0  1  0  0  3  0  0  0  0  0  0
  186.6850  177.4800  147.1920 C   0  0  0  0  0  3  0  0  0  0  0  0
  190.7140  174.6040  144.8140 C   0  0  2  0  0  3  0  0  0  0  0  0
  189.9780  173.2980  144.4790 C   0  0  2  0  0  3  0  0  0  0  0  0
  191.1320  171.9360  144.1040 S   0  0  0  0  0  1  0  0  0  0  0  0
  189.0990  173.4800  143.4120 O   0  0  0  0  0  0  0  0  0  0  0  0
  189.1120  172.2630  142.7290 C   0  0  0  0  0  1  0  0  0  0  0  0
  191.5840  174.4150  145.9120 O   0  0  0  0  0  0  0  0  0  0  0  0
  193.2510  176.1350  146.4640 C   0  0  0  0  0  1  0  0  0  0  0  0
  192.8680  174.9340  145.6130 C   0  0  0  0  0  3  0  0  0  0  0  0
  193.9750  173.8880  145.5730 C   0  0  0  0  0  1  0  0  0  0  0  0
  1 10  1  6  0  0  0
  1 13  1  0  0  0  0
  2 11  1  0  0  0  0
  3  7  1  0  0  0  0
  4 17  1  0  0  0  0
  5  9  1  6  0  0  0
  5 14  1  0  0  0  0
  5  4  1  0  0  0  0
  6 19  1  1  0  0  0
  6  2  1  0  0  0  0
  7 12  2  0  0  0  0
 10  3  1  0  0  0  0
 12 16  1  0  0  0  0
 13  7  1  0  0  0  0
 13  4  2  0  0  0  0
 14  6  1  0  0  0  0
 15  8  1  6  0  0  0
 15  9  1  0  0  0  0
 15  1  1  0  0  0  0
 16 18  2  0  0  0  0
 17 11  1  1  0  0  0
 17 18  1  0  0  0  0
 19 24  1  1  0  0  0
 20 21  1  6  0  0  0
 20 19  1  0  0  0  0
 22 20  1  0  0  0  0
 23 22  1  0  0  0  0
 26 24  1  0  0  0  0
 26 25  1  0  0  0  0
 27 26  1  0  0  0  0
M  END
>  <MODEL>
3

>  <REMARK>
 VINA RESULT:      -7.5      1.837      3.071
  Name = 
  5 active torsions:
  status: ('A' for Active; 'I' for Inactive)
    1  A    between atoms: C_1  and  C_3
    2  A    between atoms: C_1  and  C_10
    3  A    between atoms: C_1  and  O_25
    4  A    between atoms: C_3  and  O_7
    5  A    between atoms: C_17  and  O_25
                            x       y       z     vdW  Elec       q    Type
                         _______ _______ _______ _____ _____    ______ ____

>  <TORSDO>
F 5

$$$$
=
 OpenBabel11062421083D

 27 30  0  0  1  0  0  0  0  0999 V2000
  185.1160  178.8730  143.3440 C   0  0  1  0  0  3  0  0  0  0  0  0
  189.7210  175.8740  144.7070 C   0  0  0  0  0  2  0  0  0  0  0  0
  183.8190  178.7920  145.2670 N   0  0  0  0  0  2  0  0  0  0  0  0
  187.1420  177.8730  144.3870 C   0  0  0  0  0  0  0  0  0  0  0  0
  187.6250  177.7760  142.9260 C   0  0  2  0  0  3  0  0  0  0  0  0
  188.9660  175.6870  143.3880 C   0  0  1  0  0  3  0  0  0  0  0  0
  184.9940  178.4280  145.6500 C   0  0  0  0  0  0  0  0  0  0  0  0
  184.4580  178.2930  141.0090 C   0  0  0  0  0  1  0  0  0  0  0  0
  186.5260  177.2730  141.9630 C   0  0  0  0  0  2  0  0  0  0  0  0
  183.8300  179.0470  143.9170 O   0  0  0  0  0  0  0  0  0  0  0  0
  189.4770  177.2470  145.3330 C   0  0  0  0  0  2  0  0  0  0  0  0
  185.2330  178.0110  147.0230 C   0  0  0  0  0  3  0  0  0  0  0  0
  185.9110  178.3960  144.5170 C   0  0  0  0  0  0  0  0  0  0  0  0
  188.9140  177.0080  142.6280 C   0  0  0  0  0  2  0  0  0  0  0  0
  185.1090  177.7820  142.2790 C   0  0  1  0  0  3  0  0  0  0  0  0
  186.3760  177.5660  147.5200 C   0  0  0  0  0  3  0  0  0  0  0  0
  188.0210  177.5030  145.5530 C   0  0  1  0  0  3  0  0  0  0  0  0
  187.6600  177.3820  146.8350 C   0  0  0  0  0  3  0  0  0  0  0  0
  189.5770  174.5800  142.5180 C   0  0  2  0  0  3  0  0  0  0  0  0
  188.7520  173.2940  142.6830 C   0  0  2  0  0  3  0  0  0  0  0  0
  189.8000  171.8010  142.6820 S   0  0  0  0  0  1  0  0  0  0  0  0
  187.7820  173.1920  141.6860 O   0  0  0  0  0  0  0  0  0  0  0  0
  188.4980  173.2240  140.4880 C   0  0  0  0  0  1  0  0  0  0  0  0
  190.9250  174.3520  142.8730 O   0  0  0  0  0  0  0  0  0  0  0  0
  192.8390  175.8580  142.5380 C   0  0  0  0  0  1  0  0  0  0  0  0
  191.7880  174.9480  141.9210 C   0  0  0  0  0  3  0  0  0  0  0  0
  192.3980  173.9690  140.9250 C   0  0  0  0  0  1  0  0  0  0  0  0
  1 10  1  1  0  0  0
  1 13  1  0  0  0  0
  2 11  1  0  0  0  0
  3  7  1  0  0  0  0
  4 13  2  0  0  0  0
  4 17  1  0  0  0  0
  5  9  1  6  0  0  0
  5  4  1  0  0  0  0
  6 19  1  6  0  0  0
  6  2  1  0  0  0  0
  7 12  2  0  0  0  0
  9 15  1  0  0  0  0
 10  3  1  0  0  0  0
 12 16  1  0  0  0  0
 13  7  1  0  0  0  0
 14  5  1  0  0  0  0
 14  6  1  0  0  0  0
 15  8  1  6  0  0  0
 15  1  1  0  0  0  0
 17 11  1  1  0  0  0
 17 18  1  0  0  0  0
 18 16  2  0  0  0  0
 19 20  1  0  0  0  0
 19 24  1  1  0  0  0
 20 21  1  6  0  0  0
 22 20  1  0  0  0  0
 23 22  1  0  0  0  0
 26 25  1  0  0  0  0
 26 24  1  0  0  0  0
 27 26  1  0  0  0  0
M  END
>  <MODEL>
4

>  <REMARK>
 VINA RESULT:      -7.3      1.390      2.142
  Name = 
  5 active torsions:
  status: ('A' for Active; 'I' for Inactive)
    1  A    between atoms: C_1  and  C_3
    2  A    between atoms: C_1  and  C_10
    3  A    between atoms: C_1  and  O_25
    4  A    between atoms: C_3  and  O_7
    5  A    between atoms: C_17  and  O_25
                            x       y       z     vdW  Elec       q    Type
                         _______ _______ _______ _____ _____    ______ ____

>  <TORSDO>
F 5

$$$$
=
 OpenBabel11062421083D

 27 30  0  0  1  0  0  0  0  0999 V2000
  185.3390  177.6970  145.7590 C   0  0  1  0  0  3  0  0  0  0  0  0
  189.5970  175.6580  142.6330 C   0  0  0  0  0  2  0  0  0  0  0  0
  184.1630  179.0400  144.2760 N   0  0  0  0  0  2  0  0  0  0  0  0
  186.8120  176.6770  144.0320 C   0  0  0  0  0  0  0  0  0  0  0  0
  187.5890  176.1600  145.2600 C   0  0  2  0  0  3  0  0  0  0  0  0
  189.7970  176.2350  144.0360 C   0  0  1  0  0  3  0  0  0  0  0  0
  184.9120  178.3060  143.5280 C   0  0  0  0  0  0  0  0  0  0  0  0
  186.2280  178.2910  148.0130 C   0  0  0  0  0  1  0  0  0  0  0  0
  187.7660  177.2360  146.3540 C   0  0  0  0  0  2  0  0  0  0  0  0
  184.3880  178.7380  145.5970 O   0  0  0  0  0  0  0  0  0  0  0  0
  188.1630  175.1860  142.3920 C   0  0  0  0  0  2  0  0  0  0  0  0
  184.9340  178.4920  142.0860 C   0  0  0  0  0  3  0  0  0  0  0  0
  185.7440  177.4310  144.3450 C   0  0  2  0  0  3  0  0  0  0  0  0
  188.9370  175.4720  145.0390 C   0  0  0  0  0  2  0  0  0  0  0  0
  186.5600  178.1740  146.5390 C   0  0  1  0  0  3  0  0  0  0  0  0
  185.6970  177.8420  141.2220 C   0  0  0  0  0  3  0  0  0  0  0  0
  187.1740  176.2820  142.6250 C   0  0  0  0  0  0  0  0  0  0  0  0
  186.6900  176.7950  141.4880 C   0  0  0  0  0  3  0  0  0  0  0  0
  191.2700  176.2290  144.4650 C   0  0  2  0  0  3  0  0  0  0  0  0
  192.1160  175.5760  143.3610 C   0  0  2  0  0  3  0  0  0  0  0  0
  192.7930  173.9620  143.8790 S   0  0  0  0  0  1  0  0  0  0  0  0
  193.1540  176.4180  142.9630 O   0  0  0  0  0  0  0  0  0  0  0  0
  194.3200  175.7420  143.3250 C   0  0  0  0  0  1  0  0  0  0  0  0
  191.4330  175.5380  145.6870 O   0  0  0  0  0  0  0  0  0  0  0  0
  191.1900  176.2950  148.0130 C   0  0  0  0  0  1  0  0  0  0  0  0
  191.9200  176.4190  146.6840 C   0  0  0  0  0  3  0  0  0  0  0  0
  193.4330  176.3920  146.8620 C   0  0  0  0  0  1  0  0  0  0  0  0
  1 10  1  6  0  0  0
  1 15  1  0  0  0  0
  2  6  1  0  0  0  0
  3 10  1  0  0  0  0
  4 13  1  0  0  0  0
  4  5  1  0  0  0  0
  5 14  1  6  0  0  0
  5  9  1  0  0  0  0
  6 19  1  1  0  0  0
  6 14  1  0  0  0  0
  7  3  1  0  0  0  0
  9 15  1  0  0  0  0
 11 17  1  0  0  0  0
 11  2  1  0  0  0  0
 12  7  2  0  0  0  0
 13  7  1  1  0  0  0
 13  1  1  0  0  0  0
 15  8  1  1  0  0  0
 16 18  2  0  0  0  0
 16 12  1  0  0  0  0
 17  4  2  0  0  0  0
 18 17  1  0  0  0  0
 19 24  1  1  0  0  0
 20 21  1  1  0  0  0
 20 19  1  0  0  0  0
 22 23  1  0  0  0  0
 22 20  1  0  0  0  0
 24 26  1  0  0  0  0
 26 27  1  0  0  0  0
 26 25  1  0  0  0  0
M  END
>  <MODEL>
5

>  <REMARK>
 VINA RESULT:      -7.2      2.062      4.465
  Name = 
  5 active torsions:
  status: ('A' for Active; 'I' for Inactive)
    1  A    between atoms: C_1  and  C_3
    2  A    between atoms: C_1  and  C_10
    3  A    between atoms: C_1  and  O_25
    4  A    between atoms: C_3  and  O_7
    5  A    between atoms: C_17  and  O_25
                            x       y       z     vdW  Elec       q    Type
                         _______ _______ _______ _____ _____    ______ ____

>  <TORSDO>
F 5

$$$$
=
 OpenBabel11062421083D

 27 30  0  0  1  0  0  0  0  0999 V2000
  192.9280  174.0650  143.1000 C   0  0  1  0  0  3  0  0  0  0  0  0
  189.7730  176.5250  147.1070 C   0  0  0  0  0  2  0  0  0  0  0  0
  194.9520  175.1930  143.2260 N   0  0  0  0  0  2  0  0  0  0  0  0
  191.9790  175.0580  145.1760 C   0  0  0  0  0  0  0  0  0  0  0  0
  190.6690  174.4270  144.6620 C   0  0  2  0  0  3  0  0  0  0  0  0
  189.2550  176.2470  145.6950 C   0  0  1  0  0  3  0  0  0  0  0  0
  194.3490  175.4810  144.3280 C   0  0  0  0  0  0  0  0  0  0  0  0
  191.4960  173.6780  141.0950 C   0  0  0  0  0  1  0  0  0  0  0  0
  190.4540  174.6410  143.1480 C   0  0  0  0  0  2  0  0  0  0  0  0
  194.1540  174.3800  142.4590 O   0  0  0  0  0  0  0  0  0  0  0  0
  190.9480  175.6240  147.4890 C   0  0  0  0  0  2  0  0  0  0  0  0
  194.9420  176.4050  145.2810 C   0  0  0  0  0  3  0  0  0  0  0  0
  193.0300  174.8610  144.3620 C   0  0  0  0  0  0  0  0  0  0  0  0
  189.3620  174.7570  145.3860 C   0  0  0  0  0  2  0  0  0  0  0  0
  191.7330  174.5700  142.2970 C   0  0  1  0  0  3  0  0  0  0  0  0
  194.3990  176.8200  146.4140 C   0  0  0  0  0  3  0  0  0  0  0  0
  192.0740  175.7410  146.5140 C   0  0  1  0  0  3  0  0  0  0  0  0
  193.0950  176.4660  146.9850 C   0  0  0  0  0  3  0  0  0  0  0  0
  187.8170  176.7440  145.4920 C   0  0  2  0  0  3  0  0  0  0  0  0
  187.7120  177.4430  144.1280 C   0  0  2  0  0  3  0  0  0  0  0  0
  186.8400  176.4180  142.8960 S   0  0  0  0  0  1  0  0  0  0  0  0
  188.9730  177.7910  143.6460 O   0  0  0  0  0  0  0  0  0  0  0  0
  188.8050  177.9170  142.2660 C   0  0  0  0  0  1  0  0  0  0  0  0
  187.4420  177.6260  146.5300 O   0  0  0  0  0  0  0  0  0  0  0  0
  185.1300  176.7920  146.5090 C   0  0  0  0  0  1  0  0  0  0  0  0
  186.0760  177.9780  146.4020 C   0  0  0  0  0  3  0  0  0  0  0  0
  185.6390  179.1360  147.2910 C   0  0  0  0  0  1  0  0  0  0  0  0
  1 10  1  6  0  0  0
  1 13  1  0  0  0  0
  2 11  1  0  0  0  0
  3  7  1  0  0  0  0
  4 17  1  0  0  0  0
  5  9  1  6  0  0  0
  5  4  1  0  0  0  0
  5 14  1  0  0  0  0
  6 19  1  1  0  0  0
  6  2  1  0  0  0  0
  7 13  1  0  0  0  0
  7 12  2  0  0  0  0
 10  3  1  0  0  0  0
 12 16  1  0  0  0  0
 13  4  2  0  0  0  0
 14  6  1  0  0  0  0
 15  8  1  6  0  0  0
 15  1  1  0  0  0  0
 15  9  1  0  0  0  0
 16 18  2  0  0  0  0
 17 18  1  1  0  0  0
 17 11  1  0  0  0  0
 19 24  1  1  0  0  0
 20 21  1  6  0  0  0
 20 19  1  0  0  0  0
 22 20  1  0  0  0  0
 23 22  1  0  0  0  0
 26 25  1  0  0  0  0
 26 24  1  0  0  0  0
 26 27  1  0  0  0  0
M  END
>  <MODEL>
6

>  <REMARK>
 VINA RESULT:      -6.8      3.661      7.090
  Name = 
  5 active torsions:
  status: ('A' for Active; 'I' for Inactive)
    1  A    between atoms: C_1  and  C_3
    2  A    between atoms: C_1  and  C_10
    3  A    between atoms: C_1  and  O_25
    4  A    between atoms: C_3  and  O_7
    5  A    between atoms: C_17  and  O_25
                            x       y       z     vdW  Elec       q    Type
                         _______ _______ _______ _____ _____    ______ ____

>  <TORSDO>
F 5

$$$$
=
 OpenBabel11062421083D

 27 30  0  0  1  0  0  0  0  0999 V2000
  186.7260  177.7500  142.4720 C   0  0  1  0  0  3  0  0  0  0  0  0
  190.4980  176.2010  146.4010 C   0  0  0  0  0  2  0  0  0  0  0  0
  184.6820  177.4870  143.5400 N   0  0  0  0  0  2  0  0  0  0  0  0
  188.1030  177.4120  144.5180 C   0  0  0  0  0  0  0  0  0  0  0  0
  189.2620  177.3260  143.5040 C   0  0  2  0  0  3  0  0  0  0  0  0
  190.5580  175.7130  144.9510 C   0  0  1  0  0  3  0  0  0  0  0  0
  185.5510  177.4800  144.4920 C   0  0  0  0  0  0  0  0  0  0  0  0
  187.4520  176.8260  140.2720 C   0  0  0  0  0  1  0  0  0  0  0  0
  188.9130  176.4730  142.2650 C   0  0  0  0  0  2  0  0  0  0  0  0
  185.3200  177.6240  142.3300 O   0  0  0  0  0  0  0  0  0  0  0  0
  189.7170  177.5070  146.5480 C   0  0  0  0  0  2  0  0  0  0  0  0
  185.1430  177.2560  145.8690 C   0  0  0  0  0  3  0  0  0  0  0  0
  186.8990  177.5990  143.9500 C   0  0  0  0  0  0  0  0  0  0  0  0
  190.6450  176.9060  144.0050 C   0  0  0  0  0  2  0  0  0  0  0  0
  187.4620  176.6120  141.7730 C   0  0  1  0  0  3  0  0  0  0  0  0
  185.9420  177.1720  146.9200 C   0  0  0  0  0  3  0  0  0  0  0  0
  188.3300  177.3850  146.0060 C   0  0  1  0  0  3  0  0  0  0  0  0
  187.4050  177.2790  146.9670 C   0  0  0  0  0  3  0  0  0  0  0  0
  191.7200  174.7400  144.7100 C   0  0  2  0  0  3  0  0  0  0  0  0
  191.1820  173.4660  144.0410 C   0  0  2  0  0  3  0  0  0  0  0  0
  191.6590  173.3590  142.2830 S   0  0  0  0  0  1  0  0  0  0  0  0
  189.7940  173.3870  144.1600 O   0  0  0  0  0  0  0  0  0  0  0  0
  189.5630  172.1960  144.8500 C   0  0  0  0  0  1  0  0  0  0  0  0
  192.3670  174.4240  145.9260 O   0  0  0  0  0  0  0  0  0  0  0  0
  194.3870  173.1720  145.2960 C   0  0  0  0  0  1  0  0  0  0  0  0
  193.7730  174.4840  145.7610 C   0  0  0  0  0  3  0  0  0  0  0  0
  194.2580  175.6650  144.9290 C   0  0  0  0  0  1  0  0  0  0  0  0
  1 10  1  1  0  0  0
  1 13  1  0  0  0  0
  2 11  1  0  0  0  0
  3  7  1  0  0  0  0
  4 17  1  0  0  0  0
  5  9  1  6  0  0  0
  5 14  1  0  0  0  0
  5  4  1  0  0  0  0
  6 19  1  1  0  0  0
  6  2  1  0  0  0  0
  7 12  2  0  0  0  0
 10  3  1  0  0  0  0
 12 16  1  0  0  0  0
 13  7  1  0  0  0  0
 13  4  2  0  0  0  0
 14  6  1  0  0  0  0
 15  8  1  6  0  0  0
 15  9  1  0  0  0  0
 15  1  1  0  0  0  0
 16 18  2  0  0  0  0
 17 11  1  1  0  0  0
 17 18  1  0  0  0  0
 19 24  1  1  0  0  0
 20 21  1  6  0  0  0
 20 22  1  0  0  0  0
 20 19  1  0  0  0  0
 22 23  1  0  0  0  0
 25 26  1  0  0  0  0
 26 24  1  0  0  0  0
 27 26  1  0  0  0  0
M  END
>  <MODEL>
7

>  <REMARK>
 VINA RESULT:      -6.6      1.919      3.203
  Name = 
  5 active torsions:
  status: ('A' for Active; 'I' for Inactive)
    1  A    between atoms: C_1  and  C_3
    2  A    between atoms: C_1  and  C_10
    3  A    between atoms: C_1  and  O_25
    4  A    between atoms: C_3  and  O_7
    5  A    between atoms: C_17  and  O_25
                            x       y       z     vdW  Elec       q    Type
                         _______ _______ _______ _____ _____    ______ ____

>  <TORSDO>
F 5

$$$$
=
 OpenBabel11062421083D

 27 30  0  0  1  0  0  0  0  0999 V2000
  185.6900  177.9850  145.7500 C   0  0  1  0  0  3  0  0  0  0  0  0
  189.7500  175.1910  142.9620 C   0  0  0  0  0  2  0  0  0  0  0  0
  184.8130  179.4200  144.1510 N   0  0  0  0  0  2  0  0  0  0  0  0
  187.0820  176.6780  144.1530 C   0  0  0  0  0  0  0  0  0  0  0  0
  187.7050  176.1080  145.4440 C   0  0  2  0  0  3  0  0  0  0  0  0
  189.9600  175.7950  144.3520 C   0  0  1  0  0  3  0  0  0  0  0  0
  185.4810  178.5480  143.4760 C   0  0  0  0  0  0  0  0  0  0  0  0
  186.5380  178.5420  148.0290 C   0  0  0  0  0  1  0  0  0  0  0  0
  187.9830  177.1940  146.5060 C   0  0  0  0  0  2  0  0  0  0  0  0
  184.9190  179.1480  145.4930 O   0  0  0  0  0  0  0  0  0  0  0  0
  188.2760  174.9290  142.6530 C   0  0  0  0  0  2  0  0  0  0  0  0
  185.6080  178.6630  142.0330 C   0  0  0  0  0  3  0  0  0  0  0  0
  186.1250  177.5970  144.3730 C   0  0  2  0  0  3  0  0  0  0  0  0
  188.9420  175.2160  145.3300 C   0  0  0  0  0  2  0  0  0  0  0  0
  186.9260  178.3090  146.5830 C   0  0  1  0  0  3  0  0  0  0  0  0
  186.3080  177.8670  141.2400 C   0  0  0  0  0  3  0  0  0  0  0  0
  187.4540  176.1700  142.7860 C   0  0  0  0  0  0  0  0  0  0  0  0
  187.1150  176.6970  141.6040 C   0  0  0  0  0  3  0  0  0  0  0  0
  191.3900  175.5890  144.8680 C   0  0  2  0  0  3  0  0  0  0  0  0
  192.1290  176.9360  144.8620 C   0  0  2  0  0  3  0  0  0  0  0  0
  191.2480  178.1990  143.8840 S   0  0  0  0  0  1  0  0  0  0  0  0
  193.4300  176.7890  144.3810 O   0  0  0  0  0  0  0  0  0  0  0  0
  194.2470  177.0320  145.4870 C   0  0  0  0  0  1  0  0  0  0  0  0
  192.0770  174.6450  144.0720 O   0  0  0  0  0  0  0  0  0  0  0  0
  191.5760  172.2470  144.2800 C   0  0  0  0  0  1  0  0  0  0  0  0
  192.3170  173.4620  144.8160 C   0  0  0  0  0  3  0  0  0  0  0  0
  193.7900  173.1650  145.0670 C   0  0  0  0  0  1  0  0  0  0  0  0
  1 10  1  6  0  0  0
  1 15  1  0  0  0  0
  2  6  1  0  0  0  0
  3 10  1  0  0  0  0
  4 13  1  0  0  0  0
  4  5  1  0  0  0  0
  5 14  1  6  0  0  0
  5  9  1  0  0  0  0
  6 19  1  1  0  0  0
  6 14  1  0  0  0  0
  7  3  1  0  0  0  0
  9 15  1  0  0  0  0
 11 17  1  0  0  0  0
 11  2  1  0  0  0  0
 12  7  2  0  0  0  0
 13  7  1  1  0  0  0
 13  1  1  0  0  0  0
 15  8  1  1  0  0  0
 16 18  2  0  0  0  0
 16 12  1  0  0  0  0
 17  4  2  0  0  0  0
 18 17  1  0  0  0  0
 19 24  1  6  0  0  0
 20 21  1  6  0  0  0
 20 19  1  0  0  0  0
 22 20  1  0  0  0  0
 22 23  1  0  0  0  0
 24 26  1  0  0  0  0
 25 26  1  0  0  0  0
 26 27  1  0  0  0  0
M  END
>  <MODEL>
8

>  <REMARK>
 VINA RESULT:      -6.6      2.089      4.213
  Name = 
  5 active torsions:
  status: ('A' for Active; 'I' for Inactive)
    1  A    between atoms: C_1  and  C_3
    2  A    between atoms: C_1  and  C_10
    3  A    between atoms: C_1  and  O_25
    4  A    between atoms: C_3  and  O_7
    5  A    between atoms: C_17  and  O_25
                            x       y       z     vdW  Elec       q    Type
                         _______ _______ _______ _____ _____    ______ ____

>  <TORSDO>
F 5

$$$$
=
 OpenBabel11062421083D

 27 30  0  0  1  0  0  0  0  0999 V2000
  185.7140  177.5040  145.3280 C   0  0  1  0  0  3  0  0  0  0  0  0
  190.2240  175.2460  142.7540 C   0  0  0  0  0  2  0  0  0  0  0  0
  184.8000  178.8950  143.7120 N   0  0  0  0  0  2  0  0  0  0  0  0
  187.3400  176.4050  143.7960 C   0  0  0  0  0  0  0  0  0  0  0  0
  187.9320  175.8570  145.1110 C   0  0  2  0  0  3  0  0  0  0  0  0
  190.2760  175.8190  144.1720 C   0  0  1  0  0  3  0  0  0  0  0  0
  185.5990  178.1220  143.0620 C   0  0  0  0  0  0  0  0  0  0  0  0
  186.3440  178.0650  147.6760 C   0  0  0  0  0  1  0  0  0  0  0  0
  188.0230  176.9290  146.2200 C   0  0  0  0  0  2  0  0  0  0  0  0
  184.8430  178.5890  145.0500 O   0  0  0  0  0  0  0  0  0  0  0  0
  188.8100  174.8430  142.3360 C   0  0  0  0  0  2  0  0  0  0  0  0
  185.8090  178.3000  141.6340 C   0  0  0  0  0  3  0  0  0  0  0  0
  186.2790  177.2120  143.9750 C   0  0  2  0  0  3  0  0  0  0  0  0
  189.2620  175.1040  145.0590 C   0  0  0  0  0  2  0  0  0  0  0  0
  186.8510  177.9250  146.2540 C   0  0  1  0  0  3  0  0  0  0  0  0
  186.6420  177.6100  140.8710 C   0  0  0  0  0  3  0  0  0  0  0  0
  187.8540  175.9870  142.4450 C   0  0  0  0  0  0  0  0  0  0  0  0
  187.5420  176.5170  141.2570 C   0  0  0  0  0  3  0  0  0  0  0  0
  191.6820  175.7440  144.7810 C   0  0  2  0  0  3  0  0  0  0  0  0
  191.6360  174.8890  146.0570 C   0  0  2  0  0  3  0  0  0  0  0  0
  191.5000  175.9080  147.5630 S   0  0  0  0  0  1  0  0  0  0  0  0
  192.7570  174.0630  146.1440 O   0  0  0  0  0  0  0  0  0  0  0  0
  192.6610  173.2150  145.0400 C   0  0  0  0  0  1  0  0  0  0  0  0
  192.1710  177.0380  145.0710 O   0  0  0  0  0  0  0  0  0  0  0  0
  194.5290  177.1480  145.7560 C   0  0  0  0  0  1  0  0  0  0  0  0
  193.5100  177.1650  144.6270 C   0  0  0  0  0  3  0  0  0  0  0  0
  193.8920  176.2120  143.5020 C   0  0  0  0  0  1  0  0  0  0  0  0
  1 10  1  6  0  0  0
  1 15  1  0  0  0  0
  2  6  1  0  0  0  0
  3 10  1  0  0  0  0
  4 13  1  0  0  0  0
  4  5  1  0  0  0  0
  5 14  1  6  0  0  0
  5  9  1  0  0  0  0
  6 19  1  1  0  0  0
  6 14  1  0  0  0  0
  7  3  1  0  0  0  0
  9 15  1  0  0  0  0
 11 17  1  0  0  0  0
 11  2  1  0  0  0  0
 12  7  2  0  0  0  0
 13  7  1  1  0  0  0
 13  1  1  0  0  0  0
 15  8  1  1  0  0  0
 16 18  2  0  0  0  0
 16 12  1  0  0  0  0
 17  4  2  0  0  0  0
 18 17  1  0  0  0  0
 19 24  1  1  0  0  0
 19 20  1  0  0  0  0
 20 22  1  0  0  0  0
 20 21  1  1  0  0  0
 23 22  1  0  0  0  0
 26 24  1  0  0  0  0
 26 25  1  0  0  0  0
 27 26  1  0  0  0  0
M  END
>  <MODEL>
9

>  <REMARK>
 VINA RESULT:      -6.5      2.436      4.450
  Name = 
  5 active torsions:
  status: ('A' for Active; 'I' for Inactive)
    1  A    between atoms: C_1  and  C_3
    2  A    between atoms: C_1  and  C_10
    3  A    between atoms: C_1  and  O_25
    4  A    between atoms: C_3  and  O_7
    5  A    between atoms: C_17  and  O_25
                            x       y       z     vdW  Elec       q    Type
                         _______ _______ _______ _____ _____    ______ ____

>  <TORSDO>
F 5

$$$$
