=
 OpenBabel11062420033D

 42 43  0  0  1  0  0  0  0  0999 V2000
  191.7590  173.6130  143.9790 C   0  0  0  0  0  3  0  0  0  0  0  0
  194.8120  172.2420  145.6120 N   0  0  0  0  0  1  0  0  0  0  0  0
  192.6090  171.7470  142.7170 C   0  0  0  0  0  0  0  0  0  0  0  0
  193.6130  171.6070  143.6250 N   0  0  0  0  0  0  0  0  0  0  0  0
  193.7300  172.4290  144.7020 C   0  0  0  0  0  0  0  0  0  0  0  0
  191.6530  172.7610  142.8750 C   0  0  0  0  0  0  0  0  0  0  0  0
  192.7960  173.4560  144.9020 C   0  0  0  0  0  0  0  0  0  0  0  0
  192.5520  170.8700  141.5960 N   0  0  0  0  0  1  0  0  0  0  0  0
  189.2400  172.6580  141.9820 C   0  0  0  0  0  0  0  0  0  0  0  0
  188.7680  172.0130  142.9970 N   0  0  0  0  0  2  0  0  0  0  0  0
  190.6430  172.9480  141.8730 N   0  0  0  0  0  2  0  0  0  0  0  0
  188.2870  173.2480  140.9960 C   0  0  2  0  0  3  0  0  0  0  0  0
  188.5090  172.6990  139.7000 O   0  0  0  0  0  0  0  0  0  0  0  0
  188.9080  173.4780  138.6120 C   0  0  0  0  0  0  0  0  0  0  0  0
  190.2590  173.7170  138.4010 O   0  0  0  0  0  1  0  0  0  0  0  0
  188.0580  173.9700  137.8220 O   0  0  0  0  0  0  0  0  0  0  0  0
  188.4120  174.7720  140.9740 C   0  0  0  0  0  2  0  0  0  0  0  0
  186.8020  177.1150  140.7730 O   0  0  0  0  0  0  0  0  0  0  0  0
  186.8650  176.5420  141.8930 C   0  0  0  0  0  0  0  0  0  0  0  0
  187.6520  175.3650  142.0650 N   0  0  0  0  0  2  0  0  0  0  0  0
  186.1320  177.1130  143.0580 C   0  0  0  0  0  2  0  0  0  0  0  0
  185.6830  179.4680  143.6750 C   0  0  0  0  0  1  0  0  0  0  0  0
  185.3970  178.3830  142.6590 C   0  0  2  0  0  3  0  0  0  0  0  0
  183.9660  178.1340  142.6100 N   0  0  0  0  0  1  0  0  0  0  0  0
  192.9300  174.4180  146.0390 C   0  0  0  0  0  2  0  0  0  0  0  0
  193.1910  175.8200  145.5100 C   0  0  2  0  0  3  0  0  0  0  0  0
  191.9080  176.5410  145.2350 C   0  0  0  0  0  0  0  0  0  0  0  0
  189.6730  177.2370  145.8950 C   0  0  0  0  0  0  0  0  0  0  0  0
  190.8650  176.5610  146.1750 C   0  0  0  0  0  3  0  0  0  0  0  0
  189.5290  177.8990  144.6660 C   0  0  0  0  0  3  0  0  0  0  0  0
  191.7510  177.2000  144.0120 C   0  0  0  0  0  3  0  0  0  0  0  0
  190.5640  177.8790  143.7280 C   0  0  0  0  0  3  0  0  0  0  0  0
  188.6520  177.2350  146.8520 O   0  0  0  0  0  0  0  0  0  0  0  0
  187.3470  177.7540  146.6040 C   0  0  0  0  0  2  0  0  0  0  0  0
  186.2860  176.7060  146.8970 C   0  0  0  0  0  2  0  0  0  0  0  0
  184.7390  178.4940  147.1490 O   0  0  0  0  0  1  0  0  0  0  0  0
  184.9110  177.2440  146.5550 C   0  0  0  0  0  2  0  0  0  0  0  0
  194.0840  175.7640  144.2730 C   0  0  0  0  0  2  0  0  0  0  0  0
  195.3860  176.5220  144.4900 C   0  0  0  0  0  2  0  0  0  0  0  0
  197.4530  176.6070  143.2940 O   0  0  0  0  0  1  0  0  0  0  0  0
  195.5580  176.5750  142.0020 O   0  0  0  0  0  0  0  0  0  0  0  0
  196.1960  176.5660  143.2370 C   0  0  0  0  0  0  0  0  0  0  0  0
  1  7  1  0  0  0  0
  3  6  1  0  0  0  0
  3  4  2  0  0  0  0
  4  5  1  0  0  0  0
  5  7  2  0  0  0  0
  5  2  1  0  0  0  0
  6  1  2  0  0  0  0
  7 25  1  0  0  0  0
  8  3  1  0  0  0  0
  9 10  2  0  0  0  0
 11  9  1  0  0  0  0
 11  6  1  0  0  0  0
 12 17  1  6  0  0  0
 12  9  1  0  0  0  0
 13 12  1  0  0  0  0
 14 13  1  0  0  0  0
 15 14  1  0  0  0  0
 16 14  2  0  0  0  0
 17 20  1  0  0  0  0
 18 19  2  0  0  0  0
 19 20  1  0  0  0  0
 19 21  1  0  0  0  0
 23 21  1  0  0  0  0
 23 22  1  1  0  0  0
 24 23  1  0  0  0  0
 26 38  1  6  0  0  0
 26 25  1  0  0  0  0
 27 26  1  0  0  0  0
 27 29  1  0  0  0  0
 28 29  2  0  0  0  0
 28 33  1  0  0  0  0
 30 28  1  0  0  0  0
 31 27  2  0  0  0  0
 32 31  1  0  0  0  0
 32 30  2  0  0  0  0
 34 33  1  0  0  0  0
 34 35  1  0  0  0  0
 37 35  1  0  0  0  0
 37 36  1  0  0  0  0
 38 39  1  0  0  0  0
 41 42  2  0  0  0  0
 42 40  1  0  0  0  0
 42 39  1  0  0  0  0
M  END
>  <MODEL>
1

>  <REMARK>
 VINA RESULT:      -6.4      0.000      0.000
  Name = 
  18 active torsions:
  status: ('A' for Active; 'I' for Inactive)
    1  A    between atoms: C_1  and  C_2
    2  A    between atoms: C_2  and  C_16
    3  A    between atoms: C_2  and  C_37
    4  A    between atoms: C_4  and  C_5
    5  A    between atoms: C_4  and  O_10
    6  A    between atoms: C_4  and  C_13
    7  A    between atoms: C_5  and  N_25
    8  A    between atoms: C_9  and  C_12
    9  A    between atoms: O_10  and  C_30
   10  A    between atoms: C_12  and  C_21
   11  A    between atoms: C_16  and  C_36
   12  A    between atoms: C_17  and  O_22
   13  A    between atoms: C_19  and  C_20
   14  A    between atoms: C_19  and  C_29
   15  A    between atoms: C_20  and  O_22
   16  A    between atoms: N_28  and  C_31
   17  A    between atoms: C_32  and  C_37
   18  A    between atoms: C_36  and  C_40
                            x       y       z     vdW  Elec       q    Type
                         _______ _______ _______ _____ _____    ______ ____

>  <TORSDO>
F 18

$$$$
=
 OpenBabel11062420033D

 42 43  0  0  1  0  0  0  0  0999 V2000
  190.9860  174.0500  141.7130 C   0  0  0  0  0  3  0  0  0  0  0  0
  188.5350  173.3520  138.9970 N   0  0  0  0  0  1  0  0  0  0  0  0
  192.0980  173.0460  139.8280 C   0  0  0  0  0  0  0  0  0  0  0  0
  190.9090  172.9940  139.1700 N   0  0  0  0  0  0  0  0  0  0  0  0
  189.7550  173.4460  139.7310 C   0  0  0  0  0  0  0  0  0  0  0  0
  192.1630  173.5790  141.1240 C   0  0  0  0  0  0  0  0  0  0  0  0
  189.7720  173.9890  141.0240 C   0  0  0  0  0  0  0  0  0  0  0  0
  193.2690  172.5350  139.1980 N   0  0  0  0  0  1  0  0  0  0  0  0
  194.4110  174.5880  141.8750 C   0  0  0  0  0  0  0  0  0  0  0  0
  194.3460  175.6110  141.0890 N   0  0  0  0  0  2  0  0  0  0  0  0
  193.4080  173.5600  141.8390 N   0  0  0  0  0  2  0  0  0  0  0  0
  195.4520  174.5630  142.9430 C   0  0  2  0  0  3  0  0  0  0  0  0
  195.1970  173.5020  143.8610 O   0  0  0  0  0  0  0  0  0  0  0  0
  196.2140  172.8730  144.5820 C   0  0  0  0  0  0  0  0  0  0  0  0
  195.9930  172.5130  145.9030 O   0  0  0  0  0  1  0  0  0  0  0  0
  197.3300  172.6310  144.0480 O   0  0  0  0  0  0  0  0  0  0  0  0
  195.5150  175.9090  143.6650 C   0  0  0  0  0  2  0  0  0  0  0  0
  195.0050  175.6830  146.4600 O   0  0  0  0  0  0  0  0  0  0  0  0
  194.0610  176.0690  145.7220 C   0  0  0  0  0  0  0  0  0  0  0  0
  194.2460  176.2040  144.3130 N   0  0  0  0  0  2  0  0  0  0  0  0
  192.7270  176.3620  146.3190 C   0  0  0  0  0  2  0  0  0  0  0  0
  191.2240  174.5560  145.5390 C   0  0  0  0  0  1  0  0  0  0  0  0
  192.0230  175.0740  146.7160 C   0  0  2  0  0  3  0  0  0  0  0  0
  191.1290  175.3210  147.8350 N   0  0  0  0  0  1  0  0  0  0  0  0
  188.5130  174.4360  141.6960 C   0  0  0  0  0  2  0  0  0  0  0  0
  188.4260  175.9550  141.6830 C   0  0  2  0  0  3  0  0  0  0  0  0
  188.5560  176.5150  143.0650 C   0  0  0  0  0  0  0  0  0  0  0  0
  187.7200  176.8100  145.3300 C   0  0  0  0  0  0  0  0  0  0  0  0
  187.5810  176.2730  144.0460 C   0  0  0  0  0  3  0  0  0  0  0  0
  188.8460  177.5920  145.6310 C   0  0  0  0  0  3  0  0  0  0  0  0
  189.6710  177.2990  143.3750 C   0  0  0  0  0  3  0  0  0  0  0  0
  189.8170  177.8360  144.6560 C   0  0  0  0  0  3  0  0  0  0  0  0
  186.7290  176.5520  146.2840 O   0  0  0  0  0  0  0  0  0  0  0  0
  185.3470  176.8300  146.0700 C   0  0  0  0  0  2  0  0  0  0  0  0
  184.8330  177.8260  147.0980 C   0  0  0  0  0  2  0  0  0  0  0  0
  186.4930  179.2100  148.0870 O   0  0  0  0  0  1  0  0  0  0  0  0
  185.6140  179.1210  147.0080 C   0  0  0  0  0  2  0  0  0  0  0  0
  187.1340  176.4080  141.0080 C   0  0  0  0  0  2  0  0  0  0  0  0
  187.0230  177.9260  140.9750 C   0  0  0  0  0  2  0  0  0  0  0  0
  185.3880  178.5820  142.5880 O   0  0  0  0  0  1  0  0  0  0  0  0
  184.6750  178.5460  140.4080 O   0  0  0  0  0  0  0  0  0  0  0  0
  185.6580  178.3730  141.3750 C   0  0  0  0  0  0  0  0  0  0  0  0
  2  5  1  0  0  0  0
  3  6  2  0  0  0  0
  4  5  2  0  0  0  0
  4  3  1  0  0  0  0
  5  7  1  0  0  0  0
  6  1  1  0  0  0  0
  6 11  1  0  0  0  0
  7 25  1  0  0  0  0
  7  1  2  0  0  0  0
  8  3  1  0  0  0  0
  9 12  1  0  0  0  0
 10  9  2  0  0  0  0
 11  9  1  0  0  0  0
 12 17  1  1  0  0  0
 12 13  1  0  0  0  0
 13 14  1  0  0  0  0
 14 15  1  0  0  0  0
 16 14  2  0  0  0  0
 17 20  1  0  0  0  0
 19 21  1  0  0  0  0
 19 18  2  0  0  0  0
 20 19  1  0  0  0  0
 21 23  1  0  0  0  0
 23 22  1  6  0  0  0
 23 24  1  0  0  0  0
 26 38  1  1  0  0  0
 26 25  1  0  0  0  0
 26 27  1  0  0  0  0
 27 31  2  0  0  0  0
 27 29  1  0  0  0  0
 28 30  1  0  0  0  0
 28 33  1  0  0  0  0
 29 28  2  0  0  0  0
 31 32  1  0  0  0  0
 32 30  2  0  0  0  0
 34 33  1  0  0  0  0
 34 35  1  0  0  0  0
 37 35  1  0  0  0  0
 37 36  1  0  0  0  0
 39 38  1  0  0  0  0
 39 42  1  0  0  0  0
 41 42  2  0  0  0  0
 42 40  1  0  0  0  0
M  END
>  <MODEL>
2

>  <REMARK>
 VINA RESULT:      -6.4      3.022      6.806
  Name = 
  18 active torsions:
  status: ('A' for Active; 'I' for Inactive)
    1  A    between atoms: C_1  and  C_2
    2  A    between atoms: C_2  and  C_16
    3  A    between atoms: C_2  and  C_37
    4  A    between atoms: C_4  and  C_5
    5  A    between atoms: C_4  and  O_10
    6  A    between atoms: C_4  and  C_13
    7  A    between atoms: C_5  and  N_25
    8  A    between atoms: C_9  and  C_12
    9  A    between atoms: O_10  and  C_30
   10  A    between atoms: C_12  and  C_21
   11  A    between atoms: C_16  and  C_36
   12  A    between atoms: C_17  and  O_22
   13  A    between atoms: C_19  and  C_20
   14  A    between atoms: C_19  and  C_29
   15  A    between atoms: C_20  and  O_22
   16  A    between atoms: N_28  and  C_31
   17  A    between atoms: C_32  and  C_37
   18  A    between atoms: C_36  and  C_40
                            x       y       z     vdW  Elec       q    Type
                         _______ _______ _______ _____ _____    ______ ____

>  <TORSDO>
F 18

$$$$
=
 OpenBabel11062420033D

 42 43  0  0  1  0  0  0  0  0999 V2000
  190.5210  173.6540  142.4840 C   0  0  0  0  0  3  0  0  0  0  0  0
  188.2170  174.6560  139.7360 N   0  0  0  0  0  1  0  0  0  0  0  0
  191.1770  172.5970  140.4230 C   0  0  0  0  0  0  0  0  0  0  0  0
  190.1450  173.2170  139.7910 N   0  0  0  0  0  0  0  0  0  0  0  0
  189.2900  174.0460  140.4500 C   0  0  0  0  0  0  0  0  0  0  0  0
  191.3900  172.8030  141.7940 C   0  0  0  0  0  0  0  0  0  0  0  0
  189.4650  174.2830  141.8210 C   0  0  0  0  0  0  0  0  0  0  0  0
  192.0250  171.7210  139.6860 N   0  0  0  0  0  1  0  0  0  0  0  0
  193.8070  172.4830  142.6240 C   0  0  0  0  0  0  0  0  0  0  0  0
  194.2820  173.5050  141.9930 N   0  0  0  0  0  2  0  0  0  0  0  0
  192.4350  172.0860  142.4680 N   0  0  0  0  0  2  0  0  0  0  0  0
  194.6550  171.8100  143.6520 C   0  0  2  0  0  3  0  0  0  0  0  0
  193.8410  171.2540  144.6810 O   0  0  0  0  0  0  0  0  0  0  0  0
  193.9950  169.9410  145.1330 C   0  0  0  0  0  0  0  0  0  0  0  0
  193.1800  168.9420  144.6210 O   0  0  0  0  0  0  0  0  0  0  0  0
  194.8620  169.6550  146.0020 O   0  0  0  0  0  1  0  0  0  0  0  0
  195.6770  172.7890  144.2300 C   0  0  0  0  0  2  0  0  0  0  0  0
  195.9450  175.6220  144.4030 O   0  0  0  0  0  0  0  0  0  0  0  0
  195.2410  175.0460  145.2740 C   0  0  0  0  0  0  0  0  0  0  0  0
  195.0640  173.6300  145.2470 N   0  0  0  0  0  2  0  0  0  0  0  0
  194.6070  175.8460  146.3600 C   0  0  0  0  0  2  0  0  0  0  0  0
  192.2920  175.1710  146.9180 C   0  0  0  0  0  1  0  0  0  0  0  0
  193.1360  176.0880  146.0590 C   0  0  2  0  0  3  0  0  0  0  0  0
  192.8660  175.8190  144.6570 N   0  0  0  0  0  1  0  0  0  0  0  0
  188.5080  175.1370  142.5900 C   0  0  0  0  0  2  0  0  0  0  0  0
  189.1710  176.4520  142.9710 C   0  0  2  0  0  3  0  0  0  0  0  0
  188.8940  176.8020  144.4000 C   0  0  0  0  0  0  0  0  0  0  0  0
  187.4290  176.8260  146.3410 C   0  0  0  0  0  0  0  0  0  0  0  0
  187.6680  176.4850  145.0050 C   0  0  0  0  0  3  0  0  0  0  0  0
  188.4280  177.4860  147.0730 C   0  0  0  0  0  3  0  0  0  0  0  0
  189.8810  177.4640  145.1370 C   0  0  0  0  0  3  0  0  0  0  0  0
  189.6490  177.8040  146.4720 C   0  0  0  0  0  3  0  0  0  0  0  0
  186.1950  176.4980  146.9140 O   0  0  0  0  0  0  0  0  0  0  0  0
  184.9430  176.8710  146.3410 C   0  0  0  0  0  2  0  0  0  0  0  0
  184.6580  178.3440  146.5850 C   0  0  0  0  0  2  0  0  0  0  0  0
  185.6560  179.7210  144.9230 O   0  0  0  0  0  1  0  0  0  0  0  0
  184.4730  179.0660  145.2660 C   0  0  0  0  0  2  0  0  0  0  0  0
  188.7340  177.5640  142.0210 C   0  0  0  0  0  2  0  0  0  0  0  0
  187.4010  178.1660  142.4410 C   0  0  0  0  0  2  0  0  0  0  0  0
  186.7530  177.7160  140.1860 O   0  0  0  0  0  0  0  0  0  0  0  0
  185.0620  178.3550  141.5970 O   0  0  0  0  0  1  0  0  0  0  0  0
  186.3950  178.0600  141.3440 C   0  0  0  0  0  0  0  0  0  0  0  0
  2  5  1  0  0  0  0
  3  6  1  0  0  0  0
  4  3  2  0  0  0  0
  4  5  1  0  0  0  0
  5  7  2  0  0  0  0
  6 11  1  0  0  0  0
  6  1  2  0  0  0  0
  7  1  1  0  0  0  0
  7 25  1  0  0  0  0
  8  3  1  0  0  0  0
  9 12  1  0  0  0  0
 10  9  2  0  0  0  0
 11  9  1  0  0  0  0
 12 17  1  1  0  0  0
 12 13  1  0  0  0  0
 13 14  1  0  0  0  0
 14 16  1  0  0  0  0
 15 14  2  0  0  0  0
 17 20  1  0  0  0  0
 18 19  2  0  0  0  0
 19 21  1  0  0  0  0
 20 19  1  0  0  0  0
 23 21  1  0  0  0  0
 23 22  1  1  0  0  0
 24 23  1  0  0  0  0
 25 26  1  0  0  0  0
 26 38  1  6  0  0  0
 26 27  1  0  0  0  0
 27 29  2  0  0  0  0
 27 31  1  0  0  0  0
 28 33  1  0  0  0  0
 28 30  2  0  0  0  0
 29 28  1  0  0  0  0
 31 32  2  0  0  0  0
 32 30  1  0  0  0  0
 34 35  1  0  0  0  0
 34 33  1  0  0  0  0
 36 37  1  0  0  0  0
 37 35  1  0  0  0  0
 38 39  1  0  0  0  0
 40 42  2  0  0  0  0
 42 41  1  0  0  0  0
 42 39  1  0  0  0  0
M  END
>  <MODEL>
3

>  <REMARK>
 VINA RESULT:      -6.1      2.663      6.658
  Name = 
  18 active torsions:
  status: ('A' for Active; 'I' for Inactive)
    1  A    between atoms: C_1  and  C_2
    2  A    between atoms: C_2  and  C_16
    3  A    between atoms: C_2  and  C_37
    4  A    between atoms: C_4  and  C_5
    5  A    between atoms: C_4  and  O_10
    6  A    between atoms: C_4  and  C_13
    7  A    between atoms: C_5  and  N_25
    8  A    between atoms: C_9  and  C_12
    9  A    between atoms: O_10  and  C_30
   10  A    between atoms: C_12  and  C_21
   11  A    between atoms: C_16  and  C_36
   12  A    between atoms: C_17  and  O_22
   13  A    between atoms: C_19  and  C_20
   14  A    between atoms: C_19  and  C_29
   15  A    between atoms: C_20  and  O_22
   16  A    between atoms: N_28  and  C_31
   17  A    between atoms: C_32  and  C_37
   18  A    between atoms: C_36  and  C_40
                            x       y       z     vdW  Elec       q    Type
                         _______ _______ _______ _____ _____    ______ ____

>  <TORSDO>
F 18

$$$$
=
 OpenBabel11062420033D

 42 43  0  0  1  0  0  0  0  0999 V2000
  193.8230  175.3880  141.9820 C   0  0  0  0  0  3  0  0  0  0  0  0
  196.9260  177.0540  143.1900 N   0  0  0  0  0  1  0  0  0  0  0  0
  195.4930  175.3900  140.2480 C   0  0  0  0  0  0  0  0  0  0  0  0
  196.3470  176.0320  141.0900 N   0  0  0  0  0  0  0  0  0  0  0  0
  195.9920  176.3680  142.3590 C   0  0  0  0  0  0  0  0  0  0  0  0
  194.2020  175.0510  140.6790 C   0  0  0  0  0  0  0  0  0  0  0  0
  194.7120  176.0480  142.8340 C   0  0  0  0  0  0  0  0  0  0  0  0
  195.9140  175.0860  138.9220 N   0  0  0  0  0  1  0  0  0  0  0  0
  192.9920  173.0430  139.6140 C   0  0  0  0  0  0  0  0  0  0  0  0
  193.6950  172.1480  140.2240 N   0  0  0  0  0  2  0  0  0  0  0  0
  193.2820  174.4430  139.7600 N   0  0  0  0  0  2  0  0  0  0  0  0
  191.7610  172.6200  138.8830 C   0  0  2  0  0  3  0  0  0  0  0  0
  190.8720  173.7230  138.7260 O   0  0  0  0  0  0  0  0  0  0  0  0
  189.9860  173.8260  137.6510 C   0  0  0  0  0  0  0  0  0  0  0  0
  188.6520  173.4930  137.8310 O   0  0  0  0  0  1  0  0  0  0  0  0
  190.3850  174.2140  136.5200 O   0  0  0  0  0  0  0  0  0  0  0  0
  191.0760  171.4620  139.6080 C   0  0  0  0  0  2  0  0  0  0  0  0
  190.8220  170.2690  142.1840 O   0  0  0  0  0  0  0  0  0  0  0  0
  190.1520  171.3100  141.9520 C   0  0  0  0  0  0  0  0  0  0  0  0
  190.2310  171.9590  140.6840 N   0  0  0  0  0  2  0  0  0  0  0  0
  189.2460  171.8560  143.0030 C   0  0  0  0  0  2  0  0  0  0  0  0
  189.8180  172.9590  145.1430 C   0  0  0  0  0  1  0  0  0  0  0  0
  189.8470  173.1000  143.6360 C   0  0  2  0  0  3  0  0  0  0  0  0
  189.0850  174.2740  143.2470 N   0  0  0  0  0  1  0  0  0  0  0  0
  194.2650  176.4570  144.2010 C   0  0  0  0  0  2  0  0  0  0  0  0
  193.7640  175.2450  144.9720 C   0  0  2  0  0  3  0  0  0  0  0  0
  192.5070  175.5630  145.7200 C   0  0  0  0  0  0  0  0  0  0  0  0
  190.2850  176.5460  145.8300 C   0  0  0  0  0  0  0  0  0  0  0  0
  191.4490  176.2560  145.1110 C   0  0  0  0  0  3  0  0  0  0  0  0
  190.1820  176.1350  147.1680 C   0  0  0  0  0  3  0  0  0  0  0  0
  192.3950  175.1630  147.0550 C   0  0  0  0  0  3  0  0  0  0  0  0
  191.2340  175.4470  147.7780 C   0  0  0  0  0  3  0  0  0  0  0  0
  189.2500  177.2410  145.1940 O   0  0  0  0  0  0  0  0  0  0  0  0
  188.0360  177.6050  145.8480 C   0  0  0  0  0  2  0  0  0  0  0  0
  186.8340  177.2430  144.9900 C   0  0  0  0  0  2  0  0  0  0  0  0
  185.9510  177.0710  147.1900 O   0  0  0  0  0  1  0  0  0  0  0  0
  185.7050  176.7290  145.8600 C   0  0  0  0  0  2  0  0  0  0  0  0
  194.8550  174.7160  145.8990 C   0  0  0  0  0  2  0  0  0  0  0  0
  195.3710  173.3600  145.4380 C   0  0  0  0  0  2  0  0  0  0  0  0
  197.6110  174.0880  145.0390 O   0  0  0  0  0  1  0  0  0  0  0  0
  196.5850  173.0250  143.2850 O   0  0  0  0  0  0  0  0  0  0  0  0
  196.5870  173.5110  144.5870 C   0  0  0  0  0  0  0  0  0  0  0  0
  1  7  1  0  0  0  0
  3  6  1  0  0  0  0
  3  4  2  0  0  0  0
  4  5  1  0  0  0  0
  5  7  2  0  0  0  0
  5  2  1  0  0  0  0
  6  1  2  0  0  0  0
  7 25  1  0  0  0  0
  8  3  1  0  0  0  0
  9 11  1  0  0  0  0
  9 10  2  0  0  0  0
 11  6  1  0  0  0  0
 12 17  1  1  0  0  0
 12  9  1  0  0  0  0
 13 12  1  0  0  0  0
 14 15  1  0  0  0  0
 14 13  1  0  0  0  0
 16 14  2  0  0  0  0
 17 20  1  0  0  0  0
 19 18  2  0  0  0  0
 19 21  1  0  0  0  0
 20 19  1  0  0  0  0
 21 23  1  0  0  0  0
 23 22  1  1  0  0  0
 24 23  1  0  0  0  0
 26 25  1  1  0  0  0
 26 27  1  0  0  0  0
 26 38  1  0  0  0  0
 27 31  1  0  0  0  0
 28 30  2  0  0  0  0
 29 27  2  0  0  0  0
 29 28  1  0  0  0  0
 30 32  1  0  0  0  0
 31 32  2  0  0  0  0
 33 28  1  0  0  0  0
 33 34  1  0  0  0  0
 35 34  1  0  0  0  0
 35 37  1  0  0  0  0
 37 36  1  0  0  0  0
 39 38  1  0  0  0  0
 41 42  2  0  0  0  0
 42 40  1  0  0  0  0
 42 39  1  0  0  0  0
M  END
>  <MODEL>
4

>  <REMARK>
 VINA RESULT:      -6.1      2.636      4.253
  Name = 
  18 active torsions:
  status: ('A' for Active; 'I' for Inactive)
    1  A    between atoms: C_1  and  C_2
    2  A    between atoms: C_2  and  C_16
    3  A    between atoms: C_2  and  C_37
    4  A    between atoms: C_4  and  C_5
    5  A    between atoms: C_4  and  O_10
    6  A    between atoms: C_4  and  C_13
    7  A    between atoms: C_5  and  N_25
    8  A    between atoms: C_9  and  C_12
    9  A    between atoms: O_10  and  C_30
   10  A    between atoms: C_12  and  C_21
   11  A    between atoms: C_16  and  C_36
   12  A    between atoms: C_17  and  O_22
   13  A    between atoms: C_19  and  C_20
   14  A    between atoms: C_19  and  C_29
   15  A    between atoms: C_20  and  O_22
   16  A    between atoms: N_28  and  C_31
   17  A    between atoms: C_32  and  C_37
   18  A    between atoms: C_36  and  C_40
                            x       y       z     vdW  Elec       q    Type
                         _______ _______ _______ _____ _____    ______ ____

>  <TORSDO>
F 18

$$$$
=
 OpenBabel11062420033D

 42 43  0  0  1  0  0  0  0  0999 V2000
  192.5360  176.0500  144.0830 C   0  0  0  0  0  3  0  0  0  0  0  0
  192.1940  176.8320  147.7070 N   0  0  0  0  0  1  0  0  0  0  0  0
  194.5840  175.5380  145.2400 C   0  0  0  0  0  0  0  0  0  0  0  0
  194.0120  175.9450  146.4050 N   0  0  0  0  0  0  0  0  0  0  0  0
  192.7330  176.4050  146.4580 C   0  0  0  0  0  0  0  0  0  0  0  0
  193.8530  175.5820  144.0430 C   0  0  0  0  0  0  0  0  0  0  0  0
  191.9640  176.4660  145.2870 C   0  0  0  0  0  0  0  0  0  0  0  0
  195.9360  175.0880  145.2430 N   0  0  0  0  0  1  0  0  0  0  0  0
  194.7080  173.8990  142.2920 C   0  0  0  0  0  0  0  0  0  0  0  0
  194.4820  172.8540  143.0150 N   0  0  0  0  0  2  0  0  0  0  0  0
  194.4880  175.2220  142.8080 N   0  0  0  0  0  2  0  0  0  0  0  0
  195.0420  173.7200  140.8480 C   0  0  2  0  0  3  0  0  0  0  0  0
  195.1420  174.9850  140.2000 O   0  0  0  0  0  0  0  0  0  0  0  0
  196.2780  175.3750  139.4860 C   0  0  0  0  0  0  0  0  0  0  0  0
  197.3670  175.8970  140.1680 O   0  0  0  0  0  1  0  0  0  0  0  0
  196.3230  175.2630  138.2310 O   0  0  0  0  0  0  0  0  0  0  0  0
  194.0030  172.8320  140.1620 C   0  0  0  0  0  2  0  0  0  0  0  0
  191.6680  171.8530  141.4690 O   0  0  0  0  0  0  0  0  0  0  0  0
  191.5710  172.9330  140.8300 C   0  0  0  0  0  0  0  0  0  0  0  0
  192.7010  173.4810  140.1510 N   0  0  0  0  0  2  0  0  0  0  0  0
  190.2580  173.6350  140.7570 C   0  0  0  0  0  2  0  0  0  0  0  0
  188.3830  174.3180  139.2930 C   0  0  0  0  0  1  0  0  0  0  0  0
  189.6560  173.5030  139.3670 C   0  0  2  0  0  3  0  0  0  0  0  0
  189.3530  172.1100  139.0880 N   0  0  0  0  0  1  0  0  0  0  0  0
  190.5770  177.0250  145.2970 C   0  0  0  0  0  2  0  0  0  0  0  0
  189.6290  176.0850  144.5680 C   0  0  2  0  0  3  0  0  0  0  0  0
  188.6910  176.8430  143.6820 C   0  0  0  0  0  0  0  0  0  0  0  0
  186.8600  178.4130  143.3680 C   0  0  0  0  0  0  0  0  0  0  0  0
  187.7300  177.7170  144.2140 C   0  0  0  0  0  3  0  0  0  0  0  0
  186.9580  178.2310  141.9790 C   0  0  0  0  0  3  0  0  0  0  0  0
  188.7770  176.6670  142.2980 C   0  0  0  0  0  3  0  0  0  0  0  0
  187.9130  177.3610  141.4480 C   0  0  0  0  0  3  0  0  0  0  0  0
  185.9110  179.2740  143.9300 O   0  0  0  0  0  0  0  0  0  0  0  0
  184.6500  178.8310  144.4260 C   0  0  0  0  0  2  0  0  0  0  0  0
  184.6250  178.8720  145.9450 C   0  0  0  0  0  2  0  0  0  0  0  0
  185.8230  177.1530  147.0680 O   0  0  0  0  0  1  0  0  0  0  0  0
  184.5850  177.4650  146.5060 C   0  0  0  0  0  2  0  0  0  0  0  0
  188.8790  175.2060  145.5660 C   0  0  0  0  0  2  0  0  0  0  0  0
  189.7210  174.0180  146.0090 C   0  0  0  0  0  2  0  0  0  0  0  0
  189.2650  172.7910  144.0110 O   0  0  0  0  0  0  0  0  0  0  0  0
  191.4600  172.8270  144.6750 O   0  0  0  0  0  1  0  0  0  0  0  0
  190.1270  173.1840  144.8400 C   0  0  0  0  0  0  0  0  0  0  0  0
  1  7  1  0  0  0  0
  3  8  1  0  0  0  0
  3  4  2  0  0  0  0
  4  5  1  0  0  0  0
  5  2  1  0  0  0  0
  6  1  2  0  0  0  0
  6  3  1  0  0  0  0
  7 25  1  0  0  0  0
  7  5  2  0  0  0  0
  9 11  1  0  0  0  0
  9 10  2  0  0  0  0
 11  6  1  0  0  0  0
 12 17  1  6  0  0  0
 12  9  1  0  0  0  0
 13 12  1  0  0  0  0
 14 15  1  0  0  0  0
 14 13  1  0  0  0  0
 16 14  2  0  0  0  0
 19 18  2  0  0  0  0
 20 17  1  0  0  0  0
 20 19  1  0  0  0  0
 21 19  1  0  0  0  0
 23 22  1  1  0  0  0
 23 21  1  0  0  0  0
 24 23  1  0  0  0  0
 26 25  1  1  0  0  0
 26 38  1  0  0  0  0
 27 29  1  0  0  0  0
 27 26  1  0  0  0  0
 28 33  1  0  0  0  0
 28 29  2  0  0  0  0
 30 28  1  0  0  0  0
 31 27  2  0  0  0  0
 32 30  2  0  0  0  0
 32 31  1  0  0  0  0
 33 34  1  0  0  0  0
 34 35  1  0  0  0  0
 35 37  1  0  0  0  0
 37 36  1  0  0  0  0
 38 39  1  0  0  0  0
 40 42  2  0  0  0  0
 41 42  1  0  0  0  0
 42 39  1  0  0  0  0
M  END
>  <MODEL>
5

>  <REMARK>
 VINA RESULT:      -6.1      2.796      5.593
  Name = 
  18 active torsions:
  status: ('A' for Active; 'I' for Inactive)
    1  A    between atoms: C_1  and  C_2
    2  A    between atoms: C_2  and  C_16
    3  A    between atoms: C_2  and  C_37
    4  A    between atoms: C_4  and  C_5
    5  A    between atoms: C_4  and  O_10
    6  A    between atoms: C_4  and  C_13
    7  A    between atoms: C_5  and  N_25
    8  A    between atoms: C_9  and  C_12
    9  A    between atoms: O_10  and  C_30
   10  A    between atoms: C_12  and  C_21
   11  A    between atoms: C_16  and  C_36
   12  A    between atoms: C_17  and  O_22
   13  A    between atoms: C_19  and  C_20
   14  A    between atoms: C_19  and  C_29
   15  A    between atoms: C_20  and  O_22
   16  A    between atoms: N_28  and  C_31
   17  A    between atoms: C_32  and  C_37
   18  A    between atoms: C_36  and  C_40
                            x       y       z     vdW  Elec       q    Type
                         _______ _______ _______ _____ _____    ______ ____

>  <TORSDO>
F 18

$$$$
=
 OpenBabel11062420033D

 42 43  0  0  1  0  0  0  0  0999 V2000
  191.4680  175.9360  144.1060 C   0  0  0  0  0  3  0  0  0  0  0  0
  194.0260  176.5350  146.7450 N   0  0  0  0  0  1  0  0  0  0  0  0
  190.3960  176.3980  146.2120 C   0  0  0  0  0  0  0  0  0  0  0  0
  191.6200  176.5400  146.7890 N   0  0  0  0  0  0  0  0  0  0  0  0
  192.7720  176.3900  146.0810 C   0  0  0  0  0  0  0  0  0  0  0  0
  190.2920  176.0900  144.8470 C   0  0  0  0  0  0  0  0  0  0  0  0
  192.7170  176.0830  144.7140 C   0  0  0  0  0  0  0  0  0  0  0  0
  189.2250  176.5440  147.0100 N   0  0  0  0  0  1  0  0  0  0  0  0
  188.3360  176.6750  143.2770 C   0  0  0  0  0  0  0  0  0  0  0  0
  188.8080  177.8260  142.9280 N   0  0  0  0  0  2  0  0  0  0  0  0
  188.9990  175.8690  144.2650 N   0  0  0  0  0  2  0  0  0  0  0  0
  187.1790  176.1100  142.5220 C   0  0  2  0  0  3  0  0  0  0  0  0
  187.6260  175.4900  141.3190 O   0  0  0  0  0  0  0  0  0  0  0  0
  188.3930  174.3230  141.3160 C   0  0  0  0  0  0  0  0  0  0  0  0
  187.8040  173.1170  141.6660 O   0  0  0  0  0  1  0  0  0  0  0  0
  189.6140  174.3530  141.0030 O   0  0  0  0  0  0  0  0  0  0  0  0
  186.1460  177.1980  142.2280 C   0  0  0  0  0  2  0  0  0  0  0  0
  185.9830  179.4020  144.0270 O   0  0  0  0  0  0  0  0  0  0  0  0
  185.1720  178.4520  144.1900 C   0  0  0  0  0  0  0  0  0  0  0  0
  185.1980  177.3170  143.3260 N   0  0  0  0  0  2  0  0  0  0  0  0
  184.1930  178.4980  145.3130 C   0  0  0  0  0  2  0  0  0  0  0  0
  185.5830  178.9440  147.3120 C   0  0  0  0  0  1  0  0  0  0  0  0
  184.7910  177.8880  146.5710 C   0  0  2  0  0  3  0  0  0  0  0  0
  185.6680  176.7850  146.2190 N   0  0  0  0  0  1  0  0  0  0  0  0
  193.9620  175.8490  143.9190 C   0  0  0  0  0  2  0  0  0  0  0  0
  194.0660  174.3810  143.5330 C   0  0  2  0  0  3  0  0  0  0  0  0
  195.0070  173.6500  144.4390 C   0  0  0  0  0  0  0  0  0  0  0  0
  195.6500  171.6640  145.6860 C   0  0  0  0  0  0  0  0  0  0  0  0
  194.7600  172.3260  144.8340 C   0  0  0  0  0  3  0  0  0  0  0  0
  196.7970  172.3340  146.1390 C   0  0  0  0  0  3  0  0  0  0  0  0
  196.1500  174.3090  144.9000 C   0  0  0  0  0  3  0  0  0  0  0  0
  197.0450  173.6520  145.7480 C   0  0  0  0  0  3  0  0  0  0  0  0
  195.3730  170.3450  146.0640 O   0  0  0  0  0  0  0  0  0  0  0  0
  194.6250  169.4400  145.2550 C   0  0  0  0  0  2  0  0  0  0  0  0
  195.5100  168.8130  144.1900 C   0  0  0  0  0  2  0  0  0  0  0  0
  193.5150  169.3340  143.0060 O   0  0  0  0  0  1  0  0  0  0  0  0
  194.7640  168.7260  142.8740 C   0  0  0  0  0  2  0  0  0  0  0  0
  194.4710  174.2440  142.0670 C   0  0  0  0  0  2  0  0  0  0  0  0
  194.2620  175.5450  141.3050 C   0  0  0  0  0  2  0  0  0  0  0  0
  195.9880  175.4960  139.6550 O   0  0  0  0  0  0  0  0  0  0  0  0
  196.2450  177.0560  141.3160 O   0  0  0  0  0  1  0  0  0  0  0  0
  195.5400  176.0270  140.7050 C   0  0  0  0  0  0  0  0  0  0  0  0
  1  7  2  0  0  0  0
  1  6  1  0  0  0  0
  3  4  1  0  0  0  0
  3  8  1  0  0  0  0
  5  2  1  0  0  0  0
  5  4  2  0  0  0  0
  6  3  2  0  0  0  0
  7  5  1  0  0  0  0
  9 11  1  0  0  0  0
 10  9  2  0  0  0  0
 11  6  1  0  0  0  0
 12 17  1  6  0  0  0
 12  9  1  0  0  0  0
 13 12  1  0  0  0  0
 14 13  1  0  0  0  0
 14 15  1  0  0  0  0
 16 14  2  0  0  0  0
 17 20  1  0  0  0  0
 18 19  2  0  0  0  0
 19 21  1  0  0  0  0
 20 19  1  0  0  0  0
 21 23  1  0  0  0  0
 23 22  1  6  0  0  0
 24 23  1  0  0  0  0
 25  7  1  0  0  0  0
 26 38  1  6  0  0  0
 26 25  1  0  0  0  0
 26 27  1  0  0  0  0
 27 29  2  0  0  0  0
 27 31  1  0  0  0  0
 28 33  1  0  0  0  0
 28 30  2  0  0  0  0
 29 28  1  0  0  0  0
 31 32  2  0  0  0  0
 32 30  1  0  0  0  0
 34 33  1  0  0  0  0
 35 34  1  0  0  0  0
 37 36  1  0  0  0  0
 37 35  1  0  0  0  0
 39 38  1  0  0  0  0
 40 42  2  0  0  0  0
 42 39  1  0  0  0  0
 42 41  1  0  0  0  0
M  END
>  <MODEL>
6

>  <REMARK>
 VINA RESULT:      -6.0      2.981      6.073
  Name = 
  18 active torsions:
  status: ('A' for Active; 'I' for Inactive)
    1  A    between atoms: C_1  and  C_2
    2  A    between atoms: C_2  and  C_16
    3  A    between atoms: C_2  and  C_37
    4  A    between atoms: C_4  and  C_5
    5  A    between atoms: C_4  and  O_10
    6  A    between atoms: C_4  and  C_13
    7  A    between atoms: C_5  and  N_25
    8  A    between atoms: C_9  and  C_12
    9  A    between atoms: O_10  and  C_30
   10  A    between atoms: C_12  and  C_21
   11  A    between atoms: C_16  and  C_36
   12  A    between atoms: C_17  and  O_22
   13  A    between atoms: C_19  and  C_20
   14  A    between atoms: C_19  and  C_29
   15  A    between atoms: C_20  and  O_22
   16  A    between atoms: N_28  and  C_31
   17  A    between atoms: C_32  and  C_37
   18  A    between atoms: C_36  and  C_40
                            x       y       z     vdW  Elec       q    Type
                         _______ _______ _______ _____ _____    ______ ____

>  <TORSDO>
F 18

$$$$
=
 OpenBabel11062420033D

 42 43  0  0  1  0  0  0  0  0999 V2000
  194.0170  175.3810  141.6670 C   0  0  0  0  0  3  0  0  0  0  0  0
  197.0770  176.9090  143.1380 N   0  0  0  0  0  1  0  0  0  0  0  0
  195.7870  175.4320  140.0350 C   0  0  0  0  0  0  0  0  0  0  0  0
  196.6030  176.0100  140.9580 N   0  0  0  0  0  0  0  0  0  0  0  0
  196.1800  176.2890  142.2200 C   0  0  0  0  0  0  0  0  0  0  0  0
  194.4660  175.1020  140.3720 C   0  0  0  0  0  0  0  0  0  0  0  0
  194.8680  175.9750  142.6020 C   0  0  0  0  0  0  0  0  0  0  0  0
  196.2790  175.1850  138.7210 N   0  0  0  0  0  1  0  0  0  0  0  0
  193.2540  173.1820  139.1570 C   0  0  0  0  0  0  0  0  0  0  0  0
  193.8760  172.2390  139.7830 N   0  0  0  0  0  2  0  0  0  0  0  0
  193.5900  174.5620  139.3710 N   0  0  0  0  0  2  0  0  0  0  0  0
  192.0630  172.8350  138.3270 C   0  0  2  0  0  3  0  0  0  0  0  0
  191.6580  173.9560  137.5450 O   0  0  0  0  0  0  0  0  0  0  0  0
  191.6660  173.9400  136.1490 C   0  0  0  0  0  0  0  0  0  0  0  0
  192.6700  174.6090  135.4630 O   0  0  0  0  0  0  0  0  0  0  0  0
  190.7720  173.3280  135.5050 O   0  0  0  0  0  1  0  0  0  0  0  0
  190.9180  172.3410  139.2110 C   0  0  0  0  0  2  0  0  0  0  0  0
  191.0250  172.7140  142.0350 O   0  0  0  0  0  0  0  0  0  0  0  0
  190.4070  173.5740  141.3540 C   0  0  0  0  0  0  0  0  0  0  0  0
  190.3130  173.4490  139.9350 N   0  0  0  0  0  2  0  0  0  0  0  0
  189.7410  174.7190  142.0370 C   0  0  0  0  0  2  0  0  0  0  0  0
  187.5610  175.6610  142.7330 C   0  0  0  0  0  1  0  0  0  0  0  0
  188.2410  174.6930  141.7890 C   0  0  2  0  0  3  0  0  0  0  0  0
  187.7240  173.3550  142.0140 N   0  0  0  0  0  1  0  0  0  0  0  0
  194.3490  176.3250  143.9600 C   0  0  0  0  0  2  0  0  0  0  0  0
  193.1390  175.4670  144.2950 C   0  0  2  0  0  3  0  0  0  0  0  0
  191.9230  176.3110  144.5150 C   0  0  0  0  0  0  0  0  0  0  0  0
  189.9410  176.8970  145.7980 C   0  0  0  0  0  0  0  0  0  0  0  0
  191.0750  176.0990  145.6140 C   0  0  0  0  0  3  0  0  0  0  0  0
  189.6590  177.9160  144.8750 C   0  0  0  0  0  3  0  0  0  0  0  0
  191.6290  177.3260  143.5990 C   0  0  0  0  0  3  0  0  0  0  0  0
  190.4990  178.1270  143.7790 C   0  0  0  0  0  3  0  0  0  0  0  0
  189.1150  176.6580  146.9030 O   0  0  0  0  0  0  0  0  0  0  0  0
  187.8330  176.0410  146.8010 C   0  0  0  0  0  2  0  0  0  0  0  0
  186.7310  177.0370  147.1210 C   0  0  0  0  0  2  0  0  0  0  0  0
  184.4680  177.4350  146.5110 O   0  0  0  0  0  1  0  0  0  0  0  0
  185.7130  177.0700  145.9990 C   0  0  0  0  0  2  0  0  0  0  0  0
  193.4340  174.5760  145.4980 C   0  0  0  0  0  2  0  0  0  0  0  0
  194.9270  174.5020  145.7860 C   0  0  0  0  0  2  0  0  0  0  0  0
  196.5080  173.1510  144.6100 O   0  0  0  0  0  0  0  0  0  0  0  0
  194.8860  172.0080  145.7590 O   0  0  0  0  0  1  0  0  0  0  0  0
  195.4920  173.1910  145.3530 C   0  0  0  0  0  0  0  0  0  0  0  0
  1  7  1  0  0  0  0
  3  6  1  0  0  0  0
  3  4  2  0  0  0  0
  4  5  1  0  0  0  0
  5  7  2  0  0  0  0
  5  2  1  0  0  0  0
  6  1  2  0  0  0  0
  7 25  1  0  0  0  0
  8  3  1  0  0  0  0
  9 11  1  0  0  0  0
  9 10  2  0  0  0  0
 11  6  1  0  0  0  0
 12  9  1  0  0  0  0
 12 17  1  1  0  0  0
 13 12  1  0  0  0  0
 14 13  1  0  0  0  0
 15 14  2  0  0  0  0
 16 14  1  0  0  0  0
 17 20  1  0  0  0  0
 19 18  2  0  0  0  0
 19 21  1  0  0  0  0
 20 19  1  0  0  0  0
 23 24  1  0  0  0  0
 23 21  1  0  0  0  0
 23 22  1  1  0  0  0
 26 25  1  1  0  0  0
 26 27  1  0  0  0  0
 26 38  1  0  0  0  0
 27 29  1  0  0  0  0
 28 33  1  0  0  0  0
 29 28  2  0  0  0  0
 30 28  1  0  0  0  0
 31 32  1  0  0  0  0
 31 27  2  0  0  0  0
 32 30  2  0  0  0  0
 34 33  1  0  0  0  0
 34 35  1  0  0  0  0
 37 36  1  0  0  0  0
 37 35  1  0  0  0  0
 38 39  1  0  0  0  0
 40 42  2  0  0  0  0
 42 41  1  0  0  0  0
 42 39  1  0  0  0  0
M  END
>  <MODEL>
7

>  <REMARK>
 VINA RESULT:      -5.8      2.828      3.964
  Name = 
  18 active torsions:
  status: ('A' for Active; 'I' for Inactive)
    1  A    between atoms: C_1  and  C_2
    2  A    between atoms: C_2  and  C_16
    3  A    between atoms: C_2  and  C_37
    4  A    between atoms: C_4  and  C_5
    5  A    between atoms: C_4  and  O_10
    6  A    between atoms: C_4  and  C_13
    7  A    between atoms: C_5  and  N_25
    8  A    between atoms: C_9  and  C_12
    9  A    between atoms: O_10  and  C_30
   10  A    between atoms: C_12  and  C_21
   11  A    between atoms: C_16  and  C_36
   12  A    between atoms: C_17  and  O_22
   13  A    between atoms: C_19  and  C_20
   14  A    between atoms: C_19  and  C_29
   15  A    between atoms: C_20  and  O_22
   16  A    between atoms: N_28  and  C_31
   17  A    between atoms: C_32  and  C_37
   18  A    between atoms: C_36  and  C_40
                            x       y       z     vdW  Elec       q    Type
                         _______ _______ _______ _____ _____    ______ ____

>  <TORSDO>
F 18

$$$$
=
 OpenBabel11062420033D

 42 43  0  0  1  0  0  0  0  0999 V2000
  191.9650  175.7470  144.7520 C   0  0  0  0  0  3  0  0  0  0  0  0
  191.5860  177.2110  148.1550 N   0  0  0  0  0  1  0  0  0  0  0  0
  193.9690  175.3900  146.0380 C   0  0  0  0  0  0  0  0  0  0  0  0
  193.3920  176.0300  147.0900 N   0  0  0  0  0  0  0  0  0  0  0  0
  192.1320  176.5370  147.0230 C   0  0  0  0  0  0  0  0  0  0  0  0
  193.2630  175.2330  144.8360 C   0  0  0  0  0  0  0  0  0  0  0  0
  191.3870  176.4020  145.8420 C   0  0  0  0  0  0  0  0  0  0  0  0
  195.3010  174.9000  146.1610 N   0  0  0  0  0  1  0  0  0  0  0  0
  194.1540  175.2120  142.4200 C   0  0  0  0  0  0  0  0  0  0  0  0
  193.6440  176.3540  142.0990 N   0  0  0  0  0  2  0  0  0  0  0  0
  193.9060  174.6230  143.7070 N   0  0  0  0  0  2  0  0  0  0  0  0
  195.1470  174.5810  141.5010 C   0  0  2  0  0  3  0  0  0  0  0  0
  196.2900  175.4190  141.3520 O   0  0  0  0  0  0  0  0  0  0  0  0
  197.1630  175.6920  142.4070 C   0  0  0  0  0  0  0  0  0  0  0  0
  197.1800  176.9600  142.9690 O   0  0  0  0  0  1  0  0  0  0  0  0
  197.9380  174.8030  142.8500 O   0  0  0  0  0  0  0  0  0  0  0  0
  194.5080  174.2770  140.1460 C   0  0  0  0  0  2  0  0  0  0  0  0
  191.6840  173.9390  139.9590 O   0  0  0  0  0  0  0  0  0  0  0  0
  192.3910  172.9040  140.0810 C   0  0  0  0  0  0  0  0  0  0  0  0
  193.8110  173.0000  140.1810 N   0  0  0  0  0  2  0  0  0  0  0  0
  191.7380  171.5660  140.1510 C   0  0  0  0  0  2  0  0  0  0  0  0
  191.2120  169.6250  141.5940 C   0  0  0  0  0  1  0  0  0  0  0  0
  192.0230  170.8990  141.4870 C   0  0  2  0  0  3  0  0  0  0  0  0
  191.6640  171.7920  142.5750 N   0  0  0  0  0  1  0  0  0  0  0  0
  190.0240  177.0030  145.7100 C   0  0  0  0  0  2  0  0  0  0  0  0
  189.0020  175.9170  145.4080 C   0  0  2  0  0  3  0  0  0  0  0  0
  188.5050  176.0200  144.0000 C   0  0  0  0  0  0  0  0  0  0  0  0
  187.3540  177.2300  142.2310 C   0  0  0  0  0  0  0  0  0  0  0  0
  187.8150  177.1570  143.5500 C   0  0  0  0  0  3  0  0  0  0  0  0
  187.5920  176.1560  141.3590 C   0  0  0  0  0  3  0  0  0  0  0  0
  188.7310  174.9550  143.1230 C   0  0  0  0  0  3  0  0  0  0  0  0
  188.2770  175.0230  141.8050 C   0  0  0  0  0  3  0  0  0  0  0  0
  186.6670  178.3760  141.8150 O   0  0  0  0  0  0  0  0  0  0  0  0
  185.2460  178.4890  141.8450 C   0  0  0  0  0  2  0  0  0  0  0  0
  184.6920  177.9620  143.1580 C   0  0  0  0  0  2  0  0  0  0  0  0
  185.3160  179.9670  144.2740 O   0  0  0  0  0  1  0  0  0  0  0  0
  184.2390  179.1130  144.0340 C   0  0  0  0  0  2  0  0  0  0  0  0
  187.8580  175.9680  146.4170 C   0  0  0  0  0  2  0  0  0  0  0  0
  187.6900  177.3630  147.0030 C   0  0  0  0  0  2  0  0  0  0  0  0
  185.9310  178.9360  147.3720 O   0  0  0  0  0  1  0  0  0  0  0  0
  185.2810  176.8890  146.5660 O   0  0  0  0  0  0  0  0  0  0  0  0
  186.2590  177.7820  146.9890 C   0  0  0  0  0  0  0  0  0  0  0  0
  1  6  2  0  0  0  0
  1  7  1  0  0  0  0
  3  8  1  0  0  0  0
  3  4  2  0  0  0  0
  5  4  1  0  0  0  0
  5  2  1  0  0  0  0
  6  3  1  0  0  0  0
  7  5  2  0  0  0  0
  9 11  1  0  0  0  0
 10  9  2  0  0  0  0
 11  6  1  0  0  0  0
 12 17  1  6  0  0  0
 12  9  1  0  0  0  0
 13 12  1  0  0  0  0
 13 14  1  0  0  0  0
 14 16  2  0  0  0  0
 14 15  1  0  0  0  0
 17 20  1  0  0  0  0
 18 19  2  0  0  0  0
 19 21  1  0  0  0  0
 19 20  1  0  0  0  0
 21 23  1  0  0  0  0
 23 22  1  1  0  0  0
 23 24  1  0  0  0  0
 25  7  1  0  0  0  0
 26 25  1  1  0  0  0
 26 38  1  0  0  0  0
 27 26  1  0  0  0  0
 28 29  2  0  0  0  0
 29 27  1  0  0  0  0
 30 32  2  0  0  0  0
 30 28  1  0  0  0  0
 31 27  2  0  0  0  0
 32 31  1  0  0  0  0
 33 34  1  0  0  0  0
 33 28  1  0  0  0  0
 34 35  1  0  0  0  0
 35 37  1  0  0  0  0
 37 36  1  0  0  0  0
 38 39  1  0  0  0  0
 41 42  2  0  0  0  0
 42 39  1  0  0  0  0
 42 40  1  0  0  0  0
M  END
>  <MODEL>
8

>  <REMARK>
 VINA RESULT:      -5.8      2.577      6.906
  Name = 
  18 active torsions:
  status: ('A' for Active; 'I' for Inactive)
    1  A    between atoms: C_1  and  C_2
    2  A    between atoms: C_2  and  C_16
    3  A    between atoms: C_2  and  C_37
    4  A    between atoms: C_4  and  C_5
    5  A    between atoms: C_4  and  O_10
    6  A    between atoms: C_4  and  C_13
    7  A    between atoms: C_5  and  N_25
    8  A    between atoms: C_9  and  C_12
    9  A    between atoms: O_10  and  C_30
   10  A    between atoms: C_12  and  C_21
   11  A    between atoms: C_16  and  C_36
   12  A    between atoms: C_17  and  O_22
   13  A    between atoms: C_19  and  C_20
   14  A    between atoms: C_19  and  C_29
   15  A    between atoms: C_20  and  O_22
   16  A    between atoms: N_28  and  C_31
   17  A    between atoms: C_32  and  C_37
   18  A    between atoms: C_36  and  C_40
                            x       y       z     vdW  Elec       q    Type
                         _______ _______ _______ _____ _____    ______ ____

>  <TORSDO>
F 18

$$$$
=
 OpenBabel11062420033D

 42 43  0  0  1  0  0  0  0  0999 V2000
  190.1620  173.5620  142.4620 C   0  0  0  0  0  3  0  0  0  0  0  0
  188.2820  174.3230  139.3390 N   0  0  0  0  0  1  0  0  0  0  0  0
  191.4290  172.8610  140.5380 C   0  0  0  0  0  0  0  0  0  0  0  0
  190.4310  173.3130  139.7320 N   0  0  0  0  0  0  0  0  0  0  0  0
  189.3010  173.8820  140.2340 C   0  0  0  0  0  0  0  0  0  0  0  0
  191.3160  172.9770  141.9320 C   0  0  0  0  0  0  0  0  0  0  0  0
  189.1460  174.0190  141.6200 C   0  0  0  0  0  0  0  0  0  0  0  0
  192.5780  172.2530  139.9550 N   0  0  0  0  0  1  0  0  0  0  0  0
  193.6230  173.0040  143.0770 C   0  0  0  0  0  0  0  0  0  0  0  0
  194.0520  174.0460  142.4470 N   0  0  0  0  0  2  0  0  0  0  0  0
  192.3400  172.4300  142.7760 N   0  0  0  0  0  2  0  0  0  0  0  0
  194.4000  172.4940  144.2450 C   0  0  2  0  0  3  0  0  0  0  0  0
  193.6570  171.4960  144.9400 O   0  0  0  0  0  0  0  0  0  0  0  0
  193.9430  170.1340  144.8310 C   0  0  0  0  0  0  0  0  0  0  0  0
  195.2560  169.7010  144.9400 O   0  0  0  0  0  1  0  0  0  0  0  0
  193.0240  169.2940  144.6300 O   0  0  0  0  0  0  0  0  0  0  0  0
  194.7840  173.6420  145.1780 C   0  0  0  0  0  2  0  0  0  0  0  0
  194.5070  176.4610  145.4910 O   0  0  0  0  0  0  0  0  0  0  0  0
  193.5260  175.7380  145.8070 C   0  0  0  0  0  0  0  0  0  0  0  0
  193.5960  174.3190  145.6750 N   0  0  0  0  0  2  0  0  0  0  0  0
  192.2870  176.3660  146.3490 C   0  0  0  0  0  2  0  0  0  0  0  0
  189.9350  175.6110  146.1950 C   0  0  0  0  0  1  0  0  0  0  0  0
  191.2940  175.3010  146.7860 C   0  0  2  0  0  3  0  0  0  0  0  0
  191.1960  175.2790  148.2350 N   0  0  0  0  0  1  0  0  0  0  0  0
  187.8910  174.5820  142.2090 C   0  0  0  0  0  2  0  0  0  0  0  0
  188.2030  175.8480  142.9920 C   0  0  2  0  0  3  0  0  0  0  0  0
  186.9490  176.5750  143.3660 C   0  0  0  0  0  0  0  0  0  0  0  0
  184.9110  177.7550  142.7590 C   0  0  0  0  0  0  0  0  0  0  0  0
  186.0750  177.0750  142.3870 C   0  0  0  0  0  3  0  0  0  0  0  0
  184.6210  177.9310  144.1210 C   0  0  0  0  0  3  0  0  0  0  0  0
  186.6530  176.7600  144.7190 C   0  0  0  0  0  3  0  0  0  0  0  0
  185.4900  177.4360  145.0970 C   0  0  0  0  0  3  0  0  0  0  0  0
  184.0620  178.2440  141.7590 O   0  0  0  0  0  0  0  0  0  0  0  0
  182.6420  178.2730  141.8850 C   0  0  0  0  0  2  0  0  0  0  0  0
  181.9800  178.2100  140.5180 C   0  0  0  0  0  2  0  0  0  0  0  0
  180.3690  179.4960  141.7030 O   0  0  0  0  0  1  0  0  0  0  0  0
  180.5280  178.6320  140.6190 C   0  0  0  0  0  2  0  0  0  0  0  0
  189.1600  176.7390  142.2040 C   0  0  0  0  0  2  0  0  0  0  0  0
  189.6730  177.8950  143.0500 C   0  0  0  0  0  2  0  0  0  0  0  0
  191.7820  178.7730  143.7490 O   0  0  0  0  0  1  0  0  0  0  0  0
  191.8420  176.6930  142.7840 O   0  0  0  0  0  0  0  0  0  0  0  0
  191.1530  177.8180  143.2220 C   0  0  0  0  0  0  0  0  0  0  0  0
  2  5  1  0  0  0  0
  3  6  2  0  0  0  0
  4  5  2  0  0  0  0
  4  3  1  0  0  0  0
  5  7  1  0  0  0  0
  6  1  1  0  0  0  0
  6 11  1  0  0  0  0
  7 25  1  0  0  0  0
  7  1  2  0  0  0  0
  8  3  1  0  0  0  0
  9 12  1  0  0  0  0
 10  9  2  0  0  0  0
 11  9  1  0  0  0  0
 12 13  1  0  0  0  0
 12 17  1  1  0  0  0
 14 13  1  0  0  0  0
 14 15  1  0  0  0  0
 16 14  2  0  0  0  0
 17 20  1  0  0  0  0
 18 19  2  0  0  0  0
 19 21  1  0  0  0  0
 20 19  1  0  0  0  0
 21 23  1  0  0  0  0
 23 22  1  6  0  0  0
 23 24  1  0  0  0  0
 25 26  1  0  0  0  0
 26 38  1  6  0  0  0
 26 27  1  0  0  0  0
 27 31  1  0  0  0  0
 28 30  2  0  0  0  0
 29 28  1  0  0  0  0
 29 27  2  0  0  0  0
 30 32  1  0  0  0  0
 31 32  2  0  0  0  0
 33 34  1  0  0  0  0
 33 28  1  0  0  0  0
 35 37  1  0  0  0  0
 35 34  1  0  0  0  0
 37 36  1  0  0  0  0
 38 39  1  0  0  0  0
 39 42  1  0  0  0  0
 41 42  2  0  0  0  0
 42 40  1  0  0  0  0
M  END
>  <MODEL>
9

>  <REMARK>
 VINA RESULT:      -5.8      3.182      6.470
  Name = 
  18 active torsions:
  status: ('A' for Active; 'I' for Inactive)
    1  A    between atoms: C_1  and  C_2
    2  A    between atoms: C_2  and  C_16
    3  A    between atoms: C_2  and  C_37
    4  A    between atoms: C_4  and  C_5
    5  A    between atoms: C_4  and  O_10
    6  A    between atoms: C_4  and  C_13
    7  A    between atoms: C_5  and  N_25
    8  A    between atoms: C_9  and  C_12
    9  A    between atoms: O_10  and  C_30
   10  A    between atoms: C_12  and  C_21
   11  A    between atoms: C_16  and  C_36
   12  A    between atoms: C_17  and  O_22
   13  A    between atoms: C_19  and  C_20
   14  A    between atoms: C_19  and  C_29
   15  A    between atoms: C_20  and  O_22
   16  A    between atoms: N_28  and  C_31
   17  A    between atoms: C_32  and  C_37
   18  A    between atoms: C_36  and  C_40
                            x       y       z     vdW  Elec       q    Type
                         _______ _______ _______ _____ _____    ______ ____

>  <TORSDO>
F 18

$$$$
