=
 OpenBabel11062421393D

 52 58  0  0  1  0  0  0  0  0999 V2000
  193.3010  174.0100  140.7930 C   0  0  1  0  0  0  0  0  0  0  0  0
  193.0210  174.1750  139.4340 O   0  0  0  0  0  1  0  0  0  0  0  0
  194.5350  174.6650  141.3000 C   0  0  2  0  0  0  0  0  0  0  0  0
  193.2560  175.2390  141.4790 O   0  0  0  0  0  0  0  0  0  0  0  0
  192.6470  172.8480  141.5630 C   0  0  1  0  0  3  0  0  0  0  0  0
  191.8400  173.3310  142.6490 O   0  0  0  0  0  0  0  0  0  0  0  0
  188.4410  174.3830  142.4980 C   0  0  2  0  0  3  0  0  0  0  0  0
  190.4670  173.5000  142.4830 C   0  0  0  0  0  0  0  0  0  0  0  0
  189.7900  174.4280  143.0460 N   0  0  0  0  0  0  0  0  0  0  0  0
  190.4900  172.5200  140.2660 C   0  0  0  0  0  2  0  0  0  0  0  0
  191.8530  171.9120  140.6250 C   0  0  0  0  0  2  0  0  0  0  0  0
  188.4700  173.4700  141.3430 N   0  0  0  0  0  2  0  0  0  0  0  0
  189.6860  172.6930  141.5450 C   0  0  2  0  0  3  0  0  0  0  0  0
  185.9650  176.1370  143.5790 C   0  0  0  0  0  2  0  0  0  0  0  0
  186.7660  177.6210  142.0200 N   0  0  0  0  0  0  0  0  0  0  0  0
  188.0950  177.9180  141.5070 C   0  0  0  0  0  2  0  0  0  0  0  0
  186.1570  178.3830  143.0150 N   0  0  0  0  0  0  0  0  0  0  0  0
  187.9940  175.7550  142.0870 C   0  0  0  0  0  0  0  0  0  0  0  0
  188.8160  176.6500  141.6380 N   0  0  0  0  0  0  0  0  0  0  0  0
  185.6750  177.5780  143.9090 C   0  0  0  0  0  0  0  0  0  0  0  0
  186.7000  176.2760  142.3340 N   0  0  0  0  0  0  0  0  0  0  0  0
  184.9450  178.0750  145.1300 C   0  0  2  0  0  3  0  0  0  0  0  0
  183.3640  179.0280  143.6550 O   0  0  0  0  0  0  0  0  0  0  0  0
  183.9330  179.1020  144.7320 C   0  0  0  0  0  3  0  0  0  0  0  0
  185.8940  178.6720  146.1680 C   0  0  0  0  0  2  0  0  0  0  0  0
  186.7390  176.7010  147.3250 N   0  0  0  0  0  1  0  0  0  0  0  0
  187.0950  177.7690  146.4080 C   0  0  0  0  0  2  0  0  0  0  0  0
  195.4100  175.4980  140.3470 C   0  0  0  0  0  2  0  0  0  0  0  0
  197.9010  175.4380  140.0140 C   0  0  0  0  0  1  0  0  0  0  0  0
  196.5810  174.7530  139.6770 C   0  0  2  0  0  0  0  0  0  0  0  0
  197.5100  175.2110  137.4780 O   0  0  0  0  0  1  0  0  0  0  0  0
  195.1490  175.4730  137.6800 C   0  0  0  0  0  1  0  0  0  0  0  0
  196.3860  174.7170  138.1460 C   0  0  2  0  0  3  0  0  0  0  0  0
  196.6440  173.3620  140.2470 C   0  0  0  0  0  3  0  0  0  0  0  0
  197.6660  172.9220  140.7500 O   0  0  0  0  0  0  0  0  0  0  0  0
  195.0620  174.2310  142.5360 O   0  0  0  0  0  0  0  0  0  0  0  0
  196.3260  174.8350  144.4710 C   0  0  0  0  0  2  0  0  0  0  0  0
  195.6480  175.3280  143.2080 C   0  0  0  0  0  0  0  0  0  0  0  0
  197.1590  175.4650  143.3760 C   0  0  0  0  0  2  0  0  0  0  0  0
  194.8060  176.4050  143.5350 O   0  0  0  0  0  0  0  0  0  0  0  0
  194.5060  177.4870  145.5290 O   0  0  0  0  0  1  0  0  0  0  0  0
  194.4480  176.2510  144.8800 C   0  0  1  0  0  3  0  0  0  0  0  0
  191.1700  175.8960  146.3970 C   0  0  1  0  0  3  0  0  0  0  0  0
  193.0610  175.6200  145.0080 C   0  0  1  0  0  3  0  0  0  0  0  0
  192.7870  173.3400  145.6130 O   0  0  0  0  0  1  0  0  0  0  0  0
  193.0180  174.6120  146.1350 C   0  0  2  0  0  3  0  0  0  0  0  0
  191.9980  176.6180  145.3620 C   0  0  1  0  0  3  0  0  0  0  0  0
  191.9910  174.9500  147.0380 O   0  0  0  0  0  0  0  0  0  0  0  0
  190.6360  176.8910  147.4110 C   0  0  0  0  0  2  0  0  0  0  0  0
  191.5710  177.0850  148.4250 O   0  0  0  0  0  1  0  0  0  0  0  0
  191.1730  177.0460  144.1450 C   0  0  0  0  0  2  0  0  0  0  0  0
  191.3370  178.5230  143.8080 C   0  0  0  0  0  1  0  0  0  0  0  0
  1  2  1  6  0  0  0
  1  3  1  0  0  0  0
  1  4  1  0  0  0  0
  1  5  1  0  0  0  0
  3 28  1  6  0  0  0
  3  4  1  0  0  0  0
  3 36  1  0  0  0  0
  5 11  1  6  0  0  0
  5  6  1  0  0  0  0
  7 18  1  6  0  0  0
  7  9  1  0  0  0  0
  8  6  1  0  0  0  0
  8  9  2  0  0  0  0
 10 11  1  0  0  0  0
 12 13  1  0  0  0  0
 12  7  1  0  0  0  0
 13 10  1  6  0  0  0
 13  8  1  0  0  0  0
 14 20  1  0  0  0  0
 15 21  1  0  0  0  0
 15 17  1  0  0  0  0
 16 19  1  0  0  0  0
 16 15  1  0  0  0  0
 17 20  2  0  0  0  0
 18 21  1  0  0  0  0
 19 18  2  0  0  0  0
 20 22  1  0  0  0  0
 21 14  1  0  0  0  0
 22 24  1  6  0  0  0
 22 25  1  0  0  0  0
 23 24  2  0  0  0  0
 25 27  1  0  0  0  0
 27 26  1  0  0  0  0
 30 29  1  1  0  0  0
 30 34  1  0  0  0  0
 30 28  1  0  0  0  0
 31 33  1  0  0  0  0
 33 32  1  1  0  0  0
 33 30  1  0  0  0  0
 34 35  2  0  0  0  0
 36 38  1  0  0  0  0
 38 39  1  0  0  0  0
 38 40  1  0  0  0  0
 38 37  1  0  0  0  0
 39 37  1  0  0  0  0
 40 42  1  0  0  0  0
 42 41  1  6  0  0  0
 43 48  1  0  0  0  0
 43 49  1  1  0  0  0
 44 42  1  1  0  0  0
 44 47  1  0  0  0  0
 44 46  1  0  0  0  0
 46 45  1  6  0  0  0
 46 48  1  0  0  0  0
 47 51  1  6  0  0  0
 47 43  1  0  0  0  0
 49 50  1  0  0  0  0
 52 51  1  0  0  0  0
M  END
>  <MODEL>
1

>  <REMARK>
 VINA RESULT:      -6.6      0.000      0.000
  Name = 
  17 active torsions:
  status: ('A' for Active; 'I' for Inactive)
    1  A    between atoms: C_2  and  C_25
    2  A    between atoms: C_3  and  C_51
    3  A    between atoms: C_4  and  C_24
    4  A    between atoms: C_5  and  O_8
    5  A    between atoms: C_5  and  O_42
    6  A    between atoms: C_6  and  C_13
    7  A    between atoms: C_6  and  C_22
    8  A    between atoms: C_6  and  C_29
    9  A    between atoms: O_8  and  C_12
   10  A    between atoms: C_12  and  C_35
   11  A    between atoms: C_19  and  C_31
   12  A    between atoms: C_20  and  C_48
   13  A    between atoms: C_22  and  C_45
   14  A    between atoms: C_23  and  C_34
   15  A    between atoms: C_35  and  C_48
   16  A    between atoms: O_42  and  C_51
   17  A    between atoms: C_48  and  C_50
                            x       y       z     vdW  Elec       q    Type
                         _______ _______ _______ _____ _____    ______ ____

>  <TORSDO>
F 17

$$$$
=
 OpenBabel11062421393D

 52 58  0  0  1  0  0  0  0  0999 V2000
  192.8060  173.4540  141.2730 C   0  0  1  0  0  0  0  0  0  0  0  0
  192.6720  174.3170  140.1830 O   0  0  0  0  0  1  0  0  0  0  0  0
  194.1180  173.4650  141.9710 C   0  0  2  0  0  0  0  0  0  0  0  0
  192.9990  174.1670  142.4720 O   0  0  0  0  0  0  0  0  0  0  0  0
  191.8440  172.2590  141.4120 C   0  0  1  0  0  3  0  0  0  0  0  0
  190.8330  172.5160  142.4000 O   0  0  0  0  0  0  0  0  0  0  0  0
  187.7380  174.2080  141.9130 C   0  0  2  0  0  3  0  0  0  0  0  0
  189.5820  172.9960  142.0160 C   0  0  0  0  0  0  0  0  0  0  0  0
  188.8860  173.8090  142.7160 N   0  0  0  0  0  0  0  0  0  0  0  0
  190.0950  172.7970  139.6550 C   0  0  0  0  0  2  0  0  0  0  0  0
  191.2350  171.8500  140.0540 C   0  0  0  0  0  2  0  0  0  0  0  0
  187.9760  173.7290  140.5420 N   0  0  0  0  0  2  0  0  0  0  0  0
  188.9990  172.7040  140.7060 C   0  0  2  0  0  3  0  0  0  0  0  0
  186.6230  176.1030  144.2680 C   0  0  0  0  0  2  0  0  0  0  0  0
  187.0380  177.7310  142.7020 N   0  0  0  0  0  0  0  0  0  0  0  0
  188.0240  177.8750  141.6420 C   0  0  0  0  0  2  0  0  0  0  0  0
  187.1830  178.3360  143.9500 N   0  0  0  0  0  0  0  0  0  0  0  0
  187.5720  175.7000  141.9390 C   0  0  0  0  0  0  0  0  0  0  0  0
  188.3280  176.4960  141.2520 N   0  0  0  0  0  0  0  0  0  0  0  0
  186.9390  177.4500  144.8650 C   0  0  0  0  0  0  0  0  0  0  0  0
  186.7340  176.3900  142.8490 N   0  0  0  0  0  0  0  0  0  0  0  0
  187.0050  177.7710  146.3350 C   0  0  2  0  0  3  0  0  0  0  0  0
  187.9790  175.8040  147.2100 O   0  0  0  0  0  0  0  0  0  0  0  0
  186.9830  176.5040  147.1310 C   0  0  0  0  0  3  0  0  0  0  0  0
  185.8540  178.6720  146.7820 C   0  0  0  0  0  2  0  0  0  0  0  0
  183.7790  178.9250  145.5300 N   0  0  0  0  0  1  0  0  0  0  0  0
  184.5040  178.0580  146.4410 C   0  0  0  0  0  2  0  0  0  0  0  0
  195.2300  174.4190  141.5000 C   0  0  0  0  0  2  0  0  0  0  0  0
  197.4050  173.1620  141.6040 C   0  0  0  0  0  1  0  0  0  0  0  0
  196.3660  173.7810  140.6750 C   0  0  2  0  0  0  0  0  0  0  0  0
  197.1160  176.0790  140.4210 O   0  0  0  0  0  1  0  0  0  0  0  0
  196.3380  175.0180  138.4320 C   0  0  0  0  0  1  0  0  0  0  0  0
  197.0350  174.8430  139.7750 C   0  0  2  0  0  3  0  0  0  0  0  0
  195.7830  172.6640  139.8530 C   0  0  0  0  0  3  0  0  0  0  0  0
  196.1390  171.5050  140.0030 O   0  0  0  0  0  0  0  0  0  0  0  0
  194.4380  172.3760  142.8100 O   0  0  0  0  0  0  0  0  0  0  0  0
  193.4880  172.3020  145.0010 C   0  0  0  0  0  2  0  0  0  0  0  0
  194.6110  172.8390  144.1350 C   0  0  0  0  0  0  0  0  0  0  0  0
  194.9150  171.8930  145.2930 C   0  0  0  0  0  2  0  0  0  0  0  0
  194.7040  174.2290  144.3220 O   0  0  0  0  0  0  0  0  0  0  0  0
  196.0480  174.5730  146.1430 O   0  0  0  0  0  1  0  0  0  0  0  0
  194.7260  174.4540  145.7040 C   0  0  1  0  0  3  0  0  0  0  0  0
  191.9260  176.7280  145.3040 C   0  0  1  0  0  3  0  0  0  0  0  0
  193.9060  175.6920  146.0700 C   0  0  1  0  0  3  0  0  0  0  0  0
  194.7850  177.8830  145.8090 O   0  0  0  0  0  1  0  0  0  0  0  0
  194.1810  176.8340  145.1170 C   0  0  2  0  0  3  0  0  0  0  0  0
  192.4270  175.4650  145.9600 C   0  0  1  0  0  3  0  0  0  0  0  0
  192.9730  177.2770  144.5420 O   0  0  0  0  0  0  0  0  0  0  0  0
  190.7440  176.4070  144.4080 C   0  0  0  0  0  2  0  0  0  0  0  0
  191.0820  176.6380  143.0770 O   0  0  0  0  0  1  0  0  0  0  0  0
  191.7740  175.2090  147.3210 C   0  0  0  0  0  2  0  0  0  0  0  0
  191.4020  176.4940  148.0510 C   0  0  0  0  0  1  0  0  0  0  0  0
  1  2  1  6  0  0  0
  1  5  1  0  0  0  0
  1  3  1  0  0  0  0
  1  4  1  0  0  0  0
  3 28  1  6  0  0  0
  3  4  1  0  0  0  0
  3 36  1  0  0  0  0
  5 11  1  6  0  0  0
  5  6  1  0  0  0  0
  7 18  1  6  0  0  0
  7  9  1  0  0  0  0
  8  6  1  0  0  0  0
  8  9  2  0  0  0  0
 10 11  1  0  0  0  0
 12 13  1  0  0  0  0
 12  7  1  0  0  0  0
 13 10  1  6  0  0  0
 13  8  1  0  0  0  0
 14 20  1  0  0  0  0
 15 21  1  0  0  0  0
 15 17  1  0  0  0  0
 16 15  1  0  0  0  0
 17 20  2  0  0  0  0
 18 21  1  0  0  0  0
 19 16  1  0  0  0  0
 19 18  2  0  0  0  0
 20 22  1  0  0  0  0
 21 14  1  0  0  0  0
 22 25  1  1  0  0  0
 22 24  1  0  0  0  0
 24 23  2  0  0  0  0
 26 27  1  0  0  0  0
 27 25  1  0  0  0  0
 30 28  1  0  0  0  0
 30 29  1  1  0  0  0
 33 32  1  6  0  0  0
 33 31  1  0  0  0  0
 33 30  1  0  0  0  0
 34 35  2  0  0  0  0
 34 30  1  0  0  0  0
 36 38  1  0  0  0  0
 37 39  1  0  0  0  0
 38 40  1  0  0  0  0
 38 37  1  0  0  0  0
 38 39  1  0  0  0  0
 40 42  1  0  0  0  0
 42 41  1  6  0  0  0
 43 49  1  6  0  0  0
 43 47  1  0  0  0  0
 44 42  1  6  0  0  0
 46 45  1  1  0  0  0
 46 44  1  0  0  0  0
 47 44  1  0  0  0  0
 47 51  1  1  0  0  0
 48 46  1  0  0  0  0
 48 43  1  0  0  0  0
 50 49  1  0  0  0  0
 51 52  1  0  0  0  0
M  END
>  <MODEL>
2

>  <REMARK>
 VINA RESULT:      -6.2      1.844      2.578
  Name = 
  17 active torsions:
  status: ('A' for Active; 'I' for Inactive)
    1  A    between atoms: C_2  and  C_25
    2  A    between atoms: C_3  and  C_51
    3  A    between atoms: C_4  and  C_24
    4  A    between atoms: C_5  and  O_8
    5  A    between atoms: C_5  and  O_42
    6  A    between atoms: C_6  and  C_13
    7  A    between atoms: C_6  and  C_22
    8  A    between atoms: C_6  and  C_29
    9  A    between atoms: O_8  and  C_12
   10  A    between atoms: C_12  and  C_35
   11  A    between atoms: C_19  and  C_31
   12  A    between atoms: C_20  and  C_48
   13  A    between atoms: C_22  and  C_45
   14  A    between atoms: C_23  and  C_34
   15  A    between atoms: C_35  and  C_48
   16  A    between atoms: O_42  and  C_51
   17  A    between atoms: C_48  and  C_50
                            x       y       z     vdW  Elec       q    Type
                         _______ _______ _______ _____ _____    ______ ____

>  <TORSDO>
F 17

$$$$
=
 OpenBabel11062421393D

 52 58  0  0  1  0  0  0  0  0999 V2000
  191.9210  173.8740  142.7110 C   0  0  1  0  0  0  0  0  0  0  0  0
  193.0820  173.1250  142.5040 O   0  0  0  0  0  1  0  0  0  0  0  0
  192.0770  175.1410  143.4720 C   0  0  2  0  0  0  0  0  0  0  0  0
  191.9930  175.1230  142.0620 O   0  0  0  0  0  0  0  0  0  0  0  0
  190.5480  173.1900  142.5840 C   0  0  1  0  0  3  0  0  0  0  0  0
  189.7870  173.7450  141.4990 O   0  0  0  0  0  0  0  0  0  0  0  0
  189.9320  172.7990  138.0690 C   0  0  2  0  0  3  0  0  0  0  0  0
  189.7920  173.1280  140.2490 C   0  0  0  0  0  0  0  0  0  0  0  0
  189.7260  173.7630  139.1410 N   0  0  0  0  0  0  0  0  0  0  0  0
  191.0830  171.2400  141.0510 C   0  0  0  0  0  2  0  0  0  0  0  0
  190.6780  171.6560  142.4720 C   0  0  0  0  0  2  0  0  0  0  0  0
  190.3880  171.5450  138.6920 N   0  0  0  0  0  2  0  0  0  0  0  0
  189.9950  171.6880  140.0880 C   0  0  2  0  0  3  0  0  0  0  0  0
  192.8190  174.1210  138.6120 C   0  0  0  0  0  2  0  0  0  0  0  0
  192.8260  174.2410  136.3180 N   0  0  0  0  0  0  0  0  0  0  0  0
  192.2510  173.4140  135.2690 C   0  0  0  0  0  2  0  0  0  0  0  0
  194.1590  174.1350  136.7140 N   0  0  0  0  0  0  0  0  0  0  0  0
  190.9460  173.3100  137.0880 C   0  0  0  0  0  0  0  0  0  0  0  0
  191.0630  172.8270  135.8920 N   0  0  0  0  0  0  0  0  0  0  0  0
  194.1990  174.0820  138.0080 C   0  0  0  0  0  0  0  0  0  0  0  0
  191.9920  174.2050  137.4210 N   0  0  0  0  0  0  0  0  0  0  0  0
  195.4940  173.9660  138.7700 C   0  0  2  0  0  3  0  0  0  0  0  0
  195.4650  171.7620  139.6210 O   0  0  0  0  0  0  0  0  0  0  0  0
  195.3490  172.9530  139.8610 C   0  0  0  0  0  3  0  0  0  0  0  0
  195.9320  175.3010  139.3710 C   0  0  0  0  0  2  0  0  0  0  0  0
  196.1450  176.6010  141.4200 N   0  0  0  0  0  1  0  0  0  0  0  0
  195.6300  175.3650  140.8600 C   0  0  0  0  0  2  0  0  0  0  0  0
  193.4700  175.5790  143.9590 C   0  0  0  0  0  2  0  0  0  0  0  0
  193.1290  174.0750  145.9450 C   0  0  0  0  0  1  0  0  0  0  0  0
  193.7570  175.3780  145.4600 C   0  0  2  0  0  0  0  0  0  0  0  0
  194.2070  177.2150  146.9870 O   0  0  0  0  0  1  0  0  0  0  0  0
  192.0820  176.1610  147.2320 C   0  0  0  0  0  1  0  0  0  0  0  0
  193.1960  176.5640  146.2750 C   0  0  2  0  0  3  0  0  0  0  0  0
  195.2450  175.2500  145.6450 C   0  0  0  0  0  3  0  0  0  0  0  0
  196.0150  175.3090  144.6990 O   0  0  0  0  0  0  0  0  0  0  0  0
  190.9230  175.7320  144.0310 O   0  0  0  0  0  0  0  0  0  0  0  0
  190.3130  178.0240  144.3100 C   0  0  0  0  0  2  0  0  0  0  0  0
  190.6100  176.9140  143.3210 C   0  0  0  0  0  0  0  0  0  0  0  0
  191.4980  178.1540  143.3780 C   0  0  0  0  0  2  0  0  0  0  0  0
  189.5620  176.8440  142.3870 O   0  0  0  0  0  0  0  0  0  0  0  0
  188.7060  178.7530  141.4590 O   0  0  0  0  0  1  0  0  0  0  0  0
  188.7430  177.9590  142.6080 C   0  0  1  0  0  3  0  0  0  0  0  0
  186.1320  177.3540  145.0560 C   0  0  1  0  0  3  0  0  0  0  0  0
  187.3370  177.5290  143.0320 C   0  0  1  0  0  3  0  0  0  0  0  0
  186.5860  175.2940  142.7500 O   0  0  0  0  0  1  0  0  0  0  0  0
  187.3360  176.1220  143.5850 C   0  0  2  0  0  3  0  0  0  0  0  0
  186.7840  178.3670  144.1470 C   0  0  1  0  0  3  0  0  0  0  0  0
  186.7830  176.1190  144.8800 O   0  0  0  0  0  0  0  0  0  0  0  0
  186.2560  177.8050  146.4990 C   0  0  0  0  0  2  0  0  0  0  0  0
  187.5250  177.4980  146.9860 O   0  0  0  0  0  1  0  0  0  0  0  0
  185.7990  179.4270  143.6460 C   0  0  0  0  0  2  0  0  0  0  0  0
  184.3440  179.0500  143.8970 C   0  0  0  0  0  1  0  0  0  0  0  0
  1  2  1  6  0  0  0
  1  3  1  0  0  0  0
  3 28  1  1  0  0  0
  3 36  1  0  0  0  0
  4  1  1  0  0  0  0
  4  3  1  0  0  0  0
  5 11  1  6  0  0  0
  5  1  1  0  0  0  0
  6  5  1  0  0  0  0
  7 18  1  6  0  0  0
  7 12  1  0  0  0  0
  7  9  1  0  0  0  0
  8  6  1  0  0  0  0
  9  8  2  0  0  0  0
 10 11  1  0  0  0  0
 12 13  1  0  0  0  0
 13  8  1  0  0  0  0
 13 10  1  1  0  0  0
 15 17  1  0  0  0  0
 15 21  1  0  0  0  0
 16 19  1  0  0  0  0
 16 15  1  0  0  0  0
 17 20  2  0  0  0  0
 18 21  1  0  0  0  0
 19 18  2  0  0  0  0
 20 14  1  0  0  0  0
 20 22  1  0  0  0  0
 21 14  1  0  0  0  0
 22 25  1  1  0  0  0
 22 24  1  0  0  0  0
 23 24  2  0  0  0  0
 25 27  1  0  0  0  0
 27 26  1  0  0  0  0
 28 30  1  0  0  0  0
 30 34  1  0  0  0  0
 30 29  1  1  0  0  0
 30 33  1  0  0  0  0
 33 31  1  0  0  0  0
 33 32  1  1  0  0  0
 35 34  2  0  0  0  0
 38 39  1  0  0  0  0
 38 36  1  0  0  0  0
 38 37  1  0  0  0  0
 39 37  1  0  0  0  0
 40 42  1  0  0  0  0
 40 38  1  0  0  0  0
 42 41  1  6  0  0  0
 43 49  1  1  0  0  0
 44 42  1  1  0  0  0
 44 46  1  0  0  0  0
 44 47  1  0  0  0  0
 46 45  1  6  0  0  0
 46 48  1  0  0  0  0
 47 51  1  6  0  0  0
 47 43  1  0  0  0  0
 48 43  1  0  0  0  0
 49 50  1  0  0  0  0
 51 52  1  0  0  0  0
M  END
>  <MODEL>
3

>  <REMARK>
 VINA RESULT:      -6.1      2.993      7.299
  Name = 
  17 active torsions:
  status: ('A' for Active; 'I' for Inactive)
    1  A    between atoms: C_2  and  C_25
    2  A    between atoms: C_3  and  C_51
    3  A    between atoms: C_4  and  C_24
    4  A    between atoms: C_5  and  O_8
    5  A    between atoms: C_5  and  O_42
    6  A    between atoms: C_6  and  C_13
    7  A    between atoms: C_6  and  C_22
    8  A    between atoms: C_6  and  C_29
    9  A    between atoms: O_8  and  C_12
   10  A    between atoms: C_12  and  C_35
   11  A    between atoms: C_19  and  C_31
   12  A    between atoms: C_20  and  C_48
   13  A    between atoms: C_22  and  C_45
   14  A    between atoms: C_23  and  C_34
   15  A    between atoms: C_35  and  C_48
   16  A    between atoms: O_42  and  C_51
   17  A    between atoms: C_48  and  C_50
                            x       y       z     vdW  Elec       q    Type
                         _______ _______ _______ _____ _____    ______ ____

>  <TORSDO>
F 17

$$$$
=
 OpenBabel11062421393D

 52 58  0  0  1  0  0  0  0  0999 V2000
  192.5370  174.9440  142.4110 C   0  0  1  0  0  0  0  0  0  0  0  0
  192.8840  174.8600  141.0610 O   0  0  0  0  0  1  0  0  0  0  0  0
  193.5510  175.5390  143.3210 C   0  0  2  0  0  0  0  0  0  0  0  0
  192.4530  176.2840  142.8380 O   0  0  0  0  0  0  0  0  0  0  0  0
  191.4100  174.0490  142.9590 C   0  0  1  0  0  3  0  0  0  0  0  0
  190.1790  174.2700  142.2520 O   0  0  0  0  0  0  0  0  0  0  0  0
  189.1400  172.7310  139.2140 C   0  0  2  0  0  3  0  0  0  0  0  0
  189.8160  173.4380  141.1950 C   0  0  0  0  0  0  0  0  0  0  0  0
  189.1780  173.8360  140.1610 N   0  0  0  0  0  0  0  0  0  0  0  0
  191.6940  171.9500  141.5620 C   0  0  0  0  0  2  0  0  0  0  0  0
  191.8120  172.5580  142.9660 C   0  0  0  0  0  2  0  0  0  0  0  0
  190.0660  171.6990  139.7110 N   0  0  0  0  0  2  0  0  0  0  0  0
  190.2430  172.0400  141.1160 C   0  0  2  0  0  3  0  0  0  0  0  0
  192.0380  173.6190  138.1200 C   0  0  0  0  0  2  0  0  0  0  0  0
  190.8400  173.9470  136.1880 N   0  0  0  0  0  0  0  0  0  0  0  0
  189.6730  173.3000  135.6090 C   0  0  0  0  0  2  0  0  0  0  0  0
  192.1420  173.6370  135.7990 N   0  0  0  0  0  0  0  0  0  0  0  0
  189.5410  173.1970  137.8450 C   0  0  0  0  0  0  0  0  0  0  0  0
  188.9250  172.8140  136.7710 N   0  0  0  0  0  0  0  0  0  0  0  0
  192.8570  173.4610  136.8660 C   0  0  0  0  0  0  0  0  0  0  0  0
  190.7280  173.9170  137.5660 N   0  0  0  0  0  0  0  0  0  0  0  0
  194.3210  173.1120  136.8060 C   0  0  2  0  0  3  0  0  0  0  0  0
  193.7440  170.8210  136.8520 O   0  0  0  0  0  0  0  0  0  0  0  0
  194.4850  171.6800  136.4020 C   0  0  0  0  0  3  0  0  0  0  0  0
  195.0260  173.3460  138.1410 C   0  0  0  0  0  2  0  0  0  0  0  0
  197.0750  174.6130  137.7730 N   0  0  0  0  0  1  0  0  0  0  0  0
  196.5390  173.2810  137.9900 C   0  0  0  0  0  2  0  0  0  0  0  0
  194.8870  176.0510  142.7520 C   0  0  0  0  0  2  0  0  0  0  0  0
  196.3180  174.3940  141.5170 C   0  0  0  0  0  1  0  0  0  0  0  0
  196.0830  175.0840  142.8570 C   0  0  2  0  0  0  0  0  0  0  0  0
  196.7090  174.1690  145.0200 O   0  0  0  0  0  1  0  0  0  0  0  0
  195.8820  172.5950  143.4300 C   0  0  0  0  0  1  0  0  0  0  0  0
  195.8210  174.0250  143.9510 C   0  0  2  0  0  3  0  0  0  0  0  0
  197.3160  175.8880  143.1660 C   0  0  0  0  0  3  0  0  0  0  0  0
  197.2900  177.1080  143.2120 O   0  0  0  0  0  0  0  0  0  0  0  0
  193.4230  175.3070  144.7080 O   0  0  0  0  0  0  0  0  0  0  0  0
  194.2430  176.3570  146.6900 C   0  0  0  0  0  2  0  0  0  0  0  0
  193.4750  176.5400  145.3960 C   0  0  0  0  0  0  0  0  0  0  0  0
  194.7860  177.2870  145.6280 C   0  0  0  0  0  2  0  0  0  0  0  0
  192.2510  177.1700  145.6800 O   0  0  0  0  0  0  0  0  0  0  0  0
  191.3620  176.9380  147.7760 O   0  0  0  0  0  1  0  0  0  0  0  0
  191.5420  176.3190  146.5370 C   0  0  1  0  0  3  0  0  0  0  0  0
  187.9220  176.4060  146.2860 C   0  0  1  0  0  3  0  0  0  0  0  0
  190.2030  175.9120  145.9200 C   0  0  1  0  0  3  0  0  0  0  0  0
  189.4170  173.6740  146.0290 O   0  0  0  0  0  1  0  0  0  0  0  0
  189.5090  174.8600  146.7560 C   0  0  2  0  0  3  0  0  0  0  0  0
  189.2210  177.0450  145.8590 C   0  0  1  0  0  3  0  0  0  0  0  0
  188.2200  175.3040  147.1090 O   0  0  0  0  0  0  0  0  0  0  0  0
  187.0820  177.4130  147.0500 C   0  0  0  0  0  2  0  0  0  0  0  0
  186.2580  178.1100  146.1680 O   0  0  0  0  0  1  0  0  0  0  0  0
  189.1380  177.6710  144.4650 C   0  0  0  0  0  2  0  0  0  0  0  0
  188.2650  176.8700  143.5060 C   0  0  0  0  0  1  0  0  0  0  0  0
  1  2  1  6  0  0  0
  1  4  1  0  0  0  0
  1  5  1  0  0  0  0
  1  3  1  0  0  0  0
  3 28  1  6  0  0  0
  3 36  1  0  0  0  0
  4  3  1  0  0  0  0
  5 11  1  6  0  0  0
  6  5  1  0  0  0  0
  7 18  1  6  0  0  0
  7 12  1  0  0  0  0
  7  9  1  0  0  0  0
  8  6  1  0  0  0  0
  9  8  2  0  0  0  0
 10 11  1  0  0  0  0
 12 13  1  0  0  0  0
 13  8  1  0  0  0  0
 13 10  1  6  0  0  0
 15 21  1  0  0  0  0
 16 15  1  0  0  0  0
 16 19  1  0  0  0  0
 17 15  1  0  0  0  0
 17 20  2  0  0  0  0
 19 18  2  0  0  0  0
 20 14  1  0  0  0  0
 21 18  1  0  0  0  0
 21 14  1  0  0  0  0
 22 24  1  1  0  0  0
 22 20  1  0  0  0  0
 22 25  1  0  0  0  0
 24 23  2  0  0  0  0
 26 27  1  0  0  0  0
 27 25  1  0  0  0  0
 28 30  1  0  0  0  0
 30 29  1  6  0  0  0
 30 34  1  0  0  0  0
 30 33  1  0  0  0  0
 33 32  1  6  0  0  0
 33 31  1  0  0  0  0
 34 35  2  0  0  0  0
 36 38  1  0  0  0  0
 38 39  1  0  0  0  0
 38 40  1  0  0  0  0
 38 37  1  0  0  0  0
 39 37  1  0  0  0  0
 40 42  1  0  0  0  0
 42 41  1  1  0  0  0
 43 49  1  1  0  0  0
 43 48  1  0  0  0  0
 44 42  1  1  0  0  0
 44 46  1  0  0  0  0
 46 45  1  6  0  0  0
 46 48  1  0  0  0  0
 47 51  1  6  0  0  0
 47 44  1  0  0  0  0
 47 43  1  0  0  0  0
 50 49  1  0  0  0  0
 52 51  1  0  0  0  0
M  END
>  <MODEL>
4

>  <REMARK>
 VINA RESULT:      -6.1      2.888      6.523
  Name = 
  17 active torsions:
  status: ('A' for Active; 'I' for Inactive)
    1  A    between atoms: C_2  and  C_25
    2  A    between atoms: C_3  and  C_51
    3  A    between atoms: C_4  and  C_24
    4  A    between atoms: C_5  and  O_8
    5  A    between atoms: C_5  and  O_42
    6  A    between atoms: C_6  and  C_13
    7  A    between atoms: C_6  and  C_22
    8  A    between atoms: C_6  and  C_29
    9  A    between atoms: O_8  and  C_12
   10  A    between atoms: C_12  and  C_35
   11  A    between atoms: C_19  and  C_31
   12  A    between atoms: C_20  and  C_48
   13  A    between atoms: C_22  and  C_45
   14  A    between atoms: C_23  and  C_34
   15  A    between atoms: C_35  and  C_48
   16  A    between atoms: O_42  and  C_51
   17  A    between atoms: C_48  and  C_50
                            x       y       z     vdW  Elec       q    Type
                         _______ _______ _______ _____ _____    ______ ____

>  <TORSDO>
F 17

$$$$
=
 OpenBabel11062421393D

 52 58  0  0  1  0  0  0  0  0999 V2000
  190.6290  174.3520  142.3340 C   0  0  1  0  0  0  0  0  0  0  0  0
  191.7990  174.3420  141.5720 O   0  0  0  0  0  1  0  0  0  0  0  0
  190.7290  174.9420  143.6950 C   0  0  2  0  0  0  0  0  0  0  0  0
  190.2020  175.6670  142.6030 O   0  0  0  0  0  0  0  0  0  0  0  0
  189.4820  173.3920  141.9690 C   0  0  1  0  0  3  0  0  0  0  0  0
  188.8210  173.8030  140.7610 O   0  0  0  0  0  0  0  0  0  0  0  0
  189.7710  173.0180  137.4200 C   0  0  2  0  0  3  0  0  0  0  0  0
  189.1810  173.2410  139.5380 C   0  0  0  0  0  0  0  0  0  0  0  0
  189.1740  173.8810  138.4300 N   0  0  0  0  0  0  0  0  0  0  0  0
  190.6910  171.6520  140.5720 C   0  0  0  0  0  2  0  0  0  0  0  0
  189.9610  171.9260  141.8940 C   0  0  0  0  0  2  0  0  0  0  0  0
  190.3720  171.8730  138.1240 N   0  0  0  0  0  2  0  0  0  0  0  0
  189.7180  171.8850  139.4260 C   0  0  2  0  0  3  0  0  0  0  0  0
  192.6420  174.1390  138.3570 C   0  0  0  0  0  2  0  0  0  0  0  0
  192.7000  174.8610  136.1770 N   0  0  0  0  0  0  0  0  0  0  0  0
  192.1500  174.3440  134.9340 C   0  0  0  0  0  2  0  0  0  0  0  0
  194.0240  174.6500  136.5600 N   0  0  0  0  0  0  0  0  0  0  0  0
  190.8050  173.7670  136.6320 C   0  0  0  0  0  0  0  0  0  0  0  0
  190.9490  173.6170  135.3530 N   0  0  0  0  0  0  0  0  0  0  0  0
  194.0350  174.2560  137.7940 C   0  0  0  0  0  0  0  0  0  0  0  0
  191.8420  174.5380  137.2130 N   0  0  0  0  0  0  0  0  0  0  0  0
  195.3130  173.9380  138.5270 C   0  0  2  0  0  3  0  0  0  0  0  0
  194.9100  172.9880  140.6530 O   0  0  0  0  0  0  0  0  0  0  0  0
  195.0880  172.7910  139.4620 C   0  0  0  0  0  3  0  0  0  0  0  0
  195.8420  175.1370  139.3130 C   0  0  0  0  0  2  0  0  0  0  0  0
  197.7860  175.5170  137.8940 N   0  0  0  0  0  1  0  0  0  0  0  0
  197.3600  175.2170  139.2490 C   0  0  0  0  0  2  0  0  0  0  0  0
  192.0650  175.5280  144.1820 C   0  0  0  0  0  2  0  0  0  0  0  0
  193.5120  174.8030  146.1050 C   0  0  0  0  0  1  0  0  0  0  0  0
  193.1170  174.5090  144.6620 C   0  0  2  0  0  0  0  0  0  0  0  0
  195.5350  174.3380  144.4880 O   0  0  0  0  0  1  0  0  0  0  0  0
  194.4960  175.8710  142.9870 C   0  0  0  0  0  1  0  0  0  0  0  0
  194.3670  174.5630  143.7560 C   0  0  2  0  0  3  0  0  0  0  0  0
  192.4940  173.1400  144.6420 C   0  0  0  0  0  3  0  0  0  0  0  0
  193.1010  172.1540  145.0290 O   0  0  0  0  0  0  0  0  0  0  0  0
  189.7130  174.6430  144.6290 O   0  0  0  0  0  0  0  0  0  0  0  0
  188.8940  175.1300  146.8190 C   0  0  0  0  0  2  0  0  0  0  0  0
  189.6920  175.6370  145.6340 C   0  0  0  0  0  0  0  0  0  0  0  0
  190.3660  175.4370  146.9890 C   0  0  0  0  0  2  0  0  0  0  0  0
  189.2110  176.9070  145.2710 O   0  0  0  0  0  0  0  0  0  0  0  0
  187.0050  176.5140  145.7380 O   0  0  0  0  0  1  0  0  0  0  0  0
  187.9380  176.7200  144.7190 C   0  0  1  0  0  3  0  0  0  0  0  0
  185.7330  178.4750  142.4320 C   0  0  1  0  0  3  0  0  0  0  0  0
  187.5450  177.9060  143.8370 C   0  0  1  0  0  3  0  0  0  0  0  0
  188.8160  178.5030  141.9230 O   0  0  0  0  0  1  0  0  0  0  0  0
  187.8330  177.6270  142.3790 C   0  0  2  0  0  3  0  0  0  0  0  0
  186.0730  178.1980  143.8750 C   0  0  1  0  0  3  0  0  0  0  0  0
  186.6580  177.7920  141.6200 O   0  0  0  0  0  0  0  0  0  0  0  0
  184.3260  177.9930  142.1340 C   0  0  0  0  0  2  0  0  0  0  0  0
  183.9580  178.3680  140.8440 O   0  0  0  0  0  1  0  0  0  0  0  0
  185.7360  179.3740  144.7950 C   0  0  0  0  0  2  0  0  0  0  0  0
  184.5570  179.0870  145.7170 C   0  0  0  0  0  1  0  0  0  0  0  0
  1  2  1  6  0  0  0
  1  4  1  0  0  0  0
  1  3  1  0  0  0  0
  3 28  1  1  0  0  0
  3 36  1  0  0  0  0
  4  3  1  0  0  0  0
  5 11  1  6  0  0  0
  5  1  1  0  0  0  0
  6  5  1  0  0  0  0
  7 18  1  1  0  0  0
  7 12  1  0  0  0  0
  7  9  1  0  0  0  0
  8  6  1  0  0  0  0
  9  8  2  0  0  0  0
 10 11  1  0  0  0  0
 12 13  1  0  0  0  0
 13  8  1  0  0  0  0
 13 10  1  1  0  0  0
 15 17  1  0  0  0  0
 15 21  1  0  0  0  0
 16 19  1  0  0  0  0
 16 15  1  0  0  0  0
 17 20  2  0  0  0  0
 18 21  1  0  0  0  0
 19 18  2  0  0  0  0
 20 14  1  0  0  0  0
 20 22  1  0  0  0  0
 21 14  1  0  0  0  0
 22 25  1  1  0  0  0
 22 24  1  0  0  0  0
 24 23  2  0  0  0  0
 26 27  1  0  0  0  0
 27 25  1  0  0  0  0
 28 30  1  0  0  0  0
 30 29  1  1  0  0  0
 33 32  1  1  0  0  0
 33 31  1  0  0  0  0
 33 30  1  0  0  0  0
 34 30  1  0  0  0  0
 34 35  2  0  0  0  0
 36 38  1  0  0  0  0
 37 39  1  0  0  0  0
 38 37  1  0  0  0  0
 38 39  1  0  0  0  0
 40 38  1  0  0  0  0
 42 40  1  0  0  0  0
 42 41  1  1  0  0  0
 43 49  1  6  0  0  0
 43 47  1  0  0  0  0
 44 47  1  0  0  0  0
 44 42  1  1  0  0  0
 46 45  1  6  0  0  0
 46 44  1  0  0  0  0
 47 51  1  1  0  0  0
 48 46  1  0  0  0  0
 48 43  1  0  0  0  0
 50 49  1  0  0  0  0
 51 52  1  0  0  0  0
M  END
>  <MODEL>
5

>  <REMARK>
 VINA RESULT:      -6.0      3.229      7.671
  Name = 
  17 active torsions:
  status: ('A' for Active; 'I' for Inactive)
    1  A    between atoms: C_2  and  C_25
    2  A    between atoms: C_3  and  C_51
    3  A    between atoms: C_4  and  C_24
    4  A    between atoms: C_5  and  O_8
    5  A    between atoms: C_5  and  O_42
    6  A    between atoms: C_6  and  C_13
    7  A    between atoms: C_6  and  C_22
    8  A    between atoms: C_6  and  C_29
    9  A    between atoms: O_8  and  C_12
   10  A    between atoms: C_12  and  C_35
   11  A    between atoms: C_19  and  C_31
   12  A    between atoms: C_20  and  C_48
   13  A    between atoms: C_22  and  C_45
   14  A    between atoms: C_23  and  C_34
   15  A    between atoms: C_35  and  C_48
   16  A    between atoms: O_42  and  C_51
   17  A    between atoms: C_48  and  C_50
                            x       y       z     vdW  Elec       q    Type
                         _______ _______ _______ _____ _____    ______ ____

>  <TORSDO>
F 17

$$$$
=
 OpenBabel11062421393D

 52 58  0  0  1  0  0  0  0  0999 V2000
  192.9150  173.8110  139.8020 C   0  0  1  0  0  0  0  0  0  0  0  0
  192.3480  174.2230  138.5930 O   0  0  0  0  0  1  0  0  0  0  0  0
  194.2740  174.3310  140.1080 C   0  0  2  0  0  0  0  0  0  0  0  0
  193.1110  174.8990  140.6750 O   0  0  0  0  0  0  0  0  0  0  0  0
  192.3740  172.5490  140.4980 C   0  0  1  0  0  3  0  0  0  0  0  0
  191.6890  172.8790  141.7160 O   0  0  0  0  0  0  0  0  0  0  0  0
  188.2770  173.8350  142.0690 C   0  0  2  0  0  3  0  0  0  0  0  0
  190.3020  173.0230  141.7260 C   0  0  0  0  0  0  0  0  0  0  0  0
  189.6780  173.8590  142.4650 N   0  0  0  0  0  0  0  0  0  0  0  0
  190.0900  172.3050  139.4210 C   0  0  0  0  0  2  0  0  0  0  0  0
  191.4950  171.7020  139.5520 C   0  0  0  0  0  2  0  0  0  0  0  0
  188.1890  173.0620  140.8190 N   0  0  0  0  0  2  0  0  0  0  0  0
  189.4340  172.3050  140.7920 C   0  0  2  0  0  3  0  0  0  0  0  0
  186.9160  175.8310  144.2010 C   0  0  0  0  0  2  0  0  0  0  0  0
  186.8140  177.1970  142.3580 N   0  0  0  0  0  0  0  0  0  0  0  0
  187.6570  177.3610  141.1830 C   0  0  0  0  0  2  0  0  0  0  0  0
  186.9010  178.0360  143.4680 N   0  0  0  0  0  0  0  0  0  0  0  0
  187.7610  175.2310  141.8740 C   0  0  0  0  0  0  0  0  0  0  0  0
  188.2530  176.0380  140.9870 N   0  0  0  0  0  0  0  0  0  0  0  0
  186.9430  177.3000  144.5340 C   0  0  0  0  0  0  0  0  0  0  0  0
  186.8510  175.8720  142.7510 N   0  0  0  0  0  0  0  0  0  0  0  0
  187.0370  177.8900  145.9170 C   0  0  2  0  0  3  0  0  0  0  0  0
  188.8410  177.8740  147.4440 O   0  0  0  0  0  0  0  0  0  0  0  0
  188.1460  177.2300  146.6750 C   0  0  0  0  0  3  0  0  0  0  0  0
  185.7320  177.7450  146.6980 C   0  0  0  0  0  2  0  0  0  0  0  0
  183.7590  178.6840  145.6190 N   0  0  0  0  0  1  0  0  0  0  0  0
  184.8480  178.9730  146.5350 C   0  0  0  0  0  2  0  0  0  0  0  0
  194.9660  175.2960  139.1290 C   0  0  0  0  0  2  0  0  0  0  0  0
  197.2960  175.1460  138.1980 C   0  0  0  0  0  1  0  0  0  0  0  0
  195.8620  174.6460  138.0570 C   0  0  2  0  0  0  0  0  0  0  0  0
  194.5370  173.9380  136.1470 O   0  0  0  0  0  1  0  0  0  0  0  0
  196.4350  175.2910  135.6460 C   0  0  0  0  0  1  0  0  0  0  0  0
  195.3310  174.9740  136.6450 C   0  0  2  0  0  3  0  0  0  0  0  0
  195.8840  173.1610  138.2950 C   0  0  0  0  0  3  0  0  0  0  0  0
  196.8470  172.4760  137.9860 O   0  0  0  0  0  0  0  0  0  0  0  0
  195.0350  173.6690  141.0960 O   0  0  0  0  0  0  0  0  0  0  0  0
  196.7630  173.8900  142.7300 C   0  0  0  0  0  2  0  0  0  0  0  0
  195.7990  174.6170  141.8140 C   0  0  0  0  0  0  0  0  0  0  0  0
  197.3070  174.7620  141.6200 C   0  0  0  0  0  2  0  0  0  0  0  0
  195.0950  175.5750  142.5630 O   0  0  0  0  0  0  0  0  0  0  0  0
  195.5930  175.8480  144.7800 O   0  0  0  0  0  1  0  0  0  0  0  0
  194.9260  175.0470  143.8480 C   0  0  1  0  0  3  0  0  0  0  0  0
  191.9860  175.7290  145.8630 C   0  0  1  0  0  3  0  0  0  0  0  0
  193.4430  174.9100  144.1940 C   0  0  1  0  0  3  0  0  0  0  0  0
  192.5080  172.8240  144.8380 O   0  0  0  0  0  1  0  0  0  0  0  0
  193.2290  173.9170  145.3150 C   0  0  2  0  0  3  0  0  0  0  0  0
  192.8440  176.1860  144.7090 C   0  0  1  0  0  3  0  0  0  0  0  0
  192.5230  174.5310  146.3680 O   0  0  0  0  0  0  0  0  0  0  0  0
  191.9760  176.7910  146.9470 C   0  0  0  0  0  2  0  0  0  0  0  0
  191.5770  176.2300  148.1580 O   0  0  0  0  0  1  0  0  0  0  0  0
  192.0420  176.9280  143.6370 C   0  0  0  0  0  2  0  0  0  0  0  0
  190.5460  176.9540  143.9270 C   0  0  0  0  0  1  0  0  0  0  0  0
  1  2  1  6  0  0  0
  1  3  1  0  0  0  0
  1  5  1  0  0  0  0
  1  4  1  0  0  0  0
  3 28  1  6  0  0  0
  3  4  1  0  0  0  0
  3 36  1  0  0  0  0
  5 11  1  6  0  0  0
  5  6  1  0  0  0  0
  6  8  1  0  0  0  0
  7 18  1  6  0  0  0
  7  9  1  0  0  0  0
  8  9  2  0  0  0  0
 10 11  1  0  0  0  0
 12  7  1  0  0  0  0
 13 10  1  6  0  0  0
 13 12  1  0  0  0  0
 13  8  1  0  0  0  0
 14 20  1  0  0  0  0
 15 21  1  0  0  0  0
 15 17  1  0  0  0  0
 16 15  1  0  0  0  0
 17 20  2  0  0  0  0
 18 21  1  0  0  0  0
 19 16  1  0  0  0  0
 19 18  2  0  0  0  0
 20 22  1  0  0  0  0
 21 14  1  0  0  0  0
 22 24  1  1  0  0  0
 22 25  1  0  0  0  0
 24 23  2  0  0  0  0
 26 27  1  0  0  0  0
 27 25  1  0  0  0  0
 30 29  1  1  0  0  0
 30 34  1  0  0  0  0
 30 28  1  0  0  0  0
 31 33  1  0  0  0  0
 33 32  1  6  0  0  0
 33 30  1  0  0  0  0
 35 34  2  0  0  0  0
 36 38  1  0  0  0  0
 38 40  1  0  0  0  0
 38 37  1  0  0  0  0
 39 38  1  0  0  0  0
 39 37  1  0  0  0  0
 40 42  1  0  0  0  0
 42 41  1  1  0  0  0
 43 48  1  0  0  0  0
 43 49  1  1  0  0  0
 44 42  1  1  0  0  0
 44 47  1  0  0  0  0
 44 46  1  0  0  0  0
 46 45  1  6  0  0  0
 46 48  1  0  0  0  0
 47 51  1  6  0  0  0
 47 43  1  0  0  0  0
 49 50  1  0  0  0  0
 51 52  1  0  0  0  0
M  END
>  <MODEL>
6

>  <REMARK>
 VINA RESULT:      -5.9      1.682      1.947
  Name = 
  17 active torsions:
  status: ('A' for Active; 'I' for Inactive)
    1  A    between atoms: C_2  and  C_25
    2  A    between atoms: C_3  and  C_51
    3  A    between atoms: C_4  and  C_24
    4  A    between atoms: C_5  and  O_8
    5  A    between atoms: C_5  and  O_42
    6  A    between atoms: C_6  and  C_13
    7  A    between atoms: C_6  and  C_22
    8  A    between atoms: C_6  and  C_29
    9  A    between atoms: O_8  and  C_12
   10  A    between atoms: C_12  and  C_35
   11  A    between atoms: C_19  and  C_31
   12  A    between atoms: C_20  and  C_48
   13  A    between atoms: C_22  and  C_45
   14  A    between atoms: C_23  and  C_34
   15  A    between atoms: C_35  and  C_48
   16  A    between atoms: O_42  and  C_51
   17  A    between atoms: C_48  and  C_50
                            x       y       z     vdW  Elec       q    Type
                         _______ _______ _______ _____ _____    ______ ____

>  <TORSDO>
F 17

$$$$
=
 OpenBabel11062421393D

 52 58  0  0  1  0  0  0  0  0999 V2000
  192.8030  173.8980  143.0290 C   0  0  1  0  0  0  0  0  0  0  0  0
  193.2500  173.2650  141.8670 O   0  0  0  0  0  1  0  0  0  0  0  0
  193.8320  174.6050  143.8370 C   0  0  2  0  0  0  0  0  0  0  0  0
  192.9740  175.2940  142.9510 O   0  0  0  0  0  0  0  0  0  0  0  0
  191.4610  173.4730  143.6520 C   0  0  1  0  0  3  0  0  0  0  0  0
  190.3710  174.2390  143.1150 O   0  0  0  0  0  0  0  0  0  0  0  0
  188.5400  173.5700  140.1350 C   0  0  2  0  0  3  0  0  0  0  0  0
  189.6120  173.7360  142.0590 C   0  0  0  0  0  0  0  0  0  0  0  0
  189.1050  174.4620  141.1370 N   0  0  0  0  0  0  0  0  0  0  0  0
  190.7460  171.5940  142.1030 C   0  0  0  0  0  2  0  0  0  0  0  0
  191.2210  171.9540  143.5180 C   0  0  0  0  0  2  0  0  0  0  0  0
  189.0050  172.2090  140.4510 N   0  0  0  0  0  2  0  0  0  0  0  0
  189.4250  172.3010  141.8430 C   0  0  2  0  0  3  0  0  0  0  0  0
  191.0760  172.5780  138.4110 C   0  0  0  0  0  2  0  0  0  0  0  0
  190.2120  174.0760  136.8990 N   0  0  0  0  0  0  0  0  0  0  0  0
  188.8630  174.5210  136.5860 C   0  0  0  0  0  2  0  0  0  0  0  0
  190.8730  173.0980  136.1560 N   0  0  0  0  0  0  0  0  0  0  0  0
  188.9770  173.9800  138.7580 C   0  0  0  0  0  0  0  0  0  0  0  0
  188.1400  174.3760  137.8520 N   0  0  0  0  0  0  0  0  0  0  0  0
  191.3910  172.2400  136.9780 C   0  0  0  0  0  0  0  0  0  0  0  0
  190.2840  173.7850  138.2490 N   0  0  0  0  0  0  0  0  0  0  0  0
  192.1800  171.0470  136.5050 C   0  0  2  0  0  3  0  0  0  0  0  0
  191.7200  169.5960  134.6970 O   0  0  0  0  0  0  0  0  0  0  0  0
  191.8420  170.7490  135.0780 C   0  0  0  0  0  3  0  0  0  0  0  0
  191.9180  169.8060  137.3580 C   0  0  0  0  0  2  0  0  0  0  0  0
  192.9630  169.0010  139.4070 N   0  0  0  0  0  1  0  0  0  0  0  0
  193.1980  169.2970  138.0050 C   0  0  0  0  0  2  0  0  0  0  0  0
  195.2950  174.6370  143.3600 C   0  0  0  0  0  2  0  0  0  0  0  0
  196.2470  172.3230  143.1200 C   0  0  0  0  0  1  0  0  0  0  0  0
  196.2320  173.5820  143.9800 C   0  0  2  0  0  0  0  0  0  0  0  0
  196.8120  173.3860  146.3320 O   0  0  0  0  0  1  0  0  0  0  0  0
  195.1930  171.8290  145.5310 C   0  0  0  0  0  1  0  0  0  0  0  0
  195.7720  173.2330  145.4120 C   0  0  2  0  0  3  0  0  0  0  0  0
  197.6310  174.1350  143.9820 C   0  0  0  0  0  3  0  0  0  0  0  0
  197.8720  175.2710  143.6010 O   0  0  0  0  0  0  0  0  0  0  0  0
  193.5250  174.9260  145.1770 O   0  0  0  0  0  0  0  0  0  0  0  0
  194.4030  176.7010  146.5120 C   0  0  0  0  0  2  0  0  0  0  0  0
  193.5230  176.3300  145.3350 C   0  0  0  0  0  0  0  0  0  0  0  0
  194.7780  177.1730  145.1250 C   0  0  0  0  0  2  0  0  0  0  0  0
  192.2740  176.9590  145.4840 O   0  0  0  0  0  0  0  0  0  0  0  0
  191.4910  176.9860  147.6340 O   0  0  0  0  0  1  0  0  0  0  0  0
  191.5680  176.2390  146.4560 C   0  0  1  0  0  3  0  0  0  0  0  0
  187.9450  176.4600  146.4330 C   0  0  1  0  0  3  0  0  0  0  0  0
  190.1770  175.8550  145.9490 C   0  0  1  0  0  3  0  0  0  0  0  0
  189.3170  173.6600  146.2310 O   0  0  0  0  0  1  0  0  0  0  0  0
  189.5020  174.8770  146.8840 C   0  0  2  0  0  3  0  0  0  0  0  0
  189.2360  177.0220  145.8890 C   0  0  1  0  0  3  0  0  0  0  0  0
  188.2560  175.3920  147.2940 O   0  0  0  0  0  0  0  0  0  0  0  0
  187.1960  177.5380  147.1920 C   0  0  0  0  0  2  0  0  0  0  0  0
  186.0790  177.9420  146.4640 O   0  0  0  0  0  1  0  0  0  0  0  0
  189.0840  177.5770  144.4700 C   0  0  0  0  0  2  0  0  0  0  0  0
  188.0090  176.8580  143.6640 C   0  0  0  0  0  1  0  0  0  0  0  0
  1  2  1  6  0  0  0
  1  5  1  0  0  0  0
  1  3  1  0  0  0  0
  3 28  1  6  0  0  0
  3 36  1  0  0  0  0
  4  1  1  0  0  0  0
  4  3  1  0  0  0  0
  5 11  1  6  0  0  0
  6  5  1  0  0  0  0
  7 18  1  6  0  0  0
  7 12  1  0  0  0  0
  7  9  1  0  0  0  0
  8  6  1  0  0  0  0
  9  8  2  0  0  0  0
 10 11  1  0  0  0  0
 12 13  1  0  0  0  0
 13  8  1  0  0  0  0
 13 10  1  6  0  0  0
 15 21  1  0  0  0  0
 16 15  1  0  0  0  0
 16 19  1  0  0  0  0
 17 15  1  0  0  0  0
 17 20  2  0  0  0  0
 19 18  2  0  0  0  0
 20 14  1  0  0  0  0
 21 14  1  0  0  0  0
 21 18  1  0  0  0  0
 22 24  1  6  0  0  0
 22 20  1  0  0  0  0
 22 25  1  0  0  0  0
 23 24  2  0  0  0  0
 25 27  1  0  0  0  0
 27 26  1  0  0  0  0
 28 30  1  0  0  0  0
 30 29  1  6  0  0  0
 30 34  1  0  0  0  0
 30 33  1  0  0  0  0
 33 32  1  6  0  0  0
 33 31  1  0  0  0  0
 35 34  2  0  0  0  0
 36 38  1  0  0  0  0
 38 40  1  0  0  0  0
 38 37  1  0  0  0  0
 39 38  1  0  0  0  0
 39 37  1  0  0  0  0
 40 42  1  0  0  0  0
 42 41  1  1  0  0  0
 43 49  1  1  0  0  0
 43 48  1  0  0  0  0
 44 42  1  1  0  0  0
 44 46  1  0  0  0  0
 46 45  1  6  0  0  0
 46 48  1  0  0  0  0
 47 51  1  6  0  0  0
 47 44  1  0  0  0  0
 47 43  1  0  0  0  0
 50 49  1  0  0  0  0
 52 51  1  0  0  0  0
M  END
>  <MODEL>
7

>  <REMARK>
 VINA RESULT:      -5.9      2.964      6.455
  Name = 
  17 active torsions:
  status: ('A' for Active; 'I' for Inactive)
    1  A    between atoms: C_2  and  C_25
    2  A    between atoms: C_3  and  C_51
    3  A    between atoms: C_4  and  C_24
    4  A    between atoms: C_5  and  O_8
    5  A    between atoms: C_5  and  O_42
    6  A    between atoms: C_6  and  C_13
    7  A    between atoms: C_6  and  C_22
    8  A    between atoms: C_6  and  C_29
    9  A    between atoms: O_8  and  C_12
   10  A    between atoms: C_12  and  C_35
   11  A    between atoms: C_19  and  C_31
   12  A    between atoms: C_20  and  C_48
   13  A    between atoms: C_22  and  C_45
   14  A    between atoms: C_23  and  C_34
   15  A    between atoms: C_35  and  C_48
   16  A    between atoms: O_42  and  C_51
   17  A    between atoms: C_48  and  C_50
                            x       y       z     vdW  Elec       q    Type
                         _______ _______ _______ _____ _____    ______ ____

>  <TORSDO>
F 17

$$$$
=
 OpenBabel11062421393D

 52 58  0  0  1  0  0  0  0  0999 V2000
  193.0660  173.9260  139.8980 C   0  0  1  0  0  0  0  0  0  0  0  0
  192.8960  174.5210  138.6460 O   0  0  0  0  0  1  0  0  0  0  0  0
  194.3590  174.1830  140.5840 C   0  0  2  0  0  0  0  0  0  0  0  0
  193.1840  174.8930  140.9150 O   0  0  0  0  0  0  0  0  0  0  0  0
  192.1870  172.7230  140.2880 C   0  0  1  0  0  3  0  0  0  0  0  0
  191.4220  172.9980  141.4730 O   0  0  0  0  0  0  0  0  0  0  0  0
  188.2640  174.6320  141.6590 C   0  0  2  0  0  3  0  0  0  0  0  0
  190.1070  173.4490  141.3710 C   0  0  0  0  0  0  0  0  0  0  0  0
  189.5720  174.2740  142.1890 N   0  0  0  0  0  0  0  0  0  0  0  0
  190.0710  173.1800  138.9630 C   0  0  0  0  0  2  0  0  0  0  0  0
  191.2920  172.2620  139.1170 C   0  0  0  0  0  2  0  0  0  0  0  0
  188.1920  174.1110  140.2840 N   0  0  0  0  0  2  0  0  0  0  0  0
  189.2470  173.1060  140.2390 C   0  0  2  0  0  3  0  0  0  0  0  0
  185.9950  176.3900  143.1240 C   0  0  0  0  0  2  0  0  0  0  0  0
  187.1660  178.1070  142.1460 N   0  0  0  0  0  0  0  0  0  0  0  0
  188.5680  178.3040  141.8130 C   0  0  0  0  0  2  0  0  0  0  0  0
  186.5870  178.6290  143.3020 N   0  0  0  0  0  0  0  0  0  0  0  0
  188.0770  176.1210  141.6800 C   0  0  0  0  0  0  0  0  0  0  0  0
  189.0680  176.9480  141.5720 N   0  0  0  0  0  0  0  0  0  0  0  0
  185.9010  177.6910  143.8760 C   0  0  0  0  0  0  0  0  0  0  0  0
  186.8620  176.7640  142.0200 N   0  0  0  0  0  0  0  0  0  0  0  0
  185.1410  177.9180  145.1570 C   0  0  2  0  0  3  0  0  0  0  0  0
  183.4980  178.8330  143.7250 O   0  0  0  0  0  0  0  0  0  0  0  0
  183.8870  178.6830  144.8730 C   0  0  0  0  0  3  0  0  0  0  0  0
  185.9700  178.6710  146.1960 C   0  0  0  0  0  2  0  0  0  0  0  0
  185.9530  177.0200  147.9880 N   0  0  0  0  0  1  0  0  0  0  0  0
  186.8030  177.7160  147.0390 C   0  0  0  0  0  2  0  0  0  0  0  0
  195.4120  175.0900  139.9240 C   0  0  0  0  0  2  0  0  0  0  0  0
  197.8380  174.7570  139.3540 C   0  0  0  0  0  1  0  0  0  0  0  0
  196.4060  174.3940  138.9740 C   0  0  2  0  0  0  0  0  0  0  0  0
  195.8760  173.6990  136.7060 O   0  0  0  0  0  1  0  0  0  0  0  0
  197.2580  175.6330  136.9010 C   0  0  0  0  0  1  0  0  0  0  0  0
  196.1320  174.8110  137.5130 C   0  0  2  0  0  3  0  0  0  0  0  0
  196.2640  172.9060  139.1470 C   0  0  0  0  0  3  0  0  0  0  0  0
  197.1550  172.2300  139.6380 O   0  0  0  0  0  0  0  0  0  0  0  0
  194.7360  173.3260  141.6420 O   0  0  0  0  0  0  0  0  0  0  0  0
  196.6920  173.9500  142.8630 C   0  0  0  0  0  2  0  0  0  0  0  0
  195.1890  174.1010  142.7340 C   0  0  0  0  0  0  0  0  0  0  0  0
  196.1040  175.3080  142.5500 C   0  0  0  0  0  2  0  0  0  0  0  0
  194.5980  173.8540  143.9860 O   0  0  0  0  0  0  0  0  0  0  0  0
  192.4610  173.3320  144.6130 O   0  0  0  0  0  1  0  0  0  0  0  0
  193.2510  174.2220  143.8830 C   0  0  1  0  0  3  0  0  0  0  0  0
  191.7640  176.7640  146.0040 C   0  0  1  0  0  3  0  0  0  0  0  0
  193.0410  175.6630  144.3490 C   0  0  1  0  0  3  0  0  0  0  0  0
  192.0420  177.2900  142.9360 O   0  0  0  0  0  1  0  0  0  0  0  0
  191.7530  176.2350  143.8010 C   0  0  2  0  0  3  0  0  0  0  0  0
  192.8950  175.7790  145.8380 C   0  0  1  0  0  3  0  0  0  0  0  0
  190.9470  176.6960  144.8600 O   0  0  0  0  0  0  0  0  0  0  0  0
  190.9570  176.4150  147.2400 C   0  0  0  0  0  2  0  0  0  0  0  0
  190.1990  177.5140  147.6380 O   0  0  0  0  0  1  0  0  0  0  0  0
  194.1850  176.2450  146.5160 C   0  0  0  0  0  2  0  0  0  0  0  0
  194.7280  177.5430  145.9310 C   0  0  0  0  0  1  0  0  0  0  0  0
  1  2  1  6  0  0  0
  1  5  1  0  0  0  0
  1  3  1  0  0  0  0
  1  4  1  0  0  0  0
  3 28  1  6  0  0  0
  3  4  1  0  0  0  0
  3 36  1  0  0  0  0
  5 11  1  6  0  0  0
  5  6  1  0  0  0  0
  7 18  1  6  0  0  0
  7  9  1  0  0  0  0
  8  6  1  0  0  0  0
  8  9  2  0  0  0  0
 10 11  1  0  0  0  0
 12  7  1  0  0  0  0
 13 10  1  6  0  0  0
 13 12  1  0  0  0  0
 13  8  1  0  0  0  0
 14 20  1  0  0  0  0
 15 17  1  0  0  0  0
 16 15  1  0  0  0  0
 17 20  2  0  0  0  0
 18 21  1  0  0  0  0
 19 18  2  0  0  0  0
 19 16  1  0  0  0  0
 20 22  1  0  0  0  0
 21 15  1  0  0  0  0
 21 14  1  0  0  0  0
 22 24  1  6  0  0  0
 22 25  1  0  0  0  0
 23 24  2  0  0  0  0
 25 27  1  0  0  0  0
 27 26  1  0  0  0  0
 30 34  1  0  0  0  0
 30 29  1  1  0  0  0
 30 28  1  0  0  0  0
 31 33  1  0  0  0  0
 33 32  1  6  0  0  0
 33 30  1  0  0  0  0
 34 35  2  0  0  0  0
 36 38  1  0  0  0  0
 38 37  1  0  0  0  0
 38 40  1  0  0  0  0
 39 38  1  0  0  0  0
 39 37  1  0  0  0  0
 42 40  1  0  0  0  0
 42 41  1  1  0  0  0
 43 49  1  1  0  0  0
 44 42  1  1  0  0  0
 44 47  1  0  0  0  0
 46 45  1  6  0  0  0
 46 44  1  0  0  0  0
 46 48  1  0  0  0  0
 47 43  1  0  0  0  0
 47 51  1  1  0  0  0
 48 43  1  0  0  0  0
 49 50  1  0  0  0  0
 52 51  1  0  0  0  0
M  END
>  <MODEL>
8

>  <REMARK>
 VINA RESULT:      -5.9      1.274      1.777
  Name = 
  17 active torsions:
  status: ('A' for Active; 'I' for Inactive)
    1  A    between atoms: C_2  and  C_25
    2  A    between atoms: C_3  and  C_51
    3  A    between atoms: C_4  and  C_24
    4  A    between atoms: C_5  and  O_8
    5  A    between atoms: C_5  and  O_42
    6  A    between atoms: C_6  and  C_13
    7  A    between atoms: C_6  and  C_22
    8  A    between atoms: C_6  and  C_29
    9  A    between atoms: O_8  and  C_12
   10  A    between atoms: C_12  and  C_35
   11  A    between atoms: C_19  and  C_31
   12  A    between atoms: C_20  and  C_48
   13  A    between atoms: C_22  and  C_45
   14  A    between atoms: C_23  and  C_34
   15  A    between atoms: C_35  and  C_48
   16  A    between atoms: O_42  and  C_51
   17  A    between atoms: C_48  and  C_50
                            x       y       z     vdW  Elec       q    Type
                         _______ _______ _______ _____ _____    ______ ____

>  <TORSDO>
F 17

$$$$
=
 OpenBabel11062421393D

 52 58  0  0  1  0  0  0  0  0999 V2000
  193.1690  175.1670  144.2550 C   0  0  1  0  0  0  0  0  0  0  0  0
  192.1610  174.5790  143.4880 O   0  0  0  0  0  1  0  0  0  0  0  0
  194.5680  174.8410  143.8740 C   0  0  2  0  0  0  0  0  0  0  0  0
  193.9510  176.0500  143.4860 O   0  0  0  0  0  0  0  0  0  0  0  0
  192.8340  175.7010  145.6600 C   0  0  1  0  0  3  0  0  0  0  0  0
  192.1490  176.9620  145.5890 O   0  0  0  0  0  0  0  0  0  0  0  0
  188.6490  177.4840  145.1860 C   0  0  2  0  0  3  0  0  0  0  0  0
  190.7570  177.0090  145.6480 C   0  0  0  0  0  0  0  0  0  0  0  0
  190.0450  177.8590  145.0100 N   0  0  0  0  0  0  0  0  0  0  0  0
  190.5730  174.6340  146.0920 C   0  0  0  0  0  2  0  0  0  0  0  0
  192.0530  174.6660  146.4970 C   0  0  0  0  0  2  0  0  0  0  0  0
  188.6310  176.1450  145.7990 N   0  0  0  0  0  2  0  0  0  0  0  0
  189.9690  176.0030  146.3600 C   0  0  2  0  0  3  0  0  0  0  0  0
  189.3930  175.9310  142.4620 C   0  0  0  0  0  2  0  0  0  0  0  0
  187.4970  176.9990  141.7280 N   0  0  0  0  0  0  0  0  0  0  0  0
  186.2610  177.4100  142.3760 C   0  0  0  0  0  2  0  0  0  0  0  0
  187.6020  175.8230  140.9860 N   0  0  0  0  0  0  0  0  0  0  0  0
  187.9350  177.4790  143.8660 C   0  0  0  0  0  0  0  0  0  0  0  0
  186.6560  177.6540  143.7660 N   0  0  0  0  0  0  0  0  0  0  0  0
  188.6730  175.1970  141.3610 C   0  0  0  0  0  0  0  0  0  0  0  0
  188.5310  177.0860  142.6420 N   0  0  0  0  0  0  0  0  0  0  0  0
  189.0910  173.8820  140.7570 C   0  0  2  0  0  3  0  0  0  0  0  0
  188.0790  172.7570  138.9420 O   0  0  0  0  0  0  0  0  0  0  0  0
  188.5880  173.7880  139.3500 C   0  0  0  0  0  3  0  0  0  0  0  0
  188.5780  172.6880  141.5600 C   0  0  0  0  0  2  0  0  0  0  0  0
  190.9550  172.1630  141.4620 N   0  0  0  0  0  1  0  0  0  0  0  0
  189.7230  171.9080  142.1870 C   0  0  0  0  0  2  0  0  0  0  0  0
  194.8420  173.9230  142.6700 C   0  0  0  0  0  2  0  0  0  0  0  0
  196.6760  173.5230  140.9980 C   0  0  0  0  0  1  0  0  0  0  0  0
  195.6670  174.5380  141.5230 C   0  0  2  0  0  0  0  0  0  0  0  0
  195.9810  176.9400  141.3210 O   0  0  0  0  0  1  0  0  0  0  0  0
  197.9210  175.6890  141.9190 C   0  0  0  0  0  1  0  0  0  0  0  0
  196.4050  175.8030  142.0130 C   0  0  2  0  0  3  0  0  0  0  0  0
  194.7330  174.8630  140.3890 C   0  0  0  0  0  3  0  0  0  0  0  0
  193.5660  174.5010  140.3970 O   0  0  0  0  0  0  0  0  0  0  0  0
  195.5910  175.0850  144.8160 O   0  0  0  0  0  0  0  0  0  0  0  0
  197.6720  173.9590  145.1440 C   0  0  0  0  0  2  0  0  0  0  0  0
  196.1610  173.8560  145.2190 C   0  0  0  0  0  0  0  0  0  0  0  0
  197.0080  173.7280  146.4830 C   0  0  0  0  0  2  0  0  0  0  0  0
  195.7500  172.7010  144.5320 O   0  0  0  0  0  0  0  0  0  0  0  0
  193.9570  171.9780  145.7570 O   0  0  0  0  0  1  0  0  0  0  0  0
  195.3160  171.7830  145.4970 C   0  0  1  0  0  3  0  0  0  0  0  0
  194.6210  168.7870  143.5710 C   0  0  1  0  0  3  0  0  0  0  0  0
  195.5970  170.3470  145.0520 C   0  0  1  0  0  3  0  0  0  0  0  0
  195.4520  168.5290  146.5720 O   0  0  0  0  0  1  0  0  0  0  0  0
  194.6890  169.3660  145.7600 C   0  0  2  0  0  3  0  0  0  0  0  0
  195.3200  170.1240  143.5950 C   0  0  1  0  0  3  0  0  0  0  0  0
  193.9850  168.5980  144.8120 O   0  0  0  0  0  0  0  0  0  0  0  0
  193.5960  168.7630  142.4530 C   0  0  0  0  0  2  0  0  0  0  0  0
  192.3130  168.6740  142.9880 O   0  0  0  0  0  1  0  0  0  0  0  0
  196.5970  170.1350  142.7500 C   0  0  0  0  0  2  0  0  0  0  0  0
  197.6400  169.1370  143.2380 C   0  0  0  0  0  1  0  0  0  0  0  0
  1  2  1  6  0  0  0
  1  5  1  0  0  0  0
  3 28  1  6  0  0  0
  3  1  1  0  0  0  0
  3 36  1  0  0  0  0
  4  3  1  0  0  0  0
  4  1  1  0  0  0  0
  5 11  1  6  0  0  0
  6  8  1  0  0  0  0
  6  5  1  0  0  0  0
  7 18  1  6  0  0  0
  7 12  1  0  0  0  0
  8 13  1  0  0  0  0
  9  7  1  0  0  0  0
  9  8  2  0  0  0  0
 10 11  1  0  0  0  0
 12 13  1  0  0  0  0
 13 10  1  6  0  0  0
 14 21  1  0  0  0  0
 15 16  1  0  0  0  0
 15 21  1  0  0  0  0
 16 19  1  0  0  0  0
 17 20  2  0  0  0  0
 17 15  1  0  0  0  0
 19 18  2  0  0  0  0
 20 14  1  0  0  0  0
 21 18  1  0  0  0  0
 22 24  1  6  0  0  0
 22 20  1  0  0  0  0
 22 25  1  0  0  0  0
 23 24  2  0  0  0  0
 25 27  1  0  0  0  0
 26 27  1  0  0  0  0
 30 29  1  6  0  0  0
 30 33  1  0  0  0  0
 30 28  1  0  0  0  0
 31 33  1  0  0  0  0
 33 32  1  6  0  0  0
 34 35  2  0  0  0  0
 34 30  1  0  0  0  0
 36 38  1  0  0  0  0
 37 38  1  0  0  0  0
 37 39  1  0  0  0  0
 38 39  1  0  0  0  0
 40 38  1  0  0  0  0
 40 42  1  0  0  0  0
 42 41  1  6  0  0  0
 43 49  1  6  0  0  0
 43 47  1  0  0  0  0
 43 48  1  0  0  0  0
 44 42  1  1  0  0  0
 44 46  1  0  0  0  0
 46 45  1  1  0  0  0
 47 51  1  6  0  0  0
 47 44  1  0  0  0  0
 48 46  1  0  0  0  0
 49 50  1  0  0  0  0
 51 52  1  0  0  0  0
M  END
>  <MODEL>
9

>  <REMARK>
 VINA RESULT:      -5.8      2.749      5.638
  Name = 
  17 active torsions:
  status: ('A' for Active; 'I' for Inactive)
    1  A    between atoms: C_2  and  C_25
    2  A    between atoms: C_3  and  C_51
    3  A    between atoms: C_4  and  C_24
    4  A    between atoms: C_5  and  O_8
    5  A    between atoms: C_5  and  O_42
    6  A    between atoms: C_6  and  C_13
    7  A    between atoms: C_6  and  C_22
    8  A    between atoms: C_6  and  C_29
    9  A    between atoms: O_8  and  C_12
   10  A    between atoms: C_12  and  C_35
   11  A    between atoms: C_19  and  C_31
   12  A    between atoms: C_20  and  C_48
   13  A    between atoms: C_22  and  C_45
   14  A    between atoms: C_23  and  C_34
   15  A    between atoms: C_35  and  C_48
   16  A    between atoms: O_42  and  C_51
   17  A    between atoms: C_48  and  C_50
                            x       y       z     vdW  Elec       q    Type
                         _______ _______ _______ _____ _____    ______ ____

>  <TORSDO>
F 17

$$$$
