=
 OpenBabel11062420063D

 35 38  0  0  1  0  0  0  0  0999 V2000
  189.2530  172.2100  143.4790 N   0  0  0  0  0  2  0  0  0  0  0  0
  189.9000  174.5110  143.0340 C   0  0  0  0  0  0  0  0  0  0  0  0
  188.7150  172.2220  142.1660 N   0  0  0  0  0  2  0  0  0  0  0  0
  189.6070  176.7450  142.5970 C   0  0  1  0  0  3  0  0  0  0  0  0
  187.7340  178.2450  143.2350 C   0  0  0  0  0  3  0  0  0  0  0  0
  190.3990  175.7040  143.3490 C   0  0  2  0  0  3  0  0  0  0  0  0
  186.8820  177.6440  142.1700 C   0  0  0  0  0  0  0  0  0  0  0  0
  187.2330  176.4860  141.5980 C   0  0  0  0  0  3  0  0  0  0  0  0
  188.5310  175.9080  141.9600 C   0  0  2  0  0  3  0  0  0  0  0  0
  187.8970  173.4340  141.9780 C   0  0  0  0  0  2  0  0  0  0  0  0
  188.7720  174.6270  142.1720 C   0  0  0  0  0  0  0  0  0  0  0  0
  188.9770  177.7980  143.4750 C   0  0  0  0  0  3  0  0  0  0  0  0
  190.2180  173.2370  143.5880 N   0  0  0  0  0  2  0  0  0  0  0  0
  191.3470  176.1730  145.6050 C   0  0  0  0  0  3  0  0  0  0  0  0
  191.5510  175.9760  144.2390 C   0  0  0  0  0  0  0  0  0  0  0  0
  194.6930  176.7220  146.6800 O   0  0  0  0  0  0  0  0  0  0  0  0
  193.7190  176.4900  145.9130 C   0  0  0  0  0  0  0  0  0  0  0  0
  192.2160  176.6230  147.7730 F   0  0  0  0  0  0  0  0  0  0  0  0
  193.9190  176.2970  144.5710 N   0  0  0  0  0  0  0  0  0  0  0  0
  192.4270  176.4300  146.4470 C   0  0  0  0  0  0  0  0  0  0  0  0
  192.8590  176.0460  143.7440 C   0  0  0  0  0  3  0  0  0  0  0  0
  195.2540  176.3610  144.0380 C   0  0  0  0  0  3  0  0  0  0  0  0
  195.6350  175.6770  142.9620 C   0  0  0  0  0  2  0  0  0  0  0  0
  185.5560  178.2470  141.8330 C   0  0  1  0  0  3  0  0  0  0  0  0
  185.2370  177.9750  140.5030 O   0  0  0  0  0  1  0  0  0  0  0  0
  184.5160  177.7150  142.7030 N   0  0  0  0  0  2  0  0  0  0  0  0
  183.8490  178.8420  143.3410 C   0  0  0  0  0  2  0  0  0  0  0  0
  184.4850  179.1360  144.6900 C   0  0  0  0  0  2  0  0  0  0  0  0
  183.6730  178.6500  145.7160 O   0  0  0  0  0  0  0  0  0  0  0  0
  184.5620  178.3010  146.7330 C   0  0  0  0  0  2  0  0  0  0  0  0
  185.3500  177.0670  146.3290 C   0  0  0  0  0  2  0  0  0  0  0  0
  186.5970  176.9160  147.1880 C   0  0  2  0  0  3  0  0  0  0  0  0
  187.0810  178.1770  147.5380 O   0  0  0  0  0  1  0  0  0  0  0  0
  187.6690  176.1670  146.4180 C   0  0  0  0  0  2  0  0  0  0  0  0
  188.3800  175.3310  147.2810 O   0  0  0  0  0  1  0  0  0  0  0  0
  1 13  1  0  0  0  0
  2  6  1  0  0  0  0
  2 13  1  0  0  0  0
  3  1  1  0  0  0  0
  4  6  1  0  0  0  0
  4 12  1  1  0  0  0
  5 12  2  0  0  0  0
  6 15  1  6  0  0  0
  7  5  1  0  0  0  0
  8  7  2  0  0  0  0
  9  8  1  1  0  0  0
  9 11  1  0  0  0  0
  9  4  1  0  0  0  0
 10  3  1  0  0  0  0
 10 11  1  0  0  0  0
 11  2  2  0  0  0  0
 14 20  2  0  0  0  0
 15 14  1  0  0  0  0
 17 20  1  0  0  0  0
 17 16  2  0  0  0  0
 19 17  1  0  0  0  0
 20 18  1  0  0  0  0
 21 15  2  0  0  0  0
 21 19  1  0  0  0  0
 22 19  1  0  0  0  0
 23 22  2  0  0  0  0
 24 25  1  6  0  0  0
 24  7  1  0  0  0  0
 24 26  1  0  0  0  0
 26 27  1  0  0  0  0
 27 28  1  0  0  0  0
 28 29  1  0  0  0  0
 29 30  1  0  0  0  0
 31 30  1  0  0  0  0
 31 32  1  0  0  0  0
 32 33  1  6  0  0  0
 34 32  1  0  0  0  0
 34 35  1  0  0  0  0
M  END
>  <MODEL>
1

>  <REMARK>
 VINA RESULT:      -7.2      0.000      0.000
  Name = 
  11 active torsions:
  status: ('A' for Active; 'I' for Inactive)
    1  A    between atoms: N_2  and  C_16
    2  A    between atoms: N_2  and  C_21
    3  A    between atoms: C_4  and  N_27
    4  A    between atoms: C_6  and  C_8
    5  A    between atoms: C_6  and  O_18
    6  A    between atoms: C_7  and  C_14
    7  A    between atoms: C_8  and  C_17
    8  A    between atoms: C_11  and  C_17
    9  A    between atoms: C_16  and  C_19
   10  A    between atoms: O_18  and  C_19
   11  A    between atoms: C_20  and  C_21
                            x       y       z     vdW  Elec       q    Type
                         _______ _______ _______ _____ _____    ______ ____

>  <TORSDO>
F 11

$$$$
=
 OpenBabel11062420063D

 35 38  0  0  1  0  0  0  0  0999 V2000
  189.5790  173.4200  141.5830 N   0  0  0  0  0  2  0  0  0  0  0  0
  190.2120  175.3470  142.9240 C   0  0  0  0  0  0  0  0  0  0  0  0
  188.4220  174.1700  141.2480 N   0  0  0  0  0  2  0  0  0  0  0  0
  190.0610  176.8860  144.6200 C   0  0  1  0  0  3  0  0  0  0  0  0
  189.0840  176.6420  146.8890 C   0  0  0  0  0  3  0  0  0  0  0  0
  190.9710  176.0150  143.7880 C   0  0  2  0  0  3  0  0  0  0  0  0
  187.7110  176.7350  146.3150 C   0  0  0  0  0  0  0  0  0  0  0  0
  187.5190  176.5810  144.9990 C   0  0  0  0  0  3  0  0  0  0  0  0
  188.7020  176.4490  144.1430 C   0  0  2  0  0  3  0  0  0  0  0  0
  187.8230  174.7290  142.4730 C   0  0  0  0  0  2  0  0  0  0  0  0
  188.8270  175.6210  143.1220 C   0  0  0  0  0  0  0  0  0  0  0  0
  190.1750  176.6560  146.1080 C   0  0  0  0  0  3  0  0  0  0  0  0
  190.5870  174.3070  142.0260 N   0  0  0  0  0  2  0  0  0  0  0  0
  193.0470  175.6720  145.1250 C   0  0  0  0  0  3  0  0  0  0  0  0
  192.4470  175.9610  143.8980 C   0  0  0  0  0  0  0  0  0  0  0  0
  196.4810  175.8110  144.2080 O   0  0  0  0  0  0  0  0  0  0  0  0
  195.2240  175.8600  144.1040 C   0  0  0  0  0  0  0  0  0  0  0  0
  195.0050  175.3420  146.4320 F   0  0  0  0  0  0  0  0  0  0  0  0
  194.6360  176.1440  142.8990 N   0  0  0  0  0  0  0  0  0  0  0  0
  194.4340  175.6210  145.2340 C   0  0  0  0  0  0  0  0  0  0  0  0
  193.2730  176.1960  142.7920 C   0  0  0  0  0  3  0  0  0  0  0  0
  195.4620  176.3860  141.7470 C   0  0  0  0  0  3  0  0  0  0  0  0
  195.2570  175.7940  140.5730 C   0  0  0  0  0  2  0  0  0  0  0  0
  186.5220  176.8520  147.2130 C   0  0  1  0  0  3  0  0  0  0  0  0
  186.5920  178.0440  147.9360 O   0  0  0  0  0  1  0  0  0  0  0  0
  185.2900  176.8240  146.4380 N   0  0  0  0  0  2  0  0  0  0  0  0
  184.5100  177.9990  146.7980 C   0  0  0  0  0  2  0  0  0  0  0  0
  184.2370  178.8490  145.5680 C   0  0  0  0  0  2  0  0  0  0  0  0
  185.3840  179.5610  145.2150 O   0  0  0  0  0  0  0  0  0  0  0  0
  185.2260  179.8320  143.8560 C   0  0  0  0  0  2  0  0  0  0  0  0
  186.3450  179.1760  143.0640 C   0  0  0  0  0  2  0  0  0  0  0  0
  185.7830  178.3350  141.9280 C   0  0  2  0  0  3  0  0  0  0  0  0
  185.1770  177.1900  142.4450 O   0  0  0  0  0  1  0  0  0  0  0  0
  186.8990  177.9250  140.9850 C   0  0  0  0  0  2  0  0  0  0  0  0
  186.3720  177.2380  139.8910 O   0  0  0  0  0  1  0  0  0  0  0  0
  1 13  1  0  0  0  0
  2 11  2  0  0  0  0
  2  6  1  0  0  0  0
  3  1  1  0  0  0  0
  3 10  1  0  0  0  0
  4 12  1  1  0  0  0
  6 15  1  6  0  0  0
  6  4  1  0  0  0  0
  7  5  1  0  0  0  0
  7 24  1  0  0  0  0
  8  7  2  0  0  0  0
  9  4  1  0  0  0  0
  9  8  1  1  0  0  0
 10 11  1  0  0  0  0
 11  9  1  0  0  0  0
 12  5  2  0  0  0  0
 13  2  1  0  0  0  0
 14 20  2  0  0  0  0
 15 14  1  0  0  0  0
 17 16  2  0  0  0  0
 17 20  1  0  0  0  0
 19 17  1  0  0  0  0
 20 18  1  0  0  0  0
 21 19  1  0  0  0  0
 21 15  2  0  0  0  0
 22 19  1  0  0  0  0
 23 22  2  0  0  0  0
 24 25  1  6  0  0  0
 26 27  1  0  0  0  0
 26 24  1  0  0  0  0
 28 27  1  0  0  0  0
 29 28  1  0  0  0  0
 30 29  1  0  0  0  0
 31 30  1  0  0  0  0
 32 33  1  1  0  0  0
 32 31  1  0  0  0  0
 34 32  1  0  0  0  0
 35 34  1  0  0  0  0
M  END
>  <MODEL>
2

>  <REMARK>
 VINA RESULT:      -7.0      1.700      3.566
  Name = 
  11 active torsions:
  status: ('A' for Active; 'I' for Inactive)
    1  A    between atoms: N_2  and  C_16
    2  A    between atoms: N_2  and  C_21
    3  A    between atoms: C_4  and  N_27
    4  A    between atoms: C_6  and  C_8
    5  A    between atoms: C_6  and  O_18
    6  A    between atoms: C_7  and  C_14
    7  A    between atoms: C_8  and  C_17
    8  A    between atoms: C_11  and  C_17
    9  A    between atoms: C_16  and  C_19
   10  A    between atoms: O_18  and  C_19
   11  A    between atoms: C_20  and  C_21
                            x       y       z     vdW  Elec       q    Type
                         _______ _______ _______ _____ _____    ______ ____

>  <TORSDO>
F 11

$$$$
=
 OpenBabel11062420063D

 35 38  0  0  1  0  0  0  0  0999 V2000
  189.1450  172.2140  143.3530 N   0  0  0  0  0  2  0  0  0  0  0  0
  189.8160  174.4900  142.8240 C   0  0  0  0  0  0  0  0  0  0  0  0
  188.5560  172.2030  142.0620 N   0  0  0  0  0  2  0  0  0  0  0  0
  189.5460  176.7180  142.3400 C   0  0  1  0  0  3  0  0  0  0  0  0
  187.7280  178.2680  143.0110 C   0  0  0  0  0  3  0  0  0  0  0  0
  190.3480  175.6800  143.0880 C   0  0  2  0  0  3  0  0  0  0  0  0
  186.8230  177.6580  141.9950 C   0  0  0  0  0  0  0  0  0  0  0  0
  187.1310  176.4790  141.4400 C   0  0  0  0  0  3  0  0  0  0  0  0
  188.4310  175.8850  141.7670 C   0  0  2  0  0  3  0  0  0  0  0  0
  187.7530  173.4250  141.8740 C   0  0  0  0  0  2  0  0  0  0  0  0
  188.6570  174.6060  142.0030 C   0  0  0  0  0  0  0  0  0  0  0  0
  188.9700  177.8040  143.2150 C   0  0  0  0  0  3  0  0  0  0  0  0
  190.1310  173.2250  143.3980 N   0  0  0  0  0  2  0  0  0  0  0  0
  192.8000  176.0550  143.3380 C   0  0  0  0  0  3  0  0  0  0  0  0
  191.5380  175.9530  143.9270 C   0  0  0  0  0  0  0  0  0  0  0  0
  194.7970  176.6970  146.2110 O   0  0  0  0  0  0  0  0  0  0  0  0
  193.7770  176.4650  145.5050 C   0  0  0  0  0  0  0  0  0  0  0  0
  195.1430  176.4040  143.5390 F   0  0  0  0  0  0  0  0  0  0  0  0
  192.5380  176.3640  146.0830 N   0  0  0  0  0  0  0  0  0  0  0  0
  193.9220  176.3100  144.1220 C   0  0  0  0  0  0  0  0  0  0  0  0
  191.4360  176.1120  145.3140 C   0  0  0  0  0  3  0  0  0  0  0  0
  192.4060  176.5260  147.5070 C   0  0  0  0  0  3  0  0  0  0  0  0
  191.3350  176.1200  148.1840 C   0  0  0  0  0  2  0  0  0  0  0  0
  185.4970  178.2780  141.6940 C   0  0  1  0  0  3  0  0  0  0  0  0
  185.2080  178.1390  140.3360 O   0  0  0  0  0  1  0  0  0  0  0  0
  184.4470  177.6470  142.4820 N   0  0  0  0  0  2  0  0  0  0  0  0
  183.7690  178.6920  143.2370 C   0  0  0  0  0  2  0  0  0  0  0  0
  184.5380  179.0110  144.5080 C   0  0  0  0  0  2  0  0  0  0  0  0
  183.6850  178.9480  145.6110 O   0  0  0  0  0  0  0  0  0  0  0  0
  184.2910  178.0340  146.4730 C   0  0  0  0  0  2  0  0  0  0  0  0
  185.7340  177.8070  146.0540 C   0  0  0  0  0  2  0  0  0  0  0  0
  186.6100  177.5210  147.2650 C   0  0  2  0  0  3  0  0  0  0  0  0
  186.6830  178.6580  148.0700 O   0  0  0  0  0  1  0  0  0  0  0  0
  188.0080  177.1400  146.8140 C   0  0  0  0  0  2  0  0  0  0  0  0
  188.1020  175.7550  146.6710 O   0  0  0  0  0  1  0  0  0  0  0  0
  1 13  1  0  0  0  0
  2  6  1  0  0  0  0
  2 13  1  0  0  0  0
  3  1  1  0  0  0  0
  4  6  1  0  0  0  0
  4 12  1  1  0  0  0
  5 12  2  0  0  0  0
  6 15  1  6  0  0  0
  7  5  1  0  0  0  0
  8  7  2  0  0  0  0
  9  8  1  1  0  0  0
  9 11  1  0  0  0  0
  9  4  1  0  0  0  0
 10 11  1  0  0  0  0
 10  3  1  0  0  0  0
 11  2  2  0  0  0  0
 14 15  1  0  0  0  0
 14 20  2  0  0  0  0
 15 21  2  0  0  0  0
 17 19  1  0  0  0  0
 17 16  2  0  0  0  0
 18 20  1  0  0  0  0
 19 22  1  0  0  0  0
 20 17  1  0  0  0  0
 21 19  1  0  0  0  0
 22 23  2  0  0  0  0
 24 25  1  6  0  0  0
 24  7  1  0  0  0  0
 24 26  1  0  0  0  0
 26 27  1  0  0  0  0
 27 28  1  0  0  0  0
 28 29  1  0  0  0  0
 29 30  1  0  0  0  0
 31 30  1  0  0  0  0
 31 32  1  0  0  0  0
 32 33  1  1  0  0  0
 34 32  1  0  0  0  0
 35 34  1  0  0  0  0
M  END
>  <MODEL>
3

>  <REMARK>
 VINA RESULT:      -6.9      1.120      1.864
  Name = 
  11 active torsions:
  status: ('A' for Active; 'I' for Inactive)
    1  A    between atoms: N_2  and  C_16
    2  A    between atoms: N_2  and  C_21
    3  A    between atoms: C_4  and  N_27
    4  A    between atoms: C_6  and  C_8
    5  A    between atoms: C_6  and  O_18
    6  A    between atoms: C_7  and  C_14
    7  A    between atoms: C_8  and  C_17
    8  A    between atoms: C_11  and  C_17
    9  A    between atoms: C_16  and  C_19
   10  A    between atoms: O_18  and  C_19
   11  A    between atoms: C_20  and  C_21
                            x       y       z     vdW  Elec       q    Type
                         _______ _______ _______ _____ _____    ______ ____

>  <TORSDO>
F 11

$$$$
=
 OpenBabel11062420063D

 35 38  0  0  1  0  0  0  0  0999 V2000
  186.1430  179.0400  147.6830 N   0  0  0  0  0  2  0  0  0  0  0  0
  186.7520  177.7120  145.7410 C   0  0  0  0  0  0  0  0  0  0  0  0
  184.8870  178.3860  147.6010 N   0  0  0  0  0  2  0  0  0  0  0  0
  186.6710  176.9810  143.5660 C   0  0  1  0  0  3  0  0  0  0  0  0
  186.0140  178.2120  141.5130 C   0  0  0  0  0  3  0  0  0  0  0  0
  187.5470  177.3300  144.7440 C   0  0  2  0  0  3  0  0  0  0  0  0
  184.5780  178.0940  141.8930 C   0  0  0  0  0  0  0  0  0  0  0  0
  184.2370  177.7540  143.1420 C   0  0  0  0  0  3  0  0  0  0  0  0
  185.3100  177.3820  144.0700 C   0  0  2  0  0  3  0  0  0  0  0  0
  184.3960  178.4300  146.2120 C   0  0  0  0  0  2  0  0  0  0  0  0
  185.3840  177.7280  145.3420 C   0  0  0  0  0  0  0  0  0  0  0  0
  186.9920  177.7480  142.3070 C   0  0  0  0  0  3  0  0  0  0  0  0
  187.1090  178.2640  147.0050 N   0  0  0  0  0  2  0  0  0  0  0  0
  189.7980  177.8740  143.8220 C   0  0  0  0  0  3  0  0  0  0  0  0
  189.0240  177.2190  144.7810 C   0  0  0  0  0  0  0  0  0  0  0  0
  193.0600  176.9220  144.8720 O   0  0  0  0  0  0  0  0  0  0  0  0
  191.8010  177.0100  144.8500 C   0  0  0  0  0  0  0  0  0  0  0  0
  191.9280  178.4110  142.9120 F   0  0  0  0  0  0  0  0  0  0  0  0
  191.0410  176.3660  145.7910 N   0  0  0  0  0  0  0  0  0  0  0  0
  191.1860  177.7730  143.8510 C   0  0  0  0  0  0  0  0  0  0  0  0
  189.6780  176.4640  145.7620 C   0  0  0  0  0  3  0  0  0  0  0  0
  191.6890  175.5860  146.8120 C   0  0  0  0  0  3  0  0  0  0  0  0
  191.1710  175.4110  148.0260 C   0  0  0  0  0  2  0  0  0  0  0  0
  183.5060  178.4960  140.9320 C   0  0  1  0  0  3  0  0  0  0  0  0
  183.5410  177.6670  139.8110 O   0  0  0  0  0  1  0  0  0  0  0  0
  182.1960  178.4090  141.5620 N   0  0  0  0  0  2  0  0  0  0  0  0
  181.1900  178.5110  140.5130 C   0  0  0  0  0  2  0  0  0  0  0  0
  180.4060  179.8050  140.6570 C   0  0  0  0  0  2  0  0  0  0  0  0
  179.0370  179.5410  140.6160 O   0  0  0  0  0  0  0  0  0  0  0  0
  178.4470  180.7770  140.3520 C   0  0  0  0  0  2  0  0  0  0  0  0
  179.4490  181.6910  139.6680 C   0  0  0  0  0  2  0  0  0  0  0  0
  178.7760  182.5130  138.5780 C   0  0  2  0  0  3  0  0  0  0  0  0
  179.4760  182.3680  137.3800 O   0  0  0  0  0  1  0  0  0  0  0  0
  178.7600  183.9790  138.9700 C   0  0  0  0  0  2  0  0  0  0  0  0
  179.8160  184.6500  138.3520 O   0  0  0  0  0  1  0  0  0  0  0  0
  2 13  1  0  0  0  0
  3  1  1  0  0  0  0
  4 12  1  6  0  0  0
  4  9  1  0  0  0  0
  4  6  1  0  0  0  0
  5  7  1  0  0  0  0
  5 12  2  0  0  0  0
  6 15  1  1  0  0  0
  6  2  1  0  0  0  0
  7  8  2  0  0  0  0
  9  8  1  6  0  0  0
  9 11  1  0  0  0  0
 10  3  1  0  0  0  0
 11  2  2  0  0  0  0
 11 10  1  0  0  0  0
 13  1  1  0  0  0  0
 14 20  2  0  0  0  0
 14 15  1  0  0  0  0
 15 21  2  0  0  0  0
 17 16  2  0  0  0  0
 17 19  1  0  0  0  0
 18 20  1  0  0  0  0
 19 22  1  0  0  0  0
 20 17  1  0  0  0  0
 21 19  1  0  0  0  0
 22 23  2  0  0  0  0
 24 25  1  6  0  0  0
 24 26  1  0  0  0  0
 24  7  1  0  0  0  0
 27 28  1  0  0  0  0
 27 26  1  0  0  0  0
 29 28  1  0  0  0  0
 30 29  1  0  0  0  0
 31 30  1  0  0  0  0
 32 33  1  6  0  0  0
 32 34  1  0  0  0  0
 32 31  1  0  0  0  0
 35 34  1  0  0  0  0
M  END
>  <MODEL>
4

>  <REMARK>
 VINA RESULT:      -6.9      4.157      6.802
  Name = 
  11 active torsions:
  status: ('A' for Active; 'I' for Inactive)
    1  A    between atoms: N_2  and  C_16
    2  A    between atoms: N_2  and  C_21
    3  A    between atoms: C_4  and  N_27
    4  A    between atoms: C_6  and  C_8
    5  A    between atoms: C_6  and  O_18
    6  A    between atoms: C_7  and  C_14
    7  A    between atoms: C_8  and  C_17
    8  A    between atoms: C_11  and  C_17
    9  A    between atoms: C_16  and  C_19
   10  A    between atoms: O_18  and  C_19
   11  A    between atoms: C_20  and  C_21
                            x       y       z     vdW  Elec       q    Type
                         _______ _______ _______ _____ _____    ______ ____

>  <TORSDO>
F 11

$$$$
=
 OpenBabel11062420063D

 35 38  0  0  1  0  0  0  0  0999 V2000
  186.0580  179.0540  147.7810 N   0  0  0  0  0  2  0  0  0  0  0  0
  186.8590  177.4550  146.1360 C   0  0  0  0  0  0  0  0  0  0  0  0
  184.7630  178.5680  147.4640 N   0  0  0  0  0  2  0  0  0  0  0  0
  187.1360  176.5120  144.0610 C   0  0  1  0  0  3  0  0  0  0  0  0
  187.1340  177.5910  141.8250 C   0  0  0  0  0  3  0  0  0  0  0  0
  187.7820  176.8660  145.3780 C   0  0  2  0  0  3  0  0  0  0  0  0
  185.6490  177.7070  141.8750 C   0  0  0  0  0  0  0  0  0  0  0  0
  184.9990  177.5510  143.0350 C   0  0  0  0  0  3  0  0  0  0  0  0
  185.7780  177.1420  144.2080 C   0  0  2  0  0  3  0  0  0  0  0  0
  184.5960  178.5260  146.0000 C   0  0  0  0  0  2  0  0  0  0  0  0
  185.6280  177.6100  145.4340 C   0  0  0  0  0  0  0  0  0  0  0  0
  187.8350  177.0890  142.8540 C   0  0  0  0  0  3  0  0  0  0  0  0
  187.0160  178.0880  147.4020 N   0  0  0  0  0  2  0  0  0  0  0  0
  189.4520  175.8970  146.9540 C   0  0  0  0  0  3  0  0  0  0  0  0
  189.1810  176.5650  145.7590 C   0  0  0  0  0  0  0  0  0  0  0  0
  193.0030  175.7400  146.8090 O   0  0  0  0  0  0  0  0  0  0  0  0
  191.8140  176.0010  146.4760 C   0  0  0  0  0  0  0  0  0  0  0  0
  191.0170  174.9660  148.4820 F   0  0  0  0  0  0  0  0  0  0  0  0
  191.5480  176.6580  145.3030 N   0  0  0  0  0  0  0  0  0  0  0  0
  190.7660  175.6130  147.3170 C   0  0  0  0  0  0  0  0  0  0  0  0
  190.2580  176.9390  144.9460 C   0  0  0  0  0  3  0  0  0  0  0  0
  192.6370  177.0500  144.4480 C   0  0  0  0  0  3  0  0  0  0  0  0
  192.9580  176.3900  143.3380 C   0  0  0  0  0  2  0  0  0  0  0  0
  184.8830  178.1410  140.6670 C   0  0  1  0  0  3  0  0  0  0  0  0
  185.5170  177.6780  139.5140 O   0  0  0  0  0  1  0  0  0  0  0  0
  183.5210  177.6300  140.7140 N   0  0  0  0  0  2  0  0  0  0  0  0
  182.6180  178.7720  140.7560 C   0  0  0  0  0  2  0  0  0  0  0  0
  181.2370  178.3380  141.2190 C   0  0  0  0  0  2  0  0  0  0  0  0
  180.3620  178.2920  140.1330 O   0  0  0  0  0  0  0  0  0  0  0  0
  179.1250  177.9690  140.6910 C   0  0  0  0  0  2  0  0  0  0  0  0
  179.2840  177.6950  142.1770 C   0  0  0  0  0  2  0  0  0  0  0  0
  178.0850  178.2170  142.9550 C   0  0  2  0  0  3  0  0  0  0  0  0
  177.8630  179.5560  142.6320 O   0  0  0  0  0  1  0  0  0  0  0  0
  178.3440  178.1010  144.4450 C   0  0  0  0  0  2  0  0  0  0  0  0
  178.5890  179.3640  144.9870 O   0  0  0  0  0  1  0  0  0  0  0  0
  2 13  1  0  0  0  0
  3  1  1  0  0  0  0
  4 12  1  6  0  0  0
  4  9  1  0  0  0  0
  4  6  1  0  0  0  0
  5  7  1  0  0  0  0
  5 12  2  0  0  0  0
  6 15  1  1  0  0  0
  6  2  1  0  0  0  0
  7  8  2  0  0  0  0
  9  8  1  6  0  0  0
  9 11  1  0  0  0  0
 10  3  1  0  0  0  0
 11 10  1  0  0  0  0
 11  2  2  0  0  0  0
 13  1  1  0  0  0  0
 14 20  2  0  0  0  0
 15 14  1  0  0  0  0
 17 16  2  0  0  0  0
 17 20  1  0  0  0  0
 19 17  1  0  0  0  0
 20 18  1  0  0  0  0
 21 19  1  0  0  0  0
 21 15  2  0  0  0  0
 22 19  1  0  0  0  0
 23 22  2  0  0  0  0
 24 25  1  6  0  0  0
 24 26  1  0  0  0  0
 24  7  1  0  0  0  0
 26 27  1  0  0  0  0
 27 28  1  0  0  0  0
 29 30  1  0  0  0  0
 29 28  1  0  0  0  0
 30 31  1  0  0  0  0
 31 32  1  0  0  0  0
 32 33  1  1  0  0  0
 32 34  1  0  0  0  0
 34 35  1  0  0  0  0
M  END
>  <MODEL>
5

>  <REMARK>
 VINA RESULT:      -6.7      3.257      5.466
  Name = 
  11 active torsions:
  status: ('A' for Active; 'I' for Inactive)
    1  A    between atoms: N_2  and  C_16
    2  A    between atoms: N_2  and  C_21
    3  A    between atoms: C_4  and  N_27
    4  A    between atoms: C_6  and  C_8
    5  A    between atoms: C_6  and  O_18
    6  A    between atoms: C_7  and  C_14
    7  A    between atoms: C_8  and  C_17
    8  A    between atoms: C_11  and  C_17
    9  A    between atoms: C_16  and  C_19
   10  A    between atoms: O_18  and  C_19
   11  A    between atoms: C_20  and  C_21
                            x       y       z     vdW  Elec       q    Type
                         _______ _______ _______ _____ _____    ______ ____

>  <TORSDO>
F 11

$$$$
=
 OpenBabel11062420063D

 35 38  0  0  1  0  0  0  0  0999 V2000
  189.3050  172.7420  141.6300 N   0  0  0  0  0  2  0  0  0  0  0  0
  190.2780  174.3650  143.1550 C   0  0  0  0  0  0  0  0  0  0  0  0
  188.4750  173.8080  141.1960 N   0  0  0  0  0  2  0  0  0  0  0  0
  190.3470  175.8450  144.9090 C   0  0  1  0  0  3  0  0  0  0  0  0
  189.0340  175.8560  147.0160 C   0  0  0  0  0  3  0  0  0  0  0  0
  191.0700  174.7600  144.1480 C   0  0  2  0  0  3  0  0  0  0  0  0
  187.8420  176.3640  146.2780 C   0  0  0  0  0  0  0  0  0  0  0  0
  187.8000  176.3010  144.9420 C   0  0  0  0  0  3  0  0  0  0  0  0
  189.0000  175.8410  144.2370 C   0  0  2  0  0  3  0  0  0  0  0  0
  187.9000  174.4940  142.3670 C   0  0  0  0  0  2  0  0  0  0  0  0
  189.0200  175.0350  143.1920 C   0  0  0  0  0  0  0  0  0  0  0  0
  190.1800  175.5610  146.3820 C   0  0  0  0  0  3  0  0  0  0  0  0
  190.4550  173.2790  142.2500 N   0  0  0  0  0  2  0  0  0  0  0  0
  192.6140  173.0430  145.0860 C   0  0  0  0  0  3  0  0  0  0  0  0
  192.4360  174.2680  144.4410 C   0  0  0  0  0  0  0  0  0  0  0  0
  196.1650  172.9140  145.2490 O   0  0  0  0  0  0  0  0  0  0  0  0
  195.0050  173.3420  144.9950 C   0  0  0  0  0  0  0  0  0  0  0  0
  194.0560  171.3850  145.9950 F   0  0  0  0  0  0  0  0  0  0  0  0
  194.8310  174.5460  144.3620 N   0  0  0  0  0  0  0  0  0  0  0  0
  193.8960  172.5760  145.3650 C   0  0  0  0  0  0  0  0  0  0  0  0
  193.5720  175.0060  144.0890 C   0  0  0  0  0  3  0  0  0  0  0  0
  195.9830  175.3220  143.9860 C   0  0  0  0  0  3  0  0  0  0  0  0
  195.9180  176.3500  143.1440 C   0  0  0  0  0  2  0  0  0  0  0  0
  186.6260  176.8110  147.0230 C   0  0  1  0  0  3  0  0  0  0  0  0
  186.7910  178.1290  147.4510 O   0  0  0  0  0  1  0  0  0  0  0  0
  185.4450  176.7180  146.1770 N   0  0  0  0  0  2  0  0  0  0  0  0
  184.5750  177.8400  146.5010 C   0  0  0  0  0  2  0  0  0  0  0  0
  184.2480  178.6350  145.2480 C   0  0  0  0  0  2  0  0  0  0  0  0
  184.7760  177.9950  144.1260 O   0  0  0  0  0  0  0  0  0  0  0  0
  185.4720  178.9940  143.4460 C   0  0  0  0  0  2  0  0  0  0  0  0
  185.5640  178.6470  141.9700 C   0  0  0  0  0  2  0  0  0  0  0  0
  186.7710  177.7610  141.6960 C   0  0  2  0  0  3  0  0  0  0  0  0
  187.9440  178.4740  141.9480 O   0  0  0  0  0  1  0  0  0  0  0  0
  186.7640  177.3090  140.2480 C   0  0  0  0  0  2  0  0  0  0  0  0
  185.4980  177.5050  139.6930 O   0  0  0  0  0  1  0  0  0  0  0  0
  1 13  1  0  0  0  0
  2 11  2  0  0  0  0
  2  6  1  0  0  0  0
  3  1  1  0  0  0  0
  3 10  1  0  0  0  0
  4 12  1  1  0  0  0
  6 15  1  6  0  0  0
  6  4  1  0  0  0  0
  7  5  1  0  0  0  0
  7 24  1  0  0  0  0
  8  7  2  0  0  0  0
  9  4  1  0  0  0  0
  9  8  1  1  0  0  0
 10 11  1  0  0  0  0
 11  9  1  0  0  0  0
 12  5  2  0  0  0  0
 13  2  1  0  0  0  0
 14 20  2  0  0  0  0
 15 14  1  0  0  0  0
 17 16  2  0  0  0  0
 17 20  1  0  0  0  0
 19 17  1  0  0  0  0
 20 18  1  0  0  0  0
 21 19  1  0  0  0  0
 21 15  2  0  0  0  0
 22 19  1  0  0  0  0
 23 22  2  0  0  0  0
 24 25  1  6  0  0  0
 26 27  1  0  0  0  0
 26 24  1  0  0  0  0
 28 27  1  0  0  0  0
 29 28  1  0  0  0  0
 30 29  1  0  0  0  0
 31 30  1  0  0  0  0
 32 33  1  6  0  0  0
 32 31  1  0  0  0  0
 34 32  1  0  0  0  0
 35 34  1  0  0  0  0
M  END
>  <MODEL>
6

>  <REMARK>
 VINA RESULT:      -6.6      2.117      3.849
  Name = 
  11 active torsions:
  status: ('A' for Active; 'I' for Inactive)
    1  A    between atoms: N_2  and  C_16
    2  A    between atoms: N_2  and  C_21
    3  A    between atoms: C_4  and  N_27
    4  A    between atoms: C_6  and  C_8
    5  A    between atoms: C_6  and  O_18
    6  A    between atoms: C_7  and  C_14
    7  A    between atoms: C_8  and  C_17
    8  A    between atoms: C_11  and  C_17
    9  A    between atoms: C_16  and  C_19
   10  A    between atoms: O_18  and  C_19
   11  A    between atoms: C_20  and  C_21
                            x       y       z     vdW  Elec       q    Type
                         _______ _______ _______ _____ _____    ______ ____

>  <TORSDO>
F 11

$$$$
=
 OpenBabel11062420063D

 35 38  0  0  1  0  0  0  0  0999 V2000
  189.1640  173.8240  141.2570 N   0  0  0  0  0  2  0  0  0  0  0  0
  190.0980  175.3440  142.9070 C   0  0  0  0  0  0  0  0  0  0  0  0
  188.2280  174.8570  140.9940 N   0  0  0  0  0  2  0  0  0  0  0  0
  190.1590  176.6190  144.8150 C   0  0  1  0  0  3  0  0  0  0  0  0
  188.9820  176.2830  146.9750 C   0  0  0  0  0  3  0  0  0  0  0  0
  190.9170  175.6920  143.8970 C   0  0  2  0  0  3  0  0  0  0  0  0
  187.7110  176.7670  146.3650 C   0  0  0  0  0  0  0  0  0  0  0  0
  187.5900  176.8500  145.0340 C   0  0  0  0  0  3  0  0  0  0  0  0
  188.7780  176.5760  144.2190 C   0  0  2  0  0  3  0  0  0  0  0  0
  187.6740  175.3570  142.2650 C   0  0  0  0  0  2  0  0  0  0  0  0
  188.7960  175.8960  143.0870 C   0  0  0  0  0  0  0  0  0  0  0  0
  190.1060  176.1600  146.2520 C   0  0  0  0  0  3  0  0  0  0  0  0
  190.3050  174.3850  141.8740 N   0  0  0  0  0  2  0  0  0  0  0  0
  193.3550  176.1290  143.6180 C   0  0  0  0  0  3  0  0  0  0  0  0
  192.3330  175.2880  144.0590 C   0  0  0  0  0  0  0  0  0  0  0  0
  196.2050  174.1900  144.4990 O   0  0  0  0  0  0  0  0  0  0  0  0
  194.9950  174.5260  144.3640 C   0  0  0  0  0  0  0  0  0  0  0  0
  195.6730  176.5770  143.3320 F   0  0  0  0  0  0  0  0  0  0  0  0
  193.9910  173.6990  144.7970 N   0  0  0  0  0  0  0  0  0  0  0  0
  194.6880  175.7530  143.7680 C   0  0  0  0  0  0  0  0  0  0  0  0
  192.6830  174.0670  144.6490 C   0  0  0  0  0  3  0  0  0  0  0  0
  194.3240  172.4410  145.4100 C   0  0  0  0  0  3  0  0  0  0  0  0
  194.1830  171.2730  144.7860 C   0  0  0  0  0  2  0  0  0  0  0  0
  186.5110  177.0230  147.2190 C   0  0  1  0  0  3  0  0  0  0  0  0
  186.6550  178.2410  147.8840 O   0  0  0  0  0  1  0  0  0  0  0  0
  185.3020  177.0500  146.4080 N   0  0  0  0  0  2  0  0  0  0  0  0
  184.6170  178.3090  146.6720 C   0  0  0  0  0  2  0  0  0  0  0  0
  183.8000  178.7290  145.4610 C   0  0  0  0  0  2  0  0  0  0  0  0
  184.6490  179.1230  144.4260 O   0  0  0  0  0  0  0  0  0  0  0  0
  184.4610  178.1630  143.4320 C   0  0  0  0  0  2  0  0  0  0  0  0
  185.5520  178.2860  142.3820 C   0  0  0  0  0  2  0  0  0  0  0  0
  185.0600  177.7940  141.0300 C   0  0  2  0  0  3  0  0  0  0  0  0
  186.1030  177.8440  140.1040 O   0  0  0  0  0  1  0  0  0  0  0  0
  183.9200  178.6680  140.5430 C   0  0  0  0  0  2  0  0  0  0  0  0
  182.8850  177.8720  140.0490 O   0  0  0  0  0  1  0  0  0  0  0  0
  1 13  1  0  0  0  0
  2 11  2  0  0  0  0
  2  6  1  0  0  0  0
  3  1  1  0  0  0  0
  3 10  1  0  0  0  0
  4 12  1  1  0  0  0
  6 15  1  6  0  0  0
  6  4  1  0  0  0  0
  7  5  1  0  0  0  0
  7 24  1  0  0  0  0
  8  7  2  0  0  0  0
  9  4  1  0  0  0  0
  9  8  1  1  0  0  0
 10 11  1  0  0  0  0
 11  9  1  0  0  0  0
 12  5  2  0  0  0  0
 13  2  1  0  0  0  0
 14 20  2  0  0  0  0
 14 15  1  0  0  0  0
 15 21  2  0  0  0  0
 17 16  2  0  0  0  0
 17 19  1  0  0  0  0
 18 20  1  0  0  0  0
 19 22  1  0  0  0  0
 20 17  1  0  0  0  0
 21 19  1  0  0  0  0
 23 22  2  0  0  0  0
 24 25  1  6  0  0  0
 26 27  1  0  0  0  0
 26 24  1  0  0  0  0
 28 27  1  0  0  0  0
 29 28  1  0  0  0  0
 30 29  1  0  0  0  0
 31 30  1  0  0  0  0
 32 33  1  6  0  0  0
 32 31  1  0  0  0  0
 34 32  1  0  0  0  0
 35 34  1  0  0  0  0
M  END
>  <MODEL>
7

>  <REMARK>
 VINA RESULT:      -6.6      2.189      4.203
  Name = 
  11 active torsions:
  status: ('A' for Active; 'I' for Inactive)
    1  A    between atoms: N_2  and  C_16
    2  A    between atoms: N_2  and  C_21
    3  A    between atoms: C_4  and  N_27
    4  A    between atoms: C_6  and  C_8
    5  A    between atoms: C_6  and  O_18
    6  A    between atoms: C_7  and  C_14
    7  A    between atoms: C_8  and  C_17
    8  A    between atoms: C_11  and  C_17
    9  A    between atoms: C_16  and  C_19
   10  A    between atoms: O_18  and  C_19
   11  A    between atoms: C_20  and  C_21
                            x       y       z     vdW  Elec       q    Type
                         _______ _______ _______ _____ _____    ______ ____

>  <TORSDO>
F 11

$$$$
=
 OpenBabel11062420063D

 35 38  0  0  1  0  0  0  0  0999 V2000
  189.2040  174.7060  147.2150 N   0  0  0  0  0  2  0  0  0  0  0  0
  189.9030  176.3390  145.5560 C   0  0  0  0  0  0  0  0  0  0  0  0
  190.2170  175.2660  148.0350 N   0  0  0  0  0  2  0  0  0  0  0  0
  191.3040  177.3630  144.0530 C   0  0  1  0  0  3  0  0  0  0  0  0
  193.1350  176.3890  142.6880 C   0  0  0  0  0  3  0  0  0  0  0  0
  189.8940  176.9180  144.3580 C   0  0  2  0  0  3  0  0  0  0  0  0
  194.0150  176.3410  143.8900 C   0  0  0  0  0  0  0  0  0  0  0  0
  193.4900  176.4730  145.1150 C   0  0  0  0  0  3  0  0  0  0  0  0
  192.0630  176.7910  145.2200 C   0  0  2  0  0  3  0  0  0  0  0  0
  191.4690  175.3830  147.2660 C   0  0  0  0  0  2  0  0  0  0  0  0
  191.2210  176.2750  146.0960 C   0  0  0  0  0  0  0  0  0  0  0  0
  191.8620  176.8090  142.7640 C   0  0  0  0  0  3  0  0  0  0  0  0
  188.8510  175.6420  146.2170 N   0  0  0  0  0  2  0  0  0  0  0  0
  188.6230  176.4780  142.2600 C   0  0  0  0  0  3  0  0  0  0  0  0
  188.7160  177.1350  143.4870 C   0  0  0  0  0  0  0  0  0  0  0  0
  185.5000  177.7240  141.1000 O   0  0  0  0  0  0  0  0  0  0  0  0
  186.5000  177.5460  141.8490 C   0  0  0  0  0  0  0  0  0  0  0  0
  187.4410  176.0380  140.2440 F   0  0  0  0  0  0  0  0  0  0  0  0
  186.5910  178.1920  143.0550 N   0  0  0  0  0  0  0  0  0  0  0  0
  187.5180  176.6800  141.4370 C   0  0  0  0  0  0  0  0  0  0  0  0
  187.6770  177.9950  143.8620 C   0  0  0  0  0  3  0  0  0  0  0  0
  185.5350  179.0780  143.4650 C   0  0  0  0  0  3  0  0  0  0  0  0
  185.5670  179.7620  144.6060 C   0  0  0  0  0  2  0  0  0  0  0  0
  195.4630  175.9980  143.7540 C   0  0  1  0  0  3  0  0  0  0  0  0
  196.2440  177.1050  144.0860 O   0  0  0  0  0  1  0  0  0  0  0  0
  195.8080  174.8800  144.6210 N   0  0  0  0  0  2  0  0  0  0  0  0
  195.4170  173.6530  143.9420 C   0  0  0  0  0  2  0  0  0  0  0  0
  194.8440  172.6580  144.9380 C   0  0  0  0  0  2  0  0  0  0  0  0
  193.5660  173.0580  145.3310 O   0  0  0  0  0  0  0  0  0  0  0  0
  192.7710  172.8510  144.2040 C   0  0  0  0  0  2  0  0  0  0  0  0
  191.3060  173.0220  144.5670 C   0  0  0  0  0  2  0  0  0  0  0  0
  190.4730  173.3270  143.3310 C   0  0  2  0  0  3  0  0  0  0  0  0
  189.3920  172.4470  143.2640 O   0  0  0  0  0  1  0  0  0  0  0  0
  191.3210  173.1680  142.0830 C   0  0  0  0  0  2  0  0  0  0  0  0
  190.7300  173.8450  141.0150 O   0  0  0  0  0  1  0  0  0  0  0  0
  1  3  1  0  0  0  0
  2 11  2  0  0  0  0
  2 13  1  0  0  0  0
  4 12  1  6  0  0  0
  4  6  1  0  0  0  0
  4  9  1  0  0  0  0
  5 12  2  0  0  0  0
  5  7  1  0  0  0  0
  6 15  1  1  0  0  0
  6  2  1  0  0  0  0
  7  8  2  0  0  0  0
  9  8  1  6  0  0  0
  9 11  1  0  0  0  0
 10  3  1  0  0  0  0
 11 10  1  0  0  0  0
 13  1  1  0  0  0  0
 14 15  1  0  0  0  0
 15 21  2  0  0  0  0
 16 17  2  0  0  0  0
 17 19  1  0  0  0  0
 18 20  1  0  0  0  0
 19 22  1  0  0  0  0
 19 21  1  0  0  0  0
 20 17  1  0  0  0  0
 20 14  2  0  0  0  0
 22 23  2  0  0  0  0
 24  7  1  0  0  0  0
 24 25  1  1  0  0  0
 24 26  1  0  0  0  0
 27 26  1  0  0  0  0
 27 28  1  0  0  0  0
 28 29  1  0  0  0  0
 30 31  1  0  0  0  0
 30 29  1  0  0  0  0
 32 33  1  6  0  0  0
 32 31  1  0  0  0  0
 34 32  1  0  0  0  0
 35 34  1  0  0  0  0
M  END
>  <MODEL>
8

>  <REMARK>
 VINA RESULT:      -6.6      3.053      7.864
  Name = 
  11 active torsions:
  status: ('A' for Active; 'I' for Inactive)
    1  A    between atoms: N_2  and  C_16
    2  A    between atoms: N_2  and  C_21
    3  A    between atoms: C_4  and  N_27
    4  A    between atoms: C_6  and  C_8
    5  A    between atoms: C_6  and  O_18
    6  A    between atoms: C_7  and  C_14
    7  A    between atoms: C_8  and  C_17
    8  A    between atoms: C_11  and  C_17
    9  A    between atoms: C_16  and  C_19
   10  A    between atoms: O_18  and  C_19
   11  A    between atoms: C_20  and  C_21
                            x       y       z     vdW  Elec       q    Type
                         _______ _______ _______ _____ _____    ______ ____

>  <TORSDO>
F 11

$$$$
=
 OpenBabel11062420063D

 35 38  0  0  1  0  0  0  0  0999 V2000
  190.4260  172.2050  144.4760 N   0  0  0  0  0  2  0  0  0  0  0  0
  190.8250  174.2560  143.2340 C   0  0  0  0  0  0  0  0  0  0  0  0
  189.3780  171.9750  143.5470 N   0  0  0  0  0  2  0  0  0  0  0  0
  190.3780  176.3490  142.4030 C   0  0  1  0  0  3  0  0  0  0  0  0
  188.9610  178.1520  143.3520 C   0  0  0  0  0  3  0  0  0  0  0  0
  191.4130  175.4260  142.9990 C   0  0  2  0  0  3  0  0  0  0  0  0
  187.7330  177.4220  142.9260 C   0  0  0  0  0  0  0  0  0  0  0  0
  187.8040  176.1320  142.5750 C   0  0  0  0  0  3  0  0  0  0  0  0
  189.1310  175.5120  142.5040 C   0  0  2  0  0  3  0  0  0  0  0  0
  188.5610  173.1940  143.4120 C   0  0  0  0  0  2  0  0  0  0  0  0
  189.4360  174.2950  142.9160 C   0  0  0  0  0  0  0  0  0  0  0  0
  190.1860  177.6380  143.1630 C   0  0  0  0  0  3  0  0  0  0  0  0
  191.3470  173.1170  143.9120 N   0  0  0  0  0  2  0  0  0  0  0  0
  193.2740  176.0950  144.5160 C   0  0  0  0  0  3  0  0  0  0  0  0
  192.8360  175.7670  143.2330 C   0  0  0  0  0  0  0  0  0  0  0  0
  196.7210  176.6990  143.8820 O   0  0  0  0  0  0  0  0  0  0  0  0
  195.5110  176.4080  143.6720 C   0  0  0  0  0  0  0  0  0  0  0  0
  195.0240  176.7380  145.9930 F   0  0  0  0  0  0  0  0  0  0  0  0
  195.0810  176.0860  142.4110 N   0  0  0  0  0  0  0  0  0  0  0  0
  194.6100  176.4170  144.7420 C   0  0  0  0  0  0  0  0  0  0  0  0
  193.7690  175.7720  142.1890 C   0  0  0  0  0  3  0  0  0  0  0  0
  196.0210  176.0810  141.3220 C   0  0  0  0  0  3  0  0  0  0  0  0
  195.7300  175.5910  140.1190 C   0  0  0  0  0  2  0  0  0  0  0  0
  186.3920  178.0740  143.0250 C   0  0  1  0  0  3  0  0  0  0  0  0
  185.3920  177.1430  142.7460 O   0  0  0  0  0  1  0  0  0  0  0  0
  186.1880  178.6250  144.3570 N   0  0  0  0  0  2  0  0  0  0  0  0
  185.2170  177.7830  145.0430 C   0  0  0  0  0  2  0  0  0  0  0  0
  185.7520  177.3570  146.4000 C   0  0  0  0  0  2  0  0  0  0  0  0
  187.1230  177.6070  146.4730 O   0  0  0  0  0  0  0  0  0  0  0  0
  187.6840  176.3860  146.8470 C   0  0  0  0  0  2  0  0  0  0  0  0
  189.0860  176.2650  146.2740 C   0  0  0  0  0  2  0  0  0  0  0  0
  189.7570  174.9860  146.7520 C   0  0  2  0  0  3  0  0  0  0  0  0
  188.9240  174.3290  147.6580 O   0  0  0  0  0  1  0  0  0  0  0  0
  191.0730  175.3130  147.4320 C   0  0  0  0  0  2  0  0  0  0  0  0
  191.2770  176.6940  147.4360 O   0  0  0  0  0  1  0  0  0  0  0  0
  2 13  1  0  0  0  0
  3  1  1  0  0  0  0
  4  9  1  0  0  0  0
  4  6  1  0  0  0  0
  4 12  1  1  0  0  0
  6 15  1  6  0  0  0
  6  2  1  0  0  0  0
  7 24  1  0  0  0  0
  7  5  1  0  0  0  0
  8  7  2  0  0  0  0
  9  8  1  1  0  0  0
  9 11  1  0  0  0  0
 10  3  1  0  0  0  0
 11  2  2  0  0  0  0
 11 10  1  0  0  0  0
 12  5  2  0  0  0  0
 13  1  1  0  0  0  0
 14 20  2  0  0  0  0
 15 14  1  0  0  0  0
 17 16  2  0  0  0  0
 17 20  1  0  0  0  0
 19 17  1  0  0  0  0
 20 18  1  0  0  0  0
 21 19  1  0  0  0  0
 21 15  2  0  0  0  0
 22 19  1  0  0  0  0
 23 22  2  0  0  0  0
 24 25  1  1  0  0  0
 24 26  1  0  0  0  0
 26 27  1  0  0  0  0
 27 28  1  0  0  0  0
 28 29  1  0  0  0  0
 29 30  1  0  0  0  0
 31 32  1  0  0  0  0
 31 30  1  0  0  0  0
 32 34  1  0  0  0  0
 32 33  1  1  0  0  0
 34 35  1  0  0  0  0
M  END
>  <MODEL>
9

>  <REMARK>
 VINA RESULT:      -6.4      1.694      2.488
  Name = 
  11 active torsions:
  status: ('A' for Active; 'I' for Inactive)
    1  A    between atoms: N_2  and  C_16
    2  A    between atoms: N_2  and  C_21
    3  A    between atoms: C_4  and  N_27
    4  A    between atoms: C_6  and  C_8
    5  A    between atoms: C_6  and  O_18
    6  A    between atoms: C_7  and  C_14
    7  A    between atoms: C_8  and  C_17
    8  A    between atoms: C_11  and  C_17
    9  A    between atoms: C_16  and  C_19
   10  A    between atoms: O_18  and  C_19
   11  A    between atoms: C_20  and  C_21
                            x       y       z     vdW  Elec       q    Type
                         _______ _______ _______ _____ _____    ______ ____

>  <TORSDO>
F 11

$$$$
