=
 OpenBabel11062422033D

 34 36  0  0  1  0  0  0  0  0999 V2000
  194.8280  175.6510  146.2530 C   0  0  0  0  0  3  0  0  0  0  0  0
  195.2830  173.9190  144.6920 C   0  0  0  0  0  0  0  0  0  0  0  0
  193.2200  175.1780  144.5120 C   0  0  0  0  0  0  0  0  0  0  0  0
  195.6320  174.6660  145.7750 N   0  0  0  0  0  0  0  0  0  0  0  0
  194.0620  174.1570  144.0370 C   0  0  0  0  0  0  0  0  0  0  0  0
  193.6090  175.9230  145.6330 C   0  0  0  0  0  3  0  0  0  0  0  0
  196.1610  172.8950  144.2370 N   0  0  0  0  0  1  0  0  0  0  0  0
  193.6870  173.3670  142.9040 N   0  0  0  0  0  0  0  0  0  0  0  0
  191.5800  172.2200  142.3910 C   0  0  0  0  0  2  0  0  0  0  0  0
  192.9320  172.1340  143.0920 C   0  0  0  0  0  2  0  0  0  0  0  0
  191.7510  172.4730  140.9650 N   0  0  0  0  0  0  0  0  0  0  0  0
  193.6850  174.3600  139.3930 F   0  0  0  0  0  0  0  0  0  0  0  0
  191.8160  173.9230  140.8060 C   0  0  0  0  0  2  0  0  0  0  0  0
  193.2620  174.4200  140.7070 C   0  0  1  0  0  3  0  0  0  0  0  0
  194.2530  173.6560  141.5920 C   0  0  0  0  0  2  0  0  0  0  0  0
  190.5890  171.4610  139.0340 C   0  0  0  0  0  0  0  0  0  0  0  0
  190.5730  172.0420  140.3380 N   0  0  0  0  0  2  0  0  0  0  0  0
  189.3680  171.0560  138.4270 N   0  0  0  0  0  1  0  0  0  0  0  0
  191.6760  171.3010  138.4190 O   0  0  0  0  0  0  0  0  0  0  0  0
  191.0880  177.8300  144.0230 C   0  0  0  0  0  0  0  0  0  0  0  0
  191.2040  179.0180  143.7690 O   0  0  0  0  0  0  0  0  0  0  0  0
  191.8950  175.4480  143.8420 C   0  0  1  0  0  3  0  0  0  0  0  0
  190.1970  177.3990  145.1490 C   0  0  2  0  0  3  0  0  0  0  0  0
  190.7750  175.1090  144.6370 O   0  0  0  0  0  0  0  0  0  0  0  0
  191.7870  176.8200  143.1590 C   0  0  0  0  0  2  0  0  0  0  0  0
  190.6580  176.0450  145.6820 C   0  0  0  0  0  2  0  0  0  0  0  0
  187.6930  177.4610  145.5380 C   0  0  0  0  0  0  0  0  0  0  0  0
  187.8570  177.7100  146.7630 O   0  0  0  0  0  0  0  0  0  0  0  0
  188.8230  177.3110  144.6730 N   0  0  0  0  0  2  0  0  0  0  0  0
  186.3050  177.3430  144.9960 C   0  0  2  0  0  3  0  0  0  0  0  0
  185.3390  176.8460  146.0660 C   0  0  0  0  0  2  0  0  0  0  0  0
  184.3500  177.9360  146.4370 C   0  0  0  0  0  1  0  0  0  0  0  0
  185.4430  177.0460  142.7600 O   0  0  0  0  0  1  0  0  0  0  0  0
  186.2680  176.4790  143.7360 C   0  0  0  0  0  2  0  0  0  0  0  0
  2  4  2  0  0  0  0
  3  6  1  0  0  0  0
  4  1  1  0  0  0  0
  5  3  2  0  0  0  0
  5  2  1  0  0  0  0
  6  1  2  0  0  0  0
  7  2  1  0  0  0  0
  8 10  1  0  0  0  0
  8  5  1  0  0  0  0
  9 10  1  0  0  0  0
 11  9  1  0  0  0  0
 13 11  1  0  0  0  0
 14 12  1  6  0  0  0
 14 13  1  0  0  0  0
 14 15  1  0  0  0  0
 15  8  1  0  0  0  0
 16 17  1  0  0  0  0
 17 11  1  0  0  0  0
 18 16  1  0  0  0  0
 19 16  2  0  0  0  0
 20 23  1  0  0  0  0
 21 20  2  0  0  0  0
 22  3  1  1  0  0  0
 22 24  1  0  0  0  0
 23 29  1  6  0  0  0
 23 26  1  0  0  0  0
 24 26  1  0  0  0  0
 25 22  1  0  0  0  0
 25 20  1  0  0  0  0
 27 28  2  0  0  0  0
 29 27  1  0  0  0  0
 30 34  1  6  0  0  0
 30 27  1  0  0  0  0
 30 31  1  0  0  0  0
 31 32  1  0  0  0  0
 33 34  1  0  0  0  0
M  END
>  <MODEL>
1

>  <REMARK>
 VINA RESULT:      -6.4      0.000      0.000
  Name = 
  7 active torsions:
  status: ('A' for Active; 'I' for Inactive)
    1  A    between atoms: C_2  and  C_17
    2  A    between atoms: N_6  and  C_25
    3  A    between atoms: C_10  and  C_13
    4  A    between atoms: N_11  and  N_16
    5  A    between atoms: N_14  and  C_18
    6  A    between atoms: C_15  and  C_17
    7  A    between atoms: C_17  and  C_30
                            x       y       z     vdW  Elec       q    Type
                         _______ _______ _______ _____ _____    ______ ____

>  <TORSDO>
F 7

$$$$
=
 OpenBabel11062422033D

 34 36  0  0  1  0  0  0  0  0999 V2000
  194.2500  173.8910  145.1770 C   0  0  0  0  0  3  0  0  0  0  0  0
  193.1860  175.7880  146.1320 C   0  0  0  0  0  0  0  0  0  0  0  0
  192.0580  174.5370  144.3900 C   0  0  0  0  0  0  0  0  0  0  0  0
  194.2390  174.9300  146.0520 N   0  0  0  0  0  0  0  0  0  0  0  0
  192.0700  175.6120  145.2960 C   0  0  0  0  0  0  0  0  0  0  0  0
  193.1630  173.6770  144.3310 C   0  0  0  0  0  3  0  0  0  0  0  0
  193.2300  176.8640  147.0630 N   0  0  0  0  0  1  0  0  0  0  0  0
  190.9650  176.5180  145.3700 N   0  0  0  0  0  0  0  0  0  0  0  0
  189.7100  177.6480  143.5900 C   0  0  0  0  0  2  0  0  0  0  0  0
  190.9260  177.6940  144.5100 C   0  0  0  0  0  2  0  0  0  0  0  0
  188.4770  177.5710  144.3650 N   0  0  0  0  0  0  0  0  0  0  0  0
  187.7130  175.9490  146.9260 F   0  0  0  0  0  0  0  0  0  0  0  0
  188.2260  176.1530  144.6070 C   0  0  0  0  0  2  0  0  0  0  0  0
  188.7090  175.7190  145.9950 C   0  0  1  0  0  3  0  0  0  0  0  0
  189.9990  176.4060  146.4570 C   0  0  0  0  0  2  0  0  0  0  0  0
  186.2830  178.6660  144.0570 C   0  0  0  0  0  0  0  0  0  0  0  0
  187.4510  178.0340  143.5290 N   0  0  0  0  0  2  0  0  0  0  0  0
  185.2570  179.1030  143.1750 N   0  0  0  0  0  1  0  0  0  0  0  0
  186.1580  178.8420  145.2980 O   0  0  0  0  0  0  0  0  0  0  0  0
  190.8540  172.1050  142.2790 C   0  0  0  0  0  0  0  0  0  0  0  0
  190.7680  170.8880  142.2970 O   0  0  0  0  0  0  0  0  0  0  0  0
  190.8830  174.3300  143.4660 C   0  0  1  0  0  3  0  0  0  0  0  0
  191.4190  172.7880  141.0710 C   0  0  2  0  0  3  0  0  0  0  0  0
  191.0570  174.9030  142.1850 O   0  0  0  0  0  0  0  0  0  0  0  0
  190.3280  172.8970  143.4420 C   0  0  0  0  0  2  0  0  0  0  0  0
  192.0020  174.1420  141.4700 C   0  0  0  0  0  2  0  0  0  0  0  0
  190.2470  172.1340  138.9210 C   0  0  0  0  0  0  0  0  0  0  0  0
  191.0490  171.1790  138.7360 O   0  0  0  0  0  0  0  0  0  0  0  0
  190.3680  172.9670  140.0780 N   0  0  0  0  0  2  0  0  0  0  0  0
  189.1570  172.3750  137.9270 C   0  0  2  0  0  3  0  0  0  0  0  0
  189.7300  172.6590  136.5430 C   0  0  0  0  0  2  0  0  0  0  0  0
  189.3920  171.5300  135.5870 C   0  0  0  0  0  1  0  0  0  0  0  0
  188.1160  174.5010  137.4510 O   0  0  0  0  0  1  0  0  0  0  0  0
  188.2050  173.4760  138.3970 C   0  0  0  0  0  2  0  0  0  0  0  0
  1  4  1  0  0  0  0
  2  7  1  0  0  0  0
  3  5  2  0  0  0  0
  4  2  2  0  0  0  0
  5  8  1  0  0  0  0
  5  2  1  0  0  0  0
  6  3  1  0  0  0  0
  6  1  2  0  0  0  0
  8 15  1  0  0  0  0
  9 11  1  0  0  0  0
  9 10  1  0  0  0  0
 10  8  1  0  0  0  0
 11 13  1  0  0  0  0
 13 14  1  0  0  0  0
 14 15  1  0  0  0  0
 14 12  1  1  0  0  0
 16 19  2  0  0  0  0
 17 16  1  0  0  0  0
 17 11  1  0  0  0  0
 18 16  1  0  0  0  0
 20 21  2  0  0  0  0
 20 25  1  0  0  0  0
 22  3  1  6  0  0  0
 23 29  1  6  0  0  0
 23 26  1  0  0  0  0
 23 20  1  0  0  0  0
 24 22  1  0  0  0  0
 25 22  1  0  0  0  0
 26 24  1  0  0  0  0
 27 29  1  0  0  0  0
 28 27  2  0  0  0  0
 30 31  1  6  0  0  0
 30 34  1  0  0  0  0
 30 27  1  0  0  0  0
 32 31  1  0  0  0  0
 33 34  1  0  0  0  0
M  END
>  <MODEL>
2

>  <REMARK>
 VINA RESULT:      -6.4      2.738      7.143
  Name = 
  7 active torsions:
  status: ('A' for Active; 'I' for Inactive)
    1  A    between atoms: C_2  and  C_17
    2  A    between atoms: N_6  and  C_25
    3  A    between atoms: C_10  and  C_13
    4  A    between atoms: N_11  and  N_16
    5  A    between atoms: N_14  and  C_18
    6  A    between atoms: C_15  and  C_17
    7  A    between atoms: C_17  and  C_30
                            x       y       z     vdW  Elec       q    Type
                         _______ _______ _______ _____ _____    ______ ____

>  <TORSDO>
F 7

$$$$
=
 OpenBabel11062422033D

 34 36  0  0  1  0  0  0  0  0999 V2000
  193.9110  173.2880  145.7560 C   0  0  0  0  0  3  0  0  0  0  0  0
  194.4610  173.2930  143.4450 C   0  0  0  0  0  0  0  0  0  0  0  0
  192.6770  174.7220  144.2510 C   0  0  0  0  0  0  0  0  0  0  0  0
  194.6600  172.8430  144.7140 N   0  0  0  0  0  0  0  0  0  0  0  0
  193.4580  174.2430  143.1840 C   0  0  0  0  0  0  0  0  0  0  0  0
  192.9070  174.2320  145.5430 C   0  0  0  0  0  3  0  0  0  0  0  0
  195.2720  172.7880  142.3890 N   0  0  0  0  0  1  0  0  0  0  0  0
  193.2390  174.7100  141.8500 N   0  0  0  0  0  0  0  0  0  0  0  0
  194.8270  175.5360  140.1700 C   0  0  0  0  0  2  0  0  0  0  0  0
  193.9450  175.8900  141.3640 C   0  0  0  0  0  2  0  0  0  0  0  0
  194.0310  174.9650  139.0900 N   0  0  0  0  0  0  0  0  0  0  0  0
  191.6700  172.9160  139.0870 F   0  0  0  0  0  0  0  0  0  0  0  0
  193.9600  173.5280  139.3400 C   0  0  0  0  0  2  0  0  0  0  0  0
  192.6510  173.1360  140.0350 C   0  0  1  0  0  3  0  0  0  0  0  0
  192.1460  174.1630  141.0540 C   0  0  0  0  0  2  0  0  0  0  0  0
  194.1620  175.6100  136.7080 C   0  0  0  0  0  0  0  0  0  0  0  0
  194.7710  175.1420  137.9120 N   0  0  0  0  0  2  0  0  0  0  0  0
  194.9460  175.7560  135.5310 N   0  0  0  0  0  1  0  0  0  0  0  0
  192.9370  175.8980  136.6830 O   0  0  0  0  0  0  0  0  0  0  0  0
  190.3770  176.5100  146.0770 C   0  0  0  0  0  0  0  0  0  0  0  0
  190.3670  177.0970  147.1460 O   0  0  0  0  0  0  0  0  0  0  0  0
  191.5810  175.7280  144.0020 C   0  0  1  0  0  3  0  0  0  0  0  0
  189.2790  175.5430  145.7540 C   0  0  2  0  0  3  0  0  0  0  0  0
  190.3490  175.1470  143.6230 O   0  0  0  0  0  0  0  0  0  0  0  0
  191.4540  176.8200  145.0770 C   0  0  0  0  0  2  0  0  0  0  0  0
  189.7800  174.5130  144.7440 C   0  0  0  0  0  2  0  0  0  0  0  0
  187.0150  176.6530  146.0080 C   0  0  0  0  0  0  0  0  0  0  0  0
  186.9910  176.3960  147.2420 O   0  0  0  0  0  0  0  0  0  0  0  0
  188.1380  176.2680  145.2100 N   0  0  0  0  0  2  0  0  0  0  0  0
  185.8640  177.3820  145.3910 C   0  0  2  0  0  3  0  0  0  0  0  0
  186.3030  178.7340  144.8420 C   0  0  0  0  0  2  0  0  0  0  0  0
  186.1290  178.7770  143.3350 C   0  0  0  0  0  1  0  0  0  0  0  0
  183.9790  178.6870  146.1480 O   0  0  0  0  0  1  0  0  0  0  0  0
  184.6930  177.5050  146.3670 C   0  0  0  0  0  2  0  0  0  0  0  0
  2  4  1  0  0  0  0
  3  6  2  0  0  0  0
  4  1  2  0  0  0  0
  5  2  2  0  0  0  0
  5  3  1  0  0  0  0
  6  1  1  0  0  0  0
  7  2  1  0  0  0  0
  8  5  1  0  0  0  0
  9 10  1  0  0  0  0
 10  8  1  0  0  0  0
 11 13  1  0  0  0  0
 11  9  1  0  0  0  0
 13 14  1  0  0  0  0
 14 12  1  6  0  0  0
 14 15  1  0  0  0  0
 15  8  1  0  0  0  0
 16 17  1  0  0  0  0
 17 11  1  0  0  0  0
 18 16  1  0  0  0  0
 19 16  2  0  0  0  0
 20 21  2  0  0  0  0
 22  3  1  1  0  0  0
 22 25  1  0  0  0  0
 23 29  1  6  0  0  0
 23 20  1  0  0  0  0
 24 22  1  0  0  0  0
 24 26  1  0  0  0  0
 25 20  1  0  0  0  0
 26 23  1  0  0  0  0
 27 28  2  0  0  0  0
 29 27  1  0  0  0  0
 30 31  1  1  0  0  0
 30 27  1  0  0  0  0
 30 34  1  0  0  0  0
 32 31  1  0  0  0  0
 33 34  1  0  0  0  0
M  END
>  <MODEL>
3

>  <REMARK>
 VINA RESULT:      -6.2      2.525      3.216
  Name = 
  7 active torsions:
  status: ('A' for Active; 'I' for Inactive)
    1  A    between atoms: C_2  and  C_17
    2  A    between atoms: N_6  and  C_25
    3  A    between atoms: C_10  and  C_13
    4  A    between atoms: N_11  and  N_16
    5  A    between atoms: N_14  and  C_18
    6  A    between atoms: C_15  and  C_17
    7  A    between atoms: C_17  and  C_30
                            x       y       z     vdW  Elec       q    Type
                         _______ _______ _______ _____ _____    ______ ____

>  <TORSDO>
F 7

$$$$
=
 OpenBabel11062422033D

 34 36  0  0  1  0  0  0  0  0999 V2000
  196.7970  173.3900  146.0220 C   0  0  0  0  0  3  0  0  0  0  0  0
  197.2480  173.3140  143.6920 C   0  0  0  0  0  0  0  0  0  0  0  0
  195.7020  174.9680  144.5560 C   0  0  0  0  0  0  0  0  0  0  0  0
  197.4390  172.8460  144.9550 N   0  0  0  0  0  0  0  0  0  0  0  0
  196.3690  174.3860  143.4630 C   0  0  0  0  0  0  0  0  0  0  0  0
  195.9180  174.4570  145.8420 C   0  0  0  0  0  3  0  0  0  0  0  0
  197.9410  172.7030  142.6080 N   0  0  0  0  0  1  0  0  0  0  0  0
  196.1580  174.8730  142.1340 N   0  0  0  0  0  0  0  0  0  0  0  0
  197.7640  175.6550  140.4510 C   0  0  0  0  0  2  0  0  0  0  0  0
  196.9030  176.0310  141.6530 C   0  0  0  0  0  2  0  0  0  0  0  0
  196.9400  175.1250  139.3720 N   0  0  0  0  0  0  0  0  0  0  0  0
  194.5070  173.1630  139.3660 F   0  0  0  0  0  0  0  0  0  0  0  0
  196.8190  173.6890  139.6090 C   0  0  0  0  0  2  0  0  0  0  0  0
  195.5010  173.3390  140.3090 C   0  0  1  0  0  3  0  0  0  0  0  0
  195.0410  174.3740  141.3410 C   0  0  0  0  0  2  0  0  0  0  0  0
  197.0400  175.5070  136.9320 C   0  0  0  0  0  0  0  0  0  0  0  0
  197.6790  175.2850  138.1900 N   0  0  0  0  0  2  0  0  0  0  0  0
  197.8270  175.6450  135.7560 N   0  0  0  0  0  1  0  0  0  0  0  0
  195.7860  175.5860  136.8580 O   0  0  0  0  0  0  0  0  0  0  0  0
  193.2360  176.6010  146.3080 C   0  0  0  0  0  0  0  0  0  0  0  0
  193.0720  176.9730  147.4580 O   0  0  0  0  0  0  0  0  0  0  0  0
  194.7380  176.1080  144.3420 C   0  0  1  0  0  3  0  0  0  0  0  0
  192.1510  175.8280  145.6200 C   0  0  2  0  0  3  0  0  0  0  0  0
  193.5580  175.7370  143.6560 O   0  0  0  0  0  0  0  0  0  0  0  0
  194.4930  176.9840  145.5810 C   0  0  0  0  0  2  0  0  0  0  0  0
  192.7560  174.9630  144.5160 C   0  0  0  0  0  2  0  0  0  0  0  0
  189.7690  176.6200  145.2690 C   0  0  0  0  0  0  0  0  0  0  0  0
  189.3190  175.6900  145.9920 O   0  0  0  0  0  0  0  0  0  0  0  0
  191.1780  176.7540  145.0570 N   0  0  0  0  0  2  0  0  0  0  0  0
  188.8160  177.5920  144.6520 C   0  0  2  0  0  3  0  0  0  0  0  0
  187.4910  177.6130  145.4060 C   0  0  0  0  0  2  0  0  0  0  0  0
  186.3420  177.8920  144.4540 C   0  0  0  0  0  1  0  0  0  0  0  0
  189.6700  177.8780  142.4120 O   0  0  0  0  0  1  0  0  0  0  0  0
  188.6280  177.3200  143.1590 C   0  0  0  0  0  2  0  0  0  0  0  0
  2  4  1  0  0  0  0
  3  6  2  0  0  0  0
  4  1  2  0  0  0  0
  5  2  2  0  0  0  0
  5  3  1  0  0  0  0
  6  1  1  0  0  0  0
  7  2  1  0  0  0  0
  8  5  1  0  0  0  0
  9 10  1  0  0  0  0
 10  8  1  0  0  0  0
 11 13  1  0  0  0  0
 11  9  1  0  0  0  0
 13 14  1  0  0  0  0
 14 12  1  6  0  0  0
 14 15  1  0  0  0  0
 15  8  1  0  0  0  0
 16 17  1  0  0  0  0
 17 11  1  0  0  0  0
 18 16  1  0  0  0  0
 19 16  2  0  0  0  0
 20 21  2  0  0  0  0
 22  3  1  1  0  0  0
 22 25  1  0  0  0  0
 23 29  1  6  0  0  0
 23 20  1  0  0  0  0
 24 22  1  0  0  0  0
 24 26  1  0  0  0  0
 25 20  1  0  0  0  0
 26 23  1  0  0  0  0
 27 28  2  0  0  0  0
 29 27  1  0  0  0  0
 30 34  1  6  0  0  0
 30 27  1  0  0  0  0
 30 31  1  0  0  0  0
 32 31  1  0  0  0  0
 33 34  1  0  0  0  0
M  END
>  <MODEL>
4

>  <REMARK>
 VINA RESULT:      -6.2      3.204      4.274
  Name = 
  7 active torsions:
  status: ('A' for Active; 'I' for Inactive)
    1  A    between atoms: C_2  and  C_17
    2  A    between atoms: N_6  and  C_25
    3  A    between atoms: C_10  and  C_13
    4  A    between atoms: N_11  and  N_16
    5  A    between atoms: N_14  and  C_18
    6  A    between atoms: C_15  and  C_17
    7  A    between atoms: C_17  and  C_30
                            x       y       z     vdW  Elec       q    Type
                         _______ _______ _______ _____ _____    ______ ____

>  <TORSDO>
F 7

$$$$
=
 OpenBabel11062422033D

 34 36  0  0  1  0  0  0  0  0999 V2000
  186.9070  177.9140  146.5920 C   0  0  0  0  0  3  0  0  0  0  0  0
  186.5560  177.6240  144.2610 C   0  0  0  0  0  0  0  0  0  0  0  0
  188.2790  176.3370  145.3790 C   0  0  0  0  0  0  0  0  0  0  0  0
  186.2450  178.2170  145.4450 N   0  0  0  0  0  0  0  0  0  0  0  0
  187.5870  176.6700  144.2010 C   0  0  0  0  0  0  0  0  0  0  0  0
  187.9350  176.9730  146.5790 C   0  0  0  0  0  3  0  0  0  0  0  0
  185.8330  177.9820  143.0880 N   0  0  0  0  0  1  0  0  0  0  0  0
  187.9240  176.0520  142.9550 N   0  0  0  0  0  0  0  0  0  0  0  0
  190.1090  175.6770  141.9030 C   0  0  0  0  0  2  0  0  0  0  0  0
  188.9450  176.6440  142.0990 C   0  0  0  0  0  2  0  0  0  0  0  0
  189.6480  174.4250  141.3170 N   0  0  0  0  0  0  0  0  0  0  0  0
  187.1200  172.6680  141.8550 F   0  0  0  0  0  0  0  0  0  0  0  0
  189.2510  173.5670  142.4300 C   0  0  0  0  0  2  0  0  0  0  0  0
  187.7360  173.6030  142.6620 C   0  0  1  0  0  3  0  0  0  0  0  0
  187.0960  174.9750  142.4260 C   0  0  0  0  0  2  0  0  0  0  0  0
  190.7520  173.4100  139.3520 C   0  0  0  0  0  0  0  0  0  0  0  0
  190.7680  173.8290  140.7170 N   0  0  0  0  0  2  0  0  0  0  0  0
  191.9020  172.7920  138.7890 N   0  0  0  0  0  1  0  0  0  0  0  0
  189.7270  173.5880  138.6420 O   0  0  0  0  0  0  0  0  0  0  0  0
  190.8480  175.2960  147.4120 C   0  0  0  0  0  0  0  0  0  0  0  0
  190.9970  175.0890  148.6050 O   0  0  0  0  0  0  0  0  0  0  0  0
  189.4030  175.3310  145.3460 C   0  0  1  0  0  3  0  0  0  0  0  0
  191.8510  176.1310  146.6760 C   0  0  2  0  0  3  0  0  0  0  0  0
  190.5560  175.7870  144.6640 O   0  0  0  0  0  0  0  0  0  0  0  0
  189.6980  174.6520  146.6920 C   0  0  0  0  0  2  0  0  0  0  0  0
  191.1940  176.7640  145.4510 C   0  0  0  0  0  2  0  0  0  0  0  0
  194.2930  175.8140  146.0800 C   0  0  0  0  0  0  0  0  0  0  0  0
  194.5370  177.0320  146.2930 O   0  0  0  0  0  0  0  0  0  0  0  0
  192.9730  175.2970  146.2700 N   0  0  0  0  0  2  0  0  0  0  0  0
  195.4040  174.9120  145.6460 C   0  0  2  0  0  3  0  0  0  0  0  0
  196.1270  175.4790  144.4300 C   0  0  0  0  0  2  0  0  0  0  0  0
  195.2830  175.3030  143.1810 C   0  0  0  0  0  1  0  0  0  0  0  0
  195.9610  172.5700  145.4580 O   0  0  0  0  0  1  0  0  0  0  0  0
  194.9060  173.4860  145.4100 C   0  0  0  0  0  2  0  0  0  0  0  0
  2  4  1  0  0  0  0
  3  6  2  0  0  0  0
  4  1  2  0  0  0  0
  5  2  2  0  0  0  0
  5  3  1  0  0  0  0
  6  1  1  0  0  0  0
  7  2  1  0  0  0  0
  8  5  1  0  0  0  0
  9 10  1  0  0  0  0
 10  8  1  0  0  0  0
 11  9  1  0  0  0  0
 11 13  1  0  0  0  0
 13 14  1  0  0  0  0
 14 12  1  6  0  0  0
 15 14  1  0  0  0  0
 15  8  1  0  0  0  0
 16 17  1  0  0  0  0
 17 11  1  0  0  0  0
 18 16  1  0  0  0  0
 19 16  2  0  0  0  0
 20 21  2  0  0  0  0
 22  3  1  1  0  0  0
 22 25  1  0  0  0  0
 23 29  1  6  0  0  0
 23 20  1  0  0  0  0
 24 22  1  0  0  0  0
 24 26  1  0  0  0  0
 25 20  1  0  0  0  0
 26 23  1  0  0  0  0
 27 29  1  0  0  0  0
 27 28  2  0  0  0  0
 30 31  1  6  0  0  0
 30 27  1  0  0  0  0
 32 31  1  0  0  0  0
 34 33  1  0  0  0  0
 34 30  1  0  0  0  0
M  END
>  <MODEL>
5

>  <REMARK>
 VINA RESULT:      -6.2      2.780      6.774
  Name = 
  7 active torsions:
  status: ('A' for Active; 'I' for Inactive)
    1  A    between atoms: C_2  and  C_17
    2  A    between atoms: N_6  and  C_25
    3  A    between atoms: C_10  and  C_13
    4  A    between atoms: N_11  and  N_16
    5  A    between atoms: N_14  and  C_18
    6  A    between atoms: C_15  and  C_17
    7  A    between atoms: C_17  and  C_30
                            x       y       z     vdW  Elec       q    Type
                         _______ _______ _______ _____ _____    ______ ____

>  <TORSDO>
F 7

$$$$
=
 OpenBabel11062422033D

 34 36  0  0  1  0  0  0  0  0999 V2000
  194.4240  173.7630  145.4330 C   0  0  0  0  0  3  0  0  0  0  0  0
  192.6990  175.2630  146.0760 C   0  0  0  0  0  0  0  0  0  0  0  0
  192.1800  173.4040  144.6090 C   0  0  0  0  0  0  0  0  0  0  0  0
  193.9960  174.8570  146.1150 N   0  0  0  0  0  0  0  0  0  0  0  0
  191.7590  174.5450  145.3160 C   0  0  0  0  0  0  0  0  0  0  0  0
  193.5260  173.0190  144.6680 C   0  0  0  0  0  3  0  0  0  0  0  0
  192.3060  176.4210  146.8060 N   0  0  0  0  0  1  0  0  0  0  0  0
  190.3950  174.9750  145.2650 N   0  0  0  0  0  0  0  0  0  0  0  0
  188.7970  175.4250  147.0720 C   0  0  0  0  0  2  0  0  0  0  0  0
  189.4050  174.3730  146.1500 C   0  0  0  0  0  2  0  0  0  0  0  0
  188.1740  176.4920  146.3000 N   0  0  0  0  0  0  0  0  0  0  0  0
  189.0660  177.9960  143.7090 F   0  0  0  0  0  0  0  0  0  0  0  0
  189.2200  177.4750  146.0300 C   0  0  0  0  0  2  0  0  0  0  0  0
  189.8200  177.2960  144.6310 C   0  0  1  0  0  3  0  0  0  0  0  0
  189.9400  175.8370  144.1790 C   0  0  0  0  0  2  0  0  0  0  0  0
  186.0340  177.6810  146.6440 C   0  0  0  0  0  0  0  0  0  0  0  0
  187.2410  177.1070  147.1490 N   0  0  0  0  0  2  0  0  0  0  0  0
  185.1260  178.3110  147.5380 N   0  0  0  0  0  1  0  0  0  0  0  0
  185.7680  177.6280  145.4150 O   0  0  0  0  0  0  0  0  0  0  0  0
  192.2570  170.9890  142.1640 C   0  0  0  0  0  0  0  0  0  0  0  0
  192.9090  169.9820  141.9430 O   0  0  0  0  0  0  0  0  0  0  0  0
  191.2000  172.6220  143.7700 C   0  0  1  0  0  3  0  0  0  0  0  0
  192.0660  172.0010  141.0750 C   0  0  2  0  0  3  0  0  0  0  0  0
  190.7530  173.3150  142.6210 O   0  0  0  0  0  0  0  0  0  0  0  0
  191.6030  171.1630  143.5050 C   0  0  0  0  0  2  0  0  0  0  0  0
  191.8050  173.3750  141.6870 C   0  0  0  0  0  2  0  0  0  0  0  0
  190.8800  171.9000  138.8370 C   0  0  0  0  0  0  0  0  0  0  0  0
  191.8300  172.5050  138.2700 O   0  0  0  0  0  0  0  0  0  0  0  0
  190.9440  171.6030  140.2350 N   0  0  0  0  0  2  0  0  0  0  0  0
  189.6950  171.4810  138.0280 C   0  0  2  0  0  3  0  0  0  0  0  0
  190.1130  170.5850  136.8680 C   0  0  0  0  0  2  0  0  0  0  0  0
  189.7970  171.2520  135.5420 C   0  0  0  0  0  1  0  0  0  0  0  0
  188.1300  173.2240  138.6150 O   0  0  0  0  0  1  0  0  0  0  0  0
  188.8800  172.6880  137.5630 C   0  0  0  0  0  2  0  0  0  0  0  0
  1  4  1  0  0  0  0
  2  4  2  0  0  0  0
  2  7  1  0  0  0  0
  3  6  1  0  0  0  0
  3  5  2  0  0  0  0
  5  2  1  0  0  0  0
  6  1  2  0  0  0  0
  8  5  1  0  0  0  0
  8 10  1  0  0  0  0
 10  9  1  0  0  0  0
 11  9  1  0  0  0  0
 11 17  1  0  0  0  0
 13 11  1  0  0  0  0
 14 12  1  6  0  0  0
 14 13  1  0  0  0  0
 15 14  1  0  0  0  0
 15  8  1  0  0  0  0
 16 17  1  0  0  0  0
 16 18  1  0  0  0  0
 19 16  2  0  0  0  0
 20 25  1  0  0  0  0
 21 20  2  0  0  0  0
 22  3  1  6  0  0  0
 23 29  1  6  0  0  0
 23 26  1  0  0  0  0
 23 20  1  0  0  0  0
 24 22  1  0  0  0  0
 25 22  1  0  0  0  0
 26 24  1  0  0  0  0
 27 29  1  0  0  0  0
 28 27  2  0  0  0  0
 30 31  1  6  0  0  0
 30 27  1  0  0  0  0
 32 31  1  0  0  0  0
 34 30  1  0  0  0  0
 34 33  1  0  0  0  0
M  END
>  <MODEL>
6

>  <REMARK>
 VINA RESULT:      -6.0      2.589      7.495
  Name = 
  7 active torsions:
  status: ('A' for Active; 'I' for Inactive)
    1  A    between atoms: C_2  and  C_17
    2  A    between atoms: N_6  and  C_25
    3  A    between atoms: C_10  and  C_13
    4  A    between atoms: N_11  and  N_16
    5  A    between atoms: N_14  and  C_18
    6  A    between atoms: C_15  and  C_17
    7  A    between atoms: C_17  and  C_30
                            x       y       z     vdW  Elec       q    Type
                         _______ _______ _______ _____ _____    ______ ____

>  <TORSDO>
F 7

$$$$
=
 OpenBabel11062422033D

 34 36  0  0  1  0  0  0  0  0999 V2000
  197.1900  173.0070  145.9390 C   0  0  0  0  0  3  0  0  0  0  0  0
  196.6690  171.9620  143.8710 C   0  0  0  0  0  0  0  0  0  0  0  0
  195.4600  173.9530  144.5410 C   0  0  0  0  0  0  0  0  0  0  0  0
  197.3930  172.0260  145.0210 N   0  0  0  0  0  0  0  0  0  0  0  0
  195.6790  172.9250  143.6070 C   0  0  0  0  0  0  0  0  0  0  0  0
  196.2210  173.9840  145.7170 C   0  0  0  0  0  3  0  0  0  0  0  0
  196.9190  170.9090  142.9460 N   0  0  0  0  0  1  0  0  0  0  0  0
  194.9090  172.8530  142.4030 N   0  0  0  0  0  0  0  0  0  0  0  0
  192.4790  172.7530  142.0710 C   0  0  0  0  0  2  0  0  0  0  0  0
  193.7580  171.9610  142.3240 C   0  0  0  0  0  2  0  0  0  0  0  0
  192.5830  173.5230  140.8380 N   0  0  0  0  0  0  0  0  0  0  0  0
  194.9190  175.1950  139.6050 F   0  0  0  0  0  0  0  0  0  0  0  0
  193.1880  174.8020  141.1970 C   0  0  0  0  0  2  0  0  0  0  0  0
  194.6950  174.8170  140.9150 C   0  0  1  0  0  3  0  0  0  0  0  0
  195.3990  173.4830  141.1830 C   0  0  0  0  0  2  0  0  0  0  0  0
  190.7980  173.3980  139.1330 C   0  0  0  0  0  0  0  0  0  0  0  0
  191.2700  173.7900  140.4230 N   0  0  0  0  0  2  0  0  0  0  0  0
  189.4660  173.7070  138.7450 N   0  0  0  0  0  1  0  0  0  0  0  0
  191.5530  172.7770  138.3390 O   0  0  0  0  0  0  0  0  0  0  0  0
  194.0680  176.6330  146.1830 C   0  0  0  0  0  0  0  0  0  0  0  0
  194.4760  177.5420  146.8880 O   0  0  0  0  0  0  0  0  0  0  0  0
  194.3940  174.9910  144.2960 C   0  0  1  0  0  3  0  0  0  0  0  0
  192.8870  175.8250  146.6280 C   0  0  2  0  0  3  0  0  0  0  0  0
  193.0840  174.5440  144.5880 O   0  0  0  0  0  0  0  0  0  0  0  0
  194.7160  176.3880  144.8500 C   0  0  0  0  0  2  0  0  0  0  0  0
  192.9380  174.4410  145.9840 C   0  0  0  0  0  2  0  0  0  0  0  0
  190.3810  176.1620  146.7890 C   0  0  0  0  0  0  0  0  0  0  0  0
  190.2800  175.2470  147.6500 O   0  0  0  0  0  0  0  0  0  0  0  0
  191.6590  176.5110  146.2500 N   0  0  0  0  0  2  0  0  0  0  0  0
  189.1510  176.8910  146.3500 C   0  0  2  0  0  3  0  0  0  0  0  0
  187.8920  176.1200  146.7310 C   0  0  0  0  0  2  0  0  0  0  0  0
  186.7160  177.0670  146.8860 C   0  0  0  0  0  1  0  0  0  0  0  0
  188.7510  176.1430  144.0890 O   0  0  0  0  0  1  0  0  0  0  0  0
  189.1990  177.2210  144.8580 C   0  0  0  0  0  2  0  0  0  0  0  0
  2  4  1  0  0  0  0
  3  6  2  0  0  0  0
  4  1  2  0  0  0  0
  5  2  2  0  0  0  0
  5  3  1  0  0  0  0
  6  1  1  0  0  0  0
  7  2  1  0  0  0  0
  8  5  1  0  0  0  0
  9 10  1  0  0  0  0
 10  8  1  0  0  0  0
 11 13  1  0  0  0  0
 11  9  1  0  0  0  0
 14 12  1  6  0  0  0
 14 15  1  0  0  0  0
 14 13  1  0  0  0  0
 15  8  1  0  0  0  0
 16 17  1  0  0  0  0
 17 11  1  0  0  0  0
 18 16  1  0  0  0  0
 19 16  2  0  0  0  0
 20 23  1  0  0  0  0
 20 21  2  0  0  0  0
 22  3  1  1  0  0  0
 22 24  1  0  0  0  0
 22 25  1  0  0  0  0
 23 29  1  6  0  0  0
 24 26  1  0  0  0  0
 25 20  1  0  0  0  0
 26 23  1  0  0  0  0
 27 28  2  0  0  0  0
 29 27  1  0  0  0  0
 30 34  1  6  0  0  0
 30 31  1  0  0  0  0
 30 27  1  0  0  0  0
 31 32  1  0  0  0  0
 33 34  1  0  0  0  0
M  END
>  <MODEL>
7

>  <REMARK>
 VINA RESULT:      -6.0      2.122      2.728
  Name = 
  7 active torsions:
  status: ('A' for Active; 'I' for Inactive)
    1  A    between atoms: C_2  and  C_17
    2  A    between atoms: N_6  and  C_25
    3  A    between atoms: C_10  and  C_13
    4  A    between atoms: N_11  and  N_16
    5  A    between atoms: N_14  and  C_18
    6  A    between atoms: C_15  and  C_17
    7  A    between atoms: C_17  and  C_30
                            x       y       z     vdW  Elec       q    Type
                         _______ _______ _______ _____ _____    ______ ____

>  <TORSDO>
F 7

$$$$
=
 OpenBabel11062422033D

 34 36  0  0  1  0  0  0  0  0999 V2000
  191.0150  171.2720  138.7560 C   0  0  0  0  0  3  0  0  0  0  0  0
  193.1310  171.8950  139.6360 C   0  0  0  0  0  0  0  0  0  0  0  0
  191.1180  172.4250  140.8780 C   0  0  0  0  0  0  0  0  0  0  0  0
  192.3700  171.3170  138.6680 N   0  0  0  0  0  0  0  0  0  0  0  0
  192.5200  172.4680  140.7650 C   0  0  0  0  0  0  0  0  0  0  0  0
  190.3660  171.8260  139.8590 C   0  0  0  0  0  3  0  0  0  0  0  0
  194.5480  171.9190  139.4910 N   0  0  0  0  0  1  0  0  0  0  0  0
  193.3170  173.0860  141.7800 N   0  0  0  0  0  0  0  0  0  0  0  0
  193.2160  175.3480  142.7260 C   0  0  0  0  0  2  0  0  0  0  0  0
  193.7700  174.4630  141.6150 C   0  0  0  0  0  2  0  0  0  0  0  0
  193.6260  174.8540  144.0350 N   0  0  0  0  0  0  0  0  0  0  0  0
  193.8160  171.9660  145.2160 F   0  0  0  0  0  0  0  0  0  0  0  0
  192.6200  173.8780  144.4450 C   0  0  0  0  0  2  0  0  0  0  0  0
  193.0700  172.4420  144.1550 C   0  0  1  0  0  3  0  0  0  0  0  0
  193.8760  172.2830  142.8610 C   0  0  0  0  0  2  0  0  0  0  0  0
  194.4120  176.0750  146.0350 C   0  0  0  0  0  0  0  0  0  0  0  0
  193.5310  175.9390  144.9190 N   0  0  0  0  0  2  0  0  0  0  0  0
  194.2680  177.1800  146.9170 N   0  0  0  0  0  1  0  0  0  0  0  0
  195.3190  175.2250  146.2390 O   0  0  0  0  0  0  0  0  0  0  0  0
  187.9110  172.9350  142.0040 C   0  0  0  0  0  0  0  0  0  0  0  0
  186.8710  172.2970  142.0170 O   0  0  0  0  0  0  0  0  0  0  0  0
  190.4300  173.0460  142.0680 C   0  0  1  0  0  3  0  0  0  0  0  0
  187.9020  174.3530  141.5190 C   0  0  2  0  0  3  0  0  0  0  0  0
  190.2750  174.4480  141.9690 O   0  0  0  0  0  0  0  0  0  0  0  0
  189.1660  172.3070  142.5380 C   0  0  0  0  0  2  0  0  0  0  0  0
  189.2890  174.7300  141.0050 C   0  0  0  0  0  2  0  0  0  0  0  0
  186.8060  176.4620  142.3990 C   0  0  0  0  0  0  0  0  0  0  0  0
  186.4640  176.8090  141.2370 O   0  0  0  0  0  0  0  0  0  0  0  0
  187.5130  175.2360  142.6110 N   0  0  0  0  0  2  0  0  0  0  0  0
  186.4470  177.3370  143.5580 C   0  0  2  0  0  3  0  0  0  0  0  0
  186.3840  178.8010  143.1390 C   0  0  0  0  0  2  0  0  0  0  0  0
  185.4560  179.5770  144.0560 C   0  0  0  0  0  1  0  0  0  0  0  0
  188.5530  177.8770  144.6090 O   0  0  0  0  0  1  0  0  0  0  0  0
  187.3890  177.1130  144.7410 C   0  0  0  0  0  2  0  0  0  0  0  0
  1  6  1  0  0  0  0
  2  5  2  0  0  0  0
  4  1  2  0  0  0  0
  4  2  1  0  0  0  0
  5  3  1  0  0  0  0
  5  8  1  0  0  0  0
  6  3  2  0  0  0  0
  7  2  1  0  0  0  0
  8 15  1  0  0  0  0
  9 11  1  0  0  0  0
 10  8  1  0  0  0  0
 10  9  1  0  0  0  0
 11 13  1  0  0  0  0
 11 17  1  0  0  0  0
 14 13  1  0  0  0  0
 14 12  1  1  0  0  0
 15 14  1  0  0  0  0
 16 19  2  0  0  0  0
 16 18  1  0  0  0  0
 17 16  1  0  0  0  0
 20 21  2  0  0  0  0
 20 25  1  0  0  0  0
 22  3  1  6  0  0  0
 22 25  1  0  0  0  0
 23 20  1  0  0  0  0
 23 29  1  1  0  0  0
 24 22  1  0  0  0  0
 26 23  1  0  0  0  0
 26 24  1  0  0  0  0
 27 29  1  0  0  0  0
 27 30  1  0  0  0  0
 28 27  2  0  0  0  0
 30 31  1  6  0  0  0
 30 34  1  0  0  0  0
 31 32  1  0  0  0  0
 33 34  1  0  0  0  0
M  END
>  <MODEL>
8

>  <REMARK>
 VINA RESULT:      -6.0      2.611      5.671
  Name = 
  7 active torsions:
  status: ('A' for Active; 'I' for Inactive)
    1  A    between atoms: C_2  and  C_17
    2  A    between atoms: N_6  and  C_25
    3  A    between atoms: C_10  and  C_13
    4  A    between atoms: N_11  and  N_16
    5  A    between atoms: N_14  and  C_18
    6  A    between atoms: C_15  and  C_17
    7  A    between atoms: C_17  and  C_30
                            x       y       z     vdW  Elec       q    Type
                         _______ _______ _______ _____ _____    ______ ____

>  <TORSDO>
F 7

$$$$
=
 OpenBabel11062422033D

 34 36  0  0  1  0  0  0  0  0999 V2000
  187.7400  177.5840  146.0800 C   0  0  0  0  0  3  0  0  0  0  0  0
  189.8730  176.6340  146.5110 C   0  0  0  0  0  0  0  0  0  0  0  0
  189.1930  177.0540  144.2230 C   0  0  0  0  0  0  0  0  0  0  0  0
  188.6830  177.1290  146.9460 N   0  0  0  0  0  0  0  0  0  0  0  0
  190.1540  176.5810  145.1350 C   0  0  0  0  0  0  0  0  0  0  0  0
  187.9760  177.5530  144.7070 C   0  0  0  0  0  3  0  0  0  0  0  0
  190.8250  176.1650  147.4620 N   0  0  0  0  0  1  0  0  0  0  0  0
  191.4010  176.0500  144.6740 N   0  0  0  0  0  0  0  0  0  0  0  0
  193.7020  176.5980  145.3250 C   0  0  0  0  0  2  0  0  0  0  0  0
  192.5250  176.9430  144.4190 C   0  0  0  0  0  2  0  0  0  0  0  0
  194.1230  175.2170  145.1240 N   0  0  0  0  0  0  0  0  0  0  0  0
  192.5030  172.5730  144.7310 F   0  0  0  0  0  0  0  0  0  0  0  0
  193.3150  174.4010  146.0260 C   0  0  0  0  0  2  0  0  0  0  0  0
  192.1190  173.7690  145.3040 C   0  0  1  0  0  3  0  0  0  0  0  0
  191.4860  174.6630  144.2330 C   0  0  0  0  0  2  0  0  0  0  0  0
  196.3270  174.1000  145.1220 C   0  0  0  0  0  0  0  0  0  0  0  0
  195.4500  175.1340  145.5700 N   0  0  0  0  0  2  0  0  0  0  0  0
  197.6590  174.0420  145.6150 N   0  0  0  0  0  1  0  0  0  0  0  0
  195.9300  173.2420  144.2900 O   0  0  0  0  0  0  0  0  0  0  0  0
  187.3870  176.8010  141.3100 C   0  0  0  0  0  0  0  0  0  0  0  0
  186.3410  177.2590  140.8800 O   0  0  0  0  0  0  0  0  0  0  0  0
  189.4560  176.9950  142.7390 C   0  0  1  0  0  3  0  0  0  0  0  0
  187.6470  175.3290  141.2050 C   0  0  2  0  0  3  0  0  0  0  0  0
  189.7850  175.7030  142.2690 O   0  0  0  0  0  0  0  0  0  0  0  0
  188.4220  177.7320  141.8730 C   0  0  0  0  0  2  0  0  0  0  0  0
  188.6280  174.9010  142.2930 C   0  0  0  0  0  2  0  0  0  0  0  0
  188.3000  173.6900  139.3850 C   0  0  0  0  0  0  0  0  0  0  0  0
  187.8880  172.7160  140.0700 O   0  0  0  0  0  0  0  0  0  0  0  0
  188.1930  175.0250  139.8890 N   0  0  0  0  0  2  0  0  0  0  0  0
  188.8840  173.4380  138.0310 C   0  0  2  0  0  3  0  0  0  0  0  0
  190.3910  173.2240  138.1170 C   0  0  0  0  0  2  0  0  0  0  0  0
  190.7260  171.7490  138.0000 C   0  0  0  0  0  1  0  0  0  0  0  0
  189.2680  174.4520  135.8740 O   0  0  0  0  0  1  0  0  0  0  0  0
  188.5100  174.5450  137.0460 C   0  0  0  0  0  2  0  0  0  0  0  0
  1  4  1  0  0  0  0
  2  4  2  0  0  0  0
  2  7  1  0  0  0  0
  3  6  1  0  0  0  0
  3  5  2  0  0  0  0
  5  2  1  0  0  0  0
  6  1  2  0  0  0  0
  8  5  1  0  0  0  0
 10  8  1  0  0  0  0
 10  9  1  0  0  0  0
 11  9  1  0  0  0  0
 11 17  1  0  0  0  0
 11 13  1  0  0  0  0
 14 12  1  6  0  0  0
 14 13  1  0  0  0  0
 15  8  1  0  0  0  0
 15 14  1  0  0  0  0
 16 17  1  0  0  0  0
 16 18  1  0  0  0  0
 19 16  2  0  0  0  0
 20 25  1  0  0  0  0
 21 20  2  0  0  0  0
 22  3  1  1  0  0  0
 23 29  1  6  0  0  0
 23 20  1  0  0  0  0
 23 26  1  0  0  0  0
 24 26  1  0  0  0  0
 24 22  1  0  0  0  0
 25 22  1  0  0  0  0
 27 29  1  0  0  0  0
 27 28  2  0  0  0  0
 30 34  1  6  0  0  0
 30 31  1  0  0  0  0
 30 27  1  0  0  0  0
 32 31  1  0  0  0  0
 33 34  1  0  0  0  0
M  END
>  <MODEL>
9

>  <REMARK>
 VINA RESULT:      -6.0      2.904      6.710
  Name = 
  7 active torsions:
  status: ('A' for Active; 'I' for Inactive)
    1  A    between atoms: C_2  and  C_17
    2  A    between atoms: N_6  and  C_25
    3  A    between atoms: C_10  and  C_13
    4  A    between atoms: N_11  and  N_16
    5  A    between atoms: N_14  and  C_18
    6  A    between atoms: C_15  and  C_17
    7  A    between atoms: C_17  and  C_30
                            x       y       z     vdW  Elec       q    Type
                         _______ _______ _______ _____ _____    ______ ____

>  <TORSDO>
F 7

$$$$
