=
 OpenBabel11062421433D

 41 41  0  0  1  0  0  0  0  0999 V2000
  191.0240  174.3500  145.9060 O   0  0  0  0  0  1  0  0  0  0  0  0
  191.2030  175.7330  145.8090 C   0  0  1  0  0  3  0  0  0  0  0  0
  189.8940  177.5010  147.0330 C   0  0  0  0  0  1  0  0  0  0  0  0
  189.8570  176.4580  145.9250 C   0  0  1  0  0  3  0  0  0  0  0  0
  188.1290  177.4290  144.4380 C   0  0  0  0  0  3  0  0  0  0  0  0
  189.4140  177.1030  144.6310 C   0  0  0  0  0  0  0  0  0  0  0  0
  191.1250  178.7030  143.7880 O   0  0  0  0  0  1  0  0  0  0  0  0
  190.6040  176.8320  142.5850 O   0  0  0  0  0  0  0  0  0  0  0  0
  190.3990  177.5290  143.6120 C   0  0  0  0  0  0  0  0  0  0  0  0
  187.0140  177.1390  145.3600 C   0  0  0  0  0  3  0  0  0  0  0  0
  185.9130  177.8820  145.5140 C   0  0  0  0  0  0  0  0  0  0  0  0
  184.8910  177.4400  146.5110 C   0  0  0  0  0  2  0  0  0  0  0  0
  184.8040  178.3650  147.5530 O   0  0  0  0  0  1  0  0  0  0  0  0
  185.7330  179.1910  144.8050 C   0  0  0  0  0  2  0  0  0  0  0  0
  184.9350  179.0350  143.5140 C   0  0  0  0  0  2  0  0  0  0  0  0
  185.8430  179.0160  142.2930 C   0  0  0  0  0  2  0  0  0  0  0  0
  185.5760  177.7910  141.4270 C   0  0  1  0  0  3  0  0  0  0  0  0
  184.7680  178.1440  140.3430 O   0  0  0  0  0  1  0  0  0  0  0  0
  187.1180  175.9890  141.5980 F   0  0  0  0  0  0  0  0  0  0  0  0
  187.9320  178.0440  141.1790 F   0  0  0  0  0  0  0  0  0  0  0  0
  186.8100  176.9250  139.5700 F   0  0  0  0  0  0  0  0  0  0  0  0
  186.8830  177.1770  140.9300 C   0  0  0  0  0  0  0  0  0  0  0  0
  192.1610  176.1970  146.8970 C   0  0  0  0  0  2  0  0  0  0  0  0
  193.5860  175.7580  146.5930 C   0  0  0  0  0  2  0  0  0  0  0  0
  193.9840  176.0920  145.1600 C   0  0  0  0  0  2  0  0  0  0  0  0
  195.3270  175.4750  144.8010 C   0  0  2  0  0  3  0  0  0  0  0  0
  195.2090  174.7090  143.5660 N   0  0  0  0  0  2  0  0  0  0  0  0
  192.4750  172.1560  143.5470 C   0  0  0  0  0  3  0  0  0  0  0  0
  192.1660  173.6910  141.7440 N   0  0  0  0  0  0  0  0  0  0  0  0
  194.0360  173.9740  143.2040 C   0  0  0  0  0  0  0  0  0  0  0  0
  193.6240  172.8490  143.9290 C   0  0  0  0  0  3  0  0  0  0  0  0
  193.2820  174.3800  142.1020 C   0  0  0  0  0  3  0  0  0  0  0  0
  191.7500  172.5950  142.4360 C   0  0  0  0  0  0  0  0  0  0  0  0
  190.2950  171.7500  141.9450 S   0  0  0  0  0  0  0  0  0  0  0  0
  190.5230  170.2680  142.0490 O   0  0  0  0  0  0  0  0  0  0  0  0
  189.9610  172.1110  140.5230 O   0  0  0  0  0  0  0  0  0  0  0  0
  189.0040  173.6720  143.0750 C   0  0  0  0  0  1  0  0  0  0  0  0
  188.9880  172.2230  142.9780 N   0  0  0  0  0  2  0  0  0  0  0  0
  195.8580  174.5990  145.9380 C   0  0  0  0  0  2  0  0  0  0  0  0
  196.8640  172.3380  145.9610 C   0  0  0  0  0  1  0  0  0  0  0  0
  197.0620  173.7720  145.5180 C   0  0  0  0  0  2  0  0  0  0  0  0
  2  1  1  1  0  0  0
  2  4  1  0  0  0  0
  2 23  1  0  0  0  0
  4  3  1  1  0  0  0
  5  6  2  0  0  0  0
  5 10  1  0  0  0  0
  6  4  1  0  0  0  0
  8  9  2  0  0  0  0
  9  7  1  0  0  0  0
  9  6  1  0  0  0  0
 10 11  2  0  0  0  0
 11 12  1  0  0  0  0
 12 13  1  0  0  0  0
 14 11  1  0  0  0  0
 15 14  1  0  0  0  0
 16 15  1  0  0  0  0
 17 18  1  6  0  0  0
 17 16  1  0  0  0  0
 21 22  1  0  0  0  0
 22 20  1  0  0  0  0
 22 17  1  0  0  0  0
 22 19  1  0  0  0  0
 24 23  1  0  0  0  0
 25 24  1  0  0  0  0
 26 25  1  1  0  0  0
 26 39  1  0  0  0  0
 27 26  1  0  0  0  0
 28 31  1  0  0  0  0
 29 32  2  0  0  0  0
 29 33  1  0  0  0  0
 30 27  1  0  0  0  0
 30 31  2  0  0  0  0
 32 30  1  0  0  0  0
 33 28  2  0  0  0  0
 34 35  2  0  0  0  0
 34 33  1  0  0  0  0
 34 38  1  0  0  0  0
 36 34  2  0  0  0  0
 38 37  1  0  0  0  0
 41 39  1  0  0  0  0
 41 40  1  0  0  0  0
M  END
>  <MODEL>
1

>  <REMARK>
 VINA RESULT:      -6.2      0.000      0.000
  Name = 
  20 active torsions:
  status: ('A' for Active; 'I' for Inactive)
    1  A    between atoms: C_5  and  N_11
    2  A    between atoms: C_6  and  C_18
    3  A    between atoms: C_6  and  C_33
    4  A    between atoms: C_8  and  C_13
    5  A    between atoms: C_8  and  C_35
    6  A    between atoms: C_9  and  C_28
    7  A    between atoms: C_9  and  C_38
    8  A    between atoms: C_10  and  C_38
    9  A    between atoms: C_10  and  C_40
   10  A    between atoms: N_11  and  C_38
   11  A    between atoms: C_13  and  C_28
   12  A    between atoms: C_14  and  C_15
   13  A    between atoms: C_18  and  C_24
   14  A    between atoms: N_21  and  S_25
   15  A    between atoms: C_22  and  C_29
   16  A    between atoms: C_22  and  C_30
   17  A    between atoms: C_24  and  C_30
   18  A    between atoms: S_25  and  C_36
   19  A    between atoms: C_35  and  C_37
   20  A    between atoms: C_37  and  C_41
                            x       y       z     vdW  Elec       q    Type
                         _______ _______ _______ _____ _____    ______ ____

>  <TORSDO>
F 20

$$$$
=
 OpenBabel11062421433D

 41 41  0  0  1  0  0  0  0  0999 V2000
  191.2640  173.8100  145.2620 O   0  0  0  0  0  1  0  0  0  0  0  0
  190.7970  175.0790  145.6140 C   0  0  1  0  0  3  0  0  0  0  0  0
  189.1000  174.5410  147.3950 C   0  0  0  0  0  1  0  0  0  0  0  0
  189.3060  175.0250  145.9670 C   0  0  1  0  0  3  0  0  0  0  0  0
  188.0780  176.6670  144.5760 C   0  0  0  0  0  3  0  0  0  0  0  0
  188.5970  176.3460  145.7680 C   0  0  0  0  0  0  0  0  0  0  0  0
  187.0580  177.2850  147.4850 O   0  0  0  0  0  1  0  0  0  0  0  0
  189.2340  177.9750  147.3860 O   0  0  0  0  0  0  0  0  0  0  0  0
  188.3240  177.2460  146.9100 C   0  0  0  0  0  0  0  0  0  0  0  0
  188.1960  175.8740  143.3370 C   0  0  0  0  0  3  0  0  0  0  0  0
  188.0680  176.3440  142.0920 C   0  0  0  0  0  0  0  0  0  0  0  0
  188.2050  175.3860  140.9530 C   0  0  0  0  0  2  0  0  0  0  0  0
  187.5220  175.8670  139.8350 O   0  0  0  0  0  1  0  0  0  0  0  0
  187.6810  177.7660  141.8160 C   0  0  0  0  0  2  0  0  0  0  0  0
  186.1890  178.0020  142.0320 C   0  0  0  0  0  2  0  0  0  0  0  0
  185.9370  179.1810  142.9620 C   0  0  0  0  0  2  0  0  0  0  0  0
  184.5790  179.0630  143.6440 C   0  0  1  0  0  3  0  0  0  0  0  0
  183.7900  178.1280  142.9690 O   0  0  0  0  0  1  0  0  0  0  0  0
  183.6040  179.0290  145.8110 F   0  0  0  0  0  0  0  0  0  0  0  0
  185.8310  179.3030  145.6560 F   0  0  0  0  0  0  0  0  0  0  0  0
  184.9090  177.2910  145.2140 F   0  0  0  0  0  0  0  0  0  0  0  0
  184.7360  178.6600  145.1080 C   0  0  0  0  0  0  0  0  0  0  0  0
  191.6090  175.6110  146.7870 C   0  0  0  0  0  2  0  0  0  0  0  0
  193.0750  175.2270  146.6540 C   0  0  0  0  0  2  0  0  0  0  0  0
  193.8720  176.2980  145.9200 C   0  0  0  0  0  2  0  0  0  0  0  0
  195.0930  175.7050  145.2320 C   0  0  2  0  0  3  0  0  0  0  0  0
  194.9580  175.8260  143.7850 N   0  0  0  0  0  2  0  0  0  0  0  0
  191.8560  174.8940  141.9150 C   0  0  0  0  0  3  0  0  0  0  0  0
  193.3940  173.0680  141.8960 N   0  0  0  0  0  0  0  0  0  0  0  0
  194.0010  175.0880  143.0200 C   0  0  0  0  0  0  0  0  0  0  0  0
  192.7660  175.6430  142.6600 C   0  0  0  0  0  3  0  0  0  0  0  0
  194.2950  173.7830  142.6220 C   0  0  0  0  0  3  0  0  0  0  0  0
  192.1900  173.5910  141.5380 C   0  0  0  0  0  0  0  0  0  0  0  0
  191.0700  172.6350  140.5870 S   0  0  0  0  0  0  0  0  0  0  0  0
  191.7650  171.3940  140.1020 O   0  0  0  0  0  0  0  0  0  0  0  0
  190.5960  173.4410  139.4090 O   0  0  0  0  0  0  0  0  0  0  0  0
  190.2170  171.5050  142.7400 C   0  0  0  0  0  1  0  0  0  0  0  0
  189.7110  172.2060  141.5720 N   0  0  0  0  0  2  0  0  0  0  0  0
  195.3070  174.2460  145.6410 C   0  0  0  0  0  2  0  0  0  0  0  0
  196.9300  172.4060  145.9650 C   0  0  0  0  0  1  0  0  0  0  0  0
  196.7770  173.9050  145.8240 C   0  0  0  0  0  2  0  0  0  0  0  0
  2  1  1  1  0  0  0
  2  4  1  0  0  0  0
  2 23  1  0  0  0  0
  4  3  1  1  0  0  0
  5  6  2  0  0  0  0
  6  4  1  0  0  0  0
  6  9  1  0  0  0  0
  9  8  2  0  0  0  0
  9  7  1  0  0  0  0
 10  5  1  0  0  0  0
 11 10  2  0  0  0  0
 12 11  1  0  0  0  0
 13 12  1  0  0  0  0
 14 15  1  0  0  0  0
 14 11  1  0  0  0  0
 15 16  1  0  0  0  0
 16 17  1  0  0  0  0
 17 18  1  6  0  0  0
 17 22  1  0  0  0  0
 22 21  1  0  0  0  0
 22 20  1  0  0  0  0
 22 19  1  0  0  0  0
 24 23  1  0  0  0  0
 25 24  1  0  0  0  0
 26 39  1  6  0  0  0
 26 25  1  0  0  0  0
 27 26  1  0  0  0  0
 28 31  1  0  0  0  0
 29 32  2  0  0  0  0
 30 27  1  0  0  0  0
 31 30  2  0  0  0  0
 32 30  1  0  0  0  0
 33 29  1  0  0  0  0
 33 28  2  0  0  0  0
 34 33  1  0  0  0  0
 34 38  1  0  0  0  0
 35 34  2  0  0  0  0
 36 34  2  0  0  0  0
 38 37  1  0  0  0  0
 39 41  1  0  0  0  0
 41 40  1  0  0  0  0
M  END
>  <MODEL>
2

>  <REMARK>
 VINA RESULT:      -6.1      2.193      3.312
  Name = 
  20 active torsions:
  status: ('A' for Active; 'I' for Inactive)
    1  A    between atoms: C_5  and  N_11
    2  A    between atoms: C_6  and  C_18
    3  A    between atoms: C_6  and  C_33
    4  A    between atoms: C_8  and  C_13
    5  A    between atoms: C_8  and  C_35
    6  A    between atoms: C_9  and  C_28
    7  A    between atoms: C_9  and  C_38
    8  A    between atoms: C_10  and  C_38
    9  A    between atoms: C_10  and  C_40
   10  A    between atoms: N_11  and  C_38
   11  A    between atoms: C_13  and  C_28
   12  A    between atoms: C_14  and  C_15
   13  A    between atoms: C_18  and  C_24
   14  A    between atoms: N_21  and  S_25
   15  A    between atoms: C_22  and  C_29
   16  A    between atoms: C_22  and  C_30
   17  A    between atoms: C_24  and  C_30
   18  A    between atoms: S_25  and  C_36
   19  A    between atoms: C_35  and  C_37
   20  A    between atoms: C_37  and  C_41
                            x       y       z     vdW  Elec       q    Type
                         _______ _______ _______ _____ _____    ______ ____

>  <TORSDO>
F 20

$$$$
=
 OpenBabel11062421433D

 41 41  0  0  1  0  0  0  0  0999 V2000
  187.4190  173.9720  141.9880 O   0  0  0  0  0  1  0  0  0  0  0  0
  188.5270  174.8230  142.0500 C   0  0  1  0  0  3  0  0  0  0  0  0
  189.2100  175.1550  144.4500 C   0  0  0  0  0  1  0  0  0  0  0  0
  188.4350  175.7370  143.2770 C   0  0  1  0  0  3  0  0  0  0  0  0
  188.0530  178.0720  142.5400 C   0  0  0  0  0  3  0  0  0  0  0  0
  188.9040  177.1490  143.0050 C   0  0  0  0  0  0  0  0  0  0  0  0
  191.3730  177.1190  142.6860 O   0  0  0  0  0  0  0  0  0  0  0  0
  190.4390  178.3990  144.3320 O   0  0  0  0  0  1  0  0  0  0  0  0
  190.2660  177.5880  143.3850 C   0  0  0  0  0  0  0  0  0  0  0  0
  186.6460  177.8380  142.1600 C   0  0  0  0  0  3  0  0  0  0  0  0
  185.5910  178.5330  142.5990 C   0  0  0  0  0  0  0  0  0  0  0  0
  184.2320  178.1430  142.1160 C   0  0  0  0  0  2  0  0  0  0  0  0
  184.1240  178.3760  140.7440 O   0  0  0  0  0  1  0  0  0  0  0  0
  185.7230  179.6040  143.6410 C   0  0  0  0  0  2  0  0  0  0  0  0
  184.7850  179.3690  144.8210 C   0  0  0  0  0  2  0  0  0  0  0  0
  185.5350  179.3840  146.1450 C   0  0  0  0  0  2  0  0  0  0  0  0
  185.4640  178.0250  146.8340 C   0  0  1  0  0  3  0  0  0  0  0  0
  184.1940  177.4710  146.6560 O   0  0  0  0  0  1  0  0  0  0  0  0
  187.6230  177.8140  145.8610 F   0  0  0  0  0  0  0  0  0  0  0  0
  186.0240  176.3680  145.2170 F   0  0  0  0  0  0  0  0  0  0  0  0
  186.9390  176.1960  147.2730 F   0  0  0  0  0  0  0  0  0  0  0  0
  186.5320  177.0800  146.2890 C   0  0  0  0  0  0  0  0  0  0  0  0
  189.8010  173.9910  142.0910 C   0  0  0  0  0  2  0  0  0  0  0  0
  189.5300  172.5540  141.6710 C   0  0  0  0  0  2  0  0  0  0  0  0
  190.0240  171.5610  142.7170 C   0  0  0  0  0  2  0  0  0  0  0  0
  190.7940  170.4170  142.0720 C   0  0  2  0  0  3  0  0  0  0  0  0
  192.1470  170.3620  142.6110 N   0  0  0  0  0  2  0  0  0  0  0  0
  193.9170  173.6390  142.9660 C   0  0  0  0  0  3  0  0  0  0  0  0
  193.6670  172.6140  145.1090 N   0  0  0  0  0  0  0  0  0  0  0  0
  192.8160  171.4930  143.1770 C   0  0  0  0  0  0  0  0  0  0  0  0
  193.2670  172.5520  142.3800 C   0  0  0  0  0  3  0  0  0  0  0  0
  193.0300  171.5470  144.5560 C   0  0  0  0  0  3  0  0  0  0  0  0
  194.1120  173.6520  144.3490 C   0  0  0  0  0  0  0  0  0  0  0  0
  194.9120  175.0130  145.1120 S   0  0  0  0  0  0  0  0  0  0  0  0
  196.3140  174.6180  145.4840 O   0  0  0  0  0  0  0  0  0  0  0  0
  194.1550  175.4100  146.3500 O   0  0  0  0  0  0  0  0  0  0  0  0
  196.3160  176.5150  143.5610 C   0  0  0  0  0  1  0  0  0  0  0  0
  194.9440  176.3450  144.0070 N   0  0  0  0  0  2  0  0  0  0  0  0
  190.8170  170.5530  140.5480 C   0  0  0  0  0  2  0  0  0  0  0  0
  190.5890  168.2200  139.7550 C   0  0  0  0  0  1  0  0  0  0  0  0
  191.5360  169.3940  139.8750 C   0  0  0  0  0  2  0  0  0  0  0  0
  2  1  1  1  0  0  0
  2 23  1  0  0  0  0
  2  4  1  0  0  0  0
  4  3  1  1  0  0  0
  5  6  2  0  0  0  0
  6  4  1  0  0  0  0
  6  9  1  0  0  0  0
  7  9  2  0  0  0  0
  9  8  1  0  0  0  0
 10  5  1  0  0  0  0
 10 11  2  0  0  0  0
 11 14  1  0  0  0  0
 12 11  1  0  0  0  0
 13 12  1  0  0  0  0
 14 15  1  0  0  0  0
 15 16  1  0  0  0  0
 16 17  1  0  0  0  0
 17 18  1  6  0  0  0
 19 22  1  0  0  0  0
 20 22  1  0  0  0  0
 22 17  1  0  0  0  0
 22 21  1  0  0  0  0
 24 23  1  0  0  0  0
 24 25  1  0  0  0  0
 26 39  1  6  0  0  0
 26 27  1  0  0  0  0
 26 25  1  0  0  0  0
 27 30  1  0  0  0  0
 28 33  1  0  0  0  0
 30 32  2  0  0  0  0
 31 28  2  0  0  0  0
 31 30  1  0  0  0  0
 32 29  1  0  0  0  0
 33 29  2  0  0  0  0
 33 34  1  0  0  0  0
 34 35  2  0  0  0  0
 34 36  2  0  0  0  0
 37 38  1  0  0  0  0
 38 34  1  0  0  0  0
 40 41  1  0  0  0  0
 41 39  1  0  0  0  0
M  END
>  <MODEL>
3

>  <REMARK>
 VINA RESULT:      -5.9      2.703      5.393
  Name = 
  20 active torsions:
  status: ('A' for Active; 'I' for Inactive)
    1  A    between atoms: C_5  and  N_11
    2  A    between atoms: C_6  and  C_18
    3  A    between atoms: C_6  and  C_33
    4  A    between atoms: C_8  and  C_13
    5  A    between atoms: C_8  and  C_35
    6  A    between atoms: C_9  and  C_28
    7  A    between atoms: C_9  and  C_38
    8  A    between atoms: C_10  and  C_38
    9  A    between atoms: C_10  and  C_40
   10  A    between atoms: N_11  and  C_38
   11  A    between atoms: C_13  and  C_28
   12  A    between atoms: C_14  and  C_15
   13  A    between atoms: C_18  and  C_24
   14  A    between atoms: N_21  and  S_25
   15  A    between atoms: C_22  and  C_29
   16  A    between atoms: C_22  and  C_30
   17  A    between atoms: C_24  and  C_30
   18  A    between atoms: S_25  and  C_36
   19  A    between atoms: C_35  and  C_37
   20  A    between atoms: C_37  and  C_41
                            x       y       z     vdW  Elec       q    Type
                         _______ _______ _______ _____ _____    ______ ____

>  <TORSDO>
F 20

$$$$
=
 OpenBabel11062421433D

 41 41  0  0  1  0  0  0  0  0999 V2000
  191.4900  176.6010  147.9690 O   0  0  0  0  0  1  0  0  0  0  0  0
  191.8550  176.1790  146.6870 C   0  0  1  0  0  3  0  0  0  0  0  0
  191.4230  176.9430  144.3280 C   0  0  0  0  0  1  0  0  0  0  0  0
  190.7880  176.5830  145.6630 C   0  0  1  0  0  3  0  0  0  0  0  0
  188.4750  175.7230  145.8810 C   0  0  0  0  0  3  0  0  0  0  0  0
  189.7290  175.5240  145.4560 C   0  0  0  0  0  0  0  0  0  0  0  0
  190.8370  173.3160  145.1500 O   0  0  0  0  0  1  0  0  0  0  0  0
  189.4850  174.1630  143.5150 O   0  0  0  0  0  0  0  0  0  0  0  0
  190.0060  174.3130  144.6510 C   0  0  0  0  0  0  0  0  0  0  0  0
  187.9950  176.8890  146.6480 C   0  0  0  0  0  3  0  0  0  0  0  0
  186.7250  177.3010  146.7340 C   0  0  0  0  0  0  0  0  0  0  0  0
  186.4260  178.5180  147.5470 C   0  0  0  0  0  2  0  0  0  0  0  0
  185.0500  178.6360  147.7490 O   0  0  0  0  0  1  0  0  0  0  0  0
  185.6240  176.6490  145.9510 C   0  0  0  0  0  2  0  0  0  0  0  0
  185.4680  177.2680  144.5660 C   0  0  0  0  0  2  0  0  0  0  0  0
  186.0160  176.3540  143.4780 C   0  0  0  0  0  2  0  0  0  0  0  0
  186.1230  177.0870  142.1450 C   0  0  1  0  0  3  0  0  0  0  0  0
  184.9450  177.7980  141.9010 O   0  0  0  0  0  1  0  0  0  0  0  0
  187.9000  178.0310  140.8810 F   0  0  0  0  0  0  0  0  0  0  0  0
  188.2580  177.6100  143.0620 F   0  0  0  0  0  0  0  0  0  0  0  0
  186.9190  179.3210  142.4480 F   0  0  0  0  0  0  0  0  0  0  0  0
  187.3210  178.0330  142.1360 C   0  0  0  0  0  0  0  0  0  0  0  0
  193.2060  176.7790  146.3220 C   0  0  0  0  0  2  0  0  0  0  0  0
  194.3150  175.7440  146.4470 C   0  0  0  0  0  2  0  0  0  0  0  0
  193.9390  174.4330  145.7680 C   0  0  0  0  0  2  0  0  0  0  0  0
  194.6510  174.2780  144.4320 C   0  0  2  0  0  3  0  0  0  0  0  0
  194.1650  173.0890  143.7430 N   0  0  0  0  0  2  0  0  0  0  0  0
  191.9300  174.3600  141.0250 C   0  0  0  0  0  3  0  0  0  0  0  0
  192.0840  171.9800  140.9030 N   0  0  0  0  0  0  0  0  0  0  0  0
  193.2880  173.1370  142.6130 C   0  0  0  0  0  0  0  0  0  0  0  0
  192.7850  174.3500  142.1280 C   0  0  0  0  0  3  0  0  0  0  0  0
  192.9190  171.9500  141.9770 C   0  0  0  0  0  3  0  0  0  0  0  0
  191.5850  173.1500  140.4190 C   0  0  0  0  0  0  0  0  0  0  0  0
  190.5260  173.1360  139.0220 S   0  0  0  0  0  0  0  0  0  0  0  0
  190.3070  171.7150  138.5810 O   0  0  0  0  0  0  0  0  0  0  0  0
  191.1590  173.9190  137.9040 O   0  0  0  0  0  0  0  0  0  0  0  0
  188.3320  172.9630  140.3610 C   0  0  0  0  0  1  0  0  0  0  0  0
  189.0140  173.8640  139.4480 N   0  0  0  0  0  2  0  0  0  0  0  0
  196.1690  174.2210  144.6160 C   0  0  0  0  0  2  0  0  0  0  0  0
  195.8710  176.1380  143.0800 C   0  0  0  0  0  1  0  0  0  0  0  0
  196.8880  175.3090  143.8350 C   0  0  0  0  0  2  0  0  0  0  0  0
  2  1  1  1  0  0  0
  4  3  1  6  0  0  0
  4  2  1  0  0  0  0
  5 10  1  0  0  0  0
  6  4  1  0  0  0  0
  6  5  2  0  0  0  0
  8  9  2  0  0  0  0
  9  7  1  0  0  0  0
  9  6  1  0  0  0  0
 10 11  2  0  0  0  0
 11 12  1  0  0  0  0
 12 13  1  0  0  0  0
 14 11  1  0  0  0  0
 15 14  1  0  0  0  0
 16 15  1  0  0  0  0
 17 18  1  1  0  0  0
 17 16  1  0  0  0  0
 19 22  1  0  0  0  0
 22 17  1  0  0  0  0
 22 21  1  0  0  0  0
 22 20  1  0  0  0  0
 23 24  1  0  0  0  0
 23  2  1  0  0  0  0
 25 24  1  0  0  0  0
 26 39  1  1  0  0  0
 26 25  1  0  0  0  0
 27 26  1  0  0  0  0
 28 31  1  0  0  0  0
 29 32  2  0  0  0  0
 30 27  1  0  0  0  0
 31 30  2  0  0  0  0
 32 30  1  0  0  0  0
 33 29  1  0  0  0  0
 33 28  2  0  0  0  0
 34 38  1  0  0  0  0
 34 33  1  0  0  0  0
 35 34  2  0  0  0  0
 36 34  2  0  0  0  0
 38 37  1  0  0  0  0
 40 41  1  0  0  0  0
 41 39  1  0  0  0  0
M  END
>  <MODEL>
4

>  <REMARK>
 VINA RESULT:      -5.9      1.958      2.602
  Name = 
  20 active torsions:
  status: ('A' for Active; 'I' for Inactive)
    1  A    between atoms: C_5  and  N_11
    2  A    between atoms: C_6  and  C_18
    3  A    between atoms: C_6  and  C_33
    4  A    between atoms: C_8  and  C_13
    5  A    between atoms: C_8  and  C_35
    6  A    between atoms: C_9  and  C_28
    7  A    between atoms: C_9  and  C_38
    8  A    between atoms: C_10  and  C_38
    9  A    between atoms: C_10  and  C_40
   10  A    between atoms: N_11  and  C_38
   11  A    between atoms: C_13  and  C_28
   12  A    between atoms: C_14  and  C_15
   13  A    between atoms: C_18  and  C_24
   14  A    between atoms: N_21  and  S_25
   15  A    between atoms: C_22  and  C_29
   16  A    between atoms: C_22  and  C_30
   17  A    between atoms: C_24  and  C_30
   18  A    between atoms: S_25  and  C_36
   19  A    between atoms: C_35  and  C_37
   20  A    between atoms: C_37  and  C_41
                            x       y       z     vdW  Elec       q    Type
                         _______ _______ _______ _____ _____    ______ ____

>  <TORSDO>
F 20

$$$$
=
 OpenBabel11062421433D

 41 41  0  0  1  0  0  0  0  0999 V2000
  194.6060  174.1210  141.4210 O   0  0  0  0  0  1  0  0  0  0  0  0
  194.4620  172.9230  142.1260 C   0  0  1  0  0  3  0  0  0  0  0  0
  194.0360  171.9140  144.3920 C   0  0  0  0  0  1  0  0  0  0  0  0
  194.3480  173.1930  143.6300 C   0  0  1  0  0  3  0  0  0  0  0  0
  195.5890  175.1570  144.4930 C   0  0  0  0  0  3  0  0  0  0  0  0
  195.5810  173.8480  144.2140 C   0  0  0  0  0  0  0  0  0  0  0  0
  196.9760  172.7860  145.9810 O   0  0  0  0  0  1  0  0  0  0  0  0
  197.5400  172.5640  143.7780 O   0  0  0  0  0  0  0  0  0  0  0  0
  196.7480  173.0410  144.6330 C   0  0  0  0  0  0  0  0  0  0  0  0
  194.5010  176.1110  144.2020 C   0  0  0  0  0  3  0  0  0  0  0  0
  193.6020  176.5660  145.0820 C   0  0  0  0  0  0  0  0  0  0  0  0
  192.5570  177.5200  144.6030 C   0  0  0  0  0  2  0  0  0  0  0  0
  191.9370  177.0180  143.4580 O   0  0  0  0  0  1  0  0  0  0  0  0
  193.5470  176.0590  146.4930 C   0  0  0  0  0  2  0  0  0  0  0  0
  192.4500  175.0140  146.6790 C   0  0  0  0  0  2  0  0  0  0  0  0
  191.3550  175.5130  147.6120 C   0  0  0  0  0  2  0  0  0  0  0  0
  190.0470  175.7290  146.8600 C   0  0  1  0  0  3  0  0  0  0  0  0
  189.0650  174.8690  147.3600 O   0  0  0  0  0  1  0  0  0  0  0  0
  188.2290  177.2100  147.2480 F   0  0  0  0  0  0  0  0  0  0  0  0
  189.8140  177.8390  145.7810 F   0  0  0  0  0  0  0  0  0  0  0  0
  190.2670  177.8230  147.9930 F   0  0  0  0  0  0  0  0  0  0  0  0
  189.5840  177.1790  146.9740 C   0  0  0  0  0  0  0  0  0  0  0  0
  193.2340  172.1800  141.6170 C   0  0  0  0  0  2  0  0  0  0  0  0
  192.0700  173.1360  141.4000 C   0  0  0  0  0  2  0  0  0  0  0  0
  190.8570  172.4200  140.8170 C   0  0  0  0  0  2  0  0  0  0  0  0
  189.5580  173.0180  141.3380 C   0  0  2  0  0  3  0  0  0  0  0  0
  189.7750  174.4000  141.7480 N   0  0  0  0  0  2  0  0  0  0  0  0
  187.5340  176.4850  143.8970 C   0  0  0  0  0  3  0  0  0  0  0  0
  186.8050  176.5870  141.6250 N   0  0  0  0  0  0  0  0  0  0  0  0
  188.7220  175.2690  142.1740 C   0  0  0  0  0  0  0  0  0  0  0  0
  188.5740  175.6370  143.5170 C   0  0  0  0  0  3  0  0  0  0  0  0
  187.8130  175.7620  141.2350 C   0  0  0  0  0  3  0  0  0  0  0  0
  186.6460  176.9550  142.9260 C   0  0  0  0  0  0  0  0  0  0  0  0
  185.3410  178.0350  143.3760 S   0  0  0  0  0  0  0  0  0  0  0  0
  184.1740  177.8110  142.4540 O   0  0  0  0  0  0  0  0  0  0  0  0
  185.8070  179.4610  143.2630 O   0  0  0  0  0  0  0  0  0  0  0  0
  184.5530  178.9830  145.6380 C   0  0  0  0  0  1  0  0  0  0  0  0
  184.8740  177.7120  145.0110 N   0  0  0  0  0  2  0  0  0  0  0  0
  188.9900  172.1880  142.4920 C   0  0  0  0  0  2  0  0  0  0  0  0
  190.0810  172.4520  144.6980 C   0  0  0  0  0  1  0  0  0  0  0  0
  190.0770  171.6550  143.4110 C   0  0  0  0  0  2  0  0  0  0  0  0
  2  1  1  6  0  0  0
  2  4  1  0  0  0  0
  4  6  1  0  0  0  0
  4  3  1  1  0  0  0
  6  5  2  0  0  0  0
  6  9  1  0  0  0  0
  8  9  2  0  0  0  0
  9  7  1  0  0  0  0
 10  5  1  0  0  0  0
 10 11  2  0  0  0  0
 11 14  1  0  0  0  0
 12 11  1  0  0  0  0
 13 12  1  0  0  0  0
 14 15  1  0  0  0  0
 15 16  1  0  0  0  0
 17 22  1  0  0  0  0
 17 18  1  1  0  0  0
 17 16  1  0  0  0  0
 20 22  1  0  0  0  0
 22 19  1  0  0  0  0
 22 21  1  0  0  0  0
 23  2  1  0  0  0  0
 24 23  1  0  0  0  0
 25 24  1  0  0  0  0
 26 25  1  1  0  0  0
 26 27  1  0  0  0  0
 26 39  1  0  0  0  0
 27 30  1  0  0  0  0
 29 33  1  0  0  0  0
 30 31  2  0  0  0  0
 31 28  1  0  0  0  0
 32 29  2  0  0  0  0
 32 30  1  0  0  0  0
 33 34  1  0  0  0  0
 33 28  2  0  0  0  0
 34 38  1  0  0  0  0
 35 34  2  0  0  0  0
 36 34  2  0  0  0  0
 38 37  1  0  0  0  0
 39 41  1  0  0  0  0
 41 40  1  0  0  0  0
M  END
>  <MODEL>
5

>  <REMARK>
 VINA RESULT:      -5.8      3.352      7.352
  Name = 
  20 active torsions:
  status: ('A' for Active; 'I' for Inactive)
    1  A    between atoms: C_5  and  N_11
    2  A    between atoms: C_6  and  C_18
    3  A    between atoms: C_6  and  C_33
    4  A    between atoms: C_8  and  C_13
    5  A    between atoms: C_8  and  C_35
    6  A    between atoms: C_9  and  C_28
    7  A    between atoms: C_9  and  C_38
    8  A    between atoms: C_10  and  C_38
    9  A    between atoms: C_10  and  C_40
   10  A    between atoms: N_11  and  C_38
   11  A    between atoms: C_13  and  C_28
   12  A    between atoms: C_14  and  C_15
   13  A    between atoms: C_18  and  C_24
   14  A    between atoms: N_21  and  S_25
   15  A    between atoms: C_22  and  C_29
   16  A    between atoms: C_22  and  C_30
   17  A    between atoms: C_24  and  C_30
   18  A    between atoms: S_25  and  C_36
   19  A    between atoms: C_35  and  C_37
   20  A    between atoms: C_37  and  C_41
                            x       y       z     vdW  Elec       q    Type
                         _______ _______ _______ _____ _____    ______ ____

>  <TORSDO>
F 20

$$$$
=
 OpenBabel11062421433D

 41 41  0  0  1  0  0  0  0  0999 V2000
  191.4840  173.1820  145.0190 O   0  0  0  0  0  1  0  0  0  0  0  0
  192.6680  172.9620  144.3100 C   0  0  1  0  0  3  0  0  0  0  0  0
  195.1260  172.8800  144.8440 C   0  0  0  0  0  1  0  0  0  0  0  0
  193.8410  173.6820  144.9840 C   0  0  1  0  0  3  0  0  0  0  0  0
  193.7070  176.1470  145.2060 C   0  0  0  0  0  3  0  0  0  0  0  0
  194.0560  175.0870  144.4660 C   0  0  0  0  0  0  0  0  0  0  0  0
  194.1590  175.1490  141.9790 O   0  0  0  0  0  0  0  0  0  0  0  0
  195.9880  175.7200  143.2240 O   0  0  0  0  0  1  0  0  0  0  0  0
  194.7910  175.3320  143.2050 C   0  0  0  0  0  0  0  0  0  0  0  0
  193.0180  176.1020  146.5110 C   0  0  0  0  0  3  0  0  0  0  0  0
  191.7120  176.3050  146.7140 C   0  0  0  0  0  0  0  0  0  0  0  0
  191.1910  176.2370  148.1120 C   0  0  0  0  0  2  0  0  0  0  0  0
  191.6670  177.3170  148.8570 O   0  0  0  0  0  1  0  0  0  0  0  0
  190.7890  176.7100  145.6020 C   0  0  0  0  0  2  0  0  0  0  0  0
  189.6050  177.5240  146.1130 C   0  0  0  0  0  2  0  0  0  0  0  0
  188.4270  177.4630  145.1510 C   0  0  0  0  0  2  0  0  0  0  0  0
  187.2560  176.7010  145.7610 C   0  0  1  0  0  3  0  0  0  0  0  0
  187.6850  176.0020  146.8930 O   0  0  0  0  0  1  0  0  0  0  0  0
  184.9160  177.1150  145.7030 F   0  0  0  0  0  0  0  0  0  0  0  0
  186.3080  178.8710  145.5080 F   0  0  0  0  0  0  0  0  0  0  0  0
  186.0700  177.8350  147.5000 F   0  0  0  0  0  0  0  0  0  0  0  0
  186.1180  177.6490  146.1290 C   0  0  0  0  0  0  0  0  0  0  0  0
  192.9330  171.4660  144.2210 C   0  0  0  0  0  2  0  0  0  0  0  0
  192.6390  170.9400  142.8240 C   0  0  0  0  0  2  0  0  0  0  0  0
  192.6220  172.0630  141.7930 C   0  0  0  0  0  2  0  0  0  0  0  0
  191.5770  171.8110  140.7170 C   0  0  2  0  0  3  0  0  0  0  0  0
  190.2390  171.9560  141.2780 N   0  0  0  0  0  2  0  0  0  0  0  0
  188.7830  175.1820  142.4880 C   0  0  0  0  0  3  0  0  0  0  0  0
  188.1940  174.8320  140.2000 N   0  0  0  0  0  0  0  0  0  0  0  0
  189.5330  173.1990  141.3190 C   0  0  0  0  0  0  0  0  0  0  0  0
  189.4830  173.9750  142.4830 C   0  0  0  0  0  3  0  0  0  0  0  0
  188.8720  173.6530  140.1760 C   0  0  0  0  0  3  0  0  0  0  0  0
  188.1340  175.5990  141.3230 C   0  0  0  0  0  0  0  0  0  0  0  0
  187.2610  177.1190  141.2980 S   0  0  0  0  0  0  0  0  0  0  0  0
  186.7160  177.3540  139.9170 O   0  0  0  0  0  0  0  0  0  0  0  0
  188.1930  178.2400  141.6700 O   0  0  0  0  0  0  0  0  0  0  0  0
  184.9260  177.9570  141.9900 C   0  0  0  0  0  1  0  0  0  0  0  0
  185.9650  177.0480  142.4440 N   0  0  0  0  0  2  0  0  0  0  0  0
  191.7560  170.4300  140.0810 C   0  0  0  0  0  2  0  0  0  0  0  0
  190.1000  169.6080  138.4360 C   0  0  0  0  0  1  0  0  0  0  0  0
  191.3680  170.4150  138.6120 C   0  0  0  0  0  2  0  0  0  0  0  0
  2  4  1  0  0  0  0
  2  1  1  1  0  0  0
  4  3  1  6  0  0  0
  5 10  1  0  0  0  0
  6  4  1  0  0  0  0
  6  5  2  0  0  0  0
  7  9  2  0  0  0  0
  9  8  1  0  0  0  0
  9  6  1  0  0  0  0
 10 11  2  0  0  0  0
 11 12  1  0  0  0  0
 12 13  1  0  0  0  0
 14 15  1  0  0  0  0
 14 11  1  0  0  0  0
 16 17  1  0  0  0  0
 16 15  1  0  0  0  0
 17 22  1  0  0  0  0
 17 18  1  1  0  0  0
 19 22  1  0  0  0  0
 20 22  1  0  0  0  0
 22 21  1  0  0  0  0
 23  2  1  0  0  0  0
 24 23  1  0  0  0  0
 25 24  1  0  0  0  0
 26 39  1  1  0  0  0
 26 27  1  0  0  0  0
 26 25  1  0  0  0  0
 27 30  1  0  0  0  0
 29 33  1  0  0  0  0
 30 31  2  0  0  0  0
 31 28  1  0  0  0  0
 32 29  2  0  0  0  0
 32 30  1  0  0  0  0
 33 28  2  0  0  0  0
 34 33  1  0  0  0  0
 34 36  2  0  0  0  0
 34 38  1  0  0  0  0
 35 34  2  0  0  0  0
 37 38  1  0  0  0  0
 40 41  1  0  0  0  0
 41 39  1  0  0  0  0
M  END
>  <MODEL>
6

>  <REMARK>
 VINA RESULT:      -5.6      3.012      6.050
  Name = 
  20 active torsions:
  status: ('A' for Active; 'I' for Inactive)
    1  A    between atoms: C_5  and  N_11
    2  A    between atoms: C_6  and  C_18
    3  A    between atoms: C_6  and  C_33
    4  A    between atoms: C_8  and  C_13
    5  A    between atoms: C_8  and  C_35
    6  A    between atoms: C_9  and  C_28
    7  A    between atoms: C_9  and  C_38
    8  A    between atoms: C_10  and  C_38
    9  A    between atoms: C_10  and  C_40
   10  A    between atoms: N_11  and  C_38
   11  A    between atoms: C_13  and  C_28
   12  A    between atoms: C_14  and  C_15
   13  A    between atoms: C_18  and  C_24
   14  A    between atoms: N_21  and  S_25
   15  A    between atoms: C_22  and  C_29
   16  A    between atoms: C_22  and  C_30
   17  A    between atoms: C_24  and  C_30
   18  A    between atoms: S_25  and  C_36
   19  A    between atoms: C_35  and  C_37
   20  A    between atoms: C_37  and  C_41
                            x       y       z     vdW  Elec       q    Type
                         _______ _______ _______ _____ _____    ______ ____

>  <TORSDO>
F 20

$$$$
=
 OpenBabel11062421433D

 41 41  0  0  1  0  0  0  0  0999 V2000
  187.6470  174.2900  141.9970 O   0  0  0  0  0  1  0  0  0  0  0  0
  188.8160  174.8750  142.4910 C   0  0  1  0  0  3  0  0  0  0  0  0
  188.8980  175.6410  144.8870 C   0  0  0  0  0  1  0  0  0  0  0  0
  188.4800  176.0060  143.4700 C   0  0  1  0  0  3  0  0  0  0  0  0
  188.3910  178.2240  142.3700 C   0  0  0  0  0  3  0  0  0  0  0  0
  189.0920  177.3330  143.0820 C   0  0  0  0  0  0  0  0  0  0  0  0
  190.5160  178.3650  144.8450 O   0  0  0  0  0  1  0  0  0  0  0  0
  191.4620  177.5320  142.9400 O   0  0  0  0  0  0  0  0  0  0  0  0
  190.4140  177.7460  143.6030 C   0  0  0  0  0  0  0  0  0  0  0  0
  187.0390  178.0170  141.8130 C   0  0  0  0  0  3  0  0  0  0  0  0
  185.9150  178.5910  142.2540 C   0  0  0  0  0  0  0  0  0  0  0  0
  184.6290  178.2490  141.5750 C   0  0  0  0  0  2  0  0  0  0  0  0
  184.8560  177.9730  140.2260 O   0  0  0  0  0  1  0  0  0  0  0  0
  185.8960  179.4680  143.4710 C   0  0  0  0  0  2  0  0  0  0  0  0
  184.7320  179.1290  144.3980 C   0  0  0  0  0  2  0  0  0  0  0  0
  185.0930  179.3630  145.8580 C   0  0  0  0  0  2  0  0  0  0  0  0
  185.1480  178.0490  146.6290 C   0  0  1  0  0  3  0  0  0  0  0  0
  184.8410  176.9870  145.7760 O   0  0  0  0  0  1  0  0  0  0  0  0
  187.5040  178.1540  146.3290 F   0  0  0  0  0  0  0  0  0  0  0  0
  186.6730  176.5180  147.6300 F   0  0  0  0  0  0  0  0  0  0  0  0
  186.6770  178.6520  148.3660 F   0  0  0  0  0  0  0  0  0  0  0  0
  186.5250  177.8410  147.2540 C   0  0  0  0  0  0  0  0  0  0  0  0
  189.6680  173.8110  143.1680 C   0  0  0  0  0  2  0  0  0  0  0  0
  189.5890  172.4890  142.4180 C   0  0  0  0  0  2  0  0  0  0  0  0
  190.9720  171.9770  142.0350 C   0  0  0  0  0  2  0  0  0  0  0  0
  191.1560  171.9600  140.5240 C   0  0  2  0  0  3  0  0  0  0  0  0
  192.5050  172.3940  140.1820 N   0  0  0  0  0  2  0  0  0  0  0  0
  193.9000  175.3580  141.9890 C   0  0  0  0  0  3  0  0  0  0  0  0
  195.1140  173.3920  142.5940 N   0  0  0  0  0  0  0  0  0  0  0  0
  193.3100  173.2110  141.0370 C   0  0  0  0  0  0  0  0  0  0  0  0
  193.0950  174.5910  141.1460 C   0  0  0  0  0  3  0  0  0  0  0  0
  194.3390  172.6280  141.7790 C   0  0  0  0  0  3  0  0  0  0  0  0
  194.9190  174.7340  142.7130 C   0  0  0  0  0  0  0  0  0  0  0  0
  195.9350  175.6730  143.7900 S   0  0  0  0  0  0  0  0  0  0  0  0
  195.0690  176.3980  144.7810 O   0  0  0  0  0  0  0  0  0  0  0  0
  196.7290  176.6700  142.9900 O   0  0  0  0  0  0  0  0  0  0  0  0
  196.4140  174.2640  145.8930 C   0  0  0  0  0  1  0  0  0  0  0  0
  197.0210  174.6090  144.6180 N   0  0  0  0  0  2  0  0  0  0  0  0
  190.1090  172.8310  139.8270 C   0  0  0  0  0  2  0  0  0  0  0  0
  188.5400  173.0430  137.9250 C   0  0  0  0  0  1  0  0  0  0  0  0
  189.3340  172.0670  138.7670 C   0  0  0  0  0  2  0  0  0  0  0  0
  2  1  1  1  0  0  0
  2 23  1  0  0  0  0
  2  4  1  0  0  0  0
  4  3  1  1  0  0  0
  5  6  2  0  0  0  0
  6  4  1  0  0  0  0
  6  9  1  0  0  0  0
  8  9  2  0  0  0  0
  9  7  1  0  0  0  0
 10 11  2  0  0  0  0
 10  5  1  0  0  0  0
 11 14  1  0  0  0  0
 12 11  1  0  0  0  0
 13 12  1  0  0  0  0
 14 15  1  0  0  0  0
 15 16  1  0  0  0  0
 16 17  1  0  0  0  0
 17 18  1  6  0  0  0
 17 22  1  0  0  0  0
 19 22  1  0  0  0  0
 22 20  1  0  0  0  0
 22 21  1  0  0  0  0
 24 23  1  0  0  0  0
 25 24  1  0  0  0  0
 26 39  1  6  0  0  0
 26 25  1  0  0  0  0
 27 26  1  0  0  0  0
 27 30  1  0  0  0  0
 28 33  1  0  0  0  0
 29 33  2  0  0  0  0
 30 31  1  0  0  0  0
 30 32  2  0  0  0  0
 31 28  2  0  0  0  0
 32 29  1  0  0  0  0
 33 34  1  0  0  0  0
 34 38  1  0  0  0  0
 34 35  2  0  0  0  0
 36 34  2  0  0  0  0
 38 37  1  0  0  0  0
 40 41  1  0  0  0  0
 41 39  1  0  0  0  0
M  END
>  <MODEL>
7

>  <REMARK>
 VINA RESULT:      -5.4      2.950      5.679
  Name = 
  20 active torsions:
  status: ('A' for Active; 'I' for Inactive)
    1  A    between atoms: C_5  and  N_11
    2  A    between atoms: C_6  and  C_18
    3  A    between atoms: C_6  and  C_33
    4  A    between atoms: C_8  and  C_13
    5  A    between atoms: C_8  and  C_35
    6  A    between atoms: C_9  and  C_28
    7  A    between atoms: C_9  and  C_38
    8  A    between atoms: C_10  and  C_38
    9  A    between atoms: C_10  and  C_40
   10  A    between atoms: N_11  and  C_38
   11  A    between atoms: C_13  and  C_28
   12  A    between atoms: C_14  and  C_15
   13  A    between atoms: C_18  and  C_24
   14  A    between atoms: N_21  and  S_25
   15  A    between atoms: C_22  and  C_29
   16  A    between atoms: C_22  and  C_30
   17  A    between atoms: C_24  and  C_30
   18  A    between atoms: S_25  and  C_36
   19  A    between atoms: C_35  and  C_37
   20  A    between atoms: C_37  and  C_41
                            x       y       z     vdW  Elec       q    Type
                         _______ _______ _______ _____ _____    ______ ____

>  <TORSDO>
F 20

$$$$
=
 OpenBabel11062421433D

 41 41  0  0  1  0  0  0  0  0999 V2000
  190.4450  173.4950  145.2810 O   0  0  0  0  0  1  0  0  0  0  0  0
  191.0010  174.7780  145.2940 C   0  0  1  0  0  3  0  0  0  0  0  0
  190.4050  176.3450  147.1720 C   0  0  0  0  0  1  0  0  0  0  0  0
  189.9840  175.8000  145.8150 C   0  0  1  0  0  3  0  0  0  0  0  0
  188.5650  177.5800  144.8370 C   0  0  0  0  0  3  0  0  0  0  0  0
  189.7440  176.9450  144.8570 C   0  0  0  0  0  0  0  0  0  0  0  0
  192.0180  177.9310  144.6270 O   0  0  0  0  0  1  0  0  0  0  0  0
  190.7340  177.5510  142.7750 O   0  0  0  0  0  0  0  0  0  0  0  0
  190.8420  177.4910  144.0280 C   0  0  0  0  0  0  0  0  0  0  0  0
  187.3730  177.2190  145.6290 C   0  0  0  0  0  3  0  0  0  0  0  0
  186.1800  177.8200  145.5650 C   0  0  0  0  0  0  0  0  0  0  0  0
  185.0880  177.3280  146.4570 C   0  0  0  0  0  2  0  0  0  0  0  0
  184.0730  178.2820  146.5470 O   0  0  0  0  0  1  0  0  0  0  0  0
  185.9470  179.0340  144.7150 C   0  0  0  0  0  2  0  0  0  0  0  0
  185.2560  178.6850  143.4010 C   0  0  0  0  0  2  0  0  0  0  0  0
  185.5270  177.2440  142.9910 C   0  0  0  0  0  2  0  0  0  0  0  0
  185.9410  177.1560  141.5270 C   0  0  1  0  0  3  0  0  0  0  0  0
  185.8250  178.4120  140.9260 O   0  0  0  0  0  1  0  0  0  0  0  0
  187.6010  175.6660  142.3480 F   0  0  0  0  0  0  0  0  0  0  0  0
  188.2640  177.6770  141.5890 F   0  0  0  0  0  0  0  0  0  0  0  0
  187.5700  176.0950  140.1360 F   0  0  0  0  0  0  0  0  0  0  0  0
  187.3710  176.6390  141.3930 C   0  0  0  0  0  0  0  0  0  0  0  0
  192.2550  174.7770  146.1570 C   0  0  0  0  0  2  0  0  0  0  0  0
  193.3860  174.0200  145.4760 C   0  0  0  0  0  2  0  0  0  0  0  0
  194.3230  174.9620  144.7300 C   0  0  0  0  0  2  0  0  0  0  0  0
  193.9230  175.0950  143.2670 C   0  0  2  0  0  3  0  0  0  0  0  0
  193.6220  173.7810  142.7120 N   0  0  0  0  0  2  0  0  0  0  0  0
  191.7320  172.3920  139.7980 C   0  0  0  0  0  3  0  0  0  0  0  0
  190.4530  174.1130  140.8490 N   0  0  0  0  0  0  0  0  0  0  0  0
  192.6010  173.5540  141.7350 C   0  0  0  0  0  0  0  0  0  0  0  0
  192.7470  172.5850  140.7350 C   0  0  0  0  0  3  0  0  0  0  0  0
  191.4310  174.3150  141.7720 C   0  0  0  0  0  3  0  0  0  0  0  0
  190.5780  173.1760  139.8690 C   0  0  0  0  0  0  0  0  0  0  0  0
  189.2820  172.9420  138.7130 S   0  0  0  0  0  0  0  0  0  0  0  0
  189.1090  174.1960  137.9020 O   0  0  0  0  0  0  0  0  0  0  0  0
  188.0040  172.6360  139.4470 O   0  0  0  0  0  0  0  0  0  0  0  0
  189.7120  172.1150  136.3120 C   0  0  0  0  0  1  0  0  0  0  0  0
  189.6790  171.6140  137.6750 N   0  0  0  0  0  2  0  0  0  0  0  0
  195.0150  175.7950  142.4550 C   0  0  0  0  0  2  0  0  0  0  0  0
  197.4870  175.7010  142.5160 C   0  0  0  0  0  1  0  0  0  0  0  0
  196.2480  176.1020  143.2880 C   0  0  0  0  0  2  0  0  0  0  0  0
  2  1  1  1  0  0  0
  2  4  1  0  0  0  0
  2 23  1  0  0  0  0
  4  3  1  1  0  0  0
  5  6  2  0  0  0  0
  5 10  1  0  0  0  0
  6  4  1  0  0  0  0
  8  9  2  0  0  0  0
  9  7  1  0  0  0  0
  9  6  1  0  0  0  0
 11 10  2  0  0  0  0
 11 12  1  0  0  0  0
 12 13  1  0  0  0  0
 14 11  1  0  0  0  0
 15 14  1  0  0  0  0
 16 15  1  0  0  0  0
 17 18  1  1  0  0  0
 17 16  1  0  0  0  0
 21 22  1  0  0  0  0
 22 17  1  0  0  0  0
 22 20  1  0  0  0  0
 22 19  1  0  0  0  0
 24 23  1  0  0  0  0
 25 24  1  0  0  0  0
 26 39  1  6  0  0  0
 26 25  1  0  0  0  0
 27 26  1  0  0  0  0
 28 33  2  0  0  0  0
 28 31  1  0  0  0  0
 29 32  2  0  0  0  0
 30 32  1  0  0  0  0
 30 27  1  0  0  0  0
 31 30  2  0  0  0  0
 33 29  1  0  0  0  0
 34 36  2  0  0  0  0
 34 33  1  0  0  0  0
 35 34  2  0  0  0  0
 37 38  1  0  0  0  0
 38 34  1  0  0  0  0
 39 41  1  0  0  0  0
 40 41  1  0  0  0  0
M  END
>  <MODEL>
8

>  <REMARK>
 VINA RESULT:      -5.3      2.071      2.529
  Name = 
  20 active torsions:
  status: ('A' for Active; 'I' for Inactive)
    1  A    between atoms: C_5  and  N_11
    2  A    between atoms: C_6  and  C_18
    3  A    between atoms: C_6  and  C_33
    4  A    between atoms: C_8  and  C_13
    5  A    between atoms: C_8  and  C_35
    6  A    between atoms: C_9  and  C_28
    7  A    between atoms: C_9  and  C_38
    8  A    between atoms: C_10  and  C_38
    9  A    between atoms: C_10  and  C_40
   10  A    between atoms: N_11  and  C_38
   11  A    between atoms: C_13  and  C_28
   12  A    between atoms: C_14  and  C_15
   13  A    between atoms: C_18  and  C_24
   14  A    between atoms: N_21  and  S_25
   15  A    between atoms: C_22  and  C_29
   16  A    between atoms: C_22  and  C_30
   17  A    between atoms: C_24  and  C_30
   18  A    between atoms: S_25  and  C_36
   19  A    between atoms: C_35  and  C_37
   20  A    between atoms: C_37  and  C_41
                            x       y       z     vdW  Elec       q    Type
                         _______ _______ _______ _____ _____    ______ ____

>  <TORSDO>
F 20

$$$$
=
 OpenBabel11062421433D

 41 41  0  0  1  0  0  0  0  0999 V2000
  186.6770  175.2900  142.8000 O   0  0  0  0  0  1  0  0  0  0  0  0
  187.4480  175.5580  141.6660 C   0  0  1  0  0  3  0  0  0  0  0  0
  187.1300  177.5330  140.1380 C   0  0  0  0  0  1  0  0  0  0  0  0
  187.6440  177.0690  141.4930 C   0  0  1  0  0  3  0  0  0  0  0  0
  187.7140  178.2900  143.6470 C   0  0  0  0  0  3  0  0  0  0  0  0
  186.9990  177.8840  142.5910 C   0  0  0  0  0  0  0  0  0  0  0  0
  184.7280  177.7670  141.5770 O   0  0  0  0  0  0  0  0  0  0  0  0
  185.2090  179.3550  143.1480 O   0  0  0  0  0  1  0  0  0  0  0  0
  185.6110  178.3820  142.4580 C   0  0  0  0  0  0  0  0  0  0  0  0
  189.1220  177.9440  143.9250 C   0  0  0  0  0  3  0  0  0  0  0  0
  189.5430  177.0060  144.7800 C   0  0  0  0  0  0  0  0  0  0  0  0
  191.0150  176.8040  144.9440 C   0  0  0  0  0  2  0  0  0  0  0  0
  191.2900  176.2820  146.2090 O   0  0  0  0  0  1  0  0  0  0  0  0
  188.5920  176.2420  145.6520 C   0  0  0  0  0  2  0  0  0  0  0  0
  188.1410  177.0630  146.8570 C   0  0  0  0  0  2  0  0  0  0  0  0
  186.7810  176.6070  147.3670 C   0  0  0  0  0  2  0  0  0  0  0  0
  185.9070  177.7980  147.7430 C   0  0  1  0  0  3  0  0  0  0  0  0
  186.6980  178.8150  148.2840 O   0  0  0  0  0  1  0  0  0  0  0  0
  183.8530  178.6540  146.9070 F   0  0  0  0  0  0  0  0  0  0  0  0
  185.0780  177.3340  145.5590 F   0  0  0  0  0  0  0  0  0  0  0  0
  185.7660  179.4370  146.0080 F   0  0  0  0  0  0  0  0  0  0  0  0
  185.1400  178.3170  146.5300 C   0  0  0  0  0  0  0  0  0  0  0  0
  188.7910  174.8510  141.7880 C   0  0  0  0  0  2  0  0  0  0  0  0
  189.1710  174.1720  140.4810 C   0  0  0  0  0  2  0  0  0  0  0  0
  189.5480  172.7110  140.6950 C   0  0  0  0  0  2  0  0  0  0  0  0
  191.0440  172.4940  140.5190 C   0  0  2  0  0  3  0  0  0  0  0  0
  191.7100  173.7720  140.3010 N   0  0  0  0  0  2  0  0  0  0  0  0
  194.7180  175.5310  141.6620 C   0  0  0  0  0  3  0  0  0  0  0  0
  193.3820  174.6980  143.4580 N   0  0  0  0  0  0  0  0  0  0  0  0
  192.6690  174.3240  141.2080 C   0  0  0  0  0  0  0  0  0  0  0  0
  193.8030  175.0060  140.7490 C   0  0  0  0  0  3  0  0  0  0  0  0
  192.4780  174.1810  142.5840 C   0  0  0  0  0  3  0  0  0  0  0  0
  194.4900  175.3640  143.0300 C   0  0  0  0  0  0  0  0  0  0  0  0
  195.6170  176.0270  144.1980 S   0  0  0  0  0  0  0  0  0  0  0  0
  194.8670  176.8900  145.1740 O   0  0  0  0  0  0  0  0  0  0  0  0
  196.6510  176.8540  143.4840 O   0  0  0  0  0  0  0  0  0  0  0  0
  197.5650  174.3430  144.2580 C   0  0  0  0  0  1  0  0  0  0  0  0
  196.3980  174.7280  145.0340 N   0  0  0  0  0  2  0  0  0  0  0  0
  191.3330  171.5240  139.3710 C   0  0  0  0  0  2  0  0  0  0  0  0
  189.7520  171.5230  137.4670 C   0  0  0  0  0  1  0  0  0  0  0  0
  190.0660  170.8980  138.8100 C   0  0  0  0  0  2  0  0  0  0  0  0
  2 23  1  0  0  0  0
  2  1  1  1  0  0  0
  4  3  1  6  0  0  0
  4  2  1  0  0  0  0
  4  6  1  0  0  0  0
  5 10  1  0  0  0  0
  6  5  2  0  0  0  0
  7  9  2  0  0  0  0
  9  6  1  0  0  0  0
  9  8  1  0  0  0  0
 10 11  2  0  0  0  0
 11 12  1  0  0  0  0
 11 14  1  0  0  0  0
 12 13  1  0  0  0  0
 14 15  1  0  0  0  0
 15 16  1  0  0  0  0
 16 17  1  0  0  0  0
 17 18  1  6  0  0  0
 20 22  1  0  0  0  0
 21 22  1  0  0  0  0
 22 19  1  0  0  0  0
 22 17  1  0  0  0  0
 24 25  1  0  0  0  0
 24 23  1  0  0  0  0
 26 39  1  6  0  0  0
 26 25  1  0  0  0  0
 27 26  1  0  0  0  0
 27 30  1  0  0  0  0
 28 33  1  0  0  0  0
 30 32  2  0  0  0  0
 31 30  1  0  0  0  0
 31 28  2  0  0  0  0
 32 29  1  0  0  0  0
 33 29  2  0  0  0  0
 33 34  1  0  0  0  0
 34 38  1  0  0  0  0
 34 35  2  0  0  0  0
 36 34  2  0  0  0  0
 37 38  1  0  0  0  0
 40 41  1  0  0  0  0
 41 39  1  0  0  0  0
M  END
>  <MODEL>
9

>  <REMARK>
 VINA RESULT:      -5.3      2.997      6.310
  Name = 
  20 active torsions:
  status: ('A' for Active; 'I' for Inactive)
    1  A    between atoms: C_5  and  N_11
    2  A    between atoms: C_6  and  C_18
    3  A    between atoms: C_6  and  C_33
    4  A    between atoms: C_8  and  C_13
    5  A    between atoms: C_8  and  C_35
    6  A    between atoms: C_9  and  C_28
    7  A    between atoms: C_9  and  C_38
    8  A    between atoms: C_10  and  C_38
    9  A    between atoms: C_10  and  C_40
   10  A    between atoms: N_11  and  C_38
   11  A    between atoms: C_13  and  C_28
   12  A    between atoms: C_14  and  C_15
   13  A    between atoms: C_18  and  C_24
   14  A    between atoms: N_21  and  S_25
   15  A    between atoms: C_22  and  C_29
   16  A    between atoms: C_22  and  C_30
   17  A    between atoms: C_24  and  C_30
   18  A    between atoms: S_25  and  C_36
   19  A    between atoms: C_35  and  C_37
   20  A    between atoms: C_37  and  C_41
                            x       y       z     vdW  Elec       q    Type
                         _______ _______ _______ _____ _____    ______ ____

>  <TORSDO>
F 20

$$$$
