=
 OpenBabel11062422123D

 44 47  0  0  1  0  0  0  0  0999 V2000
  189.1570  177.1850  146.7230 C   0  0  2  0  0  3  0  0  0  0  0  0
  186.4670  178.4010  145.5870 C   0  0  1  0  0  3  0  0  0  0  0  0
  187.7640  176.5350  146.8300 C   0  0  0  0  0  2  0  0  0  0  0  0
  186.5790  177.5130  146.8380 C   0  0  1  0  0  3  0  0  0  0  0  0
  189.3170  178.1710  145.5510 C   0  0  0  0  0  2  0  0  0  0  0  0
  187.1710  177.8720  144.3510 C   0  0  0  0  0  0  0  0  0  0  0  0
  188.5090  177.7700  144.3450 C   0  0  0  0  0  3  0  0  0  0  0  0
  186.6230  178.3000  147.9710 F   0  0  0  0  0  0  0  0  0  0  0  0
  190.1530  176.1310  146.6010 N   0  0  0  0  0  2  0  0  0  0  0  0
  192.3410  175.1020  147.1540 N   0  0  0  0  0  2  0  0  0  0  0  0
  191.4370  176.8220  148.4240 O   0  0  0  0  0  0  0  0  0  0  0  0
  191.3100  176.0490  147.4390 C   0  0  0  0  0  0  0  0  0  0  0  0
  193.3370  174.0100  145.2890 C   0  0  0  0  0  3  0  0  0  0  0  0
  192.2650  174.2280  146.0290 C   0  0  0  0  0  3  0  0  0  0  0  0
  193.2530  173.1040  144.1140 C   0  0  0  0  0  2  0  0  0  0  0  0
  193.9800  173.6970  142.9200 C   0  0  0  0  0  2  0  0  0  0  0  0
  193.4630  175.0950  142.6330 C   0  0  0  0  0  2  0  0  0  0  0  0
  195.5220  176.2860  143.3530 O   0  0  0  0  0  1  0  0  0  0  0  0
  194.6000  176.0100  142.3540 C   0  0  0  0  0  0  0  0  0  0  0  0
  194.7130  176.5550  141.2250 O   0  0  0  0  0  0  0  0  0  0  0  0
  183.9740  178.3480  146.0520 N   0  0  0  0  0  1  0  0  0  0  0  0
  185.0780  178.8980  145.3410 C   0  0  0  0  0  0  0  0  0  0  0  0
  184.8830  179.7810  144.4690 O   0  0  0  0  0  0  0  0  0  0  0  0
  186.4190  177.3240  143.1790 C   0  0  0  0  0  2  0  0  0  0  0  0
  187.7520  176.7120  141.0850 N   0  0  0  0  0  0  0  0  0  0  0  0
  186.4070  177.1840  140.7180 C   0  0  2  0  0  3  0  0  0  0  0  0
  186.4990  178.0480  139.6430 F   0  0  0  0  0  0  0  0  0  0  0  0
  187.0740  177.7800  141.8690 C   0  0  1  0  0  3  0  0  0  0  0  0
  187.5740  175.3650  141.6280 C   0  0  0  0  0  2  0  0  0  0  0  0
  188.5030  174.3770  140.9290 C   0  0  0  0  0  2  0  0  0  0  0  0
  189.7890  171.7220  143.2100 O   0  0  0  0  0  1  0  0  0  0  0  0
  189.4990  173.7320  141.8950 C   0  0  1  0  0  0  0  0  0  0  0  0
  189.4440  172.2060  141.9450 C   0  0  1  0  0  3  0  0  0  0  0  0
  190.6500  172.9050  141.3180 C   0  0  1  0  0  3  0  0  0  0  0  0
  189.8430  174.4680  143.1820 C   0  0  0  0  0  1  0  0  0  0  0  0
  190.5100  171.4510  139.2350 C   0  0  0  0  0  3  0  0  0  0  0  0
  192.3940  174.6140  136.8420 C   0  0  0  0  0  1  0  0  0  0  0  0
  189.3750  172.4370  137.2850 C   0  0  0  0  0  2  0  0  0  0  0  0
  189.8830  171.2690  138.0720 C   0  0  0  0  0  3  0  0  0  0  0  0
  191.5330  173.8540  137.5070 C   0  0  0  0  0  0  0  0  0  0  0  0
  190.7280  172.8340  139.7720 C   0  0  2  0  0  3  0  0  0  0  0  0
  192.8060  174.0280  139.4930 O   0  0  0  0  0  0  0  0  0  0  0  0
  190.4770  173.2370  136.7570 N   0  0  0  0  0  0  0  0  0  0  0  0
  191.7400  173.6210  138.9620 C   0  0  0  0  0  0  0  0  0  0  0  0
  1  9  1  6  0  0  0
  1  3  1  0  0  0  0
  2 22  1  6  0  0  0
  2  4  1  0  0  0  0
  3  4  1  0  0  0  0
  4  8  1  1  0  0  0
  5  1  1  0  0  0  0
  6  2  1  0  0  0  0
  7  6  2  0  0  0  0
  7  5  1  0  0  0  0
  9 12  1  0  0  0  0
 10 12  1  0  0  0  0
 12 11  2  0  0  0  0
 13 14  2  0  0  0  0
 14 10  1  0  0  0  0
 15 13  1  0  0  0  0
 16 15  1  0  0  0  0
 17 16  1  0  0  0  0
 19 17  1  0  0  0  0
 19 18  1  0  0  0  0
 20 19  2  0  0  0  0
 22 21  1  0  0  0  0
 23 22  2  0  0  0  0
 24  6  1  0  0  0  0
 25 29  1  0  0  0  0
 25 28  1  0  0  0  0
 26 27  1  6  0  0  0
 26 25  1  0  0  0  0
 26 28  1  0  0  0  0
 28 24  1  1  0  0  0
 30 29  1  0  0  0  0
 30 32  1  0  0  0  0
 32 33  1  0  0  0  0
 32 35  1  1  0  0  0
 33 31  1  1  0  0  0
 34 41  1  6  0  0  0
 34 32  1  0  0  0  0
 34 33  1  0  0  0  0
 37 40  1  0  0  0  0
 38 39  1  0  0  0  0
 39 36  2  0  0  0  0
 40 44  1  0  0  0  0
 41 36  1  1  0  0  0
 43 38  1  0  0  0  0
 43 40  2  0  0  0  0
 44 42  2  0  0  0  0
 44 41  1  0  0  0  0
M  END
>  <MODEL>
1

>  <REMARK>
 VINA RESULT:      -6.9      0.000      0.000
  Name = 
  13 active torsions:
  status: ('A' for Active; 'I' for Inactive)
    1  A    between atoms: C_2  and  C_21
    2  A    between atoms: N_3  and  C_44
    3  A    between atoms: N_7  and  C_13
    4  A    between atoms: C_8  and  C_9
    5  A    between atoms: C_9  and  C_44
    6  A    between atoms: C_10  and  C_21
    7  A    between atoms: C_10  and  C_29
    8  A    between atoms: N_11  and  C_20
    9  A    between atoms: C_14  and  C_38
   10  A    between atoms: C_18  and  C_29
   11  A    between atoms: C_19  and  C_25
   12  A    between atoms: C_19  and  C_33
   13  A    between atoms: C_27  and  C_30
                            x       y       z     vdW  Elec       q    Type
                         _______ _______ _______ _____ _____    ______ ____

>  <TORSDO>
F 13

$$$$
=
 OpenBabel11062422123D

 44 47  0  0  1  0  0  0  0  0999 V2000
  193.0860  172.8490  143.1440 C   0  0  2  0  0  3  0  0  0  0  0  0
  193.4900  175.2730  145.1370 C   0  0  1  0  0  3  0  0  0  0  0  0
  192.0970  173.2780  144.2460 C   0  0  0  0  0  2  0  0  0  0  0  0
  192.7270  173.9760  145.4610 C   0  0  1  0  0  3  0  0  0  0  0  0
  194.0200  173.9680  142.6480 C   0  0  0  0  0  2  0  0  0  0  0  0
  193.1050  175.9430  143.8300 C   0  0  0  0  0  0  0  0  0  0  0  0
  193.3600  175.3220  142.6690 C   0  0  0  0  0  3  0  0  0  0  0  0
  193.5530  173.1000  146.1350 F   0  0  0  0  0  0  0  0  0  0  0  0
  192.3280  172.3230  142.0190 N   0  0  0  0  0  2  0  0  0  0  0  0
  192.0310  170.7800  140.1000 N   0  0  0  0  0  2  0  0  0  0  0  0
  193.6520  170.4230  141.7230 O   0  0  0  0  0  0  0  0  0  0  0  0
  192.7080  171.1420  141.3050 C   0  0  0  0  0  0  0  0  0  0  0  0
  191.1910  172.3110  138.4850 C   0  0  0  0  0  3  0  0  0  0  0  0
  190.9780  171.5790  139.5630 C   0  0  0  0  0  3  0  0  0  0  0  0
  190.0940  173.1480  137.9310 C   0  0  0  0  0  2  0  0  0  0  0  0
  188.7790  172.8460  138.6280 C   0  0  0  0  0  2  0  0  0  0  0  0
  188.3510  174.0300  139.4750 C   0  0  0  0  0  2  0  0  0  0  0  0
  189.5580  174.3080  141.6310 O   0  0  0  0  0  1  0  0  0  0  0  0
  188.5270  173.7140  140.9170 C   0  0  0  0  0  0  0  0  0  0  0  0
  187.7630  172.8900  141.4830 O   0  0  0  0  0  0  0  0  0  0  0  0
  192.5670  176.2400  147.2920 N   0  0  0  0  0  1  0  0  0  0  0  0
  193.5890  176.2040  146.3030 C   0  0  0  0  0  0  0  0  0  0  0  0
  194.5670  176.9890  146.3840 O   0  0  0  0  0  0  0  0  0  0  0  0
  192.3200  177.2160  143.7900 C   0  0  0  0  0  2  0  0  0  0  0  0
  189.7820  176.9100  143.8120 N   0  0  0  0  0  0  0  0  0  0  0  0
  190.1420  178.1670  143.1350 C   0  0  2  0  0  3  0  0  0  0  0  0
  189.3890  178.3030  141.9850 F   0  0  0  0  0  0  0  0  0  0  0  0
  191.0230  177.0130  142.9960 C   0  0  1  0  0  3  0  0  0  0  0  0
  189.9830  177.1480  145.2420 C   0  0  0  0  0  2  0  0  0  0  0  0
  188.7130  177.7080  145.8750 C   0  0  0  0  0  2  0  0  0  0  0  0
  186.2880  176.2920  148.3290 O   0  0  0  0  0  1  0  0  0  0  0  0
  187.8480  176.6170  146.5090 C   0  0  1  0  0  0  0  0  0  0  0  0
  186.6200  177.1280  147.2600 C   0  0  1  0  0  3  0  0  0  0  0  0
  186.4480  176.3690  145.9440 C   0  0  1  0  0  3  0  0  0  0  0  0
  188.5340  175.3680  147.0460 C   0  0  0  0  0  1  0  0  0  0  0  0
  184.7610  177.9840  144.9360 C   0  0  0  0  0  3  0  0  0  0  0  0
  186.4540  177.3350  140.9370 C   0  0  0  0  0  2  0  0  0  0  0  0
  185.6810  179.8450  143.6110 C   0  0  0  0  0  2  0  0  0  0  0  0
  184.5930  179.1990  144.4110 C   0  0  0  0  0  3  0  0  0  0  0  0
  186.2160  177.7570  142.1730 C   0  0  0  0  0  0  0  0  0  0  0  0
  186.0430  177.2380  144.7250 C   0  0  2  0  0  3  0  0  0  0  0  0
  186.3050  175.5510  143.0200 O   0  0  0  0  0  0  0  0  0  0  0  0
  185.8940  179.1450  142.3480 N   0  0  0  0  0  2  0  0  0  0  0  0
  186.2210  176.7760  143.2920 C   0  0  0  0  0  0  0  0  0  0  0  0
  1  9  1  6  0  0  0
  1  3  1  0  0  0  0
  2  4  1  0  0  0  0
  2 22  1  1  0  0  0
  3  4  1  0  0  0  0
  4  8  1  6  0  0  0
  5  7  1  0  0  0  0
  5  1  1  0  0  0  0
  6  2  1  0  0  0  0
  7  6  2  0  0  0  0
 10 12  1  0  0  0  0
 12 11  2  0  0  0  0
 12  9  1  0  0  0  0
 13 14  2  0  0  0  0
 14 10  1  0  0  0  0
 15 13  1  0  0  0  0
 15 16  1  0  0  0  0
 16 17  1  0  0  0  0
 17 19  1  0  0  0  0
 19 20  2  0  0  0  0
 19 18  1  0  0  0  0
 22 23  2  0  0  0  0
 22 21  1  0  0  0  0
 24  6  1  0  0  0  0
 25 29  1  0  0  0  0
 26 27  1  6  0  0  0
 26 25  1  0  0  0  0
 28 26  1  0  0  0  0
 28 24  1  1  0  0  0
 28 25  1  0  0  0  0
 29 30  1  0  0  0  0
 30 32  1  0  0  0  0
 32 35  1  1  0  0  0
 32 33  1  0  0  0  0
 33 31  1  1  0  0  0
 34 41  1  6  0  0  0
 34 32  1  0  0  0  0
 34 33  1  0  0  0  0
 37 40  2  0  0  0  0
 38 39  1  0  0  0  0
 39 36  2  0  0  0  0
 40 43  1  0  0  0  0
 40 44  1  0  0  0  0
 41 36  1  1  0  0  0
 42 44  2  0  0  0  0
 43 38  1  0  0  0  0
 44 41  1  0  0  0  0
M  END
>  <MODEL>
2

>  <REMARK>
 VINA RESULT:      -6.7      2.718      7.424
  Name = 
  13 active torsions:
  status: ('A' for Active; 'I' for Inactive)
    1  A    between atoms: C_2  and  C_21
    2  A    between atoms: N_3  and  C_44
    3  A    between atoms: N_7  and  C_13
    4  A    between atoms: C_8  and  C_9
    5  A    between atoms: C_9  and  C_44
    6  A    between atoms: C_10  and  C_21
    7  A    between atoms: C_10  and  C_29
    8  A    between atoms: N_11  and  C_20
    9  A    between atoms: C_14  and  C_38
   10  A    between atoms: C_18  and  C_29
   11  A    between atoms: C_19  and  C_25
   12  A    between atoms: C_19  and  C_33
   13  A    between atoms: C_27  and  C_30
                            x       y       z     vdW  Elec       q    Type
                         _______ _______ _______ _____ _____    ______ ____

>  <TORSDO>
F 13

$$$$
=
 OpenBabel11062422123D

 44 47  0  0  1  0  0  0  0  0999 V2000
  191.9770  176.4750  146.3280 C   0  0  2  0  0  3  0  0  0  0  0  0
  194.7310  175.0550  145.6910 C   0  0  1  0  0  3  0  0  0  0  0  0
  192.9690  176.8970  145.2270 C   0  0  0  0  0  2  0  0  0  0  0  0
  194.4420  176.5550  145.5010 C   0  0  1  0  0  3  0  0  0  0  0  0
  192.0760  174.9970  146.7490 C   0  0  0  0  0  2  0  0  0  0  0  0
  193.6970  174.1150  145.0980 C   0  0  0  0  0  0  0  0  0  0  0  0
  192.4550  174.0950  145.6040 C   0  0  0  0  0  3  0  0  0  0  0  0
  194.8990  177.2640  146.5940 F   0  0  0  0  0  0  0  0  0  0  0  0
  190.6260  176.7530  145.8670 N   0  0  0  0  0  2  0  0  0  0  0  0
  188.2760  177.4540  146.2430 N   0  0  0  0  0  2  0  0  0  0  0  0
  189.9400  177.8400  147.8160 O   0  0  0  0  0  0  0  0  0  0  0  0
  189.6320  177.3740  146.6880 C   0  0  0  0  0  0  0  0  0  0  0  0
  186.5840  176.8820  144.6710 C   0  0  0  0  0  3  0  0  0  0  0  0
  187.8660  176.9100  144.9900 C   0  0  0  0  0  3  0  0  0  0  0  0
  186.1590  176.3080  143.3670 C   0  0  0  0  0  2  0  0  0  0  0  0
  185.3480  177.3150  142.5720 C   0  0  0  0  0  2  0  0  0  0  0  0
  186.2380  178.4480  142.0970 C   0  0  0  0  0  2  0  0  0  0  0  0
  186.9780  177.2360  140.0560 O   0  0  0  0  0  0  0  0  0  0  0  0
  187.3130  177.9170  141.2190 C   0  0  0  0  0  0  0  0  0  0  0  0
  188.5220  178.0580  141.5390 O   0  0  0  0  0  1  0  0  0  0  0  0
  196.8040  175.2090  144.2370 N   0  0  0  0  0  1  0  0  0  0  0  0
  196.1480  174.6870  145.3870 C   0  0  0  0  0  0  0  0  0  0  0  0
  196.7490  173.8750  146.1340 O   0  0  0  0  0  0  0  0  0  0  0  0
  193.9710  173.3020  143.8720 C   0  0  0  0  0  2  0  0  0  0  0  0
  193.2630  171.1470  142.6930 N   0  0  0  0  0  0  0  0  0  0  0  0
  193.7510  170.8530  144.0500 C   0  0  2  0  0  3  0  0  0  0  0  0
  192.9070  169.9420  144.6570 F   0  0  0  0  0  0  0  0  0  0  0  0
  193.0250  172.0960  143.8150 C   0  0  1  0  0  3  0  0  0  0  0  0
  194.4500  171.4500  141.8930 C   0  0  0  0  0  2  0  0  0  0  0  0
  194.0530  171.8590  140.4770 C   0  0  0  0  0  2  0  0  0  0  0  0
  194.5910  174.8470  138.3130 O   0  0  0  0  0  1  0  0  0  0  0  0
  194.3810  173.3230  140.1800 C   0  0  1  0  0  0  0  0  0  0  0  0
  193.7790  173.8640  138.8840 C   0  0  1  0  0  3  0  0  0  0  0  0
  193.2510  174.3540  140.2320 C   0  0  1  0  0  3  0  0  0  0  0  0
  195.7390  173.8630  140.6060 C   0  0  0  0  0  1  0  0  0  0  0  0
  190.9660  173.5510  139.4570 C   0  0  0  0  0  3  0  0  0  0  0  0
  189.3850  173.9610  143.5340 C   0  0  0  0  0  1  0  0  0  0  0  0
  190.0110  171.6290  140.6670 C   0  0  0  0  0  2  0  0  0  0  0  0
  190.1020  172.5340  139.4770 C   0  0  0  0  0  3  0  0  0  0  0  0
  189.9820  173.5270  142.4310 C   0  0  0  0  0  0  0  0  0  0  0  0
  191.8560  173.8130  140.6340 C   0  0  2  0  0  3  0  0  0  0  0  0
  191.3390  175.4610  142.3180 O   0  0  0  0  0  0  0  0  0  0  0  0
  189.4670  172.3330  141.8240 N   0  0  0  0  0  0  0  0  0  0  0  0
  191.0920  174.3240  141.8410 C   0  0  0  0  0  0  0  0  0  0  0  0
  1  9  1  6  0  0  0
  1  5  1  0  0  0  0
  2 22  1  6  0  0  0
  3  4  1  0  0  0  0
  3  1  1  0  0  0  0
  4  2  1  0  0  0  0
  4  8  1  1  0  0  0
  6  7  2  0  0  0  0
  6  2  1  0  0  0  0
  7  5  1  0  0  0  0
  9 12  1  0  0  0  0
 10 12  1  0  0  0  0
 12 11  2  0  0  0  0
 13 14  2  0  0  0  0
 14 10  1  0  0  0  0
 15 13  1  0  0  0  0
 16 15  1  0  0  0  0
 17 16  1  0  0  0  0
 18 19  2  0  0  0  0
 19 20  1  0  0  0  0
 19 17  1  0  0  0  0
 21 22  1  0  0  0  0
 22 23  2  0  0  0  0
 24  6  1  0  0  0  0
 25 28  1  0  0  0  0
 25 26  1  0  0  0  0
 26 27  1  1  0  0  0
 28 24  1  6  0  0  0
 28 26  1  0  0  0  0
 29 25  1  0  0  0  0
 30 29  1  0  0  0  0
 32 34  1  0  0  0  0
 32 30  1  0  0  0  0
 32 35  1  1  0  0  0
 33 31  1  6  0  0  0
 33 32  1  0  0  0  0
 33 34  1  0  0  0  0
 34 41  1  1  0  0  0
 36 39  2  0  0  0  0
 38 43  1  0  0  0  0
 39 38  1  0  0  0  0
 40 37  1  0  0  0  0
 41 36  1  6  0  0  0
 41 44  1  0  0  0  0
 43 40  2  0  0  0  0
 44 42  2  0  0  0  0
 44 40  1  0  0  0  0
M  END
>  <MODEL>
3

>  <REMARK>
 VINA RESULT:      -6.7      3.280      7.126
  Name = 
  13 active torsions:
  status: ('A' for Active; 'I' for Inactive)
    1  A    between atoms: C_2  and  C_21
    2  A    between atoms: N_3  and  C_44
    3  A    between atoms: N_7  and  C_13
    4  A    between atoms: C_8  and  C_9
    5  A    between atoms: C_9  and  C_44
    6  A    between atoms: C_10  and  C_21
    7  A    between atoms: C_10  and  C_29
    8  A    between atoms: N_11  and  C_20
    9  A    between atoms: C_14  and  C_38
   10  A    between atoms: C_18  and  C_29
   11  A    between atoms: C_19  and  C_25
   12  A    between atoms: C_19  and  C_33
   13  A    between atoms: C_27  and  C_30
                            x       y       z     vdW  Elec       q    Type
                         _______ _______ _______ _____ _____    ______ ____

>  <TORSDO>
F 13

$$$$
=
 OpenBabel11062422123D

 44 47  0  0  1  0  0  0  0  0999 V2000
  194.6240  173.9370  140.5410 C   0  0  2  0  0  3  0  0  0  0  0  0
  192.0090  173.2250  138.9090 C   0  0  1  0  0  3  0  0  0  0  0  0
  193.8200  174.9170  139.6650 C   0  0  0  0  0  2  0  0  0  0  0  0
  193.0520  174.2790  138.4970 C   0  0  1  0  0  3  0  0  0  0  0  0
  193.8170  172.7370  141.0700 C   0  0  0  0  0  2  0  0  0  0  0  0
  191.5220  173.3200  140.3440 C   0  0  0  0  0  0  0  0  0  0  0  0
  192.3790  173.0880  141.3490 C   0  0  0  0  0  3  0  0  0  0  0  0
  193.9380  173.7340  137.5890 F   0  0  0  0  0  0  0  0  0  0  0  0
  195.1850  174.6710  141.6640 N   0  0  0  0  0  2  0  0  0  0  0  0
  197.0940  175.5540  142.9800 N   0  0  0  0  0  2  0  0  0  0  0  0
  197.3550  174.7730  140.8090 O   0  0  0  0  0  0  0  0  0  0  0  0
  196.5750  174.9950  141.7720 C   0  0  0  0  0  0  0  0  0  0  0  0
  196.0940  174.8430  145.0190 C   0  0  0  0  0  3  0  0  0  0  0  0
  196.2610  175.7910  144.1140 C   0  0  0  0  0  3  0  0  0  0  0  0
  195.2210  175.0910  146.1950 C   0  0  0  0  0  2  0  0  0  0  0  0
  194.3540  176.3180  145.9770 C   0  0  0  0  0  2  0  0  0  0  0  0
  192.8920  175.9720  146.1900 C   0  0  0  0  0  2  0  0  0  0  0  0
  191.5690  174.1330  145.1680 O   0  0  0  0  0  1  0  0  0  0  0  0
  192.3600  175.2600  144.9980 C   0  0  0  0  0  0  0  0  0  0  0  0
  192.6470  175.6590  143.8400 O   0  0  0  0  0  0  0  0  0  0  0  0
  190.4980  174.1370  137.0880 N   0  0  0  0  0  1  0  0  0  0  0  0
  190.9220  173.0460  137.8980 C   0  0  0  0  0  0  0  0  0  0  0  0
  190.3520  171.9310  137.7940 O   0  0  0  0  0  0  0  0  0  0  0  0
  190.1480  173.8030  140.6870 C   0  0  0  0  0  2  0  0  0  0  0  0
  188.6700  174.1680  142.7400 N   0  0  0  0  0  0  0  0  0  0  0  0
  188.4600  172.8190  142.1900 C   0  0  2  0  0  3  0  0  0  0  0  0
  188.4200  171.9010  143.2220 F   0  0  0  0  0  0  0  0  0  0  0  0
  189.7920  173.4080  142.1260 C   0  0  1  0  0  3  0  0  0  0  0  0
  187.9960  175.0890  141.8230 C   0  0  0  0  0  2  0  0  0  0  0  0
  186.8320  175.7850  142.5220 C   0  0  0  0  0  2  0  0  0  0  0  0
  184.6470  178.5050  141.2060 O   0  0  0  0  0  1  0  0  0  0  0  0
  186.5250  177.1550  141.9160 C   0  0  1  0  0  0  0  0  0  0  0  0
  185.1350  177.7020  142.2400 C   0  0  1  0  0  3  0  0  0  0  0  0
  186.3740  178.3550  142.8540 C   0  0  1  0  0  3  0  0  0  0  0  0
  187.1180  177.4970  140.5560 C   0  0  0  0  0  1  0  0  0  0  0  0
  185.8270  179.0010  145.2530 C   0  0  0  0  0  3  0  0  0  0  0  0
  189.2340  176.6470  146.7140 C   0  0  0  0  0  2  0  0  0  0  0  0
  185.5210  177.1470  146.8440 C   0  0  0  0  0  2  0  0  0  0  0  0
  185.3320  178.5680  146.4130 C   0  0  0  0  0  3  0  0  0  0  0  0
  188.0460  177.0390  146.2700 C   0  0  0  0  0  0  0  0  0  0  0  0
  186.5950  178.0720  144.3620 C   0  0  2  0  0  3  0  0  0  0  0  0
  189.0060  177.9910  144.3300 O   0  0  0  0  0  0  0  0  0  0  0  0
  186.9220  176.8700  147.1470 N   0  0  0  0  0  2  0  0  0  0  0  0
  187.9460  177.6930  144.9370 C   0  0  0  0  0  0  0  0  0  0  0  0
  1  5  1  0  0  0  0
  1  9  1  1  0  0  0
  2 22  1  6  0  0  0
  2  6  1  0  0  0  0
  3  1  1  0  0  0  0
  4  8  1  6  0  0  0
  4  2  1  0  0  0  0
  4  3  1  0  0  0  0
  5  7  1  0  0  0  0
  6 24  1  0  0  0  0
  6  7  2  0  0  0  0
  9 12  1  0  0  0  0
 10 14  1  0  0  0  0
 11 12  2  0  0  0  0
 12 10  1  0  0  0  0
 13 15  1  0  0  0  0
 14 13  2  0  0  0  0
 16 17  1  0  0  0  0
 16 15  1  0  0  0  0
 19 18  1  0  0  0  0
 19 17  1  0  0  0  0
 20 19  2  0  0  0  0
 21 22  1  0  0  0  0
 23 22  2  0  0  0  0
 26 25  1  0  0  0  0
 26 27  1  1  0  0  0
 28 24  1  6  0  0  0
 28 26  1  0  0  0  0
 28 25  1  0  0  0  0
 29 30  1  0  0  0  0
 29 25  1  0  0  0  0
 32 35  1  6  0  0  0
 32 33  1  0  0  0  0
 32 30  1  0  0  0  0
 32 34  1  0  0  0  0
 33 31  1  6  0  0  0
 33 34  1  0  0  0  0
 34 41  1  1  0  0  0
 36 39  2  0  0  0  0
 38 43  1  0  0  0  0
 39 38  1  0  0  0  0
 40 37  2  0  0  0  0
 40 43  1  0  0  0  0
 41 44  1  0  0  0  0
 41 36  1  1  0  0  0
 42 44  2  0  0  0  0
 44 40  1  0  0  0  0
M  END
>  <MODEL>
4

>  <REMARK>
 VINA RESULT:      -6.6      2.973      7.994
  Name = 
  13 active torsions:
  status: ('A' for Active; 'I' for Inactive)
    1  A    between atoms: C_2  and  C_21
    2  A    between atoms: N_3  and  C_44
    3  A    between atoms: N_7  and  C_13
    4  A    between atoms: C_8  and  C_9
    5  A    between atoms: C_9  and  C_44
    6  A    between atoms: C_10  and  C_21
    7  A    between atoms: C_10  and  C_29
    8  A    between atoms: N_11  and  C_20
    9  A    between atoms: C_14  and  C_38
   10  A    between atoms: C_18  and  C_29
   11  A    between atoms: C_19  and  C_25
   12  A    between atoms: C_19  and  C_33
   13  A    between atoms: C_27  and  C_30
                            x       y       z     vdW  Elec       q    Type
                         _______ _______ _______ _____ _____    ______ ____

>  <TORSDO>
F 13

$$$$
=
 OpenBabel11062422123D

 44 47  0  0  1  0  0  0  0  0999 V2000
  189.2730  177.1620  146.6480 C   0  0  2  0  0  3  0  0  0  0  0  0
  186.4580  178.2160  145.6610 C   0  0  1  0  0  3  0  0  0  0  0  0
  187.9460  176.3820  146.7260 C   0  0  0  0  0  2  0  0  0  0  0  0
  186.6800  177.2460  146.8340 C   0  0  1  0  0  3  0  0  0  0  0  0
  189.3160  178.2490  145.5580 C   0  0  0  0  0  2  0  0  0  0  0  0
  187.1770  177.8530  144.3740 C   0  0  0  0  0  0  0  0  0  0  0  0
  188.5170  177.8730  144.3370 C   0  0  0  0  0  3  0  0  0  0  0  0
  186.6810  177.9420  148.0260 F   0  0  0  0  0  0  0  0  0  0  0  0
  190.3550  176.2160  146.4240 N   0  0  0  0  0  2  0  0  0  0  0  0
  192.6200  175.3190  146.8890 N   0  0  0  0  0  2  0  0  0  0  0  0
  191.5690  176.8050  148.3290 O   0  0  0  0  0  0  0  0  0  0  0  0
  191.5120  176.1390  147.2640 C   0  0  0  0  0  0  0  0  0  0  0  0
  193.2360  173.4030  145.6190 C   0  0  0  0  0  3  0  0  0  0  0  0
  192.6240  174.5720  145.6740 C   0  0  0  0  0  3  0  0  0  0  0  0
  193.2430  172.6310  144.3490 C   0  0  0  0  0  2  0  0  0  0  0  0
  194.3790  171.6240  144.3350 C   0  0  0  0  0  2  0  0  0  0  0  0
  194.8090  171.2980  145.7530 C   0  0  0  0  0  2  0  0  0  0  0  0
  197.0880  172.1240  145.2010 O   0  0  0  0  0  0  0  0  0  0  0  0
  196.2890  171.1730  145.8200 C   0  0  0  0  0  0  0  0  0  0  0  0
  196.8170  170.1960  146.4110 O   0  0  0  0  0  1  0  0  0  0  0  0
  184.6680  179.6950  144.6410 N   0  0  0  0  0  1  0  0  0  0  0  0
  185.0250  178.6030  145.4800 C   0  0  0  0  0  0  0  0  0  0  0  0
  184.1340  177.9810  146.1110 O   0  0  0  0  0  0  0  0  0  0  0  0
  186.4480  177.3340  143.1750 C   0  0  0  0  0  2  0  0  0  0  0  0
  187.8220  176.4970  141.1880 N   0  0  0  0  0  0  0  0  0  0  0  0
  186.5660  177.1080  140.7230 C   0  0  2  0  0  3  0  0  0  0  0  0
  186.8230  177.9160  139.6310 F   0  0  0  0  0  0  0  0  0  0  0  0
  187.2290  177.6640  141.8960 C   0  0  1  0  0  3  0  0  0  0  0  0
  187.4550  175.2000  141.7570 C   0  0  0  0  0  2  0  0  0  0  0  0
  188.3560  174.0990  141.2070 C   0  0  0  0  0  2  0  0  0  0  0  0
  189.7350  171.7190  143.7250 O   0  0  0  0  0  1  0  0  0  0  0  0
  189.3610  173.5960  142.2450 C   0  0  1  0  0  0  0  0  0  0  0  0
  189.3980  172.0780  142.4170 C   0  0  1  0  0  3  0  0  0  0  0  0
  190.5770  172.8000  141.7640 C   0  0  1  0  0  3  0  0  0  0  0  0
  189.6220  174.4520  143.4770 C   0  0  0  0  0  1  0  0  0  0  0  0
  190.6230  171.1770  139.8070 C   0  0  0  0  0  3  0  0  0  0  0  0
  192.2880  174.2930  137.1990 C   0  0  0  0  0  1  0  0  0  0  0  0
  189.4600  171.8970  137.7590 C   0  0  0  0  0  2  0  0  0  0  0  0
  190.0470  170.8460  138.6510 C   0  0  0  0  0  3  0  0  0  0  0  0
  191.4790  173.5150  137.9080 C   0  0  0  0  0  0  0  0  0  0  0  0
  190.7040  172.6120  140.2310 C   0  0  2  0  0  3  0  0  0  0  0  0
  192.6760  173.9620  139.8980 O   0  0  0  0  0  0  0  0  0  0  0  0
  190.5020  172.7470  137.1900 N   0  0  0  0  0  0  0  0  0  0  0  0
  191.6650  173.4190  139.3810 C   0  0  0  0  0  0  0  0  0  0  0  0
  1  9  1  6  0  0  0
  1  3  1  0  0  0  0
  2 22  1  6  0  0  0
  2  4  1  0  0  0  0
  3  4  1  0  0  0  0
  4  8  1  1  0  0  0
  5  1  1  0  0  0  0
  6  2  1  0  0  0  0
  7  6  2  0  0  0  0
  7  5  1  0  0  0  0
  9 12  1  0  0  0  0
 10 12  1  0  0  0  0
 12 11  2  0  0  0  0
 13 14  2  0  0  0  0
 14 10  1  0  0  0  0
 15 13  1  0  0  0  0
 16 15  1  0  0  0  0
 16 17  1  0  0  0  0
 17 19  1  0  0  0  0
 18 19  2  0  0  0  0
 19 20  1  0  0  0  0
 21 22  1  0  0  0  0
 22 23  2  0  0  0  0
 24  6  1  0  0  0  0
 25 29  1  0  0  0  0
 25 28  1  0  0  0  0
 26 27  1  6  0  0  0
 26 25  1  0  0  0  0
 26 28  1  0  0  0  0
 28 24  1  1  0  0  0
 30 29  1  0  0  0  0
 30 32  1  0  0  0  0
 32 33  1  0  0  0  0
 32 35  1  1  0  0  0
 33 31  1  1  0  0  0
 34 41  1  6  0  0  0
 34 32  1  0  0  0  0
 34 33  1  0  0  0  0
 37 40  1  0  0  0  0
 38 39  1  0  0  0  0
 39 36  2  0  0  0  0
 40 44  1  0  0  0  0
 41 36  1  1  0  0  0
 43 38  1  0  0  0  0
 43 40  2  0  0  0  0
 44 42  2  0  0  0  0
 44 41  1  0  0  0  0
M  END
>  <MODEL>
5

>  <REMARK>
 VINA RESULT:      -6.5      1.627      2.040
  Name = 
  13 active torsions:
  status: ('A' for Active; 'I' for Inactive)
    1  A    between atoms: C_2  and  C_21
    2  A    between atoms: N_3  and  C_44
    3  A    between atoms: N_7  and  C_13
    4  A    between atoms: C_8  and  C_9
    5  A    between atoms: C_9  and  C_44
    6  A    between atoms: C_10  and  C_21
    7  A    between atoms: C_10  and  C_29
    8  A    between atoms: N_11  and  C_20
    9  A    between atoms: C_14  and  C_38
   10  A    between atoms: C_18  and  C_29
   11  A    between atoms: C_19  and  C_25
   12  A    between atoms: C_19  and  C_33
   13  A    between atoms: C_27  and  C_30
                            x       y       z     vdW  Elec       q    Type
                         _______ _______ _______ _____ _____    ______ ____

>  <TORSDO>
F 13

$$$$
=
 OpenBabel11062422123D

 44 47  0  0  1  0  0  0  0  0999 V2000
  194.7350  173.9080  142.0350 C   0  0  2  0  0  3  0  0  0  0  0  0
  193.0150  173.5900  139.3990 C   0  0  1  0  0  3  0  0  0  0  0  0
  194.4070  175.0360  141.0370 C   0  0  0  0  0  2  0  0  0  0  0  0
  194.1740  174.5850  139.5870 C   0  0  1  0  0  3  0  0  0  0  0  0
  193.7360  172.7370  142.0320 C   0  0  0  0  0  2  0  0  0  0  0  0
  191.9780  173.5850  140.5080 C   0  0  0  0  0  0  0  0  0  0  0  0
  192.3270  173.1810  141.7380 C   0  0  0  0  0  3  0  0  0  0  0  0
  195.3360  174.0580  139.0610 F   0  0  0  0  0  0  0  0  0  0  0  0
  194.8030  174.4760  143.3730 N   0  0  0  0  0  2  0  0  0  0  0  0
  196.0290  175.0890  145.4400 N   0  0  0  0  0  2  0  0  0  0  0  0
  197.1340  174.5430  143.4730 O   0  0  0  0  0  0  0  0  0  0  0  0
  196.0350  174.7020  144.0650 C   0  0  0  0  0  0  0  0  0  0  0  0
  194.1070  176.3560  146.0420 C   0  0  0  0  0  3  0  0  0  0  0  0
  194.8130  175.2470  146.1680 C   0  0  0  0  0  3  0  0  0  0  0  0
  192.8440  176.5190  146.8090 C   0  0  0  0  0  2  0  0  0  0  0  0
  192.0420  175.2310  146.8110 C   0  0  0  0  0  2  0  0  0  0  0  0
  190.9320  175.3050  147.8430 C   0  0  0  0  0  2  0  0  0  0  0  0
  188.6610  175.9970  147.1050 O   0  0  0  0  0  1  0  0  0  0  0  0
  189.6240  175.0020  147.2050 C   0  0  0  0  0  0  0  0  0  0  0  0
  189.3770  173.8430  146.7830 O   0  0  0  0  0  0  0  0  0  0  0  0
  192.1010  172.3940  137.3580 N   0  0  0  0  0  1  0  0  0  0  0  0
  192.4430  173.6070  138.0180 C   0  0  0  0  0  0  0  0  0  0  0  0
  192.3040  174.7040  137.4210 O   0  0  0  0  0  0  0  0  0  0  0  0
  190.6050  174.1490  140.3150 C   0  0  0  0  0  2  0  0  0  0  0  0
  188.1910  173.5100  140.8620 N   0  0  0  0  0  0  0  0  0  0  0  0
  188.5090  173.1690  139.4660 C   0  0  2  0  0  3  0  0  0  0  0  0
  188.0110  171.9130  139.1740 F   0  0  0  0  0  0  0  0  0  0  0  0
  189.5520  173.0460  140.4770 C   0  0  1  0  0  3  0  0  0  0  0  0
  188.0420  174.9650  140.8990 C   0  0  0  0  0  2  0  0  0  0  0  0
  187.6090  175.4250  142.2880 C   0  0  0  0  0  2  0  0  0  0  0  0
  190.6110  177.5850  142.7660 O   0  0  0  0  0  1  0  0  0  0  0  0
  188.7570  176.0620  143.0740 C   0  0  1  0  0  0  0  0  0  0  0  0
  189.2490  177.3980  142.5190 C   0  0  1  0  0  3  0  0  0  0  0  0
  188.4880  177.3570  143.8440 C   0  0  1  0  0  3  0  0  0  0  0  0
  189.7840  175.1490  143.7280 C   0  0  0  0  0  1  0  0  0  0  0  0
  186.7970  178.8370  142.6530 C   0  0  0  0  0  3  0  0  0  0  0  0
  184.1020  178.6230  146.1140 C   0  0  0  0  0  1  0  0  0  0  0  0
  184.5110  177.9430  142.4500 C   0  0  0  0  0  2  0  0  0  0  0  0
  185.6160  178.8620  142.0330 C   0  0  0  0  0  3  0  0  0  0  0  0
  184.7670  178.3730  144.9930 C   0  0  0  0  0  0  0  0  0  0  0  0
  187.0340  177.8910  143.7920 C   0  0  2  0  0  3  0  0  0  0  0  0
  186.8470  178.5590  146.1030 O   0  0  0  0  0  0  0  0  0  0  0  0
  184.0090  178.2900  143.7770 N   0  0  0  0  0  0  0  0  0  0  0  0
  186.2510  178.2650  145.0350 C   0  0  0  0  0  0  0  0  0  0  0  0
  1  9  1  1  0  0  0
  2 22  1  6  0  0  0
  2  4  1  0  0  0  0
  2  6  1  0  0  0  0
  3  1  1  0  0  0  0
  4  8  1  1  0  0  0
  4  3  1  0  0  0  0
  5  1  1  0  0  0  0
  6  7  2  0  0  0  0
  7  5  1  0  0  0  0
  9 12  1  0  0  0  0
 10 14  1  0  0  0  0
 11 12  2  0  0  0  0
 12 10  1  0  0  0  0
 13 14  2  0  0  0  0
 13 15  1  0  0  0  0
 15 16  1  0  0  0  0
 16 17  1  0  0  0  0
 18 19  1  0  0  0  0
 19 17  1  0  0  0  0
 20 19  2  0  0  0  0
 21 22  1  0  0  0  0
 23 22  2  0  0  0  0
 24  6  1  0  0  0  0
 25 29  1  0  0  0  0
 26 27  1  1  0  0  0
 26 28  1  0  0  0  0
 26 25  1  0  0  0  0
 28 24  1  6  0  0  0
 28 25  1  0  0  0  0
 29 30  1  0  0  0  0
 30 32  1  0  0  0  0
 32 35  1  1  0  0  0
 32 34  1  0  0  0  0
 33 31  1  1  0  0  0
 33 32  1  0  0  0  0
 33 34  1  0  0  0  0
 34 41  1  6  0  0  0
 38 43  1  0  0  0  0
 39 38  1  0  0  0  0
 39 36  2  0  0  0  0
 40 44  1  0  0  0  0
 40 37  1  0  0  0  0
 41 36  1  6  0  0  0
 41 44  1  0  0  0  0
 43 40  2  0  0  0  0
 44 42  2  0  0  0  0
M  END
>  <MODEL>
6

>  <REMARK>
 VINA RESULT:      -6.4      2.919      7.847
  Name = 
  13 active torsions:
  status: ('A' for Active; 'I' for Inactive)
    1  A    between atoms: C_2  and  C_21
    2  A    between atoms: N_3  and  C_44
    3  A    between atoms: N_7  and  C_13
    4  A    between atoms: C_8  and  C_9
    5  A    between atoms: C_9  and  C_44
    6  A    between atoms: C_10  and  C_21
    7  A    between atoms: C_10  and  C_29
    8  A    between atoms: N_11  and  C_20
    9  A    between atoms: C_14  and  C_38
   10  A    between atoms: C_18  and  C_29
   11  A    between atoms: C_19  and  C_25
   12  A    between atoms: C_19  and  C_33
   13  A    between atoms: C_27  and  C_30
                            x       y       z     vdW  Elec       q    Type
                         _______ _______ _______ _____ _____    ______ ____

>  <TORSDO>
F 13

$$$$
=
 OpenBabel11062422123D

 44 47  0  0  1  0  0  0  0  0999 V2000
  188.8100  176.1500  142.9660 C   0  0  2  0  0  3  0  0  0  0  0  0
  190.2350  173.9520  141.1930 C   0  0  1  0  0  3  0  0  0  0  0  0
  188.3000  174.7140  142.7370 C   0  0  0  0  0  2  0  0  0  0  0  0
  188.7160  174.0710  141.4050 C   0  0  1  0  0  3  0  0  0  0  0  0
  190.3280  176.3300  142.7780 C   0  0  0  0  0  2  0  0  0  0  0  0
  191.0720  173.9890  142.4590 C   0  0  0  0  0  0  0  0  0  0  0  0
  191.1090  175.1110  143.1930 C   0  0  0  0  0  3  0  0  0  0  0  0
  188.1460  174.7550  140.3500 F   0  0  0  0  0  0  0  0  0  0  0  0
  188.4410  176.5650  144.3100 N   0  0  0  0  0  2  0  0  0  0  0  0
  188.0630  176.1200  146.7210 N   0  0  0  0  0  2  0  0  0  0  0  0
  189.2270  174.6370  145.3660 O   0  0  0  0  0  0  0  0  0  0  0  0
  188.6100  175.7300  145.4600 C   0  0  0  0  0  0  0  0  0  0  0  0
  186.0110  177.2870  147.0190 C   0  0  0  0  0  3  0  0  0  0  0  0
  187.3230  177.3300  146.8750 C   0  0  0  0  0  3  0  0  0  0  0  0
  185.2420  178.5500  147.1720 C   0  0  0  0  0  2  0  0  0  0  0  0
  184.1370  178.6390  146.1360 C   0  0  0  0  0  2  0  0  0  0  0  0
  184.6680  179.2530  144.8530 C   0  0  0  0  0  2  0  0  0  0  0  0
  183.5110  178.5440  142.7700 O   0  0  0  0  0  0  0  0  0  0  0  0
  184.4900  178.3030  143.7240 C   0  0  0  0  0  0  0  0  0  0  0  0
  185.2040  177.2700  143.6450 O   0  0  0  0  0  1  0  0  0  0  0  0
  191.5340  173.1160  139.1810 N   0  0  0  0  0  1  0  0  0  0  0  0
  190.6120  172.8660  140.2350 C   0  0  0  0  0  0  0  0  0  0  0  0
  190.0750  171.7350  140.3420 O   0  0  0  0  0  0  0  0  0  0  0  0
  191.7520  172.7710  143.0000 C   0  0  0  0  0  2  0  0  0  0  0  0
  194.2930  172.6730  143.2650 N   0  0  0  0  0  0  0  0  0  0  0  0
  193.7740  171.3750  142.8040 C   0  0  2  0  0  3  0  0  0  0  0  0
  194.5870  170.8850  141.7980 F   0  0  0  0  0  0  0  0  0  0  0  0
  193.1270  172.5970  142.3420 C   0  0  1  0  0  3  0  0  0  0  0  0
  193.9330  172.7730  144.6800 C   0  0  0  0  0  2  0  0  0  0  0  0
  194.7850  173.8290  145.3770 C   0  0  0  0  0  2  0  0  0  0  0  0
  194.1900  177.1850  146.8900 O   0  0  0  0  0  1  0  0  0  0  0  0
  194.0120  175.1230  145.6370 C   0  0  1  0  0  0  0  0  0  0  0  0
  194.8780  176.3160  146.0380 C   0  0  1  0  0  3  0  0  0  0  0  0
  194.1960  176.2940  144.6700 C   0  0  1  0  0  3  0  0  0  0  0  0
  192.6190  175.0270  146.2430 C   0  0  0  0  0  1  0  0  0  0  0  0
  196.4560  176.7390  143.5910 C   0  0  0  0  0  3  0  0  0  0  0  0
  194.9670  175.2390  139.7410 C   0  0  0  0  0  2  0  0  0  0  0  0
  197.5210  174.8310  142.4540 C   0  0  0  0  0  2  0  0  0  0  0  0
  197.5670  176.1750  143.1140 C   0  0  0  0  0  3  0  0  0  0  0  0
  195.4610  175.3450  140.9690 C   0  0  0  0  0  0  0  0  0  0  0  0
  195.1360  176.0400  143.4640 C   0  0  2  0  0  3  0  0  0  0  0  0
  193.5590  176.5400  141.7080 O   0  0  0  0  0  0  0  0  0  0  0  0
  196.8060  174.8920  141.1830 N   0  0  0  0  0  2  0  0  0  0  0  0
  194.6400  175.9840  142.0320 C   0  0  0  0  0  0  0  0  0  0  0  0
  1  9  1  1  0  0  0
  2 22  1  1  0  0  0
  2  4  1  0  0  0  0
  2  6  1  0  0  0  0
  3  1  1  0  0  0  0
  4  8  1  6  0  0  0
  4  3  1  0  0  0  0
  5  1  1  0  0  0  0
  5  7  1  0  0  0  0
  6 24  1  0  0  0  0
  6  7  2  0  0  0  0
  9 12  1  0  0  0  0
 10 14  1  0  0  0  0
 11 12  2  0  0  0  0
 12 10  1  0  0  0  0
 13 15  1  0  0  0  0
 14 13  2  0  0  0  0
 16 15  1  0  0  0  0
 17 16  1  0  0  0  0
 18 19  2  0  0  0  0
 19 17  1  0  0  0  0
 20 19  1  0  0  0  0
 21 22  1  0  0  0  0
 22 23  2  0  0  0  0
 25 29  1  0  0  0  0
 26 27  1  6  0  0  0
 26 25  1  0  0  0  0
 28 26  1  0  0  0  0
 28 24  1  1  0  0  0
 28 25  1  0  0  0  0
 29 30  1  0  0  0  0
 30 32  1  0  0  0  0
 32 33  1  0  0  0  0
 32 35  1  1  0  0  0
 33 31  1  1  0  0  0
 34 41  1  6  0  0  0
 34 32  1  0  0  0  0
 34 33  1  0  0  0  0
 37 40  2  0  0  0  0
 38 39  1  0  0  0  0
 39 36  2  0  0  0  0
 40 43  1  0  0  0  0
 40 44  1  0  0  0  0
 41 36  1  6  0  0  0
 42 44  2  0  0  0  0
 43 38  1  0  0  0  0
 44 41  1  0  0  0  0
M  END
>  <MODEL>
7

>  <REMARK>
 VINA RESULT:      -6.4      2.933      7.761
  Name = 
  13 active torsions:
  status: ('A' for Active; 'I' for Inactive)
    1  A    between atoms: C_2  and  C_21
    2  A    between atoms: N_3  and  C_44
    3  A    between atoms: N_7  and  C_13
    4  A    between atoms: C_8  and  C_9
    5  A    between atoms: C_9  and  C_44
    6  A    between atoms: C_10  and  C_21
    7  A    between atoms: C_10  and  C_29
    8  A    between atoms: N_11  and  C_20
    9  A    between atoms: C_14  and  C_38
   10  A    between atoms: C_18  and  C_29
   11  A    between atoms: C_19  and  C_25
   12  A    between atoms: C_19  and  C_33
   13  A    between atoms: C_27  and  C_30
                            x       y       z     vdW  Elec       q    Type
                         _______ _______ _______ _____ _____    ______ ____

>  <TORSDO>
F 13

$$$$
=
 OpenBabel11062422123D

 44 47  0  0  1  0  0  0  0  0999 V2000
  190.6800  173.2450  139.9930 C   0  0  2  0  0  3  0  0  0  0  0  0
  192.9910  171.0900  139.8290 C   0  0  1  0  0  3  0  0  0  0  0  0
  190.5510  171.7600  140.3860 C   0  0  0  0  0  2  0  0  0  0  0  0
  191.4920  170.7980  139.6440 C   0  0  1  0  0  3  0  0  0  0  0  0
  192.1140  173.8020  140.0540 C   0  0  0  0  0  2  0  0  0  0  0  0
  193.3460  171.9040  141.0600 C   0  0  0  0  0  0  0  0  0  0  0  0
  192.9310  173.1750  141.1540 C   0  0  0  0  0  3  0  0  0  0  0  0
  191.1800  170.7730  138.2990 F   0  0  0  0  0  0  0  0  0  0  0  0
  189.8220  174.0320  140.8650 N   0  0  0  0  0  2  0  0  0  0  0  0
  187.8950  175.5400  141.2730 N   0  0  0  0  0  0  0  0  0  0  0  0
  188.1420  174.3730  139.2810 O   0  0  0  0  0  0  0  0  0  0  0  0
  188.5990  174.6300  140.4250 C   0  0  0  0  0  0  0  0  0  0  0  0
  187.7860  176.8390  143.2630 C   0  0  0  0  0  2  0  0  0  0  0  0
  188.3880  175.8940  142.5630 C   0  0  0  0  0  3  0  0  0  0  0  0
  188.3060  177.2110  144.6040 C   0  0  0  0  0  2  0  0  0  0  0  0
  187.4190  176.6520  145.7020 C   0  0  0  0  0  2  0  0  0  0  0  0
  185.9580  176.8900  145.3700 C   0  0  0  0  0  2  0  0  0  0  0  0
  186.1850  178.6890  147.0710 O   0  0  0  0  0  1  0  0  0  0  0  0
  185.3620  177.8360  146.3500 C   0  0  0  0  0  0  0  0  0  0  0  0
  184.1190  177.8450  146.5460 O   0  0  0  0  0  0  0  0  0  0  0  0
  193.3920  168.5890  139.9580 N   0  0  0  0  0  1  0  0  0  0  0  0
  193.8550  169.8890  139.6110 C   0  0  0  0  0  0  0  0  0  0  0  0
  195.0170  170.0390  139.1560 O   0  0  0  0  0  0  0  0  0  0  0  0
  194.0280  171.2970  142.2450 C   0  0  0  0  0  2  0  0  0  0  0  0
  193.4040  170.4940  144.5910 N   0  0  0  0  0  0  0  0  0  0  0  0
  192.5030  171.5750  144.1620 C   0  0  2  0  0  3  0  0  0  0  0  0
  191.2010  171.2480  144.4900 F   0  0  0  0  0  0  0  0  0  0  0  0
  192.9970  170.6320  143.1660 C   0  0  1  0  0  3  0  0  0  0  0  0
  194.6790  171.1350  144.9150 C   0  0  0  0  0  2  0  0  0  0  0  0
  194.4460  172.4520  145.6490 C   0  0  0  0  0  2  0  0  0  0  0  0
  196.6320  174.5070  143.4340 O   0  0  0  0  0  1  0  0  0  0  0  0
  195.5190  173.4940  145.3290 C   0  0  1  0  0  0  0  0  0  0  0  0
  195.3860  174.1490  143.9550 C   0  0  1  0  0  3  0  0  0  0  0  0
  195.1050  174.9640  145.2180 C   0  0  1  0  0  3  0  0  0  0  0  0
  196.9240  173.2820  145.8750 C   0  0  0  0  0  1  0  0  0  0  0  0
  192.8140  175.4690  144.2370 C   0  0  0  0  0  3  0  0  0  0  0  0
  191.3890  176.8530  148.1530 C   0  0  0  0  0  1  0  0  0  0  0  0
  190.8880  174.4140  145.3510 C   0  0  0  0  0  2  0  0  0  0  0  0
  191.5420  175.0730  144.1760 C   0  0  0  0  0  3  0  0  0  0  0  0
  191.7440  176.1160  147.1080 C   0  0  0  0  0  0  0  0  0  0  0  0
  193.6110  175.2710  145.4900 C   0  0  2  0  0  3  0  0  0  0  0  0
  193.9300  177.0190  147.1230 O   0  0  0  0  0  0  0  0  0  0  0  0
  190.7170  175.3540  146.4560 N   0  0  0  0  0  0  0  0  0  0  0  0
  193.1500  176.1680  146.6240 C   0  0  0  0  0  0  0  0  0  0  0  0
  1  5  1  0  0  0  0
  1  3  1  0  0  0  0
  1  9  1  1  0  0  0
  2 22  1  1  0  0  0
  2  6  1  0  0  0  0
  4  8  1  6  0  0  0
  4  2  1  0  0  0  0
  4  3  1  0  0  0  0
  5  7  1  0  0  0  0
  6  7  2  0  0  0  0
  6 24  1  0  0  0  0
 10 14  2  0  0  0  0
 11 12  2  0  0  0  0
 12  9  1  0  0  0  0
 12 10  1  0  0  0  0
 13 15  1  0  0  0  0
 14 13  1  0  0  0  0
 15 16  1  0  0  0  0
 17 16  1  0  0  0  0
 17 19  1  0  0  0  0
 19 20  2  0  0  0  0
 19 18  1  0  0  0  0
 22 21  1  0  0  0  0
 23 22  2  0  0  0  0
 25 29  1  0  0  0  0
 26 27  1  1  0  0  0
 26 25  1  0  0  0  0
 28 24  1  6  0  0  0
 28 26  1  0  0  0  0
 28 25  1  0  0  0  0
 29 30  1  0  0  0  0
 32 30  1  0  0  0  0
 32 35  1  1  0  0  0
 33 31  1  1  0  0  0
 33 34  1  0  0  0  0
 33 32  1  0  0  0  0
 34 32  1  0  0  0  0
 34 41  1  6  0  0  0
 38 43  1  0  0  0  0
 39 36  2  0  0  0  0
 39 38  1  0  0  0  0
 40 37  1  0  0  0  0
 41 36  1  6  0  0  0
 41 44  1  0  0  0  0
 43 40  2  0  0  0  0
 44 40  1  0  0  0  0
 44 42  2  0  0  0  0
M  END
>  <MODEL>
8

>  <REMARK>
 VINA RESULT:      -6.3      3.136      9.219
  Name = 
  13 active torsions:
  status: ('A' for Active; 'I' for Inactive)
    1  A    between atoms: C_2  and  C_21
    2  A    between atoms: N_3  and  C_44
    3  A    between atoms: N_7  and  C_13
    4  A    between atoms: C_8  and  C_9
    5  A    between atoms: C_9  and  C_44
    6  A    between atoms: C_10  and  C_21
    7  A    between atoms: C_10  and  C_29
    8  A    between atoms: N_11  and  C_20
    9  A    between atoms: C_14  and  C_38
   10  A    between atoms: C_18  and  C_29
   11  A    between atoms: C_19  and  C_25
   12  A    between atoms: C_19  and  C_33
   13  A    between atoms: C_27  and  C_30
                            x       y       z     vdW  Elec       q    Type
                         _______ _______ _______ _____ _____    ______ ____

>  <TORSDO>
F 13

$$$$
=
 OpenBabel11062422123D

 44 47  0  0  1  0  0  0  0  0999 V2000
  188.7270  176.8330  147.2530 C   0  0  2  0  0  3  0  0  0  0  0  0
  191.4300  175.3310  146.5860 C   0  0  1  0  0  3  0  0  0  0  0  0
  189.9000  177.4170  146.4420 C   0  0  0  0  0  2  0  0  0  0  0  0
  191.2860  176.8500  146.7860 C   0  0  1  0  0  3  0  0  0  0  0  0
  188.6510  175.2950  147.2550 C   0  0  0  0  0  2  0  0  0  0  0  0
  190.4270  174.7040  145.6340 C   0  0  0  0  0  0  0  0  0  0  0  0
  189.1260  174.6920  145.9590 C   0  0  0  0  0  3  0  0  0  0  0  0
  191.6280  177.1880  148.0800 F   0  0  0  0  0  0  0  0  0  0  0  0
  187.4840  177.3740  146.7270 N   0  0  0  0  0  2  0  0  0  0  0  0
  185.3620  178.6370  146.9650 N   0  0  0  0  0  2  0  0  0  0  0  0
  187.0550  178.7700  148.5480 O   0  0  0  0  0  0  0  0  0  0  0  0
  186.6560  178.2850  147.4570 C   0  0  0  0  0  0  0  0  0  0  0  0
  184.6100  178.8760  144.7200 C   0  0  0  0  0  3  0  0  0  0  0  0
  184.8470  178.0880  145.7540 C   0  0  0  0  0  3  0  0  0  0  0  0
  184.0660  178.3010  143.4620 C   0  0  0  0  0  2  0  0  0  0  0  0
  185.0150  178.5430  142.3020 C   0  0  0  0  0  2  0  0  0  0  0  0
  185.8770  177.3170  142.0650 C   0  0  0  0  0  2  0  0  0  0  0  0
  188.2150  177.6270  141.2790 O   0  0  0  0  0  0  0  0  0  0  0  0
  187.3040  177.6410  142.3250 C   0  0  0  0  0  0  0  0  0  0  0  0
  187.6920  177.9010  143.4940 O   0  0  0  0  0  1  0  0  0  0  0  0
  193.1470  173.5530  146.0170 N   0  0  0  0  0  1  0  0  0  0  0  0
  192.8450  174.8990  146.3650 C   0  0  0  0  0  0  0  0  0  0  0  0
  193.7760  175.7260  146.5310 O   0  0  0  0  0  0  0  0  0  0  0  0
  190.8170  174.2210  144.2730 C   0  0  0  0  0  2  0  0  0  0  0  0
  190.5880  174.9260  141.8260 N   0  0  0  0  0  0  0  0  0  0  0  0
  189.4870  174.0270  142.2060 C   0  0  2  0  0  3  0  0  0  0  0  0
  188.2960  174.5190  141.7050 F   0  0  0  0  0  0  0  0  0  0  0  0
  190.0100  174.9600  143.1970 C   0  0  1  0  0  3  0  0  0  0  0  0
  191.7750  174.0790  141.6960 C   0  0  0  0  0  2  0  0  0  0  0  0
  192.9960  174.9190  141.3340 C   0  0  0  0  0  2  0  0  0  0  0  0
  194.9240  174.9900  138.1430 O   0  0  0  0  0  1  0  0  0  0  0  0
  193.7910  174.3200  140.1730 C   0  0  1  0  0  0  0  0  0  0  0  0
  194.7670  175.2840  139.4990 C   0  0  1  0  0  3  0  0  0  0  0  0
  195.3000  174.1240  140.3410 C   0  0  1  0  0  3  0  0  0  0  0  0
  193.1200  173.2700  139.2980 C   0  0  0  0  0  1  0  0  0  0  0  0
  196.7920  175.7130  141.6510 C   0  0  0  0  0  3  0  0  0  0  0  0
  196.8340  172.9420  145.0570 C   0  0  0  0  0  1  0  0  0  0  0  0
  195.9810  176.3950  143.8740 C   0  0  0  0  0  2  0  0  0  0  0  0
  196.8380  176.5840  142.6610 C   0  0  0  0  0  3  0  0  0  0  0  0
  196.5100  173.8750  144.1710 C   0  0  0  0  0  0  0  0  0  0  0  0
  195.8880  174.5200  141.7190 C   0  0  2  0  0  3  0  0  0  0  0  0
  196.6620  172.3340  142.3840 O   0  0  0  0  0  0  0  0  0  0  0  0
  196.4050  175.2270  144.6420 N   0  0  0  0  0  0  0  0  0  0  0  0
  196.3460  173.4980  142.7410 C   0  0  0  0  0  0  0  0  0  0  0  0
  1  9  1  6  0  0  0
  1  5  1  0  0  0  0
  2 22  1  6  0  0  0
  2  4  1  0  0  0  0
  3  4  1  0  0  0  0
  3  1  1  0  0  0  0
  4  8  1  1  0  0  0
  6  7  2  0  0  0  0
  6  2  1  0  0  0  0
  7  5  1  0  0  0  0
  9 12  1  0  0  0  0
 10 12  1  0  0  0  0
 12 11  2  0  0  0  0
 13 14  2  0  0  0  0
 14 10  1  0  0  0  0
 15 13  1  0  0  0  0
 16 15  1  0  0  0  0
 17 16  1  0  0  0  0
 17 19  1  0  0  0  0
 18 19  2  0  0  0  0
 19 20  1  0  0  0  0
 21 22  1  0  0  0  0
 22 23  2  0  0  0  0
 24  6  1  0  0  0  0
 25 26  1  0  0  0  0
 25 28  1  0  0  0  0
 26 27  1  6  0  0  0
 26 28  1  0  0  0  0
 28 24  1  1  0  0  0
 29 25  1  0  0  0  0
 30 29  1  0  0  0  0
 32 35  1  6  0  0  0
 32 34  1  0  0  0  0
 32 30  1  0  0  0  0
 33 31  1  6  0  0  0
 33 32  1  0  0  0  0
 33 34  1  0  0  0  0
 34 41  1  1  0  0  0
 36 39  2  0  0  0  0
 38 43  1  0  0  0  0
 39 38  1  0  0  0  0
 40 43  2  0  0  0  0
 40 37  1  0  0  0  0
 41 36  1  6  0  0  0
 41 44  1  0  0  0  0
 42 44  2  0  0  0  0
 44 40  1  0  0  0  0
M  END
>  <MODEL>
9

>  <REMARK>
 VINA RESULT:      -6.3      2.720      6.911
  Name = 
  13 active torsions:
  status: ('A' for Active; 'I' for Inactive)
    1  A    between atoms: C_2  and  C_21
    2  A    between atoms: N_3  and  C_44
    3  A    between atoms: N_7  and  C_13
    4  A    between atoms: C_8  and  C_9
    5  A    between atoms: C_9  and  C_44
    6  A    between atoms: C_10  and  C_21
    7  A    between atoms: C_10  and  C_29
    8  A    between atoms: N_11  and  C_20
    9  A    between atoms: C_14  and  C_38
   10  A    between atoms: C_18  and  C_29
   11  A    between atoms: C_19  and  C_25
   12  A    between atoms: C_19  and  C_33
   13  A    between atoms: C_27  and  C_30
                            x       y       z     vdW  Elec       q    Type
                         _______ _______ _______ _____ _____    ______ ____

>  <TORSDO>
F 13

$$$$
