=
 OpenBabel11062419003D

 51 56  0  0  1  0  0  0  0  0999 V2000
  184.5940  177.6020  142.0870 C   0  0  2  0  0  3  0  0  0  0  0  0
  183.4690  178.0950  141.1920 C   0  0  0  0  0  1  0  0  0  0  0  0
  184.6000  178.2930  143.4270 C   0  0  0  0  0  0  0  0  0  0  0  0
  184.4330  179.5410  143.4860 O   0  0  0  0  0  0  0  0  0  0  0  0
  184.8610  177.5530  144.5910 O   0  0  0  0  0  0  0  0  0  0  0  0
  191.4930  175.2760  147.2590 C   0  0  0  0  0  1  0  0  0  0  0  0
  187.1250  177.9470  144.6410 O   0  0  0  0  0  0  0  0  0  0  0  0
  191.9100  176.6800  145.2210 C   0  0  1  0  0  3  0  0  0  0  0  0
  187.2630  176.5400  147.3640 C   0  0  0  0  0  2  0  0  0  0  0  0
  186.0980  176.5330  146.3760 C   0  0  0  0  0  2  0  0  0  0  0  0
  185.9790  177.7740  145.4610 C   0  0  2  0  0  0  0  0  0  0  0  0
  190.8610  175.8950  146.0170 C   0  0  2  0  0  3  0  0  0  0  0  0
  188.1220  178.3820  145.3900 O   0  0  0  0  0  0  0  0  0  0  0  0
  189.9360  177.6590  147.3800 O   0  0  0  0  0  1  0  0  0  0  0  0
  188.4980  175.8120  146.8350 C   0  0  2  0  0  3  0  0  0  0  0  0
  190.2620  178.3080  144.6010 O   0  0  0  0  0  0  0  0  0  0  0  0
  192.8540  175.7930  144.6940 O   0  0  0  0  0  1  0  0  0  0  0  0
  189.1910  177.5330  145.0920 C   0  0  1  0  0  3  0  0  0  0  0  0
  189.6210  176.7520  146.3570 C   0  0  2  0  0  0  0  0  0  0  0  0
  191.2090  177.4150  144.0780 C   0  0  1  0  0  3  0  0  0  0  0  0
  192.1410  178.1210  143.3200 O   0  0  0  0  0  1  0  0  0  0  0  0
  188.1820  174.8620  145.8750 F   0  0  0  0  0  0  0  0  0  0  0  0
  185.6440  179.0430  146.2880 C   0  0  0  0  0  0  0  0  0  0  0  0
  184.2870  179.0750  146.5570 F   0  0  0  0  0  0  0  0  0  0  0  0
  186.3320  179.0120  147.4900 F   0  0  0  0  0  0  0  0  0  0  0  0
  185.9900  180.2070  145.6230 F   0  0  0  0  0  0  0  0  0  0  0  0
  185.9410  177.6750  141.3520 C   0  0  0  0  0  2  0  0  0  0  0  0
  187.7630  176.2010  140.7260 N   0  0  0  0  0  0  0  0  0  0  0  0
  186.9430  176.6270  141.8320 C   0  0  1  0  0  3  0  0  0  0  0  0
  188.2110  177.0890  141.6910 O   0  0  0  0  0  0  0  0  0  0  0  0
  188.2560  174.8700  141.0680 C   0  0  1  0  0  3  0  0  0  0  0  0
  188.8340  172.8220  139.8800 N   0  0  0  0  0  0  0  0  0  0  0  0
  188.4580  174.0850  137.4320 C   0  0  0  0  0  3  0  0  0  0  0  0
  189.3260  172.8630  137.4790 C   0  0  2  0  0  3  0  0  0  0  0  0
  189.2450  172.1130  136.2920 O   0  0  0  0  0  0  0  0  0  0  0  0
  188.0760  174.6420  138.5470 N   0  0  0  0  0  0  0  0  0  0  0  0
  188.3940  174.0500  139.8230 C   0  0  0  0  0  0  0  0  0  0  0  0
  190.2990  171.1730  136.3480 C   0  0  0  0  0  2  0  0  0  0  0  0
  189.8890  170.8510  138.8150 C   0  0  0  0  0  2  0  0  0  0  0  0
  188.8960  172.0000  138.6710 C   0  0  1  0  0  3  0  0  0  0  0  0
  190.0450  170.1390  137.4600 C   0  0  0  0  0  2  0  0  0  0  0  0
  189.4800  174.9490  141.7410 O   0  0  0  0  0  0  0  0  0  0  0  0
  189.2990  174.1840  142.8970 C   0  0  0  0  0  2  0  0  0  0  0  0
  190.6180  173.5880  143.3510 C   0  0  1  0  0  3  0  0  0  0  0  0
  192.7750  172.5910  142.4460 C   0  0  1  0  0  3  0  0  0  0  0  0
  190.3860  172.1770  143.9020 C   0  0  0  0  0  2  0  0  0  0  0  0
  192.8320  172.2130  143.8010 O   0  0  0  0  0  0  0  0  0  0  0  0
  191.6350  173.5880  142.2040 C   0  0  0  0  0  2  0  0  0  0  0  0
  191.7070  171.3910  144.0230 C   0  0  0  0  0  2  0  0  0  0  0  0
  195.1950  172.5250  142.6820 N   0  0  0  0  0  1  0  0  0  0  0  0
  194.0970  173.2070  142.0220 C   0  0  0  0  0  2  0  0  0  0  0  0
  1  2  1  6  0  0  0
  1  3  1  0  0  0  0
  3  4  2  0  0  0  0
  3  5  1  0  0  0  0
  7 13  1  0  0  0  0
  7 11  1  0  0  0  0
  8 17  1  6  0  0  0
  8 12  1  0  0  0  0
 10  9  1  0  0  0  0
 11  5  1  6  0  0  0
 11 23  1  0  0  0  0
 11 10  1  0  0  0  0
 12 19  1  0  0  0  0
 12  6  1  1  0  0  0
 15 22  1  6  0  0  0
 15  9  1  0  0  0  0
 18 16  1  1  0  0  0
 18 13  1  0  0  0  0
 18 19  1  0  0  0  0
 19 15  1  0  0  0  0
 19 14  1  1  0  0  0
 20 21  1  1  0  0  0
 20 16  1  0  0  0  0
 20  8  1  0  0  0  0
 23 24  1  0  0  0  0
 23 25  1  0  0  0  0
 26 23  1  0  0  0  0
 27  1  1  0  0  0  0
 28 31  1  0  0  0  0
 28 30  1  0  0  0  0
 28 29  1  0  0  0  0
 29 27  1  6  0  0  0
 30 29  1  0  0  0  0
 31 42  1  6  0  0  0
 33 36  2  0  0  0  0
 34 33  1  6  0  0  0
 34 40  1  0  0  0  0
 35 38  1  0  0  0  0
 35 34  1  0  0  0  0
 36 37  1  0  0  0  0
 37 32  2  0  0  0  0
 37 31  1  0  0  0  0
 38 41  1  0  0  0  0
 40 39  1  1  0  0  0
 40 32  1  0  0  0  0
 41 39  1  0  0  0  0
 42 43  1  0  0  0  0
 44 43  1  6  0  0  0
 44 46  1  0  0  0  0
 45 51  1  1  0  0  0
 45 47  1  0  0  0  0
 46 49  1  0  0  0  0
 47 49  1  0  0  0  0
 48 45  1  0  0  0  0
 48 44  1  0  0  0  0
 51 50  1  0  0  0  0
M  END
>  <MODEL>
1

>  <REMARK>
 VINA RESULT:      -8.0      0.000      0.000
  Name = 
  12 active torsions:
  status: ('A' for Active; 'I' for Inactive)
    1  A    between atoms: N_2  and  C_34
    2  A    between atoms: C_3  and  C_12
    3  A    between atoms: C_3  and  C_22
    4  A    between atoms: C_4  and  C_26
    5  A    between atoms: C_7  and  C_37
    6  A    between atoms: C_12  and  C_25
    7  A    between atoms: C_17  and  C_20
    8  A    between atoms: C_17  and  O_47
    9  A    between atoms: C_22  and  O_47
   10  A    between atoms: C_26  and  O_28
   11  A    between atoms: O_28  and  C_34
   12  A    between atoms: C_32  and  C_34
                            x       y       z     vdW  Elec       q    Type
                         _______ _______ _______ _____ _____    ______ ____

>  <TORSDO>
F 12

$$$$
=
 OpenBabel11062419003D

 51 56  0  0  1  0  0  0  0  0999 V2000
  192.1850  175.7800  147.2230 C   0  0  2  0  0  3  0  0  0  0  0  0
  191.4180  176.8310  148.0110 C   0  0  0  0  0  1  0  0  0  0  0  0
  193.3030  176.3810  146.4100 C   0  0  0  0  0  0  0  0  0  0  0  0
  194.1110  177.1800  146.9560 O   0  0  0  0  0  0  0  0  0  0  0  0
  193.3960  176.1010  145.0380 O   0  0  0  0  0  0  0  0  0  0  0  0
  195.3570  168.8810  144.4810 C   0  0  0  0  0  1  0  0  0  0  0  0
  193.4260  174.2400  143.6900 O   0  0  0  0  0  0  0  0  0  0  0  0
  193.5850  169.3440  142.7650 C   0  0  1  0  0  3  0  0  0  0  0  0
  195.8490  173.2000  145.2590 C   0  0  0  0  0  2  0  0  0  0  0  0
  194.9220  174.3510  145.6430 C   0  0  0  0  0  2  0  0  0  0  0  0
  194.2470  175.0970  144.4690 C   0  0  2  0  0  0  0  0  0  0  0  0
  194.2700  169.8540  144.0390 C   0  0  2  0  0  3  0  0  0  0  0  0
  194.2010  173.4500  142.9680 O   0  0  0  0  0  0  0  0  0  0  0  0
  195.9590  171.2890  143.0830 O   0  0  0  0  0  1  0  0  0  0  0  0
  195.1520  171.8400  145.2790 C   0  0  2  0  0  3  0  0  0  0  0  0
  193.3280  171.5920  141.9700 O   0  0  0  0  0  0  0  0  0  0  0  0
  192.8730  168.1770  143.0550 O   0  0  0  0  0  1  0  0  0  0  0  0
  193.7150  172.1600  143.2010 C   0  0  1  0  0  3  0  0  0  0  0  0
  194.8040  171.2950  143.8800 C   0  0  2  0  0  0  0  0  0  0  0  0
  192.6180  170.4190  142.2650 C   0  0  1  0  0  3  0  0  0  0  0  0
  191.9620  169.9750  141.1190 O   0  0  0  0  0  1  0  0  0  0  0  0
  194.0520  171.8220  146.1230 F   0  0  0  0  0  0  0  0  0  0  0  0
  195.2980  175.8510  143.6120 C   0  0  0  0  0  0  0  0  0  0  0  0
  194.6770  176.4230  142.5170 F   0  0  0  0  0  0  0  0  0  0  0  0
  195.8790  176.8570  144.3660 F   0  0  0  0  0  0  0  0  0  0  0  0
  196.3040  175.0140  143.1630 F   0  0  0  0  0  0  0  0  0  0  0  0
  191.2220  174.9140  146.3970 C   0  0  0  0  0  2  0  0  0  0  0  0
  189.4830  174.8470  144.7070 N   0  0  0  0  0  0  0  0  0  0  0  0
  190.3980  175.7230  145.3960 C   0  0  1  0  0  3  0  0  0  0  0  0
  189.0830  175.6880  145.7340 O   0  0  0  0  0  0  0  0  0  0  0  0
  189.1700  175.4970  143.4380 C   0  0  1  0  0  3  0  0  0  0  0  0
  190.5060  174.3780  141.7350 N   0  0  0  0  0  0  0  0  0  0  0  0
  188.2380  173.1460  140.7030 C   0  0  0  0  0  3  0  0  0  0  0  0
  189.4360  173.2960  139.8130 C   0  0  2  0  0  3  0  0  0  0  0  0
  189.5520  172.2310  138.9020 O   0  0  0  0  0  0  0  0  0  0  0  0
  188.2090  173.7690  141.8480 N   0  0  0  0  0  0  0  0  0  0  0  0
  189.3460  174.5220  142.3160 C   0  0  0  0  0  0  0  0  0  0  0  0
  190.5250  172.6270  137.9570 C   0  0  0  0  0  2  0  0  0  0  0  0
  191.8840  173.6960  139.7930 C   0  0  0  0  0  2  0  0  0  0  0  0
  190.6920  173.3720  140.6890 C   0  0  1  0  0  3  0  0  0  0  0  0
  191.9160  172.7100  138.6110 C   0  0  0  0  0  2  0  0  0  0  0  0
  187.8670  176.0060  143.4460 O   0  0  0  0  0  0  0  0  0  0  0  0
  187.9750  177.2680  142.8550 C   0  0  0  0  0  2  0  0  0  0  0  0
  186.6750  178.0370  143.0050 C   0  0  1  0  0  3  0  0  0  0  0  0
  184.5760  178.1510  144.4350 C   0  0  1  0  0  3  0  0  0  0  0  0
  185.7020  177.6290  141.8930 C   0  0  0  0  0  2  0  0  0  0  0  0
  184.2090  178.9370  143.3270 O   0  0  0  0  0  0  0  0  0  0  0  0
  186.0720  177.8140  144.3960 C   0  0  0  0  0  2  0  0  0  0  0  0
  184.2610  178.0810  142.2070 C   0  0  0  0  0  2  0  0  0  0  0  0
  184.5000  178.0160  146.8620 N   0  0  0  0  0  1  0  0  0  0  0  0
  184.2450  178.8810  145.7250 C   0  0  0  0  0  2  0  0  0  0  0  0
  1  2  1  6  0  0  0
  3  4  2  0  0  0  0
  3  1  1  0  0  0  0
  5  3  1  0  0  0  0
  7 11  1  0  0  0  0
  8 17  1  1  0  0  0
  8 12  1  0  0  0  0
  9 15  1  0  0  0  0
  9 10  1  0  0  0  0
 11  5  1  1  0  0  0
 11 10  1  0  0  0  0
 12  6  1  6  0  0  0
 13 18  1  0  0  0  0
 13  7  1  0  0  0  0
 15 22  1  1  0  0  0
 16 20  1  0  0  0  0
 18 16  1  6  0  0  0
 18 19  1  0  0  0  0
 19 14  1  6  0  0  0
 19 12  1  0  0  0  0
 19 15  1  0  0  0  0
 20 21  1  6  0  0  0
 20  8  1  0  0  0  0
 23 25  1  0  0  0  0
 23 11  1  0  0  0  0
 24 23  1  0  0  0  0
 26 23  1  0  0  0  0
 27  1  1  0  0  0  0
 28 29  1  0  0  0  0
 28 30  1  0  0  0  0
 29 30  1  0  0  0  0
 29 27  1  1  0  0  0
 31 42  1  1  0  0  0
 31 28  1  0  0  0  0
 32 37  2  0  0  0  0
 33 36  2  0  0  0  0
 34 40  1  0  0  0  0
 34 33  1  1  0  0  0
 35 34  1  0  0  0  0
 36 37  1  0  0  0  0
 37 31  1  0  0  0  0
 38 41  1  0  0  0  0
 38 35  1  0  0  0  0
 40 39  1  6  0  0  0
 40 32  1  0  0  0  0
 41 39  1  0  0  0  0
 43 42  1  0  0  0  0
 44 43  1  1  0  0  0
 44 48  1  0  0  0  0
 45 51  1  1  0  0  0
 46 49  1  0  0  0  0
 46 44  1  0  0  0  0
 47 45  1  0  0  0  0
 48 45  1  0  0  0  0
 49 47  1  0  0  0  0
 51 50  1  0  0  0  0
M  END
>  <MODEL>
2

>  <REMARK>
 VINA RESULT:      -7.8      3.428      7.784
  Name = 
  12 active torsions:
  status: ('A' for Active; 'I' for Inactive)
    1  A    between atoms: N_2  and  C_34
    2  A    between atoms: C_3  and  C_12
    3  A    between atoms: C_3  and  C_22
    4  A    between atoms: C_4  and  C_26
    5  A    between atoms: C_7  and  C_37
    6  A    between atoms: C_12  and  C_25
    7  A    between atoms: C_17  and  C_20
    8  A    between atoms: C_17  and  O_47
    9  A    between atoms: C_22  and  O_47
   10  A    between atoms: C_26  and  O_28
   11  A    between atoms: O_28  and  C_34
   12  A    between atoms: C_32  and  C_34
                            x       y       z     vdW  Elec       q    Type
                         _______ _______ _______ _____ _____    ______ ____

>  <TORSDO>
F 12

$$$$
=
 OpenBabel11062419003D

 51 56  0  0  1  0  0  0  0  0999 V2000
  192.9500  175.8010  145.5430 C   0  0  2  0  0  3  0  0  0  0  0  0
  192.5520  176.3240  146.9140 C   0  0  0  0  0  1  0  0  0  0  0  0
  194.4390  175.8560  145.3210 C   0  0  0  0  0  0  0  0  0  0  0  0
  195.2210  175.5110  146.2480 O   0  0  0  0  0  0  0  0  0  0  0  0
  194.9460  176.3560  144.1120 O   0  0  0  0  0  0  0  0  0  0  0  0
  194.1440  171.2560  138.6680 C   0  0  0  0  0  1  0  0  0  0  0  0
  194.9850  175.9750  141.8450 O   0  0  0  0  0  0  0  0  0  0  0  0
  193.8090  173.5310  137.6630 C   0  0  1  0  0  3  0  0  0  0  0  0
  195.6930  173.0410  142.3980 C   0  0  0  0  0  2  0  0  0  0  0  0
  195.1920  174.0780  143.4010 C   0  0  0  0  0  2  0  0  0  0  0  0
  195.5370  175.5510  143.0830 C   0  0  2  0  0  0  0  0  0  0  0  0
  193.8760  172.7270  138.9670 C   0  0  2  0  0  3  0  0  0  0  0  0
  195.6730  175.4210  140.8620 O   0  0  0  0  0  0  0  0  0  0  0  0
  196.2010  173.0220  139.5450 O   0  0  0  0  0  1  0  0  0  0  0  0
  194.6470  172.6740  141.3460 C   0  0  2  0  0  3  0  0  0  0  0  0
  194.8300  175.4150  138.7410 O   0  0  0  0  0  0  0  0  0  0  0  0
  192.6830  173.1410  136.9330 O   0  0  0  0  0  1  0  0  0  0  0  0
  194.7070  174.8510  140.0270 C   0  0  1  0  0  3  0  0  0  0  0  0
  194.8950  173.3160  139.9670 C   0  0  2  0  0  0  0  0  0  0  0  0
  193.7010  175.0170  138.0090 C   0  0  1  0  0  3  0  0  0  0  0  0
  193.6160  175.7750  136.8430 O   0  0  0  0  0  1  0  0  0  0  0  0
  193.3520  172.8950  141.7890 F   0  0  0  0  0  0  0  0  0  0  0  0
  197.0670  175.7930  143.1650 C   0  0  0  0  0  0  0  0  0  0  0  0
  197.3120  177.1390  143.3650 F   0  0  0  0  0  0  0  0  0  0  0  0
  197.5950  175.0840  144.2300 F   0  0  0  0  0  0  0  0  0  0  0  0
  197.7220  175.3910  142.0130 F   0  0  0  0  0  0  0  0  0  0  0  0
  192.1380  176.5000  144.4420 C   0  0  0  0  0  2  0  0  0  0  0  0
  190.1670  176.4480  143.0280 N   0  0  0  0  0  0  0  0  0  0  0  0
  190.9580  175.6660  143.9460 C   0  0  1  0  0  3  0  0  0  0  0  0
  191.0520  175.4670  142.6070 O   0  0  0  0  0  0  0  0  0  0  0  0
  188.8260  175.8730  143.0480 C   0  0  1  0  0  3  0  0  0  0  0  0
  187.3600  176.7440  144.7900 N   0  0  0  0  0  0  0  0  0  0  0  0
  186.3890  178.6900  143.0590 C   0  0  0  0  0  3  0  0  0  0  0  0
  185.5500  178.3020  144.2400 C   0  0  2  0  0  3  0  0  0  0  0  0
  184.7980  179.3850  144.7290 O   0  0  0  0  0  0  0  0  0  0  0  0
  187.4370  177.9760  142.7550 N   0  0  0  0  0  0  0  0  0  0  0  0
  187.8560  176.8760  143.5890 C   0  0  0  0  0  0  0  0  0  0  0  0
  183.8590  178.8350  145.6320 C   0  0  0  0  0  2  0  0  0  0  0  0
  185.6010  177.2150  146.4690 C   0  0  0  0  0  2  0  0  0  0  0  0
  186.4710  177.7660  145.3420 C   0  0  1  0  0  3  0  0  0  0  0  0
  184.5670  178.2780  146.8790 C   0  0  0  0  0  2  0  0  0  0  0  0
  188.4410  175.4590  141.7690 O   0  0  0  0  0  0  0  0  0  0  0  0
  187.7960  174.2350  141.9710 C   0  0  0  0  0  2  0  0  0  0  0  0
  188.4760  173.1390  141.1720 C   0  0  1  0  0  3  0  0  0  0  0  0
  190.4800  171.5740  141.2340 C   0  0  1  0  0  3  0  0  0  0  0  0
  189.1920  173.7480  139.9620 C   0  0  0  0  0  2  0  0  0  0  0  0
  190.0720  171.4640  139.8910 O   0  0  0  0  0  0  0  0  0  0  0  0
  189.4400  172.3420  142.0590 C   0  0  0  0  0  2  0  0  0  0  0  0
  190.1960  172.7570  139.3400 C   0  0  0  0  0  2  0  0  0  0  0  0
  192.1050  169.8610  141.8180 N   0  0  0  0  0  1  0  0  0  0  0  0
  190.6920  170.1930  141.8280 C   0  0  0  0  0  2  0  0  0  0  0  0
  1  2  1  1  0  0  0
  3  1  1  0  0  0  0
  3  4  2  0  0  0  0
  5  3  1  0  0  0  0
  7 11  1  0  0  0  0
  8 17  1  1  0  0  0
  8 20  1  0  0  0  0
  8 12  1  0  0  0  0
  9 10  1  0  0  0  0
 11 23  1  0  0  0  0
 11 10  1  0  0  0  0
 11  5  1  1  0  0  0
 12  6  1  6  0  0  0
 12 19  1  0  0  0  0
 13  7  1  0  0  0  0
 15 22  1  1  0  0  0
 15  9  1  0  0  0  0
 18 16  1  6  0  0  0
 18 13  1  0  0  0  0
 19 14  1  6  0  0  0
 19 18  1  0  0  0  0
 19 15  1  0  0  0  0
 20 21  1  6  0  0  0
 20 16  1  0  0  0  0
 23 24  1  0  0  0  0
 23 25  1  0  0  0  0
 26 23  1  0  0  0  0
 27  1  1  0  0  0  0
 28 31  1  0  0  0  0
 28 29  1  0  0  0  0
 29 27  1  6  0  0  0
 30 28  1  0  0  0  0
 30 29  1  0  0  0  0
 31 42  1  6  0  0  0
 31 37  1  0  0  0  0
 32 40  1  0  0  0  0
 34 33  1  6  0  0  0
 34 35  1  0  0  0  0
 34 40  1  0  0  0  0
 35 38  1  0  0  0  0
 36 33  2  0  0  0  0
 36 37  1  0  0  0  0
 37 32  2  0  0  0  0
 38 41  1  0  0  0  0
 39 41  1  0  0  0  0
 40 39  1  1  0  0  0
 42 43  1  0  0  0  0
 44 43  1  1  0  0  0
 44 48  1  0  0  0  0
 45 51  1  1  0  0  0
 45 48  1  0  0  0  0
 46 44  1  0  0  0  0
 47 45  1  0  0  0  0
 49 47  1  0  0  0  0
 49 46  1  0  0  0  0
 50 51  1  0  0  0  0
M  END
>  <MODEL>
3

>  <REMARK>
 VINA RESULT:      -7.8      3.862      8.551
  Name = 
  12 active torsions:
  status: ('A' for Active; 'I' for Inactive)
    1  A    between atoms: N_2  and  C_34
    2  A    between atoms: C_3  and  C_12
    3  A    between atoms: C_3  and  C_22
    4  A    between atoms: C_4  and  C_26
    5  A    between atoms: C_7  and  C_37
    6  A    between atoms: C_12  and  C_25
    7  A    between atoms: C_17  and  C_20
    8  A    between atoms: C_17  and  O_47
    9  A    between atoms: C_22  and  O_47
   10  A    between atoms: C_26  and  O_28
   11  A    between atoms: O_28  and  C_34
   12  A    between atoms: C_32  and  C_34
                            x       y       z     vdW  Elec       q    Type
                         _______ _______ _______ _____ _____    ______ ____

>  <TORSDO>
F 12

$$$$
=
 OpenBabel11062419003D

 51 56  0  0  1  0  0  0  0  0999 V2000
  192.6360  176.3060  145.6360 C   0  0  2  0  0  3  0  0  0  0  0  0
  192.0970  176.3040  147.0580 C   0  0  0  0  0  1  0  0  0  0  0  0
  194.0990  176.6620  145.5820 C   0  0  0  0  0  0  0  0  0  0  0  0
  194.6780  177.0810  146.6210 O   0  0  0  0  0  0  0  0  0  0  0  0
  194.7900  176.5900  144.3620 O   0  0  0  0  0  0  0  0  0  0  0  0
  197.5710  169.7290  145.5780 C   0  0  0  0  0  1  0  0  0  0  0  0
  194.4930  174.3340  144.0340 O   0  0  0  0  0  0  0  0  0  0  0  0
  195.1200  169.5030  145.0880 C   0  0  1  0  0  3  0  0  0  0  0  0
  197.5270  173.9480  144.2740 C   0  0  0  0  0  2  0  0  0  0  0  0
  196.7210  175.1930  144.6360 C   0  0  0  0  0  2  0  0  0  0  0  0
  195.4090  175.4030  143.8470 C   0  0  2  0  0  0  0  0  0  0  0  0
  196.2430  170.4710  145.4760 C   0  0  2  0  0  3  0  0  0  0  0  0
  194.9280  173.2810  143.3650 O   0  0  0  0  0  0  0  0  0  0  0  0
  196.8830  171.2950  143.2990 O   0  0  0  0  0  1  0  0  0  0  0  0
  197.2230  172.7540  145.1790 C   0  0  2  0  0  3  0  0  0  0  0  0
  194.0550  171.2160  143.7900 O   0  0  0  0  0  0  0  0  0  0  0  0
  194.9030  168.5990  146.1310 O   0  0  0  0  0  1  0  0  0  0  0  0
  194.8960  172.2320  144.2880 C   0  0  1  0  0  3  0  0  0  0  0  0
  196.3250  171.6870  144.5260 C   0  0  2  0  0  0  0  0  0  0  0  0
  193.8440  170.3080  144.8390 C   0  0  1  0  0  3  0  0  0  0  0  0
  192.7960  169.4520  144.5050 O   0  0  0  0  0  1  0  0  0  0  0  0
  196.7380  173.1420  146.4200 F   0  0  0  0  0  0  0  0  0  0  0  0
  195.7010  175.6800  142.3480 C   0  0  0  0  0  0  0  0  0  0  0  0
  194.5090  175.7450  141.6500 F   0  0  0  0  0  0  0  0  0  0  0  0
  196.3560  176.8930  142.2170 F   0  0  0  0  0  0  0  0  0  0  0  0
  196.4940  174.6980  141.7800 F   0  0  0  0  0  0  0  0  0  0  0  0
  191.7570  177.1770  144.7270 C   0  0  0  0  0  2  0  0  0  0  0  0
  190.0850  177.2110  142.9690 N   0  0  0  0  0  0  0  0  0  0  0  0
  190.6960  176.3770  143.9740 C   0  0  1  0  0  3  0  0  0  0  0  0
  191.0400  176.2530  142.6670 O   0  0  0  0  0  0  0  0  0  0  0  0
  188.7670  176.6400  142.7060 C   0  0  1  0  0  3  0  0  0  0  0  0
  187.4370  177.3040  144.6370 N   0  0  0  0  0  0  0  0  0  0  0  0
  185.8720  178.9600  143.0440 C   0  0  0  0  0  3  0  0  0  0  0  0
  185.3050  178.4770  144.3460 C   0  0  2  0  0  3  0  0  0  0  0  0
  184.4420  179.4250  144.9270 O   0  0  0  0  0  0  0  0  0  0  0  0
  186.9790  178.4370  142.5960 N   0  0  0  0  0  0  0  0  0  0  0  0
  187.7170  177.4720  143.3730 C   0  0  0  0  0  0  0  0  0  0  0  0
  183.7670  178.7520  145.9710 C   0  0  0  0  0  2  0  0  0  0  0  0
  185.8880  177.5190  146.5580 C   0  0  0  0  0  2  0  0  0  0  0  0
  186.4620  178.1690  145.3030 C   0  0  1  0  0  3  0  0  0  0  0  0
  184.7440  178.3910  147.1050 C   0  0  0  0  0  2  0  0  0  0  0  0
  188.5260  176.5550  141.3310 O   0  0  0  0  0  0  0  0  0  0  0  0
  187.9660  175.2870  141.1480 C   0  0  0  0  0  2  0  0  0  0  0  0
  189.0520  174.2570  140.9010 C   0  0  1  0  0  3  0  0  0  0  0  0
  189.7360  172.4280  139.2710 C   0  0  1  0  0  3  0  0  0  0  0  0
  188.8990  173.0960  141.8900 C   0  0  0  0  0  2  0  0  0  0  0  0
  190.5750  172.1610  140.3690 O   0  0  0  0  0  0  0  0  0  0  0  0
  189.0160  173.7720  139.4470 C   0  0  0  0  0  2  0  0  0  0  0  0
  189.7190  171.8660  141.4510 C   0  0  0  0  0  2  0  0  0  0  0  0
  191.3150  173.6700  137.9000 N   0  0  0  0  0  1  0  0  0  0  0  0
  190.5460  172.4420  137.9870 C   0  0  0  0  0  2  0  0  0  0  0  0
  1  2  1  1  0  0  0
  3  1  1  0  0  0  0
  3  4  2  0  0  0  0
  5  3  1  0  0  0  0
  8 12  1  0  0  0  0
  8 17  1  1  0  0  0
  9 10  1  0  0  0  0
  9 15  1  0  0  0  0
 11  7  1  0  0  0  0
 11  5  1  1  0  0  0
 11 10  1  0  0  0  0
 12  6  1  6  0  0  0
 13  7  1  0  0  0  0
 15 22  1  1  0  0  0
 16 18  1  0  0  0  0
 16 20  1  0  0  0  0
 18 13  1  6  0  0  0
 18 19  1  0  0  0  0
 19 14  1  6  0  0  0
 19 15  1  0  0  0  0
 19 12  1  0  0  0  0
 20 21  1  6  0  0  0
 20  8  1  0  0  0  0
 23 11  1  0  0  0  0
 24 23  1  0  0  0  0
 25 23  1  0  0  0  0
 26 23  1  0  0  0  0
 27  1  1  0  0  0  0
 28 29  1  0  0  0  0
 29 27  1  1  0  0  0
 30 28  1  0  0  0  0
 30 29  1  0  0  0  0
 31 42  1  6  0  0  0
 31 28  1  0  0  0  0
 31 37  1  0  0  0  0
 32 40  1  0  0  0  0
 34 33  1  6  0  0  0
 34 35  1  0  0  0  0
 34 40  1  0  0  0  0
 35 38  1  0  0  0  0
 36 33  2  0  0  0  0
 36 37  1  0  0  0  0
 37 32  2  0  0  0  0
 38 41  1  0  0  0  0
 39 41  1  0  0  0  0
 40 39  1  1  0  0  0
 43 42  1  0  0  0  0
 44 43  1  6  0  0  0
 44 46  1  0  0  0  0
 45 51  1  6  0  0  0
 45 48  1  0  0  0  0
 45 47  1  0  0  0  0
 47 49  1  0  0  0  0
 48 44  1  0  0  0  0
 49 46  1  0  0  0  0
 50 51  1  0  0  0  0
M  END
>  <MODEL>
4

>  <REMARK>
 VINA RESULT:      -7.7      3.725      8.456
  Name = 
  12 active torsions:
  status: ('A' for Active; 'I' for Inactive)
    1  A    between atoms: N_2  and  C_34
    2  A    between atoms: C_3  and  C_12
    3  A    between atoms: C_3  and  C_22
    4  A    between atoms: C_4  and  C_26
    5  A    between atoms: C_7  and  C_37
    6  A    between atoms: C_12  and  C_25
    7  A    between atoms: C_17  and  C_20
    8  A    between atoms: C_17  and  O_47
    9  A    between atoms: C_22  and  O_47
   10  A    between atoms: C_26  and  O_28
   11  A    between atoms: O_28  and  C_34
   12  A    between atoms: C_32  and  C_34
                            x       y       z     vdW  Elec       q    Type
                         _______ _______ _______ _____ _____    ______ ____

>  <TORSDO>
F 12

$$$$
=
 OpenBabel11062419003D

 51 56  0  0  1  0  0  0  0  0999 V2000
  190.0090  173.6150  139.5130 C   0  0  2  0  0  3  0  0  0  0  0  0
  190.8460  173.0990  138.3540 C   0  0  0  0  0  1  0  0  0  0  0  0
  189.8690  172.5950  140.6130 C   0  0  0  0  0  0  0  0  0  0  0  0
  189.3880  171.4590  140.3530 O   0  0  0  0  0  0  0  0  0  0  0  0
  190.2100  172.9390  141.9310 O   0  0  0  0  0  0  0  0  0  0  0  0
  197.5390  174.4940  142.3150 C   0  0  0  0  0  1  0  0  0  0  0  0
  191.8860  173.8940  143.1800 O   0  0  0  0  0  0  0  0  0  0  0  0
  196.3280  176.0460  143.8710 C   0  0  1  0  0  3  0  0  0  0  0  0
  193.9050  172.0380  141.8050 C   0  0  0  0  0  2  0  0  0  0  0  0
  192.4590  172.3030  141.3910 C   0  0  0  0  0  2  0  0  0  0  0  0
  191.4900  172.6960  142.5290 C   0  0  2  0  0  0  0  0  0  0  0  0
  196.1810  175.0710  142.6980 C   0  0  2  0  0  3  0  0  0  0  0  0
  192.9410  173.6380  143.9340 O   0  0  0  0  0  0  0  0  0  0  0  0
  195.6620  173.0340  143.8840 O   0  0  0  0  0  1  0  0  0  0  0  0
  194.8050  173.2640  141.6490 C   0  0  2  0  0  3  0  0  0  0  0  0
  194.2070  175.3540  144.7490 O   0  0  0  0  0  0  0  0  0  0  0  0
  197.0490  177.1690  143.4560 O   0  0  0  0  0  1  0  0  0  0  0  0
  193.8730  174.6220  143.5910 C   0  0  1  0  0  3  0  0  0  0  0  0
  195.1360  173.9690  142.9790 C   0  0  2  0  0  0  0  0  0  0  0  0
  194.9340  176.4770  144.3280 C   0  0  1  0  0  3  0  0  0  0  0  0
  195.0350  177.3840  145.3820 O   0  0  0  0  0  1  0  0  0  0  0  0
  194.3250  174.1560  140.7020 F   0  0  0  0  0  0  0  0  0  0  0  0
  191.2910  171.5190  143.5200 C   0  0  0  0  0  0  0  0  0  0  0  0
  190.2040  171.7800  144.3350 F   0  0  0  0  0  0  0  0  0  0  0  0
  191.0450  170.3530  142.8160 F   0  0  0  0  0  0  0  0  0  0  0  0
  192.4030  171.3140  144.3180 F   0  0  0  0  0  0  0  0  0  0  0  0
  188.6660  174.1620  139.0080 C   0  0  0  0  0  2  0  0  0  0  0  0
  188.4470  175.7840  140.7990 N   0  0  0  0  0  0  0  0  0  0  0  0
  187.7770  174.6980  140.1290 C   0  0  1  0  0  3  0  0  0  0  0  0
  187.4300  175.9860  139.8800 O   0  0  0  0  0  0  0  0  0  0  0  0
  187.8720  175.8580  142.1390 C   0  0  1  0  0  3  0  0  0  0  0  0
  188.8880  175.3190  144.2870 N   0  0  0  0  0  0  0  0  0  0  0  0
  190.9170  177.1660  143.8390 C   0  0  0  0  0  3  0  0  0  0  0  0
  190.6170  176.7640  145.2530 C   0  0  2  0  0  3  0  0  0  0  0  0
  191.7700  176.7700  146.0580 O   0  0  0  0  0  0  0  0  0  0  0  0
  190.1010  176.8110  142.8860 N   0  0  0  0  0  0  0  0  0  0  0  0
  188.9680  175.9600  143.1520 C   0  0  0  0  0  0  0  0  0  0  0  0
  191.3180  176.6590  147.3920 C   0  0  0  0  0  2  0  0  0  0  0  0
  189.5360  175.0320  146.6600 C   0  0  0  0  0  2  0  0  0  0  0  0
  189.9940  175.3630  145.2430 C   0  0  1  0  0  3  0  0  0  0  0  0
  190.6960  175.2730  147.6410 C   0  0  0  0  0  2  0  0  0  0  0  0
  187.0000  176.9470  142.2470 O   0  0  0  0  0  0  0  0  0  0  0  0
  185.9950  176.5110  143.1160 C   0  0  0  0  0  2  0  0  0  0  0  0
  185.7960  177.5090  144.2410 C   0  0  1  0  0  3  0  0  0  0  0  0
  185.1450  177.6490  146.6950 C   0  0  1  0  0  3  0  0  0  0  0  0
  184.4940  178.2870  144.0180 C   0  0  0  0  0  2  0  0  0  0  0  0
  185.0440  178.9940  146.2970 O   0  0  0  0  0  0  0  0  0  0  0  0
  185.8070  176.8020  145.6010 C   0  0  0  0  0  2  0  0  0  0  0  0
  184.0520  179.0300  145.2950 C   0  0  0  0  0  2  0  0  0  0  0  0
  186.6910  178.7710  148.2010 N   0  0  0  0  0  1  0  0  0  0  0  0
  185.9460  177.5450  147.9810 C   0  0  0  0  0  2  0  0  0  0  0  0
  1  2  1  6  0  0  0
  1  3  1  0  0  0  0
  3  5  1  0  0  0  0
  4  3  2  0  0  0  0
  7 13  1  0  0  0  0
  8 17  1  6  0  0  0
  8 20  1  0  0  0  0
 10  9  1  0  0  0  0
 10 11  1  0  0  0  0
 11  5  1  6  0  0  0
 11  7  1  0  0  0  0
 11 23  1  0  0  0  0
 12  6  1  1  0  0  0
 12 19  1  0  0  0  0
 12  8  1  0  0  0  0
 15 22  1  6  0  0  0
 15  9  1  0  0  0  0
 15 19  1  0  0  0  0
 18 13  1  1  0  0  0
 18 16  1  0  0  0  0
 19 18  1  0  0  0  0
 19 14  1  1  0  0  0
 20 16  1  0  0  0  0
 20 21  1  1  0  0  0
 23 26  1  0  0  0  0
 23 24  1  0  0  0  0
 25 23  1  0  0  0  0
 27  1  1  0  0  0  0
 28 31  1  0  0  0  0
 29 27  1  6  0  0  0
 29 28  1  0  0  0  0
 30 29  1  0  0  0  0
 30 28  1  0  0  0  0
 31 42  1  6  0  0  0
 31 37  1  0  0  0  0
 32 40  1  0  0  0  0
 34 33  1  6  0  0  0
 34 35  1  0  0  0  0
 35 38  1  0  0  0  0
 36 37  1  0  0  0  0
 36 33  2  0  0  0  0
 37 32  2  0  0  0  0
 38 41  1  0  0  0  0
 39 41  1  0  0  0  0
 40 34  1  0  0  0  0
 40 39  1  1  0  0  0
 42 43  1  0  0  0  0
 44 43  1  6  0  0  0
 44 48  1  0  0  0  0
 45 51  1  1  0  0  0
 46 44  1  0  0  0  0
 46 49  1  0  0  0  0
 47 45  1  0  0  0  0
 48 45  1  0  0  0  0
 49 47  1  0  0  0  0
 51 50  1  0  0  0  0
M  END
>  <MODEL>
5

>  <REMARK>
 VINA RESULT:      -7.6      3.140      7.902
  Name = 
  12 active torsions:
  status: ('A' for Active; 'I' for Inactive)
    1  A    between atoms: N_2  and  C_34
    2  A    between atoms: C_3  and  C_12
    3  A    between atoms: C_3  and  C_22
    4  A    between atoms: C_4  and  C_26
    5  A    between atoms: C_7  and  C_37
    6  A    between atoms: C_12  and  C_25
    7  A    between atoms: C_17  and  C_20
    8  A    between atoms: C_17  and  O_47
    9  A    between atoms: C_22  and  O_47
   10  A    between atoms: C_26  and  O_28
   11  A    between atoms: O_28  and  C_34
   12  A    between atoms: C_32  and  C_34
                            x       y       z     vdW  Elec       q    Type
                         _______ _______ _______ _____ _____    ______ ____

>  <TORSDO>
F 12

$$$$
=
 OpenBabel11062419003D

 51 56  0  0  1  0  0  0  0  0999 V2000
  194.5880  175.7170  146.2460 C   0  0  2  0  0  3  0  0  0  0  0  0
  194.6030  177.1240  145.6690 C   0  0  0  0  0  1  0  0  0  0  0  0
  195.3270  174.7360  145.3720 C   0  0  0  0  0  0  0  0  0  0  0  0
  195.6390  173.6040  145.8310 O   0  0  0  0  0  0  0  0  0  0  0  0
  195.7210  175.1130  144.0790 O   0  0  0  0  0  0  0  0  0  0  0  0
  192.9100  169.5440  139.9130 C   0  0  0  0  0  1  0  0  0  0  0  0
  193.8120  174.1450  143.2410 O   0  0  0  0  0  0  0  0  0  0  0  0
  191.0870  170.3920  141.4160 C   0  0  1  0  0  3  0  0  0  0  0  0
  195.4660  172.9990  140.9250 C   0  0  0  0  0  2  0  0  0  0  0  0
  195.9900  173.6270  142.2150 C   0  0  0  0  0  2  0  0  0  0  0  0
  195.0740  174.6830  142.8740 C   0  0  2  0  0  0  0  0  0  0  0  0
  192.5980  170.3720  141.1540 C   0  0  2  0  0  3  0  0  0  0  0  0
  193.0970  173.9570  142.1460 O   0  0  0  0  0  0  0  0  0  0  0  0
  192.8430  172.3920  139.8540 O   0  0  0  0  0  1  0  0  0  0  0  0
  194.7310  171.6790  141.1590 C   0  0  2  0  0  3  0  0  0  0  0  0
  191.2270  172.6490  142.2140 O   0  0  0  0  0  0  0  0  0  0  0  0
  190.6600  169.1100  141.7700 O   0  0  0  0  0  1  0  0  0  0  0  0
  192.6370  172.6400  142.2420 C   0  0  1  0  0  3  0  0  0  0  0  0
  193.1970  171.7940  141.0730 C   0  0  2  0  0  0  0  0  0  0  0  0
  190.8020  171.3590  142.5660 C   0  0  1  0  0  3  0  0  0  0  0  0
  189.4370  171.3820  142.8440 O   0  0  0  0  0  1  0  0  0  0  0  0
  195.1330  171.0500  142.3280 F   0  0  0  0  0  0  0  0  0  0  0  0
  194.9440  175.9430  141.9770 C   0  0  0  0  0  0  0  0  0  0  0  0
  193.8300  176.6690  142.3580 F   0  0  0  0  0  0  0  0  0  0  0  0
  196.0650  176.7410  142.1280 F   0  0  0  0  0  0  0  0  0  0  0  0
  194.8230  175.6190  140.6360 F   0  0  0  0  0  0  0  0  0  0  0  0
  193.1530  175.2840  146.5790 C   0  0  0  0  0  2  0  0  0  0  0  0
  190.8200  175.9420  146.4850 N   0  0  0  0  0  0  0  0  0  0  0  0
  192.1650  176.4490  146.5980 C   0  0  1  0  0  3  0  0  0  0  0  0
  191.3610  176.3660  147.6890 O   0  0  0  0  0  0  0  0  0  0  0  0
  190.0150  177.0310  145.9390 C   0  0  1  0  0  3  0  0  0  0  0  0
  189.1550  177.6380  143.7420 N   0  0  0  0  0  0  0  0  0  0  0  0
  189.1160  174.9670  142.9720 C   0  0  0  0  0  3  0  0  0  0  0  0
  188.2280  175.9320  142.2440 C   0  0  2  0  0  3  0  0  0  0  0  0
  188.0620  175.5780  140.8930 O   0  0  0  0  0  0  0  0  0  0  0  0
  189.7180  175.3490  144.0640 N   0  0  0  0  0  0  0  0  0  0  0  0
  189.6210  176.7090  144.5320 C   0  0  0  0  0  0  0  0  0  0  0  0
  187.0040  176.3780  140.4050 C   0  0  0  0  0  2  0  0  0  0  0  0
  187.8500  178.3330  141.7540 C   0  0  0  0  0  2  0  0  0  0  0  0
  188.8400  177.3340  142.3450 C   0  0  1  0  0  3  0  0  0  0  0  0
  187.4210  177.8590  140.3550 C   0  0  0  0  0  2  0  0  0  0  0  0
  188.8810  177.2570  146.7270 O   0  0  0  0  0  0  0  0  0  0  0  0
  187.9480  176.3140  146.2850 C   0  0  0  0  0  2  0  0  0  0  0  0
  186.5420  176.8760  146.3760 C   0  0  1  0  0  3  0  0  0  0  0  0
  185.0070  178.5990  145.3070 C   0  0  1  0  0  3  0  0  0  0  0  0
  186.4220  177.7730  147.6130 C   0  0  0  0  0  2  0  0  0  0  0  0
  184.3090  178.2890  146.4890 O   0  0  0  0  0  0  0  0  0  0  0  0
  186.1760  177.6300  145.0920 C   0  0  0  0  0  2  0  0  0  0  0  0
  185.1600  178.6570  147.5520 C   0  0  0  0  0  2  0  0  0  0  0  0
  184.6640  177.7620  143.0500 N   0  0  0  0  0  1  0  0  0  0  0  0
  184.0670  178.5440  144.1160 C   0  0  0  0  0  2  0  0  0  0  0  0
  1  2  1  6  0  0  0
  1 27  1  0  0  0  0
  3  4  2  0  0  0  0
  3  1  1  0  0  0  0
  5  3  1  0  0  0  0
  8 17  1  1  0  0  0
  8 20  1  0  0  0  0
  9 15  1  0  0  0  0
  9 10  1  0  0  0  0
 10 11  1  0  0  0  0
 11  7  1  0  0  0  0
 11  5  1  1  0  0  0
 12  6  1  6  0  0  0
 12  8  1  0  0  0  0
 13  7  1  0  0  0  0
 15 22  1  1  0  0  0
 16 18  1  0  0  0  0
 16 20  1  0  0  0  0
 18 13  1  6  0  0  0
 19 14  1  6  0  0  0
 19 12  1  0  0  0  0
 19 15  1  0  0  0  0
 19 18  1  0  0  0  0
 20 21  1  6  0  0  0
 23 25  1  0  0  0  0
 23 24  1  0  0  0  0
 23 11  1  0  0  0  0
 26 23  1  0  0  0  0
 28 29  1  0  0  0  0
 28 30  1  0  0  0  0
 29 27  1  1  0  0  0
 29 30  1  0  0  0  0
 31 28  1  0  0  0  0
 31 42  1  1  0  0  0
 32 37  2  0  0  0  0
 33 36  2  0  0  0  0
 34 40  1  0  0  0  0
 34 33  1  6  0  0  0
 35 34  1  0  0  0  0
 36 37  1  0  0  0  0
 37 31  1  0  0  0  0
 38 35  1  0  0  0  0
 40 39  1  1  0  0  0
 40 32  1  0  0  0  0
 41 38  1  0  0  0  0
 41 39  1  0  0  0  0
 43 42  1  0  0  0  0
 44 43  1  6  0  0  0
 44 46  1  0  0  0  0
 45 51  1  6  0  0  0
 45 47  1  0  0  0  0
 47 49  1  0  0  0  0
 48 45  1  0  0  0  0
 48 44  1  0  0  0  0
 49 46  1  0  0  0  0
 50 51  1  0  0  0  0
M  END
>  <MODEL>
6

>  <REMARK>
 VINA RESULT:      -7.5      3.719      8.727
  Name = 
  12 active torsions:
  status: ('A' for Active; 'I' for Inactive)
    1  A    between atoms: N_2  and  C_34
    2  A    between atoms: C_3  and  C_12
    3  A    between atoms: C_3  and  C_22
    4  A    between atoms: C_4  and  C_26
    5  A    between atoms: C_7  and  C_37
    6  A    between atoms: C_12  and  C_25
    7  A    between atoms: C_17  and  C_20
    8  A    between atoms: C_17  and  O_47
    9  A    between atoms: C_22  and  O_47
   10  A    between atoms: C_26  and  O_28
   11  A    between atoms: O_28  and  C_34
   12  A    between atoms: C_32  and  C_34
                            x       y       z     vdW  Elec       q    Type
                         _______ _______ _______ _____ _____    ______ ____

>  <TORSDO>
F 12

$$$$
=
 OpenBabel11062419003D

 51 56  0  0  1  0  0  0  0  0999 V2000
  191.8950  174.5940  145.9640 C   0  0  2  0  0  3  0  0  0  0  0  0
  192.1600  175.2690  147.3000 C   0  0  0  0  0  1  0  0  0  0  0  0
  193.0930  173.8280  145.4640 C   0  0  0  0  0  0  0  0  0  0  0  0
  192.9520  172.6420  145.0610 O   0  0  0  0  0  0  0  0  0  0  0  0
  194.3670  174.4160  145.5150 O   0  0  0  0  0  0  0  0  0  0  0  0
  197.9010  174.3770  138.8980 C   0  0  0  0  0  1  0  0  0  0  0  0
  194.2020  174.8850  143.2710 O   0  0  0  0  0  0  0  0  0  0  0  0
  195.4290  174.4110  138.4640 C   0  0  1  0  0  3  0  0  0  0  0  0
  197.2450  175.2620  143.1740 C   0  0  0  0  0  2  0  0  0  0  0  0
  196.4250  174.6420  144.3020 C   0  0  0  0  0  2  0  0  0  0  0  0
  194.9690  175.1450  144.4370 C   0  0  2  0  0  0  0  0  0  0  0  0
  196.5220  174.1570  139.5080 C   0  0  2  0  0  3  0  0  0  0  0  0
  194.5830  175.7170  142.3180 O   0  0  0  0  0  0  0  0  0  0  0  0
  196.6470  176.3320  140.5480 O   0  0  0  0  0  1  0  0  0  0  0  0
  197.2270  174.4270  141.8940 C   0  0  2  0  0  3  0  0  0  0  0  0
  193.9880  175.3220  140.1500 O   0  0  0  0  0  0  0  0  0  0  0  0
  195.5000  173.4320  137.4690 O   0  0  0  0  0  1  0  0  0  0  0  0
  194.8220  174.9030  141.2070 C   0  0  1  0  0  3  0  0  0  0  0  0
  196.3110  174.9920  140.7920 C   0  0  2  0  0  0  0  0  0  0  0  0
  194.0660  174.3390  139.1520 C   0  0  1  0  0  3  0  0  0  0  0  0
  193.0480  174.5430  138.2220 O   0  0  0  0  0  1  0  0  0  0  0  0
  196.9670  173.0870  142.1400 F   0  0  0  0  0  0  0  0  0  0  0  0
  194.9350  176.6400  144.8490 C   0  0  0  0  0  0  0  0  0  0  0  0
  194.9820  176.7410  146.2280 F   0  0  0  0  0  0  0  0  0  0  0  0
  196.0340  177.2950  144.3210 F   0  0  0  0  0  0  0  0  0  0  0  0
  193.7940  177.2810  144.3980 F   0  0  0  0  0  0  0  0  0  0  0  0
  191.3450  175.6050  144.9470 C   0  0  0  0  0  2  0  0  0  0  0  0
  189.9410  175.9380  142.9970 N   0  0  0  0  0  0  0  0  0  0  0  0
  190.2130  175.0400  144.0910 C   0  0  1  0  0  3  0  0  0  0  0  0
  190.6620  174.7640  142.8400 O   0  0  0  0  0  0  0  0  0  0  0  0
  188.5630  175.6840  142.5890 C   0  0  1  0  0  3  0  0  0  0  0  0
  187.1810  176.6850  144.3280 N   0  0  0  0  0  0  0  0  0  0  0  0
  186.3340  178.6690  142.5750 C   0  0  0  0  0  3  0  0  0  0  0  0
  185.4810  178.3610  143.7690 C   0  0  2  0  0  3  0  0  0  0  0  0
  184.8140  179.5020  144.2480 O   0  0  0  0  0  0  0  0  0  0  0  0
  187.3250  177.8760  142.2740 N   0  0  0  0  0  0  0  0  0  0  0  0
  187.6730  176.7630  143.1220 C   0  0  0  0  0  0  0  0  0  0  0  0
  183.8470  179.0360  145.1670 C   0  0  0  0  0  2  0  0  0  0  0  0
  185.4770  177.3080  146.0150 C   0  0  0  0  0  2  0  0  0  0  0  0
  186.3730  177.7770  144.8720 C   0  0  1  0  0  3  0  0  0  0  0  0
  184.5260  178.4480  146.4170 C   0  0  0  0  0  2  0  0  0  0  0  0
  188.4610  175.6070  141.1960 O   0  0  0  0  0  0  0  0  0  0  0  0
  188.1850  174.2620  140.9340 C   0  0  0  0  0  2  0  0  0  0  0  0
  189.1350  173.7200  139.8820 C   0  0  1  0  0  3  0  0  0  0  0  0
  189.2060  172.9640  137.4550 C   0  0  1  0  0  3  0  0  0  0  0  0
  189.4540  172.2510  140.1810 C   0  0  0  0  0  2  0  0  0  0  0  0
  190.4280  172.4670  137.9450 O   0  0  0  0  0  0  0  0  0  0  0  0
  188.5450  173.8970  138.4780 C   0  0  0  0  0  2  0  0  0  0  0  0
  190.0940  171.5510  138.9650 C   0  0  0  0  0  2  0  0  0  0  0  0
  188.6590  174.9360  136.1410 N   0  0  0  0  0  1  0  0  0  0  0  0
  189.4310  173.7070  136.1500 C   0  0  0  0  0  2  0  0  0  0  0  0
  1  2  1  1  0  0  0
  3  5  1  0  0  0  0
  3  1  1  0  0  0  0
  4  3  2  0  0  0  0
  7 11  1  0  0  0  0
  8 17  1  6  0  0  0
  8 20  1  0  0  0  0
  8 12  1  0  0  0  0
  9 10  1  0  0  0  0
 10 11  1  0  0  0  0
 11 23  1  0  0  0  0
 11  5  1  1  0  0  0
 12  6  1  6  0  0  0
 12 19  1  0  0  0  0
 13  7  1  0  0  0  0
 15 22  1  1  0  0  0
 15  9  1  0  0  0  0
 18 16  1  6  0  0  0
 18 13  1  0  0  0  0
 19 14  1  6  0  0  0
 19 18  1  0  0  0  0
 19 15  1  0  0  0  0
 20 21  1  6  0  0  0
 20 16  1  0  0  0  0
 23 24  1  0  0  0  0
 25 23  1  0  0  0  0
 26 23  1  0  0  0  0
 27  1  1  0  0  0  0
 28 29  1  0  0  0  0
 29 27  1  1  0  0  0
 30 28  1  0  0  0  0
 30 29  1  0  0  0  0
 31 42  1  6  0  0  0
 31 28  1  0  0  0  0
 31 37  1  0  0  0  0
 32 40  1  0  0  0  0
 34 33  1  6  0  0  0
 34 35  1  0  0  0  0
 34 40  1  0  0  0  0
 35 38  1  0  0  0  0
 36 33  2  0  0  0  0
 36 37  1  0  0  0  0
 37 32  2  0  0  0  0
 38 41  1  0  0  0  0
 39 41  1  0  0  0  0
 40 39  1  1  0  0  0
 43 42  1  0  0  0  0
 44 46  1  0  0  0  0
 44 43  1  1  0  0  0
 45 51  1  6  0  0  0
 45 47  1  0  0  0  0
 45 48  1  0  0  0  0
 47 49  1  0  0  0  0
 48 44  1  0  0  0  0
 49 46  1  0  0  0  0
 50 51  1  0  0  0  0
M  END
>  <MODEL>
7

>  <REMARK>
 VINA RESULT:      -7.5      3.465      8.316
  Name = 
  12 active torsions:
  status: ('A' for Active; 'I' for Inactive)
    1  A    between atoms: N_2  and  C_34
    2  A    between atoms: C_3  and  C_12
    3  A    between atoms: C_3  and  C_22
    4  A    between atoms: C_4  and  C_26
    5  A    between atoms: C_7  and  C_37
    6  A    between atoms: C_12  and  C_25
    7  A    between atoms: C_17  and  C_20
    8  A    between atoms: C_17  and  O_47
    9  A    between atoms: C_22  and  O_47
   10  A    between atoms: C_26  and  O_28
   11  A    between atoms: O_28  and  C_34
   12  A    between atoms: C_32  and  C_34
                            x       y       z     vdW  Elec       q    Type
                         _______ _______ _______ _____ _____    ______ ____

>  <TORSDO>
F 12

$$$$
=
 OpenBabel11062419003D

 51 56  0  0  1  0  0  0  0  0999 V2000
  194.1810  175.9430  145.3380 C   0  0  2  0  0  3  0  0  0  0  0  0
  193.3960  176.1680  144.0550 C   0  0  0  0  0  1  0  0  0  0  0  0
  195.2810  174.9300  145.1620 C   0  0  0  0  0  0  0  0  0  0  0  0
  196.2620  175.1960  144.4160 O   0  0  0  0  0  0  0  0  0  0  0  0
  195.1750  173.6710  145.7760 O   0  0  0  0  0  0  0  0  0  0  0  0
  191.5450  168.4580  141.7850 C   0  0  0  0  0  1  0  0  0  0  0  0
  194.9200  172.6970  143.7100 O   0  0  0  0  0  0  0  0  0  0  0  0
  192.4600  170.1660  140.1900 C   0  0  1  0  0  3  0  0  0  0  0  0
  193.9460  170.1350  145.0900 C   0  0  0  0  0  2  0  0  0  0  0  0
  194.1220  171.5160  145.7180 C   0  0  0  0  0  2  0  0  0  0  0  0
  195.1980  172.4210  145.0750 C   0  0  2  0  0  0  0  0  0  0  0  0
  192.1270  169.8610  141.6550 C   0  0  2  0  0  3  0  0  0  0  0  0
  195.1630  171.6100  142.9990 O   0  0  0  0  0  0  0  0  0  0  0  0
  194.2600  169.0350  142.4270 O   0  0  0  0  0  1  0  0  0  0  0  0
  192.8310  170.0930  144.0450 C   0  0  2  0  0  3  0  0  0  0  0  0
  194.3760  171.4410  140.8630 O   0  0  0  0  0  0  0  0  0  0  0  0
  191.2780  170.2390  139.4490 O   0  0  0  0  0  1  0  0  0  0  0  0
  194.0140  171.4240  142.2250 C   0  0  1  0  0  3  0  0  0  0  0  0
  193.3370  170.0800  142.5900 C   0  0  2  0  0  0  0  0  0  0  0  0
  193.1870  171.5100  140.1230 C   0  0  1  0  0  3  0  0  0  0  0  0
  193.4840  171.8270  138.7990 O   0  0  0  0  0  1  0  0  0  0  0  0
  191.8780  171.0800  144.2470 F   0  0  0  0  0  0  0  0  0  0  0  0
  196.6170  171.8300  145.2840 C   0  0  0  0  0  0  0  0  0  0  0  0
  197.4120  172.1400  144.1960 F   0  0  0  0  0  0  0  0  0  0  0  0
  197.1880  172.3800  146.4190 F   0  0  0  0  0  0  0  0  0  0  0  0
  196.5940  170.4550  145.4360 F   0  0  0  0  0  0  0  0  0  0  0  0
  193.2320  175.6250  146.5030 C   0  0  0  0  0  2  0  0  0  0  0  0
  190.8140  175.6000  146.6980 N   0  0  0  0  0  0  0  0  0  0  0  0
  191.9510  176.4580  146.4780 C   0  0  1  0  0  3  0  0  0  0  0  0
  191.3390  176.4150  147.6890 O   0  0  0  0  0  0  0  0  0  0  0  0
  189.6650  176.2820  146.1090 C   0  0  1  0  0  3  0  0  0  0  0  0
  189.2430  174.5410  144.4570 N   0  0  0  0  0  0  0  0  0  0  0  0
  189.6850  176.3410  142.3850 C   0  0  0  0  0  3  0  0  0  0  0  0
  189.8420  174.8770  142.1030 C   0  0  2  0  0  3  0  0  0  0  0  0
  189.4790  174.5530  140.7830 O   0  0  0  0  0  0  0  0  0  0  0  0
  189.5540  176.7460  143.6170 N   0  0  0  0  0  0  0  0  0  0  0  0
  189.4620  175.8040  144.7060 C   0  0  0  0  0  0  0  0  0  0  0  0
  189.9340  173.2330  140.5640 C   0  0  0  0  0  2  0  0  0  0  0  0
  189.2670  172.6040  142.9130 C   0  0  0  0  0  2  0  0  0  0  0  0
  188.9720  174.0910  143.0910 C   0  0  1  0  0  3  0  0  0  0  0  0
  189.1400  172.2340  141.4250 C   0  0  0  0  0  2  0  0  0  0  0  0
  188.5120  176.0670  146.8720 O   0  0  0  0  0  0  0  0  0  0  0  0
  187.9090  177.3250  146.9650 C   0  0  0  0  0  2  0  0  0  0  0  0
  186.6590  177.3790  146.1080 C   0  0  1  0  0  3  0  0  0  0  0  0
  185.5450  178.7610  144.2860 C   0  0  1  0  0  3  0  0  0  0  0  0
  185.4680  177.8350  146.9580 C   0  0  0  0  0  2  0  0  0  0  0  0
  184.4810  177.9490  144.7200 O   0  0  0  0  0  0  0  0  0  0  0  0
  186.8730  178.2940  144.8960 C   0  0  0  0  0  2  0  0  0  0  0  0
  184.2770  178.2680  146.0790 C   0  0  0  0  0  2  0  0  0  0  0  0
  186.0750  177.4240  142.3250 N   0  0  0  0  0  1  0  0  0  0  0  0
  185.6370  178.7340  142.7710 C   0  0  0  0  0  2  0  0  0  0  0  0
  1  2  1  6  0  0  0
  1 27  1  0  0  0  0
  3  1  1  0  0  0  0
  3  5  1  0  0  0  0
  4  3  2  0  0  0  0
  7 11  1  0  0  0  0
  8 17  1  6  0  0  0
  8 12  1  0  0  0  0
  9 10  1  0  0  0  0
 11 23  1  0  0  0  0
 11 10  1  0  0  0  0
 11  5  1  1  0  0  0
 12  6  1  6  0  0  0
 12 19  1  0  0  0  0
 13  7  1  0  0  0  0
 15 22  1  6  0  0  0
 15  9  1  0  0  0  0
 18 16  1  6  0  0  0
 18 19  1  0  0  0  0
 18 13  1  0  0  0  0
 19 14  1  6  0  0  0
 19 15  1  0  0  0  0
 20 21  1  6  0  0  0
 20  8  1  0  0  0  0
 20 16  1  0  0  0  0
 23 26  1  0  0  0  0
 23 25  1  0  0  0  0
 24 23  1  0  0  0  0
 28 30  1  0  0  0  0
 29 27  1  1  0  0  0
 29 28  1  0  0  0  0
 29 30  1  0  0  0  0
 31 28  1  0  0  0  0
 31 42  1  1  0  0  0
 32 37  2  0  0  0  0
 33 36  2  0  0  0  0
 34 33  1  1  0  0  0
 34 40  1  0  0  0  0
 35 34  1  0  0  0  0
 36 37  1  0  0  0  0
 37 31  1  0  0  0  0
 38 35  1  0  0  0  0
 38 41  1  0  0  0  0
 40 39  1  1  0  0  0
 40 32  1  0  0  0  0
 41 39  1  0  0  0  0
 42 43  1  0  0  0  0
 44 46  1  0  0  0  0
 44 43  1  1  0  0  0
 45 51  1  6  0  0  0
 45 47  1  0  0  0  0
 45 48  1  0  0  0  0
 47 49  1  0  0  0  0
 48 44  1  0  0  0  0
 49 46  1  0  0  0  0
 50 51  1  0  0  0  0
M  END
>  <MODEL>
8

>  <REMARK>
 VINA RESULT:      -7.4      3.772      8.766
  Name = 
  12 active torsions:
  status: ('A' for Active; 'I' for Inactive)
    1  A    between atoms: N_2  and  C_34
    2  A    between atoms: C_3  and  C_12
    3  A    between atoms: C_3  and  C_22
    4  A    between atoms: C_4  and  C_26
    5  A    between atoms: C_7  and  C_37
    6  A    between atoms: C_12  and  C_25
    7  A    between atoms: C_17  and  C_20
    8  A    between atoms: C_17  and  O_47
    9  A    between atoms: C_22  and  O_47
   10  A    between atoms: C_26  and  O_28
   11  A    between atoms: O_28  and  C_34
   12  A    between atoms: C_32  and  C_34
                            x       y       z     vdW  Elec       q    Type
                         _______ _______ _______ _____ _____    ______ ____

>  <TORSDO>
F 12

$$$$
=
 OpenBabel11062419003D

 51 56  0  0  1  0  0  0  0  0999 V2000
  194.3190  175.6040  145.9130 C   0  0  2  0  0  3  0  0  0  0  0  0
  194.1400  176.3460  144.5980 C   0  0  0  0  0  1  0  0  0  0  0  0
  195.2120  174.3990  145.7690 C   0  0  0  0  0  0  0  0  0  0  0  0
  196.4650  174.5450  145.7780 O   0  0  0  0  0  0  0  0  0  0  0  0
  194.6460  173.1320  145.5580 O   0  0  0  0  0  0  0  0  0  0  0  0
  192.0020  173.5910  138.5520 C   0  0  0  0  0  1  0  0  0  0  0  0
  195.1870  173.3070  143.3310 O   0  0  0  0  0  0  0  0  0  0  0  0
  194.3430  174.4960  138.5650 C   0  0  1  0  0  3  0  0  0  0  0  0
  192.5190  171.9650  142.6240 C   0  0  0  0  0  2  0  0  0  0  0  0
  192.9420  172.5310  143.9790 C   0  0  0  0  0  2  0  0  0  0  0  0
  194.4600  172.5290  144.2700 C   0  0  2  0  0  0  0  0  0  0  0  0
  193.1380  174.1060  139.4280 C   0  0  2  0  0  3  0  0  0  0  0  0
  195.2320  172.6540  142.1830 O   0  0  0  0  0  0  0  0  0  0  0  0
  193.7200  171.8320  139.9900 O   0  0  0  0  0  1  0  0  0  0  0  0
  192.3530  173.0430  141.5530 C   0  0  2  0  0  3  0  0  0  0  0  0
  195.8470  173.7410  140.2730 O   0  0  0  0  0  0  0  0  0  0  0  0
  194.0140  175.6060  137.7810 O   0  0  0  0  0  1  0  0  0  0  0  0
  194.8190  173.5840  141.2250 C   0  0  1  0  0  3  0  0  0  0  0  0
  193.5150  173.1050  140.5430 C   0  0  2  0  0  0  0  0  0  0  0  0
  195.5110  174.8520  139.4850 C   0  0  1  0  0  3  0  0  0  0  0  0
  196.6170  175.2340  138.7290 O   0  0  0  0  0  1  0  0  0  0  0  0
  192.0780  174.2900  142.0950 F   0  0  0  0  0  0  0  0  0  0  0  0
  195.0010  171.0790  144.3860 C   0  0  0  0  0  0  0  0  0  0  0  0
  194.0650  170.2860  145.0250 F   0  0  0  0  0  0  0  0  0  0  0  0
  195.2280  170.5640  143.1210 F   0  0  0  0  0  0  0  0  0  0  0  0
  196.1890  171.0200  145.0940 F   0  0  0  0  0  0  0  0  0  0  0  0
  192.9560  175.2860  146.5440 C   0  0  0  0  0  2  0  0  0  0  0  0
  190.6320  175.8730  146.1700 N   0  0  0  0  0  0  0  0  0  0  0  0
  191.9460  176.4220  146.3930 C   0  0  1  0  0  3  0  0  0  0  0  0
  191.0340  176.3780  147.3970 O   0  0  0  0  0  0  0  0  0  0  0  0
  189.8650  176.9070  145.4810 C   0  0  1  0  0  3  0  0  0  0  0  0
  189.1610  175.0590  144.0580 N   0  0  0  0  0  0  0  0  0  0  0  0
  188.6840  176.8070  141.9500 C   0  0  0  0  0  3  0  0  0  0  0  0
  188.9280  175.3610  141.6370 C   0  0  2  0  0  3  0  0  0  0  0  0
  188.2060  174.9390  140.5050 O   0  0  0  0  0  0  0  0  0  0  0  0
  188.9040  177.2460  143.1580 N   0  0  0  0  0  0  0  0  0  0  0  0
  189.2860  176.3480  144.2200 C   0  0  0  0  0  0  0  0  0  0  0  0
  188.7310  173.6750  140.1540 C   0  0  0  0  0  2  0  0  0  0  0  0
  188.9360  173.0730  142.5940 C   0  0  0  0  0  2  0  0  0  0  0  0
  188.5270  174.5200  142.8540 C   0  0  1  0  0  3  0  0  0  0  0  0
  188.3880  172.6270  141.2280 C   0  0  0  0  0  2  0  0  0  0  0  0
  188.8530  177.4100  146.3050 O   0  0  0  0  0  0  0  0  0  0  0  0
  187.8610  176.4260  146.2900 C   0  0  0  0  0  2  0  0  0  0  0  0
  186.4840  177.0580  146.3760 C   0  0  1  0  0  3  0  0  0  0  0  0
  185.0830  178.9350  145.3840 C   0  0  1  0  0  3  0  0  0  0  0  0
  186.3690  177.8730  147.6690 C   0  0  0  0  0  2  0  0  0  0  0  0
  184.3280  178.5830  146.5180 O   0  0  0  0  0  0  0  0  0  0  0  0
  186.2050  177.9180  145.1380 C   0  0  0  0  0  2  0  0  0  0  0  0
  185.1590  178.8280  147.6310 C   0  0  0  0  0  2  0  0  0  0  0  0
  184.4710  177.9130  143.2630 N   0  0  0  0  0  1  0  0  0  0  0  0
  184.1840  179.0150  144.1630 C   0  0  0  0  0  2  0  0  0  0  0  0
  1  2  1  6  0  0  0
  1 27  1  0  0  0  0
  3  4  2  0  0  0  0
  3  1  1  0  0  0  0
  5  3  1  0  0  0  0
  7 11  1  0  0  0  0
  8 17  1  1  0  0  0
  8 12  1  0  0  0  0
  8 20  1  0  0  0  0
  9 10  1  0  0  0  0
 10 11  1  0  0  0  0
 11 23  1  0  0  0  0
 11  5  1  1  0  0  0
 12  6  1  6  0  0  0
 12 19  1  0  0  0  0
 13  7  1  0  0  0  0
 15 22  1  1  0  0  0
 15  9  1  0  0  0  0
 18 16  1  6  0  0  0
 18 13  1  0  0  0  0
 19 14  1  6  0  0  0
 19 18  1  0  0  0  0
 19 15  1  0  0  0  0
 20 21  1  6  0  0  0
 20 16  1  0  0  0  0
 23 24  1  0  0  0  0
 23 26  1  0  0  0  0
 25 23  1  0  0  0  0
 28 29  1  0  0  0  0
 28 30  1  0  0  0  0
 29 27  1  1  0  0  0
 29 30  1  0  0  0  0
 31 28  1  0  0  0  0
 31 42  1  1  0  0  0
 32 37  2  0  0  0  0
 33 36  2  0  0  0  0
 34 33  1  1  0  0  0
 34 40  1  0  0  0  0
 35 34  1  0  0  0  0
 36 37  1  0  0  0  0
 37 31  1  0  0  0  0
 38 35  1  0  0  0  0
 38 41  1  0  0  0  0
 40 39  1  6  0  0  0
 40 32  1  0  0  0  0
 41 39  1  0  0  0  0
 43 42  1  0  0  0  0
 44 43  1  6  0  0  0
 44 46  1  0  0  0  0
 45 51  1  6  0  0  0
 45 47  1  0  0  0  0
 47 49  1  0  0  0  0
 48 45  1  0  0  0  0
 48 44  1  0  0  0  0
 49 46  1  0  0  0  0
 50 51  1  0  0  0  0
M  END
>  <MODEL>
9

>  <REMARK>
 VINA RESULT:      -7.4      3.531      8.619
  Name = 
  12 active torsions:
  status: ('A' for Active; 'I' for Inactive)
    1  A    between atoms: N_2  and  C_34
    2  A    between atoms: C_3  and  C_12
    3  A    between atoms: C_3  and  C_22
    4  A    between atoms: C_4  and  C_26
    5  A    between atoms: C_7  and  C_37
    6  A    between atoms: C_12  and  C_25
    7  A    between atoms: C_17  and  C_20
    8  A    between atoms: C_17  and  O_47
    9  A    between atoms: C_22  and  O_47
   10  A    between atoms: C_26  and  O_28
   11  A    between atoms: O_28  and  C_34
   12  A    between atoms: C_32  and  C_34
                            x       y       z     vdW  Elec       q    Type
                         _______ _______ _______ _____ _____    ______ ____

>  <TORSDO>
F 12

$$$$
