=
 OpenBabel11062419513D

 30 32  0  0  1  0  0  0  0  0999 V2000
  191.5380  174.8570  146.9660 N   0  0  0  0  0  0  0  0  0  0  0  0
  192.1990  175.6070  145.8940 C   0  0  1  0  0  3  0  0  0  0  0  0
  191.4220  176.8850  145.6470 C   0  0  2  0  0  3  0  0  0  0  0  0
  191.9390  175.3360  148.1700 O   0  0  0  0  0  1  0  0  0  0  0  0
  190.0410  176.6120  146.2430 C   0  0  2  0  0  3  0  0  0  0  0  0
  190.1300  175.2110  146.8340 C   0  0  0  0  0  2  0  0  0  0  0  0
  184.9660  177.1170  146.3730 N   0  0  0  0  0  0  0  0  0  0  0  0
  185.2600  177.0190  145.0520 C   0  0  0  0  0  3  0  0  0  0  0  0
  187.2420  176.9470  146.9270 N   0  0  0  0  0  0  0  0  0  0  0  0
  185.9480  177.0830  147.3070 C   0  0  0  0  0  3  0  0  0  0  0  0
  187.5890  176.8430  145.6150 C   0  0  0  0  0  0  0  0  0  0  0  0
  186.5850  176.8790  144.6220 C   0  0  0  0  0  0  0  0  0  0  0  0
  188.9650  176.6760  145.2580 N   0  0  0  0  0  2  0  0  0  0  0  0
  188.2820  174.7840  140.4350 C   0  0  0  0  0  1  0  0  0  0  0  0
  186.0110  179.0670  142.5160 N   0  0  0  0  0  1  0  0  0  0  0  0
  186.8910  176.7990  143.1690 C   0  0  0  0  0  0  0  0  0  0  0  0
  187.6700  175.8390  141.2840 C   0  0  0  0  0  0  0  0  0  0  0  0
  186.6440  177.8200  142.2450 C   0  0  0  0  0  0  0  0  0  0  0  0
  187.1430  177.3310  140.7180 S   0  0  0  0  0  0  0  0  0  0  0  0
  187.4710  175.7000  142.6130 N   0  0  0  0  0  0  0  0  0  0  0  0
  193.6840  175.8060  146.0750 C   0  0  0  0  0  0  0  0  0  0  0  0
  194.1910  176.9620  146.5100 C   0  0  0  0  0  2  0  0  0  0  0  0
  194.6060  174.7160  145.6360 C   0  0  0  0  0  2  0  0  0  0  0  0
  195.8650  175.2440  145.3450 O   0  0  0  0  0  0  0  0  0  0  0  0
  196.6320  174.1410  144.9710 C   0  0  0  0  0  2  0  0  0  0  0  0
  196.9800  173.3280  146.1990 C   0  0  0  0  0  1  0  0  0  0  0  0
  191.4500  177.2710  144.1920 C   0  0  0  0  0  0  0  0  0  0  0  0
  191.3020  178.4360  143.8510 O   0  0  0  0  0  0  0  0  0  0  0  0
  192.8750  176.3450  142.5520 O   0  0  0  0  0  1  0  0  0  0  0  0
  191.6260  176.2120  143.1580 C   0  0  0  0  0  2  0  0  0  0  0  0
  1  4  1  0  0  0  0
  2 21  1  1  0  0  0
  2  1  1  0  0  0  0
  3 27  1  6  0  0  0
  3  2  1  0  0  0  0
  3  5  1  0  0  0  0
  5 13  1  6  0  0  0
  5  6  1  0  0  0  0
  6  1  1  0  0  0  0
  7 10  2  0  0  0  0
  8  7  1  0  0  0  0
  9 10  1  0  0  0  0
 11  9  2  0  0  0  0
 12  8  2  0  0  0  0
 12 11  1  0  0  0  0
 13 11  1  0  0  0  0
 14 17  1  0  0  0  0
 16 12  1  0  0  0  0
 17 20  2  0  0  0  0
 18 15  1  0  0  0  0
 18 16  2  0  0  0  0
 19 17  1  0  0  0  0
 19 18  1  0  0  0  0
 20 16  1  0  0  0  0
 21 22  2  0  0  0  0
 23 21  1  0  0  0  0
 24 23  1  0  0  0  0
 25 24  1  0  0  0  0
 25 26  1  0  0  0  0
 28 27  2  0  0  0  0
 29 30  1  0  0  0  0
 30 27  1  0  0  0  0
M  END
>  <MODEL>
1

>  <REMARK>
 VINA RESULT:      -6.6      0.000      0.000
  Name = 
  8 active torsions:
  status: ('A' for Active; 'I' for Inactive)
    1  A    between atoms: C_5  and  C_6
    2  A    between atoms: C_6  and  C_16
    3  A    between atoms: C_7  and  C_12
    4  A    between atoms: C_12  and  C_26
    5  A    between atoms: C_13  and  O_17
    6  A    between atoms: C_16  and  O_17
    7  A    between atoms: C_18  and  C_19
    8  A    between atoms: C_20  and  N_24
                            x       y       z     vdW  Elec       q    Type
                         _______ _______ _______ _____ _____    ______ ____

>  <TORSDO>
F 8

$$$$
=
 OpenBabel11062419513D

 30 32  0  0  1  0  0  0  0  0999 V2000
  192.5600  177.2990  143.8700 N   0  0  0  0  0  0  0  0  0  0  0  0
  192.2560  176.5810  145.1110 C   0  0  1  0  0  3  0  0  0  0  0  0
  191.0270  175.7220  144.8840 C   0  0  2  0  0  3  0  0  0  0  0  0
  193.2750  176.4940  143.0440 O   0  0  0  0  0  1  0  0  0  0  0  0
  190.3520  176.3380  143.6590 C   0  0  2  0  0  3  0  0  0  0  0  0
  191.2610  177.4850  143.2350 C   0  0  0  0  0  2  0  0  0  0  0  0
  186.1570  177.2800  140.9130 N   0  0  0  0  0  0  0  0  0  0  0  0
  185.8140  177.6240  142.1800 C   0  0  0  0  0  3  0  0  0  0  0  0
  188.3030  176.6490  141.6300 N   0  0  0  0  0  0  0  0  0  0  0  0
  187.3920  176.7940  140.6360 C   0  0  0  0  0  3  0  0  0  0  0  0
  188.0080  176.9810  142.9170 C   0  0  0  0  0  0  0  0  0  0  0  0
  186.7280  177.4870  143.2310 C   0  0  0  0  0  0  0  0  0  0  0  0
  189.0070  176.8350  143.9310 N   0  0  0  0  0  2  0  0  0  0  0  0
  186.0730  176.7540  148.1130 C   0  0  0  0  0  1  0  0  0  0  0  0
  185.5280  180.1850  144.1440 N   0  0  0  0  0  1  0  0  0  0  0  0
  186.3250  177.8440  144.6180 C   0  0  0  0  0  0  0  0  0  0  0  0
  186.0290  177.4930  146.8250 C   0  0  0  0  0  0  0  0  0  0  0  0
  185.7580  179.0660  144.9950 C   0  0  0  0  0  0  0  0  0  0  0  0
  185.4450  179.0580  146.6440 S   0  0  0  0  0  0  0  0  0  0  0  0
  186.4650  176.9740  145.6560 N   0  0  0  0  0  0  0  0  0  0  0  0
  193.4210  175.8510  145.7310 C   0  0  0  0  0  0  0  0  0  0  0  0
  194.3910  176.4980  146.3820 C   0  0  0  0  0  2  0  0  0  0  0  0
  193.5430  174.3810  145.4990 C   0  0  0  0  0  2  0  0  0  0  0  0
  194.7520  174.0970  144.8620 O   0  0  0  0  0  0  0  0  0  0  0  0
  195.2230  172.9460  145.4940 C   0  0  0  0  0  2  0  0  0  0  0  0
  196.6200  173.1940  146.0200 C   0  0  0  0  0  1  0  0  0  0  0  0
  190.1850  175.6300  146.1290 C   0  0  0  0  0  0  0  0  0  0  0  0
  190.1160  176.5700  146.9070 O   0  0  0  0  0  0  0  0  0  0  0  0
  188.8410  174.4560  147.6750 O   0  0  0  0  0  1  0  0  0  0  0  0
  189.4580  174.3640  146.4280 C   0  0  0  0  0  2  0  0  0  0  0  0
  1  2  1  0  0  0  0
  2 21  1  6  0  0  0
  3  2  1  0  0  0  0
  3 27  1  1  0  0  0
  4  1  1  0  0  0  0
  5 13  1  1  0  0  0
  5  3  1  0  0  0  0
  6  5  1  0  0  0  0
  6  1  1  0  0  0  0
  7  8  1  0  0  0  0
  8 12  2  0  0  0  0
  9 11  2  0  0  0  0
 10  7  2  0  0  0  0
 10  9  1  0  0  0  0
 11 12  1  0  0  0  0
 11 13  1  0  0  0  0
 12 16  1  0  0  0  0
 15 18  1  0  0  0  0
 16 18  2  0  0  0  0
 16 20  1  0  0  0  0
 17 14  1  0  0  0  0
 18 19  1  0  0  0  0
 19 17  1  0  0  0  0
 20 17  2  0  0  0  0
 21 22  2  0  0  0  0
 23 21  1  0  0  0  0
 24 25  1  0  0  0  0
 24 23  1  0  0  0  0
 25 26  1  0  0  0  0
 27 30  1  0  0  0  0
 27 28  2  0  0  0  0
 30 29  1  0  0  0  0
M  END
>  <MODEL>
2

>  <REMARK>
 VINA RESULT:      -6.6      1.976      3.972
  Name = 
  8 active torsions:
  status: ('A' for Active; 'I' for Inactive)
    1  A    between atoms: C_5  and  C_6
    2  A    between atoms: C_6  and  C_16
    3  A    between atoms: C_7  and  C_12
    4  A    between atoms: C_12  and  C_26
    5  A    between atoms: C_13  and  O_17
    6  A    between atoms: C_16  and  O_17
    7  A    between atoms: C_18  and  C_19
    8  A    between atoms: C_20  and  N_24
                            x       y       z     vdW  Elec       q    Type
                         _______ _______ _______ _____ _____    ______ ____

>  <TORSDO>
F 8

$$$$
=
 OpenBabel11062419513D

 30 32  0  0  1  0  0  0  0  0999 V2000
  186.8080  177.5680  146.0950 N   0  0  0  0  0  0  0  0  0  0  0  0
  187.1930  177.9040  144.7210 C   0  0  1  0  0  3  0  0  0  0  0  0
  187.7630  176.6640  144.0610 C   0  0  2  0  0  3  0  0  0  0  0  0
  185.5750  177.0000  146.0950 O   0  0  0  0  0  1  0  0  0  0  0  0
  188.1540  175.7570  145.2280 C   0  0  2  0  0  3  0  0  0  0  0  0
  187.7410  176.5170  146.4820 C   0  0  0  0  0  2  0  0  0  0  0  0
  191.0890  171.7320  144.1250 N   0  0  0  0  0  0  0  0  0  0  0  0
  191.9610  172.6760  144.5590 C   0  0  0  0  0  3  0  0  0  0  0  0
  189.2890  173.2120  144.4240 N   0  0  0  0  0  0  0  0  0  0  0  0
  189.7600  171.9950  144.0560 C   0  0  0  0  0  3  0  0  0  0  0  0
  190.1230  174.1920  144.8670 C   0  0  0  0  0  0  0  0  0  0  0  0
  191.5110  173.9440  144.9460 C   0  0  0  0  0  0  0  0  0  0  0  0
  189.5810  175.4540  145.2690 N   0  0  0  0  0  2  0  0  0  0  0  0
  195.3260  177.1100  144.4750 C   0  0  0  0  0  1  0  0  0  0  0  0
  191.6720  175.2000  147.7650 N   0  0  0  0  0  1  0  0  0  0  0  0
  192.4860  174.9750  145.3930 C   0  0  0  0  0  0  0  0  0  0  0  0
  194.2190  176.3980  145.1640 C   0  0  0  0  0  0  0  0  0  0  0  0
  192.5510  175.5030  146.6860 C   0  0  0  0  0  0  0  0  0  0  0  0
  193.7940  176.6290  146.7740 S   0  0  0  0  0  0  0  0  0  0  0  0
  193.4310  175.4840  144.5560 N   0  0  0  0  0  0  0  0  0  0  0  0
  186.1310  178.6080  143.9120 C   0  0  0  0  0  0  0  0  0  0  0  0
  185.5940  179.7630  144.3110 C   0  0  0  0  0  2  0  0  0  0  0  0
  185.5910  177.9230  142.7010 C   0  0  0  0  0  2  0  0  0  0  0  0
  186.1060  178.5170  141.5470 O   0  0  0  0  0  0  0  0  0  0  0  0
  185.3060  178.0310  140.5120 C   0  0  0  0  0  2  0  0  0  0  0  0
  183.8500  178.2850  140.8370 C   0  0  0  0  0  1  0  0  0  0  0  0
  188.8650  177.0140  143.0960 C   0  0  0  0  0  0  0  0  0  0  0  0
  189.5930  177.9740  143.3010 O   0  0  0  0  0  0  0  0  0  0  0  0
  187.9160  175.4000  141.6570 O   0  0  0  0  0  1  0  0  0  0  0  0
  189.0410  176.1980  141.8610 C   0  0  0  0  0  2  0  0  0  0  0  0
  1  6  1  0  0  0  0
  2 21  1  6  0  0  0
  2  1  1  0  0  0  0
  3 27  1  1  0  0  0
  3  2  1  0  0  0  0
  3  5  1  0  0  0  0
  4  1  1  0  0  0  0
  5 13  1  1  0  0  0
  5  6  1  0  0  0  0
  7  8  1  0  0  0  0
  8 12  2  0  0  0  0
  9 11  2  0  0  0  0
 10  7  2  0  0  0  0
 10  9  1  0  0  0  0
 11 12  1  0  0  0  0
 11 13  1  0  0  0  0
 12 16  1  0  0  0  0
 14 17  1  0  0  0  0
 16 18  2  0  0  0  0
 17 19  1  0  0  0  0
 18 19  1  0  0  0  0
 18 15  1  0  0  0  0
 20 17  2  0  0  0  0
 20 16  1  0  0  0  0
 21 22  2  0  0  0  0
 23 21  1  0  0  0  0
 24 23  1  0  0  0  0
 25 26  1  0  0  0  0
 25 24  1  0  0  0  0
 27 28  2  0  0  0  0
 29 30  1  0  0  0  0
 30 27  1  0  0  0  0
M  END
>  <MODEL>
3

>  <REMARK>
 VINA RESULT:      -6.4      3.230      7.382
  Name = 
  8 active torsions:
  status: ('A' for Active; 'I' for Inactive)
    1  A    between atoms: C_5  and  C_6
    2  A    between atoms: C_6  and  C_16
    3  A    between atoms: C_7  and  C_12
    4  A    between atoms: C_12  and  C_26
    5  A    between atoms: C_13  and  O_17
    6  A    between atoms: C_16  and  O_17
    7  A    between atoms: C_18  and  C_19
    8  A    between atoms: C_20  and  N_24
                            x       y       z     vdW  Elec       q    Type
                         _______ _______ _______ _____ _____    ______ ____

>  <TORSDO>
F 8

$$$$
=
 OpenBabel11062419513D

 30 32  0  0  1  0  0  0  0  0999 V2000
  185.8480  176.2920  143.2510 N   0  0  0  0  0  0  0  0  0  0  0  0
  186.5380  177.0340  144.3100 C   0  0  1  0  0  3  0  0  0  0  0  0
  187.8830  177.4920  143.7820 C   0  0  2  0  0  3  0  0  0  0  0  0
  185.2250  177.1620  142.4170 O   0  0  0  0  0  1  0  0  0  0  0  0
  188.1540  176.5780  142.5870 C   0  0  2  0  0  3  0  0  0  0  0  0
  186.9250  175.6850  142.4790 C   0  0  0  0  0  2  0  0  0  0  0  0
  190.4820  172.9080  139.9140 N   0  0  0  0  0  0  0  0  0  0  0  0
  191.2580  173.0660  141.0160 C   0  0  0  0  0  3  0  0  0  0  0  0
  189.0260  174.5950  140.6580 N   0  0  0  0  0  0  0  0  0  0  0  0
  189.3720  173.6670  139.7330 C   0  0  0  0  0  3  0  0  0  0  0  0
  189.7710  174.7910  141.7800 C   0  0  0  0  0  0  0  0  0  0  0  0
  190.9330  174.0160  141.9910 C   0  0  0  0  0  0  0  0  0  0  0  0
  189.3560  175.7650  142.7440 N   0  0  0  0  0  2  0  0  0  0  0  0
  194.5790  176.0710  144.6890 C   0  0  0  0  0  1  0  0  0  0  0  0
  190.8180  172.3730  144.6060 N   0  0  0  0  0  1  0  0  0  0  0  0
  191.8110  174.1940  143.1790 C   0  0  0  0  0  0  0  0  0  0  0  0
  193.4690  175.1310  144.3840 C   0  0  0  0  0  0  0  0  0  0  0  0
  191.7520  173.4140  144.3380 C   0  0  0  0  0  0  0  0  0  0  0  0
  192.9170  173.9360  145.4290 S   0  0  0  0  0  0  0  0  0  0  0  0
  192.7820  175.1470  143.2200 N   0  0  0  0  0  0  0  0  0  0  0  0
  185.7220  178.1230  144.9640 C   0  0  0  0  0  0  0  0  0  0  0  0
  185.8790  179.4090  144.6430 C   0  0  0  0  0  2  0  0  0  0  0  0
  184.8080  177.7490  146.0840 C   0  0  0  0  0  2  0  0  0  0  0  0
  184.9410  178.6600  147.1330 O   0  0  0  0  0  0  0  0  0  0  0  0
  185.8640  178.0700  147.9970 C   0  0  0  0  0  2  0  0  0  0  0  0
  186.9250  179.0830  148.3720 C   0  0  0  0  0  1  0  0  0  0  0  0
  188.9270  177.4900  144.8670 C   0  0  0  0  0  0  0  0  0  0  0  0
  189.9650  178.1230  144.7360 O   0  0  0  0  0  0  0  0  0  0  0  0
  189.3080  175.4280  145.9530 O   0  0  0  0  0  1  0  0  0  0  0  0
  188.7030  176.6770  146.0950 C   0  0  0  0  0  2  0  0  0  0  0  0
  1  2  1  0  0  0  0
  2 21  1  6  0  0  0
  3  2  1  0  0  0  0
  3 27  1  1  0  0  0
  4  1  1  0  0  0  0
  5 13  1  1  0  0  0
  5  3  1  0  0  0  0
  6  5  1  0  0  0  0
  6  1  1  0  0  0  0
  7  8  1  0  0  0  0
  8 12  2  0  0  0  0
  9 11  2  0  0  0  0
 10  7  2  0  0  0  0
 10  9  1  0  0  0  0
 11 12  1  0  0  0  0
 11 13  1  0  0  0  0
 12 16  1  0  0  0  0
 16 20  1  0  0  0  0
 16 18  2  0  0  0  0
 17 14  1  0  0  0  0
 17 19  1  0  0  0  0
 18 15  1  0  0  0  0
 18 19  1  0  0  0  0
 20 17  2  0  0  0  0
 21 23  1  0  0  0  0
 22 21  2  0  0  0  0
 23 24  1  0  0  0  0
 24 25  1  0  0  0  0
 25 26  1  0  0  0  0
 27 30  1  0  0  0  0
 28 27  2  0  0  0  0
 29 30  1  0  0  0  0
M  END
>  <MODEL>
4

>  <REMARK>
 VINA RESULT:      -6.3      3.214      7.422
  Name = 
  8 active torsions:
  status: ('A' for Active; 'I' for Inactive)
    1  A    between atoms: C_5  and  C_6
    2  A    between atoms: C_6  and  C_16
    3  A    between atoms: C_7  and  C_12
    4  A    between atoms: C_12  and  C_26
    5  A    between atoms: C_13  and  O_17
    6  A    between atoms: C_16  and  O_17
    7  A    between atoms: C_18  and  C_19
    8  A    between atoms: C_20  and  N_24
                            x       y       z     vdW  Elec       q    Type
                         _______ _______ _______ _____ _____    ______ ____

>  <TORSDO>
F 8

$$$$
=
 OpenBabel11062419513D

 30 32  0  0  1  0  0  0  0  0999 V2000
  192.2760  176.9300  143.5770 N   0  0  0  0  0  0  0  0  0  0  0  0
  191.6750  175.5970  143.6770 C   0  0  1  0  0  3  0  0  0  0  0  0
  190.4390  175.5560  142.7990 C   0  0  2  0  0  3  0  0  0  0  0  0
  193.0580  176.9940  142.4700 O   0  0  0  0  0  1  0  0  0  0  0  0
  190.0700  177.0250  142.5920 C   0  0  2  0  0  3  0  0  0  0  0  0
  191.1440  177.8160  143.3280 C   0  0  0  0  0  2  0  0  0  0  0  0
  185.4340  177.8120  140.6120 N   0  0  0  0  0  0  0  0  0  0  0  0
  185.2680  178.0050  141.9450 C   0  0  0  0  0  3  0  0  0  0  0  0
  187.7100  177.3250  140.9330 N   0  0  0  0  0  0  0  0  0  0  0  0
  186.6460  177.4730  140.1060 C   0  0  0  0  0  3  0  0  0  0  0  0
  187.5950  177.5080  142.2770 C   0  0  0  0  0  0  0  0  0  0  0  0
  186.3430  177.8590  142.8290 C   0  0  0  0  0  0  0  0  0  0  0  0
  188.7490  177.3660  143.1120 N   0  0  0  0  0  2  0  0  0  0  0  0
  186.2670  176.5260  147.6260 C   0  0  0  0  0  1  0  0  0  0  0  0
  185.4070  180.4570  144.2160 N   0  0  0  0  0  1  0  0  0  0  0  0
  186.1360  178.0490  144.2900 C   0  0  0  0  0  0  0  0  0  0  0  0
  186.1010  177.4270  146.4560 C   0  0  0  0  0  0  0  0  0  0  0  0
  185.6830  179.2310  144.8850 C   0  0  0  0  0  0  0  0  0  0  0  0
  185.5790  179.0220  146.5480 S   0  0  0  0  0  0  0  0  0  0  0  0
  186.3600  177.0470  145.1850 N   0  0  0  0  0  0  0  0  0  0  0  0
  192.6290  174.4480  143.4640 C   0  0  0  0  0  0  0  0  0  0  0  0
  192.5570  173.6650  142.3850 C   0  0  0  0  0  2  0  0  0  0  0  0
  193.5930  174.1140  144.5540 C   0  0  0  0  0  2  0  0  0  0  0  0
  194.9030  174.2310  144.0840 O   0  0  0  0  0  0  0  0  0  0  0  0
  195.4090  175.3610  144.7270 C   0  0  0  0  0  2  0  0  0  0  0  0
  196.2190  176.1800  143.7450 C   0  0  0  0  0  1  0  0  0  0  0  0
  189.3700  174.6830  143.3990 C   0  0  0  0  0  0  0  0  0  0  0  0
  189.1730  174.6750  144.6060 O   0  0  0  0  0  0  0  0  0  0  0  0
  188.8320  174.0980  141.1750 O   0  0  0  0  0  1  0  0  0  0  0  0
  188.5700  173.7930  142.5110 C   0  0  0  0  0  2  0  0  0  0  0  0
  1  2  1  0  0  0  0
  2 21  1  6  0  0  0
  3 27  1  1  0  0  0
  3  2  1  0  0  0  0
  4  1  1  0  0  0  0
  5  3  1  0  0  0  0
  5 13  1  1  0  0  0
  5  6  1  0  0  0  0
  6  1  1  0  0  0  0
  7  8  1  0  0  0  0
  8 12  2  0  0  0  0
  9 11  2  0  0  0  0
 10  7  2  0  0  0  0
 10  9  1  0  0  0  0
 11 12  1  0  0  0  0
 11 13  1  0  0  0  0
 12 16  1  0  0  0  0
 15 18  1  0  0  0  0
 16 18  2  0  0  0  0
 16 20  1  0  0  0  0
 17 19  1  0  0  0  0
 17 14  1  0  0  0  0
 18 19  1  0  0  0  0
 20 17  2  0  0  0  0
 21 23  1  0  0  0  0
 22 21  2  0  0  0  0
 24 23  1  0  0  0  0
 24 25  1  0  0  0  0
 26 25  1  0  0  0  0
 27 28  2  0  0  0  0
 29 30  1  0  0  0  0
 30 27  1  0  0  0  0
M  END
>  <MODEL>
5

>  <REMARK>
 VINA RESULT:      -6.2      2.516      4.277
  Name = 
  8 active torsions:
  status: ('A' for Active; 'I' for Inactive)
    1  A    between atoms: C_5  and  C_6
    2  A    between atoms: C_6  and  C_16
    3  A    between atoms: C_7  and  C_12
    4  A    between atoms: C_12  and  C_26
    5  A    between atoms: C_13  and  O_17
    6  A    between atoms: C_16  and  O_17
    7  A    between atoms: C_18  and  C_19
    8  A    between atoms: C_20  and  N_24
                            x       y       z     vdW  Elec       q    Type
                         _______ _______ _______ _____ _____    ______ ____

>  <TORSDO>
F 8

$$$$
=
 OpenBabel11062419513D

 30 32  0  0  1  0  0  0  0  0999 V2000
  188.2490  176.9400  143.5920 N   0  0  0  0  0  0  0  0  0  0  0  0
  188.2410  176.3600  144.9370 C   0  0  1  0  0  3  0  0  0  0  0  0
  189.6400  176.4560  145.5140 C   0  0  2  0  0  3  0  0  0  0  0  0
  188.1220  178.2890  143.6780 O   0  0  0  0  0  1  0  0  0  0  0  0
  190.5430  176.6440  144.2940 C   0  0  2  0  0  3  0  0  0  0  0  0
  189.5980  176.6880  143.1000 C   0  0  0  0  0  2  0  0  0  0  0  0
  195.4800  175.9580  145.3810 N   0  0  0  0  0  0  0  0  0  0  0  0
  195.1010  174.7970  144.7890 C   0  0  0  0  0  3  0  0  0  0  0  0
  193.3050  176.8170  145.1620 N   0  0  0  0  0  0  0  0  0  0  0  0
  194.5900  176.9640  145.5680 C   0  0  0  0  0  3  0  0  0  0  0  0
  192.8750  175.6720  144.5630 C   0  0  0  0  0  0  0  0  0  0  0  0
  193.7820  174.6100  144.3590 C   0  0  0  0  0  0  0  0  0  0  0  0
  191.5160  175.5690  144.1270 N   0  0  0  0  0  2  0  0  0  0  0  0
  192.6920  169.7520  144.2530 C   0  0  0  0  0  1  0  0  0  0  0  0
  193.1010  174.1560  141.3790 N   0  0  0  0  0  1  0  0  0  0  0  0
  193.3790  173.3200  143.7370 C   0  0  0  0  0  0  0  0  0  0  0  0
  192.8950  171.1190  143.7060 C   0  0  0  0  0  0  0  0  0  0  0  0
  193.1040  173.1410  142.3780 C   0  0  0  0  0  0  0  0  0  0  0  0
  192.6960  171.5380  142.0910 S   0  0  0  0  0  0  0  0  0  0  0  0
  193.2620  172.1750  144.4650 N   0  0  0  0  0  0  0  0  0  0  0  0
  187.1540  176.8730  145.8500 C   0  0  0  0  0  0  0  0  0  0  0  0
  187.4310  177.4150  147.0380 C   0  0  0  0  0  2  0  0  0  0  0  0
  185.7320  176.6520  145.4540 C   0  0  0  0  0  2  0  0  0  0  0  0
  184.9970  177.8240  145.6390 O   0  0  0  0  0  0  0  0  0  0  0  0
  184.7430  178.2890  144.3480 C   0  0  0  0  0  2  0  0  0  0  0  0
  185.0700  179.7650  144.2690 C   0  0  0  0  0  1  0  0  0  0  0  0
  189.9520  175.2750  146.3930 C   0  0  0  0  0  0  0  0  0  0  0  0
  189.5130  174.1650  146.1290 O   0  0  0  0  0  0  0  0  0  0  0  0
  191.0390  176.8320  147.7970 O   0  0  0  0  0  1  0  0  0  0  0  0
  190.7770  175.4740  147.6190 C   0  0  0  0  0  2  0  0  0  0  0  0
  1  4  1  0  0  0  0
  1  2  1  0  0  0  0
  2  3  1  0  0  0  0
  2 21  1  1  0  0  0
  3 27  1  6  0  0  0
  5 13  1  6  0  0  0
  5  3  1  0  0  0  0
  6  1  1  0  0  0  0
  6  5  1  0  0  0  0
  7 10  2  0  0  0  0
  8  7  1  0  0  0  0
  9 10  1  0  0  0  0
 11  9  2  0  0  0  0
 12 11  1  0  0  0  0
 12  8  2  0  0  0  0
 13 11  1  0  0  0  0
 15 18  1  0  0  0  0
 16 12  1  0  0  0  0
 16 20  1  0  0  0  0
 17 14  1  0  0  0  0
 17 20  2  0  0  0  0
 18 16  2  0  0  0  0
 19 18  1  0  0  0  0
 19 17  1  0  0  0  0
 21 22  2  0  0  0  0
 23 24  1  0  0  0  0
 23 21  1  0  0  0  0
 25 24  1  0  0  0  0
 26 25  1  0  0  0  0
 27 30  1  0  0  0  0
 28 27  2  0  0  0  0
 30 29  1  0  0  0  0
M  END
>  <MODEL>
6

>  <REMARK>
 VINA RESULT:      -6.1      3.287      7.522
  Name = 
  8 active torsions:
  status: ('A' for Active; 'I' for Inactive)
    1  A    between atoms: C_5  and  C_6
    2  A    between atoms: C_6  and  C_16
    3  A    between atoms: C_7  and  C_12
    4  A    between atoms: C_12  and  C_26
    5  A    between atoms: C_13  and  O_17
    6  A    between atoms: C_16  and  O_17
    7  A    between atoms: C_18  and  C_19
    8  A    between atoms: C_20  and  N_24
                            x       y       z     vdW  Elec       q    Type
                         _______ _______ _______ _____ _____    ______ ____

>  <TORSDO>
F 8

$$$$
=
 OpenBabel11062419513D

 30 32  0  0  1  0  0  0  0  0999 V2000
  190.0200  174.7560  146.7960 N   0  0  0  0  0  0  0  0  0  0  0  0
  190.6040  175.0500  145.4840 C   0  0  1  0  0  3  0  0  0  0  0  0
  190.2730  176.4830  145.1170 C   0  0  2  0  0  3  0  0  0  0  0  0
  190.8510  175.1990  147.7730 O   0  0  0  0  0  1  0  0  0  0  0  0
  189.0800  176.8380  146.0040 C   0  0  2  0  0  3  0  0  0  0  0  0
  188.8320  175.6000  146.8560 C   0  0  0  0  0  2  0  0  0  0  0  0
  184.3860  178.5010  147.1130 N   0  0  0  0  0  0  0  0  0  0  0  0
  184.3880  178.3740  145.7620 C   0  0  0  0  0  3  0  0  0  0  0  0
  186.6230  177.7930  147.2150 N   0  0  0  0  0  0  0  0  0  0  0  0
  185.4950  178.2130  147.8380 C   0  0  0  0  0  3  0  0  0  0  0  0
  186.6760  177.6490  145.8620 C   0  0  0  0  0  0  0  0  0  0  0  0
  185.5350  177.9440  145.0840 C   0  0  0  0  0  0  0  0  0  0  0  0
  187.8790  177.1780  145.2470 N   0  0  0  0  0  2  0  0  0  0  0  0
  187.3140  176.7150  140.5980 C   0  0  0  0  0  1  0  0  0  0  0  0
  183.2900  178.9220  143.1990 N   0  0  0  0  0  1  0  0  0  0  0  0
  185.5270  177.8370  143.6000 C   0  0  0  0  0  0  0  0  0  0  0  0
  186.3490  177.2800  141.5780 C   0  0  0  0  0  0  0  0  0  0  0  0
  184.5060  178.3160  142.7720 C   0  0  0  0  0  0  0  0  0  0  0  0
  184.8890  178.0040  141.1670 S   0  0  0  0  0  0  0  0  0  0  0  0
  186.5530  177.2650  142.9130 N   0  0  0  0  0  0  0  0  0  0  0  0
  192.0620  174.6900  145.3380 C   0  0  0  0  0  0  0  0  0  0  0  0
  192.4600  173.4300  145.1460 C   0  0  0  0  0  2  0  0  0  0  0  0
  193.0810  175.7630  145.5350 C   0  0  0  0  0  2  0  0  0  0  0  0
  193.7080  176.0550  144.3230 O   0  0  0  0  0  0  0  0  0  0  0  0
  195.0140  176.3970  144.6740 C   0  0  0  0  0  2  0  0  0  0  0  0
  195.7070  175.1940  145.2760 C   0  0  0  0  0  1  0  0  0  0  0  0
  190.0630  176.6340  143.6340 C   0  0  0  0  0  0  0  0  0  0  0  0
  189.6780  175.6910  142.9580 O   0  0  0  0  0  0  0  0  0  0  0  0
  191.3630  178.6040  143.6930 O   0  0  0  0  0  1  0  0  0  0  0  0
  190.3650  177.9400  142.9820 C   0  0  0  0  0  2  0  0  0  0  0  0
  1  6  1  0  0  0  0
  1  4  1  0  0  0  0
  2 21  1  1  0  0  0
  2  1  1  0  0  0  0
  3 27  1  6  0  0  0
  3  2  1  0  0  0  0
  3  5  1  0  0  0  0
  5 13  1  6  0  0  0
  5  6  1  0  0  0  0
  7 10  2  0  0  0  0
  8  7  1  0  0  0  0
  9 10  1  0  0  0  0
 11  9  2  0  0  0  0
 12  8  2  0  0  0  0
 12 11  1  0  0  0  0
 13 11  1  0  0  0  0
 14 17  1  0  0  0  0
 16 12  1  0  0  0  0
 17 20  2  0  0  0  0
 18 15  1  0  0  0  0
 18 16  2  0  0  0  0
 19 17  1  0  0  0  0
 19 18  1  0  0  0  0
 20 16  1  0  0  0  0
 21 23  1  0  0  0  0
 22 21  2  0  0  0  0
 24 25  1  0  0  0  0
 24 23  1  0  0  0  0
 25 26  1  0  0  0  0
 28 27  2  0  0  0  0
 30 27  1  0  0  0  0
 30 29  1  0  0  0  0
M  END
>  <MODEL>
7

>  <REMARK>
 VINA RESULT:      -6.1      1.664      2.095
  Name = 
  8 active torsions:
  status: ('A' for Active; 'I' for Inactive)
    1  A    between atoms: C_5  and  C_6
    2  A    between atoms: C_6  and  C_16
    3  A    between atoms: C_7  and  C_12
    4  A    between atoms: C_12  and  C_26
    5  A    between atoms: C_13  and  O_17
    6  A    between atoms: C_16  and  O_17
    7  A    between atoms: C_18  and  C_19
    8  A    between atoms: C_20  and  N_24
                            x       y       z     vdW  Elec       q    Type
                         _______ _______ _______ _____ _____    ______ ____

>  <TORSDO>
F 8

$$$$
=
 OpenBabel11062419513D

 30 32  0  0  1  0  0  0  0  0999 V2000
  187.1380  177.5520  145.7760 N   0  0  0  0  0  0  0  0  0  0  0  0
  187.2190  177.8310  144.3400 C   0  0  1  0  0  3  0  0  0  0  0  0
  187.5930  176.5510  143.6180 C   0  0  2  0  0  3  0  0  0  0  0  0
  185.9210  177.0300  146.0700 O   0  0  0  0  0  1  0  0  0  0  0  0
  188.2060  175.6670  144.7030 C   0  0  2  0  0  3  0  0  0  0  0  0
  188.1040  176.4800  145.9880 C   0  0  0  0  0  2  0  0  0  0  0  0
  190.6760  171.6150  142.8290 N   0  0  0  0  0  0  0  0  0  0  0  0
  191.6600  172.5020  143.1250 C   0  0  0  0  0  3  0  0  0  0  0  0
  189.0410  173.1360  143.5590 N   0  0  0  0  0  0  0  0  0  0  0  0
  189.3740  171.9280  143.0420 C   0  0  0  0  0  3  0  0  0  0  0  0
  189.9910  174.0590  143.8740 C   0  0  0  0  0  0  0  0  0  0  0  0
  191.3540  173.7600  143.6580 C   0  0  0  0  0  0  0  0  0  0  0  0
  189.5980  175.3140  144.4400 N   0  0  0  0  0  2  0  0  0  0  0  0
  194.3060  176.5600  146.5290 C   0  0  0  0  0  1  0  0  0  0  0  0
  193.1710  175.1440  141.5760 N   0  0  0  0  0  1  0  0  0  0  0  0
  192.4440  174.7290  143.9510 C   0  0  0  0  0  0  0  0  0  0  0  0
  193.7670  175.9950  145.2640 C   0  0  0  0  0  0  0  0  0  0  0  0
  193.2310  175.3610  142.9830 C   0  0  0  0  0  0  0  0  0  0  0  0
  194.3350  176.3810  143.7300 S   0  0  0  0  0  0  0  0  0  0  0  0
  192.7560  175.1010  145.2230 N   0  0  0  0  0  0  0  0  0  0  0  0
  186.0250  178.5480  143.7590 C   0  0  0  0  0  0  0  0  0  0  0  0
  185.5930  179.7100  144.2550 C   0  0  0  0  0  2  0  0  0  0  0  0
  185.2450  177.8700  142.6810 C   0  0  0  0  0  2  0  0  0  0  0  0
  185.2480  178.6520  141.5250 O   0  0  0  0  0  0  0  0  0  0  0  0
  184.2370  178.1120  140.7300 C   0  0  0  0  0  2  0  0  0  0  0  0
  182.9000  178.3040  141.4140 C   0  0  0  0  0  1  0  0  0  0  0  0
  188.4630  176.8310  142.4210 C   0  0  0  0  0  0  0  0  0  0  0  0
  188.5260  176.0350  141.4950 O   0  0  0  0  0  0  0  0  0  0  0  0
  190.5830  177.7970  142.8050 O   0  0  0  0  0  1  0  0  0  0  0  0
  189.2820  178.0750  142.3880 C   0  0  0  0  0  2  0  0  0  0  0  0
  1  6  1  0  0  0  0
  1  4  1  0  0  0  0
  2 21  1  6  0  0  0
  2  1  1  0  0  0  0
  3 27  1  6  0  0  0
  3  2  1  0  0  0  0
  3  5  1  0  0  0  0
  5 13  1  6  0  0  0
  5  6  1  0  0  0  0
  7 10  2  0  0  0  0
  7  8  1  0  0  0  0
  8 12  2  0  0  0  0
  9 11  2  0  0  0  0
 10  9  1  0  0  0  0
 11 13  1  0  0  0  0
 12 11  1  0  0  0  0
 12 16  1  0  0  0  0
 15 18  1  0  0  0  0
 16 20  1  0  0  0  0
 17 14  1  0  0  0  0
 18 19  1  0  0  0  0
 18 16  2  0  0  0  0
 19 17  1  0  0  0  0
 20 17  2  0  0  0  0
 21 22  2  0  0  0  0
 23 21  1  0  0  0  0
 24 23  1  0  0  0  0
 25 26  1  0  0  0  0
 25 24  1  0  0  0  0
 28 27  2  0  0  0  0
 30 27  1  0  0  0  0
 30 29  1  0  0  0  0
M  END
>  <MODEL>
8

>  <REMARK>
 VINA RESULT:      -6.1      3.377      7.482
  Name = 
  8 active torsions:
  status: ('A' for Active; 'I' for Inactive)
    1  A    between atoms: C_5  and  C_6
    2  A    between atoms: C_6  and  C_16
    3  A    between atoms: C_7  and  C_12
    4  A    between atoms: C_12  and  C_26
    5  A    between atoms: C_13  and  O_17
    6  A    between atoms: C_16  and  O_17
    7  A    between atoms: C_18  and  C_19
    8  A    between atoms: C_20  and  N_24
                            x       y       z     vdW  Elec       q    Type
                         _______ _______ _______ _____ _____    ______ ____

>  <TORSDO>
F 8

$$$$
=
 OpenBabel11062419513D

 30 32  0  0  1  0  0  0  0  0999 V2000
  188.3070  176.8590  143.4430 N   0  0  0  0  0  0  0  0  0  0  0  0
  188.2570  176.3340  144.8110 C   0  0  1  0  0  3  0  0  0  0  0  0
  189.6560  176.3710  145.3950 C   0  0  2  0  0  3  0  0  0  0  0  0
  188.2600  178.2150  143.4740 O   0  0  0  0  0  1  0  0  0  0  0  0
  190.5750  176.4550  144.1760 C   0  0  2  0  0  3  0  0  0  0  0  0
  189.6420  176.5070  142.9730 C   0  0  0  0  0  2  0  0  0  0  0  0
  195.5940  175.6980  144.6930 N   0  0  0  0  0  0  0  0  0  0  0  0
  195.1020  174.4790  144.3570 C   0  0  0  0  0  3  0  0  0  0  0  0
  193.4350  176.6220  144.6280 N   0  0  0  0  0  0  0  0  0  0  0  0
  194.7680  176.7650  144.8300 C   0  0  0  0  0  3  0  0  0  0  0  0
  192.8930  175.4200  144.2880 C   0  0  0  0  0  0  0  0  0  0  0  0
  193.7310  174.2930  144.1420 C   0  0  0  0  0  0  0  0  0  0  0  0
  191.4840  175.3190  144.0600 N   0  0  0  0  0  2  0  0  0  0  0  0
  191.2320  170.9250  141.4580 C   0  0  0  0  0  1  0  0  0  0  0  0
  194.2050  171.6950  145.7470 N   0  0  0  0  0  1  0  0  0  0  0  0
  193.2070  172.9430  143.8010 C   0  0  0  0  0  0  0  0  0  0  0  0
  192.0660  171.4330  142.5780 C   0  0  0  0  0  0  0  0  0  0  0  0
  193.4170  171.7900  144.5650 C   0  0  0  0  0  0  0  0  0  0  0  0
  192.6510  170.4850  143.8370 S   0  0  0  0  0  0  0  0  0  0  0  0
  192.4440  172.7250  142.6950 N   0  0  0  0  0  0  0  0  0  0  0  0
  187.1970  176.9480  145.6930 C   0  0  0  0  0  0  0  0  0  0  0  0
  187.4990  177.5160  146.8620 C   0  0  0  0  0  2  0  0  0  0  0  0
  185.7670  176.7990  145.2920 C   0  0  0  0  0  2  0  0  0  0  0  0
  185.0300  177.8970  145.7390 O   0  0  0  0  0  0  0  0  0  0  0  0
  184.5070  178.4680  144.5770 C   0  0  0  0  0  2  0  0  0  0  0  0
  185.2300  179.7640  144.2820 C   0  0  0  0  0  1  0  0  0  0  0  0
  189.8920  175.2100  146.3230 C   0  0  0  0  0  0  0  0  0  0  0  0
  189.5000  174.0880  146.0340 O   0  0  0  0  0  0  0  0  0  0  0  0
  191.9480  175.2080  147.4850 O   0  0  0  0  0  1  0  0  0  0  0  0
  190.5810  175.4430  147.6240 C   0  0  0  0  0  2  0  0  0  0  0  0
  1  4  1  0  0  0  0
  1  2  1  0  0  0  0
  2  3  1  0  0  0  0
  2 21  1  1  0  0  0
  3 27  1  6  0  0  0
  5 13  1  6  0  0  0
  5  3  1  0  0  0  0
  6  1  1  0  0  0  0
  6  5  1  0  0  0  0
  7 10  2  0  0  0  0
  8  7  1  0  0  0  0
  9 10  1  0  0  0  0
 11  9  2  0  0  0  0
 12 11  1  0  0  0  0
 12  8  2  0  0  0  0
 13 11  1  0  0  0  0
 14 17  1  0  0  0  0
 16 12  1  0  0  0  0
 16 18  2  0  0  0  0
 17 20  2  0  0  0  0
 17 19  1  0  0  0  0
 18 15  1  0  0  0  0
 19 18  1  0  0  0  0
 20 16  1  0  0  0  0
 21 22  2  0  0  0  0
 23 21  1  0  0  0  0
 23 24  1  0  0  0  0
 25 24  1  0  0  0  0
 26 25  1  0  0  0  0
 27 30  1  0  0  0  0
 28 27  2  0  0  0  0
 29 30  1  0  0  0  0
M  END
>  <MODEL>
9

>  <REMARK>
 VINA RESULT:      -6.0      3.375      7.645
  Name = 
  8 active torsions:
  status: ('A' for Active; 'I' for Inactive)
    1  A    between atoms: C_5  and  C_6
    2  A    between atoms: C_6  and  C_16
    3  A    between atoms: C_7  and  C_12
    4  A    between atoms: C_12  and  C_26
    5  A    between atoms: C_13  and  O_17
    6  A    between atoms: C_16  and  O_17
    7  A    between atoms: C_18  and  C_19
    8  A    between atoms: C_20  and  N_24
                            x       y       z     vdW  Elec       q    Type
                         _______ _______ _______ _____ _____    ______ ____

>  <TORSDO>
F 8

$$$$
