=
 OpenBabel11062420043D

 42 46  0  0  1  0  0  0  0  0999 V2000
  191.4750  175.1840  147.0360 C   0  0  0  0  0  2  0  0  0  0  0  0
  191.7300  173.1900  142.1880 C   0  0  0  0  0  0  0  0  0  0  0  0
  190.4150  175.1560  146.0340 N   0  0  0  0  0  0  0  0  0  0  0  0
  190.5500  173.1590  142.8100 C   0  0  0  0  0  3  0  0  0  0  0  0
  192.7340  174.2670  142.4630 C   0  0  0  0  0  2  0  0  0  0  0  0
  192.3490  174.5280  144.8980 C   0  0  0  0  0  0  0  0  0  0  0  0
  193.1880  174.3230  143.8850 C   0  0  0  0  0  3  0  0  0  0  0  0
  188.5230  175.0030  147.3880 O   0  0  0  0  0  0  0  0  0  0  0  0
  192.7830  174.8310  146.2990 C   0  0  1  0  0  3  0  0  0  0  0  0
  190.1140  174.0110  143.9330 C   0  0  0  0  0  3  0  0  0  0  0  0
  189.0440  175.4520  146.3320 C   0  0  0  0  0  0  0  0  0  0  0  0
  190.9060  174.6440  144.8060 C   0  0  0  0  0  0  0  0  0  0  0  0
  193.3580  172.1640  140.5070 C   0  0  0  0  0  2  0  0  0  0  0  0
  191.9740  172.1440  141.1300 C   0  0  1  0  0  0  0  0  0  0  0  0
  191.4000  170.8570  141.2890 O   0  0  0  0  0  0  0  0  0  0  0  0
  191.4490  171.2050  138.9100 C   0  0  1  0  0  3  0  0  0  0  0  0
  190.5990  169.1570  139.9360 O   0  0  0  0  0  0  0  0  0  0  0  0
  192.1190  172.4040  139.6310 C   0  0  2  0  0  0  0  0  0  0  0  0
  191.0930  170.3110  140.0590 C   0  0  0  0  0  0  0  0  0  0  0  0
  192.6720  174.0120  138.1640 C   0  0  0  0  0  1  0  0  0  0  0  0
  191.8290  173.7250  139.2460 O   0  0  0  0  0  0  0  0  0  0  0  0
  190.1930  171.6100  138.1120 C   0  0  2  0  0  3  0  0  0  0  0  0
  189.0860  171.7340  138.9580 O   0  0  0  0  0  1  0  0  0  0  0  0
  189.3490  171.2520  135.8920 O   0  0  0  0  0  1  0  0  0  0  0  0
  189.8640  170.6060  137.0180 C   0  0  0  0  0  2  0  0  0  0  0  0
  193.6630  175.9900  146.2970 N   0  0  0  0  0  2  0  0  0  0  0  0
  194.9200  175.5440  146.5240 O   0  0  0  0  0  1  0  0  0  0  0  0
  188.2450  176.3290  145.4110 C   0  0  1  0  0  3  0  0  0  0  0  0
  186.3850  178.5800  147.7630 C   0  0  0  0  0  3  0  0  0  0  0  0
  185.0510  178.3130  147.4400 C   0  0  0  0  0  3  0  0  0  0  0  0
  187.3860  177.9330  147.1080 N   0  0  0  0  0  0  0  0  0  0  0  0
  187.1290  177.0150  146.1300 C   0  0  0  0  0  0  0  0  0  0  0  0
  184.7650  177.3820  146.4350 C   0  0  0  0  0  3  0  0  0  0  0  0
  185.8060  176.7310  145.7710 C   0  0  0  0  0  3  0  0  0  0  0  0
  189.9360  178.3510  142.8640 O   0  0  0  0  0  0  0  0  0  0  0  0
  189.0990  177.5520  143.3540 C   0  0  0  0  0  0  0  0  0  0  0  0
  189.1020  177.3150  144.7610 N   0  0  0  0  0  2  0  0  0  0  0  0
  188.1360  176.8530  142.4520 C   0  0  0  0  0  2  0  0  0  0  0  0
  187.3300  177.8550  141.6470 C   0  0  0  0  0  2  0  0  0  0  0  0
  185.0250  177.3580  142.4560 O   0  0  0  0  0  0  0  0  0  0  0  0
  186.1100  178.2240  142.4110 C   0  0  0  0  0  0  0  0  0  0  0  0
  186.0700  179.3040  143.0450 O   0  0  0  0  0  1  0  0  0  0  0  0
  2  5  1  0  0  0  0
  2  4  2  0  0  0  0
  3 11  1  0  0  0  0
  3  1  1  0  0  0  0
  4 10  1  0  0  0  0
  5  7  1  0  0  0  0
  6  9  1  0  0  0  0
  7  6  2  0  0  0  0
  9 26  1  6  0  0  0
  9  1  1  0  0  0  0
 10 12  2  0  0  0  0
 11  8  2  0  0  0  0
 12  6  1  0  0  0  0
 12  3  1  0  0  0  0
 13 14  1  0  0  0  0
 14 15  1  0  0  0  0
 14  2  1  1  0  0  0
 16 22  1  1  0  0  0
 16 18  1  0  0  0  0
 16 19  1  0  0  0  0
 17 19  2  0  0  0  0
 18 21  1  6  0  0  0
 18 13  1  0  0  0  0
 18 14  1  0  0  0  0
 19 15  1  0  0  0  0
 20 21  1  0  0  0  0
 22 23  1  1  0  0  0
 24 25  1  0  0  0  0
 25 22  1  0  0  0  0
 26 27  1  0  0  0  0
 28 37  1  1  0  0  0
 28 32  1  0  0  0  0
 28 11  1  0  0  0  0
 30 29  1  0  0  0  0
 31 29  2  0  0  0  0
 32 31  1  0  0  0  0
 33 30  2  0  0  0  0
 34 32  2  0  0  0  0
 34 33  1  0  0  0  0
 35 36  2  0  0  0  0
 36 37  1  0  0  0  0
 38 36  1  0  0  0  0
 39 41  1  0  0  0  0
 39 38  1  0  0  0  0
 41 40  2  0  0  0  0
 41 42  1  0  0  0  0
M  END
>  <MODEL>
1

>  <REMARK>
 VINA RESULT:      -7.1      0.000      0.000
  Name = 
  11 active torsions:
  status: ('A' for Active; 'I' for Inactive)
    1  A    between atoms: C_2  and  C_12
    2  A    between atoms: C_2  and  C_34
    3  A    between atoms: C_5  and  C_13
    4  A    between atoms: C_9  and  C_24
    5  A    between atoms: C_9  and  C_35
    6  A    between atoms: C_11  and  C_16
    7  A    between atoms: C_11  and  N_33
    8  A    between atoms: C_11  and  C_36
    9  A    between atoms: N_20  and  C_30
   10  A    between atoms: C_29  and  C_34
   11  A    between atoms: O_37  and  C_41
                            x       y       z     vdW  Elec       q    Type
                         _______ _______ _______ _____ _____    ______ ____

>  <TORSDO>
F 11

$$$$
=
 OpenBabel11062420043D

 42 46  0  0  1  0  0  0  0  0999 V2000
  191.4260  175.2630  146.1690 C   0  0  0  0  0  2  0  0  0  0  0  0
  190.6120  172.6650  141.6820 C   0  0  0  0  0  0  0  0  0  0  0  0
  190.1780  175.1600  145.4210 N   0  0  0  0  0  0  0  0  0  0  0  0
  189.5900  172.7690  142.5330 C   0  0  0  0  0  3  0  0  0  0  0  0
  191.6720  173.7210  141.5980 C   0  0  0  0  0  2  0  0  0  0  0  0
  191.8160  174.3030  144.0030 C   0  0  0  0  0  0  0  0  0  0  0  0
  192.4180  173.9330  142.8750 C   0  0  0  0  0  3  0  0  0  0  0  0
  188.6120  175.2670  147.1450 O   0  0  0  0  0  0  0  0  0  0  0  0
  192.5420  174.7600  145.2310 C   0  0  1  0  0  3  0  0  0  0  0  0
  189.4170  173.7750  143.5990 C   0  0  0  0  0  3  0  0  0  0  0  0
  188.9070  175.5550  145.9540 C   0  0  0  0  0  0  0  0  0  0  0  0
  190.3880  174.4750  144.1970 C   0  0  0  0  0  0  0  0  0  0  0  0
  190.6900  170.1250  141.4160 C   0  0  0  0  0  2  0  0  0  0  0  0
  190.6070  171.4850  140.7450 C   0  0  1  0  0  0  0  0  0  0  0  0
  189.8060  171.5360  139.5770 O   0  0  0  0  0  0  0  0  0  0  0  0
  191.7000  170.1950  138.9490 C   0  0  1  0  0  3  0  0  0  0  0  0
  189.8600  170.6950  137.4200 O   0  0  0  0  0  0  0  0  0  0  0  0
  191.7980  170.5730  140.4500 C   0  0  2  0  0  0  0  0  0  0  0  0
  190.3980  170.8230  138.5540 C   0  0  0  0  0  0  0  0  0  0  0  0
  193.7950  169.8710  141.1990 C   0  0  0  0  0  1  0  0  0  0  0  0
  193.0130  171.0170  141.0000 O   0  0  0  0  0  0  0  0  0  0  0  0
  192.8650  170.7590  138.1110 C   0  0  2  0  0  3  0  0  0  0  0  0
  192.6370  172.0990  137.7820 O   0  0  0  0  0  1  0  0  0  0  0  0
  192.7650  170.7450  135.7110 O   0  0  0  0  0  1  0  0  0  0  0  0
  193.0810  169.9690  136.8280 C   0  0  0  0  0  2  0  0  0  0  0  0
  193.4230  175.8670  144.8930 N   0  0  0  0  0  2  0  0  0  0  0  0
  193.2650  176.8150  145.8450 O   0  0  0  0  0  1  0  0  0  0  0  0
  187.9480  176.3450  145.1110 C   0  0  1  0  0  3  0  0  0  0  0  0
  186.3680  178.6060  147.6500 C   0  0  0  0  0  3  0  0  0  0  0  0
  185.0050  178.3550  147.4670 C   0  0  0  0  0  3  0  0  0  0  0  0
  187.2890  177.9510  146.8930 N   0  0  0  0  0  0  0  0  0  0  0  0
  186.9200  177.0400  145.9440 C   0  0  0  0  0  0  0  0  0  0  0  0
  184.6060  177.4330  146.4940 C   0  0  0  0  0  3  0  0  0  0  0  0
  185.5650  176.7730  145.7230 C   0  0  0  0  0  3  0  0  0  0  0  0
  189.2260  178.2070  142.2230 O   0  0  0  0  0  0  0  0  0  0  0  0
  188.5030  177.4090  142.8700 C   0  0  0  0  0  0  0  0  0  0  0  0
  188.6620  177.3140  144.2850 N   0  0  0  0  0  2  0  0  0  0  0  0
  187.5090  176.5630  142.1440 C   0  0  0  0  0  2  0  0  0  0  0  0
  186.1600  177.2540  142.0800 C   0  0  0  0  0  2  0  0  0  0  0  0
  184.8070  178.5100  140.4050 O   0  0  0  0  0  1  0  0  0  0  0  0
  185.9320  177.7480  140.6980 C   0  0  0  0  0  0  0  0  0  0  0  0
  186.7710  177.5080  139.7990 O   0  0  0  0  0  0  0  0  0  0  0  0
  2  4  2  0  0  0  0
  3 11  1  0  0  0  0
  3  1  1  0  0  0  0
  4 10  1  0  0  0  0
  5  2  1  0  0  0  0
  5  7  1  0  0  0  0
  6 12  1  0  0  0  0
  6  9  1  0  0  0  0
  7  6  2  0  0  0  0
  9 26  1  6  0  0  0
  9  1  1  0  0  0  0
 10 12  2  0  0  0  0
 11  8  2  0  0  0  0
 12  3  1  0  0  0  0
 14 13  1  0  0  0  0
 14  2  1  1  0  0  0
 15 14  1  0  0  0  0
 16 22  1  6  0  0  0
 16 18  1  0  0  0  0
 17 19  2  0  0  0  0
 18 14  1  0  0  0  0
 18 21  1  1  0  0  0
 18 13  1  0  0  0  0
 19 16  1  0  0  0  0
 19 15  1  0  0  0  0
 21 20  1  0  0  0  0
 22 23  1  6  0  0  0
 24 25  1  0  0  0  0
 25 22  1  0  0  0  0
 26 27  1  0  0  0  0
 28 37  1  1  0  0  0
 28 32  1  0  0  0  0
 28 11  1  0  0  0  0
 30 29  1  0  0  0  0
 31 29  2  0  0  0  0
 32 31  1  0  0  0  0
 33 30  2  0  0  0  0
 34 32  2  0  0  0  0
 34 33  1  0  0  0  0
 35 36  2  0  0  0  0
 36 37  1  0  0  0  0
 38 36  1  0  0  0  0
 39 38  1  0  0  0  0
 40 41  1  0  0  0  0
 41 39  1  0  0  0  0
 42 41  2  0  0  0  0
M  END
>  <MODEL>
2

>  <REMARK>
 VINA RESULT:      -6.7      1.423      2.005
  Name = 
  11 active torsions:
  status: ('A' for Active; 'I' for Inactive)
    1  A    between atoms: C_2  and  C_12
    2  A    between atoms: C_2  and  C_34
    3  A    between atoms: C_5  and  C_13
    4  A    between atoms: C_9  and  C_24
    5  A    between atoms: C_9  and  C_35
    6  A    between atoms: C_11  and  C_16
    7  A    between atoms: C_11  and  N_33
    8  A    between atoms: C_11  and  C_36
    9  A    between atoms: N_20  and  C_30
   10  A    between atoms: C_29  and  C_34
   11  A    between atoms: O_37  and  C_41
                            x       y       z     vdW  Elec       q    Type
                         _______ _______ _______ _____ _____    ______ ____

>  <TORSDO>
F 11

$$$$
=
 OpenBabel11062420043D

 42 46  0  0  1  0  0  0  0  0999 V2000
  188.4720  177.9420  142.2890 C   0  0  0  0  0  2  0  0  0  0  0  0
  190.1530  173.2230  140.7230 C   0  0  0  0  0  0  0  0  0  0  0  0
  189.4860  177.1080  142.9260 N   0  0  0  0  0  0  0  0  0  0  0  0
  191.0210  174.0110  141.3600 C   0  0  0  0  0  3  0  0  0  0  0  0
  188.6820  173.2910  141.0020 C   0  0  0  0  0  2  0  0  0  0  0  0
  188.4740  175.7380  141.3360 C   0  0  0  0  0  0  0  0  0  0  0  0
  188.0740  174.6260  140.7230 C   0  0  0  0  0  3  0  0  0  0  0  0
  190.8850  178.7290  143.8480 O   0  0  0  0  0  0  0  0  0  0  0  0
  187.7420  177.0430  141.2710 C   0  0  1  0  0  3  0  0  0  0  0  0
  190.7070  175.1380  142.2590 C   0  0  0  0  0  3  0  0  0  0  0  0
  190.3650  177.5860  143.9520 C   0  0  0  0  0  0  0  0  0  0  0  0
  189.5740  175.8510  142.2750 C   0  0  0  0  0  0  0  0  0  0  0  0
  192.2340  172.0550  139.8100 C   0  0  0  0  0  2  0  0  0  0  0  0
  190.7240  172.1990  139.7760 C   0  0  1  0  0  0  0  0  0  0  0  0
  190.0060  170.9980  139.5460 O   0  0  0  0  0  0  0  0  0  0  0  0
  191.1270  171.4370  137.4640 C   0  0  1  0  0  3  0  0  0  0  0  0
  189.7030  169.4830  137.8210 O   0  0  0  0  0  0  0  0  0  0  0  0
  191.5360  172.5010  138.5170 C   0  0  2  0  0  0  0  0  0  0  0  0
  190.2120  170.5520  138.2560 C   0  0  0  0  0  0  0  0  0  0  0  0
  192.8430  174.0790  137.5990 C   0  0  0  0  0  1  0  0  0  0  0  0
  191.5840  173.8640  138.1760 O   0  0  0  0  0  0  0  0  0  0  0  0
  190.3970  172.0440  136.2490 C   0  0  2  0  0  3  0  0  0  0  0  0
  189.0780  172.3750  136.5770 O   0  0  0  0  0  1  0  0  0  0  0  0
  191.6040  170.4300  134.9430 O   0  0  0  0  0  1  0  0  0  0  0  0
  190.3830  171.0960  135.0590 C   0  0  0  0  0  2  0  0  0  0  0  0
  186.3640  176.8500  141.7000 N   0  0  0  0  0  2  0  0  0  0  0  0
  185.6560  177.9220  141.2780 O   0  0  0  0  0  1  0  0  0  0  0  0
  190.6330  176.7450  145.1680 C   0  0  1  0  0  3  0  0  0  0  0  0
  194.2400  176.0750  144.3990 C   0  0  0  0  0  3  0  0  0  0  0  0
  194.8090  176.0020  145.6740 C   0  0  0  0  0  3  0  0  0  0  0  0
  192.9070  176.3070  144.2610 N   0  0  0  0  0  0  0  0  0  0  0  0
  192.0910  176.4730  145.3440 C   0  0  0  0  0  0  0  0  0  0  0  0
  193.9930  176.1780  146.7970 C   0  0  0  0  0  3  0  0  0  0  0  0
  192.6280  176.4190  146.6350 C   0  0  0  0  0  3  0  0  0  0  0  0
  188.3160  178.0300  147.7020 O   0  0  0  0  0  0  0  0  0  0  0  0
  188.7070  177.3780  146.7020 C   0  0  0  0  0  0  0  0  0  0  0  0
  190.0940  177.3810  146.3660 N   0  0  0  0  0  2  0  0  0  0  0  0
  187.7120  176.6310  145.8760 C   0  0  0  0  0  2  0  0  0  0  0  0
  186.3350  176.6920  146.5090 C   0  0  0  0  0  2  0  0  0  0  0  0
  184.1910  177.9140  146.1580 O   0  0  0  0  0  1  0  0  0  0  0  0
  185.4960  177.6590  145.7550 C   0  0  0  0  0  0  0  0  0  0  0  0
  185.9740  178.2730  144.7730 O   0  0  0  0  0  0  0  0  0  0  0  0
  1  3  1  0  0  0  0
  2  5  1  0  0  0  0
  2  4  2  0  0  0  0
  3 11  1  0  0  0  0
  4 10  1  0  0  0  0
  6 12  1  0  0  0  0
  7  5  1  0  0  0  0
  7  6  2  0  0  0  0
  8 11  2  0  0  0  0
  9  6  1  0  0  0  0
  9 26  1  1  0  0  0
  9  1  1  0  0  0  0
 10 12  2  0  0  0  0
 12  3  1  0  0  0  0
 14 13  1  0  0  0  0
 14  2  1  1  0  0  0
 15 14  1  0  0  0  0
 16 22  1  6  0  0  0
 16 19  1  0  0  0  0
 16 18  1  0  0  0  0
 17 19  2  0  0  0  0
 18 21  1  6  0  0  0
 18 14  1  0  0  0  0
 18 13  1  0  0  0  0
 19 15  1  0  0  0  0
 20 21  1  0  0  0  0
 22 23  1  1  0  0  0
 24 25  1  0  0  0  0
 25 22  1  0  0  0  0
 27 26  1  0  0  0  0
 28 11  1  6  0  0  0
 28 32  1  0  0  0  0
 28 37  1  0  0  0  0
 29 30  1  0  0  0  0
 30 33  2  0  0  0  0
 31 29  2  0  0  0  0
 31 32  1  0  0  0  0
 32 34  2  0  0  0  0
 34 33  1  0  0  0  0
 36 35  2  0  0  0  0
 37 36  1  0  0  0  0
 38 39  1  0  0  0  0
 38 36  1  0  0  0  0
 41 40  1  0  0  0  0
 41 39  1  0  0  0  0
 42 41  2  0  0  0  0
M  END
>  <MODEL>
3

>  <REMARK>
 VINA RESULT:      -6.5      1.937      4.877
  Name = 
  11 active torsions:
  status: ('A' for Active; 'I' for Inactive)
    1  A    between atoms: C_2  and  C_12
    2  A    between atoms: C_2  and  C_34
    3  A    between atoms: C_5  and  C_13
    4  A    between atoms: C_9  and  C_24
    5  A    between atoms: C_9  and  C_35
    6  A    between atoms: C_11  and  C_16
    7  A    between atoms: C_11  and  N_33
    8  A    between atoms: C_11  and  C_36
    9  A    between atoms: N_20  and  C_30
   10  A    between atoms: C_29  and  C_34
   11  A    between atoms: O_37  and  C_41
                            x       y       z     vdW  Elec       q    Type
                         _______ _______ _______ _____ _____    ______ ____

>  <TORSDO>
F 11

$$$$
=
 OpenBabel11062420043D

 42 46  0  0  1  0  0  0  0  0999 V2000
  188.3270  175.1620  141.3120 C   0  0  0  0  0  2  0  0  0  0  0  0
  193.2720  175.2050  143.0710 C   0  0  0  0  0  0  0  0  0  0  0  0
  188.8490  175.8850  142.4670 N   0  0  0  0  0  0  0  0  0  0  0  0
  192.5370  176.3010  143.2600 C   0  0  0  0  0  3  0  0  0  0  0  0
  192.6490  173.8430  143.0190 C   0  0  0  0  0  2  0  0  0  0  0  0
  190.5550  174.4300  141.8320 C   0  0  0  0  0  0  0  0  0  0  0  0
  191.6470  173.6760  141.9240 C   0  0  0  0  0  3  0  0  0  0  0  0
  187.4640  177.7600  142.4850 O   0  0  0  0  0  0  0  0  0  0  0  0
  189.4130  174.1450  140.9050 C   0  0  1  0  0  3  0  0  0  0  0  0
  191.0640  176.3950  143.2730 C   0  0  0  0  0  3  0  0  0  0  0  0
  188.1160  176.9110  143.1490 C   0  0  0  0  0  0  0  0  0  0  0  0
  190.2080  175.5470  142.6910 C   0  0  0  0  0  0  0  0  0  0  0  0
  195.2430  176.5000  142.0870 C   0  0  0  0  0  2  0  0  0  0  0  0
  194.7670  175.3850  143.0000 C   0  0  1  0  0  0  0  0  0  0  0  0
  195.5400  175.1910  144.1720 O   0  0  0  0  0  0  0  0  0  0  0  0
  196.9850  174.5030  142.3780 C   0  0  1  0  0  3  0  0  0  0  0  0
  197.6690  174.4670  144.7240 O   0  0  0  0  0  0  0  0  0  0  0  0
  195.6520  175.0480  141.8010 C   0  0  2  0  0  0  0  0  0  0  0  0
  196.7870  174.6940  143.8510 C   0  0  0  0  0  0  0  0  0  0  0  0
  195.2640  175.0700  139.5890 C   0  0  0  0  0  1  0  0  0  0  0  0
  194.9860  174.3650  140.7680 O   0  0  0  0  0  0  0  0  0  0  0  0
  197.2240  173.0180  142.0380 C   0  0  2  0  0  3  0  0  0  0  0  0
  197.4960  172.8580  140.6750 O   0  0  0  0  0  1  0  0  0  0  0  0
  196.4070  171.1400  143.2930 O   0  0  0  0  0  1  0  0  0  0  0  0
  196.0300  172.1490  142.4050 C   0  0  0  0  0  2  0  0  0  0  0  0
  188.9210  172.7950  141.1400 N   0  0  0  0  0  2  0  0  0  0  0  0
  189.2050  172.0640  140.0380 O   0  0  0  0  0  1  0  0  0  0  0  0
  188.0900  176.9480  144.6500 C   0  0  1  0  0  3  0  0  0  0  0  0
  185.3320  179.3930  145.3350 C   0  0  0  0  0  3  0  0  0  0  0  0
  184.4440  178.6360  146.1030 C   0  0  0  0  0  3  0  0  0  0  0  0
  186.4900  178.8380  144.8870 N   0  0  0  0  0  0  0  0  0  0  0  0
  186.8210  177.5430  145.1680 C   0  0  0  0  0  0  0  0  0  0  0  0
  184.7590  177.3040  146.3960 C   0  0  0  0  0  3  0  0  0  0  0  0
  185.9500  176.7500  145.9240 C   0  0  0  0  0  3  0  0  0  0  0  0
  189.4130  174.1090  146.5560 O   0  0  0  0  0  0  0  0  0  0  0  0
  189.2520  175.3040  146.2020 C   0  0  0  0  0  0  0  0  0  0  0  0
  188.2780  175.6110  145.2050 N   0  0  0  0  0  2  0  0  0  0  0  0
  190.0950  176.3720  146.8160 C   0  0  0  0  0  2  0  0  0  0  0  0
  191.1710  175.7670  147.6980 C   0  0  0  0  0  2  0  0  0  0  0  0
  192.8680  174.4610  146.4220 O   0  0  0  0  0  0  0  0  0  0  0  0
  192.4390  175.6820  146.9280 C   0  0  0  0  0  0  0  0  0  0  0  0
  193.1080  176.7170  146.7050 O   0  0  0  0  0  1  0  0  0  0  0  0
  1  3  1  0  0  0  0
  2  4  2  0  0  0  0
  3 12  1  0  0  0  0
  3 11  1  0  0  0  0
  4 10  1  0  0  0  0
  5  2  1  0  0  0  0
  6  7  2  0  0  0  0
  6 12  1  0  0  0  0
  7  5  1  0  0  0  0
  8 11  2  0  0  0  0
  9 26  1  1  0  0  0
  9  1  1  0  0  0  0
  9  6  1  0  0  0  0
 12 10  2  0  0  0  0
 13 14  1  0  0  0  0
 14  2  1  6  0  0  0
 14 15  1  0  0  0  0
 16 22  1  1  0  0  0
 16 19  1  0  0  0  0
 18 21  1  6  0  0  0
 18 13  1  0  0  0  0
 18 16  1  0  0  0  0
 18 14  1  0  0  0  0
 19 15  1  0  0  0  0
 19 17  2  0  0  0  0
 20 21  1  0  0  0  0
 22 23  1  6  0  0  0
 22 25  1  0  0  0  0
 25 24  1  0  0  0  0
 27 26  1  0  0  0  0
 28 11  1  6  0  0  0
 28 32  1  0  0  0  0
 28 37  1  0  0  0  0
 29 30  1  0  0  0  0
 30 33  2  0  0  0  0
 31 32  1  0  0  0  0
 31 29  2  0  0  0  0
 32 34  2  0  0  0  0
 34 33  1  0  0  0  0
 36 35  2  0  0  0  0
 36 38  1  0  0  0  0
 37 36  1  0  0  0  0
 38 39  1  0  0  0  0
 40 41  2  0  0  0  0
 41 39  1  0  0  0  0
 42 41  1  0  0  0  0
M  END
>  <MODEL>
4

>  <REMARK>
 VINA RESULT:      -6.4      2.671      5.748
  Name = 
  11 active torsions:
  status: ('A' for Active; 'I' for Inactive)
    1  A    between atoms: C_2  and  C_12
    2  A    between atoms: C_2  and  C_34
    3  A    between atoms: C_5  and  C_13
    4  A    between atoms: C_9  and  C_24
    5  A    between atoms: C_9  and  C_35
    6  A    between atoms: C_11  and  C_16
    7  A    between atoms: C_11  and  N_33
    8  A    between atoms: C_11  and  C_36
    9  A    between atoms: N_20  and  C_30
   10  A    between atoms: C_29  and  C_34
   11  A    between atoms: O_37  and  C_41
                            x       y       z     vdW  Elec       q    Type
                         _______ _______ _______ _____ _____    ______ ____

>  <TORSDO>
F 11

$$$$
=
 OpenBabel11062420043D

 42 46  0  0  1  0  0  0  0  0999 V2000
  195.3270  172.0260  141.2970 C   0  0  0  0  0  2  0  0  0  0  0  0
  191.1120  174.3770  143.3590 C   0  0  0  0  0  0  0  0  0  0  0  0
  194.8660  171.9620  142.6790 N   0  0  0  0  0  0  0  0  0  0  0  0
  191.4930  173.2120  143.8850 C   0  0  0  0  0  3  0  0  0  0  0  0
  192.1010  175.3180  142.7410 C   0  0  0  0  0  2  0  0  0  0  0  0
  193.6030  173.6510  141.6900 C   0  0  0  0  0  0  0  0  0  0  0  0
  192.8460  174.7400  141.5830 C   0  0  0  0  0  3  0  0  0  0  0  0
  195.5700  169.8240  143.2870 O   0  0  0  0  0  0  0  0  0  0  0  0
  194.5510  173.1790  140.6300 C   0  0  1  0  0  3  0  0  0  0  0  0
  192.8300  172.5930  143.8060 C   0  0  0  0  0  3  0  0  0  0  0  0
  195.3730  171.0190  143.6330 C   0  0  0  0  0  0  0  0  0  0  0  0
  193.7620  172.8290  142.8750 C   0  0  0  0  0  0  0  0  0  0  0  0
  188.6750  173.6230  143.2120 C   0  0  0  0  0  2  0  0  0  0  0  0
  189.6570  174.7470  143.4910 C   0  0  1  0  0  0  0  0  0  0  0  0
  189.2670  175.6540  144.5080 O   0  0  0  0  0  0  0  0  0  0  0  0
  187.7210  176.0620  142.7120 C   0  0  1  0  0  3  0  0  0  0  0  0
  187.6350  177.2640  144.8380 O   0  0  0  0  0  0  0  0  0  0  0  0
  188.6620  174.8860  142.3390 C   0  0  2  0  0  0  0  0  0  0  0  0
  188.1850  176.4060  144.0940 C   0  0  0  0  0  0  0  0  0  0  0  0
  188.2000  174.5540  140.1670 C   0  0  0  0  0  1  0  0  0  0  0  0
  189.2460  174.8130  141.0620 O   0  0  0  0  0  0  0  0  0  0  0  0
  187.8640  177.2690  141.7620 C   0  0  2  0  0  3  0  0  0  0  0  0
  188.9760  178.0440  142.1090 O   0  0  0  0  0  1  0  0  0  0  0  0
  185.9560  178.0820  140.5520 O   0  0  0  0  0  1  0  0  0  0  0  0
  186.6270  178.1550  141.7740 C   0  0  0  0  0  2  0  0  0  0  0  0
  195.4760  174.2510  140.2920 N   0  0  0  0  0  2  0  0  0  0  0  0
  195.0970  174.7480  139.0920 O   0  0  0  0  0  1  0  0  0  0  0  0
  195.7080  171.4640  145.0280 C   0  0  1  0  0  3  0  0  0  0  0  0
  197.4750  168.7890  146.9720 C   0  0  0  0  0  3  0  0  0  0  0  0
  196.4230  168.1660  147.6480 C   0  0  0  0  0  3  0  0  0  0  0  0
  197.2250  169.8340  146.1380 N   0  0  0  0  0  0  0  0  0  0  0  0
  195.9580  170.3030  145.9350 C   0  0  0  0  0  0  0  0  0  0  0  0
  195.1180  168.6360  147.4610 C   0  0  0  0  0  3  0  0  0  0  0  0
  194.8810  169.7120  146.6050 C   0  0  0  0  0  3  0  0  0  0  0  0
  197.8040  174.4710  145.0900 O   0  0  0  0  0  0  0  0  0  0  0  0
  196.7690  173.7670  145.2020 C   0  0  0  0  0  0  0  0  0  0  0  0
  196.8640  172.3540  145.0250 N   0  0  0  0  0  2  0  0  0  0  0  0
  195.4610  174.4240  145.4960 C   0  0  0  0  0  2  0  0  0  0  0  0
  195.3710  175.7730  144.8080 C   0  0  0  0  0  2  0  0  0  0  0  0
  193.3920  176.2010  146.2630 O   0  0  0  0  0  1  0  0  0  0  0  0
  194.5320  176.6820  145.6300 C   0  0  0  0  0  0  0  0  0  0  0  0
  194.8680  177.8790  145.7830 O   0  0  0  0  0  0  0  0  0  0  0  0
  1  3  1  0  0  0  0
  2  4  2  0  0  0  0
  3 12  1  0  0  0  0
  3 11  1  0  0  0  0
  5  2  1  0  0  0  0
  6 12  1  0  0  0  0
  7  6  2  0  0  0  0
  7  5  1  0  0  0  0
  8 11  2  0  0  0  0
  9 26  1  1  0  0  0
  9  1  1  0  0  0  0
  9  6  1  0  0  0  0
 10  4  1  0  0  0  0
 12 10  2  0  0  0  0
 13 14  1  0  0  0  0
 14  2  1  6  0  0  0
 14 15  1  0  0  0  0
 16 22  1  6  0  0  0
 16 19  1  0  0  0  0
 18 21  1  6  0  0  0
 18 16  1  0  0  0  0
 18 13  1  0  0  0  0
 18 14  1  0  0  0  0
 19 15  1  0  0  0  0
 19 17  2  0  0  0  0
 20 21  1  0  0  0  0
 22 25  1  0  0  0  0
 22 23  1  1  0  0  0
 24 25  1  0  0  0  0
 27 26  1  0  0  0  0
 28 11  1  6  0  0  0
 28 32  1  0  0  0  0
 29 30  1  0  0  0  0
 31 29  2  0  0  0  0
 32 31  1  0  0  0  0
 32 34  2  0  0  0  0
 33 30  2  0  0  0  0
 34 33  1  0  0  0  0
 35 36  2  0  0  0  0
 36 38  1  0  0  0  0
 37 28  1  0  0  0  0
 37 36  1  0  0  0  0
 39 38  1  0  0  0  0
 39 41  1  0  0  0  0
 41 42  2  0  0  0  0
 41 40  1  0  0  0  0
M  END
>  <MODEL>
5

>  <REMARK>
 VINA RESULT:      -6.2      3.858      8.250
  Name = 
  11 active torsions:
  status: ('A' for Active; 'I' for Inactive)
    1  A    between atoms: C_2  and  C_12
    2  A    between atoms: C_2  and  C_34
    3  A    between atoms: C_5  and  C_13
    4  A    between atoms: C_9  and  C_24
    5  A    between atoms: C_9  and  C_35
    6  A    between atoms: C_11  and  C_16
    7  A    between atoms: C_11  and  N_33
    8  A    between atoms: C_11  and  C_36
    9  A    between atoms: N_20  and  C_30
   10  A    between atoms: C_29  and  C_34
   11  A    between atoms: O_37  and  C_41
                            x       y       z     vdW  Elec       q    Type
                         _______ _______ _______ _____ _____    ______ ____

>  <TORSDO>
F 11

$$$$
=
 OpenBabel11062420043D

 42 46  0  0  1  0  0  0  0  0999 V2000
  191.0590  171.2300  142.1440 C   0  0  0  0  0  2  0  0  0  0  0  0
  189.6560  176.0550  143.6590 C   0  0  0  0  0  0  0  0  0  0  0  0
  191.9220  172.2720  142.6900 N   0  0  0  0  0  0  0  0  0  0  0  0
  190.6790  175.4780  144.2930 C   0  0  0  0  0  3  0  0  0  0  0  0
  189.3480  175.7470  142.2260 C   0  0  0  0  0  2  0  0  0  0  0  0
  189.8980  173.3300  142.2330 C   0  0  0  0  0  0  0  0  0  0  0  0
  189.0360  174.3090  141.9690 C   0  0  0  0  0  3  0  0  0  0  0  0
  193.5220  170.9910  143.8020 O   0  0  0  0  0  0  0  0  0  0  0  0
  189.7280  171.9140  141.7740 C   0  0  1  0  0  3  0  0  0  0  0  0
  191.5260  174.3770  143.7980 C   0  0  0  0  0  3  0  0  0  0  0  0
  193.2630  172.0280  143.1350 C   0  0  0  0  0  0  0  0  0  0  0  0
  191.1960  173.4770  142.8640 C   0  0  0  0  0  0  0  0  0  0  0  0
  189.5580  177.6330  145.6680 C   0  0  0  0  0  2  0  0  0  0  0  0
  188.8780  177.0970  144.4200 C   0  0  1  0  0  0  0  0  0  0  0  0
  188.1050  178.0430  143.6990 O   0  0  0  0  0  0  0  0  0  0  0  0
  186.8940  177.7160  145.7500 C   0  0  1  0  0  3  0  0  0  0  0  0
  186.1560  179.2560  144.0020 O   0  0  0  0  0  0  0  0  0  0  0  0
  188.2130  176.8990  145.7820 C   0  0  2  0  0  0  0  0  0  0  0  0
  186.9860  178.4030  144.4220 C   0  0  0  0  0  0  0  0  0  0  0  0
  188.2430  175.6360  147.6390 C   0  0  0  0  0  1  0  0  0  0  0  0
  188.2220  175.5700  146.2390 O   0  0  0  0  0  0  0  0  0  0  0  0
  185.6360  176.8260  145.8290 C   0  0  2  0  0  3  0  0  0  0  0  0
  185.2330  176.4210  144.5520 O   0  0  0  0  0  1  0  0  0  0  0  0
  184.9390  178.4320  147.4740 O   0  0  0  0  0  1  0  0  0  0  0  0
  184.4750  177.5390  146.5060 C   0  0  0  0  0  2  0  0  0  0  0  0
  189.5590  171.8890  140.3290 N   0  0  0  0  0  2  0  0  0  0  0  0
  190.4550  171.0050  139.8320 O   0  0  0  0  0  1  0  0  0  0  0  0
  194.3640  172.9830  142.7710 C   0  0  1  0  0  3  0  0  0  0  0  0
  197.4500  172.6150  144.8670 C   0  0  0  0  0  3  0  0  0  0  0  0
  197.1890  173.4740  145.9380 C   0  0  0  0  0  3  0  0  0  0  0  0
  196.5350  172.4690  143.8720 N   0  0  0  0  0  0  0  0  0  0  0  0
  195.3480  173.1450  143.8840 C   0  0  0  0  0  0  0  0  0  0  0  0
  195.9820  174.1820  145.9660 C   0  0  0  0  0  3  0  0  0  0  0  0
  195.0570  174.0230  144.9340 C   0  0  0  0  0  3  0  0  0  0  0  0
  195.6560  172.8500  139.3430 O   0  0  0  0  0  0  0  0  0  0  0  0
  195.1310  173.3390  140.3740 C   0  0  0  0  0  0  0  0  0  0  0  0
  195.0480  172.5460  141.5580 N   0  0  0  0  0  2  0  0  0  0  0  0
  194.5870  174.7290  140.3330 C   0  0  0  0  0  2  0  0  0  0  0  0
  195.6820  175.7420  140.6070 C   0  0  0  0  0  2  0  0  0  0  0  0
  194.1800  176.4090  142.4820 O   0  0  0  0  0  0  0  0  0  0  0  0
  195.4610  176.3460  141.9470 C   0  0  0  0  0  0  0  0  0  0  0  0
  196.4340  176.7700  142.6120 O   0  0  0  0  0  1  0  0  0  0  0  0
  1  3  1  0  0  0  0
  2  4  2  0  0  0  0
  3 12  1  0  0  0  0
  3 11  1  0  0  0  0
  5  2  1  0  0  0  0
  6 12  1  0  0  0  0
  7  5  1  0  0  0  0
  7  6  2  0  0  0  0
  9 26  1  6  0  0  0
  9  1  1  0  0  0  0
  9  6  1  0  0  0  0
 10  4  1  0  0  0  0
 11  8  2  0  0  0  0
 12 10  2  0  0  0  0
 13 18  1  0  0  0  0
 14  2  1  6  0  0  0
 14 13  1  0  0  0  0
 14 18  1  0  0  0  0
 15 14  1  0  0  0  0
 15 19  1  0  0  0  0
 16 18  1  0  0  0  0
 16 22  1  6  0  0  0
 17 19  2  0  0  0  0
 18 21  1  1  0  0  0
 19 16  1  0  0  0  0
 21 20  1  0  0  0  0
 22 23  1  6  0  0  0
 22 25  1  0  0  0  0
 25 24  1  0  0  0  0
 27 26  1  0  0  0  0
 28 37  1  6  0  0  0
 28 11  1  0  0  0  0
 28 32  1  0  0  0  0
 29 30  1  0  0  0  0
 30 33  2  0  0  0  0
 31 32  1  0  0  0  0
 31 29  2  0  0  0  0
 32 34  2  0  0  0  0
 34 33  1  0  0  0  0
 35 36  2  0  0  0  0
 36 37  1  0  0  0  0
 38 36  1  0  0  0  0
 38 39  1  0  0  0  0
 39 41  1  0  0  0  0
 41 40  2  0  0  0  0
 41 42  1  0  0  0  0
M  END
>  <MODEL>
6

>  <REMARK>
 VINA RESULT:      -6.2      2.983      8.754
  Name = 
  11 active torsions:
  status: ('A' for Active; 'I' for Inactive)
    1  A    between atoms: C_2  and  C_12
    2  A    between atoms: C_2  and  C_34
    3  A    between atoms: C_5  and  C_13
    4  A    between atoms: C_9  and  C_24
    5  A    between atoms: C_9  and  C_35
    6  A    between atoms: C_11  and  C_16
    7  A    between atoms: C_11  and  N_33
    8  A    between atoms: C_11  and  C_36
    9  A    between atoms: N_20  and  C_30
   10  A    between atoms: C_29  and  C_34
   11  A    between atoms: O_37  and  C_41
                            x       y       z     vdW  Elec       q    Type
                         _______ _______ _______ _____ _____    ______ ____

>  <TORSDO>
F 11

$$$$
=
 OpenBabel11062420043D

 42 46  0  0  1  0  0  0  0  0999 V2000
  188.2760  178.1070  142.2700 C   0  0  0  0  0  2  0  0  0  0  0  0
  189.9440  173.4050  140.6410 C   0  0  0  0  0  0  0  0  0  0  0  0
  189.1500  177.1820  142.9850 N   0  0  0  0  0  0  0  0  0  0  0  0
  190.7480  174.1060  141.4430 C   0  0  0  0  0  3  0  0  0  0  0  0
  188.4530  173.5370  140.7170 C   0  0  0  0  0  2  0  0  0  0  0  0
  188.3120  175.9670  141.1820 C   0  0  0  0  0  0  0  0  0  0  0  0
  187.9520  174.9180  140.4460 C   0  0  0  0  0  3  0  0  0  0  0  0
  190.4770  178.6670  144.1970 O   0  0  0  0  0  0  0  0  0  0  0  0
  187.6570  177.3120  141.1040 C   0  0  1  0  0  3  0  0  0  0  0  0
  190.3620  175.1920  142.3630 C   0  0  0  0  0  3  0  0  0  0  0  0
  189.8950  177.5500  144.1520 C   0  0  0  0  0  0  0  0  0  0  0  0
  189.2720  175.9640  142.2700 C   0  0  0  0  0  0  0  0  0  0  0  0
  189.7090  171.2620  139.2700 C   0  0  0  0  0  2  0  0  0  0  0  0
  190.5960  172.4100  139.7160 C   0  0  1  0  0  0  0  0  0  0  0  0
  191.5180  172.8750  138.7440 O   0  0  0  0  0  0  0  0  0  0  0  0
  192.3110  170.6810  139.3240 C   0  0  1  0  0  3  0  0  0  0  0  0
  193.4110  172.0940  137.6620 O   0  0  0  0  0  0  0  0  0  0  0  0
  190.9850  170.9770  140.0750 C   0  0  2  0  0  0  0  0  0  0  0  0
  192.4920  171.9250  138.5100 C   0  0  0  0  0  0  0  0  0  0  0  0
  190.8170  169.2700  141.5250 C   0  0  0  0  0  1  0  0  0  0  0  0
  190.8500  170.6690  141.4400 O   0  0  0  0  0  0  0  0  0  0  0  0
  193.5040  170.4620  140.2770 C   0  0  2  0  0  3  0  0  0  0  0  0
  194.0310  171.6870  140.7000 O   0  0  0  0  0  1  0  0  0  0  0  0
  195.1000  168.6830  140.5090 O   0  0  0  0  0  1  0  0  0  0  0  0
  194.6130  169.6490  139.6270 C   0  0  0  0  0  2  0  0  0  0  0  0
  186.2250  177.1690  141.3230 N   0  0  0  0  0  2  0  0  0  0  0  0
  185.6170  178.2150  140.7170 O   0  0  0  0  0  1  0  0  0  0  0  0
  189.9490  176.6250  145.3350 C   0  0  1  0  0  3  0  0  0  0  0  0
  193.6530  176.6600  145.9150 C   0  0  0  0  0  3  0  0  0  0  0  0
  193.9280  175.3140  146.1740 C   0  0  0  0  0  3  0  0  0  0  0  0
  192.3790  177.0550  145.6450 N   0  0  0  0  0  0  0  0  0  0  0  0
  191.3430  176.1660  145.6160 C   0  0  0  0  0  0  0  0  0  0  0  0
  192.8790  174.3880  146.1580 C   0  0  0  0  0  3  0  0  0  0  0  0
  191.5780  174.8120  145.8830 C   0  0  0  0  0  3  0  0  0  0  0  0
  187.5760  177.9840  147.7760 O   0  0  0  0  0  0  0  0  0  0  0  0
  187.9830  177.3320  146.7820 C   0  0  0  0  0  0  0  0  0  0  0  0
  189.3840  177.2640  146.5190 N   0  0  0  0  0  2  0  0  0  0  0  0
  186.9940  176.6620  145.8870 C   0  0  0  0  0  2  0  0  0  0  0  0
  185.5860  176.8200  146.4290 C   0  0  0  0  0  2  0  0  0  0  0  0
  183.8890  178.6280  146.1710 O   0  0  0  0  0  1  0  0  0  0  0  0
  184.8510  177.8060  145.5960 C   0  0  0  0  0  0  0  0  0  0  0  0
  185.1210  177.9220  144.3780 O   0  0  0  0  0  0  0  0  0  0  0  0
  1  3  1  0  0  0  0
  2  5  1  0  0  0  0
  2  4  2  0  0  0  0
  3 11  1  0  0  0  0
  4 10  1  0  0  0  0
  6 12  1  0  0  0  0
  7  5  1  0  0  0  0
  7  6  2  0  0  0  0
  9  6  1  0  0  0  0
  9 26  1  1  0  0  0
  9  1  1  0  0  0  0
 11  8  2  0  0  0  0
 12 10  2  0  0  0  0
 12  3  1  0  0  0  0
 13 14  1  0  0  0  0
 13 18  1  0  0  0  0
 14 18  1  0  0  0  0
 14  2  1  1  0  0  0
 15 14  1  0  0  0  0
 16 18  1  0  0  0  0
 16 22  1  1  0  0  0
 17 19  2  0  0  0  0
 18 21  1  1  0  0  0
 19 15  1  0  0  0  0
 19 16  1  0  0  0  0
 21 20  1  0  0  0  0
 22 23  1  6  0  0  0
 25 22  1  0  0  0  0
 25 24  1  0  0  0  0
 27 26  1  0  0  0  0
 28 11  1  6  0  0  0
 28 32  1  0  0  0  0
 28 37  1  0  0  0  0
 29 30  1  0  0  0  0
 31 29  2  0  0  0  0
 32 31  1  0  0  0  0
 32 34  2  0  0  0  0
 33 30  2  0  0  0  0
 34 33  1  0  0  0  0
 36 35  2  0  0  0  0
 37 36  1  0  0  0  0
 38 39  1  0  0  0  0
 38 36  1  0  0  0  0
 41 40  1  0  0  0  0
 41 39  1  0  0  0  0
 42 41  2  0  0  0  0
M  END
>  <MODEL>
7

>  <REMARK>
 VINA RESULT:      -6.1      2.044      5.257
  Name = 
  11 active torsions:
  status: ('A' for Active; 'I' for Inactive)
    1  A    between atoms: C_2  and  C_12
    2  A    between atoms: C_2  and  C_34
    3  A    between atoms: C_5  and  C_13
    4  A    between atoms: C_9  and  C_24
    5  A    between atoms: C_9  and  C_35
    6  A    between atoms: C_11  and  C_16
    7  A    between atoms: C_11  and  N_33
    8  A    between atoms: C_11  and  C_36
    9  A    between atoms: N_20  and  C_30
   10  A    between atoms: C_29  and  C_34
   11  A    between atoms: O_37  and  C_41
                            x       y       z     vdW  Elec       q    Type
                         _______ _______ _______ _____ _____    ______ ____

>  <TORSDO>
F 11

$$$$
=
 OpenBabel11062420043D

 42 46  0  0  1  0  0  0  0  0999 V2000
  190.5810  175.7370  147.4540 C   0  0  0  0  0  2  0  0  0  0  0  0
  191.5770  172.6180  143.3520 C   0  0  0  0  0  0  0  0  0  0  0  0
  189.7170  175.4820  146.3060 N   0  0  0  0  0  0  0  0  0  0  0  0
  190.3050  172.7580  143.7310 C   0  0  0  0  0  3  0  0  0  0  0  0
  192.5780  173.7150  143.5480 C   0  0  0  0  0  2  0  0  0  0  0  0
  191.7820  174.5670  145.7350 C   0  0  0  0  0  0  0  0  0  0  0  0
  192.7740  174.1090  144.9760 C   0  0  0  0  0  3  0  0  0  0  0  0
  187.6080  175.6920  147.2780 O   0  0  0  0  0  0  0  0  0  0  0  0
  191.9760  175.1950  147.0810 C   0  0  1  0  0  3  0  0  0  0  0  0
  189.7270  173.8640  144.5170 C   0  0  0  0  0  3  0  0  0  0  0  0
  188.3360  175.8630  146.2630 C   0  0  0  0  0  0  0  0  0  0  0  0
  190.3880  174.6790  145.3490 C   0  0  0  0  0  0  0  0  0  0  0  0
  193.4300  171.0500  142.5540 C   0  0  0  0  0  2  0  0  0  0  0  0
  191.9430  171.3430  142.6370 C   0  0  1  0  0  0  0  0  0  0  0  0
  191.1090  170.2060  142.7880 O   0  0  0  0  0  0  0  0  0  0  0  0
  191.9950  170.0120  140.5610 C   0  0  1  0  0  3  0  0  0  0  0  0
  190.4760  168.3640  141.5350 O   0  0  0  0  0  0  0  0  0  0  0  0
  192.6140  171.2460  141.2670 C   0  0  2  0  0  0  0  0  0  0  0  0
  191.1190  169.4450  141.6360 C   0  0  0  0  0  0  0  0  0  0  0  0
  193.8970  172.3950  139.8260 C   0  0  0  0  0  1  0  0  0  0  0  0
  192.7270  172.4750  140.5940 O   0  0  0  0  0  0  0  0  0  0  0  0
  191.1700  170.3860  139.3120 C   0  0  2  0  0  3  0  0  0  0  0  0
  190.0010  171.0640  139.6750 O   0  0  0  0  0  1  0  0  0  0  0  0
  190.9540  169.4160  137.1260 O   0  0  0  0  0  1  0  0  0  0  0  0
  190.7920  169.1630  138.4900 C   0  0  0  0  0  2  0  0  0  0  0  0
  192.9100  176.3060  146.9690 N   0  0  0  0  0  2  0  0  0  0  0  0
  192.5730  177.2130  147.9150 O   0  0  0  0  0  1  0  0  0  0  0  0
  187.7670  176.5000  145.0280 C   0  0  1  0  0  3  0  0  0  0  0  0
  185.2070  179.2390  144.9750 C   0  0  0  0  0  3  0  0  0  0  0  0
  184.2430  178.7650  145.8690 C   0  0  0  0  0  3  0  0  0  0  0  0
  186.3240  178.5040  144.7260 N   0  0  0  0  0  0  0  0  0  0  0  0
  186.5410  177.2990  145.3300 C   0  0  0  0  0  0  0  0  0  0  0  0
  184.4410  177.5280  146.4930 C   0  0  0  0  0  3  0  0  0  0  0  0
  185.5920  176.7860  146.2210 C   0  0  0  0  0  3  0  0  0  0  0  0
  190.0350  177.9350  142.5300 O   0  0  0  0  0  0  0  0  0  0  0  0
  189.0980  177.2370  142.9910 C   0  0  0  0  0  0  0  0  0  0  0  0
  188.7640  177.3430  144.3740 N   0  0  0  0  0  2  0  0  0  0  0  0
  188.3680  176.2970  142.0880 C   0  0  0  0  0  2  0  0  0  0  0  0
  189.3280  175.3090  141.4530 C   0  0  0  0  0  2  0  0  0  0  0  0
  187.7990  173.3410  141.3790 O   0  0  0  0  0  1  0  0  0  0  0  0
  188.5500  174.2920  140.6990 C   0  0  0  0  0  0  0  0  0  0  0  0
  188.5430  174.3100  139.4470 O   0  0  0  0  0  0  0  0  0  0  0  0
  2  5  1  0  0  0  0
  2  4  2  0  0  0  0
  3  1  1  0  0  0  0
  4 10  1  0  0  0  0
  5  7  1  0  0  0  0
  6  9  1  0  0  0  0
  7  6  2  0  0  0  0
  9 26  1  6  0  0  0
  9  1  1  0  0  0  0
 10 12  2  0  0  0  0
 11  3  1  0  0  0  0
 11  8  2  0  0  0  0
 12  6  1  0  0  0  0
 12  3  1  0  0  0  0
 13 14  1  0  0  0  0
 14 15  1  0  0  0  0
 14  2  1  1  0  0  0
 16 22  1  6  0  0  0
 16 18  1  0  0  0  0
 16 19  1  0  0  0  0
 17 19  2  0  0  0  0
 18 21  1  6  0  0  0
 18 13  1  0  0  0  0
 18 14  1  0  0  0  0
 19 15  1  0  0  0  0
 20 21  1  0  0  0  0
 22 23  1  1  0  0  0
 24 25  1  0  0  0  0
 25 22  1  0  0  0  0
 26 27  1  0  0  0  0
 28 37  1  1  0  0  0
 28 32  1  0  0  0  0
 28 11  1  0  0  0  0
 29 30  1  0  0  0  0
 30 33  2  0  0  0  0
 31 29  2  0  0  0  0
 31 32  1  0  0  0  0
 32 34  2  0  0  0  0
 34 33  1  0  0  0  0
 35 36  2  0  0  0  0
 36 37  1  0  0  0  0
 38 36  1  0  0  0  0
 39 38  1  0  0  0  0
 41 40  1  0  0  0  0
 41 39  1  0  0  0  0
 42 41  2  0  0  0  0
M  END
>  <MODEL>
8

>  <REMARK>
 VINA RESULT:      -5.9      1.810      2.221
  Name = 
  11 active torsions:
  status: ('A' for Active; 'I' for Inactive)
    1  A    between atoms: C_2  and  C_12
    2  A    between atoms: C_2  and  C_34
    3  A    between atoms: C_5  and  C_13
    4  A    between atoms: C_9  and  C_24
    5  A    between atoms: C_9  and  C_35
    6  A    between atoms: C_11  and  C_16
    7  A    between atoms: C_11  and  N_33
    8  A    between atoms: C_11  and  C_36
    9  A    between atoms: N_20  and  C_30
   10  A    between atoms: C_29  and  C_34
   11  A    between atoms: O_37  and  C_41
                            x       y       z     vdW  Elec       q    Type
                         _______ _______ _______ _____ _____    ______ ____

>  <TORSDO>
F 11

$$$$
=
 OpenBabel11062420043D

 42 46  0  0  1  0  0  0  0  0999 V2000
  189.7870  176.4750  147.6980 C   0  0  0  0  0  2  0  0  0  0  0  0
  192.4650  173.0200  144.7930 C   0  0  0  0  0  0  0  0  0  0  0  0
  189.5510  176.1210  146.3020 N   0  0  0  0  0  0  0  0  0  0  0  0
  191.1700  173.1890  144.5200 C   0  0  0  0  0  3  0  0  0  0  0  0
  193.3000  174.1320  145.3520 C   0  0  0  0  0  2  0  0  0  0  0  0
  191.6070  175.1650  146.8380 C   0  0  0  0  0  0  0  0  0  0  0  0
  192.8210  174.6470  146.6700 C   0  0  0  0  0  3  0  0  0  0  0  0
  187.2420  176.4080  146.1530 O   0  0  0  0  0  0  0  0  0  0  0  0
  191.1730  175.9070  148.0650 C   0  0  1  0  0  3  0  0  0  0  0  0
  190.3340  174.3560  144.8570 C   0  0  0  0  0  3  0  0  0  0  0  0
  188.3650  176.4930  145.5880 C   0  0  0  0  0  0  0  0  0  0  0  0
  190.5600  175.2410  145.8360 C   0  0  0  0  0  0  0  0  0  0  0  0
  194.3990  171.3790  145.1060 C   0  0  0  0  0  2  0  0  0  0  0  0
  193.0740  171.6890  144.4340 C   0  0  1  0  0  0  0  0  0  0  0  0
  192.2220  170.5740  144.2320 O   0  0  0  0  0  0  0  0  0  0  0  0
  194.0680  170.1970  142.7390 C   0  0  1  0  0  3  0  0  0  0  0  0
  192.1950  168.6430  142.9540 O   0  0  0  0  0  0  0  0  0  0  0  0
  194.3210  171.4790  143.5760 C   0  0  2  0  0  0  0  0  0  0  0  0
  192.7550  169.7240  143.2840 C   0  0  0  0  0  0  0  0  0  0  0  0
  196.1960  172.5080  142.8880 C   0  0  0  0  0  1  0  0  0  0  0  0
  194.8030  172.6500  142.9650 O   0  0  0  0  0  0  0  0  0  0  0  0
  193.9720  170.4770  141.2260 C   0  0  2  0  0  3  0  0  0  0  0  0
  192.7070  170.9720  140.8920 O   0  0  0  0  0  1  0  0  0  0  0  0
  193.1030  168.8440  139.6940 O   0  0  0  0  0  1  0  0  0  0  0  0
  194.2470  169.2320  140.3960 C   0  0  0  0  0  2  0  0  0  0  0  0
  192.0920  177.0060  148.3190 N   0  0  0  0  0  2  0  0  0  0  0  0
  191.5630  177.7530  149.3170 O   0  0  0  0  0  1  0  0  0  0  0  0
  188.4640  177.0220  144.1860 C   0  0  1  0  0  3  0  0  0  0  0  0
  185.3970  179.1270  143.7240 C   0  0  0  0  0  3  0  0  0  0  0  0
  184.7070  178.4370  142.7230 C   0  0  0  0  0  3  0  0  0  0  0  0
  186.5890  178.6560  144.1780 N   0  0  0  0  0  0  0  0  0  0  0  0
  187.1450  177.5110  143.6830 C   0  0  0  0  0  0  0  0  0  0  0  0
  185.2630  177.2660  142.1950 C   0  0  0  0  0  3  0  0  0  0  0  0
  186.4890  176.8000  142.6720 C   0  0  0  0  0  3  0  0  0  0  0  0
  191.5430  178.8830  143.4800 O   0  0  0  0  0  0  0  0  0  0  0  0
  190.7040  177.9490  143.4220 C   0  0  0  0  0  0  0  0  0  0  0  0
  189.4580  178.0880  144.1030 N   0  0  0  0  0  2  0  0  0  0  0  0
  191.0370  176.7080  142.6620 C   0  0  0  0  0  2  0  0  0  0  0  0
  192.4990  176.3430  142.8430 C   0  0  0  0  0  2  0  0  0  0  0  0
  192.1140  174.3240  141.4320 O   0  0  0  0  0  1  0  0  0  0  0  0
  192.9070  175.4190  141.7540 C   0  0  0  0  0  0  0  0  0  0  0  0
  193.9520  175.6420  141.1010 O   0  0  0  0  0  0  0  0  0  0  0  0
  1  9  1  0  0  0  0
  2  5  1  0  0  0  0
  3  1  1  0  0  0  0
  4  2  2  0  0  0  0
  4 10  1  0  0  0  0
  5  7  1  0  0  0  0
  6  9  1  0  0  0  0
  7  6  2  0  0  0  0
  9 26  1  6  0  0  0
 10 12  2  0  0  0  0
 11  8  2  0  0  0  0
 11  3  1  0  0  0  0
 12  3  1  0  0  0  0
 12  6  1  0  0  0  0
 14  2  1  1  0  0  0
 14 13  1  0  0  0  0
 15 14  1  0  0  0  0
 16 22  1  6  0  0  0
 16 19  1  0  0  0  0
 16 18  1  0  0  0  0
 17 19  2  0  0  0  0
 18 21  1  6  0  0  0
 18 14  1  0  0  0  0
 18 13  1  0  0  0  0
 19 15  1  0  0  0  0
 20 21  1  0  0  0  0
 22 23  1  1  0  0  0
 24 25  1  0  0  0  0
 25 22  1  0  0  0  0
 26 27  1  0  0  0  0
 28 37  1  1  0  0  0
 28 11  1  0  0  0  0
 29 31  1  0  0  0  0
 30 29  2  0  0  0  0
 32 31  2  0  0  0  0
 32 28  1  0  0  0  0
 33 34  2  0  0  0  0
 33 30  1  0  0  0  0
 34 32  1  0  0  0  0
 36 35  2  0  0  0  0
 36 37  1  0  0  0  0
 38 39  1  0  0  0  0
 38 36  1  0  0  0  0
 40 41  1  0  0  0  0
 41 39  1  0  0  0  0
 42 41  2  0  0  0  0
M  END
>  <MODEL>
9

>  <REMARK>
 VINA RESULT:      -5.9      2.852      4.076
  Name = 
  11 active torsions:
  status: ('A' for Active; 'I' for Inactive)
    1  A    between atoms: C_2  and  C_12
    2  A    between atoms: C_2  and  C_34
    3  A    between atoms: C_5  and  C_13
    4  A    between atoms: C_9  and  C_24
    5  A    between atoms: C_9  and  C_35
    6  A    between atoms: C_11  and  C_16
    7  A    between atoms: C_11  and  N_33
    8  A    between atoms: C_11  and  C_36
    9  A    between atoms: N_20  and  C_30
   10  A    between atoms: C_29  and  C_34
   11  A    between atoms: O_37  and  C_41
                            x       y       z     vdW  Elec       q    Type
                         _______ _______ _______ _____ _____    ______ ____

>  <TORSDO>
F 11

$$$$
