=
 OpenBabel11072408353D

 26 30  0  0  1  0  0  0  0  0999 V2000
  184.9770  178.4340  143.4240 C   0  0  0  0  0  0  0  0  0  0  0  0
  191.3290  177.7810  142.7070 C   0  0  0  0  0  3  0  0  0  0  0  0
  191.9260  177.3720  143.8510 N   0  0  0  0  0  0  0  0  0  0  0  0
  189.1800  177.6400  143.8090 C   0  0  0  0  0  0  0  0  0  0  0  0
  184.9100  179.2450  145.8180 C   0  0  0  0  0  2  0  0  0  0  0  0
  183.6190  178.7130  143.2960 O   0  0  0  0  0  1  0  0  0  0  0  0
  185.0120  176.8540  146.7310 C   0  0  0  0  0  2  0  0  0  0  0  0
  185.6480  178.7450  144.6180 C   0  0  0  0  0  0  0  0  0  0  0  0
  187.0500  177.5750  142.5100 C   0  0  0  0  0  3  0  0  0  0  0  0
  187.9820  175.9450  146.1400 N   0  0  2  0  0  0  0  0  0  0  0  0
  189.9490  177.9210  142.6730 C   0  0  0  0  0  3  0  0  0  0  0  0
  189.3170  175.3150  146.3280 C   0  0  1  0  0  3  0  0  0  0  0  0
  187.0130  178.4720  144.7460 C   0  0  0  0  0  3  0  0  0  0  0  0
  184.1680  178.1140  146.5420 C   0  0  0  0  0  2  0  0  0  0  0  0
  186.2900  177.1580  147.4940 C   0  0  0  0  0  2  0  0  0  0  0  0
  191.2120  177.0860  144.9400 N   0  0  0  0  0  0  0  0  0  0  0  0
  189.1990  176.7750  146.2770 C   0  0  1  0  0  3  0  0  0  0  0  0
  185.6810  177.8350  142.3650 C   0  0  0  0  0  0  0  0  0  0  0  0
  187.7220  177.8700  143.7060 C   0  0  0  0  0  0  0  0  0  0  0  0
  187.2410  175.9800  147.4100 C   0  0  0  0  0  2  0  0  0  0  0  0
  189.8530  177.1840  144.9750 C   0  0  0  0  0  0  0  0  0  0  0  0
  185.0050  177.5290  141.0610 C   0  0  2  0  0  3  0  0  0  0  0  0
  185.8970  177.7770  139.9980 O   0  0  0  0  0  0  0  0  0  0  0  0
  184.8980  178.7410  140.2130 C   0  0  0  0  0  2  0  0  0  0  0  0
  189.6950  174.8850  147.7490 C   0  0  0  0  0  2  0  0  0  0  0  0
  191.0020  175.2860  148.0240 O   0  0  0  0  0  1  0  0  0  0  0  0
  1  8  1  0  0  0  0
  2  3  1  0  0  0  0
  3 16  2  0  0  0  0
  4 21  2  0  0  0  0
  5 14  1  0  0  0  0
  6  1  1  0  0  0  0
  7 15  1  0  0  0  0
  8 13  2  0  0  0  0
  8  5  1  0  0  0  0
  9 19  2  0  0  0  0
 10 17  1  0  0  0  0
 10 12  1  0  0  0  0
 10 20  1  1  0  0  0
 11  2  2  0  0  0  0
 11  4  1  0  0  0  0
 12 25  1  1  0  0  0
 14  7  1  0  0  0  0
 16 21  1  0  0  0  0
 17 21  1  6  0  0  0
 17 12  1  0  0  0  0
 18  9  1  0  0  0  0
 18  1  2  0  0  0  0
 19  4  1  0  0  0  0
 19 13  1  0  0  0  0
 20 15  1  0  0  0  0
 22 18  1  1  0  0  0
 23 24  1  0  0  0  0
 23 22  1  0  0  0  0
 24 22  1  0  0  0  0
 25 26  1  0  0  0  0
M  END
>  <MODEL>
1

>  <REMARK>
 VINA RESULT:      -8.0      0.000      0.000
  Name = 
  2 active torsions:
  status: ('A' for Active; 'I' for Inactive)
    1  A    between atoms: C_10  and  C_15
    2  A    between atoms: C_12  and  C_22
                            x       y       z     vdW  Elec       q    Type
                         _______ _______ _______ _____ _____    ______ ____

>  <TORSDO>
F 2

$$$$
=
 OpenBabel11072408353D

 26 30  0  0  1  0  0  0  0  0999 V2000
  187.6890  177.5410  146.8730 C   0  0  0  0  0  0  0  0  0  0  0  0
  189.7760  173.4500  142.3780 C   0  0  0  0  0  3  0  0  0  0  0  0
  189.0850  173.5770  141.2210 N   0  0  0  0  0  0  0  0  0  0  0  0
  188.4950  175.2770  143.3140 C   0  0  0  0  0  0  0  0  0  0  0  0
  185.2270  177.5680  146.3000 C   0  0  0  0  0  2  0  0  0  0  0  0
  187.4220  178.2560  148.0370 O   0  0  0  0  0  1  0  0  0  0  0  0
  185.5700  179.3490  144.4920 C   0  0  0  0  0  2  0  0  0  0  0  0
  186.6340  177.1330  146.0420 C   0  0  0  0  0  0  0  0  0  0  0  0
  189.2600  176.4970  145.3510 C   0  0  0  0  0  3  0  0  0  0  0  0
  187.0480  177.7950  142.1690 N   0  0  2  0  0  0  0  0  0  0  0  0
  189.4880  174.2970  143.4380 C   0  0  0  0  0  3  0  0  0  0  0  0
  187.4230  177.3500  140.7990 C   0  0  1  0  0  3  0  0  0  0  0  0
  186.9000  176.4090  144.8750 C   0  0  0  0  0  3  0  0  0  0  0  0
  184.9920  179.0210  145.8690 C   0  0  0  0  0  2  0  0  0  0  0  0
  185.0010  178.4310  143.4240 C   0  0  0  0  0  2  0  0  0  0  0  0
  188.1450  174.5120  141.0750 N   0  0  0  0  0  0  0  0  0  0  0  0
  186.7650  176.4150  141.7160 C   0  0  1  0  0  3  0  0  0  0  0  0
  189.0150  177.2290  146.5200 C   0  0  0  0  0  0  0  0  0  0  0  0
  188.2100  176.1000  144.5100 C   0  0  0  0  0  0  0  0  0  0  0  0
  185.7970  178.5680  142.1400 C   0  0  0  0  0  2  0  0  0  0  0  0
  187.8210  175.3890  142.0660 C   0  0  0  0  0  0  0  0  0  0  0  0
  190.1620  177.6130  147.4070 C   0  0  2  0  0  3  0  0  0  0  0  0
  191.3630  177.1020  146.8710 O   0  0  0  0  0  0  0  0  0  0  0  0
  190.8290  176.4140  147.9730 C   0  0  0  0  0  2  0  0  0  0  0  0
  186.4620  177.7060  139.6600 C   0  0  0  0  0  2  0  0  0  0  0  0
  186.5890  176.7690  138.6350 O   0  0  0  0  0  1  0  0  0  0  0  0
  1  6  1  0  0  0  0
  2 11  1  0  0  0  0
  3  2  2  0  0  0  0
  4 11  2  0  0  0  0
  4 19  1  0  0  0  0
  7 14  1  0  0  0  0
  8  5  1  0  0  0  0
  8  1  2  0  0  0  0
  9 18  2  0  0  0  0
 10 20  1  6  0  0  0
 12 25  1  6  0  0  0
 12 17  1  0  0  0  0
 12 10  1  0  0  0  0
 13  8  1  0  0  0  0
 14  5  1  0  0  0  0
 15  7  1  0  0  0  0
 16  3  1  0  0  0  0
 16 21  2  0  0  0  0
 17 21  1  1  0  0  0
 17 10  1  0  0  0  0
 18  1  1  0  0  0  0
 19 13  2  0  0  0  0
 19  9  1  0  0  0  0
 20 15  1  0  0  0  0
 21  4  1  0  0  0  0
 22 18  1  6  0  0  0
 22 24  1  0  0  0  0
 23 22  1  0  0  0  0
 23 24  1  0  0  0  0
 26 25  1  0  0  0  0
M  END
>  <MODEL>
2

>  <REMARK>
 VINA RESULT:      -7.7      2.622      5.646
  Name = 
  2 active torsions:
  status: ('A' for Active; 'I' for Inactive)
    1  A    between atoms: C_10  and  C_15
    2  A    between atoms: C_12  and  C_22
                            x       y       z     vdW  Elec       q    Type
                         _______ _______ _______ _____ _____    ______ ____

>  <TORSDO>
F 2

$$$$
=
 OpenBabel11072408353D

 26 30  0  0  1  0  0  0  0  0999 V2000
  187.5150  177.3730  146.3580 C   0  0  0  0  0  0  0  0  0  0  0  0
  185.5920  177.8610  140.2450 C   0  0  0  0  0  3  0  0  0  0  0  0
  186.3720  177.1350  139.4120 N   0  0  0  0  0  0  0  0  0  0  0  0
  186.8790  177.0420  142.1230 C   0  0  0  0  0  0  0  0  0  0  0  0
  190.0130  177.2120  145.9960 C   0  0  0  0  0  2  0  0  0  0  0  0
  187.7260  177.5020  147.7280 O   0  0  0  0  0  1  0  0  0  0  0  0
  189.8850  174.6880  145.5800 C   0  0  0  0  0  2  0  0  0  0  0  0
  188.6110  177.2980  145.4820 C   0  0  0  0  0  0  0  0  0  0  0  0
  186.0180  177.1940  144.4600 C   0  0  0  0  0  3  0  0  0  0  0  0
  188.5180  174.4580  142.7390 N   0  0  2  0  0  0  0  0  0  0  0  0
  185.8370  177.8250  141.6110 C   0  0  0  0  0  3  0  0  0  0  0  0
  188.2270  173.9810  141.3590 C   0  0  1  0  0  3  0  0  0  0  0  0
  188.4010  177.1750  144.1050 C   0  0  0  0  0  3  0  0  0  0  0  0
  190.3430  175.8070  146.5150 C   0  0  0  0  0  2  0  0  0  0  0  0
  190.4910  174.8460  144.1960 C   0  0  0  0  0  2  0  0  0  0  0  0
  187.3610  176.3720  139.8790 N   0  0  0  0  0  0  0  0  0  0  0  0
  188.7720  175.3260  141.5680 C   0  0  1  0  0  3  0  0  0  0  0  0
  186.2080  177.3110  145.8440 C   0  0  0  0  0  0  0  0  0  0  0  0
  187.1100  177.1040  143.5840 C   0  0  0  0  0  0  0  0  0  0  0  0
  189.8000  173.9180  143.2150 C   0  0  0  0  0  2  0  0  0  0  0  0
  187.6490  176.2730  141.2070 C   0  0  0  0  0  0  0  0  0  0  0  0
  185.0150  177.4310  146.7460 C   0  0  2  0  0  3  0  0  0  0  0  0
  183.9920  178.1400  146.0830 O   0  0  0  0  0  0  0  0  0  0  0  0
  184.7150  178.8500  147.0550 C   0  0  0  0  0  2  0  0  0  0  0  0
  189.2850  173.1030  140.6840 C   0  0  0  0  0  2  0  0  0  0  0  0
  189.8250  173.7820  139.5930 O   0  0  0  0  0  1  0  0  0  0  0  0
  1  6  1  0  0  0  0
  2 11  1  0  0  0  0
  3 16  1  0  0  0  0
  3  2  2  0  0  0  0
  4 19  1  0  0  0  0
  5 14  1  0  0  0  0
  7 14  1  0  0  0  0
  8  5  1  0  0  0  0
  8  1  2  0  0  0  0
  9 18  2  0  0  0  0
 10 20  1  6  0  0  0
 11  4  2  0  0  0  0
 12 25  1  6  0  0  0
 12 17  1  0  0  0  0
 12 10  1  0  0  0  0
 13  8  1  0  0  0  0
 15  7  1  0  0  0  0
 16 21  2  0  0  0  0
 17 21  1  1  0  0  0
 17 10  1  0  0  0  0
 18  1  1  0  0  0  0
 19 13  2  0  0  0  0
 19  9  1  0  0  0  0
 20 15  1  0  0  0  0
 21  4  1  0  0  0  0
 22 18  1  6  0  0  0
 22 24  1  0  0  0  0
 23 22  1  0  0  0  0
 23 24  1  0  0  0  0
 26 25  1  0  0  0  0
M  END
>  <MODEL>
3

>  <REMARK>
 VINA RESULT:      -7.7      3.092      5.354
  Name = 
  2 active torsions:
  status: ('A' for Active; 'I' for Inactive)
    1  A    between atoms: C_10  and  C_15
    2  A    between atoms: C_12  and  C_22
                            x       y       z     vdW  Elec       q    Type
                         _______ _______ _______ _____ _____    ______ ____

>  <TORSDO>
F 2

$$$$
=
 OpenBabel11072408353D

 26 30  0  0  1  0  0  0  0  0999 V2000
  188.1670  175.3880  141.1120 C   0  0  0  0  0  0  0  0  0  0  0  0
  191.2940  175.1410  146.7210 C   0  0  0  0  0  3  0  0  0  0  0  0
  190.7520  175.9780  147.6360 N   0  0  0  0  0  0  0  0  0  0  0  0
  189.5610  175.7750  145.1550 C   0  0  0  0  0  0  0  0  0  0  0  0
  187.5440  177.8380  141.0910 C   0  0  0  0  0  2  0  0  0  0  0  0
  187.7350  175.2710  139.7940 O   0  0  0  0  0  1  0  0  0  0  0  0
  185.4560  177.4170  142.5130 C   0  0  0  0  0  2  0  0  0  0  0  0
  188.1500  176.6400  141.7480 C   0  0  0  0  0  0  0  0  0  0  0  0
  189.0600  174.3990  143.1360 C   0  0  0  0  0  3  0  0  0  0  0  0
  186.6140  176.7770  145.3850 N   0  0  2  0  0  0  0  0  0  0  0  0
  190.7050  175.0310  145.4690 C   0  0  0  0  0  3  0  0  0  0  0  0
  186.7570  176.7650  146.8660 C   0  0  1  0  0  3  0  0  0  0  0  0
  188.5900  176.7610  143.0700 C   0  0  0  0  0  3  0  0  0  0  0  0
  186.0110  177.8020  141.1420 C   0  0  0  0  0  2  0  0  0  0  0  0
  185.9530  178.3650  143.5920 C   0  0  0  0  0  2  0  0  0  0  0  0
  189.6560  176.6850  147.3650 N   0  0  0  0  0  0  0  0  0  0  0  0
  187.7580  177.4490  146.0410 C   0  0  1  0  0  3  0  0  0  0  0  0
  188.6170  174.2560  141.8140 C   0  0  0  0  0  0  0  0  0  0  0  0
  189.0310  175.6440  143.7800 C   0  0  0  0  0  0  0  0  0  0  0  0
  185.6430  177.7990  144.9650 C   0  0  0  0  0  2  0  0  0  0  0  0
  189.0140  176.6150  146.1640 C   0  0  0  0  0  0  0  0  0  0  0  0
  188.6880  172.9120  141.1520 C   0  0  2  0  0  3  0  0  0  0  0  0
  189.6310  172.1060  141.8220 O   0  0  0  0  0  0  0  0  0  0  0  0
  190.0400  172.6570  140.5970 C   0  0  0  0  0  2  0  0  0  0  0  0
  185.9540  177.8040  147.6560 C   0  0  0  0  0  2  0  0  0  0  0  0
  186.8220  178.7590  148.1840 O   0  0  0  0  0  1  0  0  0  0  0  0
  1  8  2  0  0  0  0
  1 18  1  0  0  0  0
  2  3  1  0  0  0  0
  4 11  1  0  0  0  0
  4 21  2  0  0  0  0
  5 14  1  0  0  0  0
  5  8  1  0  0  0  0
  6  1  1  0  0  0  0
  7 15  1  0  0  0  0
  8 13  1  0  0  0  0
  9 19  1  0  0  0  0
 10 20  1  1  0  0  0
 10 17  1  0  0  0  0
 10 12  1  0  0  0  0
 11  2  2  0  0  0  0
 12 25  1  1  0  0  0
 13 19  2  0  0  0  0
 14  7  1  0  0  0  0
 15 20  1  0  0  0  0
 16  3  2  0  0  0  0
 17 21  1  6  0  0  0
 17 12  1  0  0  0  0
 18  9  2  0  0  0  0
 19  4  1  0  0  0  0
 21 16  1  0  0  0  0
 22 18  1  1  0  0  0
 22 23  1  0  0  0  0
 24 22  1  0  0  0  0
 24 23  1  0  0  0  0
 25 26  1  0  0  0  0
M  END
>  <MODEL>
4

>  <REMARK>
 VINA RESULT:      -7.5      2.927      4.537
  Name = 
  2 active torsions:
  status: ('A' for Active; 'I' for Inactive)
    1  A    between atoms: C_10  and  C_15
    2  A    between atoms: C_12  and  C_22
                            x       y       z     vdW  Elec       q    Type
                         _______ _______ _______ _____ _____    ______ ____

>  <TORSDO>
F 2

$$$$
=
 OpenBabel11072408353D

 26 30  0  0  1  0  0  0  0  0999 V2000
  190.6210  176.0950  146.3160 C   0  0  0  0  0  0  0  0  0  0  0  0
  190.6890  173.5600  140.4110 C   0  0  0  0  0  3  0  0  0  0  0  0
  189.5310  173.7910  139.7500 N   0  0  0  0  0  0  0  0  0  0  0  0
  189.8520  174.8520  142.2780 C   0  0  0  0  0  0  0  0  0  0  0  0
  188.1820  175.7520  146.8870 C   0  0  0  0  0  2  0  0  0  0  0  0
  190.8710  176.4770  147.6310 O   0  0  0  0  0  1  0  0  0  0  0  0
  187.5000  177.9110  145.6890 C   0  0  0  0  0  2  0  0  0  0  0  0
  189.3360  175.6720  145.9400 C   0  0  0  0  0  0  0  0  0  0  0  0
  191.3790  175.7350  144.0420 C   0  0  0  0  0  3  0  0  0  0  0  0
  187.8430  177.2160  142.6240 N   0  0  2  0  0  0  0  0  0  0  0  0
  190.8630  174.0860  141.6840 C   0  0  0  0  0  3  0  0  0  0  0  0
  187.5700  177.1580  141.1620 C   0  0  1  0  0  3  0  0  0  0  0  0
  189.0840  175.2820  144.6210 C   0  0  0  0  0  3  0  0  0  0  0  0
  187.6580  177.1870  147.0260 C   0  0  0  0  0  2  0  0  0  0  0  0
  186.5730  177.1470  144.7580 C   0  0  0  0  0  2  0  0  0  0  0  0
  188.5610  174.5280  140.2910 N   0  0  0  0  0  0  0  0  0  0  0  0
  187.4920  175.9360  141.9680 C   0  0  1  0  0  3  0  0  0  0  0  0
  191.6490  176.1370  145.3570 C   0  0  0  0  0  0  0  0  0  0  0  0
  190.0930  175.3270  143.6580 C   0  0  0  0  0  0  0  0  0  0  0  0
  186.6660  177.7110  143.3530 C   0  0  0  0  0  2  0  0  0  0  0  0
  188.6670  175.0910  141.5280 C   0  0  0  0  0  0  0  0  0  0  0  0
  193.0430  176.5430  145.7340 C   0  0  2  0  0  3  0  0  0  0  0  0
  193.9600  175.9840  144.8200 O   0  0  0  0  0  0  0  0  0  0  0  0
  193.8730  175.3620  146.0770 C   0  0  0  0  0  2  0  0  0  0  0  0
  186.1640  177.5500  140.6960 C   0  0  0  0  0  2  0  0  0  0  0  0
  185.9920  177.1670  139.3660 O   0  0  0  0  0  1  0  0  0  0  0  0
  1  6  1  0  0  0  0
  2 11  1  0  0  0  0
  3 16  1  0  0  0  0
  3  2  2  0  0  0  0
  4 19  1  0  0  0  0
  5 14  1  0  0  0  0
  7 14  1  0  0  0  0
  8  1  1  0  0  0  0
  8  5  1  0  0  0  0
  9 18  1  0  0  0  0
 10 20  1  1  0  0  0
 11  4  2  0  0  0  0
 12 25  1  1  0  0  0
 12 17  1  0  0  0  0
 12 10  1  0  0  0  0
 13  8  2  0  0  0  0
 15  7  1  0  0  0  0
 16 21  2  0  0  0  0
 17 21  1  6  0  0  0
 17 10  1  0  0  0  0
 18  1  2  0  0  0  0
 19  9  2  0  0  0  0
 19 13  1  0  0  0  0
 20 15  1  0  0  0  0
 21  4  1  0  0  0  0
 22 18  1  6  0  0  0
 22 24  1  0  0  0  0
 23 22  1  0  0  0  0
 23 24  1  0  0  0  0
 26 25  1  0  0  0  0
M  END
>  <MODEL>
5

>  <REMARK>
 VINA RESULT:      -7.2      2.958      6.216
  Name = 
  2 active torsions:
  status: ('A' for Active; 'I' for Inactive)
    1  A    between atoms: C_10  and  C_15
    2  A    between atoms: C_12  and  C_22
                            x       y       z     vdW  Elec       q    Type
                         _______ _______ _______ _____ _____    ______ ____

>  <TORSDO>
F 2

$$$$
=
 OpenBabel11072408353D

 26 30  0  0  1  0  0  0  0  0999 V2000
  187.8160  175.6870  141.2590 C   0  0  0  0  0  0  0  0  0  0  0  0
  185.1600  177.7960  146.7170 C   0  0  0  0  0  3  0  0  0  0  0  0
  185.9410  177.5360  147.7910 N   0  0  0  0  0  0  0  0  0  0  0  0
  186.8610  176.8470  145.2820 C   0  0  0  0  0  0  0  0  0  0  0  0
  188.9560  173.6040  142.1290 C   0  0  0  0  0  2  0  0  0  0  0  0
  188.1080  175.2970  139.9550 O   0  0  0  0  0  1  0  0  0  0  0  0
  191.0060  174.9330  142.8980 C   0  0  0  0  0  2  0  0  0  0  0  0
  188.1560  174.8510  142.3350 C   0  0  0  0  0  0  0  0  0  0  0  0
  186.8900  177.2860  142.8260 C   0  0  0  0  0  3  0  0  0  0  0  0
  189.9650  176.5420  145.4130 N   0  0  2  0  0  0  0  0  0  0  0  0
  185.6100  177.4540  145.4500 C   0  0  0  0  0  3  0  0  0  0  0  0
  189.9390  177.1650  146.7640 C   0  0  1  0  0  3  0  0  0  0  0  0
  187.8580  175.2370  143.6450 C   0  0  0  0  0  3  0  0  0  0  0  0
  190.4430  173.9110  141.9100 C   0  0  0  0  0  2  0  0  0  0  0  0
  190.8150  174.4720  144.3330 C   0  0  0  0  0  2  0  0  0  0  0  0
  187.1410  176.9710  147.6540 N   0  0  0  0  0  0  0  0  0  0  0  0
  189.0510  176.0390  146.4620 C   0  0  1  0  0  3  0  0  0  0  0  0
  187.1870  176.9190  141.5070 C   0  0  0  0  0  0  0  0  0  0  0  0
  187.2410  176.4610  143.9050 C   0  0  0  0  0  0  0  0  0  0  0  0
  191.1000  175.6150  145.2900 C   0  0  0  0  0  2  0  0  0  0  0  0
  187.6560  176.6240  146.4400 C   0  0  0  0  0  0  0  0  0  0  0  0
  186.7710  177.8170  140.3790 C   0  0  2  0  0  3  0  0  0  0  0  0
  185.6920  178.6250  140.7930 O   0  0  0  0  0  0  0  0  0  0  0  0
  185.3760  177.5410  139.9570 C   0  0  0  0  0  2  0  0  0  0  0  0
  191.0090  176.7140  147.7640 C   0  0  0  0  0  2  0  0  0  0  0  0
  191.1900  177.7040  148.7290 O   0  0  0  0  0  1  0  0  0  0  0  0
  1 18  2  0  0  0  0
  1  8  1  0  0  0  0
  2  3  1  0  0  0  0
  4 11  1  0  0  0  0
  4 21  2  0  0  0  0
  5  8  1  0  0  0  0
  6  1  1  0  0  0  0
  7 15  1  0  0  0  0
  8 13  2  0  0  0  0
  9 19  2  0  0  0  0
 10 20  1  1  0  0  0
 10 17  1  0  0  0  0
 10 12  1  0  0  0  0
 11  2  2  0  0  0  0
 12 25  1  1  0  0  0
 13 19  1  0  0  0  0
 14  5  1  0  0  0  0
 14  7  1  0  0  0  0
 15 20  1  0  0  0  0
 16  3  2  0  0  0  0
 17 21  1  6  0  0  0
 17 12  1  0  0  0  0
 18  9  1  0  0  0  0
 19  4  1  0  0  0  0
 21 16  1  0  0  0  0
 22 23  1  0  0  0  0
 22 18  1  1  0  0  0
 24 22  1  0  0  0  0
 24 23  1  0  0  0  0
 25 26  1  0  0  0  0
M  END
>  <MODEL>
6

>  <REMARK>
 VINA RESULT:      -6.8      2.269      4.640
  Name = 
  2 active torsions:
  status: ('A' for Active; 'I' for Inactive)
    1  A    between atoms: C_10  and  C_15
    2  A    between atoms: C_12  and  C_22
                            x       y       z     vdW  Elec       q    Type
                         _______ _______ _______ _____ _____    ______ ____

>  <TORSDO>
F 2

$$$$
=
 OpenBabel11072408353D

 26 30  0  0  1  0  0  0  0  0999 V2000
  193.3300  175.8150  145.8370 C   0  0  0  0  0  0  0  0  0  0  0  0
  190.4650  173.7910  140.4520 C   0  0  0  0  0  3  0  0  0  0  0  0
  189.1320  174.0260  140.4720 N   0  0  0  0  0  0  0  0  0  0  0  0
  190.6630  174.8830  142.6020 C   0  0  0  0  0  0  0  0  0  0  0  0
  191.4910  175.3170  147.4980 C   0  0  0  0  0  2  0  0  0  0  0  0
  194.1990  176.0950  146.8880 O   0  0  0  0  0  1  0  0  0  0  0  0
  190.3120  177.5370  147.0020 C   0  0  0  0  0  2  0  0  0  0  0  0
  192.0260  175.3680  146.1030 C   0  0  0  0  0  0  0  0  0  0  0  0
  192.8650  175.6810  143.4620 C   0  0  0  0  0  3  0  0  0  0  0  0
  189.0950  177.1180  144.1150 N   0  0  2  0  0  0  0  0  0  0  0  0
  191.2460  174.2150  141.5180 C   0  0  0  0  0  3  0  0  0  0  0  0
  188.1350  177.1720  142.9780 C   0  0  1  0  0  3  0  0  0  0  0  0
  191.1540  175.0800  145.0480 C   0  0  0  0  0  3  0  0  0  0  0  0
  191.1080  176.7110  148.0130 C   0  0  0  0  0  2  0  0  0  0  0  0
  189.0450  176.8140  146.5800 C   0  0  0  0  0  2  0  0  0  0  0  0
  188.5580  174.6710  141.4870 N   0  0  0  0  0  0  0  0  0  0  0  0
  188.4620  175.8840  143.5980 C   0  0  1  0  0  3  0  0  0  0  0  0
  193.7510  175.9820  144.5050 C   0  0  0  0  0  0  0  0  0  0  0  0
  191.5560  175.2500  143.7240 C   0  0  0  0  0  0  0  0  0  0  0  0
  188.4330  177.4980  145.3720 C   0  0  0  0  0  2  0  0  0  0  0  0
  189.2630  175.1320  142.5580 C   0  0  0  0  0  0  0  0  0  0  0  0
  195.1510  176.4160  144.1840 C   0  0  2  0  0  3  0  0  0  0  0  0
  195.4940  175.9780  142.8890 O   0  0  0  0  0  0  0  0  0  0  0  0
  196.0370  175.2480  143.9590 C   0  0  0  0  0  2  0  0  0  0  0  0
  186.6840  177.5390  143.3040 C   0  0  0  0  0  2  0  0  0  0  0  0
  185.8730  176.4160  143.1440 O   0  0  0  0  0  1  0  0  0  0  0  0
  1  8  1  0  0  0  0
  1  6  1  0  0  0  0
  2  3  2  0  0  0  0
  2 11  1  0  0  0  0
  3 16  1  0  0  0  0
  4 19  1  0  0  0  0
  5 14  1  0  0  0  0
  7 14  1  0  0  0  0
  8  5  1  0  0  0  0
  9 19  2  0  0  0  0
  9 18  1  0  0  0  0
 10 20  1  1  0  0  0
 11  4  2  0  0  0  0
 12 25  1  1  0  0  0
 12 17  1  0  0  0  0
 12 10  1  0  0  0  0
 13  8  2  0  0  0  0
 15  7  1  0  0  0  0
 16 21  2  0  0  0  0
 17 21  1  6  0  0  0
 17 10  1  0  0  0  0
 18  1  2  0  0  0  0
 19 13  1  0  0  0  0
 20 15  1  0  0  0  0
 21  4  1  0  0  0  0
 22 18  1  6  0  0  0
 23 24  1  0  0  0  0
 23 22  1  0  0  0  0
 24 22  1  0  0  0  0
 26 25  1  0  0  0  0
M  END
>  <MODEL>
7

>  <REMARK>
 VINA RESULT:      -6.8      3.416      6.768
  Name = 
  2 active torsions:
  status: ('A' for Active; 'I' for Inactive)
    1  A    between atoms: C_10  and  C_15
    2  A    between atoms: C_12  and  C_22
                            x       y       z     vdW  Elec       q    Type
                         _______ _______ _______ _____ _____    ______ ____

>  <TORSDO>
F 2

$$$$
=
 OpenBabel11072408353D

 26 30  0  0  1  0  0  0  0  0999 V2000
  187.9490  177.4790  146.2990 C   0  0  0  0  0  0  0  0  0  0  0  0
  186.9990  176.3930  140.0360 C   0  0  0  0  0  3  0  0  0  0  0  0
  187.8110  175.4170  139.5660 N   0  0  0  0  0  0  0  0  0  0  0  0
  187.9040  176.0400  142.2530 C   0  0  0  0  0  0  0  0  0  0  0  0
  190.4410  177.0660  146.4190 C   0  0  0  0  0  2  0  0  0  0  0  0
  187.9710  177.9650  147.6030 O   0  0  0  0  0  1  0  0  0  0  0  0
  190.1060  174.5380  146.6600 C   0  0  0  0  0  2  0  0  0  0  0  0
  189.1460  177.0970  145.6710 C   0  0  0  0  0  0  0  0  0  0  0  0
  186.7340  176.8830  144.2890 C   0  0  0  0  0  3  0  0  0  0  0  0
  189.1500  173.6240  143.7880 N   0  0  2  0  0  0  0  0  0  0  0  0
  187.0380  176.7170  141.3850 C   0  0  0  0  0  3  0  0  0  0  0  0
  189.0130  172.8070  142.5520 C   0  0  1  0  0  3  0  0  0  0  0  0
  189.1270  176.6140  144.3590 C   0  0  0  0  0  3  0  0  0  0  0  0
  190.5400  175.8390  147.3350 C   0  0  0  0  0  2  0  0  0  0  0  0
  190.9200  174.2710  145.4060 C   0  0  0  0  0  2  0  0  0  0  0  0
  188.6330  174.7500  140.3760 N   0  0  0  0  0  0  0  0  0  0  0  0
  189.6640  174.1200  142.4920 C   0  0  1  0  0  3  0  0  0  0  0  0
  186.7310  177.3620  145.6050 C   0  0  0  0  0  0  0  0  0  0  0  0
  187.9250  176.4850  143.6630 C   0  0  0  0  0  0  0  0  0  0  0  0
  190.2840  173.1560  144.5980 C   0  0  0  0  0  2  0  0  0  0  0  0
  188.7120  175.0020  141.7130 C   0  0  0  0  0  0  0  0  0  0  0  0
  185.4400  177.8010  146.2300 C   0  0  2  0  0  3  0  0  0  0  0  0
  184.5040  178.0970  145.2170 O   0  0  0  0  0  0  0  0  0  0  0  0
  185.1070  179.1960  145.8520 C   0  0  0  0  0  2  0  0  0  0  0  0
  190.0580  171.7110  142.3180 C   0  0  0  0  0  2  0  0  0  0  0  0
  190.5710  171.8260  141.0260 O   0  0  0  0  0  1  0  0  0  0  0  0
  1  6  1  0  0  0  0
  2 11  1  0  0  0  0
  3  2  2  0  0  0  0
  3 16  1  0  0  0  0
  4 19  1  0  0  0  0
  5 14  1  0  0  0  0
  7 14  1  0  0  0  0
  8  1  1  0  0  0  0
  8  5  1  0  0  0  0
  9 18  1  0  0  0  0
 10 20  1  1  0  0  0
 11  4  2  0  0  0  0
 12 25  1  1  0  0  0
 12 10  1  0  0  0  0
 13  8  2  0  0  0  0
 15  7  1  0  0  0  0
 16 21  2  0  0  0  0
 17 21  1  6  0  0  0
 17 12  1  0  0  0  0
 17 10  1  0  0  0  0
 18  1  2  0  0  0  0
 19  9  2  0  0  0  0
 19 13  1  0  0  0  0
 20 15  1  0  0  0  0
 21  4  1  0  0  0  0
 22 18  1  6  0  0  0
 23 24  1  0  0  0  0
 23 22  1  0  0  0  0
 24 22  1  0  0  0  0
 26 25  1  0  0  0  0
M  END
>  <MODEL>
8

>  <REMARK>
 VINA RESULT:      -6.7      3.260      4.996
  Name = 
  2 active torsions:
  status: ('A' for Active; 'I' for Inactive)
    1  A    between atoms: C_10  and  C_15
    2  A    between atoms: C_12  and  C_22
                            x       y       z     vdW  Elec       q    Type
                         _______ _______ _______ _____ _____    ______ ____

>  <TORSDO>
F 2

$$$$
=
 OpenBabel11072408353D

 26 30  0  0  1  0  0  0  0  0999 V2000
  188.2290  175.2740  142.3790 C   0  0  0  0  0  0  0  0  0  0  0  0
  194.5150  175.0280  141.0620 C   0  0  0  0  0  3  0  0  0  0  0  0
  195.2540  175.6280  142.0240 N   0  0  0  0  0  0  0  0  0  0  0  0
  192.5190  175.4730  142.3570 C   0  0  0  0  0  0  0  0  0  0  0  0
  188.1290  177.5340  143.5080 C   0  0  0  0  0  2  0  0  0  0  0  0
  186.8380  175.2230  142.3670 O   0  0  0  0  0  1  0  0  0  0  0  0
  188.8110  176.5400  145.7680 C   0  0  0  0  0  2  0  0  0  0  0  0
  188.8860  176.4160  142.8650 C   0  0  0  0  0  0  0  0  0  0  0  0
  190.3820  174.2620  141.9170 C   0  0  0  0  0  3  0  0  0  0  0  0
  191.8670  175.8250  145.3890 N   0  0  2  0  0  0  0  0  0  0  0  0
  193.1380  174.9450  141.2170 C   0  0  0  0  0  3  0  0  0  0  0  0
  193.3180  175.6730  145.6870 C   0  0  1  0  0  3  0  0  0  0  0  0
  190.2830  176.4720  142.8710 C   0  0  0  0  0  3  0  0  0  0  0  0
  187.7000  177.1830  144.9380 C   0  0  0  0  0  2  0  0  0  0  0  0
  190.0340  177.4390  145.8390 C   0  0  0  0  0  2  0  0  0  0  0  0
  194.6880  176.1250  143.1230 N   0  0  0  0  0  0  0  0  0  0  0  0
  192.8770  176.6350  144.6720 C   0  0  1  0  0  3  0  0  0  0  0  0
  188.9830  174.1840  141.9090 C   0  0  0  0  0  0  0  0  0  0  0  0
  191.0430  175.3940  142.4170 C   0  0  0  0  0  0  0  0  0  0  0  0
  191.2150  176.6700  146.4000 C   0  0  0  0  0  2  0  0  0  0  0  0
  193.3460  176.0640  143.3510 C   0  0  0  0  0  0  0  0  0  0  0  0
  188.3140  172.9670  141.3430 C   0  0  2  0  0  3  0  0  0  0  0  0
  189.2430  172.2330  140.5760 O   0  0  0  0  0  0  0  0  0  0  0  0
  188.3080  172.9980  139.8600 C   0  0  0  0  0  2  0  0  0  0  0  0
  193.8660  176.4310  146.9010 C   0  0  0  0  0  2  0  0  0  0  0  0
  194.6460  177.5020  146.4670 O   0  0  0  0  0  1  0  0  0  0  0  0
  1  8  1  0  0  0  0
  2 11  2  0  0  0  0
  2  3  1  0  0  0  0
  3 16  2  0  0  0  0
  4 19  1  0  0  0  0
  4 21  2  0  0  0  0
  5 14  1  0  0  0  0
  6  1  1  0  0  0  0
  7 15  1  0  0  0  0
  8 13  2  0  0  0  0
  8  5  1  0  0  0  0
  9 19  2  0  0  0  0
 10 12  1  0  0  0  0
 10 20  1  1  0  0  0
 11  4  1  0  0  0  0
 12 25  1  1  0  0  0
 14  7  1  0  0  0  0
 15 20  1  0  0  0  0
 16 21  1  0  0  0  0
 17 21  1  6  0  0  0
 17 10  1  0  0  0  0
 17 12  1  0  0  0  0
 18  9  1  0  0  0  0
 18  1  2  0  0  0  0
 19 13  1  0  0  0  0
 22 18  1  1  0  0  0
 23 22  1  0  0  0  0
 24 23  1  0  0  0  0
 24 22  1  0  0  0  0
 26 25  1  0  0  0  0
M  END
>  <MODEL>
9

>  <REMARK>
 VINA RESULT:      -6.7      3.422      4.598
  Name = 
  2 active torsions:
  status: ('A' for Active; 'I' for Inactive)
    1  A    between atoms: C_10  and  C_15
    2  A    between atoms: C_12  and  C_22
                            x       y       z     vdW  Elec       q    Type
                         _______ _______ _______ _____ _____    ______ ____

>  <TORSDO>
F 2

$$$$
