=
 OpenBabel11062419043D

 32 34  0  0  1  0  0  0  0  0999 V2000
  189.8900  177.7940  147.8530 O   0  0  0  0  0  1  0  0  0  0  0  0
  187.9300  177.5040  143.9670 C   0  0  0  0  0  2  0  0  0  0  0  0
  188.1410  173.7630  142.4270 C   0  0  0  0  0  1  0  0  0  0  0  0
  190.7620  174.0250  142.6530 C   0  0  2  0  0  3  0  0  0  0  0  0
  189.9860  176.5150  145.9940 C   0  0  2  0  0  3  0  0  0  0  0  0
  188.2740  176.7100  142.7150 C   0  0  2  0  0  3  0  0  0  0  0  0
  190.3660  173.9000  144.1360 C   0  0  0  0  0  2  0  0  0  0  0  0
  190.2310  175.2380  141.8450 C   0  0  2  0  0  3  0  0  0  0  0  0
  191.3720  174.4930  145.1170 C   0  0  0  0  0  2  0  0  0  0  0  0
  188.7020  175.7340  145.6850 C   0  0  0  0  0  2  0  0  0  0  0  0
  189.7420  176.3400  142.7890 C   0  0  0  0  0  2  0  0  0  0  0  0
  188.0320  177.5760  141.4950 C   0  0  0  0  0  1  0  0  0  0  0  0
  191.2520  176.0150  145.2830 C   0  0  2  0  0  3  0  0  0  0  0  0
  191.7020  176.4810  147.5850 C   0  0  0  0  0  2  0  0  0  0  0  0
  189.5210  173.8830  141.7610 C   0  0  2  0  0  0  0  0  0  0  0  0
  187.5450  176.6010  145.1510 C   0  0  1  0  0  3  0  0  0  0  0  0
  190.2520  176.5620  147.4280 N   0  0  0  0  0  0  0  0  0  0  0  0
  192.3430  176.4720  146.2100 C   0  0  0  0  0  2  0  0  0  0  0  0
  191.0250  173.5830  139.7760 C   0  0  0  0  0  1  0  0  0  0  0  0
  189.7480  173.0990  140.4460 C   0  0  1  0  0  0  0  0  0  0  0  0
  189.8930  171.7290  140.6960 O   0  0  0  0  0  1  0  0  0  0  0  0
  187.8690  172.3310  139.1560 O   0  0  0  0  0  1  0  0  0  0  0  0
  188.3030  174.5710  139.0160 O   0  0  0  0  0  0  0  0  0  0  0  0
  188.5780  173.3060  139.5200 C   0  0  0  0  0  0  0  0  0  0  0  0
  186.6720  176.8680  147.4030 N   0  0  0  0  0  2  0  0  0  0  0  0
  186.8110  177.3730  146.2320 C   0  0  0  0  0  0  0  0  0  0  0  0
  185.8400  179.4170  147.0020 O   0  0  0  0  0  1  0  0  0  0  0  0
  185.9860  178.5830  145.8900 C   0  0  2  0  0  3  0  0  0  0  0  0
  184.6160  178.1920  145.3570 C   0  0  0  0  0  2  0  0  0  0  0  0
  184.2860  178.9830  144.1010 C   0  0  0  0  0  2  0  0  0  0  0  0
  183.4800  178.0960  142.0700 O   0  0  0  0  0  0  0  0  0  0  0  0
  184.3750  178.1010  142.8990 C   0  0  0  0  0  3  0  0  0  0  0  0
  2 16  1  0  0  0  0
  4  7  1  1  0  0  0
  5 10  1  1  0  0  0
  5 17  1  0  0  0  0
  6 12  1  6  0  0  0
  6 11  1  0  0  0  0
  6  2  1  0  0  0  0
  7  9  1  0  0  0  0
  8  4  1  0  0  0  0
  8 11  1  1  0  0  0
 13  9  1  1  0  0  0
 13  5  1  0  0  0  0
 13 18  1  0  0  0  0
 15  8  1  0  0  0  0
 15  3  1  1  0  0  0
 15  4  1  0  0  0  0
 16 10  1  0  0  0  0
 16 26  1  1  0  0  0
 17 14  1  0  0  0  0
 17  1  1  0  0  0  0
 18 14  1  0  0  0  0
 20 19  1  6  0  0  0
 20 21  1  0  0  0  0
 20 15  1  0  0  0  0
 22 24  1  0  0  0  0
 23 24  2  0  0  0  0
 24 20  1  0  0  0  0
 26 25  2  0  0  0  0
 28 26  1  0  0  0  0
 28 27  1  1  0  0  0
 29 28  1  0  0  0  0
 30 29  1  0  0  0  0
 31 32  2  0  0  0  0
 32 30  1  0  0  0  0
M  END
>  <MODEL>
1

>  <REMARK>
 VINA RESULT:      -7.1      0.000      0.000
  Name = 
  7 active torsions:
  status: ('A' for Active; 'I' for Inactive)
    1  A    between atoms: C_2  and  C_11
    2  A    between atoms: C_2  and  C_18
    3  A    between atoms: C_11  and  C_12
    4  A    between atoms: C_18  and  C_31
    5  A    between atoms: C_22  and  C_27
    6  A    between atoms: C_22  and  C_32
    7  A    between atoms: C_28  and  C_31
                            x       y       z     vdW  Elec       q    Type
                         _______ _______ _______ _____ _____    ______ ____

>  <TORSDO>
F 7

$$$$
=
 OpenBabel11062419043D

 32 34  0  0  1  0  0  0  0  0999 V2000
  186.7260  174.4600  142.3420 O   0  0  0  0  0  1  0  0  0  0  0  0
  188.8220  176.9790  145.2200 C   0  0  0  0  0  2  0  0  0  0  0  0
  192.7090  177.5280  144.2220 C   0  0  0  0  0  1  0  0  0  0  0  0
  192.8970  174.8920  144.2760 C   0  0  2  0  0  3  0  0  0  0  0  0
  188.8350  174.8160  143.0670 C   0  0  2  0  0  3  0  0  0  0  0  0
  190.2450  176.9350  145.7590 C   0  0  2  0  0  3  0  0  0  0  0  0
  192.0530  175.0840  143.0020 C   0  0  0  0  0  2  0  0  0  0  0  0
  192.3040  175.3540  145.6330 C   0  0  2  0  0  3  0  0  0  0  0  0
  191.2160  173.8730  142.6020 C   0  0  0  0  0  2  0  0  0  0  0  0
  189.3730  176.2290  142.8090 C   0  0  0  0  0  2  0  0  0  0  0  0
  190.7880  175.5400  145.5220 C   0  0  0  0  0  2  0  0  0  0  0  0
  190.2230  177.2240  147.2460 C   0  0  0  0  0  1  0  0  0  0  0  0
  189.8960  173.7500  143.3770 C   0  0  2  0  0  3  0  0  0  0  0  0
  188.2800  172.9110  141.8260 C   0  0  0  0  0  2  0  0  0  0  0  0
  193.2790  176.2550  144.8680 C   0  0  2  0  0  0  0  0  0  0  0  0
  188.7680  177.3150  143.7210 C   0  0  1  0  0  3  0  0  0  0  0  0
  188.0170  174.3420  141.9560 N   0  0  0  0  0  0  0  0  0  0  0  0
  189.2150  172.4830  142.9400 C   0  0  0  0  0  2  0  0  0  0  0  0
  195.0240  177.7720  145.8400 C   0  0  0  0  0  1  0  0  0  0  0  0
  194.7070  176.3340  145.4580 C   0  0  1  0  0  0  0  0  0  0  0  0
  194.8160  175.5550  146.6160 O   0  0  0  0  0  1  0  0  0  0  0  0
  196.4130  174.8280  144.6790 O   0  0  0  0  0  1  0  0  0  0  0  0
  195.8950  176.5420  143.2570 O   0  0  0  0  0  0  0  0  0  0  0  0
  195.7060  175.8440  144.4440 C   0  0  0  0  0  0  0  0  0  0  0  0
  187.2300  178.4410  142.2130 N   0  0  0  0  0  2  0  0  0  0  0  0
  187.3840  177.7680  143.2950 C   0  0  0  0  0  0  0  0  0  0  0  0
  185.0720  177.2470  143.6070 O   0  0  0  0  0  1  0  0  0  0  0  0
  186.2240  177.7060  144.2500 C   0  0  2  0  0  3  0  0  0  0  0  0
  185.9520  179.0620  144.8860 C   0  0  0  0  0  2  0  0  0  0  0  0
  185.1710  178.8980  146.1800 C   0  0  0  0  0  2  0  0  0  0  0  0
  186.1610  177.5810  147.8660 O   0  0  0  0  0  0  0  0  0  0  0  0
  186.1070  178.6710  147.3210 C   0  0  0  0  0  3  0  0  0  0  0  0
  2  6  1  0  0  0  0
  4  7  1  6  0  0  0
  4 15  1  0  0  0  0
  4  8  1  0  0  0  0
  5 10  1  6  0  0  0
  5 13  1  0  0  0  0
  6 12  1  1  0  0  0
  8 11  1  6  0  0  0
  9  7  1  0  0  0  0
 10 16  1  0  0  0  0
 11  6  1  0  0  0  0
 13  9  1  6  0  0  0
 14 17  1  0  0  0  0
 14 18  1  0  0  0  0
 15  3  1  6  0  0  0
 15 20  1  0  0  0  0
 15  8  1  0  0  0  0
 16 26  1  6  0  0  0
 16  2  1  0  0  0  0
 17  1  1  0  0  0  0
 17  5  1  0  0  0  0
 18 13  1  0  0  0  0
 20 19  1  1  0  0  0
 20 21  1  0  0  0  0
 23 24  2  0  0  0  0
 24 22  1  0  0  0  0
 24 20  1  0  0  0  0
 25 26  2  0  0  0  0
 26 28  1  0  0  0  0
 28 27  1  6  0  0  0
 28 29  1  0  0  0  0
 29 30  1  0  0  0  0
 30 32  1  0  0  0  0
 32 31  2  0  0  0  0
M  END
>  <MODEL>
2

>  <REMARK>
 VINA RESULT:      -6.9      3.105      5.583
  Name = 
  7 active torsions:
  status: ('A' for Active; 'I' for Inactive)
    1  A    between atoms: C_2  and  C_11
    2  A    between atoms: C_2  and  C_18
    3  A    between atoms: C_11  and  C_12
    4  A    between atoms: C_18  and  C_31
    5  A    between atoms: C_22  and  C_27
    6  A    between atoms: C_22  and  C_32
    7  A    between atoms: C_28  and  C_31
                            x       y       z     vdW  Elec       q    Type
                         _______ _______ _______ _____ _____    ______ ____

>  <TORSDO>
F 7

$$$$
=
 OpenBabel11062419043D

 32 34  0  0  1  0  0  0  0  0999 V2000
  193.4700  174.6600  146.1570 O   0  0  0  0  0  1  0  0  0  0  0  0
  191.1110  174.6360  142.4890 C   0  0  0  0  0  2  0  0  0  0  0  0
  188.8770  177.9920  142.0880 C   0  0  0  0  0  1  0  0  0  0  0  0
  187.8290  177.3430  144.4260 C   0  0  2  0  0  3  0  0  0  0  0  0
  191.5750  175.5880  145.3500 C   0  0  2  0  0  3  0  0  0  0  0  0
  189.7120  175.1490  142.1790 C   0  0  2  0  0  3  0  0  0  0  0  0
  189.2430  177.7690  144.8640 C   0  0  0  0  0  2  0  0  0  0  0  0
  187.6840  176.1190  143.4840 C   0  0  2  0  0  3  0  0  0  0  0  0
  189.7010  177.1850  146.1960 C   0  0  0  0  0  2  0  0  0  0  0  0
  191.7770  176.5090  144.1400 C   0  0  0  0  0  2  0  0  0  0  0  0
  188.9650  175.2800  143.4920 C   0  0  0  0  0  2  0  0  0  0  0  0
  189.0000  174.1490  141.2910 C   0  0  0  0  0  1  0  0  0  0  0  0
  190.2400  175.7510  146.0910 C   0  0  2  0  0  3  0  0  0  0  0  0
  192.0550  175.5960  147.6410 C   0  0  0  0  0  2  0  0  0  0  0  0
  187.6620  177.5410  142.9130 C   0  0  2  0  0  0  0  0  0  0  0  0
  192.0940  175.7690  142.8260 C   0  0  1  0  0  3  0  0  0  0  0  0
  192.6590  175.7310  146.3180 N   0  0  0  0  0  0  0  0  0  0  0  0
  190.5810  175.2770  147.4760 C   0  0  0  0  0  2  0  0  0  0  0  0
  185.1850  177.2970  143.2220 C   0  0  0  0  0  1  0  0  0  0  0  0
  186.2710  178.0530  142.4710 C   0  0  1  0  0  0  0  0  0  0  0  0
  186.1200  179.4140  142.7650 O   0  0  0  0  0  1  0  0  0  0  0  0
  185.3050  178.5740  140.3310 O   0  0  0  0  0  0  0  0  0  0  0  0
  186.7810  176.8280  140.3410 O   0  0  0  0  0  1  0  0  0  0  0  0
  186.1000  177.8510  140.9890 C   0  0  0  0  0  0  0  0  0  0  0  0
  193.8460  174.0880  142.9330 N   0  0  0  0  0  2  0  0  0  0  0  0
  193.5370  175.3140  142.7140 C   0  0  0  0  0  0  0  0  0  0  0  0
  195.4180  176.1320  141.4860 O   0  0  0  0  0  1  0  0  0  0  0  0
  194.6580  176.3150  142.6440 C   0  0  2  0  0  3  0  0  0  0  0  0
  195.5580  176.2320  143.8680 C   0  0  0  0  0  2  0  0  0  0  0  0
  196.9560  175.7820  143.4730 C   0  0  0  0  0  2  0  0  0  0  0  0
  196.8010  174.3680  145.3530 O   0  0  0  0  0  0  0  0  0  0  0  0
  197.3750  174.6160  144.3060 C   0  0  0  0  0  3  0  0  0  0  0  0
  1 17  1  0  0  0  0
  2 16  1  0  0  0  0
  4  7  1  6  0  0  0
  5 10  1  6  0  0  0
  5 13  1  0  0  0  0
  5 17  1  0  0  0  0
  6 12  1  6  0  0  0
  6  2  1  0  0  0  0
  6 11  1  0  0  0  0
  7  9  1  0  0  0  0
  8 11  1  6  0  0  0
  8  4  1  0  0  0  0
 13  9  1  1  0  0  0
 13 18  1  0  0  0  0
 15  3  1  6  0  0  0
 15  8  1  0  0  0  0
 15  4  1  0  0  0  0
 16 26  1  1  0  0  0
 16 10  1  0  0  0  0
 17 14  1  0  0  0  0
 18 14  1  0  0  0  0
 20 21  1  0  0  0  0
 20 15  1  0  0  0  0
 20 19  1  1  0  0  0
 22 24  2  0  0  0  0
 23 24  1  0  0  0  0
 24 20  1  0  0  0  0
 26 25  2  0  0  0  0
 28 27  1  6  0  0  0
 28 26  1  0  0  0  0
 28 29  1  0  0  0  0
 30 29  1  0  0  0  0
 30 32  1  0  0  0  0
 32 31  2  0  0  0  0
M  END
>  <MODEL>
3

>  <REMARK>
 VINA RESULT:      -6.6      3.306      6.921
  Name = 
  7 active torsions:
  status: ('A' for Active; 'I' for Inactive)
    1  A    between atoms: C_2  and  C_11
    2  A    between atoms: C_2  and  C_18
    3  A    between atoms: C_11  and  C_12
    4  A    between atoms: C_18  and  C_31
    5  A    between atoms: C_22  and  C_27
    6  A    between atoms: C_22  and  C_32
    7  A    between atoms: C_28  and  C_31
                            x       y       z     vdW  Elec       q    Type
                         _______ _______ _______ _____ _____    ______ ____

>  <TORSDO>
F 7

$$$$
=
 OpenBabel11062419043D

 32 34  0  0  1  0  0  0  0  0999 V2000
  191.6900  172.7200  141.2160 O   0  0  0  0  0  1  0  0  0  0  0  0
  191.1560  176.2970  143.6530 C   0  0  0  0  0  2  0  0  0  0  0  0
  187.4080  176.5690  145.1660 C   0  0  0  0  0  1  0  0  0  0  0  0
  186.5930  176.4560  142.6550 C   0  0  2  0  0  3  0  0  0  0  0  0
  190.0170  174.0760  141.8990 C   0  0  2  0  0  3  0  0  0  0  0  0
  189.9710  177.2350  143.8330 C   0  0  2  0  0  3  0  0  0  0  0  0
  187.0760  175.0080  142.8550 C   0  0  0  0  0  2  0  0  0  0  0  0
  187.6300  177.6050  142.7660 C   0  0  2  0  0  3  0  0  0  0  0  0
  187.4420  174.2740  141.5690 C   0  0  0  0  0  2  0  0  0  0  0  0
  189.7990  174.1110  143.4170 C   0  0  0  0  0  2  0  0  0  0  0  0
  189.0540  177.0570  142.6390 C   0  0  0  0  0  2  0  0  0  0  0  0
  190.4690  178.6640  143.8790 C   0  0  0  0  0  1  0  0  0  0  0  0
  188.8500  174.6000  141.0490 C   0  0  2  0  0  3  0  0  0  0  0  0
  189.7190  172.5690  140.1330 C   0  0  0  0  0  2  0  0  0  0  0  0
  186.7390  177.2480  143.9610 C   0  0  2  0  0  0  0  0  0  0  0  0
  190.8800  174.8850  144.1960 C   0  0  1  0  0  3  0  0  0  0  0  0
  190.3550  172.7330  141.4380 N   0  0  0  0  0  0  0  0  0  0  0  0
  189.0480  173.8740  139.7490 C   0  0  0  0  0  2  0  0  0  0  0  0
  186.0070  179.6420  143.8100 C   0  0  0  0  0  1  0  0  0  0  0  0
  185.5930  178.2470  144.2520 C   0  0  1  0  0  0  0  0  0  0  0  0
  184.4360  177.9040  143.5440 O   0  0  0  0  0  1  0  0  0  0  0  0
  184.4410  177.4440  146.2040 O   0  0  0  0  0  0  0  0  0  0  0  0
  185.8820  179.1830  146.5630 O   0  0  0  0  0  1  0  0  0  0  0  0
  185.2810  178.2510  145.7250 C   0  0  0  0  0  0  0  0  0  0  0  0
  192.1160  172.8410  144.6450 N   0  0  0  0  0  2  0  0  0  0  0  0
  192.1630  174.1010  144.4030 C   0  0  0  0  0  0  0  0  0  0  0  0
  194.5180  174.1280  143.9940 O   0  0  0  0  0  1  0  0  0  0  0  0
  193.4720  174.8070  144.6240 C   0  0  2  0  0  3  0  0  0  0  0  0
  193.7780  174.9630  146.1060 C   0  0  0  0  0  2  0  0  0  0  0  0
  193.4630  176.3760  146.5720 C   0  0  0  0  0  2  0  0  0  0  0  0
  191.6360  175.3640  147.6670 O   0  0  0  0  0  0  0  0  0  0  0  0
  192.1520  176.4020  147.2860 C   0  0  0  0  0  3  0  0  0  0  0  0
  1 17  1  0  0  0  0
  2  6  1  0  0  0  0
  2 16  1  0  0  0  0
  4  8  1  0  0  0  0
  4  7  1  1  0  0  0
  4 15  1  0  0  0  0
  5 10  1  1  0  0  0
  6 12  1  6  0  0  0
  8 11  1  1  0  0  0
  8 15  1  0  0  0  0
  9  7  1  0  0  0  0
 10 16  1  0  0  0  0
 11  6  1  0  0  0  0
 13 18  1  6  0  0  0
 13  9  1  0  0  0  0
 13  5  1  0  0  0  0
 14 17  1  0  0  0  0
 15 20  1  0  0  0  0
 15  3  1  1  0  0  0
 16 26  1  6  0  0  0
 17  5  1  0  0  0  0
 18 14  1  0  0  0  0
 20 19  1  6  0  0  0
 20 24  1  0  0  0  0
 21 20  1  0  0  0  0
 24 22  2  0  0  0  0
 24 23  1  0  0  0  0
 26 28  1  0  0  0  0
 26 25  2  0  0  0  0
 28 27  1  6  0  0  0
 28 29  1  0  0  0  0
 29 30  1  0  0  0  0
 30 32  1  0  0  0  0
 32 31  2  0  0  0  0
M  END
>  <MODEL>
4

>  <REMARK>
 VINA RESULT:      -6.6      2.389      7.064
  Name = 
  7 active torsions:
  status: ('A' for Active; 'I' for Inactive)
    1  A    between atoms: C_2  and  C_11
    2  A    between atoms: C_2  and  C_18
    3  A    between atoms: C_11  and  C_12
    4  A    between atoms: C_18  and  C_31
    5  A    between atoms: C_22  and  C_27
    6  A    between atoms: C_22  and  C_32
    7  A    between atoms: C_28  and  C_31
                            x       y       z     vdW  Elec       q    Type
                         _______ _______ _______ _____ _____    ______ ____

>  <TORSDO>
F 7

$$$$
=
 OpenBabel11062419043D

 32 34  0  0  1  0  0  0  0  0999 V2000
  193.0800  174.5470  146.0340 O   0  0  0  0  0  1  0  0  0  0  0  0
  190.3620  174.5620  142.6230 C   0  0  0  0  0  2  0  0  0  0  0  0
  188.2220  177.9940  142.3910 C   0  0  0  0  0  1  0  0  0  0  0  0
  187.3940  177.4180  144.8340 C   0  0  2  0  0  3  0  0  0  0  0  0
  191.1480  175.5350  145.4060 C   0  0  2  0  0  3  0  0  0  0  0  0
  188.9580  175.1230  142.4480 C   0  0  2  0  0  3  0  0  0  0  0  0
  188.8590  177.7960  145.1200 C   0  0  0  0  0  2  0  0  0  0  0  0
  187.1100  176.1870  143.9330 C   0  0  2  0  0  3  0  0  0  0  0  0
  189.4290  177.2130  146.4090 C   0  0  0  0  0  2  0  0  0  0  0  0
  191.2590  176.4310  144.1660 C   0  0  0  0  0  2  0  0  0  0  0  0
  188.3540  175.3000  143.8260 C   0  0  0  0  0  2  0  0  0  0  0  0
  188.1240  174.1390  141.6530 C   0  0  0  0  0  1  0  0  0  0  0  0
  189.9020  175.7580  146.2750 C   0  0  2  0  0  3  0  0  0  0  0  0
  191.8580  175.5560  147.6360 C   0  0  0  0  0  2  0  0  0  0  0  0
  187.0820  177.6010  143.3430 C   0  0  2  0  0  0  0  0  0  0  0  0
  191.4140  175.6620  142.8390 C   0  0  1  0  0  3  0  0  0  0  0  0
  192.3290  175.6500  146.2570 N   0  0  0  0  0  0  0  0  0  0  0  0
  190.3650  175.2910  147.6260 C   0  0  0  0  0  2  0  0  0  0  0  0
  185.6250  178.6680  141.6020 C   0  0  0  0  0  1  0  0  0  0  0  0
  185.6720  178.1600  143.0350 C   0  0  1  0  0  0  0  0  0  0  0  0
  184.6970  177.1640  143.1630 O   0  0  0  0  0  1  0  0  0  0  0  0
  185.9370  180.3940  143.8860 O   0  0  0  0  0  0  0  0  0  0  0  0
  184.4370  179.0880  145.0130 O   0  0  0  0  0  1  0  0  0  0  0  0
  185.3500  179.2840  143.9840 C   0  0  0  0  0  0  0  0  0  0  0  0
  193.0750  173.8950  142.6660 N   0  0  0  0  0  2  0  0  0  0  0  0
  192.8210  175.1510  142.5910 C   0  0  0  0  0  0  0  0  0  0  0  0
  194.3830  176.3470  141.2320 O   0  0  0  0  0  1  0  0  0  0  0  0
  193.9890  176.0980  142.5490 C   0  0  2  0  0  3  0  0  0  0  0  0
  195.1700  175.5630  143.3460 C   0  0  0  0  0  2  0  0  0  0  0  0
  196.0640  176.7040  143.8070 C   0  0  0  0  0  2  0  0  0  0  0  0
  197.6810  175.6450  142.4570 O   0  0  0  0  0  0  0  0  0  0  0  0
  197.3960  176.6160  143.1380 C   0  0  0  0  0  3  0  0  0  0  0  0
  1 17  1  0  0  0  0
  2 16  1  0  0  0  0
  4  7  1  6  0  0  0
  5 10  1  6  0  0  0
  5 17  1  0  0  0  0
  5 13  1  0  0  0  0
  6 12  1  6  0  0  0
  6  2  1  0  0  0  0
  6 11  1  0  0  0  0
  7  9  1  0  0  0  0
  8 11  1  6  0  0  0
  8  4  1  0  0  0  0
 13  9  1  1  0  0  0
 13 18  1  0  0  0  0
 15  3  1  6  0  0  0
 15  8  1  0  0  0  0
 15  4  1  0  0  0  0
 16 26  1  1  0  0  0
 16 10  1  0  0  0  0
 17 14  1  0  0  0  0
 18 14  1  0  0  0  0
 20 19  1  6  0  0  0
 20 21  1  0  0  0  0
 20 15  1  0  0  0  0
 20 24  1  0  0  0  0
 22 24  2  0  0  0  0
 24 23  1  0  0  0  0
 26 25  2  0  0  0  0
 28 27  1  6  0  0  0
 28 26  1  0  0  0  0
 28 29  1  0  0  0  0
 29 30  1  0  0  0  0
 31 32  2  0  0  0  0
 32 30  1  0  0  0  0
M  END
>  <MODEL>
5

>  <REMARK>
 VINA RESULT:      -6.5      3.217      7.054
  Name = 
  7 active torsions:
  status: ('A' for Active; 'I' for Inactive)
    1  A    between atoms: C_2  and  C_11
    2  A    between atoms: C_2  and  C_18
    3  A    between atoms: C_11  and  C_12
    4  A    between atoms: C_18  and  C_31
    5  A    between atoms: C_22  and  C_27
    6  A    between atoms: C_22  and  C_32
    7  A    between atoms: C_28  and  C_31
                            x       y       z     vdW  Elec       q    Type
                         _______ _______ _______ _____ _____    ______ ____

>  <TORSDO>
F 7

$$$$
=
 OpenBabel11062419043D

 32 34  0  0  1  0  0  0  0  0999 V2000
  193.1880  173.1080  143.3080 O   0  0  0  0  0  1  0  0  0  0  0  0
  191.1870  176.9770  143.0920 C   0  0  0  0  0  2  0  0  0  0  0  0
  189.3310  177.9320  146.5640 C   0  0  0  0  0  1  0  0  0  0  0  0
  188.0140  175.6600  146.2610 C   0  0  2  0  0  3  0  0  0  0  0  0
  191.4740  174.1910  144.3020 C   0  0  2  0  0  3  0  0  0  0  0  0
  189.8780  177.4760  143.6860 C   0  0  2  0  0  3  0  0  0  0  0  0
  189.4150  175.1250  146.6100 C   0  0  0  0  0  2  0  0  0  0  0  0
  187.8400  176.4870  144.9600 C   0  0  2  0  0  3  0  0  0  0  0  0
  189.6900  173.7010  146.1350 C   0  0  0  0  0  2  0  0  0  0  0  0
  191.8730  175.4590  145.0680 C   0  0  0  0  0  2  0  0  0  0  0  0
  189.0290  176.2660  144.0200 C   0  0  0  0  0  2  0  0  0  0  0  0
  189.1600  178.3300  142.6610 C   0  0  0  0  0  1  0  0  0  0  0  0
  190.0970  173.6090  144.6570 C   0  0  2  0  0  3  0  0  0  0  0  0
  191.7380  171.8750  144.5150 C   0  0  0  0  0  2  0  0  0  0  0  0
  188.0070  177.1940  146.3090 C   0  0  2  0  0  0  0  0  0  0  0  0
  192.2380  176.6550  144.1660 C   0  0  1  0  0  3  0  0  0  0  0  0
  192.4710  173.1370  144.4550 N   0  0  0  0  0  0  0  0  0  0  0  0
  190.2620  172.1570  144.3080 C   0  0  0  0  0  2  0  0  0  0  0  0
  185.9420  176.7740  147.6700 C   0  0  0  0  0  1  0  0  0  0  0  0
  186.7180  177.8240  146.8880 C   0  0  1  0  0  0  0  0  0  0  0  0
  187.0200  178.8700  147.7680 O   0  0  0  0  0  1  0  0  0  0  0  0
  186.1510  179.4490  145.2090 O   0  0  0  0  0  0  0  0  0  0  0  0
  184.7180  177.6760  145.3790 O   0  0  0  0  0  1  0  0  0  0  0  0
  185.8630  178.3580  145.7690 C   0  0  0  0  0  0  0  0  0  0  0  0
  193.7980  176.3960  142.3200 N   0  0  0  0  0  2  0  0  0  0  0  0
  193.6360  176.5730  143.5810 C   0  0  0  0  0  0  0  0  0  0  0  0
  194.9310  177.4470  145.3900 O   0  0  0  0  0  1  0  0  0  0  0  0
  194.8360  176.4000  144.4710 C   0  0  2  0  0  3  0  0  0  0  0  0
  196.1220  176.3080  143.6610 C   0  0  0  0  0  2  0  0  0  0  0  0
  196.6370  174.8770  143.6370 C   0  0  0  0  0  2  0  0  0  0  0  0
  197.1950  174.0590  145.7770 O   0  0  0  0  0  0  0  0  0  0  0  0
  196.3280  174.1980  144.9300 C   0  0  0  0  0  3  0  0  0  0  0  0
  1 17  1  0  0  0  0
  2  6  1  0  0  0  0
  2 16  1  0  0  0  0
  4 15  1  0  0  0  0
  4  7  1  6  0  0  0
  5 17  1  0  0  0  0
  5 13  1  0  0  0  0
  5 10  1  1  0  0  0
  6 12  1  6  0  0  0
  6 11  1  0  0  0  0
  8 11  1  6  0  0  0
  8  4  1  0  0  0  0
  8 15  1  0  0  0  0
  9  7  1  0  0  0  0
 13 18  1  1  0  0  0
 13  9  1  0  0  0  0
 15  3  1  1  0  0  0
 15 20  1  0  0  0  0
 16 26  1  6  0  0  0
 16 10  1  0  0  0  0
 17 14  1  0  0  0  0
 18 14  1  0  0  0  0
 20 19  1  1  0  0  0
 20 21  1  0  0  0  0
 22 24  2  0  0  0  0
 23 24  1  0  0  0  0
 24 20  1  0  0  0  0
 25 26  2  0  0  0  0
 26 28  1  0  0  0  0
 28 27  1  1  0  0  0
 29 28  1  0  0  0  0
 30 29  1  0  0  0  0
 30 32  1  0  0  0  0
 32 31  2  0  0  0  0
M  END
>  <MODEL>
6

>  <REMARK>
 VINA RESULT:      -6.4      3.310      7.566
  Name = 
  7 active torsions:
  status: ('A' for Active; 'I' for Inactive)
    1  A    between atoms: C_2  and  C_11
    2  A    between atoms: C_2  and  C_18
    3  A    between atoms: C_11  and  C_12
    4  A    between atoms: C_18  and  C_31
    5  A    between atoms: C_22  and  C_27
    6  A    between atoms: C_22  and  C_32
    7  A    between atoms: C_28  and  C_31
                            x       y       z     vdW  Elec       q    Type
                         _______ _______ _______ _____ _____    ______ ____

>  <TORSDO>
F 7

$$$$
=
 OpenBabel11062419043D

 32 34  0  0  1  0  0  0  0  0999 V2000
  191.9620  176.7910  147.1890 O   0  0  0  0  0  1  0  0  0  0  0  0
  189.0380  175.8630  144.0890 C   0  0  0  0  0  2  0  0  0  0  0  0
  189.6960  172.2370  142.4060 C   0  0  0  0  0  1  0  0  0  0  0  0
  192.1040  173.1580  141.8230 C   0  0  2  0  0  3  0  0  0  0  0  0
  191.7980  175.5040  145.3400 C   0  0  2  0  0  3  0  0  0  0  0  0
  189.1660  175.1320  142.7600 C   0  0  2  0  0  3  0  0  0  0  0  0
  192.2300  172.9970  143.3500 C   0  0  0  0  0  2  0  0  0  0  0  0
  191.0630  174.1660  141.2690 C   0  0  2  0  0  3  0  0  0  0  0  0
  193.3070  173.8630  143.9960 C   0  0  0  0  0  2  0  0  0  0  0  0
  190.7210  174.4140  145.4100 C   0  0  0  0  0  2  0  0  0  0  0  0
  190.6290  175.1460  142.3620 C   0  0  0  0  0  2  0  0  0  0  0  0
  188.3510  175.8590  141.7110 C   0  0  0  0  0  1  0  0  0  0  0  0
  192.8650  175.3110  144.2530 C   0  0  2  0  0  3  0  0  0  0  0  0
  193.8720  175.9670  146.3210 C   0  0  0  0  0  2  0  0  0  0  0  0
  190.7270  172.6730  141.3520 C   0  0  2  0  0  0  0  0  0  0  0  0
  189.2770  174.9400  145.2950 C   0  0  1  0  0  3  0  0  0  0  0  0
  192.4730  175.6740  146.6230 N   0  0  0  0  0  0  0  0  0  0  0  0
  194.0370  176.0640  144.8170 C   0  0  0  0  0  2  0  0  0  0  0  0
  192.1320  171.9110  139.4190 C   0  0  0  0  0  1  0  0  0  0  0  0
  190.7260  171.9200  140.0010 C   0  0  1  0  0  0  0  0  0  0  0  0
  190.3280  170.5880  140.1670 O   0  0  0  0  0  1  0  0  0  0  0  0
  190.2200  173.1590  138.0030 O   0  0  0  0  0  0  0  0  0  0  0  0
  188.4230  172.6480  139.3190 O   0  0  0  0  0  1  0  0  0  0  0  0
  189.7830  172.5950  139.0400 C   0  0  0  0  0  0  0  0  0  0  0  0
  188.6420  174.8250  147.6380 N   0  0  0  0  0  2  0  0  0  0  0  0
  188.7430  175.5450  146.5810 C   0  0  0  0  0  0  0  0  0  0  0  0
  188.8090  177.8350  147.2610 O   0  0  0  0  0  1  0  0  0  0  0  0
  188.0530  176.8810  146.5760 C   0  0  2  0  0  3  0  0  0  0  0  0
  186.6620  176.7930  147.1860 C   0  0  0  0  0  2  0  0  0  0  0  0
  185.6000  176.7920  146.0980 C   0  0  0  0  0  2  0  0  0  0  0  0
  184.4420  178.6310  147.0110 O   0  0  0  0  0  0  0  0  0  0  0  0
  184.9440  178.1310  146.0190 C   0  0  0  0  0  3  0  0  0  0  0  0
  2 16  1  0  0  0  0
  4  7  1  1  0  0  0
  5 10  1  1  0  0  0
  5 17  1  0  0  0  0
  6 12  1  6  0  0  0
  6  2  1  0  0  0  0
  7  9  1  0  0  0  0
  8 15  1  0  0  0  0
  8  4  1  0  0  0  0
  8 11  1  1  0  0  0
 11  6  1  0  0  0  0
 13  9  1  1  0  0  0
 13 18  1  0  0  0  0
 13  5  1  0  0  0  0
 14 17  1  0  0  0  0
 15  4  1  0  0  0  0
 15  3  1  1  0  0  0
 16 10  1  0  0  0  0
 16 26  1  1  0  0  0
 17  1  1  0  0  0  0
 18 14  1  0  0  0  0
 20 19  1  6  0  0  0
 20 21  1  0  0  0  0
 20 15  1  0  0  0  0
 22 24  2  0  0  0  0
 24 23  1  0  0  0  0
 24 20  1  0  0  0  0
 26 25  2  0  0  0  0
 28 26  1  0  0  0  0
 28 29  1  0  0  0  0
 28 27  1  1  0  0  0
 30 29  1  0  0  0  0
 32 30  1  0  0  0  0
 32 31  2  0  0  0  0
M  END
>  <MODEL>
7

>  <REMARK>
 VINA RESULT:      -6.2      1.849      2.453
  Name = 
  7 active torsions:
  status: ('A' for Active; 'I' for Inactive)
    1  A    between atoms: C_2  and  C_11
    2  A    between atoms: C_2  and  C_18
    3  A    between atoms: C_11  and  C_12
    4  A    between atoms: C_18  and  C_31
    5  A    between atoms: C_22  and  C_27
    6  A    between atoms: C_22  and  C_32
    7  A    between atoms: C_28  and  C_31
                            x       y       z     vdW  Elec       q    Type
                         _______ _______ _______ _____ _____    ______ ____

>  <TORSDO>
F 7

$$$$
=
 OpenBabel11062419043D

 32 34  0  0  1  0  0  0  0  0999 V2000
  187.0160  174.7840  142.6810 O   0  0  0  0  0  1  0  0  0  0  0  0
  190.1730  176.2280  145.3210 C   0  0  0  0  0  2  0  0  0  0  0  0
  193.8390  175.9290  143.6240 C   0  0  0  0  0  1  0  0  0  0  0  0
  193.3000  173.3540  143.3700 C   0  0  2  0  0  3  0  0  0  0  0  0
  189.2320  174.4840  143.0010 C   0  0  2  0  0  3  0  0  0  0  0  0
  191.5980  175.7470  145.5560 C   0  0  2  0  0  3  0  0  0  0  0  0
  192.3420  173.9430  142.3180 C   0  0  0  0  0  2  0  0  0  0  0  0
  193.0920  173.7380  144.8580 C   0  0  2  0  0  3  0  0  0  0  0  0
  191.1500  173.0560  141.9720 C   0  0  0  0  0  2  0  0  0  0  0  0
  190.0870  175.7390  142.7850 C   0  0  0  0  0  2  0  0  0  0  0  0
  191.6890  174.3130  145.0730 C   0  0  0  0  0  2  0  0  0  0  0  0
  191.9050  175.8020  147.0380 C   0  0  0  0  0  1  0  0  0  0  0  0
  189.9950  173.1520  142.9800 C   0  0  2  0  0  3  0  0  0  0  0  0
  187.9760  172.9910  141.7080 C   0  0  0  0  0  2  0  0  0  0  0  0
  194.1360  174.4710  144.0090 C   0  0  2  0  0  0  0  0  0  0  0  0
  189.9650  176.7900  143.9060 C   0  0  1  0  0  3  0  0  0  0  0  0
  188.1420  174.4060  142.0330 N   0  0  0  0  0  0  0  0  0  0  0  0
  188.9290  172.1780  142.5620 C   0  0  0  0  0  2  0  0  0  0  0  0
  195.9960  174.6040  145.6870 C   0  0  0  0  0  1  0  0  0  0  0  0
  195.6080  174.0980  144.3050 C   0  0  1  0  0  0  0  0  0  0  0  0
  195.7860  172.7100  144.2970 O   0  0  0  0  0  1  0  0  0  0  0  0
  196.5890  174.2150  142.1130 O   0  0  0  0  0  0  0  0  0  0  0  0
  197.3020  175.8060  143.5910 O   0  0  0  0  0  1  0  0  0  0  0  0
  196.5090  174.7130  143.2670 C   0  0  0  0  0  0  0  0  0  0  0  0
  188.0370  177.9100  144.8740 N   0  0  0  0  0  2  0  0  0  0  0  0
  188.7080  177.6360  143.8150 C   0  0  0  0  0  0  0  0  0  0  0  0
  188.9390  178.5990  141.6390 O   0  0  0  0  0  1  0  0  0  0  0  0
  188.0620  177.9170  142.4860 C   0  0  2  0  0  3  0  0  0  0  0  0
  186.7780  178.7180  142.6480 C   0  0  0  0  0  2  0  0  0  0  0  0
  185.7210  178.2370  141.6670 C   0  0  0  0  0  2  0  0  0  0  0  0
  184.4030  177.9200  143.5950 O   0  0  0  0  0  0  0  0  0  0  0  0
  184.4320  177.9920  142.3780 C   0  0  0  0  0  3  0  0  0  0  0  0
  2  6  1  0  0  0  0
  4  7  1  6  0  0  0
  4 15  1  0  0  0  0
  4  8  1  0  0  0  0
  5 10  1  6  0  0  0
  6 12  1  1  0  0  0
  8 11  1  6  0  0  0
  9  7  1  0  0  0  0
 10 16  1  0  0  0  0
 11  6  1  0  0  0  0
 13  9  1  6  0  0  0
 13  5  1  0  0  0  0
 14 17  1  0  0  0  0
 14 18  1  0  0  0  0
 15  3  1  6  0  0  0
 15 20  1  0  0  0  0
 15  8  1  0  0  0  0
 16 26  1  1  0  0  0
 16  2  1  0  0  0  0
 17  1  1  0  0  0  0
 17  5  1  0  0  0  0
 18 13  1  0  0  0  0
 20 19  1  1  0  0  0
 21 20  1  0  0  0  0
 22 24  2  0  0  0  0
 24 23  1  0  0  0  0
 24 20  1  0  0  0  0
 26 25  2  0  0  0  0
 28 27  1  6  0  0  0
 28 29  1  0  0  0  0
 28 26  1  0  0  0  0
 30 32  1  0  0  0  0
 30 29  1  0  0  0  0
 32 31  2  0  0  0  0
M  END
>  <MODEL>
8

>  <REMARK>
 VINA RESULT:      -6.1      3.475      5.487
  Name = 
  7 active torsions:
  status: ('A' for Active; 'I' for Inactive)
    1  A    between atoms: C_2  and  C_11
    2  A    between atoms: C_2  and  C_18
    3  A    between atoms: C_11  and  C_12
    4  A    between atoms: C_18  and  C_31
    5  A    between atoms: C_22  and  C_27
    6  A    between atoms: C_22  and  C_32
    7  A    between atoms: C_28  and  C_31
                            x       y       z     vdW  Elec       q    Type
                         _______ _______ _______ _____ _____    ______ ____

>  <TORSDO>
F 7

$$$$
=
 OpenBabel11062419043D

 32 34  0  0  1  0  0  0  0  0999 V2000
  186.6900  174.4150  142.3860 O   0  0  0  0  0  1  0  0  0  0  0  0
  188.8440  176.1530  145.7570 C   0  0  0  0  0  2  0  0  0  0  0  0
  192.4950  177.5400  144.6840 C   0  0  0  0  0  1  0  0  0  0  0  0
  192.9710  175.0800  143.8430 C   0  0  2  0  0  3  0  0  0  0  0  0
  188.8220  174.8160  143.0140 C   0  0  2  0  0  3  0  0  0  0  0  0
  190.3190  176.1430  146.1320 C   0  0  2  0  0  3  0  0  0  0  0  0
  191.9600  175.5470  142.7790 C   0  0  0  0  0  2  0  0  0  0  0  0
  192.5040  174.9950  145.3200 C   0  0  2  0  0  3  0  0  0  0  0  0
  191.2150  174.4210  142.0680 C   0  0  0  0  0  2  0  0  0  0  0  0
  189.1690  176.3000  143.1980 C   0  0  0  0  0  2  0  0  0  0  0  0
  190.9750  174.9890  145.4010 C   0  0  0  0  0  2  0  0  0  0  0  0
  190.4510  175.9350  147.6270 C   0  0  0  0  0  1  0  0  0  0  0  0
  190.0220  173.8700  142.8630 C   0  0  2  0  0  3  0  0  0  0  0  0
  188.3260  173.3500  141.2590 C   0  0  0  0  0  2  0  0  0  0  0  0
  193.2740  176.2230  144.8210 C   0  0  2  0  0  0  0  0  0  0  0  0
  188.5680  176.9390  144.4650 C   0  0  1  0  0  3  0  0  0  0  0  0
  187.9280  174.6120  141.8790 N   0  0  0  0  0  0  0  0  0  0  0  0
  189.4330  172.7260  142.0870 C   0  0  0  0  0  2  0  0  0  0  0  0
  195.0520  177.7260  145.7560 C   0  0  0  0  0  1  0  0  0  0  0  0
  194.7480  176.3110  145.2850 C   0  0  1  0  0  0  0  0  0  0  0  0
  194.9900  175.4460  146.3580 O   0  0  0  0  0  1  0  0  0  0  0  0
  196.3710  174.9060  144.2020 O   0  0  0  0  0  1  0  0  0  0  0  0
  195.7760  176.7850  143.0450 O   0  0  0  0  0  0  0  0  0  0  0  0
  195.6640  175.9460  144.1470 C   0  0  0  0  0  0  0  0  0  0  0  0
  186.2070  176.6220  144.9490 N   0  0  0  0  0  2  0  0  0  0  0  0
  187.1010  177.3030  144.3290 C   0  0  0  0  0  0  0  0  0  0  0  0
  186.2400  179.4720  143.8110 O   0  0  0  0  0  1  0  0  0  0  0  0
  186.6390  178.2530  143.2580 C   0  0  2  0  0  3  0  0  0  0  0  0
  185.4980  177.6610  142.4430 C   0  0  0  0  0  2  0  0  0  0  0  0
  185.5000  178.2280  141.0320 C   0  0  0  0  0  2  0  0  0  0  0  0
  183.1550  178.1050  141.2460 O   0  0  0  0  0  0  0  0  0  0  0  0
  184.1050  178.3030  140.5060 C   0  0  0  0  0  3  0  0  0  0  0  0
  2  6  1  0  0  0  0
  4  7  1  6  0  0  0
  4 15  1  0  0  0  0
  4  8  1  0  0  0  0
  5 10  1  6  0  0  0
  6 12  1  1  0  0  0
  8 11  1  6  0  0  0
  9  7  1  0  0  0  0
 10 16  1  0  0  0  0
 11  6  1  0  0  0  0
 13  9  1  6  0  0  0
 13  5  1  0  0  0  0
 14 17  1  0  0  0  0
 14 18  1  0  0  0  0
 15  3  1  6  0  0  0
 15 20  1  0  0  0  0
 15  8  1  0  0  0  0
 16 26  1  6  0  0  0
 16  2  1  0  0  0  0
 17  1  1  0  0  0  0
 17  5  1  0  0  0  0
 18 13  1  0  0  0  0
 20 19  1  1  0  0  0
 20 21  1  0  0  0  0
 23 24  2  0  0  0  0
 24 22  1  0  0  0  0
 24 20  1  0  0  0  0
 26 25  2  0  0  0  0
 28 27  1  1  0  0  0
 28 26  1  0  0  0  0
 29 28  1  0  0  0  0
 30 29  1  0  0  0  0
 32 30  1  0  0  0  0
 32 31  2  0  0  0  0
M  END
>  <MODEL>
9

>  <REMARK>
 VINA RESULT:      -6.1      3.056      5.384
  Name = 
  7 active torsions:
  status: ('A' for Active; 'I' for Inactive)
    1  A    between atoms: C_2  and  C_11
    2  A    between atoms: C_2  and  C_18
    3  A    between atoms: C_11  and  C_12
    4  A    between atoms: C_18  and  C_31
    5  A    between atoms: C_22  and  C_27
    6  A    between atoms: C_22  and  C_32
    7  A    between atoms: C_28  and  C_31
                            x       y       z     vdW  Elec       q    Type
                         _______ _______ _______ _____ _____    ______ ____

>  <TORSDO>
F 7

$$$$
