=
 OpenBabel11062421103D

 33 36  0  0  1  0  0  0  0  0999 V2000
  188.7900  176.4990  147.1610 C   0  0  2  0  0  3  0  0  0  0  0  0
  190.0590  176.8200  146.3910 C   0  0  2  0  0  3  0  0  0  0  0  0
  191.4770  174.8360  141.6410 O   0  0  0  0  0  1  0  0  0  0  0  0
  189.0980  175.7240  145.8990 C   0  0  1  0  0  3  0  0  0  0  0  0
  192.6160  175.5350  144.6070 C   0  0  0  0  0  3  0  0  0  0  0  0
  192.2420  174.0980  142.5480 C   0  0  1  0  0  3  0  0  0  0  0  0
  193.0820  175.0150  143.3900 C   0  0  0  0  0  0  0  0  0  0  0  0
  192.9330  176.9410  146.6060 N   0  0  0  0  0  2  0  0  0  0  0  0
  194.3310  175.4160  142.9080 C   0  0  0  0  0  3  0  0  0  0  0  0
  191.6300  174.9330  147.7070 O   0  0  0  0  0  0  0  0  0  0  0  0
  195.4630  177.7340  145.5890 N   0  0  0  0  0  1  0  0  0  0  0  0
  194.6510  176.8210  144.8570 C   0  0  0  0  0  0  0  0  0  0  0  0
  189.9200  173.4440  145.3420 C   0  0  0  0  0  3  0  0  0  0  0  0
  191.3720  173.1350  143.3680 C   0  0  1  0  0  3  0  0  0  0  0  0
  195.1140  176.3140  143.6400 C   0  0  0  0  0  3  0  0  0  0  0  0
  189.4440  174.3080  146.2440 C   0  0  0  0  0  3  0  0  0  0  0  0
  193.3970  176.4290  145.3520 C   0  0  0  0  0  0  0  0  0  0  0  0
  191.4920  176.3980  147.4040 S   0  0  0  0  0  0  0  0  0  0  0  0
  191.3750  177.1390  148.7050 O   0  0  0  0  0  0  0  0  0  0  0  0
  190.1270  173.8200  143.9110 C   0  0  0  0  0  2  0  0  0  0  0  0
  191.4400  171.9000  140.7810 O   0  0  0  0  0  0  0  0  0  0  0  0
  190.9100  171.6830  142.3720 P   0  0  0  0  0  0  0  0  0  0  0  0
  191.6400  170.3010  143.0200 O   0  0  0  0  0  1  0  0  0  0  0  0
  189.4090  171.5070  142.3830 O   0  0  0  0  0  1  0  0  0  0  0  0
  187.7460  177.5520  146.8540 C   0  0  0  0  0  2  0  0  0  0  0  0
  185.9430  177.0000  145.1230 C   0  0  1  0  0  0  0  0  0  0  0  0
  186.2670  178.4820  144.9920 C   0  0  1  0  0  0  0  0  0  0  0  0
  185.6580  179.4180  146.0370 C   0  0  0  0  0  1  0  0  0  0  0  0
  187.3750  177.4840  145.3740 C   0  0  1  0  0  3  0  0  0  0  0  0
  185.0980  176.5150  146.2990 C   0  0  0  0  0  1  0  0  0  0  0  0
  185.7930  176.3160  143.9150 O   0  0  0  0  0  1  0  0  0  0  0  0
  186.3090  178.9360  143.6670 O   0  0  0  0  0  0  0  0  0  0  0  0
  185.5960  180.0460  143.6540 O   0  0  0  0  0  1  0  0  0  0  0  0
  1 25  1  6  0  0  0
  2  1  1  0  0  0  0
  2 18  1  1  0  0  0
  4 16  1  1  0  0  0
  4  2  1  0  0  0  0
  4  1  1  0  0  0  0
  5 17  1  0  0  0  0
  6  3  1  1  0  0  0
  6 14  1  0  0  0  0
  6  7  1  0  0  0  0
  7  5  2  0  0  0  0
  8 18  1  0  0  0  0
  9  7  1  0  0  0  0
  9 15  2  0  0  0  0
 12 17  2  0  0  0  0
 12 11  1  0  0  0  0
 13 16  2  0  0  0  0
 14 22  1  6  0  0  0
 14 20  1  0  0  0  0
 15 12  1  0  0  0  0
 17  8  1  0  0  0  0
 18 10  2  0  0  0  0
 18 19  2  0  0  0  0
 20 13  1  0  0  0  0
 21 22  2  0  0  0  0
 22 24  1  0  0  0  0
 22 23  1  0  0  0  0
 26 29  1  0  0  0  0
 26 30  1  1  0  0  0
 27 26  1  0  0  0  0
 27 29  1  0  0  0  0
 27 28  1  1  0  0  0
 29 25  1  1  0  0  0
 31 26  1  0  0  0  0
 32 27  1  0  0  0  0
 33 32  1  0  0  0  0
M  END
>  <MODEL>
1

>  <REMARK>
 VINA RESULT:      -7.7      0.000      0.000
  Name = 
  4 active torsions:
  status: ('A' for Active; 'I' for Inactive)
    1  A    between atoms: C_2  and  C_33
    2  A    between atoms: C_8  and  O_13
    3  A    between atoms: P_12  and  C_21
    4  A    between atoms: C_24  and  C_33
                            x       y       z     vdW  Elec       q    Type
                         _______ _______ _______ _____ _____    ______ ____

>  <TORSDO>
F 4

$$$$
=
 OpenBabel11062421103D

 33 36  0  0  1  0  0  0  0  0999 V2000
  191.0480  175.9830  144.0300 C   0  0  2  0  0  3  0  0  0  0  0  0
  190.1140  176.5570  142.9800 C   0  0  2  0  0  3  0  0  0  0  0  0
  186.0680  179.9340  143.8350 O   0  0  0  0  0  1  0  0  0  0  0  0
  189.8610  176.8060  144.4760 C   0  0  1  0  0  3  0  0  0  0  0  0
  186.9040  177.2450  142.2070 C   0  0  0  0  0  3  0  0  0  0  0  0
  185.4370  178.6960  143.6870 C   0  0  1  0  0  3  0  0  0  0  0  0
  185.7910  178.0860  142.3600 C   0  0  0  0  0  0  0  0  0  0  0  0
  188.3650  175.8480  140.7980 N   0  0  0  0  0  2  0  0  0  0  0  0
  185.0320  178.4280  141.2370 C   0  0  0  0  0  3  0  0  0  0  0  0
  188.3700  174.3830  142.9880 O   0  0  0  0  0  0  0  0  0  0  0  0
  186.8000  176.5710  138.5410 N   0  0  0  0  0  1  0  0  0  0  0  0
  186.4720  177.0760  139.8320 C   0  0  0  0  0  0  0  0  0  0  0  0
  187.6390  176.3540  145.5010 C   0  0  0  0  0  3  0  0  0  0  0  0
  185.7150  177.7740  144.8810 C   0  0  1  0  0  3  0  0  0  0  0  0
  185.3700  177.9230  139.9790 C   0  0  0  0  0  3  0  0  0  0  0  0
  188.8570  175.9250  145.1550 C   0  0  0  0  0  3  0  0  0  0  0  0
  187.2450  176.7260  140.9510 C   0  0  0  0  0  0  0  0  0  0  0  0
  189.2820  175.2040  142.1200 S   0  0  0  0  0  0  0  0  0  0  0  0
  190.3370  174.2960  141.5560 O   0  0  0  0  0  0  0  0  0  0  0  0
  187.1900  177.7580  145.2540 C   0  0  0  0  0  2  0  0  0  0  0  0
  185.6060  179.3000  147.3070 O   0  0  0  0  0  1  0  0  0  0  0  0
  184.7080  178.2630  146.3170 P   0  0  0  0  0  0  0  0  0  0  0  0
  183.3200  179.0680  145.7810 O   0  0  0  0  0  0  0  0  0  0  0  0
  184.3040  177.0390  147.1060 O   0  0  0  0  0  1  0  0  0  0  0  0
  192.2970  176.8360  144.0990 C   0  0  0  0  0  2  0  0  0  0  0  0
  194.7250  176.3330  144.7340 C   0  0  1  0  0  0  0  0  0  0  0  0
  193.8960  175.1040  145.0800 C   0  0  1  0  0  0  0  0  0  0  0  0
  193.0680  175.1680  146.3640 C   0  0  0  0  0  1  0  0  0  0  0  0
  193.5260  175.9620  143.8570 C   0  0  1  0  0  3  0  0  0  0  0  0
  194.6480  177.5690  145.6260 C   0  0  0  0  0  1  0  0  0  0  0  0
  195.9570  176.0690  144.1300 O   0  0  0  0  0  1  0  0  0  0  0  0
  194.5320  173.8910  144.7830 O   0  0  0  0  0  0  0  0  0  0  0  0
  194.0950  173.0350  145.6860 O   0  0  0  0  0  1  0  0  0  0  0  0
  1 25  1  6  0  0  0
  1  4  1  0  0  0  0
  2 18  1  1  0  0  0
  2  1  1  0  0  0  0
  2  4  1  0  0  0  0
  4 16  1  1  0  0  0
  5  7  1  0  0  0  0
  6  3  1  1  0  0  0
  6 14  1  0  0  0  0
  7  6  1  0  0  0  0
  8 17  1  0  0  0  0
  8 18  1  0  0  0  0
  9  7  2  0  0  0  0
 11 12  1  0  0  0  0
 12 15  2  0  0  0  0
 12 17  1  0  0  0  0
 14 20  1  0  0  0  0
 14 22  1  1  0  0  0
 15  9  1  0  0  0  0
 16 13  2  0  0  0  0
 17  5  2  0  0  0  0
 18 10  2  0  0  0  0
 19 18  2  0  0  0  0
 20 13  1  0  0  0  0
 22 24  1  0  0  0  0
 22 21  1  0  0  0  0
 23 22  2  0  0  0  0
 26 27  1  0  0  0  0
 26 30  1  1  0  0  0
 27 28  1  1  0  0  0
 29 25  1  1  0  0  0
 29 26  1  0  0  0  0
 29 27  1  0  0  0  0
 31 26  1  0  0  0  0
 32 27  1  0  0  0  0
 32 33  1  0  0  0  0
M  END
>  <MODEL>
2

>  <REMARK>
 VINA RESULT:      -7.5      4.026      8.168
  Name = 
  4 active torsions:
  status: ('A' for Active; 'I' for Inactive)
    1  A    between atoms: C_2  and  C_33
    2  A    between atoms: C_8  and  O_13
    3  A    between atoms: P_12  and  C_21
    4  A    between atoms: C_24  and  C_33
                            x       y       z     vdW  Elec       q    Type
                         _______ _______ _______ _____ _____    ______ ____

>  <TORSDO>
F 4

$$$$
=
 OpenBabel11062421103D

 33 36  0  0  1  0  0  0  0  0999 V2000
  189.0630  176.4030  146.8470 C   0  0  2  0  0  3  0  0  0  0  0  0
  190.3200  176.6870  146.0440 C   0  0  2  0  0  3  0  0  0  0  0  0
  191.6200  174.5650  141.3210 O   0  0  0  0  0  1  0  0  0  0  0  0
  189.3360  175.5920  145.6000 C   0  0  1  0  0  3  0  0  0  0  0  0
  192.8260  175.3240  144.2450 C   0  0  0  0  0  3  0  0  0  0  0  0
  192.3930  173.8400  142.2320 C   0  0  1  0  0  3  0  0  0  0  0  0
  193.2610  174.7670  143.0330 C   0  0  0  0  0  0  0  0  0  0  0  0
  193.1990  176.7760  146.2010 N   0  0  0  0  0  2  0  0  0  0  0  0
  194.5060  175.1390  142.5180 C   0  0  0  0  0  3  0  0  0  0  0  0
  191.8930  174.8140  147.3780 O   0  0  0  0  0  0  0  0  0  0  0  0
  195.7190  177.5100  145.1160 N   0  0  0  0  0  1  0  0  0  0  0  0
  194.8810  176.5900  144.4230 C   0  0  0  0  0  0  0  0  0  0  0  0
  190.1180  173.2870  145.0860 C   0  0  0  0  0  3  0  0  0  0  0  0
  191.5280  172.9100  143.0930 C   0  0  1  0  0  3  0  0  0  0  0  0
  195.3130  176.0450  143.2110 C   0  0  0  0  0  3  0  0  0  0  0  0
  189.6710  174.1810  145.9740 C   0  0  0  0  0  3  0  0  0  0  0  0
  193.6320  176.2260  144.9520 C   0  0  0  0  0  0  0  0  0  0  0  0
  191.7670  176.2730  147.0400 S   0  0  0  0  0  0  0  0  0  0  0  0
  191.6840  177.0480  148.3240 O   0  0  0  0  0  0  0  0  0  0  0  0
  190.3010  173.6240  143.6410 C   0  0  0  0  0  2  0  0  0  0  0  0
  191.6030  171.5690  140.5590 O   0  0  0  0  0  0  0  0  0  0  0  0
  191.0280  171.4390  142.1430 P   0  0  0  0  0  0  0  0  0  0  0  0
  191.6840  170.0560  142.8620 O   0  0  0  0  0  1  0  0  0  0  0  0
  189.5200  171.3250  142.1230 O   0  0  0  0  0  1  0  0  0  0  0  0
  188.0260  177.4610  146.5330 C   0  0  0  0  0  2  0  0  0  0  0  0
  185.5080  177.7070  146.1430 C   0  0  1  0  0  0  0  0  0  0  0  0
  186.1540  177.4100  144.7970 C   0  0  1  0  0  0  0  0  0  0  0  0
  186.8630  178.5710  144.0990 C   0  0  0  0  0  1  0  0  0  0  0  0
  186.7320  176.7870  146.0810 C   0  0  1  0  0  3  0  0  0  0  0  0
  185.6470  179.0990  146.7540 C   0  0  0  0  0  1  0  0  0  0  0  0
  184.3150  177.0260  146.3940 O   0  0  0  0  0  1  0  0  0  0  0  0
  185.4110  176.5330  143.9960 O   0  0  0  0  0  0  0  0  0  0  0  0
  185.0500  177.2410  142.9430 O   0  0  0  0  0  1  0  0  0  0  0  0
  1 25  1  6  0  0  0
  2  1  1  0  0  0  0
  2 18  1  1  0  0  0
  4 16  1  1  0  0  0
  4  2  1  0  0  0  0
  4  1  1  0  0  0  0
  5 17  1  0  0  0  0
  6  3  1  1  0  0  0
  6  7  1  0  0  0  0
  6 14  1  0  0  0  0
  7  5  2  0  0  0  0
  8 18  1  0  0  0  0
  9  7  1  0  0  0  0
  9 15  2  0  0  0  0
 12 17  2  0  0  0  0
 12 11  1  0  0  0  0
 13 16  2  0  0  0  0
 14 22  1  6  0  0  0
 14 20  1  0  0  0  0
 15 12  1  0  0  0  0
 17  8  1  0  0  0  0
 18 10  2  0  0  0  0
 18 19  2  0  0  0  0
 20 13  1  0  0  0  0
 21 22  2  0  0  0  0
 22 23  1  0  0  0  0
 24 22  1  0  0  0  0
 26 31  1  0  0  0  0
 26 30  1  1  0  0  0
 27 28  1  6  0  0  0
 27 29  1  0  0  0  0
 27 26  1  0  0  0  0
 29 26  1  0  0  0  0
 29 25  1  1  0  0  0
 32 27  1  0  0  0  0
 33 32  1  0  0  0  0
M  END
>  <MODEL>
3

>  <REMARK>
 VINA RESULT:      -7.4      0.852      1.189
  Name = 
  4 active torsions:
  status: ('A' for Active; 'I' for Inactive)
    1  A    between atoms: C_2  and  C_33
    2  A    between atoms: C_8  and  O_13
    3  A    between atoms: P_12  and  C_21
    4  A    between atoms: C_24  and  C_33
                            x       y       z     vdW  Elec       q    Type
                         _______ _______ _______ _____ _____    ______ ____

>  <TORSDO>
F 4

$$$$
=
 OpenBabel11062421103D

 33 36  0  0  1  0  0  0  0  0999 V2000
  190.9940  175.5870  143.5540 C   0  0  2  0  0  3  0  0  0  0  0  0
  190.0470  176.2350  142.5600 C   0  0  2  0  0  3  0  0  0  0  0  0
  186.2410  179.8120  143.6690 O   0  0  0  0  0  1  0  0  0  0  0  0
  189.8770  176.4650  144.0710 C   0  0  1  0  0  3  0  0  0  0  0  0
  186.8490  177.1170  141.9520 C   0  0  0  0  0  3  0  0  0  0  0  0
  185.5350  178.6140  143.5260 C   0  0  1  0  0  3  0  0  0  0  0  0
  185.7940  178.0150  142.1730 C   0  0  0  0  0  0  0  0  0  0  0  0
  188.1630  175.6720  140.4480 N   0  0  0  0  0  2  0  0  0  0  0  0
  185.0050  178.4230  141.0940 C   0  0  0  0  0  3  0  0  0  0  0  0
  188.1850  174.1620  142.6070 O   0  0  0  0  0  0  0  0  0  0  0  0
  186.5400  176.5310  138.2820 N   0  0  0  0  0  1  0  0  0  0  0  0
  186.3010  177.0250  139.5960 C   0  0  0  0  0  0  0  0  0  0  0  0
  187.6830  176.1140  145.1900 C   0  0  0  0  0  3  0  0  0  0  0  0
  185.8150  177.6510  144.6880 C   0  0  1  0  0  3  0  0  0  0  0  0
  185.2550  177.9270  139.8110 C   0  0  0  0  0  3  0  0  0  0  0  0
  188.8570  175.6260  144.7790 C   0  0  0  0  0  3  0  0  0  0  0  0
  187.1020  176.6080  140.6710 C   0  0  0  0  0  0  0  0  0  0  0  0
  189.1020  174.9500  141.7140 S   0  0  0  0  0  0  0  0  0  0  0  0
  190.0770  173.9970  141.0830 O   0  0  0  0  0  0  0  0  0  0  0  0
  187.3030  177.5460  144.9910 C   0  0  0  0  0  2  0  0  0  0  0  0
  185.8890  179.1600  147.1250 O   0  0  0  0  0  1  0  0  0  0  0  0
  184.9040  178.1650  146.1780 P   0  0  0  0  0  0  0  0  0  0  0  0
  183.5190  179.0220  145.7230 O   0  0  0  0  0  0  0  0  0  0  0  0
  184.4990  176.9490  146.9800 O   0  0  0  0  0  1  0  0  0  0  0  0
  192.2910  176.3680  143.5810 C   0  0  0  0  0  2  0  0  0  0  0  0
  193.2320  175.5880  145.8300 C   0  0  1  0  0  0  0  0  0  0  0  0
  194.1410  176.6940  145.3110 C   0  0  1  0  0  0  0  0  0  0  0  0
  195.1370  176.3120  144.2160 C   0  0  0  0  0  1  0  0  0  0  0  0
  192.6300  176.7430  145.0230 C   0  0  1  0  0  3  0  0  0  0  0  0
  193.3070  174.1970  145.2070 C   0  0  0  0  0  1  0  0  0  0  0  0
  192.9370  175.6520  147.1940 O   0  0  0  0  0  1  0  0  0  0  0  0
  194.5830  177.5750  146.3070 O   0  0  0  0  0  0  0  0  0  0  0  0
  195.3660  178.4380  145.6890 O   0  0  0  0  0  1  0  0  0  0  0  0
  1 25  1  6  0  0  0
  1  4  1  0  0  0  0
  2 18  1  1  0  0  0
  2  1  1  0  0  0  0
  2  4  1  0  0  0  0
  4 16  1  1  0  0  0
  5  7  1  0  0  0  0
  6  3  1  1  0  0  0
  6 14  1  0  0  0  0
  7  6  1  0  0  0  0
  8 17  1  0  0  0  0
  8 18  1  0  0  0  0
  9  7  2  0  0  0  0
 11 12  1  0  0  0  0
 12 15  2  0  0  0  0
 12 17  1  0  0  0  0
 14 20  1  0  0  0  0
 14 22  1  1  0  0  0
 15  9  1  0  0  0  0
 16 13  2  0  0  0  0
 17  5  2  0  0  0  0
 18 10  2  0  0  0  0
 19 18  2  0  0  0  0
 20 13  1  0  0  0  0
 22 24  1  0  0  0  0
 22 21  1  0  0  0  0
 23 22  2  0  0  0  0
 26 30  1  6  0  0  0
 26 31  1  0  0  0  0
 27 28  1  6  0  0  0
 27 26  1  0  0  0  0
 27 32  1  0  0  0  0
 29 25  1  6  0  0  0
 29 27  1  0  0  0  0
 29 26  1  0  0  0  0
 33 32  1  0  0  0  0
M  END
>  <MODEL>
4

>  <REMARK>
 VINA RESULT:      -7.4      4.053      8.012
  Name = 
  4 active torsions:
  status: ('A' for Active; 'I' for Inactive)
    1  A    between atoms: C_2  and  C_33
    2  A    between atoms: C_8  and  O_13
    3  A    between atoms: P_12  and  C_21
    4  A    between atoms: C_24  and  C_33
                            x       y       z     vdW  Elec       q    Type
                         _______ _______ _______ _____ _____    ______ ____

>  <TORSDO>
F 4

$$$$
=
 OpenBabel11062421103D

 33 36  0  0  1  0  0  0  0  0999 V2000
  192.1480  173.8470  145.8150 C   0  0  2  0  0  3  0  0  0  0  0  0
  191.5320  174.2420  144.4840 C   0  0  2  0  0  3  0  0  0  0  0  0
  188.3250  178.4140  143.5820 O   0  0  0  0  0  1  0  0  0  0  0  0
  191.1390  174.9740  145.7790 C   0  0  1  0  0  3  0  0  0  0  0  0
  188.7160  175.2520  142.9260 C   0  0  0  0  0  3  0  0  0  0  0  0
  187.4450  177.3300  143.6420 C   0  0  1  0  0  3  0  0  0  0  0  0
  187.8250  176.2930  142.6240 C   0  0  0  0  0  0  0  0  0  0  0  0
  189.9860  173.2470  142.2610 N   0  0  0  0  0  2  0  0  0  0  0  0
  187.3330  176.4150  141.3220 C   0  0  0  0  0  3  0  0  0  0  0  0
  189.3380  172.5390  144.7140 O   0  0  0  0  0  0  0  0  0  0  0  0
  188.9660  173.5340  139.6260 N   0  0  0  0  0  1  0  0  0  0  0  0
  188.5920  174.4580  140.6440 C   0  0  0  0  0  0  0  0  0  0  0  0
  188.7540  175.2770  146.4170 C   0  0  0  0  0  3  0  0  0  0  0  0
  187.3270  176.7760  145.0690 C   0  0  1  0  0  3  0  0  0  0  0  0
  187.7120  175.4990  140.3360 C   0  0  0  0  0  3  0  0  0  0  0  0
  189.8710  174.5430  146.4500 C   0  0  0  0  0  3  0  0  0  0  0  0
  189.0960  174.3240  141.9470 C   0  0  0  0  0  0  0  0  0  0  0  0
  190.5310  172.8730  143.8640 S   0  0  0  0  0  0  0  0  0  0  0  0
  191.4080  171.6560  143.7840 O   0  0  0  0  0  0  0  0  0  0  0  0
  188.6900  176.5980  145.7210 C   0  0  0  0  0  2  0  0  0  0  0  0
  185.8660  179.2400  145.2080 O   0  0  0  0  0  0  0  0  0  0  0  0
  186.2750  177.8560  146.0900 P   0  0  0  0  0  0  0  0  0  0  0  0
  184.8630  177.0270  146.5140 O   0  0  0  0  0  1  0  0  0  0  0  0
  187.0150  178.2600  147.3450 O   0  0  0  0  0  1  0  0  0  0  0  0
  193.5410  174.4330  145.9070 C   0  0  0  0  0  2  0  0  0  0  0  0
  194.9070  175.9090  144.3230 C   0  0  1  0  0  0  0  0  0  0  0  0
  195.6510  174.5890  144.4770 C   0  0  1  0  0  0  0  0  0  0  0  0
  196.4540  174.3940  145.7630 C   0  0  0  0  0  1  0  0  0  0  0  0
  194.1120  174.6110  144.5010 C   0  0  1  0  0  3  0  0  0  0  0  0
  194.9410  176.9290  145.4580 C   0  0  0  0  0  1  0  0  0  0  0  0
  194.8570  176.4150  143.0220 O   0  0  0  0  0  1  0  0  0  0  0  0
  196.2180  174.1180  143.2850 O   0  0  0  0  0  0  0  0  0  0  0  0
  197.5030  174.4070  143.3710 O   0  0  0  0  0  1  0  0  0  0  0  0
  1 25  1  6  0  0  0
  2 18  1  1  0  0  0
  2  4  1  0  0  0  0
  2  1  1  0  0  0  0
  4  1  1  0  0  0  0
  4 16  1  1  0  0  0
  6  3  1  1  0  0  0
  6 14  1  0  0  0  0
  7  5  1  0  0  0  0
  7  6  1  0  0  0  0
  8 18  1  0  0  0  0
  9  7  2  0  0  0  0
 11 12  1  0  0  0  0
 12 17  1  0  0  0  0
 13 16  2  0  0  0  0
 14 20  1  0  0  0  0
 14 22  1  1  0  0  0
 15 12  2  0  0  0  0
 15  9  1  0  0  0  0
 17  8  1  0  0  0  0
 17  5  2  0  0  0  0
 18 10  2  0  0  0  0
 19 18  2  0  0  0  0
 20 13  1  0  0  0  0
 21 22  2  0  0  0  0
 22 23  1  0  0  0  0
 22 24  1  0  0  0  0
 26 27  1  0  0  0  0
 26 29  1  0  0  0  0
 26 30  1  1  0  0  0
 27 29  1  0  0  0  0
 27 28  1  1  0  0  0
 29 25  1  1  0  0  0
 31 26  1  0  0  0  0
 32 33  1  0  0  0  0
 32 27  1  0  0  0  0
M  END
>  <MODEL>
5

>  <REMARK>
 VINA RESULT:      -7.2      3.670      7.603
  Name = 
  4 active torsions:
  status: ('A' for Active; 'I' for Inactive)
    1  A    between atoms: C_2  and  C_33
    2  A    between atoms: C_8  and  O_13
    3  A    between atoms: P_12  and  C_21
    4  A    between atoms: C_24  and  C_33
                            x       y       z     vdW  Elec       q    Type
                         _______ _______ _______ _____ _____    ______ ____

>  <TORSDO>
F 4

$$$$
=
 OpenBabel11062421103D

 33 36  0  0  1  0  0  0  0  0999 V2000
  188.3620  175.9360  145.1690 C   0  0  2  0  0  3  0  0  0  0  0  0
  189.8020  176.2860  144.8360 C   0  0  2  0  0  3  0  0  0  0  0  0
  193.0820  173.5380  141.6430 O   0  0  0  0  0  1  0  0  0  0  0  0
  189.1880  174.9570  144.3660 C   0  0  1  0  0  3  0  0  0  0  0  0
  192.9370  175.0890  144.4990 C   0  0  0  0  0  3  0  0  0  0  0  0
  193.4910  173.1730  142.9290 C   0  0  1  0  0  3  0  0  0  0  0  0
  193.8720  174.3920  143.7200 C   0  0  0  0  0  0  0  0  0  0  0  0
  192.3540  176.9520  146.0050 N   0  0  0  0  0  2  0  0  0  0  0  0
  195.1770  174.8820  143.6170 C   0  0  0  0  0  3  0  0  0  0  0  0
  190.8820  175.0570  147.0920 O   0  0  0  0  0  0  0  0  0  0  0  0
  195.0140  177.9160  145.7620 N   0  0  0  0  0  1  0  0  0  0  0  0
  194.6160  176.7320  145.0780 C   0  0  0  0  0  0  0  0  0  0  0  0
  190.3290  172.7880  144.7930 C   0  0  0  0  0  3  0  0  0  0  0  0
  192.4480  172.2890  143.6250 C   0  0  1  0  0  3  0  0  0  0  0  0
  195.5480  176.0460  144.2950 C   0  0  0  0  0  3  0  0  0  0  0  0
  189.4800  173.7410  145.1910 C   0  0  0  0  0  3  0  0  0  0  0  0
  193.3020  176.2530  145.1900 C   0  0  0  0  0  0  0  0  0  0  0  0
  190.7630  176.3650  146.3630 S   0  0  0  0  0  0  0  0  0  0  0  0
  190.0980  177.3550  147.2780 O   0  0  0  0  0  0  0  0  0  0  0  0
  191.0420  172.8530  143.4810 C   0  0  0  0  0  2  0  0  0  0  0  0
  193.8330  170.4350  141.9330 O   0  0  0  0  0  0  0  0  0  0  0  0
  192.5130  170.5890  142.9780 P   0  0  0  0  0  0  0  0  0  0  0  0
  192.6920  169.5050  144.2640 O   0  0  0  0  0  1  0  0  0  0  0  0
  191.2390  170.2720  142.2290 O   0  0  0  0  0  1  0  0  0  0  0  0
  187.4410  176.6920  144.2340 C   0  0  0  0  0  2  0  0  0  0  0  0
  185.8110  178.6620  144.3500 C   0  0  1  0  0  0  0  0  0  0  0  0
  185.9250  178.0760  145.7510 C   0  0  1  0  0  0  0  0  0  0  0  0
  185.1440  176.7900  146.0280 C   0  0  0  0  0  1  0  0  0  0  0  0
  187.1470  178.0730  144.8150 C   0  0  1  0  0  3  0  0  0  0  0  0
  184.9960  177.9260  143.2900 C   0  0  0  0  0  1  0  0  0  0  0  0
  185.8120  180.0570  144.2870 O   0  0  0  0  0  1  0  0  0  0  0  0
  185.9570  179.0420  146.7660 O   0  0  0  0  0  0  0  0  0  0  0  0
  185.0420  178.6650  147.6380 O   0  0  0  0  0  1  0  0  0  0  0  0
  1 25  1  6  0  0  0
  2  1  1  0  0  0  0
  2 18  1  1  0  0  0
  4  2  1  0  0  0  0
  4  1  1  0  0  0  0
  4 16  1  1  0  0  0
  5 17  1  0  0  0  0
  6  3  1  6  0  0  0
  6 14  1  0  0  0  0
  6  7  1  0  0  0  0
  7  5  2  0  0  0  0
  8 18  1  0  0  0  0
  9  7  1  0  0  0  0
  9 15  2  0  0  0  0
 12 17  2  0  0  0  0
 12 11  1  0  0  0  0
 13 16  2  0  0  0  0
 14 22  1  6  0  0  0
 15 12  1  0  0  0  0
 17  8  1  0  0  0  0
 18 10  2  0  0  0  0
 18 19  2  0  0  0  0
 20 14  1  0  0  0  0
 20 13  1  0  0  0  0
 21 22  2  0  0  0  0
 22 23  1  0  0  0  0
 24 22  1  0  0  0  0
 26 30  1  6  0  0  0
 26 29  1  0  0  0  0
 26 27  1  0  0  0  0
 27 28  1  1  0  0  0
 27 32  1  0  0  0  0
 29 25  1  6  0  0  0
 29 27  1  0  0  0  0
 31 26  1  0  0  0  0
 32 33  1  0  0  0  0
M  END
>  <MODEL>
6

>  <REMARK>
 VINA RESULT:      -7.2      1.533      1.974
  Name = 
  4 active torsions:
  status: ('A' for Active; 'I' for Inactive)
    1  A    between atoms: C_2  and  C_33
    2  A    between atoms: C_8  and  O_13
    3  A    between atoms: P_12  and  C_21
    4  A    between atoms: C_24  and  C_33
                            x       y       z     vdW  Elec       q    Type
                         _______ _______ _______ _____ _____    ______ ____

>  <TORSDO>
F 4

$$$$
=
 OpenBabel11062421103D

 33 36  0  0  1  0  0  0  0  0999 V2000
  188.6310  177.8990  144.9910 C   0  0  2  0  0  3  0  0  0  0  0  0
  188.7540  176.5470  144.3100 C   0  0  2  0  0  3  0  0  0  0  0  0
  192.6790  172.9930  144.9910 O   0  0  0  0  0  1  0  0  0  0  0  0
  189.8930  177.0890  145.1910 C   0  0  1  0  0  3  0  0  0  0  0  0
  190.8390  174.4250  142.7220 C   0  0  0  0  0  3  0  0  0  0  0  0
  192.9990  173.6080  143.7770 C   0  0  1  0  0  3  0  0  0  0  0  0
  191.8610  173.4680  142.8060 C   0  0  0  0  0  0  0  0  0  0  0  0
  188.7300  175.2380  141.7400 N   0  0  0  0  0  2  0  0  0  0  0  0
  191.7860  172.3160  142.0180 C   0  0  0  0  0  3  0  0  0  0  0  0
  189.9800  177.5400  142.0130 O   0  0  0  0  0  0  0  0  0  0  0  0
  188.6120  172.8800  140.1610 N   0  0  0  0  0  1  0  0  0  0  0  0
  189.6990  173.0890  141.0570 C   0  0  0  0  0  0  0  0  0  0  0  0
  192.2360  177.1720  144.3600 C   0  0  0  0  0  3  0  0  0  0  0  0
  193.4570  175.0580  143.9820 C   0  0  1  0  0  3  0  0  0  0  0  0
  190.7110  172.1280  141.1450 C   0  0  0  0  0  3  0  0  0  0  0  0
  191.0390  177.7530  144.4920 C   0  0  0  0  0  3  0  0  0  0  0  0
  189.7610  174.2500  141.8440 C   0  0  0  0  0  0  0  0  0  0  0  0
  188.7840  176.7850  142.5200 S   0  0  0  0  0  0  0  0  0  0  0  0
  187.5480  177.5450  142.1320 O   0  0  0  0  0  0  0  0  0  0  0  0
  192.5290  175.8180  144.9200 C   0  0  0  0  0  2  0  0  0  0  0  0
  195.9490  173.6610  144.2230 O   0  0  0  0  0  1  0  0  0  0  0  0
  195.1650  175.1080  144.6100 P   0  0  0  0  0  0  0  0  0  0  0  0
  195.9900  176.3980  143.8920 O   0  0  0  0  0  0  0  0  0  0  0  0
  195.1580  175.2910  146.1110 O   0  0  0  0  0  1  0  0  0  0  0  0
  187.7520  177.7570  146.2160 C   0  0  0  0  0  2  0  0  0  0  0  0
  185.2120  177.7460  146.5350 C   0  0  1  0  0  0  0  0  0  0  0  0
  185.4920  178.1220  145.0860 C   0  0  1  0  0  0  0  0  0  0  0  0
  185.9360  179.5610  144.8190 C   0  0  0  0  0  1  0  0  0  0  0  0
  186.4180  177.1320  145.8150 C   0  0  1  0  0  3  0  0  0  0  0  0
  185.4420  178.7750  147.6380 C   0  0  0  0  0  1  0  0  0  0  0  0
  184.1610  176.8450  146.7230 O   0  0  0  0  0  1  0  0  0  0  0  0
  184.6050  177.5410  144.1700 O   0  0  0  0  0  0  0  0  0  0  0  0
  184.0930  178.5480  143.4900 O   0  0  0  0  0  1  0  0  0  0  0  0
  1  4  1  0  0  0  0
  1 25  1  1  0  0  0
  2 18  1  6  0  0  0
  2  1  1  0  0  0  0
  2  4  1  0  0  0  0
  4 16  1  6  0  0  0
  5  7  1  0  0  0  0
  6 14  1  0  0  0  0
  6  3  1  1  0  0  0
  7  6  1  0  0  0  0
  8 17  1  0  0  0  0
  8 18  1  0  0  0  0
  9  7  2  0  0  0  0
 10 18  2  0  0  0  0
 11 12  1  0  0  0  0
 12 15  2  0  0  0  0
 12 17  1  0  0  0  0
 13 16  2  0  0  0  0
 13 20  1  0  0  0  0
 14 22  1  1  0  0  0
 14 20  1  0  0  0  0
 15  9  1  0  0  0  0
 17  5  2  0  0  0  0
 19 18  2  0  0  0  0
 21 22  1  0  0  0  0
 22 24  1  0  0  0  0
 23 22  2  0  0  0  0
 26 31  1  0  0  0  0
 26 30  1  1  0  0  0
 27 28  1  6  0  0  0
 27 29  1  0  0  0  0
 27 26  1  0  0  0  0
 29 25  1  1  0  0  0
 29 26  1  0  0  0  0
 32 27  1  0  0  0  0
 33 32  1  0  0  0  0
M  END
>  <MODEL>
7

>  <REMARK>
 VINA RESULT:      -7.0      3.277      4.751
  Name = 
  4 active torsions:
  status: ('A' for Active; 'I' for Inactive)
    1  A    between atoms: C_2  and  C_33
    2  A    between atoms: C_8  and  O_13
    3  A    between atoms: P_12  and  C_21
    4  A    between atoms: C_24  and  C_33
                            x       y       z     vdW  Elec       q    Type
                         _______ _______ _______ _____ _____    ______ ____

>  <TORSDO>
F 4

$$$$
=
 OpenBabel11062421103D

 33 36  0  0  1  0  0  0  0  0999 V2000
  188.8200  176.3750  145.2320 C   0  0  2  0  0  3  0  0  0  0  0  0
  190.1950  176.5380  144.6080 C   0  0  2  0  0  3  0  0  0  0  0  0
  191.9950  174.1070  140.2090 O   0  0  0  0  0  1  0  0  0  0  0  0
  189.2080  175.4880  144.0700 C   0  0  1  0  0  3  0  0  0  0  0  0
  192.8270  174.9290  143.2440 C   0  0  0  0  0  3  0  0  0  0  0  0
  192.5780  173.3790  141.2490 C   0  0  1  0  0  3  0  0  0  0  0  0
  193.3880  174.2860  142.1310 C   0  0  0  0  0  0  0  0  0  0  0  0
  193.0220  176.4480  145.1750 N   0  0  0  0  0  2  0  0  0  0  0  0
  194.7160  174.5510  141.7860 C   0  0  0  0  0  3  0  0  0  0  0  0
  191.4270  174.6340  146.2280 O   0  0  0  0  0  0  0  0  0  0  0  0
  195.7160  176.9630  144.4370 N   0  0  0  0  0  1  0  0  0  0  0  0
  194.9200  176.0660  143.6670 C   0  0  0  0  0  0  0  0  0  0  0  0
  189.8900  173.1150  143.7650 C   0  0  0  0  0  3  0  0  0  0  0  0
  191.5360  172.5500  142.0120 C   0  0  1  0  0  3  0  0  0  0  0  0
  195.4800  175.4360  142.5530 C   0  0  0  0  0  3  0  0  0  0  0  0
  189.3860  174.0780  144.5440 C   0  0  0  0  0  3  0  0  0  0  0  0
  193.5870  175.8100  144.0250 C   0  0  0  0  0  0  0  0  0  0  0  0
  191.4540  176.0800  145.8180 S   0  0  0  0  0  0  0  0  0  0  0  0
  191.2460  176.9210  147.0450 O   0  0  0  0  0  0  0  0  0  0  0  0
  190.2990  173.3690  142.3500 C   0  0  0  0  0  2  0  0  0  0  0  0
  189.9060  171.4850  139.9070 O   0  0  0  0  0  0  0  0  0  0  0  0
  191.0720  171.0700  141.0590 P   0  0  0  0  0  0  0  0  0  0  0  0
  192.4380  170.4560  140.2740 O   0  0  0  0  0  1  0  0  0  0  0  0
  190.5110  170.0150  141.9850 O   0  0  0  0  0  1  0  0  0  0  0  0
  187.9160  177.4820  144.7300 C   0  0  0  0  0  2  0  0  0  0  0  0
  185.9360  177.9480  143.1750 C   0  0  1  0  0  0  0  0  0  0  0  0
  187.0810  177.4250  142.3180 C   0  0  1  0  0  0  0  0  0  0  0  0
  188.1990  178.4120  141.9800 C   0  0  0  0  0  1  0  0  0  0  0  0
  186.8950  176.9020  143.7530 C   0  0  1  0  0  3  0  0  0  0  0  0
  185.9830  179.3800  143.7020 C   0  0  0  0  0  1  0  0  0  0  0  0
  184.6770  177.4330  142.8630 O   0  0  0  0  0  1  0  0  0  0  0  0
  186.6730  176.5440  141.3080 O   0  0  0  0  0  0  0  0  0  0  0  0
  187.0040  177.1320  140.1740 O   0  0  0  0  0  1  0  0  0  0  0  0
  1 25  1  6  0  0  0
  2  1  1  0  0  0  0
  2 18  1  1  0  0  0
  4 16  1  1  0  0  0
  4  2  1  0  0  0  0
  4  1  1  0  0  0  0
  5 17  1  0  0  0  0
  6  3  1  6  0  0  0
  6 14  1  0  0  0  0
  6  7  1  0  0  0  0
  7  5  2  0  0  0  0
  8 18  1  0  0  0  0
  9  7  1  0  0  0  0
  9 15  2  0  0  0  0
 12 17  2  0  0  0  0
 12 11  1  0  0  0  0
 13 16  2  0  0  0  0
 14 22  1  6  0  0  0
 14 20  1  0  0  0  0
 15 12  1  0  0  0  0
 17  8  1  0  0  0  0
 18 10  2  0  0  0  0
 18 19  2  0  0  0  0
 20 13  1  0  0  0  0
 21 22  2  0  0  0  0
 22 24  1  0  0  0  0
 23 22  1  0  0  0  0
 26 30  1  1  0  0  0
 26 29  1  0  0  0  0
 27 28  1  6  0  0  0
 27 26  1  0  0  0  0
 27 29  1  0  0  0  0
 29 25  1  1  0  0  0
 31 26  1  0  0  0  0
 32 27  1  0  0  0  0
 33 32  1  0  0  0  0
M  END
>  <MODEL>
8

>  <REMARK>
 VINA RESULT:      -6.9      1.803      2.249
  Name = 
  4 active torsions:
  status: ('A' for Active; 'I' for Inactive)
    1  A    between atoms: C_2  and  C_33
    2  A    between atoms: C_8  and  O_13
    3  A    between atoms: P_12  and  C_21
    4  A    between atoms: C_24  and  C_33
                            x       y       z     vdW  Elec       q    Type
                         _______ _______ _______ _____ _____    ______ ____

>  <TORSDO>
F 4

$$$$
=
 OpenBabel11062421103D

 33 36  0  0  1  0  0  0  0  0999 V2000
  189.8980  174.5580  141.4030 C   0  0  2  0  0  3  0  0  0  0  0  0
  190.4110  174.7140  142.8240 C   0  0  2  0  0  3  0  0  0  0  0  0
  187.5000  175.9190  147.1350 O   0  0  0  0  0  1  0  0  0  0  0  0
  188.9520  175.0540  142.4730 C   0  0  1  0  0  3  0  0  0  0  0  0
  190.2970  176.5980  145.6190 C   0  0  0  0  0  3  0  0  0  0  0  0
  188.1160  177.1290  146.8040 C   0  0  1  0  0  3  0  0  0  0  0  0
  189.6100  176.9660  146.7840 C   0  0  0  0  0  0  0  0  0  0  0  0
  192.3910  176.0510  144.4390 N   0  0  0  0  0  2  0  0  0  0  0  0
  190.3200  177.1150  147.9790 C   0  0  0  0  0  3  0  0  0  0  0  0
  191.1650  177.3800  142.5230 O   0  0  0  0  0  0  0  0  0  0  0  0
  193.7950  176.3580  146.8890 N   0  0  0  0  0  1  0  0  0  0  0  0
  192.3850  176.5580  146.8410 C   0  0  0  0  0  0  0  0  0  0  0  0
  187.9460  177.2360  143.1190 C   0  0  0  0  0  3  0  0  0  0  0  0
  187.5450  177.7180  145.5080 C   0  0  1  0  0  3  0  0  0  0  0  0
  191.7020  176.9140  148.0070 C   0  0  0  0  0  3  0  0  0  0  0  0
  188.6250  176.4960  142.2360 C   0  0  0  0  0  3  0  0  0  0  0  0
  191.6850  176.4030  145.6340 C   0  0  0  0  0  0  0  0  0  0  0  0
  191.6710  176.0060  142.8630 S   0  0  0  0  0  0  0  0  0  0  0  0
  192.7410  175.6410  141.8740 O   0  0  0  0  0  0  0  0  0  0  0  0
  187.4420  176.6720  144.4080 C   0  0  0  0  0  2  0  0  0  0  0  0
  185.8800  179.1230  147.3730 O   0  0  0  0  0  1  0  0  0  0  0  0
  185.9180  178.4760  145.8110 P   0  0  0  0  0  0  0  0  0  0  0  0
  185.6570  179.7150  144.6890 O   0  0  0  0  0  0  0  0  0  0  0  0
  184.8300  177.4360  145.6700 O   0  0  0  0  0  1  0  0  0  0  0  0
  189.6210  173.0940  141.1350 C   0  0  0  0  0  2  0  0  0  0  0  0
  190.8770  172.7000  138.9400 C   0  0  1  0  0  0  0  0  0  0  0  0
  190.0190  171.4700  139.2060 C   0  0  1  0  0  0  0  0  0  0  0  0
  190.5410  170.4740  140.2420 C   0  0  0  0  0  1  0  0  0  0  0  0
  189.5180  172.8620  139.6290 C   0  0  1  0  0  3  0  0  0  0  0  0
  192.1560  172.9140  139.7450 C   0  0  0  0  0  1  0  0  0  0  0  0
  190.8840  173.1450  137.6160 O   0  0  0  0  0  1  0  0  0  0  0  0
  189.4120  170.9450  138.0560 O   0  0  0  0  0  0  0  0  0  0  0  0
  189.6260  169.6450  138.1090 O   0  0  0  0  0  1  0  0  0  0  0  0
  1 25  1  1  0  0  0
  1  4  1  0  0  0  0
  1  2  1  0  0  0  0
  2 18  1  6  0  0  0
  4 16  1  6  0  0  0
  4  2  1  0  0  0  0
  5 17  2  0  0  0  0
  5  7  1  0  0  0  0
  6  3  1  6  0  0  0
  7  6  1  0  0  0  0
  7  9  2  0  0  0  0
  8 17  1  0  0  0  0
  9 15  1  0  0  0  0
 10 18  2  0  0  0  0
 12 11  1  0  0  0  0
 12 15  2  0  0  0  0
 13 20  1  0  0  0  0
 14 22  1  1  0  0  0
 14  6  1  0  0  0  0
 16 13  2  0  0  0  0
 17 12  1  0  0  0  0
 18  8  1  0  0  0  0
 19 18  2  0  0  0  0
 20 14  1  0  0  0  0
 22 21  1  0  0  0  0
 23 22  2  0  0  0  0
 24 22  1  0  0  0  0
 26 27  1  0  0  0  0
 26 29  1  0  0  0  0
 26 30  1  1  0  0  0
 27 29  1  0  0  0  0
 27 28  1  1  0  0  0
 29 25  1  1  0  0  0
 31 26  1  0  0  0  0
 32 33  1  0  0  0  0
 32 27  1  0  0  0  0
M  END
>  <MODEL>
9

>  <REMARK>
 VINA RESULT:      -6.9      3.180      7.333
  Name = 
  4 active torsions:
  status: ('A' for Active; 'I' for Inactive)
    1  A    between atoms: C_2  and  C_33
    2  A    between atoms: C_8  and  O_13
    3  A    between atoms: P_12  and  C_21
    4  A    between atoms: C_24  and  C_33
                            x       y       z     vdW  Elec       q    Type
                         _______ _______ _______ _____ _____    ______ ____

>  <TORSDO>
F 4

$$$$
