=
 OpenBabel11062422043D

 34 39  0  0  1  0  0  0  0  0999 V2000
  192.4490  173.0090  142.7830 C   0  0  0  0  0  2  0  0  0  0  0  0
  190.6870  171.8620  144.2630 C   0  0  0  0  0  3  0  0  0  0  0  0
  196.1460  174.0010  142.8360 C   0  0  1  0  0  3  0  0  0  0  0  0
  196.4000  173.8770  144.3620 C   0  0  0  0  0  2  0  0  0  0  0  0
  196.0250  175.1290  145.1610 C   0  0  0  0  0  2  0  0  0  0  0  0
  194.6800  174.0710  142.3370 C   0  0  2  0  0  3  0  0  0  0  0  0
  193.8150  175.7850  146.1790 C   0  0  0  0  0  2  0  0  0  0  0  0
  192.7910  175.8130  142.4310 C   0  0  0  0  0  2  0  0  0  0  0  0
  190.7670  176.4710  145.2490 C   0  0  2  0  0  3  0  0  0  0  0  0
  190.8600  175.5070  144.0950 C   0  0  1  0  0  3  0  0  0  0  0  0
  191.7390  175.7950  143.1860 C   0  0  0  0  0  2  0  0  0  0  0  0
  190.5700  174.0640  144.2770 C   0  0  0  0  0  0  0  0  0  0  0  0
  193.9480  175.1500  143.1000 C   0  0  1  0  0  3  0  0  0  0  0  0
  194.9570  174.7740  146.1890 C   0  0  0  0  0  2  0  0  0  0  0  0
  191.3000  175.9660  146.6080 C   0  0  0  0  0  2  0  0  0  0  0  0
  193.6950  173.6490  143.4190 C   0  0  1  0  0  3  0  0  0  0  0  0
  192.5300  175.0550  146.5450 C   0  0  0  0  0  2  0  0  0  0  0  0
  189.6900  172.2590  145.0830 N   0  0  0  0  0  2  0  0  0  0  0  0
  189.6210  173.5820  145.0990 N   0  0  0  0  0  0  0  0  0  0  0  0
  191.2780  172.9910  143.7370 C   0  0  0  0  0  0  0  0  0  0  0  0
  187.4750  178.0900  144.3030 C   0  0  0  0  0  3  0  0  0  0  0  0
  186.8180  178.1610  145.5420 C   0  0  0  0  0  0  0  0  0  0  0  0
  188.7430  177.1430  146.6080 C   0  0  0  0  0  3  0  0  0  0  0  0
  187.4600  177.6890  146.6920 C   0  0  0  0  0  3  0  0  0  0  0  0
  189.4000  177.0700  145.3700 C   0  0  0  0  0  0  0  0  0  0  0  0
  188.7580  177.5420  144.2190 C   0  0  0  0  0  3  0  0  0  0  0  0
  184.5580  177.8930  146.5480 C   0  0  0  0  0  1  0  0  0  0  0  0
  185.4470  178.7490  145.6650 C   0  0  0  0  0  3  0  0  0  0  0  0
  184.8060  178.9350  144.3010 C   0  0  0  0  0  1  0  0  0  0  0  0
  196.9310  175.0850  142.2640 N   0  0  0  0  0  2  0  0  0  0  0  0
  196.6960  176.3680  140.3320 O   0  0  0  0  0  0  0  0  0  0  0  0
  196.7240  175.0500  140.8260 C   0  0  1  0  0  3  0  0  0  0  0  0
  197.9410  175.1910  138.8240 O   0  0  0  0  0  1  0  0  0  0  0  0
  197.8900  175.6470  140.1390 C   0  0  1  0  0  3  0  0  0  0  0  0
  1 16  1  0  0  0  0
  1 20  1  0  0  0  0
  2 18  1  0  0  0  0
  3 30  1  1  0  0  0
  3  4  1  0  0  0  0
  4  5  1  0  0  0  0
  5 14  1  0  0  0  0
  6  3  1  0  0  0  0
  6 13  1  0  0  0  0
  6 16  1  0  0  0  0
  7 14  1  0  0  0  0
  7 17  1  0  0  0  0
  8 13  1  0  0  0  0
  8 11  1  0  0  0  0
  9 25  1  0  0  0  0
  9 15  1  0  0  0  0
 10 12  1  0  0  0  0
 10  9  1  0  0  0  0
 11 10  1  0  0  0  0
 12 19  2  0  0  0  0
 13 16  1  0  0  0  0
 17 15  1  0  0  0  0
 18 19  1  0  0  0  0
 20  2  2  0  0  0  0
 20 12  1  0  0  0  0
 21 22  1  0  0  0  0
 22 28  1  0  0  0  0
 22 24  2  0  0  0  0
 23 24  1  0  0  0  0
 25 23  2  0  0  0  0
 26 21  2  0  0  0  0
 26 25  1  0  0  0  0
 28 27  1  0  0  0  0
 29 28  1  0  0  0  0
 31 32  1  0  0  0  0
 32 30  1  0  0  0  0
 33 34  1  0  0  0  0
 34 31  1  0  0  0  0
 34 32  1  0  0  0  0
M  END
>  <MODEL>
1

>  <REMARK>
 VINA RESULT:      -8.3      0.000      0.000
  Name = 
  4 active torsions:
  status: ('A' for Active; 'I' for Inactive)
    1  A    between atoms: C_4  and  N_25
    2  A    between atoms: C_9  and  C_10
    3  A    between atoms: C_13  and  N_25
    4  A    between atoms: C_15  and  C_24
                            x       y       z     vdW  Elec       q    Type
                         _______ _______ _______ _____ _____    ______ ____

>  <TORSDO>
F 4

$$$$
=
 OpenBabel11062422043D

 34 39  0  0  1  0  0  0  0  0999 V2000
  188.8770  178.2000  142.1050 C   0  0  0  0  0  2  0  0  0  0  0  0
  191.1570  178.6490  143.2050 C   0  0  0  0  0  3  0  0  0  0  0  0
  185.1360  178.6330  142.7940 C   0  0  1  0  0  3  0  0  0  0  0  0
  185.2070  178.8720  144.3260 C   0  0  0  0  0  2  0  0  0  0  0  0
  185.2380  177.5870  145.1570 C   0  0  0  0  0  2  0  0  0  0  0  0
  186.3720  178.0210  142.0870 C   0  0  2  0  0  3  0  0  0  0  0  0
  187.2050  176.1870  145.8810 C   0  0  0  0  0  2  0  0  0  0  0  0
  187.4990  175.7100  142.0360 C   0  0  0  0  0  2  0  0  0  0  0  0
  189.6000  174.4120  144.5600 C   0  0  2  0  0  3  0  0  0  0  0  0
  189.6630  175.3200  143.3600 C   0  0  1  0  0  3  0  0  0  0  0  0
  188.5990  175.3560  142.6200 C   0  0  0  0  0  2  0  0  0  0  0  0
  190.4780  176.5590  143.3790 C   0  0  0  0  0  0  0  0  0  0  0  0
  186.7870  176.7640  142.8160 C   0  0  1  0  0  3  0  0  0  0  0  0
  186.5200  177.5460  145.9810 C   0  0  0  0  0  2  0  0  0  0  0  0
  189.5210  175.1050  145.9390 C   0  0  0  0  0  2  0  0  0  0  0  0
  187.6110  178.0740  142.9710 C   0  0  1  0  0  3  0  0  0  0  0  0
  188.7080  176.4020  145.9890 C   0  0  0  0  0  2  0  0  0  0  0  0
  192.0690  177.9310  143.8950 N   0  0  0  0  0  2  0  0  0  0  0  0
  191.6610  176.6760  144.0070 N   0  0  0  0  0  0  0  0  0  0  0  0
  190.1200  177.8060  142.8670 C   0  0  0  0  0  0  0  0  0  0  0  0
  191.3600  171.1370  143.8390 C   0  0  0  0  0  3  0  0  0  0  0  0
  192.6330  171.3630  144.3860 C   0  0  0  0  0  0  0  0  0  0  0  0
  191.9320  173.5800  145.0700 C   0  0  0  0  0  3  0  0  0  0  0  0
  192.9120  172.5870  145.0040 C   0  0  0  0  0  3  0  0  0  0  0  0
  190.6600  173.3560  144.5220 C   0  0  0  0  0  0  0  0  0  0  0  0
  190.3810  172.1320  143.9030 C   0  0  0  0  0  3  0  0  0  0  0  0
  193.1030  168.9280  144.1730 C   0  0  0  0  0  1  0  0  0  0  0  0
  193.7000  170.3140  144.3390 C   0  0  0  0  0  3  0  0  0  0  0  0
  194.5720  170.3630  145.5810 C   0  0  0  0  0  1  0  0  0  0  0  0
  183.9300  177.9020  142.4360 N   0  0  0  0  0  2  0  0  0  0  0  0
  183.0390  177.8500  140.2830 O   0  0  0  0  0  0  0  0  0  0  0  0
  183.2540  178.6710  141.4050 C   0  0  1  0  0  3  0  0  0  0  0  0
  181.1000  179.0270  140.5410 O   0  0  0  0  0  1  0  0  0  0  0  0
  181.9310  178.0720  141.1230 C   0  0  1  0  0  3  0  0  0  0  0  0
  1 20  1  0  0  0  0
  1 16  1  0  0  0  0
  2 18  1  0  0  0  0
  3 30  1  1  0  0  0
  3  4  1  0  0  0  0
  4  5  1  0  0  0  0
  5 14  1  0  0  0  0
  6  3  1  0  0  0  0
  6 13  1  0  0  0  0
  6 16  1  0  0  0  0
  7 14  1  0  0  0  0
  7 17  1  0  0  0  0
  8 11  1  0  0  0  0
  8 13  1  0  0  0  0
  9 15  1  0  0  0  0
 10 12  1  0  0  0  0
 10  9  1  0  0  0  0
 11 10  1  0  0  0  0
 12 19  2  0  0  0  0
 13 16  1  0  0  0  0
 15 17  1  0  0  0  0
 18 19  1  0  0  0  0
 20  2  2  0  0  0  0
 20 12  1  0  0  0  0
 21 26  2  0  0  0  0
 21 22  1  0  0  0  0
 22 24  2  0  0  0  0
 24 23  1  0  0  0  0
 25  9  1  0  0  0  0
 25 23  2  0  0  0  0
 26 25  1  0  0  0  0
 27 28  1  0  0  0  0
 28 22  1  0  0  0  0
 28 29  1  0  0  0  0
 31 34  1  0  0  0  0
 31 32  1  0  0  0  0
 32 30  1  0  0  0  0
 33 34  1  0  0  0  0
 34 32  1  0  0  0  0
M  END
>  <MODEL>
2

>  <REMARK>
 VINA RESULT:      -8.1      4.626      9.150
  Name = 
  4 active torsions:
  status: ('A' for Active; 'I' for Inactive)
    1  A    between atoms: C_4  and  N_25
    2  A    between atoms: C_9  and  C_10
    3  A    between atoms: C_13  and  N_25
    4  A    between atoms: C_15  and  C_24
                            x       y       z     vdW  Elec       q    Type
                         _______ _______ _______ _____ _____    ______ ____

>  <TORSDO>
F 4

$$$$
=
 OpenBabel11062422043D

 34 39  0  0  1  0  0  0  0  0999 V2000
  189.4430  173.7370  142.6730 C   0  0  0  0  0  2  0  0  0  0  0  0
  191.1240  172.9100  140.9130 C   0  0  0  0  0  3  0  0  0  0  0  0
  187.9650  176.9960  144.0340 C   0  0  1  0  0  3  0  0  0  0  0  0
  189.0150  177.9850  143.4620 C   0  0  0  0  0  2  0  0  0  0  0  0
  190.2580  178.1520  144.3390 C   0  0  0  0  0  2  0  0  0  0  0  0
  188.3230  175.4890  144.0820 C   0  0  2  0  0  3  0  0  0  0  0  0
  192.3970  176.8200  144.3670 C   0  0  0  0  0  2  0  0  0  0  0  0
  189.9270  174.0280  145.4630 C   0  0  0  0  0  2  0  0  0  0  0  0
  193.4100  173.7750  144.9420 C   0  0  2  0  0  3  0  0  0  0  0  0
  192.1200  173.2040  144.4140 C   0  0  1  0  0  3  0  0  0  0  0  0
  191.0500  173.5110  145.0800 C   0  0  0  0  0  2  0  0  0  0  0  0
  191.9290  172.9560  142.9640 C   0  0  0  0  0  0  0  0  0  0  0  0
  189.6600  175.3200  144.7660 C   0  0  1  0  0  3  0  0  0  0  0  0
  191.4960  177.7400  143.5510 C   0  0  0  0  0  2  0  0  0  0  0  0
  194.0600  174.8940  144.0990 C   0  0  0  0  0  2  0  0  0  0  0  0
  189.5400  175.1710  143.2230 C   0  0  1  0  0  3  0  0  0  0  0  0
  193.0890  175.8590  143.4100 C   0  0  0  0  0  2  0  0  0  0  0  0
  192.4100  172.4990  140.9050 N   0  0  0  0  0  0  0  0  0  0  0  0
  192.8990  172.5320  142.1360 N   0  0  0  0  0  0  0  0  0  0  0  0
  190.7850  173.2190  142.2130 C   0  0  1  0  0  3  0  0  0  0  0  0
  196.6490  172.0750  145.9290 C   0  0  0  0  0  3  0  0  0  0  0  0
  196.2550  170.7310  146.0290 C   0  0  0  0  0  0  0  0  0  0  0  0
  193.9980  171.3590  145.4020 C   0  0  0  0  0  3  0  0  0  0  0  0
  194.9270  170.3790  145.7600 C   0  0  0  0  0  3  0  0  0  0  0  0
  194.3910  172.7030  145.3040 C   0  0  0  0  0  0  0  0  0  0  0  0
  195.7190  173.0550  145.5730 C   0  0  0  0  0  3  0  0  0  0  0  0
  197.5420  168.7620  145.2170 C   0  0  0  0  0  1  0  0  0  0  0  0
  197.2300  169.6580  146.4010 C   0  0  0  0  0  3  0  0  0  0  0  0
  196.7130  168.8280  147.5640 C   0  0  0  0  0  1  0  0  0  0  0  0
  187.4760  177.4460  145.3290 N   0  0  0  0  0  2  0  0  0  0  0  0
  185.6890  176.6660  146.6060 O   0  0  0  0  0  0  0  0  0  0  0  0
  186.0440  177.2020  145.3540 C   0  0  1  0  0  3  0  0  0  0  0  0
  184.0600  178.1900  146.1260 O   0  0  0  0  0  1  0  0  0  0  0  0
  185.4150  178.0320  146.4050 C   0  0  1  0  0  3  0  0  0  0  0  0
  1 16  1  0  0  0  0
  2 20  1  0  0  0  0
  3  6  1  0  0  0  0
  3 30  1  1  0  0  0
  4  3  1  0  0  0  0
  4  5  1  0  0  0  0
  6 13  1  0  0  0  0
  9 25  1  0  0  0  0
 10  9  1  0  0  0  0
 10 11  1  0  0  0  0
 11  8  1  0  0  0  0
 12 10  1  0  0  0  0
 13  8  1  0  0  0  0
 14  5  1  0  0  0  0
 14  7  1  0  0  0  0
 15  9  1  0  0  0  0
 16  6  1  0  0  0  0
 16 13  1  0  0  0  0
 17 15  1  0  0  0  0
 17  7  1  0  0  0  0
 18  2  2  0  0  0  0
 18 19  1  0  0  0  0
 19 12  2  0  0  0  0
 20  1  1  0  0  0  0
 20 12  1  0  0  0  0
 21 22  1  0  0  0  0
 22 28  1  0  0  0  0
 23 24  1  0  0  0  0
 24 22  2  0  0  0  0
 25 23  2  0  0  0  0
 25 26  1  0  0  0  0
 26 21  2  0  0  0  0
 27 28  1  0  0  0  0
 28 29  1  0  0  0  0
 30 32  1  0  0  0  0
 32 34  1  0  0  0  0
 32 31  1  0  0  0  0
 33 34  1  0  0  0  0
 34 31  1  0  0  0  0
M  END
>  <MODEL>
3

>  <REMARK>
 VINA RESULT:      -7.9      4.210      8.761
  Name = 
  4 active torsions:
  status: ('A' for Active; 'I' for Inactive)
    1  A    between atoms: C_4  and  N_25
    2  A    between atoms: C_9  and  C_10
    3  A    between atoms: C_13  and  N_25
    4  A    between atoms: C_15  and  C_24
                            x       y       z     vdW  Elec       q    Type
                         _______ _______ _______ _____ _____    ______ ____

>  <TORSDO>
F 4

$$$$
=
 OpenBabel11062422043D

 34 39  0  0  1  0  0  0  0  0999 V2000
  191.3800  173.9160  140.7140 C   0  0  0  0  0  2  0  0  0  0  0  0
  189.0260  172.8930  140.8620 C   0  0  0  0  0  3  0  0  0  0  0  0
  194.9840  173.1810  141.7780 C   0  0  1  0  0  3  0  0  0  0  0  0
  194.6950  172.0890  142.8410 C   0  0  0  0  0  2  0  0  0  0  0  0
  194.3690  172.6410  144.2310 C   0  0  0  0  0  2  0  0  0  0  0  0
  193.8120  174.0850  141.3150 C   0  0  2  0  0  3  0  0  0  0  0  0
  192.1530  173.3390  145.2060 C   0  0  0  0  0  2  0  0  0  0  0  0
  192.4310  175.9800  142.3690 C   0  0  0  0  0  2  0  0  0  0  0  0
  189.8020  175.5380  144.6860 C   0  0  2  0  0  3  0  0  0  0  0  0
  190.0480  175.5070  143.2000 C   0  0  1  0  0  3  0  0  0  0  0  0
  191.2150  175.9180  142.8100 C   0  0  0  0  0  2  0  0  0  0  0  0
  189.4020  174.4880  142.3380 C   0  0  0  0  0  0  0  0  0  0  0  0
  193.1310  174.6730  142.5290 C   0  0  1  0  0  3  0  0  0  0  0  0
  192.9760  172.1840  144.6460 C   0  0  0  0  0  2  0  0  0  0  0  0
  189.7410  174.1690  145.3980 C   0  0  0  0  0  2  0  0  0  0  0  0
  192.4620  173.5170  141.7320 C   0  0  1  0  0  3  0  0  0  0  0  0
  190.6900  173.0940  144.8610 C   0  0  0  0  0  2  0  0  0  0  0  0
  187.9310  173.0650  141.6340 N   0  0  0  0  0  2  0  0  0  0  0  0
  188.1560  174.0180  142.5270 N   0  0  0  0  0  0  0  0  0  0  0  0
  189.9900  173.7810  141.2900 C   0  0  0  0  0  0  0  0  0  0  0  0
  187.1200  178.2010  144.4390 C   0  0  0  0  0  3  0  0  0  0  0  0
  186.4340  178.0380  145.6530 C   0  0  0  0  0  0  0  0  0  0  0  0
  187.9540  176.2490  146.2580 C   0  0  0  0  0  3  0  0  0  0  0  0
  186.8590  177.0620  146.5610 C   0  0  0  0  0  3  0  0  0  0  0  0
  188.6390  176.4100  145.0440 C   0  0  0  0  0  0  0  0  0  0  0  0
  188.2140  177.3870  144.1360 C   0  0  0  0  0  3  0  0  0  0  0  0
  184.8220  178.6650  147.4430 C   0  0  0  0  0  1  0  0  0  0  0  0
  185.2630  178.9000  146.0100 C   0  0  0  0  0  3  0  0  0  0  0  0
  184.1020  178.6680  145.0600 C   0  0  0  0  0  1  0  0  0  0  0  0
  196.1310  173.9900  142.1600 N   0  0  0  0  0  2  0  0  0  0  0  0
  197.0110  176.0890  141.6580 O   0  0  0  0  0  0  0  0  0  0  0  0
  196.3130  174.9910  141.1220 C   0  0  1  0  0  3  0  0  0  0  0  0
  197.9390  175.7390  139.6020 O   0  0  0  0  0  1  0  0  0  0  0  0
  197.7580  175.1920  140.8710 C   0  0  1  0  0  3  0  0  0  0  0  0
  1 20  1  0  0  0  0
  1 16  1  0  0  0  0
  2 20  2  0  0  0  0
  2 18  1  0  0  0  0
  3 30  1  1  0  0  0
  3  4  1  0  0  0  0
  4  5  1  0  0  0  0
  5 14  1  0  0  0  0
  6 16  1  0  0  0  0
  6  3  1  0  0  0  0
  6 13  1  0  0  0  0
  8 13  1  0  0  0  0
  8 11  1  0  0  0  0
  9 25  1  0  0  0  0
  9 15  1  0  0  0  0
 10  9  1  0  0  0  0
 11 10  1  0  0  0  0
 12 19  2  0  0  0  0
 12 10  1  0  0  0  0
 14  7  1  0  0  0  0
 16 13  1  0  0  0  0
 17  7  1  0  0  0  0
 17 15  1  0  0  0  0
 18 19  1  0  0  0  0
 20 12  1  0  0  0  0
 21 22  1  0  0  0  0
 22 28  1  0  0  0  0
 22 24  2  0  0  0  0
 23 24  1  0  0  0  0
 25 23  2  0  0  0  0
 26 21  2  0  0  0  0
 26 25  1  0  0  0  0
 28 27  1  0  0  0  0
 29 28  1  0  0  0  0
 32 31  1  0  0  0  0
 32 30  1  0  0  0  0
 33 34  1  0  0  0  0
 34 32  1  0  0  0  0
 34 31  1  0  0  0  0
M  END
>  <MODEL>
4

>  <REMARK>
 VINA RESULT:      -7.7      1.684      2.067
  Name = 
  4 active torsions:
  status: ('A' for Active; 'I' for Inactive)
    1  A    between atoms: C_4  and  N_25
    2  A    between atoms: C_9  and  C_10
    3  A    between atoms: C_13  and  N_25
    4  A    between atoms: C_15  and  C_24
                            x       y       z     vdW  Elec       q    Type
                         _______ _______ _______ _____ _____    ______ ____

>  <TORSDO>
F 4

$$$$
=
 OpenBabel11062422043D

 34 39  0  0  1  0  0  0  0  0999 V2000
  191.9380  174.6960  147.1330 C   0  0  0  0  0  2  0  0  0  0  0  0
  191.0600  176.9460  148.0130 C   0  0  0  0  0  3  0  0  0  0  0  0
  194.9730  173.2210  145.3230 C   0  0  1  0  0  3  0  0  0  0  0  0
  195.5850  174.5400  144.7820 C   0  0  0  0  0  2  0  0  0  0  0  0
  194.9870  175.0080  143.4530 C   0  0  0  0  0  2  0  0  0  0  0  0
  193.5020  173.2400  145.8140 C   0  0  2  0  0  3  0  0  0  0  0  0
  192.9720  176.4580  143.0180 C   0  0  0  0  0  2  0  0  0  0  0  0
  191.1970  173.4330  144.6920 C   0  0  0  0  0  2  0  0  0  0  0  0
  189.7500  176.4320  143.5140 C   0  0  2  0  0  3  0  0  0  0  0  0
  189.9140  175.6550  144.7940 C   0  0  1  0  0  3  0  0  0  0  0  0
  190.4120  174.4630  144.6730 C   0  0  0  0  0  2  0  0  0  0  0  0
  190.1910  176.3430  146.0780 C   0  0  0  0  0  0  0  0  0  0  0  0
  192.6300  173.8460  144.7380 C   0  0  1  0  0  3  0  0  0  0  0  0
  194.3660  176.3880  143.6330 C   0  0  0  0  0  2  0  0  0  0  0  0
  190.7130  177.6220  143.3080 C   0  0  0  0  0  2  0  0  0  0  0  0
  192.9920  174.6610  146.0120 C   0  0  1  0  0  3  0  0  0  0  0  0
  192.1360  177.4280  143.8410 C   0  0  0  0  0  2  0  0  0  0  0  0
  190.1960  177.8920  147.5880 N   0  0  0  0  0  2  0  0  0  0  0  0
  189.6760  177.5360  146.4220 N   0  0  0  0  0  0  0  0  0  0  0  0
  191.0890  175.9430  147.0670 C   0  0  0  0  0  0  0  0  0  0  0  0
  186.7200  178.2850  142.1980 C   0  0  0  0  0  3  0  0  0  0  0  0
  185.6620  177.5430  142.7470 C   0  0  0  0  0  0  0  0  0  0  0  0
  187.2660  176.0750  143.8200 C   0  0  0  0  0  3  0  0  0  0  0  0
  185.9420  176.4400  143.5620 C   0  0  0  0  0  3  0  0  0  0  0  0
  188.3230  176.8150  143.2700 C   0  0  0  0  0  0  0  0  0  0  0  0
  188.0430  177.9180  142.4550 C   0  0  0  0  0  3  0  0  0  0  0  0
  184.0140  178.3090  141.0460 C   0  0  0  0  0  1  0  0  0  0  0  0
  184.2340  177.9150  142.4960 C   0  0  0  0  0  3  0  0  0  0  0  0
  183.7910  179.0390  143.4170 C   0  0  0  0  0  1  0  0  0  0  0  0
  195.1840  172.1260  144.3880 N   0  0  0  0  0  2  0  0  0  0  0  0
  193.9180  170.1730  144.2820 O   0  0  0  0  0  0  0  0  0  0  0  0
  194.8220  170.8990  145.0780 C   0  0  1  0  0  3  0  0  0  0  0  0
  195.3700  168.6170  145.1050 O   0  0  0  0  0  1  0  0  0  0  0  0
  195.2550  169.7320  144.2780 C   0  0  1  0  0  3  0  0  0  0  0  0
  3 30  1  6  0  0  0
  3  6  1  0  0  0  0
  4  3  1  0  0  0  0
  5 14  1  0  0  0  0
  5  4  1  0  0  0  0
  6 16  1  0  0  0  0
  7 14  1  0  0  0  0
  7 17  1  0  0  0  0
  8 13  1  0  0  0  0
  9 10  1  0  0  0  0
 10 12  1  0  0  0  0
 11  8  1  0  0  0  0
 11 10  1  0  0  0  0
 12 19  2  0  0  0  0
 12 20  1  0  0  0  0
 13  6  1  0  0  0  0
 13 16  1  0  0  0  0
 15  9  1  0  0  0  0
 15 17  1  0  0  0  0
 16  1  1  0  0  0  0
 18  2  1  0  0  0  0
 19 18  1  0  0  0  0
 20  1  1  0  0  0  0
 20  2  2  0  0  0  0
 21 26  2  0  0  0  0
 21 22  1  0  0  0  0
 22 24  2  0  0  0  0
 24 23  1  0  0  0  0
 25  9  1  0  0  0  0
 25 23  2  0  0  0  0
 26 25  1  0  0  0  0
 27 28  1  0  0  0  0
 28 22  1  0  0  0  0
 28 29  1  0  0  0  0
 30 32  1  0  0  0  0
 31 32  1  0  0  0  0
 34 31  1  0  0  0  0
 34 32  1  0  0  0  0
 34 33  1  0  0  0  0
M  END
>  <MODEL>
5

>  <REMARK>
 VINA RESULT:      -7.6      3.033      4.267
  Name = 
  4 active torsions:
  status: ('A' for Active; 'I' for Inactive)
    1  A    between atoms: C_4  and  N_25
    2  A    between atoms: C_9  and  C_10
    3  A    between atoms: C_13  and  N_25
    4  A    between atoms: C_15  and  C_24
                            x       y       z     vdW  Elec       q    Type
                         _______ _______ _______ _____ _____    ______ ____

>  <TORSDO>
F 4

$$$$
=
 OpenBabel11062422043D

 34 39  0  0  1  0  0  0  0  0999 V2000
  190.5490  177.2100  143.1760 C   0  0  0  0  0  2  0  0  0  0  0  0
  192.8580  176.3830  142.4040 C   0  0  0  0  0  3  0  0  0  0  0  0
  188.4430  177.5170  146.3590 C   0  0  1  0  0  3  0  0  0  0  0  0
  189.2420  176.5420  147.2630 C   0  0  0  0  0  2  0  0  0  0  0  0
  188.8410  175.0730  147.1060 C   0  0  0  0  0  2  0  0  0  0  0  0
  188.6720  177.4560  144.8270 C   0  0  2  0  0  3  0  0  0  0  0  0
  189.6910  173.3360  145.4910 C   0  0  0  0  0  2  0  0  0  0  0  0
  188.0880  175.7990  142.9490 C   0  0  0  0  0  2  0  0  0  0  0  0
  189.8110  172.7890  142.2800 C   0  0  2  0  0  3  0  0  0  0  0  0
  189.9110  174.2650  141.9930 C   0  0  1  0  0  3  0  0  0  0  0  0
  188.8870  174.9810  142.3420 C   0  0  0  0  0  2  0  0  0  0  0  0
  191.2210  174.9610  142.0080 C   0  0  0  0  0  0  0  0  0  0  0  0
  188.5170  176.0270  144.3600 C   0  0  1  0  0  3  0  0  0  0  0  0
  190.0470  174.2620  146.6500 C   0  0  0  0  0  2  0  0  0  0  0  0
  190.7110  172.2500  143.4130 C   0  0  0  0  0  2  0  0  0  0  0  0
  189.9280  176.6690  144.4760 C   0  0  1  0  0  3  0  0  0  0  0  0
  190.9200  173.1890  144.6040 C   0  0  0  0  0  2  0  0  0  0  0  0
  193.3530  175.2730  141.8180 N   0  0  0  0  0  0  0  0  0  0  0  0
  192.3720  174.4120  141.5840 N   0  0  0  0  0  0  0  0  0  0  0  0
  191.4970  176.2150  142.5500 C   0  0  1  0  0  3  0  0  0  0  0  0
  189.3450  171.6380  138.7010 C   0  0  0  0  0  3  0  0  0  0  0  0
  190.1380  170.4800  138.6610 C   0  0  0  0  0  0  0  0  0  0  0  0
  190.7130  170.8080  140.9930 C   0  0  0  0  0  3  0  0  0  0  0  0
  190.8170  170.0680  139.8130 C   0  0  0  0  0  3  0  0  0  0  0  0
  189.9220  171.9670  141.0330 C   0  0  0  0  0  0  0  0  0  0  0  0
  189.2430  172.3790  139.8810 C   0  0  0  0  0  3  0  0  0  0  0  0
  191.3720  168.6340  137.5360 C   0  0  0  0  0  1  0  0  0  0  0  0
  190.2610  169.6610  137.4140 C   0  0  0  0  0  3  0  0  0  0  0  0
  190.4950  170.5440  136.2000 C   0  0  0  0  0  1  0  0  0  0  0  0
  187.0210  177.4620  146.6630 N   0  0  0  0  0  2  0  0  0  0  0  0
  185.3070  177.3360  145.0880 O   0  0  0  0  0  0  0  0  0  0  0  0
  186.3270  178.1620  145.5950 C   0  0  1  0  0  3  0  0  0  0  0  0
  184.3760  179.4150  145.2280 O   0  0  0  0  0  1  0  0  0  0  0  0
  184.9090  178.3600  145.9670 C   0  0  1  0  0  3  0  0  0  0  0  0
  1 16  1  0  0  0  0
  2 20  1  0  0  0  0
  3 30  1  6  0  0  0
  3  4  1  0  0  0  0
  5  4  1  0  0  0  0
  6  3  1  0  0  0  0
  7 14  1  0  0  0  0
  8 13  1  0  0  0  0
  9 15  1  0  0  0  0
 10 12  1  0  0  0  0
 10  9  1  0  0  0  0
 10 11  1  0  0  0  0
 11  8  1  0  0  0  0
 12 20  1  0  0  0  0
 13 16  1  0  0  0  0
 13  6  1  0  0  0  0
 14  5  1  0  0  0  0
 15 17  1  0  0  0  0
 16  6  1  0  0  0  0
 17  7  1  0  0  0  0
 18  2  2  0  0  0  0
 19 18  1  0  0  0  0
 19 12  2  0  0  0  0
 20  1  1  0  0  0  0
 21 26  1  0  0  0  0
 22 21  2  0  0  0  0
 22 24  1  0  0  0  0
 23 25  1  0  0  0  0
 24 23  2  0  0  0  0
 25  9  1  0  0  0  0
 26 25  2  0  0  0  0
 28 27  1  0  0  0  0
 28 22  1  0  0  0  0
 29 28  1  0  0  0  0
 31 32  1  0  0  0  0
 31 34  1  0  0  0  0
 32 34  1  0  0  0  0
 32 30  1  0  0  0  0
 33 34  1  0  0  0  0
M  END
>  <MODEL>
6

>  <REMARK>
 VINA RESULT:      -7.5      4.564      8.549
  Name = 
  4 active torsions:
  status: ('A' for Active; 'I' for Inactive)
    1  A    between atoms: C_4  and  N_25
    2  A    between atoms: C_9  and  C_10
    3  A    between atoms: C_13  and  N_25
    4  A    between atoms: C_15  and  C_24
                            x       y       z     vdW  Elec       q    Type
                         _______ _______ _______ _____ _____    ______ ____

>  <TORSDO>
F 4

$$$$
=
 OpenBabel11062422043D

 34 39  0  0  1  0  0  0  0  0999 V2000
  190.4550  174.5590  142.1390 C   0  0  0  0  0  2  0  0  0  0  0  0
  192.7370  174.7000  140.9640 C   0  0  0  0  0  3  0  0  0  0  0  0
  188.1870  176.6240  144.4300 C   0  0  1  0  0  3  0  0  0  0  0  0
  189.2340  177.6570  144.9250 C   0  0  0  0  0  2  0  0  0  0  0  0
  190.0600  177.1840  146.1240 C   0  0  0  0  0  2  0  0  0  0  0  0
  188.6980  175.3210  143.7630 C   0  0  2  0  0  3  0  0  0  0  0  0
  192.2070  175.8660  146.1800 C   0  0  0  0  0  2  0  0  0  0  0  0
  189.8910  173.1920  144.5710 C   0  0  0  0  0  2  0  0  0  0  0  0
  193.3380  172.9390  145.2940 C   0  0  2  0  0  3  0  0  0  0  0  0
  192.4000  172.8890  144.1180 C   0  0  1  0  0  3  0  0  0  0  0  0
  191.1340  172.8720  144.4030 C   0  0  0  0  0  2  0  0  0  0  0  0
  192.7610  173.5140  142.8220 C   0  0  0  0  0  0  0  0  0  0  0  0
  189.7210  174.6710  144.6650 C   0  0  1  0  0  3  0  0  0  0  0  0
  191.5370  177.1660  145.7500 C   0  0  0  0  0  2  0  0  0  0  0  0
  194.0910  174.2700  145.5130 C   0  0  0  0  0  2  0  0  0  0  0  0
  190.1680  175.4230  143.3800 C   0  0  1  0  0  3  0  0  0  0  0  0
  193.3070  175.5430  145.1780 C   0  0  0  0  0  2  0  0  0  0  0  0
  193.9860  174.2420  141.1940 N   0  0  0  0  0  0  0  0  0  0  0  0
  194.0060  173.5340  142.3140 N   0  0  0  0  0  0  0  0  0  0  0  0
  191.9280  174.2610  141.9900 C   0  0  1  0  0  3  0  0  0  0  0  0
  194.6190  169.3900  144.9570 C   0  0  0  0  0  3  0  0  0  0  0  0
  195.9660  169.5290  145.3290 C   0  0  0  0  0  0  0  0  0  0  0  0
  195.6060  171.8980  145.7000 C   0  0  0  0  0  3  0  0  0  0  0  0
  196.4530  170.7860  145.7050 C   0  0  0  0  0  3  0  0  0  0  0  0
  194.2610  171.7600  145.3270 C   0  0  0  0  0  0  0  0  0  0  0  0
  193.7740  170.5020  144.9520 C   0  0  0  0  0  3  0  0  0  0  0  0
  197.9350  168.4960  146.4480 C   0  0  0  0  0  1  0  0  0  0  0  0
  196.8940  168.3550  145.3520 C   0  0  0  0  0  3  0  0  0  0  0  0
  197.5740  168.1670  144.0070 C   0  0  0  0  0  1  0  0  0  0  0  0
  187.2230  176.3170  145.4760 N   0  0  0  0  0  2  0  0  0  0  0  0
  185.1230  177.1040  146.1120 O   0  0  0  0  0  0  0  0  0  0  0  0
  186.3950  177.4970  145.6550 C   0  0  1  0  0  3  0  0  0  0  0  0
  185.6590  178.9450  147.3500 O   0  0  0  0  0  1  0  0  0  0  0  0
  186.0060  177.6240  147.0770 C   0  0  1  0  0  3  0  0  0  0  0  0
  1 16  1  0  0  0  0
  2 18  2  0  0  0  0
  2 20  1  0  0  0  0
  3  4  1  0  0  0  0
  3 30  1  1  0  0  0
  4  5  1  0  0  0  0
  6  3  1  0  0  0  0
  6 13  1  0  0  0  0
  8 13  1  0  0  0  0
  9 25  1  0  0  0  0
  9 15  1  0  0  0  0
 10 11  1  0  0  0  0
 10  9  1  0  0  0  0
 11  8  1  0  0  0  0
 12 10  1  0  0  0  0
 14  5  1  0  0  0  0
 14  7  1  0  0  0  0
 16  6  1  0  0  0  0
 16 13  1  0  0  0  0
 17 15  1  0  0  0  0
 17  7  1  0  0  0  0
 18 19  1  0  0  0  0
 19 12  2  0  0  0  0
 20  1  1  0  0  0  0
 20 12  1  0  0  0  0
 21 22  1  0  0  0  0
 22 28  1  0  0  0  0
 22 24  2  0  0  0  0
 23 24  1  0  0  0  0
 25 23  2  0  0  0  0
 26 21  2  0  0  0  0
 26 25  1  0  0  0  0
 28 27  1  0  0  0  0
 29 28  1  0  0  0  0
 30 32  1  0  0  0  0
 31 34  1  0  0  0  0
 32 31  1  0  0  0  0
 32 34  1  0  0  0  0
 34 33  1  0  0  0  0
M  END
>  <MODEL>
7

>  <REMARK>
 VINA RESULT:      -7.1      4.187      8.909
  Name = 
  4 active torsions:
  status: ('A' for Active; 'I' for Inactive)
    1  A    between atoms: C_4  and  N_25
    2  A    between atoms: C_9  and  C_10
    3  A    between atoms: C_13  and  N_25
    4  A    between atoms: C_15  and  C_24
                            x       y       z     vdW  Elec       q    Type
                         _______ _______ _______ _____ _____    ______ ____

>  <TORSDO>
F 4

$$$$
=
 OpenBabel11062422043D

 34 39  0  0  1  0  0  0  0  0999 V2000
  190.6230  173.3660  145.5310 C   0  0  0  0  0  2  0  0  0  0  0  0
  189.1280  174.6490  147.1820 C   0  0  0  0  0  3  0  0  0  0  0  0
  194.2560  173.2450  144.3280 C   0  0  1  0  0  3  0  0  0  0  0  0
  194.7270  174.6210  144.8690 C   0  0  0  0  0  2  0  0  0  0  0  0
  194.4280  175.7950  143.9330 C   0  0  0  0  0  2  0  0  0  0  0  0
  192.7330  172.9770  144.2250 C   0  0  2  0  0  3  0  0  0  0  0  0
  192.3650  177.2320  143.7620 C   0  0  0  0  0  2  0  0  0  0  0  0
  190.8190  173.8200  142.7280 C   0  0  0  0  0  2  0  0  0  0  0  0
  189.1940  176.9380  143.0620 C   0  0  2  0  0  3  0  0  0  0  0  0
  189.1560  175.5480  143.6420 C   0  0  1  0  0  3  0  0  0  0  0  0
  189.8860  174.6620  143.0400 C   0  0  0  0  0  2  0  0  0  0  0  0
  188.9410  175.3290  145.0930 C   0  0  0  0  0  0  0  0  0  0  0  0
  192.0810  174.1120  143.4690 C   0  0  1  0  0  3  0  0  0  0  0  0
  193.5300  176.7980  144.6460 C   0  0  0  0  0  2  0  0  0  0  0  0
  189.9320  178.0080  143.8970 C   0  0  0  0  0  2  0  0  0  0  0  0
  191.9260  174.0010  145.0120 C   0  0  1  0  0  3  0  0  0  0  0  0
  191.1690  177.5240  144.6590 C   0  0  0  0  0  2  0  0  0  0  0  0
  188.2450  175.6680  147.1130 N   0  0  0  0  0  2  0  0  0  0  0  0
  188.1350  176.0840  145.8600 N   0  0  0  0  0  0  0  0  0  0  0  0
  189.6010  174.4110  145.9090 C   0  0  0  0  0  0  0  0  0  0  0  0
  186.1250  177.4890  140.9120 C   0  0  0  0  0  3  0  0  0  0  0  0
  185.2880  178.2110  141.7780 C   0  0  0  0  0  0  0  0  0  0  0  0
  187.0030  178.1250  143.4890 C   0  0  0  0  0  3  0  0  0  0  0  0
  185.7350  178.5300  143.0650 C   0  0  0  0  0  3  0  0  0  0  0  0
  187.8390  177.4010  142.6250 C   0  0  0  0  0  0  0  0  0  0  0  0
  187.3920  177.0820  141.3370 C   0  0  0  0  0  3  0  0  0  0  0  0
  182.9240  178.5470  142.4810 C   0  0  0  0  0  1  0  0  0  0  0  0
  183.9280  178.6660  141.3490 C   0  0  0  0  0  3  0  0  0  0  0  0
  183.4460  177.8870  140.1380 C   0  0  0  0  0  1  0  0  0  0  0  0
  194.9160  172.9250  143.0710 N   0  0  0  0  0  2  0  0  0  0  0  0
  194.3120  171.3260  141.4870 O   0  0  0  0  0  0  0  0  0  0  0  0
  194.7050  171.5090  142.8260 C   0  0  1  0  0  3  0  0  0  0  0  0
  195.8080  169.6540  141.9020 O   0  0  0  0  0  1  0  0  0  0  0  0
  195.6540  171.0340  141.7950 C   0  0  1  0  0  3  0  0  0  0  0  0
  1 20  1  0  0  0  0
  3 30  1  6  0  0  0
  3  4  1  0  0  0  0
  5 14  1  0  0  0  0
  5  4  1  0  0  0  0
  6  3  1  0  0  0  0
  6 16  1  0  0  0  0
  7 14  1  0  0  0  0
  7 17  1  0  0  0  0
  8 11  1  0  0  0  0
  8 13  1  0  0  0  0
  9 10  1  0  0  0  0
  9 15  1  0  0  0  0
 10 12  1  0  0  0  0
 11 10  1  0  0  0  0
 12 19  2  0  0  0  0
 12 20  1  0  0  0  0
 13  6  1  0  0  0  0
 13 16  1  0  0  0  0
 15 17  1  0  0  0  0
 16  1  1  0  0  0  0
 18  2  1  0  0  0  0
 19 18  1  0  0  0  0
 20  2  2  0  0  0  0
 21 26  2  0  0  0  0
 21 22  1  0  0  0  0
 22 24  2  0  0  0  0
 24 23  1  0  0  0  0
 25  9  1  0  0  0  0
 25 23  2  0  0  0  0
 26 25  1  0  0  0  0
 28 22  1  0  0  0  0
 28 27  1  0  0  0  0
 29 28  1  0  0  0  0
 31 34  1  0  0  0  0
 31 32  1  0  0  0  0
 32 30  1  0  0  0  0
 34 33  1  0  0  0  0
 34 32  1  0  0  0  0
M  END
>  <MODEL>
8

>  <REMARK>
 VINA RESULT:      -7.0      2.713      3.636
  Name = 
  4 active torsions:
  status: ('A' for Active; 'I' for Inactive)
    1  A    between atoms: C_4  and  N_25
    2  A    between atoms: C_9  and  C_10
    3  A    between atoms: C_13  and  N_25
    4  A    between atoms: C_15  and  C_24
                            x       y       z     vdW  Elec       q    Type
                         _______ _______ _______ _____ _____    ______ ____

>  <TORSDO>
F 4

$$$$
=
 OpenBabel11062422043D

 34 39  0  0  1  0  0  0  0  0999 V2000
  189.2680  177.6710  142.6190 C   0  0  0  0  0  2  0  0  0  0  0  0
  191.8200  177.5410  142.9000 C   0  0  0  0  0  3  0  0  0  0  0  0
  186.1240  178.5460  144.6220 C   0  0  1  0  0  3  0  0  0  0  0  0
  186.7290  178.4740  146.0490 C   0  0  0  0  0  2  0  0  0  0  0  0
  186.7510  177.0660  146.6480 C   0  0  0  0  0  2  0  0  0  0  0  0
  186.9110  177.8940  143.4560 C   0  0  2  0  0  3  0  0  0  0  0  0
  188.5010  175.2630  146.4550 C   0  0  0  0  0  2  0  0  0  0  0  0
  187.4450  175.4880  142.7220 C   0  0  0  0  0  2  0  0  0  0  0  0
  189.9160  173.4200  144.1680 C   0  0  2  0  0  3  0  0  0  0  0  0
  189.7840  174.5190  143.1460 C   0  0  1  0  0  3  0  0  0  0  0  0
  188.5720  174.8610  142.8350 C   0  0  0  0  0  2  0  0  0  0  0  0
  190.8050  175.5880  143.0350 C   0  0  0  0  0  0  0  0  0  0  0  0
  187.2600  176.4720  143.8290 C   0  0  1  0  0  3  0  0  0  0  0  0
  188.1880  176.6680  146.9590 C   0  0  0  0  0  2  0  0  0  0  0  0
  190.4300  173.8410  145.5630 C   0  0  0  0  0  2  0  0  0  0  0  0
  188.3480  177.5830  143.8500 C   0  0  1  0  0  3  0  0  0  0  0  0
  189.9700  175.2150  146.0570 C   0  0  0  0  0  2  0  0  0  0  0  0
  192.7310  176.5710  143.1300 N   0  0  0  0  0  2  0  0  0  0  0  0
  192.1230  175.3960  143.2190 N   0  0  0  0  0  0  0  0  0  0  0  0
  190.5760  176.9500  142.8420 C   0  0  0  0  0  0  0  0  0  0  0  0
  190.8130  170.4430  142.0050 C   0  0  0  0  0  3  0  0  0  0  0  0
  192.0410  170.0420  142.5540 C   0  0  0  0  0  0  0  0  0  0  0  0
  191.8860  171.8360  144.1780 C   0  0  0  0  0  3  0  0  0  0  0  0
  192.5710  170.7410  143.6440 C   0  0  0  0  0  3  0  0  0  0  0  0
  190.6590  172.2380  143.6280 C   0  0  0  0  0  0  0  0  0  0  0  0
  190.1290  171.5390  142.5370 C   0  0  0  0  0  3  0  0  0  0  0  0
  194.2160  168.8310  142.5380 C   0  0  0  0  0  1  0  0  0  0  0  0
  192.7930  168.8680  142.0090 C   0  0  0  0  0  3  0  0  0  0  0  0
  192.7990  168.8770  140.4910 C   0  0  0  0  0  1  0  0  0  0  0  0
  184.7410  178.0950  144.6180 N   0  0  0  0  0  2  0  0  0  0  0  0
  184.4970  179.0010  142.4850 O   0  0  0  0  0  0  0  0  0  0  0  0
  183.9880  179.0270  143.7970 C   0  0  1  0  0  3  0  0  0  0  0  0
  182.2270  179.0500  142.2450 O   0  0  0  0  0  1  0  0  0  0  0  0
  183.3010  178.2940  142.7120 C   0  0  1  0  0  3  0  0  0  0  0  0
  1 20  1  0  0  0  0
  1 16  1  0  0  0  0
  2 18  1  0  0  0  0
  3 30  1  1  0  0  0
  3  4  1  0  0  0  0
  4  5  1  0  0  0  0
  5 14  1  0  0  0  0
  6 13  1  0  0  0  0
  6 16  1  0  0  0  0
  6  3  1  0  0  0  0
  7 14  1  0  0  0  0
  8 11  1  0  0  0  0
  8 13  1  0  0  0  0
  9 15  1  0  0  0  0
 10  9  1  0  0  0  0
 11 10  1  0  0  0  0
 12 10  1  0  0  0  0
 12 19  2  0  0  0  0
 13 16  1  0  0  0  0
 15 17  1  0  0  0  0
 17  7  1  0  0  0  0
 18 19  1  0  0  0  0
 20  2  2  0  0  0  0
 20 12  1  0  0  0  0
 21 26  2  0  0  0  0
 21 22  1  0  0  0  0
 22 24  2  0  0  0  0
 24 23  1  0  0  0  0
 25  9  1  0  0  0  0
 25 23  2  0  0  0  0
 26 25  1  0  0  0  0
 28 27  1  0  0  0  0
 28 22  1  0  0  0  0
 29 28  1  0  0  0  0
 31 34  1  0  0  0  0
 31 32  1  0  0  0  0
 32 30  1  0  0  0  0
 33 34  1  0  0  0  0
 34 32  1  0  0  0  0
M  END
>  <MODEL>
9

>  <REMARK>
 VINA RESULT:      -7.0      4.510      8.911
  Name = 
  4 active torsions:
  status: ('A' for Active; 'I' for Inactive)
    1  A    between atoms: C_4  and  N_25
    2  A    between atoms: C_9  and  C_10
    3  A    between atoms: C_13  and  N_25
    4  A    between atoms: C_15  and  C_24
                            x       y       z     vdW  Elec       q    Type
                         _______ _______ _______ _____ _____    ______ ____

>  <TORSDO>
F 4

$$$$
