=
 OpenBabel11072408313D

 62 68  0  0  1  0  0  0  0  0999 V2000
  189.5240  172.3140  139.3860 C   0  0  0  0  0  2  0  0  0  0  0  0
  193.4670  172.9860  140.3320 C   0  0  0  0  0  0  0  0  0  0  0  0
  191.7870  172.9750  138.5520 C   0  0  0  0  0  0  0  0  0  0  0  0
  192.9500  173.4270  139.0350 C   0  0  0  0  0  3  0  0  0  0  0  0
  195.4620  173.0050  141.9190 C   0  0  0  0  0  0  0  0  0  0  0  0
  194.7370  173.4770  140.7740 N   0  0  0  0  0  2  0  0  0  0  0  0
  192.7820  172.1570  141.0560 N   0  0  0  0  0  0  0  0  0  0  0  0
  196.7140  173.6090  142.2480 N   0  0  0  0  0  2  0  0  0  0  0  0
  191.5380  171.6450  140.6410 N   0  0  0  0  0  0  0  0  0  0  0  0
  195.0190  172.0480  142.6150 O   0  0  0  0  0  0  0  0  0  0  0  0
  190.9960  171.9260  139.3030 C   0  0  1  0  0  3  0  0  0  0  0  0
  192.3880  174.0200  136.3410 C   0  0  1  0  0  3  0  0  0  0  0  0
  191.1170  172.4950  134.9990 O   0  0  0  0  0  0  0  0  0  0  0  0
  190.9360  172.1750  136.3540 C   0  0  0  0  0  2  0  0  0  0  0  0
  191.3240  173.3770  137.1760 C   0  0  1  0  0  3  0  0  0  0  0  0
  192.1140  173.4910  134.9470 C   0  0  0  0  0  2  0  0  0  0  0  0
  192.2530  175.4690  136.3750 N   0  0  0  0  0  2  0  0  0  0  0  0
  192.2200  175.9050  135.0430 N   0  0  0  0  0  1  0  0  0  0  0  0
  190.9450  170.5790  141.4360 C   0  0  0  0  0  2  0  0  0  0  0  0
  192.3150  168.8320  140.3930 C   0  0  2  0  0  3  0  0  0  0  0  0
  191.9680  169.4820  141.6740 C   0  0  2  0  0  3  0  0  0  0  0  0
  191.4150  168.2430  141.3020 O   0  0  0  0  0  0  0  0  0  0  0  0
  193.6020  168.1740  140.5120 N   0  0  0  0  0  2  0  0  0  0  0  0
  194.2710  168.3380  139.2340 C   0  0  0  0  0  2  0  0  0  0  0  0
  193.5910  169.4090  138.4500 C   0  0  0  0  0  3  0  0  0  0  0  0
  194.1100  169.8210  137.2990 C   0  0  0  0  0  2  0  0  0  0  0  0
  197.5210  173.1610  143.3750 C   0  0  0  0  0  2  0  0  0  0  0  0
  196.8970  173.7750  145.7030 C   0  0  0  0  0  2  0  0  0  0  0  0
  195.4880  174.1100  145.6010 N   0  0  0  0  0  2  0  0  0  0  0  0
  196.7150  175.7120  143.8500 S   0  0  0  0  0  0  0  0  0  0  0  0
  195.4410  175.4830  145.1250 C   0  0  0  0  0  2  0  0  0  0  0  0
  197.5950  174.2430  144.4400 C   0  0  2  0  0  3  0  0  0  0  0  0
  188.0970  174.3700  139.3820 C   0  0  0  0  0  1  0  0  0  0  0  0
  189.4210  173.7670  139.8210 C   0  0  1  0  0  3  0  0  0  0  0  0
  189.6570  173.9290  141.3180 C   0  0  0  0  0  2  0  0  0  0  0  0
  191.0040  175.2590  143.0510 C   0  0  2  0  0  3  0  0  0  0  0  0
  189.7650  175.8540  142.7370 O   0  0  0  0  0  0  0  0  0  0  0  0
  190.4200  175.2090  141.6710 C   0  0  2  0  0  3  0  0  0  0  0  0
  190.7870  173.9910  143.8850 C   0  0  2  0  0  3  0  0  0  0  0  0
  189.9150  175.5150  145.7430 N   0  0  0  0  0  0  0  0  0  0  0  0
  190.6740  176.7810  145.7120 C   0  0  1  0  0  3  0  0  0  0  0  0
  189.0960  176.1960  146.7640 C   0  0  1  0  0  3  0  0  0  0  0  0
  189.9220  174.2440  145.0840 C   0  0  0  0  0  0  0  0  0  0  0  0
  189.8470  177.4840  146.7360 C   0  0  0  0  0  2  0  0  0  0  0  0
  189.1660  173.3220  145.4920 O   0  0  0  0  0  0  0  0  0  0  0  0
  185.2390  176.7440  146.9450 C   0  0  0  0  0  2  0  0  0  0  0  0
  187.6390  176.3840  146.3160 C   0  0  1  0  0  3  0  0  0  0  0  0
  186.5880  178.6850  145.9220 C   0  0  0  0  0  2  0  0  0  0  0  0
  185.1990  178.1310  146.2830 C   0  0  1  0  0  3  0  0  0  0  0  0
  186.6240  176.3930  147.4730 C   0  0  0  0  0  2  0  0  0  0  0  0
  187.5110  177.5920  145.3720 C   0  0  0  0  0  2  0  0  0  0  0  0
  184.3560  178.0760  145.0980 N   0  0  0  0  0  2  0  0  0  0  0  0
  185.1340  178.6270  143.9990 C   0  0  0  0  0  2  0  0  0  0  0  0
  184.8000  177.9080  142.7020 C   0  0  0  0  0  2  0  0  0  0  0  0
  186.3490  176.0660  142.4250 O   0  0  0  0  0  1  0  0  0  0  0  0
  186.8910  178.1670  141.3720 C   0  0  0  0  0  3  0  0  0  0  0  0
  185.9950  177.3320  142.1070 N   0  0  0  0  0  0  0  0  0  0  0  0
  188.0050  177.7270  140.9790 O   0  0  0  0  0  0  0  0  0  0  0  0
  192.0980  175.4710  147.2930 C   0  0  0  0  0  1  0  0  0  0  0  0
  192.0890  176.5630  146.2360 C   0  0  0  0  0  2  0  0  0  0  0  0
  191.9610  171.9780  144.4110 O   0  0  0  0  0  1  0  0  0  0  0  0
  192.1160  173.3570  144.2640 C   0  0  0  0  0  2  0  0  0  0  0  0
  1 34  1  0  0  0  0
  2  6  1  0  0  0  0
  2  7  2  0  0  0  0
  3  4  2  0  0  0  0
  3 11  1  0  0  0  0
  4  2  1  0  0  0  0
  5  8  1  0  0  0  0
  5 10  2  0  0  0  0
  6  5  1  0  0  0  0
  8 27  1  0  0  0  0
  9  7  1  0  0  0  0
  9 19  1  0  0  0  0
 11  1  1  1  0  0  0
 11  9  1  0  0  0  0
 12 17  1  6  0  0  0
 12 15  1  0  0  0  0
 13 14  1  0  0  0  0
 14 15  1  0  0  0  0
 15  3  1  1  0  0  0
 16 13  1  0  0  0  0
 16 12  1  0  0  0  0
 18 17  1  0  0  0  0
 20 23  1  1  0  0  0
 20 22  1  0  0  0  0
 20 21  1  0  0  0  0
 21 19  1  6  0  0  0
 22 21  1  0  0  0  0
 24 23  1  0  0  0  0
 25 24  1  0  0  0  0
 26 25  2  0  0  0  0
 29 28  1  0  0  0  0
 30 32  1  0  0  0  0
 30 31  1  0  0  0  0
 31 29  1  0  0  0  0
 32 27  1  6  0  0  0
 32 28  1  0  0  0  0
 34 33  1  1  0  0  0
 34 35  1  0  0  0  0
 36 39  1  1  0  0  0
 37 36  1  0  0  0  0
 38 35  1  1  0  0  0
 38 37  1  0  0  0  0
 38 36  1  0  0  0  0
 39 62  1  1  0  0  0
 39 43  1  0  0  0  0
 40 42  1  0  0  0  0
 41 40  1  0  0  0  0
 41 60  1  1  0  0  0
 41 44  1  0  0  0  0
 42 44  1  6  0  0  0
 43 45  2  0  0  0  0
 43 40  1  0  0  0  0
 46 50  1  0  0  0  0
 47 51  1  1  0  0  0
 47 42  1  0  0  0  0
 47 50  1  0  0  0  0
 48 49  1  0  0  0  0
 49 52  1  6  0  0  0
 49 46  1  0  0  0  0
 51 48  1  0  0  0  0
 53 52  1  0  0  0  0
 54 53  1  0  0  0  0
 56 57  1  0  0  0  0
 57 55  1  0  0  0  0
 57 54  1  0  0  0  0
 58 56  2  0  0  0  0
 60 59  1  0  0  0  0
 62 61  1  0  0  0  0
M  END
>  <MODEL>
1

>  <REMARK>
 VINA RESULT:      -5.6      0.000      0.000
  Name = 
  22 active torsions:
  status: ('A' for Active; 'I' for Inactive)
    1  A    between atoms: C_2  and  N_50
    2  A    between atoms: C_4  and  N_5
    3  A    between atoms: C_7  and  C_16
    4  A    between atoms: C_8  and  C_10
    5  A    between atoms: C_9  and  C_55
    6  A    between atoms: C_10  and  N_50
    7  A    between atoms: C_13  and  C_25
    8  A    between atoms: C_13  and  N_40
    9  A    between atoms: C_15  and  C_44
   10  A    between atoms: C_15  and  C_56
   11  A    between atoms: C_17  and  N_31
   12  A    between atoms: C_17  and  C_52
   13  A    between atoms: C_18  and  C_39
   14  A    between atoms: C_20  and  C_42
   15  A    between atoms: C_23  and  C_56
   16  A    between atoms: C_23  and  C_59
   17  A    between atoms: C_30  and  C_55
   18  A    between atoms: N_37  and  C_58
   19  A    between atoms: C_46  and  N_48
   20  A    between atoms: C_47  and  C_58
   21  A    between atoms: N_48  and  C_52
   22  A    between atoms: C_51  and  C_55
                            x       y       z     vdW  Elec       q    Type
                         _______ _______ _______ _____ _____    ______ ____

>  <TORSDO>
F 22

$$$$
=
 OpenBabel11072408313D

 62 68  0  0  1  0  0  0  0  0999 V2000
  189.5790  172.0180  139.3220 C   0  0  0  0  0  2  0  0  0  0  0  0
  193.5270  173.1090  139.6580 C   0  0  0  0  0  0  0  0  0  0  0  0
  191.6620  172.7130  138.1250 C   0  0  0  0  0  0  0  0  0  0  0  0
  192.8270  173.3150  138.3890 C   0  0  0  0  0  3  0  0  0  0  0  0
  195.6820  173.5070  140.9610 C   0  0  0  0  0  0  0  0  0  0  0  0
  194.7910  173.7510  139.8640 N   0  0  0  0  0  2  0  0  0  0  0  0
  193.0080  172.3480  140.5700 N   0  0  0  0  0  0  0  0  0  0  0  0
  196.9040  174.2430  141.0430 N   0  0  0  0  0  2  0  0  0  0  0  0
  191.7760  171.6910  140.3910 N   0  0  0  0  0  0  0  0  0  0  0  0
  195.4110  172.6340  141.8330 O   0  0  0  0  0  0  0  0  0  0  0  0
  191.0600  171.7310  139.1060 C   0  0  1  0  0  3  0  0  0  0  0  0
  191.6700  173.8900  135.8980 C   0  0  1  0  0  3  0  0  0  0  0  0
  191.0820  171.9620  134.6030 O   0  0  0  0  0  0  0  0  0  0  0  0
  191.1140  171.6100  135.9620 C   0  0  0  0  0  2  0  0  0  0  0  0
  191.0090  172.8730  136.7760 C   0  0  1  0  0  3  0  0  0  0  0  0
  191.5730  173.2800  134.5130 C   0  0  0  0  0  2  0  0  0  0  0  0
  190.9490  175.1540  135.9540 N   0  0  0  0  0  2  0  0  0  0  0  0
  189.9610  175.1000  134.9610 N   0  0  0  0  0  1  0  0  0  0  0  0
  191.3780  170.7130  141.3930 C   0  0  0  0  0  2  0  0  0  0  0  0
  192.2060  169.1770  143.1180 C   0  0  2  0  0  3  0  0  0  0  0  0
  192.5990  170.2270  142.1550 C   0  0  2  0  0  3  0  0  0  0  0  0
  192.4330  170.5060  143.5240 O   0  0  0  0  0  0  0  0  0  0  0  0
  193.3630  168.3740  143.4650 N   0  0  0  0  0  2  0  0  0  0  0  0
  193.6330  168.6220  144.8700 C   0  0  0  0  0  2  0  0  0  0  0  0
  195.0220  168.1870  145.1930 C   0  0  0  0  0  3  0  0  0  0  0  0
  195.7240  168.8360  146.1160 C   0  0  0  0  0  2  0  0  0  0  0  0
  197.8720  174.0260  142.1090 C   0  0  0  0  0  2  0  0  0  0  0  0
  197.6260  174.6600  144.5010 C   0  0  0  0  0  2  0  0  0  0  0  0
  196.1970  174.5570  144.7350 N   0  0  0  0  0  2  0  0  0  0  0  0
  196.4500  176.2650  142.6970 S   0  0  0  0  0  0  0  0  0  0  0  0
  195.6260  175.8020  144.2490 C   0  0  0  0  0  2  0  0  0  0  0  0
  197.8470  175.1820  143.0950 C   0  0  2  0  0  3  0  0  0  0  0  0
  188.2160  174.0200  138.6870 C   0  0  0  0  0  1  0  0  0  0  0  0
  189.3890  173.5140  139.5110 C   0  0  1  0  0  3  0  0  0  0  0  0
  189.2590  173.8880  140.9840 C   0  0  0  0  0  2  0  0  0  0  0  0
  189.9790  175.7930  142.5450 C   0  0  2  0  0  3  0  0  0  0  0  0
  188.5840  175.7330  142.3510 O   0  0  0  0  0  0  0  0  0  0  0  0
  189.3700  175.3940  141.2340 C   0  0  2  0  0  3  0  0  0  0  0  0
  190.4450  174.6230  143.4180 C   0  0  2  0  0  3  0  0  0  0  0  0
  189.8530  175.6750  145.6710 N   0  0  0  0  0  0  0  0  0  0  0  0
  190.6380  176.9150  145.8330 C   0  0  1  0  0  3  0  0  0  0  0  0
  189.1870  176.1020  146.9160 C   0  0  1  0  0  3  0  0  0  0  0  0
  189.7420  174.5910  144.7430 C   0  0  0  0  0  0  0  0  0  0  0  0
  189.9640  177.3630  147.0880 C   0  0  0  0  0  2  0  0  0  0  0  0
  189.0180  173.5980  145.0220 O   0  0  0  0  0  0  0  0  0  0  0  0
  185.6180  177.5700  147.4770 C   0  0  0  0  0  2  0  0  0  0  0  0
  187.6910  176.3870  146.7120 C   0  0  1  0  0  3  0  0  0  0  0  0
  186.8240  178.3710  145.3470 C   0  0  0  0  0  2  0  0  0  0  0  0
  185.5420  178.4160  146.1950 C   0  0  1  0  0  3  0  0  0  0  0  0
  187.0490  177.2050  147.8470 C   0  0  0  0  0  2  0  0  0  0  0  0
  187.4340  176.9650  145.3100 C   0  0  0  0  0  2  0  0  0  0  0  0
  184.3990  177.9890  145.4020 N   0  0  0  0  0  2  0  0  0  0  0  0
  184.7900  178.0950  144.0040 C   0  0  0  0  0  2  0  0  0  0  0  0
  183.6470  178.6590  143.1760 C   0  0  0  0  0  2  0  0  0  0  0  0
  184.9120  178.1640  141.1710 O   0  0  0  0  0  1  0  0  0  0  0  0
  182.5120  177.9520  141.0750 C   0  0  0  0  0  3  0  0  0  0  0  0
  183.7170  178.1840  141.8050 N   0  0  0  0  0  0  0  0  0  0  0  0
  182.5460  177.6890  139.8420 O   0  0  0  0  0  0  0  0  0  0  0  0
  192.2200  175.7250  147.3560 C   0  0  0  0  0  1  0  0  0  0  0  0
  192.1010  176.5850  146.1100 C   0  0  0  0  0  2  0  0  0  0  0  0
  192.5440  175.2900  142.4930 O   0  0  0  0  0  1  0  0  0  0  0  0
  191.9570  174.6300  143.5740 C   0  0  0  0  0  2  0  0  0  0  0  0
  1 34  1  0  0  0  0
  2  6  1  0  0  0  0
  2  7  2  0  0  0  0
  3  4  2  0  0  0  0
  3 11  1  0  0  0  0
  4  2  1  0  0  0  0
  5  8  1  0  0  0  0
  5 10  2  0  0  0  0
  6  5  1  0  0  0  0
  8 27  1  0  0  0  0
  9  7  1  0  0  0  0
  9 19  1  0  0  0  0
 11  1  1  1  0  0  0
 11  9  1  0  0  0  0
 12 17  1  6  0  0  0
 12 15  1  0  0  0  0
 13 14  1  0  0  0  0
 14 15  1  0  0  0  0
 15  3  1  1  0  0  0
 16 13  1  0  0  0  0
 16 12  1  0  0  0  0
 18 17  1  0  0  0  0
 20 23  1  1  0  0  0
 20 22  1  0  0  0  0
 21 19  1  6  0  0  0
 21 20  1  0  0  0  0
 21 22  1  0  0  0  0
 23 24  1  0  0  0  0
 24 25  1  0  0  0  0
 25 26  2  0  0  0  0
 28 29  1  0  0  0  0
 30 32  1  0  0  0  0
 30 31  1  0  0  0  0
 31 29  1  0  0  0  0
 32 27  1  6  0  0  0
 32 28  1  0  0  0  0
 34 33  1  6  0  0  0
 34 35  1  0  0  0  0
 36 39  1  1  0  0  0
 37 36  1  0  0  0  0
 38 35  1  1  0  0  0
 38 37  1  0  0  0  0
 38 36  1  0  0  0  0
 39 62  1  1  0  0  0
 39 43  1  0  0  0  0
 40 41  1  0  0  0  0
 40 42  1  0  0  0  0
 41 60  1  1  0  0  0
 41 44  1  0  0  0  0
 42 44  1  6  0  0  0
 43 45  2  0  0  0  0
 43 40  1  0  0  0  0
 46 50  1  0  0  0  0
 47 51  1  6  0  0  0
 47 42  1  0  0  0  0
 47 50  1  0  0  0  0
 48 49  1  0  0  0  0
 49 52  1  6  0  0  0
 49 46  1  0  0  0  0
 51 48  1  0  0  0  0
 53 52  1  0  0  0  0
 54 53  1  0  0  0  0
 55 57  1  0  0  0  0
 56 57  1  0  0  0  0
 57 54  1  0  0  0  0
 58 56  2  0  0  0  0
 60 59  1  0  0  0  0
 61 62  1  0  0  0  0
M  END
>  <MODEL>
2

>  <REMARK>
 VINA RESULT:      -5.6      1.674      2.256
  Name = 
  22 active torsions:
  status: ('A' for Active; 'I' for Inactive)
    1  A    between atoms: C_2  and  N_50
    2  A    between atoms: C_4  and  N_5
    3  A    between atoms: C_7  and  C_16
    4  A    between atoms: C_8  and  C_10
    5  A    between atoms: C_9  and  C_55
    6  A    between atoms: C_10  and  N_50
    7  A    between atoms: C_13  and  C_25
    8  A    between atoms: C_13  and  N_40
    9  A    between atoms: C_15  and  C_44
   10  A    between atoms: C_15  and  C_56
   11  A    between atoms: C_17  and  N_31
   12  A    between atoms: C_17  and  C_52
   13  A    between atoms: C_18  and  C_39
   14  A    between atoms: C_20  and  C_42
   15  A    between atoms: C_23  and  C_56
   16  A    between atoms: C_23  and  C_59
   17  A    between atoms: C_30  and  C_55
   18  A    between atoms: N_37  and  C_58
   19  A    between atoms: C_46  and  N_48
   20  A    between atoms: C_47  and  C_58
   21  A    between atoms: N_48  and  C_52
   22  A    between atoms: C_51  and  C_55
                            x       y       z     vdW  Elec       q    Type
                         _______ _______ _______ _____ _____    ______ ____

>  <TORSDO>
F 22

$$$$
=
 OpenBabel11072408313D

 62 68  0  0  1  0  0  0  0  0999 V2000
  188.4930  172.7530  138.3940 C   0  0  0  0  0  2  0  0  0  0  0  0
  192.2780  173.5490  139.7850 C   0  0  0  0  0  0  0  0  0  0  0  0
  190.9530  172.5050  138.0130 C   0  0  0  0  0  0  0  0  0  0  0  0
  192.0990  173.0630  138.4150 C   0  0  0  0  0  3  0  0  0  0  0  0
  193.9370  174.4460  141.5000 C   0  0  0  0  0  0  0  0  0  0  0  0
  193.5440  174.1010  140.1640 N   0  0  0  0  0  2  0  0  0  0  0  0
  191.3030  173.4680  140.6350 N   0  0  0  0  0  0  0  0  0  0  0  0
  195.2320  175.0090  141.7210 N   0  0  0  0  0  2  0  0  0  0  0  0
  190.0530  172.9170  140.2970 N   0  0  0  0  0  0  0  0  0  0  0  0
  193.1660  174.2310  142.4770 O   0  0  0  0  0  0  0  0  0  0  0  0
  189.8170  172.2860  138.9880 C   0  0  1  0  0  3  0  0  0  0  0  0
  191.9700  172.2780  135.7200 C   0  0  1  0  0  3  0  0  0  0  0  0
  191.3580  169.9840  135.4080 O   0  0  0  0  0  0  0  0  0  0  0  0
  190.8630  170.4270  136.6460 C   0  0  0  0  0  2  0  0  0  0  0  0
  190.8280  171.9330  136.6250 C   0  0  1  0  0  3  0  0  0  0  0  0
  192.1700  171.0180  134.9010 C   0  0  0  0  0  2  0  0  0  0  0  0
  191.6150  173.3990  134.8600 N   0  0  0  0  0  2  0  0  0  0  0  0
  192.6940  174.2930  134.8960 N   0  0  0  0  0  1  0  0  0  0  0  0
  189.0960  172.6970  141.3710 C   0  0  0  0  0  2  0  0  0  0  0  0
  190.3540  171.4780  143.0890 C   0  0  2  0  0  3  0  0  0  0  0  0
  189.7970  172.7950  142.7160 C   0  0  2  0  0  3  0  0  0  0  0  0
  189.1490  171.9540  143.6390 O   0  0  0  0  0  0  0  0  0  0  0  0
  191.4170  171.6550  144.0590 N   0  0  0  0  0  2  0  0  0  0  0  0
  192.4520  170.6950  143.7200 C   0  0  0  0  0  2  0  0  0  0  0  0
  192.6330  170.6600  142.2400 C   0  0  0  0  0  3  0  0  0  0  0  0
  193.8270  170.3930  141.7220 C   0  0  0  0  0  2  0  0  0  0  0  0
  195.7130  175.3530  143.0520 C   0  0  0  0  0  2  0  0  0  0  0  0
  197.5460  173.9450  142.1320 C   0  0  0  0  0  2  0  0  0  0  0  0
  197.2080  172.6080  142.5850 N   0  0  0  0  0  2  0  0  0  0  0  0
  197.3510  174.0810  144.8080 S   0  0  0  0  0  0  0  0  0  0  0  0
  197.6960  172.5170  143.9510 C   0  0  0  0  0  2  0  0  0  0  0  0
  197.1640  174.9310  143.2200 C   0  0  2  0  0  3  0  0  0  0  0  0
  188.5020  174.5730  136.6750 C   0  0  0  0  0  1  0  0  0  0  0  0
  188.5600  174.2530  138.1600 C   0  0  1  0  0  3  0  0  0  0  0  0
  187.4910  175.0000  138.9500 C   0  0  0  0  0  2  0  0  0  0  0  0
  186.7330  177.4270  139.2930 C   0  0  2  0  0  3  0  0  0  0  0  0
  185.7700  176.6340  138.6360 O   0  0  0  0  0  0  0  0  0  0  0  0
  187.1130  176.3450  138.3260 C   0  0  2  0  0  3  0  0  0  0  0  0
  186.8310  177.0300  140.7700 C   0  0  2  0  0  3  0  0  0  0  0  0
  185.2900  178.4210  142.2620 N   0  0  0  0  0  0  0  0  0  0  0  0
  183.9130  177.9030  142.1310 C   0  0  1  0  0  3  0  0  0  0  0  0
  184.7160  179.2760  143.3190 C   0  0  1  0  0  3  0  0  0  0  0  0
  186.5800  178.1910  141.6860 C   0  0  0  0  0  0  0  0  0  0  0  0
  183.3240  178.7560  143.2050 C   0  0  0  0  0  2  0  0  0  0  0  0
  187.5390  178.9570  141.9720 O   0  0  0  0  0  0  0  0  0  0  0  0
  184.9460  178.3940  147.1100 C   0  0  0  0  0  2  0  0  0  0  0  0
  185.3170  178.9790  144.7010 C   0  0  1  0  0  3  0  0  0  0  0  0
  185.8740  176.6120  145.4990 C   0  0  0  0  0  2  0  0  0  0  0  0
  185.6440  177.0330  146.9610 C   0  0  1  0  0  3  0  0  0  0  0  0
  184.2700  178.8440  145.8210 C   0  0  0  0  0  2  0  0  0  0  0  0
  186.2990  177.7990  144.6260 C   0  0  0  0  0  2  0  0  0  0  0  0
  186.9070  177.0560  147.6820 N   0  0  0  0  0  2  0  0  0  0  0  0
  187.8270  176.1960  146.9540 C   0  0  0  0  0  2  0  0  0  0  0  0
  189.2480  176.7220  147.0710 C   0  0  0  0  0  2  0  0  0  0  0  0
  190.7310  175.5520  145.5530 O   0  0  0  0  0  1  0  0  0  0  0  0
  189.9640  177.7480  144.9160 C   0  0  0  0  0  3  0  0  0  0  0  0
  189.9430  176.6250  145.7980 N   0  0  0  0  0  0  0  0  0  0  0  0
  190.6850  177.7420  143.8820 O   0  0  0  0  0  0  0  0  0  0  0  0
  181.8120  178.2370  140.8210 C   0  0  0  0  0  1  0  0  0  0  0  0
  183.3300  178.2860  140.7750 C   0  0  0  0  0  2  0  0  0  0  0  0
  188.1890  175.9150  142.3890 O   0  0  0  0  0  1  0  0  0  0  0  0
  188.1590  176.3490  141.0620 C   0  0  0  0  0  2  0  0  0  0  0  0
  2  6  1  0  0  0  0
  2  7  2  0  0  0  0
  3  4  2  0  0  0  0
  3 11  1  0  0  0  0
  4  2  1  0  0  0  0
  5  8  1  0  0  0  0
  5 10  2  0  0  0  0
  6  5  1  0  0  0  0
  8 27  1  0  0  0  0
  9  7  1  0  0  0  0
  9 19  1  0  0  0  0
 11  1  1  6  0  0  0
 11  9  1  0  0  0  0
 12 17  1  6  0  0  0
 12 15  1  0  0  0  0
 13 14  1  0  0  0  0
 15 14  1  0  0  0  0
 15  3  1  1  0  0  0
 16 13  1  0  0  0  0
 16 12  1  0  0  0  0
 17 18  1  0  0  0  0
 20 22  1  0  0  0  0
 20 23  1  1  0  0  0
 21 19  1  6  0  0  0
 21 20  1  0  0  0  0
 21 22  1  0  0  0  0
 24 23  1  0  0  0  0
 25 24  1  0  0  0  0
 26 25  2  0  0  0  0
 28 29  1  0  0  0  0
 28 32  1  0  0  0  0
 29 31  1  0  0  0  0
 31 30  1  0  0  0  0
 32 27  1  6  0  0  0
 32 30  1  0  0  0  0
 34 33  1  6  0  0  0
 34  1  1  0  0  0  0
 34 35  1  0  0  0  0
 36 39  1  1  0  0  0
 37 36  1  0  0  0  0
 38 37  1  0  0  0  0
 38 35  1  1  0  0  0
 38 36  1  0  0  0  0
 39 62  1  6  0  0  0
 39 43  1  0  0  0  0
 40 42  1  0  0  0  0
 41 60  1  6  0  0  0
 41 40  1  0  0  0  0
 41 44  1  0  0  0  0
 42 44  1  1  0  0  0
 42 47  1  0  0  0  0
 43 45  2  0  0  0  0
 43 40  1  0  0  0  0
 47 51  1  6  0  0  0
 47 50  1  0  0  0  0
 48 49  1  0  0  0  0
 49 46  1  0  0  0  0
 49 52  1  1  0  0  0
 50 46  1  0  0  0  0
 51 48  1  0  0  0  0
 53 54  1  0  0  0  0
 53 52  1  0  0  0  0
 55 57  1  0  0  0  0
 56 57  1  0  0  0  0
 57 54  1  0  0  0  0
 58 56  2  0  0  0  0
 60 59  1  0  0  0  0
 62 61  1  0  0  0  0
M  END
>  <MODEL>
3

>  <REMARK>
 VINA RESULT:      -5.3      2.140      4.526
  Name = 
  22 active torsions:
  status: ('A' for Active; 'I' for Inactive)
    1  A    between atoms: C_2  and  N_50
    2  A    between atoms: C_4  and  N_5
    3  A    between atoms: C_7  and  C_16
    4  A    between atoms: C_8  and  C_10
    5  A    between atoms: C_9  and  C_55
    6  A    between atoms: C_10  and  N_50
    7  A    between atoms: C_13  and  C_25
    8  A    between atoms: C_13  and  N_40
    9  A    between atoms: C_15  and  C_44
   10  A    between atoms: C_15  and  C_56
   11  A    between atoms: C_17  and  N_31
   12  A    between atoms: C_17  and  C_52
   13  A    between atoms: C_18  and  C_39
   14  A    between atoms: C_20  and  C_42
   15  A    between atoms: C_23  and  C_56
   16  A    between atoms: C_23  and  C_59
   17  A    between atoms: C_30  and  C_55
   18  A    between atoms: N_37  and  C_58
   19  A    between atoms: C_46  and  N_48
   20  A    between atoms: C_47  and  C_58
   21  A    between atoms: N_48  and  C_52
   22  A    between atoms: C_51  and  C_55
                            x       y       z     vdW  Elec       q    Type
                         _______ _______ _______ _____ _____    ______ ____

>  <TORSDO>
F 22

$$$$
=
 OpenBabel11072408313D

 62 68  0  0  1  0  0  0  0  0999 V2000
  188.4850  172.6860  139.6520 C   0  0  0  0  0  2  0  0  0  0  0  0
  192.5900  172.7600  139.4590 C   0  0  0  0  0  0  0  0  0  0  0  0
  190.5130  172.4120  138.2140 C   0  0  0  0  0  0  0  0  0  0  0  0
  191.8090  172.7420  138.2210 C   0  0  0  0  0  3  0  0  0  0  0  0
  194.9190  172.9650  140.4760 C   0  0  0  0  0  0  0  0  0  0  0  0
  193.9840  173.0830  139.3940 N   0  0  0  0  0  2  0  0  0  0  0  0
  192.0210  172.4790  140.5900 N   0  0  0  0  0  0  0  0  0  0  0  0
  196.2800  173.3460  140.2640 N   0  0  0  0  0  2  0  0  0  0  0  0
  190.6580  172.1430  140.6830 N   0  0  0  0  0  0  0  0  0  0  0  0
  194.5580  172.5040  141.5950 O   0  0  0  0  0  0  0  0  0  0  0  0
  189.8210  171.9710  139.4850 C   0  0  1  0  0  3  0  0  0  0  0  0
  190.3720  173.0950  135.7930 C   0  0  1  0  0  3  0  0  0  0  0  0
  189.6290  170.9660  134.9840 O   0  0  0  0  0  0  0  0  0  0  0  0
  189.7620  170.9050  136.3800 C   0  0  0  0  0  2  0  0  0  0  0  0
  189.7580  172.3140  136.9140 C   0  0  1  0  0  3  0  0  0  0  0  0
  190.1480  172.2140  134.5800 C   0  0  0  0  0  2  0  0  0  0  0  0
  189.6920  174.3730  135.6330 N   0  0  0  0  0  2  0  0  0  0  0  0
  190.6470  175.3720  135.8710 N   0  0  0  0  0  1  0  0  0  0  0  0
  190.1660  171.6590  141.9650 C   0  0  0  0  0  2  0  0  0  0  0  0
  191.6410  171.3850  143.9060 C   0  0  2  0  0  3  0  0  0  0  0  0
  190.8900  172.3680  143.0980 C   0  0  2  0  0  3  0  0  0  0  0  0
  190.3990  171.8960  144.3290 O   0  0  0  0  0  0  0  0  0  0  0  0
  192.7000  172.0580  144.6340 N   0  0  0  0  0  2  0  0  0  0  0  0
  193.7540  171.0800  144.8330 C   0  0  0  0  0  2  0  0  0  0  0  0
  195.0000  171.7720  145.2700 C   0  0  0  0  0  3  0  0  0  0  0  0
  195.0170  173.0950  145.3920 C   0  0  0  0  0  2  0  0  0  0  0  0
  197.2920  173.2230  141.3040 C   0  0  0  0  0  2  0  0  0  0  0  0
  197.2670  175.0020  143.0420 C   0  0  0  0  0  2  0  0  0  0  0  0
  195.9930  175.6670  142.8300 N   0  0  0  0  0  2  0  0  0  0  0  0
  197.2560  175.8130  140.4810 S   0  0  0  0  0  0  0  0  0  0  0  0
  196.2120  176.6030  141.7410 C   0  0  0  0  0  2  0  0  0  0  0  0
  197.8250  174.5920  141.6930 C   0  0  2  0  0  3  0  0  0  0  0  0
  187.8660  174.8500  138.5570 C   0  0  0  0  0  1  0  0  0  0  0  0
  188.7210  174.1870  139.6240 C   0  0  1  0  0  3  0  0  0  0  0  0
  188.5190  174.8180  140.9970 C   0  0  0  0  0  2  0  0  0  0  0  0
  189.5720  176.6770  142.4190 C   0  0  2  0  0  3  0  0  0  0  0  0
  188.2590  176.9760  142.0010 O   0  0  0  0  0  0  0  0  0  0  0  0
  189.0430  176.2540  141.0810 C   0  0  2  0  0  3  0  0  0  0  0  0
  189.5510  175.5820  143.4910 C   0  0  2  0  0  3  0  0  0  0  0  0
  188.2380  176.5340  145.4670 N   0  0  0  0  0  0  0  0  0  0  0  0
  189.1290  177.4180  146.2440 C   0  0  1  0  0  3  0  0  0  0  0  0
  187.1880  177.0270  146.3790 C   0  0  1  0  0  3  0  0  0  0  0  0
  188.3190  175.6490  144.3440 C   0  0  0  0  0  0  0  0  0  0  0  0
  188.0740  177.9320  147.1650 C   0  0  0  0  0  2  0  0  0  0  0  0
  187.3300  174.9310  144.0390 O   0  0  0  0  0  0  0  0  0  0  0  0
  185.4930  179.5820  143.9700 C   0  0  0  0  0  2  0  0  0  0  0  0
  186.0940  177.8130  145.6400 C   0  0  1  0  0  3  0  0  0  0  0  0
  185.1650  177.1000  143.3630 C   0  0  0  0  0  2  0  0  0  0  0  0
  184.8420  178.5650  143.0190 C   0  0  1  0  0  3  0  0  0  0  0  0
  186.6290  178.9730  144.7820 C   0  0  0  0  0  2  0  0  0  0  0  0
  185.1600  176.8580  144.8770 C   0  0  0  0  0  2  0  0  0  0  0  0
  183.4020  178.7720  143.0040 N   0  0  0  0  0  2  0  0  0  0  0  0
  182.8770  178.0190  141.8750 C   0  0  0  0  0  2  0  0  0  0  0  0
  182.1660  178.9470  140.9030 C   0  0  0  0  0  2  0  0  0  0  0  0
  179.9420  179.3890  140.0510 O   0  0  0  0  0  1  0  0  0  0  0  0
  180.1510  177.9390  141.9670 C   0  0  0  0  0  3  0  0  0  0  0  0
  180.7320  178.7100  140.9150 N   0  0  0  0  0  0  0  0  0  0  0  0
  178.8990  177.8500  142.0850 O   0  0  0  0  0  0  0  0  0  0  0  0
  190.7560  177.4230  148.1400 C   0  0  0  0  0  1  0  0  0  0  0  0
  190.1500  176.5930  147.0200 C   0  0  0  0  0  2  0  0  0  0  0  0
  191.6960  176.5800  143.8230 O   0  0  0  0  0  1  0  0  0  0  0  0
  190.8240  175.6110  144.3230 C   0  0  0  0  0  2  0  0  0  0  0  0
  2  7  2  0  0  0  0
  3  4  2  0  0  0  0
  3 11  1  0  0  0  0
  4  2  1  0  0  0  0
  5 10  2  0  0  0  0
  6  2  1  0  0  0  0
  6  5  1  0  0  0  0
  7  9  1  0  0  0  0
  8  5  1  0  0  0  0
  8 27  1  0  0  0  0
  9 19  1  0  0  0  0
 11  1  1  1  0  0  0
 11  9  1  0  0  0  0
 12 17  1  6  0  0  0
 12 15  1  0  0  0  0
 13 14  1  0  0  0  0
 14 15  1  0  0  0  0
 15  3  1  1  0  0  0
 16 13  1  0  0  0  0
 16 12  1  0  0  0  0
 17 18  1  0  0  0  0
 20 22  1  0  0  0  0
 20 23  1  1  0  0  0
 21 19  1  6  0  0  0
 21 20  1  0  0  0  0
 21 22  1  0  0  0  0
 23 24  1  0  0  0  0
 24 25  1  0  0  0  0
 25 26  2  0  0  0  0
 29 28  1  0  0  0  0
 30 32  1  0  0  0  0
 30 31  1  0  0  0  0
 31 29  1  0  0  0  0
 32 27  1  6  0  0  0
 32 28  1  0  0  0  0
 34 33  1  6  0  0  0
 34  1  1  0  0  0  0
 34 35  1  0  0  0  0
 36 39  1  1  0  0  0
 37 36  1  0  0  0  0
 38 35  1  1  0  0  0
 38 37  1  0  0  0  0
 38 36  1  0  0  0  0
 39 62  1  1  0  0  0
 39 43  1  0  0  0  0
 40 41  1  0  0  0  0
 40 42  1  0  0  0  0
 41 60  1  1  0  0  0
 41 44  1  0  0  0  0
 42 44  1  1  0  0  0
 43 40  1  0  0  0  0
 45 43  2  0  0  0  0
 46 50  1  0  0  0  0
 47 50  1  6  0  0  0
 47 42  1  0  0  0  0
 48 51  1  0  0  0  0
 49 52  1  1  0  0  0
 49 48  1  0  0  0  0
 49 46  1  0  0  0  0
 51 47  1  0  0  0  0
 53 52  1  0  0  0  0
 54 57  1  0  0  0  0
 54 53  1  0  0  0  0
 55 57  1  0  0  0  0
 56 58  2  0  0  0  0
 57 56  1  0  0  0  0
 60 59  1  0  0  0  0
 61 62  1  0  0  0  0
M  END
>  <MODEL>
4

>  <REMARK>
 VINA RESULT:      -4.8      2.445      3.519
  Name = 
  22 active torsions:
  status: ('A' for Active; 'I' for Inactive)
    1  A    between atoms: C_2  and  N_50
    2  A    between atoms: C_4  and  N_5
    3  A    between atoms: C_7  and  C_16
    4  A    between atoms: C_8  and  C_10
    5  A    between atoms: C_9  and  C_55
    6  A    between atoms: C_10  and  N_50
    7  A    between atoms: C_13  and  C_25
    8  A    between atoms: C_13  and  N_40
    9  A    between atoms: C_15  and  C_44
   10  A    between atoms: C_15  and  C_56
   11  A    between atoms: C_17  and  N_31
   12  A    between atoms: C_17  and  C_52
   13  A    between atoms: C_18  and  C_39
   14  A    between atoms: C_20  and  C_42
   15  A    between atoms: C_23  and  C_56
   16  A    between atoms: C_23  and  C_59
   17  A    between atoms: C_30  and  C_55
   18  A    between atoms: N_37  and  C_58
   19  A    between atoms: C_46  and  N_48
   20  A    between atoms: C_47  and  C_58
   21  A    between atoms: N_48  and  C_52
   22  A    between atoms: C_51  and  C_55
                            x       y       z     vdW  Elec       q    Type
                         _______ _______ _______ _____ _____    ______ ____

>  <TORSDO>
F 22

$$$$
=
 OpenBabel11072408313D

 62 68  0  0  1  0  0  0  0  0999 V2000
  189.4250  171.8300  136.8730 C   0  0  0  0  0  2  0  0  0  0  0  0
  188.1590  174.5610  139.6710 C   0  0  0  0  0  0  0  0  0  0  0  0
  188.8680  174.2210  137.3540 C   0  0  0  0  0  0  0  0  0  0  0  0
  188.1910  174.9390  138.2560 C   0  0  0  0  0  3  0  0  0  0  0  0
  187.4750  175.2690  142.0230 C   0  0  0  0  0  0  0  0  0  0  0  0
  187.4480  175.3940  140.5940 N   0  0  0  0  0  2  0  0  0  0  0  0
  188.7740  173.4930  140.0720 N   0  0  0  0  0  0  0  0  0  0  0  0
  186.6940  176.1660  142.8150 N   0  0  0  0  0  2  0  0  0  0  0  0
  189.4940  172.6640  139.1920 N   0  0  0  0  0  0  0  0  0  0  0  0
  188.2000  174.3990  142.5820 O   0  0  0  0  0  0  0  0  0  0  0  0
  189.6930  173.0260  137.7800 C   0  0  1  0  0  3  0  0  0  0  0  0
  188.2080  175.9490  135.6450 C   0  0  1  0  0  3  0  0  0  0  0  0
  190.3230  175.9960  134.5190 O   0  0  0  0  0  0  0  0  0  0  0  0
  190.3720  175.0420  135.5490 C   0  0  0  0  0  2  0  0  0  0  0  0
  188.9570  174.6820  135.9230 C   0  0  1  0  0  3  0  0  0  0  0  0
  189.0960  176.6780  134.6550 C   0  0  0  0  0  2  0  0  0  0  0  0
  186.9130  175.6520  135.0510 N   0  0  0  0  0  2  0  0  0  0  0  0
  185.9450  175.9630  136.0160 N   0  0  0  0  0  1  0  0  0  0  0  0
  190.3040  171.6030  139.7720 C   0  0  0  0  0  2  0  0  0  0  0  0
  191.4550  170.8700  141.8110 C   0  0  2  0  0  3  0  0  0  0  0  0
  190.7600  172.0030  141.1650 C   0  0  2  0  0  3  0  0  0  0  0  0
  190.1180  171.1880  142.1150 O   0  0  0  0  0  0  0  0  0  0  0  0
  192.3100  171.3630  142.8740 N   0  0  0  0  0  2  0  0  0  0  0  0
  192.6070  170.2270  143.7280 C   0  0  0  0  0  2  0  0  0  0  0  0
  193.4490  170.6740  144.8750 C   0  0  0  0  0  3  0  0  0  0  0  0
  194.7220  170.3020  144.9490 C   0  0  0  0  0  2  0  0  0  0  0  0
  186.6970  176.1200  144.2710 C   0  0  0  0  0  2  0  0  0  0  0  0
  188.3640  177.1440  145.8070 C   0  0  0  0  0  2  0  0  0  0  0  0
  187.8020  176.9080  147.1250 N   0  0  0  0  0  2  0  0  0  0  0  0
  185.9080  178.2330  145.7870 S   0  0  0  0  0  0  0  0  0  0  0  0
  186.8230  177.9620  147.3330 C   0  0  0  0  0  2  0  0  0  0  0  0
  187.2260  177.4250  144.8440 C   0  0  2  0  0  3  0  0  0  0  0  0
  190.3330  169.5290  137.2490 C   0  0  0  0  0  1  0  0  0  0  0  0
  190.6650  170.9530  136.8350 C   0  0  1  0  0  3  0  0  0  0  0  0
  191.3580  171.0080  135.4770 C   0  0  0  0  0  2  0  0  0  0  0  0
  193.5020  172.4120  135.3510 C   0  0  2  0  0  3  0  0  0  0  0  0
  192.6220  172.8340  136.3690 O   0  0  0  0  0  0  0  0  0  0  0  0
  192.0120  172.3630  135.1920 C   0  0  2  0  0  3  0  0  0  0  0  0
  194.1510  171.0760  135.7300 C   0  0  2  0  0  3  0  0  0  0  0  0
  195.6740  172.3980  137.3000 N   0  0  0  0  0  0  0  0  0  0  0  0
  195.9780  173.7020  136.6770 C   0  0  1  0  0  3  0  0  0  0  0  0
  196.3850  172.9520  138.4690 C   0  0  1  0  0  3  0  0  0  0  0  0
  194.9890  171.1860  136.9690 C   0  0  0  0  0  0  0  0  0  0  0  0
  196.6900  174.2760  137.8560 C   0  0  0  0  0  2  0  0  0  0  0  0
  195.0590  170.1950  137.7450 O   0  0  0  0  0  0  0  0  0  0  0  0
  195.2300  173.0900  142.1900 C   0  0  0  0  0  2  0  0  0  0  0  0
  195.4720  173.0950  139.6960 C   0  0  1  0  0  3  0  0  0  0  0  0
  195.1070  175.3200  140.9080 C   0  0  0  0  0  2  0  0  0  0  0  0
  194.8380  174.5750  142.2270 C   0  0  1  0  0  3  0  0  0  0  0  0
  196.1620  172.7640  141.0310 C   0  0  0  0  0  2  0  0  0  0  0  0
  194.7600  174.4580  139.6880 C   0  0  0  0  0  2  0  0  0  0  0  0
  193.4350  174.6960  142.5950 N   0  0  0  0  0  2  0  0  0  0  0  0
  193.0690  176.0930  142.4200 C   0  0  0  0  0  2  0  0  0  0  0  0
  192.3830  176.6210  143.6690 C   0  0  0  0  0  2  0  0  0  0  0  0
  191.4300  178.8220  144.0100 O   0  0  0  0  0  1  0  0  0  0  0  0
  190.3320  177.3440  142.4530 C   0  0  0  0  0  3  0  0  0  0  0  0
  191.4140  177.6510  143.3320 N   0  0  0  0  0  0  0  0  0  0  0  0
  189.3970  178.1700  142.2680 O   0  0  0  0  0  0  0  0  0  0  0  0
  197.0530  174.8070  134.7120 C   0  0  0  0  0  1  0  0  0  0  0  0
  196.9460  173.5210  135.5130 C   0  0  0  0  0  2  0  0  0  0  0  0
  196.2120  170.1290  134.9810 O   0  0  0  0  0  1  0  0  0  0  0  0
  194.9340  170.5020  134.5610 C   0  0  0  0  0  2  0  0  0  0  0  0
  2  7  2  0  0  0  0
  2  6  1  0  0  0  0
  3 11  1  0  0  0  0
  3  4  2  0  0  0  0
  4  2  1  0  0  0  0
  5 10  2  0  0  0  0
  5  8  1  0  0  0  0
  6  5  1  0  0  0  0
  8 27  1  0  0  0  0
  9 19  1  0  0  0  0
  9  7  1  0  0  0  0
 11  1  1  6  0  0  0
 11  9  1  0  0  0  0
 12 17  1  6  0  0  0
 12 15  1  0  0  0  0
 13 16  1  0  0  0  0
 13 14  1  0  0  0  0
 14 15  1  0  0  0  0
 15  3  1  1  0  0  0
 16 12  1  0  0  0  0
 17 18  1  0  0  0  0
 20 22  1  0  0  0  0
 20 23  1  1  0  0  0
 21 19  1  6  0  0  0
 21 20  1  0  0  0  0
 21 22  1  0  0  0  0
 23 24  1  0  0  0  0
 24 25  1  0  0  0  0
 25 26  2  0  0  0  0
 28 29  1  0  0  0  0
 29 31  1  0  0  0  0
 30 31  1  0  0  0  0
 32 27  1  1  0  0  0
 32 30  1  0  0  0  0
 32 28  1  0  0  0  0
 34  1  1  0  0  0  0
 34 33  1  6  0  0  0
 35 34  1  0  0  0  0
 36 39  1  1  0  0  0
 36 37  1  0  0  0  0
 38 36  1  0  0  0  0
 38 35  1  1  0  0  0
 38 37  1  0  0  0  0
 39 62  1  6  0  0  0
 39 43  1  0  0  0  0
 40 42  1  0  0  0  0
 41 60  1  6  0  0  0
 41 40  1  0  0  0  0
 41 44  1  0  0  0  0
 42 44  1  6  0  0  0
 42 47  1  0  0  0  0
 43 40  1  0  0  0  0
 43 45  2  0  0  0  0
 46 49  1  0  0  0  0
 47 51  1  1  0  0  0
 47 50  1  0  0  0  0
 48 49  1  0  0  0  0
 49 52  1  6  0  0  0
 50 46  1  0  0  0  0
 51 48  1  0  0  0  0
 53 52  1  0  0  0  0
 53 54  1  0  0  0  0
 56 57  1  0  0  0  0
 57 54  1  0  0  0  0
 57 55  1  0  0  0  0
 58 56  2  0  0  0  0
 59 60  1  0  0  0  0
 62 61  1  0  0  0  0
M  END
>  <MODEL>
5

>  <REMARK>
 VINA RESULT:      -4.6      3.220      8.018
  Name = 
  22 active torsions:
  status: ('A' for Active; 'I' for Inactive)
    1  A    between atoms: C_2  and  N_50
    2  A    between atoms: C_4  and  N_5
    3  A    between atoms: C_7  and  C_16
    4  A    between atoms: C_8  and  C_10
    5  A    between atoms: C_9  and  C_55
    6  A    between atoms: C_10  and  N_50
    7  A    between atoms: C_13  and  C_25
    8  A    between atoms: C_13  and  N_40
    9  A    between atoms: C_15  and  C_44
   10  A    between atoms: C_15  and  C_56
   11  A    between atoms: C_17  and  N_31
   12  A    between atoms: C_17  and  C_52
   13  A    between atoms: C_18  and  C_39
   14  A    between atoms: C_20  and  C_42
   15  A    between atoms: C_23  and  C_56
   16  A    between atoms: C_23  and  C_59
   17  A    between atoms: C_30  and  C_55
   18  A    between atoms: N_37  and  C_58
   19  A    between atoms: C_46  and  N_48
   20  A    between atoms: C_47  and  C_58
   21  A    between atoms: N_48  and  C_52
   22  A    between atoms: C_51  and  C_55
                            x       y       z     vdW  Elec       q    Type
                         _______ _______ _______ _____ _____    ______ ____

>  <TORSDO>
F 22

$$$$
=
 OpenBabel11072408313D

 62 68  0  0  1  0  0  0  0  0999 V2000
  188.5150  172.7480  140.5340 C   0  0  0  0  0  2  0  0  0  0  0  0
  192.6150  172.4980  140.6830 C   0  0  0  0  0  0  0  0  0  0  0  0
  190.5970  171.9070  139.4320 C   0  0  0  0  0  0  0  0  0  0  0  0
  191.9140  172.1390  139.4480 C   0  0  0  0  0  3  0  0  0  0  0  0
  194.8860  172.8650  141.7830 C   0  0  0  0  0  0  0  0  0  0  0  0
  194.0330  172.6950  140.6410 N   0  0  0  0  0  2  0  0  0  0  0  0
  191.9550  172.6240  141.7910 N   0  0  0  0  0  0  0  0  0  0  0  0
  196.2850  173.0720  141.5820 N   0  0  0  0  0  2  0  0  0  0  0  0
  190.5640  172.4220  141.8670 N   0  0  0  0  0  0  0  0  0  0  0  0
  194.4170  172.8040  142.9540 O   0  0  0  0  0  0  0  0  0  0  0  0
  189.7920  171.9340  140.7130 C   0  0  1  0  0  3  0  0  0  0  0  0
  190.7220  171.6910  136.9260 C   0  0  1  0  0  3  0  0  0  0  0  0
  189.6890  169.5320  136.8160 O   0  0  0  0  0  0  0  0  0  0  0  0
  189.7220  169.9580  138.1540 C   0  0  0  0  0  2  0  0  0  0  0  0
  189.9180  171.4520  138.1660 C   0  0  1  0  0  3  0  0  0  0  0  0
  190.4300  170.4720  136.0720 C   0  0  0  0  0  2  0  0  0  0  0  0
  190.2750  172.9050  136.2570 N   0  0  0  0  0  2  0  0  0  0  0  0
  189.2420  172.5300  135.3860 N   0  0  0  0  0  1  0  0  0  0  0  0
  189.9540  172.3990  143.1880 C   0  0  0  0  0  2  0  0  0  0  0  0
  189.9370  173.9760  145.0660 C   0  0  2  0  0  3  0  0  0  0  0  0
  190.8050  173.1920  144.1650 C   0  0  2  0  0  3  0  0  0  0  0  0
  190.5830  174.5660  143.9640 O   0  0  0  0  0  0  0  0  0  0  0  0
  190.6650  174.3130  146.2750 N   0  0  0  0  0  2  0  0  0  0  0  0
  190.5970  175.7570  146.4110 C   0  0  0  0  0  2  0  0  0  0  0  0
  189.5270  176.1150  147.3870 C   0  0  0  0  0  3  0  0  0  0  0  0
  188.3180  175.5750  147.2740 C   0  0  0  0  0  2  0  0  0  0  0  0
  197.2160  173.2200  142.6920 C   0  0  0  0  0  2  0  0  0  0  0  0
  197.7240  175.3170  143.9290 C   0  0  0  0  0  2  0  0  0  0  0  0
  196.4830  176.0680  143.8500 N   0  0  0  0  0  2  0  0  0  0  0  0
  197.1550  175.5620  141.3150 S   0  0  0  0  0  0  0  0  0  0  0  0
  196.4960  176.7190  142.5510 C   0  0  0  0  0  2  0  0  0  0  0  0
  197.9150  174.5680  142.6250 C   0  0  2  0  0  3  0  0  0  0  0  0
  188.3220  174.5480  138.8060 C   0  0  0  0  0  1  0  0  0  0  0  0
  188.8870  174.1740  140.1670 C   0  0  1  0  0  3  0  0  0  0  0  0
  188.4760  175.1650  141.2510 C   0  0  0  0  0  2  0  0  0  0  0  0
  188.1290  177.6470  141.8030 C   0  0  2  0  0  3  0  0  0  0  0  0
  187.2530  177.1740  140.8050 O   0  0  0  0  0  0  0  0  0  0  0  0
  188.5490  176.6230  140.7910 C   0  0  2  0  0  3  0  0  0  0  0  0
  187.7370  177.0730  143.1700 C   0  0  2  0  0  3  0  0  0  0  0  0
  185.5740  178.0350  144.1350 N   0  0  0  0  0  0  0  0  0  0  0  0
  185.9160  179.1570  145.0330 C   0  0  1  0  0  3  0  0  0  0  0  0
  184.1800  178.4550  144.3740 C   0  0  1  0  0  3  0  0  0  0  0  0
  186.2500  177.0380  143.3620 C   0  0  0  0  0  0  0  0  0  0  0  0
  184.5100  179.5960  145.2740 C   0  0  0  0  0  2  0  0  0  0  0  0
  185.5870  176.1240  142.8010 O   0  0  0  0  0  0  0  0  0  0  0  0
  182.7050  178.4160  140.7650 C   0  0  0  0  0  2  0  0  0  0  0  0
  183.4850  178.9330  143.0910 C   0  0  1  0  0  3  0  0  0  0  0  0
  180.9790  178.6240  142.6660 C   0  0  0  0  0  2  0  0  0  0  0  0
  181.2250  178.5810  141.1480 C   0  0  1  0  0  3  0  0  0  0  0  0
  183.5540  177.9240  141.9300 C   0  0  0  0  0  2  0  0  0  0  0  0
  182.0610  179.4290  143.3950 C   0  0  0  0  0  2  0  0  0  0  0  0
  180.6940  179.7810  140.5190 N   0  0  0  0  0  2  0  0  0  0  0  0
  179.3110  179.9110  140.9530 C   0  0  0  0  0  2  0  0  0  0  0  0
  178.5540  180.8540  140.0320 C   0  0  0  0  0  2  0  0  0  0  0  0
  178.0670  178.8130  138.8220 O   0  0  0  0  0  1  0  0  0  0  0  0
  177.9560  180.8980  137.6140 C   0  0  0  0  0  3  0  0  0  0  0  0
  178.1180  180.1650  138.8290 N   0  0  0  0  0  0  0  0  0  0  0  0
  177.7290  180.3010  136.5270 O   0  0  0  0  0  0  0  0  0  0  0  0
  185.4440  178.2260  147.3030 C   0  0  0  0  0  1  0  0  0  0  0  0
  186.5330  178.6320  146.3250 C   0  0  0  0  0  2  0  0  0  0  0  0
  189.8200  177.8090  144.0800 O   0  0  0  0  0  1  0  0  0  0  0  0
  188.4400  177.8180  144.2930 C   0  0  0  0  0  2  0  0  0  0  0  0
  2  7  2  0  0  0  0
  3  4  2  0  0  0  0
  3 11  1  0  0  0  0
  4  2  1  0  0  0  0
  5 10  2  0  0  0  0
  6  2  1  0  0  0  0
  6  5  1  0  0  0  0
  7  9  1  0  0  0  0
  8  5  1  0  0  0  0
  8 27  1  0  0  0  0
  9 19  1  0  0  0  0
 11  1  1  6  0  0  0
 11  9  1  0  0  0  0
 12 17  1  6  0  0  0
 12 15  1  0  0  0  0
 13 14  1  0  0  0  0
 14 15  1  0  0  0  0
 15  3  1  1  0  0  0
 16 13  1  0  0  0  0
 16 12  1  0  0  0  0
 18 17  1  0  0  0  0
 20 23  1  1  0  0  0
 21 19  1  6  0  0  0
 21 20  1  0  0  0  0
 22 21  1  0  0  0  0
 22 20  1  0  0  0  0
 23 24  1  0  0  0  0
 24 25  1  0  0  0  0
 26 25  2  0  0  0  0
 29 28  1  0  0  0  0
 30 31  1  0  0  0  0
 30 32  1  0  0  0  0
 31 29  1  0  0  0  0
 32 27  1  1  0  0  0
 32 28  1  0  0  0  0
 34 33  1  6  0  0  0
 34  1  1  0  0  0  0
 34 35  1  0  0  0  0
 36 39  1  1  0  0  0
 37 36  1  0  0  0  0
 38 37  1  0  0  0  0
 38 35  1  1  0  0  0
 38 36  1  0  0  0  0
 39 43  1  0  0  0  0
 39 62  1  1  0  0  0
 40 42  1  0  0  0  0
 40 41  1  0  0  0  0
 41 44  1  0  0  0  0
 41 60  1  1  0  0  0
 42 44  1  1  0  0  0
 43 40  1  0  0  0  0
 45 43  2  0  0  0  0
 46 49  1  0  0  0  0
 46 50  1  0  0  0  0
 47 50  1  6  0  0  0
 47 51  1  0  0  0  0
 47 42  1  0  0  0  0
 48 51  1  0  0  0  0
 49 52  1  6  0  0  0
 49 48  1  0  0  0  0
 52 53  1  0  0  0  0
 54 53  1  0  0  0  0
 55 57  1  0  0  0  0
 56 57  1  0  0  0  0
 57 54  1  0  0  0  0
 58 56  2  0  0  0  0
 60 59  1  0  0  0  0
 61 62  1  0  0  0  0
M  END
>  <MODEL>
6

>  <REMARK>
 VINA RESULT:      -4.4      3.392      5.617
  Name = 
  22 active torsions:
  status: ('A' for Active; 'I' for Inactive)
    1  A    between atoms: C_2  and  N_50
    2  A    between atoms: C_4  and  N_5
    3  A    between atoms: C_7  and  C_16
    4  A    between atoms: C_8  and  C_10
    5  A    between atoms: C_9  and  C_55
    6  A    between atoms: C_10  and  N_50
    7  A    between atoms: C_13  and  C_25
    8  A    between atoms: C_13  and  N_40
    9  A    between atoms: C_15  and  C_44
   10  A    between atoms: C_15  and  C_56
   11  A    between atoms: C_17  and  N_31
   12  A    between atoms: C_17  and  C_52
   13  A    between atoms: C_18  and  C_39
   14  A    between atoms: C_20  and  C_42
   15  A    between atoms: C_23  and  C_56
   16  A    between atoms: C_23  and  C_59
   17  A    between atoms: C_30  and  C_55
   18  A    between atoms: N_37  and  C_58
   19  A    between atoms: C_46  and  N_48
   20  A    between atoms: C_47  and  C_58
   21  A    between atoms: N_48  and  C_52
   22  A    between atoms: C_51  and  C_55
                            x       y       z     vdW  Elec       q    Type
                         _______ _______ _______ _____ _____    ______ ____

>  <TORSDO>
F 22

$$$$
=
 OpenBabel11072408313D

 62 68  0  0  1  0  0  0  0  0999 V2000
  187.8380  176.8720  143.4840 C   0  0  0  0  0  2  0  0  0  0  0  0
  187.4660  176.1180  139.4610 C   0  0  0  0  0  0  0  0  0  0  0  0
  186.5520  177.3210  141.3860 C   0  0  0  0  0  0  0  0  0  0  0  0
  186.7110  177.2200  140.0620 C   0  0  0  0  0  3  0  0  0  0  0  0
  188.1030  174.9410  137.2910 C   0  0  0  0  0  0  0  0  0  0  0  0
  187.5660  176.0450  138.0340 N   0  0  0  0  0  2  0  0  0  0  0  0
  188.0220  175.2240  140.2170 N   0  0  0  0  0  0  0  0  0  0  0  0
  188.1560  175.0220  135.8650 N   0  0  0  0  0  2  0  0  0  0  0  0
  187.9280  175.2600  141.6200 N   0  0  0  0  0  0  0  0  0  0  0  0
  188.5000  173.8970  137.8800 O   0  0  0  0  0  0  0  0  0  0  0  0
  187.0870  176.2500  142.3120 C   0  0  1  0  0  3  0  0  0  0  0  0
  184.2440  178.0610  142.0710 C   0  0  1  0  0  3  0  0  0  0  0  0
  184.9370  179.2090  144.0570 O   0  0  0  0  0  0  0  0  0  0  0  0
  186.0700  178.6990  143.4020 C   0  0  0  0  0  2  0  0  0  0  0  0
  185.6960  178.4140  141.9710 C   0  0  1  0  0  3  0  0  0  0  0  0
  183.8120  178.7010  143.3760 C   0  0  0  0  0  2  0  0  0  0  0  0
  183.5050  178.6270  140.9510 N   0  0  0  0  0  2  0  0  0  0  0  0
  182.7890  177.5740  140.3650 N   0  0  0  0  0  1  0  0  0  0  0  0
  188.4220  174.1090  142.3630 C   0  0  0  0  0  2  0  0  0  0  0  0
  189.7520  172.0550  142.2030 C   0  0  2  0  0  3  0  0  0  0  0  0
  189.2370  173.2140  141.4450 C   0  0  2  0  0  3  0  0  0  0  0  0
  190.5650  173.1640  141.9060 O   0  0  0  0  0  0  0  0  0  0  0  0
  190.0740  170.9760  141.2880 N   0  0  0  0  0  2  0  0  0  0  0  0
  191.2480  170.3120  141.8250 C   0  0  0  0  0  2  0  0  0  0  0  0
  192.4620  170.7830  141.1000 C   0  0  0  0  0  3  0  0  0  0  0  0
  193.2040  169.9190  140.4150 C   0  0  0  0  0  2  0  0  0  0  0  0
  188.6570  173.9300  135.0430 C   0  0  0  0  0  2  0  0  0  0  0  0
  191.0810  173.3970  135.2120 C   0  0  0  0  0  2  0  0  0  0  0  0
  191.4950  174.0750  136.4280 N   0  0  0  0  0  2  0  0  0  0  0  0
  190.4300  175.9840  134.8930 S   0  0  0  0  0  0  0  0  0  0  0  0
  191.7280  175.4590  136.0500 C   0  0  0  0  0  2  0  0  0  0  0  0
  190.0440  174.2550  134.5130 C   0  0  2  0  0  3  0  0  0  0  0  0
  189.3870  178.6090  142.5640 C   0  0  0  0  0  1  0  0  0  0  0  0
  189.2630  177.1750  143.0520 C   0  0  1  0  0  3  0  0  0  0  0  0
  190.2690  176.8540  144.1520 C   0  0  0  0  0  2  0  0  0  0  0  0
  190.6770  175.0540  145.9350 C   0  0  2  0  0  3  0  0  0  0  0  0
  189.8610  174.6090  144.8750 O   0  0  0  0  0  0  0  0  0  0  0  0
  189.6940  175.9550  145.2500 C   0  0  2  0  0  3  0  0  0  0  0  0
  192.1260  175.2090  145.4610 C   0  0  2  0  0  3  0  0  0  0  0  0
  193.5660  174.3380  143.5360 N   0  0  0  0  0  0  0  0  0  0  0  0
  194.3990  175.4480  143.0300 C   0  0  1  0  0  3  0  0  0  0  0  0
  194.3560  173.5090  142.6050 C   0  0  1  0  0  3  0  0  0  0  0  0
  192.5220  174.1330  144.4940 C   0  0  0  0  0  0  0  0  0  0  0  0
  195.2110  174.6180  142.0930 C   0  0  0  0  0  2  0  0  0  0  0  0
  191.9380  173.0170  144.5550 O   0  0  0  0  0  0  0  0  0  0  0  0
  197.0630  170.7810  143.2620 C   0  0  0  0  0  2  0  0  0  0  0  0
  195.1900  172.4450  143.3340 C   0  0  1  0  0  3  0  0  0  0  0  0
  197.3720  172.9840  144.5590 C   0  0  0  0  0  2  0  0  0  0  0  0
  197.8900  171.5590  144.2970 C   0  0  1  0  0  3  0  0  0  0  0  0
  196.1760  171.6920  142.4230 C   0  0  0  0  0  2  0  0  0  0  0  0
  195.8400  173.0340  144.5970 C   0  0  0  0  0  2  0  0  0  0  0  0
  197.9400  170.8060  145.5410 N   0  0  0  0  0  2  0  0  0  0  0  0
  196.7060  170.0390  145.6220 C   0  0  0  0  0  2  0  0  0  0  0  0
  196.6000  169.3460  146.9700 C   0  0  0  0  0  2  0  0  0  0  0  0
  194.9650  168.2150  148.3550 O   0  0  0  0  0  1  0  0  0  0  0  0
  194.3010  168.8800  146.1330 C   0  0  0  0  0  3  0  0  0  0  0  0
  195.2490  168.8620  147.2000 N   0  0  0  0  0  0  0  0  0  0  0  0
  193.1750  168.3270  146.2630 O   0  0  0  0  0  0  0  0  0  0  0  0
  194.2230  176.8070  140.9410 C   0  0  0  0  0  1  0  0  0  0  0  0
  193.5430  176.4400  142.2490 C   0  0  0  0  0  2  0  0  0  0  0  0
  193.3660  176.6280  146.9300 O   0  0  0  0  0  1  0  0  0  0  0  0
  193.0790  175.2920  146.6430 C   0  0  0  0  0  2  0  0  0  0  0  0
  2  4  1  0  0  0  0
  2  7  2  0  0  0  0
  3 11  1  0  0  0  0
  4  3  2  0  0  0  0
  5 10  2  0  0  0  0
  5  6  1  0  0  0  0
  6  2  1  0  0  0  0
  7  9  1  0  0  0  0
  8  5  1  0  0  0  0
  9 11  1  0  0  0  0
  9 19  1  0  0  0  0
 11  1  1  1  0  0  0
 12 17  1  6  0  0  0
 12 16  1  0  0  0  0
 14 13  1  0  0  0  0
 15  3  1  1  0  0  0
 15 12  1  0  0  0  0
 15 14  1  0  0  0  0
 16 13  1  0  0  0  0
 18 17  1  0  0  0  0
 20 23  1  6  0  0  0
 21 22  1  0  0  0  0
 21 20  1  0  0  0  0
 21 19  1  1  0  0  0
 22 20  1  0  0  0  0
 23 24  1  0  0  0  0
 25 24  1  0  0  0  0
 26 25  2  0  0  0  0
 27  8  1  0  0  0  0
 28 29  1  0  0  0  0
 30 31  1  0  0  0  0
 31 29  1  0  0  0  0
 32 30  1  0  0  0  0
 32 27  1  1  0  0  0
 32 28  1  0  0  0  0
 34 33  1  1  0  0  0
 34  1  1  0  0  0  0
 34 35  1  0  0  0  0
 36 39  1  6  0  0  0
 37 38  1  0  0  0  0
 37 36  1  0  0  0  0
 38 35  1  6  0  0  0
 38 36  1  0  0  0  0
 39 62  1  1  0  0  0
 40 43  1  0  0  0  0
 41 60  1  6  0  0  0
 41 40  1  0  0  0  0
 42 44  1  1  0  0  0
 42 47  1  0  0  0  0
 42 40  1  0  0  0  0
 43 45  2  0  0  0  0
 43 39  1  0  0  0  0
 44 41  1  0  0  0  0
 46 49  1  0  0  0  0
 47 50  1  6  0  0  0
 47 51  1  0  0  0  0
 48 51  1  0  0  0  0
 49 48  1  0  0  0  0
 49 52  1  1  0  0  0
 50 46  1  0  0  0  0
 52 53  1  0  0  0  0
 53 54  1  0  0  0  0
 54 57  1  0  0  0  0
 56 58  2  0  0  0  0
 56 57  1  0  0  0  0
 57 55  1  0  0  0  0
 59 60  1  0  0  0  0
 62 61  1  0  0  0  0
M  END
>  <MODEL>
7

>  <REMARK>
 VINA RESULT:      -4.3      3.081      8.968
  Name = 
  22 active torsions:
  status: ('A' for Active; 'I' for Inactive)
    1  A    between atoms: C_2  and  N_50
    2  A    between atoms: C_4  and  N_5
    3  A    between atoms: C_7  and  C_16
    4  A    between atoms: C_8  and  C_10
    5  A    between atoms: C_9  and  C_55
    6  A    between atoms: C_10  and  N_50
    7  A    between atoms: C_13  and  C_25
    8  A    between atoms: C_13  and  N_40
    9  A    between atoms: C_15  and  C_44
   10  A    between atoms: C_15  and  C_56
   11  A    between atoms: C_17  and  N_31
   12  A    between atoms: C_17  and  C_52
   13  A    between atoms: C_18  and  C_39
   14  A    between atoms: C_20  and  C_42
   15  A    between atoms: C_23  and  C_56
   16  A    between atoms: C_23  and  C_59
   17  A    between atoms: C_30  and  C_55
   18  A    between atoms: N_37  and  C_58
   19  A    between atoms: C_46  and  N_48
   20  A    between atoms: C_47  and  C_58
   21  A    between atoms: N_48  and  C_52
   22  A    between atoms: C_51  and  C_55
                            x       y       z     vdW  Elec       q    Type
                         _______ _______ _______ _____ _____    ______ ____

>  <TORSDO>
F 22

$$$$
=
 OpenBabel11072408313D

 62 68  0  0  1  0  0  0  0  0999 V2000
  191.3340  176.4050  142.4930 C   0  0  0  0  0  2  0  0  0  0  0  0
  193.2450  173.4340  140.3930 C   0  0  0  0  0  0  0  0  0  0  0  0
  191.4760  173.9570  142.0000 C   0  0  0  0  0  0  0  0  0  0  0  0
  191.9790  173.1410  141.0670 C   0  0  0  0  0  3  0  0  0  0  0  0
  195.0500  172.5440  138.8280 C   0  0  0  0  0  0  0  0  0  0  0  0
  193.7500  172.4990  139.4320 N   0  0  0  0  0  2  0  0  0  0  0  0
  193.8960  174.5180  140.6760 N   0  0  0  0  0  0  0  0  0  0  0  0
  195.4050  171.5490  137.8650 N   0  0  0  0  0  2  0  0  0  0  0  0
  193.4340  175.4470  141.6270 N   0  0  0  0  0  0  0  0  0  0  0  0
  195.8870  173.4310  139.1580 O   0  0  0  0  0  0  0  0  0  0  0  0
  192.2430  175.1820  142.4490 C   0  0  1  0  0  3  0  0  0  0  0  0
  189.3320  172.6350  141.9960 C   0  0  1  0  0  3  0  0  0  0  0  0
  189.4280  172.0110  144.3070 O   0  0  0  0  0  0  0  0  0  0  0  0
  190.5270  172.8320  144.0070 C   0  0  0  0  0  2  0  0  0  0  0  0
  190.2170  173.5860  142.7400 C   0  0  1  0  0  3  0  0  0  0  0  0
  188.7820  171.7340  143.0850 C   0  0  0  0  0  2  0  0  0  0  0  0
  188.2550  173.3560  141.3330 N   0  0  0  0  0  2  0  0  0  0  0  0
  187.9340  174.4460  142.1540 N   0  0  0  0  0  1  0  0  0  0  0  0
  194.3310  176.5290  142.0090 C   0  0  0  0  0  2  0  0  0  0  0  0
  195.3890  175.2370  143.8060 C   0  0  2  0  0  3  0  0  0  0  0  0
  195.6350  175.9570  142.5390 C   0  0  2  0  0  3  0  0  0  0  0  0
  195.9230  176.5390  143.7870 O   0  0  0  0  0  0  0  0  0  0  0  0
  196.4620  174.2910  144.0460 N   0  0  0  0  0  2  0  0  0  0  0  0
  196.7970  174.3930  145.4550 C   0  0  0  0  0  2  0  0  0  0  0  0
  196.8280  173.0300  146.0590 C   0  0  0  0  0  3  0  0  0  0  0  0
  195.9920  172.0930  145.6270 C   0  0  0  0  0  2  0  0  0  0  0  0
  196.7170  171.5110  137.2350 C   0  0  0  0  0  2  0  0  0  0  0  0
  197.2900  173.2410  135.5420 C   0  0  0  0  0  2  0  0  0  0  0  0
  196.3190  174.2920  135.7880 N   0  0  0  0  0  2  0  0  0  0  0  0
  194.8690  172.0960  135.3310 S   0  0  0  0  0  0  0  0  0  0  0  0
  195.1080  173.8820  135.0980 C   0  0  0  0  0  2  0  0  0  0  0  0
  196.6160  171.9020  135.7700 C   0  0  2  0  0  3  0  0  0  0  0  0
  191.5300  178.6600  143.5610 C   0  0  0  0  0  1  0  0  0  0  0  0
  191.5820  177.1580  143.7890 C   0  0  1  0  0  3  0  0  0  0  0  0
  190.6330  176.7110  144.8950 C   0  0  0  0  0  2  0  0  0  0  0  0
  190.6600  175.5770  147.1970 C   0  0  2  0  0  3  0  0  0  0  0  0
  191.8450  176.2880  146.9160 O   0  0  0  0  0  0  0  0  0  0  0  0
  191.2410  175.6500  145.8160 C   0  0  2  0  0  3  0  0  0  0  0  0
  189.5060  176.5510  147.4590 C   0  0  2  0  0  3  0  0  0  0  0  0
  187.1910  177.0670  146.5060 N   0  0  0  0  0  0  0  0  0  0  0  0
  186.8290  178.4530  146.8670 C   0  0  1  0  0  3  0  0  0  0  0  0
  185.9530  177.1040  145.7040 C   0  0  1  0  0  3  0  0  0  0  0  0
  188.2450  176.1340  146.7610 C   0  0  0  0  0  0  0  0  0  0  0  0
  185.5800  178.5050  146.0520 C   0  0  0  0  0  2  0  0  0  0  0  0
  188.1360  174.9410  146.3680 O   0  0  0  0  0  0  0  0  0  0  0  0
  185.4620  177.3260  141.8420 C   0  0  0  0  0  2  0  0  0  0  0  0
  186.2250  176.9510  144.2000 C   0  0  1  0  0  3  0  0  0  0  0  0
  187.3740  178.7610  142.8010 C   0  0  0  0  0  2  0  0  0  0  0  0
  186.6220  178.2890  141.5440 C   0  0  1  0  0  3  0  0  0  0  0  0
  185.0410  177.3590  143.3050 C   0  0  0  0  0  2  0  0  0  0  0  0
  187.5530  177.6250  143.8160 C   0  0  0  0  0  2  0  0  0  0  0  0
  187.5450  177.6600  140.6120 N   0  0  0  0  0  2  0  0  0  0  0  0
  186.7990  177.3870  139.3940 C   0  0  0  0  0  2  0  0  0  0  0  0
  187.1040  175.9870  138.8880 C   0  0  0  0  0  2  0  0  0  0  0  0
  187.8660  175.8320  136.5940 O   0  0  0  0  0  1  0  0  0  0  0  0
  185.4950  176.0380  136.9870 C   0  0  0  0  0  3  0  0  0  0  0  0
  186.8310  175.8780  137.4650 N   0  0  0  0  0  0  0  0  0  0  0  0
  185.2560  176.1020  135.7510 O   0  0  0  0  0  0  0  0  0  0  0  0
  185.3650  177.5850  148.6960 C   0  0  0  0  0  1  0  0  0  0  0  0
  186.4940  178.5430  148.3520 C   0  0  0  0  0  2  0  0  0  0  0  0
  190.1970  178.6870  148.2750 O   0  0  0  0  0  1  0  0  0  0  0  0
  189.9070  177.9750  147.1100 C   0  0  0  0  0  2  0  0  0  0  0  0
  1 34  1  0  0  0  0
  2  7  2  0  0  0  0
  2  4  1  0  0  0  0
  3 11  1  0  0  0  0
  4  3  2  0  0  0  0
  5 10  2  0  0  0  0
  5  6  1  0  0  0  0
  6  2  1  0  0  0  0
  7  9  1  0  0  0  0
  8  5  1  0  0  0  0
  9 19  1  0  0  0  0
  9 11  1  0  0  0  0
 11  1  1  6  0  0  0
 12 17  1  1  0  0  0
 12 15  1  0  0  0  0
 12 16  1  0  0  0  0
 14 13  1  0  0  0  0
 15  3  1  6  0  0  0
 15 14  1  0  0  0  0
 16 13  1  0  0  0  0
 17 18  1  0  0  0  0
 20 23  1  6  0  0  0
 21 19  1  1  0  0  0
 21 22  1  0  0  0  0
 21 20  1  0  0  0  0
 22 20  1  0  0  0  0
 23 24  1  0  0  0  0
 24 25  1  0  0  0  0
 26 25  2  0  0  0  0
 27  8  1  0  0  0  0
 28 32  1  0  0  0  0
 28 29  1  0  0  0  0
 30 32  1  0  0  0  0
 31 30  1  0  0  0  0
 31 29  1  0  0  0  0
 32 27  1  1  0  0  0
 34 33  1  6  0  0  0
 34 35  1  0  0  0  0
 36 39  1  6  0  0  0
 37 36  1  0  0  0  0
 38 35  1  6  0  0  0
 38 37  1  0  0  0  0
 38 36  1  0  0  0  0
 39 62  1  6  0  0  0
 40 43  1  0  0  0  0
 40 41  1  0  0  0  0
 41 60  1  1  0  0  0
 42 44  1  6  0  0  0
 42 40  1  0  0  0  0
 43 39  1  0  0  0  0
 44 41  1  0  0  0  0
 45 43  2  0  0  0  0
 46 50  1  0  0  0  0
 47 50  1  6  0  0  0
 47 42  1  0  0  0  0
 48 51  1  0  0  0  0
 49 52  1  6  0  0  0
 49 46  1  0  0  0  0
 49 48  1  0  0  0  0
 51 47  1  0  0  0  0
 53 52  1  0  0  0  0
 54 53  1  0  0  0  0
 55 57  1  0  0  0  0
 56 57  1  0  0  0  0
 57 54  1  0  0  0  0
 58 56  2  0  0  0  0
 60 59  1  0  0  0  0
 62 61  1  0  0  0  0
M  END
>  <MODEL>
8

>  <REMARK>
 VINA RESULT:      -4.0      2.961      6.201
  Name = 
  22 active torsions:
  status: ('A' for Active; 'I' for Inactive)
    1  A    between atoms: C_2  and  N_50
    2  A    between atoms: C_4  and  N_5
    3  A    between atoms: C_7  and  C_16
    4  A    between atoms: C_8  and  C_10
    5  A    between atoms: C_9  and  C_55
    6  A    between atoms: C_10  and  N_50
    7  A    between atoms: C_13  and  C_25
    8  A    between atoms: C_13  and  N_40
    9  A    between atoms: C_15  and  C_44
   10  A    between atoms: C_15  and  C_56
   11  A    between atoms: C_17  and  N_31
   12  A    between atoms: C_17  and  C_52
   13  A    between atoms: C_18  and  C_39
   14  A    between atoms: C_20  and  C_42
   15  A    between atoms: C_23  and  C_56
   16  A    between atoms: C_23  and  C_59
   17  A    between atoms: C_30  and  C_55
   18  A    between atoms: N_37  and  C_58
   19  A    between atoms: C_46  and  N_48
   20  A    between atoms: C_47  and  C_58
   21  A    between atoms: N_48  and  C_52
   22  A    between atoms: C_51  and  C_55
                            x       y       z     vdW  Elec       q    Type
                         _______ _______ _______ _____ _____    ______ ____

>  <TORSDO>
F 22

$$$$
=
 OpenBabel11072408313D

 62 68  0  0  1  0  0  0  0  0999 V2000
  193.8070  171.6010  138.6450 C   0  0  0  0  0  2  0  0  0  0  0  0
  190.2840  173.4290  139.7110 C   0  0  0  0  0  0  0  0  0  0  0  0
  191.4800  172.2100  137.9590 C   0  0  0  0  0  0  0  0  0  0  0  0
  190.3230  172.5750  138.5220 C   0  0  0  0  0  3  0  0  0  0  0  0
  188.8010  174.7890  141.2770 C   0  0  0  0  0  0  0  0  0  0  0  0
  189.0120  173.8170  140.2430 N   0  0  0  0  0  2  0  0  0  0  0  0
  191.3880  173.8280  140.2610 N   0  0  0  0  0  0  0  0  0  0  0  0
  187.4690  175.0570  141.7190 N   0  0  0  0  0  2  0  0  0  0  0  0
  192.6520  173.4770  139.7520 N   0  0  0  0  0  0  0  0  0  0  0  0
  189.7730  175.4240  141.7750 O   0  0  0  0  0  0  0  0  0  0  0  0
  192.7960  172.7320  138.4910 C   0  0  1  0  0  3  0  0  0  0  0  0
  192.8560  171.0030  136.2290 C   0  0  1  0  0  3  0  0  0  0  0  0
  191.3380  169.1720  135.9450 O   0  0  0  0  0  0  0  0  0  0  0  0
  190.7930  170.0810  136.8670 C   0  0  0  0  0  2  0  0  0  0  0  0
  191.4880  171.4060  136.6850 C   0  0  1  0  0  3  0  0  0  0  0  0
  192.6490  169.6100  135.6690 C   0  0  0  0  0  2  0  0  0  0  0  0
  193.3330  171.9080  135.1930 N   0  0  0  0  0  2  0  0  0  0  0  0
  192.1970  172.4570  134.5810 N   0  0  0  0  0  1  0  0  0  0  0  0
  193.8190  174.1320  140.3250 C   0  0  0  0  0  2  0  0  0  0  0  0
  195.8270  174.6450  139.0130 C   0  0  2  0  0  3  0  0  0  0  0  0
  194.4410  175.0670  139.3020 C   0  0  2  0  0  3  0  0  0  0  0  0
  195.5460  175.7180  139.8800 O   0  0  0  0  0  0  0  0  0  0  0  0
  196.2410  175.1740  137.7270 N   0  0  0  0  0  2  0  0  0  0  0  0
  197.4870  174.5110  137.3870 C   0  0  0  0  0  2  0  0  0  0  0  0
  197.8220  174.7820  135.9600 C   0  0  0  0  0  3  0  0  0  0  0  0
  197.8480  176.0320  135.5100 C   0  0  0  0  0  2  0  0  0  0  0  0
  187.1750  176.0530  142.7410 C   0  0  0  0  0  2  0  0  0  0  0  0
  186.5090  178.4270  143.0700 C   0  0  0  0  0  2  0  0  0  0  0  0
  185.0960  178.4340  142.7350 N   0  0  0  0  0  2  0  0  0  0  0  0
  186.3210  177.4520  140.5730 S   0  0  0  0  0  0  0  0  0  0  0  0
  185.0340  178.5180  141.2850 C   0  0  0  0  0  2  0  0  0  0  0  0
  187.2170  177.4520  142.1480 C   0  0  2  0  0  3  0  0  0  0  0  0
  193.6170  169.1590  139.1620 C   0  0  0  0  0  1  0  0  0  0  0  0
  193.2460  170.5650  139.6050 C   0  0  1  0  0  3  0  0  0  0  0  0
  193.6620  170.8420  141.0450 C   0  0  0  0  0  2  0  0  0  0  0  0
  195.7820  171.2480  142.4340 C   0  0  2  0  0  3  0  0  0  0  0  0
  195.0230  172.4180  142.2250 O   0  0  0  0  0  0  0  0  0  0  0  0
  195.0390  171.5030  141.1560 C   0  0  2  0  0  3  0  0  0  0  0  0
  195.0640  170.3190  143.4180 C   0  0  2  0  0  3  0  0  0  0  0  0
  195.0360  172.2880  145.0480 N   0  0  0  0  0  0  0  0  0  0  0  0
  196.2650  173.0810  144.8510 C   0  0  1  0  0  3  0  0  0  0  0  0
  194.6470  173.3800  145.9610 C   0  0  1  0  0  3  0  0  0  0  0  0
  194.4570  171.0700  144.5660 C   0  0  0  0  0  0  0  0  0  0  0  0
  195.8790  174.1960  145.7650 C   0  0  0  0  0  2  0  0  0  0  0  0
  193.3990  170.6290  145.0890 O   0  0  0  0  0  0  0  0  0  0  0  0
  191.0380  174.0200  144.6320 C   0  0  0  0  0  2  0  0  0  0  0  0
  193.3940  174.1270  145.4810 C   0  0  1  0  0  3  0  0  0  0  0  0
  191.4830  174.7930  147.0490 C   0  0  0  0  0  2  0  0  0  0  0  0
  190.4790  174.7130  145.8850 C   0  0  1  0  0  3  0  0  0  0  0  0
  192.2910  173.2060  144.9290 C   0  0  0  0  0  2  0  0  0  0  0  0
  192.9000  175.1090  146.5560 C   0  0  0  0  0  2  0  0  0  0  0  0
  190.0130  176.0460  145.5320 N   0  0  0  0  0  2  0  0  0  0  0  0
  188.5840  176.0810  145.8040 C   0  0  0  0  0  2  0  0  0  0  0  0
  188.1690  177.4630  146.2790 C   0  0  0  0  0  2  0  0  0  0  0  0
  185.9130  176.6250  146.0010 O   0  0  0  0  0  1  0  0  0  0  0  0
  186.2330  178.5710  147.3890 C   0  0  0  0  0  3  0  0  0  0  0  0
  186.7530  177.4960  146.6070 N   0  0  0  0  0  0  0  0  0  0  0  0
  184.9910  178.7040  147.5570 O   0  0  0  0  0  0  0  0  0  0  0  0
  197.0480  171.4260  146.5510 C   0  0  0  0  0  1  0  0  0  0  0  0
  197.4720  172.3350  145.4100 C   0  0  0  0  0  2  0  0  0  0  0  0
  195.4230  168.5480  144.9820 O   0  0  0  0  0  1  0  0  0  0  0  0
  195.9890  169.2080  143.8890 C   0  0  0  0  0  2  0  0  0  0  0  0
  1 34  1  0  0  0  0
  2  6  1  0  0  0  0
  2  7  2  0  0  0  0
  3 11  1  0  0  0  0
  3  4  2  0  0  0  0
  4  2  1  0  0  0  0
  5  8  1  0  0  0  0
  5 10  2  0  0  0  0
  6  5  1  0  0  0  0
  8 27  1  0  0  0  0
  9  7  1  0  0  0  0
  9 19  1  0  0  0  0
 11  1  1  1  0  0  0
 11  9  1  0  0  0  0
 12 17  1  6  0  0  0
 12 15  1  0  0  0  0
 13 14  1  0  0  0  0
 15 14  1  0  0  0  0
 15  3  1  1  0  0  0
 16 13  1  0  0  0  0
 16 12  1  0  0  0  0
 18 17  1  0  0  0  0
 20 23  1  6  0  0  0
 20 21  1  0  0  0  0
 20 22  1  0  0  0  0
 21 22  1  0  0  0  0
 21 19  1  1  0  0  0
 24 23  1  0  0  0  0
 25 24  1  0  0  0  0
 26 25  2  0  0  0  0
 29 28  1  0  0  0  0
 30 31  1  0  0  0  0
 30 32  1  0  0  0  0
 31 29  1  0  0  0  0
 32 27  1  1  0  0  0
 32 28  1  0  0  0  0
 34 33  1  6  0  0  0
 34 35  1  0  0  0  0
 36 39  1  1  0  0  0
 37 36  1  0  0  0  0
 38 35  1  1  0  0  0
 38 37  1  0  0  0  0
 38 36  1  0  0  0  0
 39 62  1  1  0  0  0
 39 43  1  0  0  0  0
 40 42  1  0  0  0  0
 41 40  1  0  0  0  0
 41 60  1  1  0  0  0
 41 44  1  0  0  0  0
 42 44  1  6  0  0  0
 43 40  1  0  0  0  0
 43 45  2  0  0  0  0
 46 50  1  0  0  0  0
 46 49  1  0  0  0  0
 47 50  1  1  0  0  0
 47 42  1  0  0  0  0
 47 51  1  0  0  0  0
 49 52  1  6  0  0  0
 49 48  1  0  0  0  0
 51 48  1  0  0  0  0
 52 53  1  0  0  0  0
 53 54  1  0  0  0  0
 54 57  1  0  0  0  0
 55 57  1  0  0  0  0
 56 58  2  0  0  0  0
 57 56  1  0  0  0  0
 60 59  1  0  0  0  0
 62 61  1  0  0  0  0
M  END
>  <MODEL>
9

>  <REMARK>
 VINA RESULT:      -3.8      2.944      6.472
  Name = 
  22 active torsions:
  status: ('A' for Active; 'I' for Inactive)
    1  A    between atoms: C_2  and  N_50
    2  A    between atoms: C_4  and  N_5
    3  A    between atoms: C_7  and  C_16
    4  A    between atoms: C_8  and  C_10
    5  A    between atoms: C_9  and  C_55
    6  A    between atoms: C_10  and  N_50
    7  A    between atoms: C_13  and  C_25
    8  A    between atoms: C_13  and  N_40
    9  A    between atoms: C_15  and  C_44
   10  A    between atoms: C_15  and  C_56
   11  A    between atoms: C_17  and  N_31
   12  A    between atoms: C_17  and  C_52
   13  A    between atoms: C_18  and  C_39
   14  A    between atoms: C_20  and  C_42
   15  A    between atoms: C_23  and  C_56
   16  A    between atoms: C_23  and  C_59
   17  A    between atoms: C_30  and  C_55
   18  A    between atoms: N_37  and  C_58
   19  A    between atoms: C_46  and  N_48
   20  A    between atoms: C_47  and  C_58
   21  A    between atoms: N_48  and  C_52
   22  A    between atoms: C_51  and  C_55
                            x       y       z     vdW  Elec       q    Type
                         _______ _______ _______ _____ _____    ______ ____

>  <TORSDO>
F 22

$$$$
