=
 OpenBabel11072409163D

 39 46  0  0  1  0  0  0  0  0999 V2000
  193.4800  176.3930  146.0870 C   0  0  1  0  0  3  0  0  0  0  0  0
  192.4940  175.3510  145.5410 C   0  0  2  0  0  3  0  0  0  0  0  0
  189.9080  174.9360  143.8580 O   0  0  0  0  0  0  0  0  0  0  0  0
  191.4550  174.7710  141.9710 C   0  0  0  0  0  0  0  0  0  0  0  0
  191.0540  175.0620  143.3530 C   0  0  0  0  0  0  0  0  0  0  0  0
  193.7460  174.1330  141.5370 O   0  0  0  0  0  0  0  0  0  0  0  0
  192.8710  175.2160  141.8150 C   0  0  2  0  0  3  0  0  0  0  0  0
  192.2280  175.5630  144.0670 C   0  0  2  0  0  3  0  0  0  0  0  0
  196.2130  174.4720  144.8380 O   0  0  0  0  0  0  0  0  0  0  0  0
  194.4760  175.7320  146.8340 O   0  0  0  0  0  0  0  0  0  0  0  0
  190.7750  174.2590  140.9750 N   0  0  0  0  0  0  0  0  0  0  0  0
  194.4860  175.1150  143.4060 N   0  0  0  0  0  0  0  0  0  0  0  0
  195.2280  175.2320  144.6260 C   0  0  0  0  0  0  0  0  0  0  0  0
  193.2150  175.6300  143.1730 C   0  0  1  0  0  3  0  0  0  0  0  0
  194.9040  176.3110  145.6230 C   0  0  1  0  0  3  0  0  0  0  0  0
  194.8610  174.2870  142.3390 N   0  0  0  0  0  2  0  0  0  0  0  0
  189.3060  172.4960  139.9690 C   0  0  0  0  0  2  0  0  0  0  0  0
  188.9800  173.8950  139.5180 C   0  0  2  0  0  3  0  0  0  0  0  0
  189.4110  173.7200  140.8370 C   0  0  2  0  0  0  0  0  0  0  0  0
  188.3430  174.7270  140.5910 N   0  0  0  0  0  0  0  0  0  0  0  0
  184.9760  178.8100  142.2660 F   0  0  0  0  0  0  0  0  0  0  0  0
  186.2990  177.7790  140.5660 C   0  0  0  0  0  3  0  0  0  0  0  0
  187.4700  175.7620  141.0320 C   0  0  0  0  0  0  0  0  0  0  0  0
  185.7880  177.8020  141.8680 C   0  0  0  0  0  0  0  0  0  0  0  0
  187.1200  176.7650  140.1780 N   0  0  0  0  0  0  0  0  0  0  0  0
  186.9870  175.7570  142.3450 C   0  0  0  0  0  3  0  0  0  0  0  0
  186.1400  176.7860  142.7610 C   0  0  0  0  0  3  0  0  0  0  0  0
  191.2140  175.4220  146.3640 C   0  0  0  0  0  2  0  0  0  0  0  0
  191.0790  176.7780  147.0400 C   0  0  2  0  0  3  0  0  0  0  0  0
  191.1200  176.6060  148.4260 O   0  0  0  0  0  1  0  0  0  0  0  0
  189.7650  177.4310  146.6260 C   0  0  1  0  0  3  0  0  0  0  0  0
  189.8390  177.8710  145.3050 O   0  0  0  0  0  1  0  0  0  0  0  0
  188.6370  176.4180  146.7430 C   0  0  0  0  0  2  0  0  0  0  0  0
  184.8460  178.4090  147.0580 C   0  0  0  0  0  3  0  0  0  0  0  0
  186.1880  176.5650  146.2170 C   0  0  0  0  0  3  0  0  0  0  0  0
  184.9530  177.2180  146.3240 C   0  0  0  0  0  3  0  0  0  0  0  0
  185.9740  178.9510  147.6800 C   0  0  0  0  0  3  0  0  0  0  0  0
  187.3170  177.1040  146.8440 C   0  0  0  0  0  0  0  0  0  0  0  0
  187.2090  178.3000  147.5720 C   0  0  0  0  0  3  0  0  0  0  0  0
  1 10  1  1  0  0  0
  2  1  1  0  0  0  0
  2 28  1  1  0  0  0
  4  5  1  0  0  0  0
  5  3  2  0  0  0  0
  6 16  1  0  0  0  0
  7  6  1  1  0  0  0
  7  4  1  0  0  0  0
  7 14  1  0  0  0  0
  8  5  1  6  0  0  0
  8  2  1  0  0  0  0
 11  4  2  0  0  0  0
 12 13  1  0  0  0  0
 13  9  2  0  0  0  0
 14 12  1  1  0  0  0
 14  8  1  0  0  0  0
 15 13  1  6  0  0  0
 15  1  1  0  0  0  0
 15 10  1  0  0  0  0
 16 12  1  0  0  0  0
 17 19  1  0  0  0  0
 18 17  1  1  0  0  0
 18 20  1  0  0  0  0
 18 19  1  0  0  0  0
 19 11  1  1  0  0  0
 20 19  1  0  0  0  0
 20 23  1  0  0  0  0
 22 24  1  0  0  0  0
 23 26  2  0  0  0  0
 24 21  1  0  0  0  0
 24 27  2  0  0  0  0
 25 22  2  0  0  0  0
 25 23  1  0  0  0  0
 26 27  1  0  0  0  0
 28 29  1  0  0  0  0
 29 30  1  1  0  0  0
 31 32  1  6  0  0  0
 31 33  1  0  0  0  0
 31 29  1  0  0  0  0
 33 38  1  0  0  0  0
 34 37  1  0  0  0  0
 35 36  1  0  0  0  0
 35 38  2  0  0  0  0
 36 34  2  0  0  0  0
 38 39  1  0  0  0  0
 39 37  2  0  0  0  0
M  END
>  <MODEL>
1

>  <REMARK>
 VINA RESULT:      -8.6      0.000      0.000
  Name = 
  7 active torsions:
  status: ('A' for Active; 'I' for Inactive)
    1  A    between atoms: C_4  and  C_36
    2  A    between atoms: C_6  and  C_18
    3  A    between atoms: C_6  and  C_36
    4  A    between atoms: C_17  and  N_39
    5  A    between atoms: C_18  and  C_32
    6  A    between atoms: N_22  and  C_23
    7  A    between atoms: C_32  and  C_35
                            x       y       z     vdW  Elec       q    Type
                         _______ _______ _______ _____ _____    ______ ____

>  <TORSDO>
F 7

$$$$
=
 OpenBabel11072409163D

 39 46  0  0  1  0  0  0  0  0999 V2000
  194.8910  173.2560  142.2070 C   0  0  1  0  0  3  0  0  0  0  0  0
  194.1340  174.3440  142.9820 C   0  0  2  0  0  3  0  0  0  0  0  0
  192.1700  176.7460  142.7280 O   0  0  0  0  0  0  0  0  0  0  0  0
  190.4370  175.0440  143.0070 C   0  0  0  0  0  0  0  0  0  0  0  0
  191.7970  175.5450  142.7770 C   0  0  0  0  0  0  0  0  0  0  0  0
  190.1560  172.8730  144.0310 O   0  0  0  0  0  0  0  0  0  0  0  0
  190.4720  173.5630  142.8300 C   0  0  2  0  0  3  0  0  0  0  0  0
  192.6750  174.3920  142.5830 C   0  0  2  0  0  3  0  0  0  0  0  0
  193.6980  170.7900  144.4910 O   0  0  0  0  0  0  0  0  0  0  0  0
  195.6480  172.4920  143.1170 O   0  0  0  0  0  0  0  0  0  0  0  0
  189.3270  175.6850  143.2800 N   0  0  0  0  0  0  0  0  0  0  0  0
  192.1890  172.1910  143.3930 N   0  0  0  0  0  0  0  0  0  0  0  0
  193.4810  171.5890  143.5390 C   0  0  0  0  0  0  0  0  0  0  0  0
  191.8950  173.3110  142.6220 C   0  0  1  0  0  3  0  0  0  0  0  0
  194.5610  171.8260  142.5180 C   0  0  1  0  0  3  0  0  0  0  0  0
  191.0750  171.8500  144.1720 N   0  0  0  0  0  2  0  0  0  0  0  0
  189.6470  177.6890  144.7490 C   0  0  0  0  0  2  0  0  0  0  0  0
  188.2280  177.1910  144.6950 C   0  0  2  0  0  3  0  0  0  0  0  0
  188.9950  177.0980  143.5300 C   0  0  2  0  0  0  0  0  0  0  0  0
  187.5580  177.4580  143.3800 N   0  0  0  0  0  0  0  0  0  0  0  0
  183.1300  178.5710  140.2230 F   0  0  0  0  0  0  0  0  0  0  0  0
  185.4630  178.1100  140.4330 C   0  0  0  0  0  3  0  0  0  0  0  0
  186.4110  177.7330  142.5830 C   0  0  0  0  0  0  0  0  0  0  0  0
  184.1990  178.2890  141.0050 C   0  0  0  0  0  0  0  0  0  0  0  0
  186.5340  177.8340  141.2280 N   0  0  0  0  0  0  0  0  0  0  0  0
  185.1650  177.9170  143.1900 C   0  0  0  0  0  3  0  0  0  0  0  0
  184.0530  178.1960  142.3920 C   0  0  0  0  0  3  0  0  0  0  0  0
  194.8310  175.6780  142.7450 C   0  0  0  0  0  2  0  0  0  0  0  0
  195.6300  176.0960  143.9700 C   0  0  2  0  0  3  0  0  0  0  0  0
  196.9680  175.7330  143.7920 O   0  0  0  0  0  1  0  0  0  0  0  0
  195.0580  175.4220  145.2120 C   0  0  1  0  0  3  0  0  0  0  0  0
  196.0440  174.6730  145.8520 O   0  0  0  0  0  1  0  0  0  0  0  0
  194.5460  176.4830  146.1730 C   0  0  0  0  0  2  0  0  0  0  0  0
  190.6000  175.5300  147.5730 C   0  0  0  0  0  3  0  0  0  0  0  0
  192.5200  175.0020  146.1790 C   0  0  0  0  0  3  0  0  0  0  0  0
  191.2330  174.6950  146.6400 C   0  0  0  0  0  3  0  0  0  0  0  0
  191.2500  176.6750  148.0410 C   0  0  0  0  0  3  0  0  0  0  0  0
  193.1750  176.1460  146.6510 C   0  0  0  0  0  0  0  0  0  0  0  0
  192.5360  176.9840  147.5790 C   0  0  0  0  0  3  0  0  0  0  0  0
  1 15  1  0  0  0  0
  1  2  1  0  0  0  0
  1 10  1  1  0  0  0
  2 28  1  6  0  0  0
  3  5  2  0  0  0  0
  4 11  2  0  0  0  0
  5  4  1  0  0  0  0
  6 16  1  0  0  0  0
  7  4  1  1  0  0  0
  7  6  1  0  0  0  0
  8 14  1  0  0  0  0
  8  5  1  1  0  0  0
  8  2  1  0  0  0  0
 12 13  1  0  0  0  0
 12 16  1  0  0  0  0
 13  9  2  0  0  0  0
 14  7  1  0  0  0  0
 14 12  1  1  0  0  0
 15 10  1  1  0  0  0
 15 13  1  0  0  0  0
 18 17  1  1  0  0  0
 19 11  1  6  0  0  0
 19 18  1  0  0  0  0
 19 17  1  0  0  0  0
 20 19  1  0  0  0  0
 20 18  1  0  0  0  0
 21 24  1  0  0  0  0
 22 24  2  0  0  0  0
 22 25  1  0  0  0  0
 23 26  1  0  0  0  0
 23 20  1  0  0  0  0
 24 27  1  0  0  0  0
 25 23  2  0  0  0  0
 27 26  2  0  0  0  0
 28 29  1  0  0  0  0
 29 30  1  6  0  0  0
 29 31  1  0  0  0  0
 31 32  1  1  0  0  0
 31 33  1  0  0  0  0
 33 38  1  0  0  0  0
 34 37  1  0  0  0  0
 35 36  1  0  0  0  0
 35 38  2  0  0  0  0
 36 34  2  0  0  0  0
 38 39  1  0  0  0  0
 39 37  2  0  0  0  0
M  END
>  <MODEL>
2

>  <REMARK>
 VINA RESULT:      -8.3      2.529      4.673
  Name = 
  7 active torsions:
  status: ('A' for Active; 'I' for Inactive)
    1  A    between atoms: C_4  and  C_36
    2  A    between atoms: C_6  and  C_18
    3  A    between atoms: C_6  and  C_36
    4  A    between atoms: C_17  and  N_39
    5  A    between atoms: C_18  and  C_32
    6  A    between atoms: N_22  and  C_23
    7  A    between atoms: C_32  and  C_35
                            x       y       z     vdW  Elec       q    Type
                         _______ _______ _______ _____ _____    ______ ____

>  <TORSDO>
F 7

$$$$
=
 OpenBabel11072409163D

 39 46  0  0  1  0  0  0  0  0999 V2000
  194.4720  174.7120  141.0380 C   0  0  1  0  0  3  0  0  0  0  0  0
  194.1230  174.9860  142.5080 C   0  0  2  0  0  3  0  0  0  0  0  0
  192.2060  176.5180  144.4240 O   0  0  0  0  0  0  0  0  0  0  0  0
  190.8220  174.5100  144.2490 C   0  0  0  0  0  0  0  0  0  0  0  0
  191.9210  175.4140  143.8910 C   0  0  0  0  0  0  0  0  0  0  0  0
  191.0800  172.1440  143.8270 O   0  0  0  0  0  0  0  0  0  0  0  0
  190.8050  173.4090  143.2420 C   0  0  2  0  0  3  0  0  0  0  0  0
  192.6410  174.8230  142.7630 C   0  0  2  0  0  3  0  0  0  0  0  0
  194.4910  171.2060  141.6870 O   0  0  0  0  0  0  0  0  0  0  0  0
  195.5750  173.8370  140.9860 O   0  0  0  0  0  0  0  0  0  0  0  0
  189.9410  174.5790  145.2170 N   0  0  0  0  0  0  0  0  0  0  0  0
  192.6200  172.4860  142.2410 N   0  0  0  0  0  0  0  0  0  0  0  0
  193.8510  172.2820  141.5360 C   0  0  0  0  0  0  0  0  0  0  0  0
  191.9860  173.7080  142.4370 C   0  0  1  0  0  3  0  0  0  0  0  0
  194.3480  173.3010  140.5470 C   0  0  1  0  0  3  0  0  0  0  0  0
  191.9850  171.4980  143.0060 N   0  0  0  0  0  2  0  0  0  0  0  0
  190.5300  175.1880  147.5750 C   0  0  0  0  0  2  0  0  0  0  0  0
  189.0820  174.8250  147.3800 C   0  0  2  0  0  3  0  0  0  0  0  0
  189.7280  175.5040  146.3420 C   0  0  2  0  0  0  0  0  0  0  0  0
  188.3100  175.8630  146.6210 N   0  0  0  0  0  0  0  0  0  0  0  0
  183.6770  178.6540  145.3760 F   0  0  0  0  0  0  0  0  0  0  0  0
  185.5830  177.3910  144.6910 C   0  0  0  0  0  3  0  0  0  0  0  0
  187.1140  176.5730  146.3180 C   0  0  0  0  0  0  0  0  0  0  0  0
  184.7990  177.9670  145.6960 C   0  0  0  0  0  0  0  0  0  0  0  0
  186.7140  176.7080  145.0220 N   0  0  0  0  0  0  0  0  0  0  0  0
  186.3600  177.1450  147.3490 C   0  0  0  0  0  3  0  0  0  0  0  0
  185.1950  177.8460  147.0300 C   0  0  0  0  0  3  0  0  0  0  0  0
  194.6100  176.3840  142.8660 C   0  0  0  0  0  2  0  0  0  0  0  0
  195.7100  176.3220  143.9150 C   0  0  2  0  0  3  0  0  0  0  0  0
  196.7880  177.1080  143.4980 O   0  0  0  0  0  1  0  0  0  0  0  0
  196.1530  174.8770  144.1120 C   0  0  1  0  0  3  0  0  0  0  0  0
  197.5050  174.7390  143.8030 O   0  0  0  0  0  1  0  0  0  0  0  0
  195.9380  174.4740  145.5630 C   0  0  0  0  0  2  0  0  0  0  0  0
  195.4380  170.2250  145.9140 C   0  0  0  0  0  3  0  0  0  0  0  0
  196.8690  172.1870  146.0100 C   0  0  0  0  0  3  0  0  0  0  0  0
  196.7000  170.8020  146.1250 C   0  0  0  0  0  3  0  0  0  0  0  0
  194.3470  171.0320  145.5830 C   0  0  0  0  0  3  0  0  0  0  0  0
  195.7750  172.9980  145.6840 C   0  0  0  0  0  0  0  0  0  0  0  0
  194.5150  172.4170  145.4660 C   0  0  0  0  0  3  0  0  0  0  0  0
  1 10  1  1  0  0  0
  1  2  1  0  0  0  0
  2  8  1  0  0  0  0
  2 28  1  6  0  0  0
  4 11  2  0  0  0  0
  5  4  1  0  0  0  0
  5  3  2  0  0  0  0
  7  6  1  1  0  0  0
  7  4  1  0  0  0  0
  8  5  1  1  0  0  0
 12 16  1  0  0  0  0
 13  9  2  0  0  0  0
 13 12  1  0  0  0  0
 14 12  1  1  0  0  0
 14  8  1  0  0  0  0
 14  7  1  0  0  0  0
 15 10  1  1  0  0  0
 15  1  1  0  0  0  0
 15 13  1  0  0  0  0
 16  6  1  0  0  0  0
 18 17  1  1  0  0  0
 19 11  1  6  0  0  0
 19 20  1  0  0  0  0
 19 18  1  0  0  0  0
 19 17  1  0  0  0  0
 20 18  1  0  0  0  0
 21 24  1  0  0  0  0
 22 25  2  0  0  0  0
 22 24  1  0  0  0  0
 23 20  1  0  0  0  0
 23 26  2  0  0  0  0
 24 27  2  0  0  0  0
 25 23  1  0  0  0  0
 27 26  1  0  0  0  0
 28 29  1  0  0  0  0
 29 30  1  6  0  0  0
 29 31  1  0  0  0  0
 31 32  1  1  0  0  0
 31 33  1  0  0  0  0
 33 38  1  0  0  0  0
 34 36  1  0  0  0  0
 35 36  2  0  0  0  0
 37 34  2  0  0  0  0
 38 35  1  0  0  0  0
 39 37  1  0  0  0  0
 39 38  2  0  0  0  0
M  END
>  <MODEL>
3

>  <REMARK>
 VINA RESULT:      -7.9      2.796      6.619
  Name = 
  7 active torsions:
  status: ('A' for Active; 'I' for Inactive)
    1  A    between atoms: C_4  and  C_36
    2  A    between atoms: C_6  and  C_18
    3  A    between atoms: C_6  and  C_36
    4  A    between atoms: C_17  and  N_39
    5  A    between atoms: C_18  and  C_32
    6  A    between atoms: N_22  and  C_23
    7  A    between atoms: C_32  and  C_35
                            x       y       z     vdW  Elec       q    Type
                         _______ _______ _______ _____ _____    ______ ____

>  <TORSDO>
F 7

$$$$
=
 OpenBabel11072409163D

 39 46  0  0  1  0  0  0  0  0999 V2000
  190.8260  170.2310  142.2510 C   0  0  1  0  0  3  0  0  0  0  0  0
  191.2000  171.7210  142.2720 C   0  0  2  0  0  3  0  0  0  0  0  0
  191.0280  174.3610  143.9110 O   0  0  0  0  0  0  0  0  0  0  0  0
  193.1350  173.6020  144.8940 C   0  0  0  0  0  0  0  0  0  0  0  0
  191.9020  173.4770  144.1060 C   0  0  0  0  0  0  0  0  0  0  0  0
  195.0320  172.2230  144.3080 O   0  0  0  0  0  0  0  0  0  0  0  0
  193.7660  172.2510  144.9510 C   0  0  2  0  0  3  0  0  0  0  0  0
  191.8350  172.1110  143.5880 C   0  0  2  0  0  3  0  0  0  0  0  0
  194.1900  169.3920  141.4140 O   0  0  0  0  0  0  0  0  0  0  0  0
  191.2940  169.6610  141.0510 O   0  0  0  0  0  0  0  0  0  0  0  0
  193.6550  174.6370  145.5060 N   0  0  0  0  0  0  0  0  0  0  0  0
  193.7460  170.6970  143.2980 N   0  0  0  0  0  0  0  0  0  0  0  0
  193.3450  169.7910  142.2620 C   0  0  0  0  0  0  0  0  0  0  0  0
  192.8930  171.4660  144.0820 C   0  0  1  0  0  3  0  0  0  0  0  0
  191.9470  169.2360  142.2240 C   0  0  1  0  0  3  0  0  0  0  0  0
  195.0730  171.0830  143.5280 N   0  0  0  0  0  2  0  0  0  0  0  0
  194.4160  176.9740  145.9920 C   0  0  0  0  0  2  0  0  0  0  0  0
  193.3680  176.4620  146.9420 C   0  0  2  0  0  3  0  0  0  0  0  0
  193.2860  176.0590  145.6060 C   0  0  2  0  0  0  0  0  0  0  0  0
  192.0090  176.3450  146.3160 N   0  0  0  0  0  0  0  0  0  0  0  0
  186.4640  176.3830  146.5450 F   0  0  0  0  0  0  0  0  0  0  0  0
  188.5540  175.3640  147.0870 C   0  0  0  0  0  3  0  0  0  0  0  0
  190.5880  176.3740  146.3750 C   0  0  0  0  0  0  0  0  0  0  0  0
  187.8170  176.3930  146.4900 C   0  0  0  0  0  0  0  0  0  0  0  0
  189.9140  175.3790  147.0200 N   0  0  0  0  0  0  0  0  0  0  0  0
  189.8830  177.4130  145.7580 C   0  0  0  0  0  3  0  0  0  0  0  0
  188.4870  177.4190  145.8190 C   0  0  0  0  0  3  0  0  0  0  0  0
  189.9450  172.5360  141.9840 C   0  0  0  0  0  2  0  0  0  0  0  0
  190.0850  173.2990  140.6750 C   0  0  2  0  0  3  0  0  0  0  0  0
  191.3610  173.8660  140.6080 O   0  0  0  0  0  1  0  0  0  0  0  0
  189.0170  174.3850  140.5970 C   0  0  1  0  0  3  0  0  0  0  0  0
  188.1620  174.1460  139.5230 O   0  0  0  0  0  1  0  0  0  0  0  0
  188.2030  174.3890  141.8810 C   0  0  0  0  0  2  0  0  0  0  0  0
  186.7460  178.3280  142.7720 C   0  0  0  0  0  3  0  0  0  0  0  0
  188.4670  176.8840  141.8440 C   0  0  0  0  0  3  0  0  0  0  0  0
  187.9860  178.1670  142.1350 C   0  0  0  0  0  3  0  0  0  0  0  0
  185.9900  177.2070  143.1220 C   0  0  0  0  0  3  0  0  0  0  0  0
  187.7070  175.7600  142.1890 C   0  0  0  0  0  0  0  0  0  0  0  0
  186.4700  175.9240  142.8330 C   0  0  0  0  0  3  0  0  0  0  0  0
  1 10  1  6  0  0  0
  1  2  1  0  0  0  0
  2 28  1  1  0  0  0
  2  8  1  0  0  0  0
  3  5  2  0  0  0  0
  4  7  1  0  0  0  0
  4 11  2  0  0  0  0
  5  4  1  0  0  0  0
  7  6  1  6  0  0  0
  8 14  1  0  0  0  0
  8  5  1  6  0  0  0
  9 13  2  0  0  0  0
 12 16  1  0  0  0  0
 13 12  1  0  0  0  0
 14 12  1  6  0  0  0
 14  7  1  0  0  0  0
 15 10  1  6  0  0  0
 15  1  1  0  0  0  0
 15 13  1  0  0  0  0
 16  6  1  0  0  0  0
 18 17  1  6  0  0  0
 19 11  1  6  0  0  0
 19 17  1  0  0  0  0
 19 20  1  0  0  0  0
 19 18  1  0  0  0  0
 20 23  1  0  0  0  0
 20 18  1  0  0  0  0
 23 25  2  0  0  0  0
 24 21  1  0  0  0  0
 24 22  2  0  0  0  0
 25 22  1  0  0  0  0
 26 27  2  0  0  0  0
 26 23  1  0  0  0  0
 27 24  1  0  0  0  0
 29 30  1  1  0  0  0
 29 28  1  0  0  0  0
 31 32  1  6  0  0  0
 31 29  1  0  0  0  0
 31 33  1  0  0  0  0
 33 38  1  0  0  0  0
 34 37  1  0  0  0  0
 35 36  1  0  0  0  0
 35 38  2  0  0  0  0
 36 34  2  0  0  0  0
 38 39  1  0  0  0  0
 39 37  2  0  0  0  0
M  END
>  <MODEL>
4

>  <REMARK>
 VINA RESULT:      -7.8      2.960      5.949
  Name = 
  7 active torsions:
  status: ('A' for Active; 'I' for Inactive)
    1  A    between atoms: C_4  and  C_36
    2  A    between atoms: C_6  and  C_18
    3  A    between atoms: C_6  and  C_36
    4  A    between atoms: C_17  and  N_39
    5  A    between atoms: C_18  and  C_32
    6  A    between atoms: N_22  and  C_23
    7  A    between atoms: C_32  and  C_35
                            x       y       z     vdW  Elec       q    Type
                         _______ _______ _______ _____ _____    ______ ____

>  <TORSDO>
F 7

$$$$
=
 OpenBabel11072409163D

 39 46  0  0  1  0  0  0  0  0999 V2000
  192.9850  176.7960  145.5050 C   0  0  1  0  0  3  0  0  0  0  0  0
  192.2170  175.5730  144.9820 C   0  0  2  0  0  3  0  0  0  0  0  0
  190.1560  174.5770  142.8730 O   0  0  0  0  0  0  0  0  0  0  0  0
  192.1300  174.1980  141.4810 C   0  0  0  0  0  0  0  0  0  0  0  0
  191.3840  174.7150  142.6340 C   0  0  0  0  0  0  0  0  0  0  0  0
  194.4850  173.7190  141.7410 O   0  0  0  0  0  0  0  0  0  0  0  0
  193.5170  174.7430  141.5670 C   0  0  2  0  0  3  0  0  0  0  0  0
  192.3170  175.4620  143.4760 C   0  0  2  0  0  3  0  0  0  0  0  0
  196.0320  174.9490  145.3730 O   0  0  0  0  0  0  0  0  0  0  0  0
  193.7930  176.3990  146.5880 O   0  0  0  0  0  0  0  0  0  0  0  0
  191.7450  173.4330  140.4880 N   0  0  0  0  0  0  0  0  0  0  0  0
  194.6870  175.1200  143.4730 N   0  0  0  0  0  0  0  0  0  0  0  0
  195.0960  175.5500  144.7780 C   0  0  0  0  0  0  0  0  0  0  0  0
  193.4920  175.4500  142.8450 C   0  0  1  0  0  3  0  0  0  0  0  0
  194.4810  176.7670  145.4140 C   0  0  1  0  0  3  0  0  0  0  0  0
  195.3570  174.1390  142.7290 N   0  0  0  0  0  2  0  0  0  0  0  0
  190.4430  171.2940  140.5510 C   0  0  0  0  0  2  0  0  0  0  0  0
  190.7340  171.7930  139.1610 C   0  0  2  0  0  3  0  0  0  0  0  0
  190.4870  172.7440  140.1550 C   0  0  2  0  0  0  0  0  0  0  0  0
  189.9450  173.0150  138.7950 N   0  0  0  0  0  0  0  0  0  0  0  0
  187.4260  176.3010  135.0990 F   0  0  0  0  0  0  0  0  0  0  0  0
  189.2400  174.8720  135.7050 C   0  0  0  0  0  3  0  0  0  0  0  0
  189.2820  173.8520  137.8540 C   0  0  0  0  0  0  0  0  0  0  0  0
  188.0230  175.4930  136.0070 C   0  0  0  0  0  0  0  0  0  0  0  0
  189.8370  174.0680  136.6280 N   0  0  0  0  0  0  0  0  0  0  0  0
  188.0720  174.4650  138.1950 C   0  0  0  0  0  3  0  0  0  0  0  0
  187.4410  175.2910  137.2610 C   0  0  0  0  0  3  0  0  0  0  0  0
  190.7710  175.6770  145.4480 C   0  0  0  0  0  2  0  0  0  0  0  0
  190.4340  177.1030  145.8560 C   0  0  2  0  0  3  0  0  0  0  0  0
  190.0220  177.1140  147.1920 O   0  0  0  0  0  1  0  0  0  0  0  0
  189.3310  177.6500  144.9560 C   0  0  1  0  0  3  0  0  0  0  0  0
  189.8110  177.8320  143.6600 O   0  0  0  0  0  1  0  0  0  0  0  0
  188.1740  176.6640  144.9180 C   0  0  0  0  0  2  0  0  0  0  0  0
  184.4590  178.5990  145.8580 C   0  0  0  0  0  3  0  0  0  0  0  0
  186.5310  178.5320  144.5900 C   0  0  0  0  0  3  0  0  0  0  0  0
  185.3170  179.1580  144.8990 C   0  0  0  0  0  3  0  0  0  0  0  0
  184.8170  177.4170  146.5120 C   0  0  0  0  0  3  0  0  0  0  0  0
  186.8880  177.3440  145.2400 C   0  0  0  0  0  0  0  0  0  0  0  0
  186.0310  176.7910  146.2050 C   0  0  0  0  0  3  0  0  0  0  0  0
  1 10  1  1  0  0  0
  2 28  1  6  0  0  0
  2  1  1  0  0  0  0
  4  5  1  0  0  0  0
  5  3  2  0  0  0  0
  6 16  1  0  0  0  0
  7  4  1  1  0  0  0
  7  6  1  0  0  0  0
  7 14  1  0  0  0  0
  8  5  1  1  0  0  0
  8  2  1  0  0  0  0
 11  4  2  0  0  0  0
 12 13  1  0  0  0  0
 13  9  2  0  0  0  0
 14 12  1  1  0  0  0
 14  8  1  0  0  0  0
 15 13  1  6  0  0  0
 15  1  1  0  0  0  0
 15 10  1  0  0  0  0
 16 12  1  0  0  0  0
 18 19  1  0  0  0  0
 18 17  1  1  0  0  0
 19 11  1  1  0  0  0
 19 17  1  0  0  0  0
 20 18  1  0  0  0  0
 20 19  1  0  0  0  0
 21 24  1  0  0  0  0
 22 24  2  0  0  0  0
 22 25  1  0  0  0  0
 23 26  1  0  0  0  0
 23 20  1  0  0  0  0
 24 27  1  0  0  0  0
 25 23  2  0  0  0  0
 27 26  2  0  0  0  0
 28 29  1  0  0  0  0
 29 30  1  1  0  0  0
 31 32  1  6  0  0  0
 31 29  1  0  0  0  0
 33 31  1  0  0  0  0
 33 38  1  0  0  0  0
 34 37  1  0  0  0  0
 35 36  1  0  0  0  0
 35 38  2  0  0  0  0
 36 34  2  0  0  0  0
 38 39  1  0  0  0  0
 39 37  2  0  0  0  0
M  END
>  <MODEL>
5

>  <REMARK>
 VINA RESULT:      -7.6      2.217      2.878
  Name = 
  7 active torsions:
  status: ('A' for Active; 'I' for Inactive)
    1  A    between atoms: C_4  and  C_36
    2  A    between atoms: C_6  and  C_18
    3  A    between atoms: C_6  and  C_36
    4  A    between atoms: C_17  and  N_39
    5  A    between atoms: C_18  and  C_32
    6  A    between atoms: N_22  and  C_23
    7  A    between atoms: C_32  and  C_35
                            x       y       z     vdW  Elec       q    Type
                         _______ _______ _______ _____ _____    ______ ____

>  <TORSDO>
F 7

$$$$
=
 OpenBabel11072409163D

 39 46  0  0  1  0  0  0  0  0999 V2000
  188.7250  174.1180  139.2230 C   0  0  1  0  0  3  0  0  0  0  0  0
  187.8100  174.1280  140.4560 C   0  0  2  0  0  3  0  0  0  0  0  0
  187.6180  174.8680  143.4730 O   0  0  0  0  0  0  0  0  0  0  0  0
  186.8730  177.0440  142.6410 C   0  0  0  0  0  0  0  0  0  0  0  0
  187.4490  175.6970  142.5410 C   0  0  0  0  0  0  0  0  0  0  0  0
  185.7620  177.9780  140.7080 O   0  0  0  0  0  0  0  0  0  0  0  0
  187.0190  177.6910  141.3040 C   0  0  2  0  0  3  0  0  0  0  0  0
  187.8310  175.4730  141.1480 C   0  0  2  0  0  3  0  0  0  0  0  0
  186.1600  175.6760  137.2970 O   0  0  0  0  0  0  0  0  0  0  0  0
  188.0190  173.5700  138.1340 O   0  0  0  0  0  0  0  0  0  0  0  0
  186.3440  177.6720  143.6620 N   0  0  0  0  0  0  0  0  0  0  0  0
  186.8750  176.6490  139.2940 N   0  0  0  0  0  0  0  0  0  0  0  0
  187.0450  175.7470  138.1930 C   0  0  0  0  0  0  0  0  0  0  0  0
  187.5730  176.6070  140.4960 C   0  0  1  0  0  3  0  0  0  0  0  0
  188.3090  174.9460  138.0440 C   0  0  1  0  0  3  0  0  0  0  0  0
  185.8330  177.5820  139.3860 N   0  0  0  0  0  2  0  0  0  0  0  0
  184.8110  177.9270  145.6280 C   0  0  0  0  0  2  0  0  0  0  0  0
  186.2120  178.4160  145.8770 C   0  0  2  0  0  3  0  0  0  0  0  0
  186.0510  177.2960  145.0560 C   0  0  2  0  0  0  0  0  0  0  0  0
  187.2160  177.3060  145.9840 N   0  0  0  0  0  0  0  0  0  0  0  0
  191.9380  175.1530  147.9500 F   0  0  0  0  0  0  0  0  0  0  0  0
  190.5290  177.0380  147.5460 C   0  0  0  0  0  3  0  0  0  0  0  0
  188.4170  176.7380  146.4930 C   0  0  0  0  0  0  0  0  0  0  0  0
  190.7770  175.6620  147.4760 C   0  0  0  0  0  0  0  0  0  0  0  0
  189.3610  177.5410  147.0600 N   0  0  0  0  0  0  0  0  0  0  0  0
  188.6350  175.3590  146.3960 C   0  0  0  0  0  3  0  0  0  0  0  0
  189.8250  174.8220  146.8930 C   0  0  0  0  0  3  0  0  0  0  0  0
  188.2450  173.0040  141.3870 C   0  0  0  0  0  2  0  0  0  0  0  0
  189.7570  172.8320  141.3590 C   0  0  2  0  0  3  0  0  0  0  0  0
  190.0640  171.5480  140.9010 O   0  0  0  0  0  1  0  0  0  0  0  0
  190.3250  173.0460  142.7580 C   0  0  1  0  0  3  0  0  0  0  0  0
  190.3540  171.8410  143.4580 O   0  0  0  0  0  1  0  0  0  0  0  0
  191.7420  173.5860  142.6520 C   0  0  0  0  0  2  0  0  0  0  0  0
  191.9800  177.5480  144.2860 C   0  0  0  0  0  3  0  0  0  0  0  0
  192.8410  175.2800  144.1410 C   0  0  0  0  0  3  0  0  0  0  0  0
  192.9150  176.5750  144.6700 C   0  0  0  0  0  3  0  0  0  0  0  0
  190.9680  177.2260  143.3780 C   0  0  0  0  0  3  0  0  0  0  0  0
  191.8310  174.9580  143.2270 C   0  0  0  0  0  0  0  0  0  0  0  0
  190.8920  175.9320  142.8500 C   0  0  0  0  0  3  0  0  0  0  0  0
  1 10  1  6  0  0  0
  1  2  1  0  0  0  0
  2  8  1  0  0  0  0
  2 28  1  1  0  0  0
  4 11  2  0  0  0  0
  5  4  1  0  0  0  0
  5  3  2  0  0  0  0
  7  6  1  6  0  0  0
  7  4  1  0  0  0  0
  8  5  1  1  0  0  0
  9 13  2  0  0  0  0
 12 16  1  0  0  0  0
 13 12  1  0  0  0  0
 14 12  1  6  0  0  0
 14  8  1  0  0  0  0
 14  7  1  0  0  0  0
 15 10  1  6  0  0  0
 15 13  1  0  0  0  0
 15  1  1  0  0  0  0
 16  6  1  0  0  0  0
 18 17  1  1  0  0  0
 18 20  1  0  0  0  0
 19 11  1  6  0  0  0
 19 17  1  0  0  0  0
 19 18  1  0  0  0  0
 19 20  1  0  0  0  0
 20 23  1  0  0  0  0
 23 25  1  0  0  0  0
 24 22  1  0  0  0  0
 24 21  1  0  0  0  0
 25 22  2  0  0  0  0
 26 23  2  0  0  0  0
 26 27  1  0  0  0  0
 27 24  2  0  0  0  0
 29 30  1  1  0  0  0
 29 28  1  0  0  0  0
 29 31  1  0  0  0  0
 31 32  1  6  0  0  0
 33 31  1  0  0  0  0
 33 38  1  0  0  0  0
 34 36  1  0  0  0  0
 35 36  2  0  0  0  0
 37 34  2  0  0  0  0
 38 35  1  0  0  0  0
 39 38  2  0  0  0  0
 39 37  1  0  0  0  0
M  END
>  <MODEL>
6

>  <REMARK>
 VINA RESULT:      -7.4      3.407      7.580
  Name = 
  7 active torsions:
  status: ('A' for Active; 'I' for Inactive)
    1  A    between atoms: C_4  and  C_36
    2  A    between atoms: C_6  and  C_18
    3  A    between atoms: C_6  and  C_36
    4  A    between atoms: C_17  and  N_39
    5  A    between atoms: C_18  and  C_32
    6  A    between atoms: N_22  and  C_23
    7  A    between atoms: C_32  and  C_35
                            x       y       z     vdW  Elec       q    Type
                         _______ _______ _______ _____ _____    ______ ____

>  <TORSDO>
F 7

$$$$
=
 OpenBabel11072409163D

 39 46  0  0  1  0  0  0  0  0999 V2000
  191.1240  171.3140  141.1490 C   0  0  1  0  0  3  0  0  0  0  0  0
  189.8560  171.9420  141.7450 C   0  0  2  0  0  3  0  0  0  0  0  0
  188.6800  174.4690  143.1300 O   0  0  0  0  0  0  0  0  0  0  0  0
  188.2290  175.2130  140.8440 C   0  0  0  0  0  0  0  0  0  0  0  0
  188.8180  174.3590  141.8840 C   0  0  0  0  0  0  0  0  0  0  0  0
  187.8040  174.2610  138.6640 O   0  0  0  0  0  0  0  0  0  0  0  0
  188.7990  174.7780  139.5360 C   0  0  2  0  0  3  0  0  0  0  0  0
  189.6370  173.3440  141.2230 C   0  0  2  0  0  3  0  0  0  0  0  0
  189.3170  170.4400  138.2020 O   0  0  0  0  0  0  0  0  0  0  0  0
  190.8180  170.0200  140.6830 O   0  0  0  0  0  0  0  0  0  0  0  0
  187.3890  176.2140  140.9380 N   0  0  0  0  0  0  0  0  0  0  0  0
  189.3300  172.6510  138.9510 N   0  0  0  0  0  0  0  0  0  0  0  0
  189.8590  171.3190  138.9270 C   0  0  0  0  0  0  0  0  0  0  0  0
  189.5960  173.6150  139.9170 C   0  0  1  0  0  3  0  0  0  0  0  0
  191.1100  170.9740  139.6890 C   0  0  1  0  0  3  0  0  0  0  0  0
  188.3070  173.1010  138.1050 N   0  0  0  0  0  2  0  0  0  0  0  0
  185.4820  177.6780  141.6420 C   0  0  0  0  0  2  0  0  0  0  0  0
  186.8370  178.2250  142.0010 C   0  0  2  0  0  3  0  0  0  0  0  0
  186.6600  176.8390  142.0540 C   0  0  2  0  0  0  0  0  0  0  0  0
  187.5070  177.4640  143.1070 N   0  0  0  0  0  0  0  0  0  0  0  0
  190.8340  177.1640  147.5400 F   0  0  0  0  0  0  0  0  0  0  0  0
  188.6460  177.1330  146.5840 C   0  0  0  0  0  3  0  0  0  0  0  0
  188.3730  177.3780  144.2330 C   0  0  0  0  0  0  0  0  0  0  0  0
  190.0360  177.2280  146.4480 C   0  0  0  0  0  0  0  0  0  0  0  0
  187.8510  177.2060  145.4810 N   0  0  0  0  0  0  0  0  0  0  0  0
  189.7570  177.4880  144.0600 C   0  0  0  0  0  3  0  0  0  0  0  0
  190.5910  177.4110  145.1790 C   0  0  0  0  0  3  0  0  0  0  0  0
  189.9720  171.9130  143.2640 C   0  0  0  0  0  2  0  0  0  0  0  0
  191.4180  172.0970  143.6990 C   0  0  2  0  0  3  0  0  0  0  0  0
  191.8160  170.9860  144.4490 O   0  0  0  0  0  1  0  0  0  0  0  0
  191.5480  173.3700  144.5280 C   0  0  1  0  0  3  0  0  0  0  0  0
  190.4800  173.4800  145.4170 O   0  0  0  0  0  1  0  0  0  0  0  0
  192.8450  173.3280  145.3210 C   0  0  0  0  0  2  0  0  0  0  0  0
  194.7200  177.1900  145.3840 C   0  0  0  0  0  3  0  0  0  0  0  0
  193.4530  175.4510  146.5130 C   0  0  0  0  0  3  0  0  0  0  0  0
  194.0680  176.7090  146.5290 C   0  0  0  0  0  3  0  0  0  0  0  0
  194.7530  176.4160  144.2210 C   0  0  0  0  0  3  0  0  0  0  0  0
  193.4900  174.6710  145.3510 C   0  0  0  0  0  0  0  0  0  0  0  0
  194.1370  175.1580  144.2040 C   0  0  0  0  0  3  0  0  0  0  0  0
  1 10  1  1  0  0  0
  1  2  1  0  0  0  0
  2 28  1  1  0  0  0
  4 11  2  0  0  0  0
  4  5  1  0  0  0  0
  5  3  2  0  0  0  0
  7  6  1  6  0  0  0
  7 14  1  0  0  0  0
  7  4  1  0  0  0  0
  8  2  1  0  0  0  0
  8  5  1  6  0  0  0
  9 13  2  0  0  0  0
 13 12  1  0  0  0  0
 14 12  1  6  0  0  0
 14  8  1  0  0  0  0
 15 13  1  6  0  0  0
 15 10  1  0  0  0  0
 15  1  1  0  0  0  0
 16  6  1  0  0  0  0
 16 12  1  0  0  0  0
 17 19  1  0  0  0  0
 18 17  1  1  0  0  0
 18 19  1  0  0  0  0
 18 20  1  0  0  0  0
 19 11  1  6  0  0  0
 19 20  1  0  0  0  0
 20 23  1  0  0  0  0
 23 25  1  0  0  0  0
 24 22  1  0  0  0  0
 24 21  1  0  0  0  0
 25 22  2  0  0  0  0
 26 23  2  0  0  0  0
 26 27  1  0  0  0  0
 27 24  2  0  0  0  0
 28 29  1  0  0  0  0
 29 30  1  1  0  0  0
 29 31  1  0  0  0  0
 31 33  1  0  0  0  0
 31 32  1  1  0  0  0
 33 38  1  0  0  0  0
 34 36  1  0  0  0  0
 35 36  2  0  0  0  0
 37 34  2  0  0  0  0
 38 35  1  0  0  0  0
 39 37  1  0  0  0  0
 39 38  2  0  0  0  0
M  END
>  <MODEL>
7

>  <REMARK>
 VINA RESULT:      -7.4      3.153      6.531
  Name = 
  7 active torsions:
  status: ('A' for Active; 'I' for Inactive)
    1  A    between atoms: C_4  and  C_36
    2  A    between atoms: C_6  and  C_18
    3  A    between atoms: C_6  and  C_36
    4  A    between atoms: C_17  and  N_39
    5  A    between atoms: C_18  and  C_32
    6  A    between atoms: N_22  and  C_23
    7  A    between atoms: C_32  and  C_35
                            x       y       z     vdW  Elec       q    Type
                         _______ _______ _______ _____ _____    ______ ____

>  <TORSDO>
F 7

$$$$
=
 OpenBabel11072409163D

 39 46  0  0  1  0  0  0  0  0999 V2000
  193.1000  174.0100  140.0230 C   0  0  1  0  0  3  0  0  0  0  0  0
  193.0400  174.4810  141.4830 C   0  0  2  0  0  3  0  0  0  0  0  0
  191.5200  176.2890  143.5100 O   0  0  0  0  0  0  0  0  0  0  0  0
  190.1380  174.3050  143.8720 C   0  0  0  0  0  0  0  0  0  0  0  0
  191.1430  175.1310  143.1930 C   0  0  0  0  0  0  0  0  0  0  0  0
  190.3220  171.8990  143.7250 O   0  0  0  0  0  0  0  0  0  0  0  0
  189.9330  173.0820  143.0420 C   0  0  2  0  0  3  0  0  0  0  0  0
  191.6350  174.3840  142.0360 C   0  0  2  0  0  3  0  0  0  0  0  0
  193.2620  170.6190  141.1150 O   0  0  0  0  0  0  0  0  0  0  0  0
  194.1760  173.1130  139.8760 O   0  0  0  0  0  0  0  0  0  0  0  0
  189.4610  174.5180  144.9730 N   0  0  0  0  0  0  0  0  0  0  0  0
  191.5260  171.9990  141.8430 N   0  0  0  0  0  0  0  0  0  0  0  0
  192.5990  171.6800  140.9480 C   0  0  0  0  0  0  0  0  0  0  0  0
  190.9360  173.2490  141.9930 C   0  0  1  0  0  3  0  0  0  0  0  0
  192.8910  172.5500  139.7560 C   0  0  1  0  0  3  0  0  0  0  0  0
  191.0560  171.1330  142.8390 N   0  0  0  0  0  2  0  0  0  0  0  0
  190.0380  175.1880  147.3170 C   0  0  0  0  0  2  0  0  0  0  0  0
  188.5670  175.2550  147.0060 C   0  0  2  0  0  3  0  0  0  0  0  0
  189.4630  175.5870  145.9860 C   0  0  2  0  0  0  0  0  0  0  0  0
  188.2090  176.3840  146.0850 N   0  0  0  0  0  0  0  0  0  0  0  0
  184.6770  180.2510  144.2500 F   0  0  0  0  0  0  0  0  0  0  0  0
  185.6650  179.0330  146.0490 C   0  0  0  0  0  3  0  0  0  0  0  0
  187.3160  177.3800  145.6000 C   0  0  0  0  0  0  0  0  0  0  0  0
  185.5510  179.3120  144.6830 C   0  0  0  0  0  0  0  0  0  0  0  0
  186.5410  178.0810  146.4750 N   0  0  0  0  0  0  0  0  0  0  0  0
  187.2210  177.6250  144.2260 C   0  0  0  0  0  3  0  0  0  0  0  0
  186.3310  178.6000  143.7690 C   0  0  0  0  0  3  0  0  0  0  0  0
  193.5790  175.9040  141.5530 C   0  0  0  0  0  2  0  0  0  0  0  0
  195.0860  175.9020  141.7590 C   0  0  2  0  0  3  0  0  0  0  0  0
  195.7210  175.9350  140.5140 O   0  0  0  0  0  1  0  0  0  0  0  0
  195.4990  174.6540  142.5320 C   0  0  1  0  0  3  0  0  0  0  0  0
  196.3880  173.8910  141.7780 O   0  0  0  0  0  1  0  0  0  0  0  0
  196.1800  175.0630  143.8280 C   0  0  0  0  0  2  0  0  0  0  0  0
  193.2670  176.2330  146.7570 C   0  0  0  0  0  3  0  0  0  0  0  0
  195.1510  176.7920  145.3270 C   0  0  0  0  0  3  0  0  0  0  0  0
  194.1970  177.1690  146.2810 C   0  0  0  0  0  3  0  0  0  0  0  0
  193.2930  174.9190  146.2830 C   0  0  0  0  0  3  0  0  0  0  0  0
  195.1740  175.4780  144.8470 C   0  0  0  0  0  0  0  0  0  0  0  0
  194.2470  174.5410  145.3300 C   0  0  0  0  0  3  0  0  0  0  0  0
  1 10  1  1  0  0  0
  1  2  1  0  0  0  0
  2 28  1  6  0  0  0
  2  8  1  0  0  0  0
  4 11  2  0  0  0  0
  5  3  2  0  0  0  0
  5  4  1  0  0  0  0
  7  6  1  1  0  0  0
  7  4  1  0  0  0  0
  8  5  1  1  0  0  0
 12 16  1  0  0  0  0
 13  9  2  0  0  0  0
 13 12  1  0  0  0  0
 14 12  1  1  0  0  0
 14  8  1  0  0  0  0
 14  7  1  0  0  0  0
 15 10  1  1  0  0  0
 15  1  1  0  0  0  0
 15 13  1  0  0  0  0
 16  6  1  0  0  0  0
 18 17  1  1  0  0  0
 19 11  1  6  0  0  0
 19 20  1  0  0  0  0
 19 18  1  0  0  0  0
 19 17  1  0  0  0  0
 20 18  1  0  0  0  0
 21 24  1  0  0  0  0
 22 25  1  0  0  0  0
 23 20  1  0  0  0  0
 23 25  2  0  0  0  0
 24 22  2  0  0  0  0
 26 23  1  0  0  0  0
 27 26  2  0  0  0  0
 27 24  1  0  0  0  0
 28 29  1  0  0  0  0
 29 30  1  6  0  0  0
 29 31  1  0  0  0  0
 31 32  1  6  0  0  0
 31 33  1  0  0  0  0
 33 38  1  0  0  0  0
 35 36  1  0  0  0  0
 36 34  2  0  0  0  0
 37 34  1  0  0  0  0
 38 35  2  0  0  0  0
 38 39  1  0  0  0  0
 39 37  2  0  0  0  0
M  END
>  <MODEL>
8

>  <REMARK>
 VINA RESULT:      -7.3      2.645      6.158
  Name = 
  7 active torsions:
  status: ('A' for Active; 'I' for Inactive)
    1  A    between atoms: C_4  and  C_36
    2  A    between atoms: C_6  and  C_18
    3  A    between atoms: C_6  and  C_36
    4  A    between atoms: C_17  and  N_39
    5  A    between atoms: C_18  and  C_32
    6  A    between atoms: N_22  and  C_23
    7  A    between atoms: C_32  and  C_35
                            x       y       z     vdW  Elec       q    Type
                         _______ _______ _______ _____ _____    ______ ____

>  <TORSDO>
F 7

$$$$
=
 OpenBabel11072409163D

 39 46  0  0  1  0  0  0  0  0999 V2000
  186.9290  177.4100  140.2560 C   0  0  1  0  0  3  0  0  0  0  0  0
  187.3270  176.3230  141.2660 C   0  0  2  0  0  3  0  0  0  0  0  0
  189.5810  175.3160  143.1610 O   0  0  0  0  0  0  0  0  0  0  0  0
  188.4980  176.7560  144.8150 C   0  0  0  0  0  0  0  0  0  0  0  0
  188.7580  176.2150  143.4750 C   0  0  0  0  0  0  0  0  0  0  0  0
  186.3070  177.6550  145.3000 O   0  0  0  0  0  0  0  0  0  0  0  0
  187.5510  177.8980  144.6590 C   0  0  2  0  0  3  0  0  0  0  0  0
  187.9010  176.9270  142.5280 C   0  0  2  0  0  3  0  0  0  0  0  0
  183.8490  177.9000  141.9840 O   0  0  0  0  0  0  0  0  0  0  0  0
  185.6290  177.1410  139.7840 O   0  0  0  0  0  0  0  0  0  0  0  0
  188.9790  176.4070  145.9840 N   0  0  0  0  0  0  0  0  0  0  0  0
  185.8720  178.0420  143.1400 N   0  0  0  0  0  0  0  0  0  0  0  0
  185.1020  178.0370  141.9310 C   0  0  0  0  0  0  0  0  0  0  0  0
  187.2460  177.8530  143.2310 C   0  0  1  0  0  3  0  0  0  0  0  0
  185.7590  178.2820  140.6000 C   0  0  1  0  0  3  0  0  0  0  0  0
  185.3100  178.0400  144.4240 N   0  0  0  0  0  2  0  0  0  0  0  0
  189.4070  174.5940  147.6580 C   0  0  0  0  0  2  0  0  0  0  0  0
  190.4290  175.6980  147.6780 C   0  0  2  0  0  3  0  0  0  0  0  0
  189.8830  175.3390  146.4420 C   0  0  2  0  0  0  0  0  0  0  0  0
  191.3290  175.6910  146.4780 N   0  0  0  0  0  0  0  0  0  0  0  0
  196.1930  176.7150  144.0070 F   0  0  0  0  0  0  0  0  0  0  0  0
  194.7200  176.9660  145.8690 C   0  0  0  0  0  3  0  0  0  0  0  0
  192.5760  175.9360  145.8360 C   0  0  0  0  0  0  0  0  0  0  0  0
  195.0060  176.4470  144.6020 C   0  0  0  0  0  0  0  0  0  0  0  0
  193.5210  176.6980  146.4560 N   0  0  0  0  0  0  0  0  0  0  0  0
  192.8230  175.4090  144.5630 C   0  0  0  0  0  3  0  0  0  0  0  0
  194.0480  175.6690  143.9460 C   0  0  0  0  0  3  0  0  0  0  0  0
  188.3110  175.3760  140.5920 C   0  0  0  0  0  2  0  0  0  0  0  0
  187.7230  173.9770  140.4760 C   0  0  2  0  0  3  0  0  0  0  0  0
  187.5590  173.4410  141.7560 O   0  0  0  0  0  1  0  0  0  0  0  0
  188.6510  173.0960  139.6470 C   0  0  1  0  0  3  0  0  0  0  0  0
  188.3350  173.2010  138.2930 O   0  0  0  0  0  1  0  0  0  0  0  0
  190.0900  173.5420  139.8510 C   0  0  0  0  0  2  0  0  0  0  0  0
  192.1380  170.9640  142.6060 C   0  0  0  0  0  3  0  0  0  0  0  0
  190.3950  171.3060  140.9480 C   0  0  0  0  0  3  0  0  0  0  0  0
  191.0680  170.4690  141.8470 C   0  0  0  0  0  3  0  0  0  0  0  0
  192.5330  172.2980  142.4710 C   0  0  0  0  0  3  0  0  0  0  0  0
  190.7930  172.6410  140.8070 C   0  0  0  0  0  0  0  0  0  0  0  0
  191.8600  173.1360  141.5740 C   0  0  0  0  0  3  0  0  0  0  0  0
  1 10  1  6  0  0  0
  1 15  1  0  0  0  0
  1  2  1  0  0  0  0
  2 28  1  6  0  0  0
  2  8  1  0  0  0  0
  3  5  2  0  0  0  0
  4 11  2  0  0  0  0
  5  4  1  0  0  0  0
  7  4  1  6  0  0  0
  7  6  1  0  0  0  0
  8 14  1  0  0  0  0
  8  5  1  1  0  0  0
 12 16  1  0  0  0  0
 13  9  2  0  0  0  0
 13 12  1  0  0  0  0
 14 12  1  1  0  0  0
 14  7  1  0  0  0  0
 15 10  1  6  0  0  0
 15 13  1  0  0  0  0
 16  6  1  0  0  0  0
 18 17  1  1  0  0  0
 19 11  1  6  0  0  0
 19 20  1  0  0  0  0
 19 17  1  0  0  0  0
 19 18  1  0  0  0  0
 20 18  1  0  0  0  0
 21 24  1  0  0  0  0
 22 25  1  0  0  0  0
 23 25  2  0  0  0  0
 23 20  1  0  0  0  0
 24 22  2  0  0  0  0
 26 23  1  0  0  0  0
 27 26  2  0  0  0  0
 27 24  1  0  0  0  0
 29 28  1  0  0  0  0
 29 30  1  1  0  0  0
 31 32  1  6  0  0  0
 31 33  1  0  0  0  0
 31 29  1  0  0  0  0
 33 38  1  0  0  0  0
 35 36  1  0  0  0  0
 36 34  2  0  0  0  0
 37 34  1  0  0  0  0
 38 35  2  0  0  0  0
 38 39  1  0  0  0  0
 39 37  2  0  0  0  0
M  END
>  <MODEL>
9

>  <REMARK>
 VINA RESULT:      -7.2      3.521      8.499
  Name = 
  7 active torsions:
  status: ('A' for Active; 'I' for Inactive)
    1  A    between atoms: C_4  and  C_36
    2  A    between atoms: C_6  and  C_18
    3  A    between atoms: C_6  and  C_36
    4  A    between atoms: C_17  and  N_39
    5  A    between atoms: C_18  and  C_32
    6  A    between atoms: N_22  and  C_23
    7  A    between atoms: C_32  and  C_35
                            x       y       z     vdW  Elec       q    Type
                         _______ _______ _______ _____ _____    ______ ____

>  <TORSDO>
F 7

$$$$
