=
 OpenBabel11062422103D

 27 28  0  0  1  0  0  0  0  0999 V2000
  187.3330  176.5040  143.5170 C   0  0  1  0  0  3  0  0  0  0  0  0
  186.9050  176.4280  142.1260 N   0  0  0  0  0  0  0  0  0  0  0  0
  186.8760  177.0720  139.8660 N   0  0  0  0  0  1  0  0  0  0  0  0
  188.2950  178.2440  141.4980 N   0  0  0  0  0  1  0  0  0  0  0  0
  187.3510  177.2190  141.1990 C   0  0  0  0  0  0  0  0  0  0  0  0
  186.2440  176.2340  144.3530 O   0  0  0  0  0  0  0  0  0  0  0  0
  185.7470  177.1380  146.5040 C   0  0  0  0  0  2  0  0  0  0  0  0
  184.7700  178.1070  144.5330 C   0  0  1  0  0  3  0  0  0  0  0  0
  184.1260  178.7740  145.7350 C   0  0  0  0  0  2  0  0  0  0  0  0
  185.2010  179.3290  143.3150 Cl  0  0  0  0  0  0  0  0  0  0  0  0
  184.8420  178.2600  146.9740 C   0  0  2  0  0  3  0  0  0  0  0  0
  186.0210  177.4270  145.0460 C   0  0  2  0  0  3  0  0  0  0  0  0
  185.6180  179.2860  147.5190 O   0  0  0  0  0  0  0  0  0  0  0  0
  186.6830  178.6360  148.1450 C   0  0  0  0  0  1  0  0  0  0  0  0
  188.4510  175.5000  143.7740 C   0  0  0  0  0  2  0  0  0  0  0  0
  189.6230  176.1690  144.4170 C   0  0  0  0  0  0  0  0  0  0  0  0
  190.4920  176.7040  143.6810 O   0  0  0  0  0  0  0  0  0  0  0  0
  189.7590  176.1890  145.8910 C   0  0  0  0  0  0  0  0  0  0  0  0
  188.9310  175.5420  146.5860 O   0  0  0  0  0  0  0  0  0  0  0  0
  190.7700  176.8950  146.5520 O   0  0  0  0  0  0  0  0  0  0  0  0
  191.8050  176.2760  147.3050 C   0  0  0  0  0  2  0  0  0  0  0  0
  192.6790  175.4350  146.3910 C   0  0  0  0  0  2  0  0  0  0  0  0
  195.2150  176.3330  144.8260 C   0  0  0  0  0  0  0  0  0  0  0  0
  194.3620  177.0900  145.7910 C   0  0  0  0  0  2  0  0  0  0  0  0
  195.8830  176.6290  143.8020 O   0  0  0  0  0  0  0  0  0  0  0  0
  194.9420  175.0910  145.5750 N   0  0  0  0  0  2  0  0  0  0  0  0
  194.1380  175.8600  146.4970 C   0  0  2  0  0  3  0  0  0  0  0  0
  1 15  1  6  0  0  0
  1  6  1  0  0  0  0
  2  1  1  0  0  0  0
  3  5  1  0  0  0  0
  5  4  1  0  0  0  0
  5  2  2  0  0  0  0
  7 11  1  0  0  0  0
  8 10  1  6  0  0  0
  8 12  1  0  0  0  0
  8  9  1  0  0  0  0
  9 11  1  0  0  0  0
 11 13  1  6  0  0  0
 12  6  1  6  0  0  0
 12  7  1  0  0  0  0
 13 14  1  0  0  0  0
 15 16  1  0  0  0  0
 16 18  1  0  0  0  0
 17 16  2  0  0  0  0
 18 20  1  0  0  0  0
 18 19  2  0  0  0  0
 20 21  1  0  0  0  0
 22 21  1  0  0  0  0
 23 26  1  0  0  0  0
 23 24  1  0  0  0  0
 24 27  1  0  0  0  0
 25 23  2  0  0  0  0
 26 27  1  0  0  0  0
 27 22  1  6  0  0  0
M  END
>  <MODEL>
1

>  <REMARK>
 VINA RESULT:      -5.9      0.000      0.000
  Name = 
  11 active torsions:
  status: ('A' for Active; 'I' for Inactive)
    1  A    between atoms: O_1  and  C_23
    2  A    between atoms: O_2  and  C_5
    3  A    between atoms: O_2  and  C_24
    4  A    between atoms: N_4  and  C_5
    5  A    between atoms: C_5  and  C_6
    6  A    between atoms: C_6  and  C_8
    7  A    between atoms: C_8  and  C_17
    8  A    between atoms: C_13  and  O_18
    9  A    between atoms: C_13  and  C_20
   10  A    between atoms: C_17  and  O_18
   11  A    between atoms: C_19  and  C_20
                            x       y       z     vdW  Elec       q    Type
                         _______ _______ _______ _____ _____    ______ ____

>  <TORSDO>
F 11

$$$$
=
 OpenBabel11062422103D

 27 28  0  0  1  0  0  0  0  0999 V2000
  192.0180  175.5340  144.7040 C   0  0  1  0  0  3  0  0  0  0  0  0
  193.4230  175.1810  144.5400 N   0  0  0  0  0  0  0  0  0  0  0  0
  195.7410  175.5110  144.7400 N   0  0  0  0  0  1  0  0  0  0  0  0
  194.1480  177.1890  145.5730 N   0  0  0  0  0  1  0  0  0  0  0  0
  194.3990  175.9350  144.9440 C   0  0  0  0  0  0  0  0  0  0  0  0
  191.3560  175.3840  143.4820 O   0  0  0  0  0  0  0  0  0  0  0  0
  189.0530  175.6160  142.9050 C   0  0  0  0  0  2  0  0  0  0  0  0
  190.5270  177.5090  142.7710 C   0  0  1  0  0  3  0  0  0  0  0  0
  189.1950  177.9270  142.1730 C   0  0  0  0  0  2  0  0  0  0  0  0
  191.1360  178.7830  143.8530 Cl  0  0  0  0  0  0  0  0  0  0  0  0
  188.2250  176.7740  142.3840 C   0  0  2  0  0  3  0  0  0  0  0  0
  190.2600  176.2460  143.5600 C   0  0  2  0  0  3  0  0  0  0  0  0
  187.2780  177.1380  143.3440 O   0  0  0  0  0  0  0  0  0  0  0  0
  186.1510  176.3700  143.0440 C   0  0  0  0  0  1  0  0  0  0  0  0
  191.3770  174.6390  145.7610 C   0  0  0  0  0  2  0  0  0  0  0  0
  190.6390  175.4590  146.7680 C   0  0  0  0  0  0  0  0  0  0  0  0
  191.2750  176.3220  147.4280 O   0  0  0  0  0  0  0  0  0  0  0  0
  189.1900  175.2500  146.9890 C   0  0  0  0  0  0  0  0  0  0  0  0
  188.8210  174.3550  147.7940 O   0  0  0  0  0  0  0  0  0  0  0  0
  188.2050  176.0060  146.3420 O   0  0  0  0  0  0  0  0  0  0  0  0
  187.6630  177.2110  146.8650 C   0  0  0  0  0  2  0  0  0  0  0  0
  186.1590  177.0720  147.0350 C   0  0  0  0  0  2  0  0  0  0  0  0
  184.4380  178.9160  145.2130 C   0  0  0  0  0  0  0  0  0  0  0  0
  184.1010  178.2640  146.5140 C   0  0  0  0  0  2  0  0  0  0  0  0
  183.7960  179.2240  144.1750 O   0  0  0  0  0  0  0  0  0  0  0  0
  185.8410  179.0450  145.6520 N   0  0  0  0  0  2  0  0  0  0  0  0
  185.4730  178.4260  146.9050 C   0  0  2  0  0  3  0  0  0  0  0  0
  1 15  1  1  0  0  0
  2  1  1  0  0  0  0
  2  5  2  0  0  0  0
  3  5  1  0  0  0  0
  5  4  1  0  0  0  0
  6  1  1  0  0  0  0
  7 12  1  0  0  0  0
  8 12  1  0  0  0  0
  8 10  1  1  0  0  0
  9 11  1  0  0  0  0
  9  8  1  0  0  0  0
 11  7  1  0  0  0  0
 11 13  1  1  0  0  0
 12  6  1  6  0  0  0
 14 13  1  0  0  0  0
 15 16  1  0  0  0  0
 16 18  1  0  0  0  0
 16 17  2  0  0  0  0
 18 19  2  0  0  0  0
 20 21  1  0  0  0  0
 20 18  1  0  0  0  0
 21 22  1  0  0  0  0
 23 26  1  0  0  0  0
 23 24  1  0  0  0  0
 24 27  1  0  0  0  0
 25 23  2  0  0  0  0
 26 27  1  0  0  0  0
 27 22  1  6  0  0  0
M  END
>  <MODEL>
2

>  <REMARK>
 VINA RESULT:      -5.9      2.672      6.802
  Name = 
  11 active torsions:
  status: ('A' for Active; 'I' for Inactive)
    1  A    between atoms: O_1  and  C_23
    2  A    between atoms: O_2  and  C_5
    3  A    between atoms: O_2  and  C_24
    4  A    between atoms: N_4  and  C_5
    5  A    between atoms: C_5  and  C_6
    6  A    between atoms: C_6  and  C_8
    7  A    between atoms: C_8  and  C_17
    8  A    between atoms: C_13  and  O_18
    9  A    between atoms: C_13  and  C_20
   10  A    between atoms: C_17  and  O_18
   11  A    between atoms: C_19  and  C_20
                            x       y       z     vdW  Elec       q    Type
                         _______ _______ _______ _____ _____    ______ ____

>  <TORSDO>
F 11

$$$$
=
 OpenBabel11062422103D

 27 28  0  0  1  0  0  0  0  0999 V2000
  187.2570  176.4570  143.1800 C   0  0  1  0  0  3  0  0  0  0  0  0
  186.8510  176.3820  141.7820 N   0  0  0  0  0  0  0  0  0  0  0  0
  186.7900  177.0820  139.5400 N   0  0  0  0  0  1  0  0  0  0  0  0
  188.0900  178.3240  141.2180 N   0  0  0  0  0  1  0  0  0  0  0  0
  187.2380  177.2320  140.8810 C   0  0  0  0  0  0  0  0  0  0  0  0
  186.1580  176.1770  143.9980 O   0  0  0  0  0  0  0  0  0  0  0  0
  185.6440  177.0130  146.1730 C   0  0  0  0  0  2  0  0  0  0  0  0
  184.7270  178.0780  144.2240 C   0  0  1  0  0  3  0  0  0  0  0  0
  184.0770  178.7170  145.4380 C   0  0  0  0  0  2  0  0  0  0  0  0
  185.2100  179.3330  143.0600 Cl  0  0  0  0  0  0  0  0  0  0  0  0
  184.7580  178.1390  146.6690 C   0  0  2  0  0  3  0  0  0  0  0  0
  185.9510  177.3480  144.7320 C   0  0  2  0  0  3  0  0  0  0  0  0
  185.5490  179.1240  147.2660 O   0  0  0  0  0  0  0  0  0  0  0  0
  186.4020  178.4280  148.1230 C   0  0  0  0  0  1  0  0  0  0  0  0
  188.3780  175.4580  143.4510 C   0  0  0  0  0  2  0  0  0  0  0  0
  189.7130  176.1220  143.3380 C   0  0  0  0  0  0  0  0  0  0  0  0
  190.4860  175.7690  142.4090 O   0  0  0  0  0  0  0  0  0  0  0  0
  190.1160  177.1640  144.3080 C   0  0  0  0  0  0  0  0  0  0  0  0
  191.2510  177.6980  144.1890 O   0  0  0  0  0  0  0  0  0  0  0  0
  189.2910  177.5880  145.3560 O   0  0  0  0  0  0  0  0  0  0  0  0
  189.5650  177.3380  146.7290 C   0  0  0  0  0  2  0  0  0  0  0  0
  189.5930  175.8410  146.9880 C   0  0  0  0  0  2  0  0  0  0  0  0
  192.6880  176.1590  146.9550 C   0  0  0  0  0  0  0  0  0  0  0  0
  191.6880  176.5870  147.9800 C   0  0  0  0  0  2  0  0  0  0  0  0
  193.7890  176.6060  146.5410 O   0  0  0  0  0  0  0  0  0  0  0  0
  191.8420  174.9950  146.6300 N   0  0  0  0  0  2  0  0  0  0  0  0
  190.9060  175.4300  147.6410 C   0  0  2  0  0  3  0  0  0  0  0  0
  1 15  1  6  0  0  0
  1  6  1  0  0  0  0
  2  1  1  0  0  0  0
  3  5  1  0  0  0  0
  5  4  1  0  0  0  0
  5  2  2  0  0  0  0
  7 11  1  0  0  0  0
  8 10  1  6  0  0  0
  8 12  1  0  0  0  0
  8  9  1  0  0  0  0
  9 11  1  0  0  0  0
 11 13  1  6  0  0  0
 12  6  1  6  0  0  0
 12  7  1  0  0  0  0
 13 14  1  0  0  0  0
 16 15  1  0  0  0  0
 16 18  1  0  0  0  0
 17 16  2  0  0  0  0
 18 20  1  0  0  0  0
 19 18  2  0  0  0  0
 20 21  1  0  0  0  0
 21 22  1  0  0  0  0
 23 24  1  0  0  0  0
 25 23  2  0  0  0  0
 26 23  1  0  0  0  0
 26 27  1  0  0  0  0
 27 22  1  6  0  0  0
 27 24  1  0  0  0  0
M  END
>  <MODEL>
3

>  <REMARK>
 VINA RESULT:      -5.9      1.470      1.953
  Name = 
  11 active torsions:
  status: ('A' for Active; 'I' for Inactive)
    1  A    between atoms: O_1  and  C_23
    2  A    between atoms: O_2  and  C_5
    3  A    between atoms: O_2  and  C_24
    4  A    between atoms: N_4  and  C_5
    5  A    between atoms: C_5  and  C_6
    6  A    between atoms: C_6  and  C_8
    7  A    between atoms: C_8  and  C_17
    8  A    between atoms: C_13  and  O_18
    9  A    between atoms: C_13  and  C_20
   10  A    between atoms: C_17  and  O_18
   11  A    between atoms: C_19  and  C_20
                            x       y       z     vdW  Elec       q    Type
                         _______ _______ _______ _____ _____    ______ ____

>  <TORSDO>
F 11

$$$$
=
 OpenBabel11062422103D

 27 28  0  0  1  0  0  0  0  0999 V2000
  188.5720  175.4930  141.8960 C   0  0  1  0  0  3  0  0  0  0  0  0
  189.0260  174.5010  140.9280 N   0  0  0  0  0  0  0  0  0  0  0  0
  189.1120  172.3710  139.9400 N   0  0  0  0  0  1  0  0  0  0  0  0
  187.6840  172.8020  141.8960 N   0  0  0  0  0  1  0  0  0  0  0  0
  188.6140  173.2710  140.9230 C   0  0  0  0  0  0  0  0  0  0  0  0
  189.6670  176.2390  142.3430 O   0  0  0  0  0  0  0  0  0  0  0  0
  189.9240  177.1750  144.5220 C   0  0  0  0  0  2  0  0  0  0  0  0
  191.0670  175.1440  143.9400 C   0  0  1  0  0  3  0  0  0  0  0  0
  191.5720  175.5740  145.3060 C   0  0  0  0  0  2  0  0  0  0  0  0
  190.7300  173.3970  143.9360 Cl  0  0  0  0  0  0  0  0  0  0  0  0
  190.7490  176.7800  145.7310 C   0  0  2  0  0  3  0  0  0  0  0  0
  189.7900  175.9170  143.6970 C   0  0  2  0  0  3  0  0  0  0  0  0
  189.8970  176.4130  146.7760 O   0  0  0  0  0  0  0  0  0  0  0  0
  190.6570  175.5570  147.5740 C   0  0  0  0  0  1  0  0  0  0  0  0
  187.5390  176.4130  141.2530 C   0  0  0  0  0  2  0  0  0  0  0  0
  186.5250  176.8510  142.2600 C   0  0  0  0  0  0  0  0  0  0  0  0
  186.1200  176.0180  143.1120 O   0  0  0  0  0  0  0  0  0  0  0  0
  186.0030  178.2360  142.2430 C   0  0  0  0  0  0  0  0  0  0  0  0
  185.2550  178.5920  141.2940 O   0  0  0  0  0  0  0  0  0  0  0  0
  186.3010  179.1740  143.2390 O   0  0  0  0  0  0  0  0  0  0  0  0
  185.3160  179.8440  144.0150 C   0  0  0  0  0  2  0  0  0  0  0  0
  184.2690  178.8520  144.4930 C   0  0  0  0  0  2  0  0  0  0  0  0
  185.7950  177.6390  146.9180 C   0  0  0  0  0  0  0  0  0  0  0  0
  185.6080  179.0650  146.5160 C   0  0  0  0  0  2  0  0  0  0  0  0
  186.7070  176.9830  147.4860 O   0  0  0  0  0  0  0  0  0  0  0  0
  184.4640  177.3190  146.3680 N   0  0  0  0  0  2  0  0  0  0  0  0
  184.3120  178.7110  146.0090 C   0  0  2  0  0  3  0  0  0  0  0  0
  1 15  1  6  0  0  0
  1  6  1  0  0  0  0
  2  1  1  0  0  0  0
  3  5  1  0  0  0  0
  5  2  2  0  0  0  0
  5  4  1  0  0  0  0
  7 11  1  0  0  0  0
  8 10  1  1  0  0  0
  8  9  1  0  0  0  0
  9 11  1  0  0  0  0
 11 13  1  1  0  0  0
 12  6  1  6  0  0  0
 12  8  1  0  0  0  0
 12  7  1  0  0  0  0
 13 14  1  0  0  0  0
 15 16  1  0  0  0  0
 16 17  2  0  0  0  0
 18 16  1  0  0  0  0
 18 20  1  0  0  0  0
 19 18  2  0  0  0  0
 20 21  1  0  0  0  0
 21 22  1  0  0  0  0
 23 25  2  0  0  0  0
 24 23  1  0  0  0  0
 26 23  1  0  0  0  0
 27 22  1  6  0  0  0
 27 26  1  0  0  0  0
 27 24  1  0  0  0  0
M  END
>  <MODEL>
4

>  <REMARK>
 VINA RESULT:      -5.9      3.149      6.733
  Name = 
  11 active torsions:
  status: ('A' for Active; 'I' for Inactive)
    1  A    between atoms: O_1  and  C_23
    2  A    between atoms: O_2  and  C_5
    3  A    between atoms: O_2  and  C_24
    4  A    between atoms: N_4  and  C_5
    5  A    between atoms: C_5  and  C_6
    6  A    between atoms: C_6  and  C_8
    7  A    between atoms: C_8  and  C_17
    8  A    between atoms: C_13  and  O_18
    9  A    between atoms: C_13  and  C_20
   10  A    between atoms: C_17  and  O_18
   11  A    between atoms: C_19  and  C_20
                            x       y       z     vdW  Elec       q    Type
                         _______ _______ _______ _____ _____    ______ ____

>  <TORSDO>
F 11

$$$$
=
 OpenBabel11062422103D

 27 28  0  0  1  0  0  0  0  0999 V2000
  188.1060  176.1030  142.5420 C   0  0  1  0  0  3  0  0  0  0  0  0
  189.3430  175.3400  142.4310 N   0  0  0  0  0  0  0  0  0  0  0  0
  190.7410  173.6600  141.5670 N   0  0  0  0  0  1  0  0  0  0  0  0
  188.4360  173.9320  140.7520 N   0  0  0  0  0  1  0  0  0  0  0  0
  189.4980  174.3500  141.6060 C   0  0  0  0  0  0  0  0  0  0  0  0
  187.8930  176.4480  143.8800 O   0  0  0  0  0  0  0  0  0  0  0  0
  188.9550  175.3160  145.6910 C   0  0  0  0  0  2  0  0  0  0  0  0
  189.6520  177.5330  145.0800 C   0  0  1  0  0  3  0  0  0  0  0  0
  190.3780  177.1650  146.3620 C   0  0  0  0  0  2  0  0  0  0  0  0
  190.7830  178.2880  143.9340 Cl  0  0  0  0  0  0  0  0  0  0  0  0
  190.0410  175.7150  146.6710 C   0  0  2  0  0  3  0  0  0  0  0  0
  189.1240  176.2370  144.5050 C   0  0  2  0  0  3  0  0  0  0  0  0
  191.1720  174.9230  146.4580 O   0  0  0  0  0  0  0  0  0  0  0  0
  192.2320  175.6630  146.9850 C   0  0  0  0  0  1  0  0  0  0  0  0
  188.1930  177.3620  141.6840 C   0  0  0  0  0  2  0  0  0  0  0  0
  186.9290  177.5620  140.9130 C   0  0  0  0  0  0  0  0  0  0  0  0
  186.8130  177.0080  139.7890 O   0  0  0  0  0  0  0  0  0  0  0  0
  185.8420  178.4050  141.4610 C   0  0  0  0  0  0  0  0  0  0  0  0
  184.7480  178.4650  140.8390 O   0  0  0  0  0  0  0  0  0  0  0  0
  185.9730  179.1400  142.6450 O   0  0  0  0  0  0  0  0  0  0  0  0
  184.9780  179.1900  143.6590 C   0  0  0  0  0  2  0  0  0  0  0  0
  184.7940  177.8120  144.2730 C   0  0  0  0  0  2  0  0  0  0  0  0
  186.3260  178.0250  146.9730 C   0  0  0  0  0  0  0  0  0  0  0  0
  185.4350  179.0120  146.2940 C   0  0  0  0  0  2  0  0  0  0  0  0
  187.3440  178.0990  147.7100 O   0  0  0  0  0  0  0  0  0  0  0  0
  185.5160  176.9240  146.4170 N   0  0  0  0  0  2  0  0  0  0  0  0
  184.6660  177.9090  145.7880 C   0  0  2  0  0  3  0  0  0  0  0  0
  1 15  1  6  0  0  0
  1  6  1  0  0  0  0
  2  1  1  0  0  0  0
  3  5  1  0  0  0  0
  4  5  1  0  0  0  0
  5  2  2  0  0  0  0
  7 11  1  0  0  0  0
  8 10  1  6  0  0  0
  8  9  1  0  0  0  0
  9 11  1  0  0  0  0
 11 13  1  6  0  0  0
 12  6  1  1  0  0  0
 12  8  1  0  0  0  0
 12  7  1  0  0  0  0
 13 14  1  0  0  0  0
 16 18  1  0  0  0  0
 16 15  1  0  0  0  0
 17 16  2  0  0  0  0
 18 20  1  0  0  0  0
 19 18  2  0  0  0  0
 20 21  1  0  0  0  0
 21 22  1  0  0  0  0
 23 25  2  0  0  0  0
 24 23  1  0  0  0  0
 26 23  1  0  0  0  0
 27 22  1  6  0  0  0
 27 24  1  0  0  0  0
 27 26  1  0  0  0  0
M  END
>  <MODEL>
5

>  <REMARK>
 VINA RESULT:      -5.8      2.688      6.420
  Name = 
  11 active torsions:
  status: ('A' for Active; 'I' for Inactive)
    1  A    between atoms: O_1  and  C_23
    2  A    between atoms: O_2  and  C_5
    3  A    between atoms: O_2  and  C_24
    4  A    between atoms: N_4  and  C_5
    5  A    between atoms: C_5  and  C_6
    6  A    between atoms: C_6  and  C_8
    7  A    between atoms: C_8  and  C_17
    8  A    between atoms: C_13  and  O_18
    9  A    between atoms: C_13  and  C_20
   10  A    between atoms: C_17  and  O_18
   11  A    between atoms: C_19  and  C_20
                            x       y       z     vdW  Elec       q    Type
                         _______ _______ _______ _____ _____    ______ ____

>  <TORSDO>
F 11

$$$$
=
 OpenBabel11062422103D

 27 28  0  0  1  0  0  0  0  0999 V2000
  189.7060  176.5090  143.8230 C   0  0  1  0  0  3  0  0  0  0  0  0
  190.8700  176.6550  144.6890 N   0  0  0  0  0  0  0  0  0  0  0  0
  193.1600  176.8960  145.1590 N   0  0  0  0  0  1  0  0  0  0  0  0
  192.3560  176.7140  142.8420 N   0  0  0  0  0  1  0  0  0  0  0  0
  192.0830  176.7570  144.2400 C   0  0  0  0  0  0  0  0  0  0  0  0
  189.0000  175.3570  144.1860 O   0  0  0  0  0  0  0  0  0  0  0  0
  188.3880  173.9400  142.3680 C   0  0  0  0  0  2  0  0  0  0  0  0
  189.8190  173.1140  144.1120 C   0  0  1  0  0  3  0  0  0  0  0  0
  189.4700  171.9390  143.2160 C   0  0  0  0  0  2  0  0  0  0  0  0
  191.5560  173.0960  144.4930 Cl  0  0  0  0  0  0  0  0  0  0  0  0
  188.6810  172.4890  142.0390 C   0  0  2  0  0  3  0  0  0  0  0  0
  189.4750  174.3610  143.3290 C   0  0  2  0  0  3  0  0  0  0  0  0
  189.4650  172.4230  140.8840 O   0  0  0  0  0  0  0  0  0  0  0  0
  188.6130  172.8130  139.8500 C   0  0  0  0  0  1  0  0  0  0  0  0
  188.8070  177.7350  143.9480 C   0  0  0  0  0  2  0  0  0  0  0  0
  187.9150  177.8570  142.7550 C   0  0  0  0  0  0  0  0  0  0  0  0
  188.4250  178.1770  141.6490 O   0  0  0  0  0  0  0  0  0  0  0  0
  186.4600  177.6170  142.8790 C   0  0  0  0  0  0  0  0  0  0  0  0
  186.0290  176.4370  142.7860 O   0  0  0  0  0  0  0  0  0  0  0  0
  185.5350  178.6450  143.0980 O   0  0  0  0  0  0  0  0  0  0  0  0
  184.6530  178.6910  144.2110 C   0  0  0  0  0  2  0  0  0  0  0  0
  185.3790  179.2460  145.4250 C   0  0  0  0  0  2  0  0  0  0  0  0
  186.7110  176.8550  146.9040 C   0  0  0  0  0  0  0  0  0  0  0  0
  186.5080  178.2670  147.3480 C   0  0  0  0  0  2  0  0  0  0  0  0
  187.5890  175.9750  147.1000 O   0  0  0  0  0  0  0  0  0  0  0  0
  185.4520  176.9240  146.1380 N   0  0  0  0  0  2  0  0  0  0  0  0
  185.2810  178.2820  146.6010 C   0  0  2  0  0  3  0  0  0  0  0  0
  1 15  1  1  0  0  0
  1  6  1  0  0  0  0
  1  2  1  0  0  0  0
  4  5  1  0  0  0  0
  5  2  2  0  0  0  0
  5  3  1  0  0  0  0
  7 12  1  0  0  0  0
  8 10  1  6  0  0  0
  9  8  1  0  0  0  0
 11 13  1  6  0  0  0
 11  7  1  0  0  0  0
 11  9  1  0  0  0  0
 12  8  1  0  0  0  0
 12  6  1  1  0  0  0
 14 13  1  0  0  0  0
 16 18  1  0  0  0  0
 16 15  1  0  0  0  0
 17 16  2  0  0  0  0
 18 20  1  0  0  0  0
 19 18  2  0  0  0  0
 20 21  1  0  0  0  0
 21 22  1  0  0  0  0
 23 25  2  0  0  0  0
 23 24  1  0  0  0  0
 26 27  1  0  0  0  0
 26 23  1  0  0  0  0
 27 22  1  6  0  0  0
 27 24  1  0  0  0  0
M  END
>  <MODEL>
6

>  <REMARK>
 VINA RESULT:      -5.8      3.412      7.099
  Name = 
  11 active torsions:
  status: ('A' for Active; 'I' for Inactive)
    1  A    between atoms: O_1  and  C_23
    2  A    between atoms: O_2  and  C_5
    3  A    between atoms: O_2  and  C_24
    4  A    between atoms: N_4  and  C_5
    5  A    between atoms: C_5  and  C_6
    6  A    between atoms: C_6  and  C_8
    7  A    between atoms: C_8  and  C_17
    8  A    between atoms: C_13  and  O_18
    9  A    between atoms: C_13  and  C_20
   10  A    between atoms: C_17  and  O_18
   11  A    between atoms: C_19  and  C_20
                            x       y       z     vdW  Elec       q    Type
                         _______ _______ _______ _____ _____    ______ ____

>  <TORSDO>
F 11

$$$$
=
 OpenBabel11062422103D

 27 28  0  0  1  0  0  0  0  0999 V2000
  189.3050  176.3700  145.1170 C   0  0  1  0  0  3  0  0  0  0  0  0
  190.2650  176.3330  146.2130 N   0  0  0  0  0  0  0  0  0  0  0  0
  191.1790  175.5210  148.2200 N   0  0  0  0  0  1  0  0  0  0  0  0
  189.1470  174.5220  147.2600 N   0  0  0  0  0  1  0  0  0  0  0  0
  190.1980  175.4830  147.1910 C   0  0  0  0  0  0  0  0  0  0  0  0
  188.7850  177.6620  144.9990 O   0  0  0  0  0  0  0  0  0  0  0  0
  186.9560  178.2590  143.5880 C   0  0  0  0  0  2  0  0  0  0  0  0
  186.6330  178.0530  145.9600 C   0  0  1  0  0  3  0  0  0  0  0  0
  185.3500  178.6150  145.3740 C   0  0  0  0  0  2  0  0  0  0  0  0
  186.2570  176.7680  147.1310 Cl  0  0  0  0  0  0  0  0  0  0  0  0
  185.5080  178.6150  143.8610 C   0  0  2  0  0  3  0  0  0  0  0  0
  187.4140  177.4800  144.7990 C   0  0  2  0  0  3  0  0  0  0  0  0
  184.6770  177.6360  143.3100 O   0  0  0  0  0  0  0  0  0  0  0  0
  183.9960  178.2840  142.2780 C   0  0  0  0  0  1  0  0  0  0  0  0
  189.9850  175.9580  143.8150 C   0  0  0  0  0  2  0  0  0  0  0  0
  189.4940  174.6200  143.3640 C   0  0  0  0  0  0  0  0  0  0  0  0
  188.4400  174.5630  142.6780 O   0  0  0  0  0  0  0  0  0  0  0  0
  190.2300  173.3890  143.7300 C   0  0  0  0  0  0  0  0  0  0  0  0
  189.9330  172.3100  143.1520 O   0  0  0  0  0  0  0  0  0  0  0  0
  191.2470  173.3680  144.6910 O   0  0  0  0  0  0  0  0  0  0  0  0
  192.6220  173.5700  144.3920 C   0  0  0  0  0  2  0  0  0  0  0  0
  193.3380  174.1390  145.6050 C   0  0  0  0  0  2  0  0  0  0  0  0
  195.1660  176.3500  144.3990 C   0  0  0  0  0  0  0  0  0  0  0  0
  193.7580  175.9780  144.0650 C   0  0  0  0  0  2  0  0  0  0  0  0
  196.1490  176.7960  143.7530 O   0  0  0  0  0  0  0  0  0  0  0  0
  194.9220  175.9710  145.8040 N   0  0  0  0  0  2  0  0  0  0  0  0
  193.5620  175.6380  145.4470 C   0  0  2  0  0  3  0  0  0  0  0  0
  1 15  1  6  0  0  0
  1  2  1  0  0  0  0
  2  5  2  0  0  0  0
  5  4  1  0  0  0  0
  5  3  1  0  0  0  0
  6  1  1  0  0  0  0
  7 11  1  0  0  0  0
  7 12  1  0  0  0  0
  8 10  1  1  0  0  0
  9  8  1  0  0  0  0
 11 13  1  6  0  0  0
 11  9  1  0  0  0  0
 12  6  1  1  0  0  0
 12  8  1  0  0  0  0
 14 13  1  0  0  0  0
 16 18  1  0  0  0  0
 16 15  1  0  0  0  0
 17 16  2  0  0  0  0
 18 20  1  0  0  0  0
 19 18  2  0  0  0  0
 21 20  1  0  0  0  0
 21 22  1  0  0  0  0
 23 26  1  0  0  0  0
 24 23  1  0  0  0  0
 24 27  1  0  0  0  0
 25 23  2  0  0  0  0
 27 22  1  6  0  0  0
 27 26  1  0  0  0  0
M  END
>  <MODEL>
7

>  <REMARK>
 VINA RESULT:      -5.7      2.817      4.033
  Name = 
  11 active torsions:
  status: ('A' for Active; 'I' for Inactive)
    1  A    between atoms: O_1  and  C_23
    2  A    between atoms: O_2  and  C_5
    3  A    between atoms: O_2  and  C_24
    4  A    between atoms: N_4  and  C_5
    5  A    between atoms: C_5  and  C_6
    6  A    between atoms: C_6  and  C_8
    7  A    between atoms: C_8  and  C_17
    8  A    between atoms: C_13  and  O_18
    9  A    between atoms: C_13  and  C_20
   10  A    between atoms: C_17  and  O_18
   11  A    between atoms: C_19  and  C_20
                            x       y       z     vdW  Elec       q    Type
                         _______ _______ _______ _____ _____    ______ ____

>  <TORSDO>
F 11

$$$$
=
 OpenBabel11062422103D

 27 28  0  0  1  0  0  0  0  0999 V2000
  190.4440  174.6010  145.4440 C   0  0  1  0  0  3  0  0  0  0  0  0
  191.8630  174.7940  145.7150 N   0  0  0  0  0  0  0  0  0  0  0  0
  193.9440  175.8670  145.5170 N   0  0  0  0  0  1  0  0  0  0  0  0
  191.9740  176.6930  144.2980 N   0  0  0  0  0  1  0  0  0  0  0  0
  192.5630  175.7560  145.1970 C   0  0  0  0  0  0  0  0  0  0  0  0
  190.2320  173.2950  144.9900 O   0  0  0  0  0  0  0  0  0  0  0  0
  189.0700  174.6070  143.3710 C   0  0  0  0  0  2  0  0  0  0  0  0
  189.2250  172.2240  143.1070 C   0  0  1  0  0  3  0  0  0  0  0  0
  188.2830  172.7400  142.0330 C   0  0  0  0  0  2  0  0  0  0  0  0
  190.3610  171.0470  142.4080 Cl  0  0  0  0  0  0  0  0  0  0  0  0
  188.2960  174.2590  142.1160 C   0  0  2  0  0  3  0  0  0  0  0  0
  189.9810  173.4280  143.6220 C   0  0  2  0  0  3  0  0  0  0  0  0
  188.9600  174.7770  141.0010 O   0  0  0  0  0  0  0  0  0  0  0  0
  188.5720  173.9560  139.9400 C   0  0  0  0  0  1  0  0  0  0  0  0
  189.6330  174.8540  146.7110 C   0  0  0  0  0  2  0  0  0  0  0  0
  189.3790  176.3160  146.8910 C   0  0  0  0  0  0  0  0  0  0  0  0
  190.1500  176.9750  147.6360 O   0  0  0  0  0  0  0  0  0  0  0  0
  188.2360  176.9670  146.2130 C   0  0  0  0  0  0  0  0  0  0  0  0
  188.4330  177.5500  145.1140 O   0  0  0  0  0  0  0  0  0  0  0  0
  186.9380  176.9650  146.7380 O   0  0  0  0  0  0  0  0  0  0  0  0
  186.1420  178.1330  146.8830 C   0  0  0  0  0  2  0  0  0  0  0  0
  184.7740  177.9080  146.2600 C   0  0  0  0  0  2  0  0  0  0  0  0
  185.6420  178.9970  143.4780 C   0  0  0  0  0  0  0  0  0  0  0  0
  184.3850  178.3010  143.8890 C   0  0  0  0  0  2  0  0  0  0  0  0
  186.3390  179.0390  142.4310 O   0  0  0  0  0  0  0  0  0  0  0  0
  185.7260  179.6140  144.8160 N   0  0  0  0  0  2  0  0  0  0  0  0
  184.5000  178.9370  145.1710 C   0  0  2  0  0  3  0  0  0  0  0  0
  1  2  1  0  0  0  0
  1 15  1  1  0  0  0
  4  5  1  0  0  0  0
  5  3  1  0  0  0  0
  5  2  2  0  0  0  0
  6  1  1  0  0  0  0
  7 12  1  0  0  0  0
  8 10  1  6  0  0  0
  8 12  1  0  0  0  0
  9 11  1  0  0  0  0
  9  8  1  0  0  0  0
 11 13  1  6  0  0  0
 11  7  1  0  0  0  0
 12  6  1  1  0  0  0
 14 13  1  0  0  0  0
 15 16  1  0  0  0  0
 16 17  2  0  0  0  0
 18 20  1  0  0  0  0
 18 16  1  0  0  0  0
 19 18  2  0  0  0  0
 20 21  1  0  0  0  0
 22 21  1  0  0  0  0
 23 24  1  0  0  0  0
 23 26  1  0  0  0  0
 24 27  1  0  0  0  0
 25 23  2  0  0  0  0
 26 27  1  0  0  0  0
 27 22  1  1  0  0  0
M  END
>  <MODEL>
8

>  <REMARK>
 VINA RESULT:      -5.6      3.311      7.223
  Name = 
  11 active torsions:
  status: ('A' for Active; 'I' for Inactive)
    1  A    between atoms: O_1  and  C_23
    2  A    between atoms: O_2  and  C_5
    3  A    between atoms: O_2  and  C_24
    4  A    between atoms: N_4  and  C_5
    5  A    between atoms: C_5  and  C_6
    6  A    between atoms: C_6  and  C_8
    7  A    between atoms: C_8  and  C_17
    8  A    between atoms: C_13  and  O_18
    9  A    between atoms: C_13  and  C_20
   10  A    between atoms: C_17  and  O_18
   11  A    between atoms: C_19  and  C_20
                            x       y       z     vdW  Elec       q    Type
                         _______ _______ _______ _____ _____    ______ ____

>  <TORSDO>
F 11

$$$$
=
 OpenBabel11062422103D

 27 28  0  0  1  0  0  0  0  0999 V2000
  190.4210  176.9910  144.2950 C   0  0  1  0  0  3  0  0  0  0  0  0
  189.6650  177.0800  143.0510 N   0  0  0  0  0  0  0  0  0  0  0  0
  188.1600  176.3220  141.4140 N   0  0  0  0  0  1  0  0  0  0  0  0
  188.6690  174.9550  143.3940 N   0  0  0  0  0  1  0  0  0  0  0  0
  188.8570  176.1510  142.6420 C   0  0  0  0  0  0  0  0  0  0  0  0
  191.6970  177.5300  144.1010 O   0  0  0  0  0  0  0  0  0  0  0  0
  193.6880  177.2180  145.3780 C   0  0  0  0  0  2  0  0  0  0  0  0
  193.2590  175.8390  143.4580 C   0  0  1  0  0  3  0  0  0  0  0  0
  194.6650  175.5260  143.9370 C   0  0  0  0  0  2  0  0  0  0  0  0
  192.3910  174.3320  143.0860 Cl  0  0  0  0  0  0  0  0  0  0  0  0
  194.8830  176.2970  145.2300 C   0  0  2  0  0  3  0  0  0  0  0  0
  192.5730  176.5610  144.5970 C   0  0  2  0  0  3  0  0  0  0  0  0
  194.9150  175.4010  146.3010 O   0  0  0  0  0  0  0  0  0  0  0  0
  195.5520  174.2650  145.7990 C   0  0  0  0  0  1  0  0  0  0  0  0
  189.6950  177.7500  145.4010 C   0  0  0  0  0  2  0  0  0  0  0  0
  189.5990  176.9150  146.6370 C   0  0  0  0  0  0  0  0  0  0  0  0
  190.5040  177.0170  147.5060 O   0  0  0  0  0  0  0  0  0  0  0  0
  188.4660  175.9820  146.8250 C   0  0  0  0  0  0  0  0  0  0  0  0
  188.6870  174.8540  147.3410 O   0  0  0  0  0  0  0  0  0  0  0  0
  187.1530  176.2960  146.4570 O   0  0  0  0  0  0  0  0  0  0  0  0
  186.4290  177.4020  146.9770 C   0  0  0  0  0  2  0  0  0  0  0  0
  185.0040  177.3840  146.4500 C   0  0  0  0  0  2  0  0  0  0  0  0
  185.6800  178.8850  143.8100 C   0  0  0  0  0  0  0  0  0  0  0  0
  184.4070  178.2380  144.2490 C   0  0  0  0  0  2  0  0  0  0  0  0
  186.2600  179.0570  142.7070 O   0  0  0  0  0  0  0  0  0  0  0  0
  185.9750  179.2370  145.2120 N   0  0  0  0  0  2  0  0  0  0  0  0
  184.7270  178.6160  145.5970 C   0  0  2  0  0  3  0  0  0  0  0  0
  1 15  1  1  0  0  0
  2  1  1  0  0  0  0
  3  5  1  0  0  0  0
  5  2  2  0  0  0  0
  5  4  1  0  0  0  0
  6  1  1  0  0  0  0
  8 10  1  1  0  0  0
  8  9  1  0  0  0  0
  8 12  1  0  0  0  0
  9 11  1  0  0  0  0
 11  7  1  0  0  0  0
 11 13  1  1  0  0  0
 12  6  1  6  0  0  0
 12  7  1  0  0  0  0
 14 13  1  0  0  0  0
 15 16  1  0  0  0  0
 16 18  1  0  0  0  0
 16 17  2  0  0  0  0
 18 19  2  0  0  0  0
 20 18  1  0  0  0  0
 20 21  1  0  0  0  0
 22 21  1  0  0  0  0
 23 24  1  0  0  0  0
 23 26  1  0  0  0  0
 24 27  1  0  0  0  0
 25 23  2  0  0  0  0
 26 27  1  0  0  0  0
 27 22  1  1  0  0  0
M  END
>  <MODEL>
9

>  <REMARK>
 VINA RESULT:      -5.6      2.659      7.234
  Name = 
  11 active torsions:
  status: ('A' for Active; 'I' for Inactive)
    1  A    between atoms: O_1  and  C_23
    2  A    between atoms: O_2  and  C_5
    3  A    between atoms: O_2  and  C_24
    4  A    between atoms: N_4  and  C_5
    5  A    between atoms: C_5  and  C_6
    6  A    between atoms: C_6  and  C_8
    7  A    between atoms: C_8  and  C_17
    8  A    between atoms: C_13  and  O_18
    9  A    between atoms: C_13  and  C_20
   10  A    between atoms: C_17  and  O_18
   11  A    between atoms: C_19  and  C_20
                            x       y       z     vdW  Elec       q    Type
                         _______ _______ _______ _____ _____    ______ ____

>  <TORSDO>
F 11

$$$$
