=
 OpenBabel11062418233D

 64 70  0  0  1  0  0  0  0  0999 V2000
  193.0490  172.1500  141.7830 C   0  0  2  0  0  3  0  0  0  0  0  0
  194.8530  175.4500  139.5710 C   0  0  0  0  0  2  0  0  0  0  0  0
  191.5170  170.6650  137.9410 N   0  0  0  0  0  2  0  0  0  0  0  0
  193.0910  172.3380  137.3470 C   0  0  1  0  0  3  0  0  0  0  0  0
  192.1140  171.2990  136.8560 C   0  0  0  0  0  0  0  0  0  0  0  0
  193.9960  173.0160  139.5560 C   0  0  2  0  0  3  0  0  0  0  0  0
  194.6330  174.1990  141.6840 C   0  0  0  0  0  2  0  0  0  0  0  0
  192.1420  170.7070  135.7500 O   0  0  0  0  0  0  0  0  0  0  0  0
  192.3650  170.9390  139.0250 C   0  0  0  0  0  2  0  0  0  0  0  0
  193.5530  173.3800  140.9760 C   0  0  2  0  0  3  0  0  0  0  0  0
  193.2560  173.6280  135.4220 O   0  0  0  0  0  1  0  0  0  0  0  0
  191.6750  173.2110  138.9990 O   0  0  0  0  0  1  0  0  0  0  0  0
  194.7410  174.1780  138.7890 C   0  0  1  0  0  3  0  0  0  0  0  0
  194.8670  175.4520  140.9020 C   0  0  1  0  0  3  0  0  0  0  0  0
  193.1150  173.7160  136.7880 C   0  0  2  0  0  3  0  0  0  0  0  0
  192.7640  172.3960  138.8130 C   0  0  2  0  0  0  0  0  0  0  0  0
  194.3100  174.4810  137.3350 C   0  0  0  0  0  2  0  0  0  0  0  0
  195.5160  176.6960  141.4540 C   0  0  0  0  0  2  0  0  0  0  0  0
  196.3640  176.4890  142.7150 C   0  0  0  0  0  0  0  0  0  0  0  0
  197.5570  176.1940  142.5880 O   0  0  0  0  0  0  0  0  0  0  0  0
  195.7420  176.5860  144.0970 C   0  0  0  0  0  2  0  0  0  0  0  0
  195.8690  175.3950  144.8350 O   0  0  0  0  0  1  0  0  0  0  0  0
  189.8800  173.8460  142.1490 C   0  0  2  0  0  3  0  0  0  0  0  0
  189.6970  171.5460  142.2570 O   0  0  0  0  0  0  0  0  0  0  0  0
  190.5580  172.5260  141.8060 C   0  0  2  0  0  3  0  0  0  0  0  0
  190.9180  174.7160  142.8950 C   0  0  2  0  0  3  0  0  0  0  0  0
  191.9090  173.6790  143.3660 C   0  0  0  0  0  0  0  0  0  0  0  0
  191.8030  172.4110  142.6270 C   0  0  2  0  0  3  0  0  0  0  0  0
  192.8540  173.9660  144.1460 O   0  0  0  0  0  0  0  0  0  0  0  0
  188.5170  172.2190  142.4830 C   0  0  0  0  0  2  0  0  0  0  0  0
  188.8120  173.4980  142.9950 O   0  0  0  0  0  0  0  0  0  0  0  0
  190.4330  175.3940  145.7040 O   0  0  0  0  0  0  0  0  0  0  0  0
  190.3200  175.8900  144.2580 P   0  0  1  0  0  0  0  0  0  0  0  0
  192.1650  177.1160  143.0180 C   0  0  0  0  0  1  0  0  0  0  0  0
  191.2970  177.2780  144.1240 O   0  0  0  0  0  0  0  0  0  0  0  0
  188.6490  176.1160  143.9260 O   0  0  0  0  0  0  0  0  0  0  0  0
  188.3120  177.5080  143.9340 C   0  0  1  0  0  3  0  0  0  0  0  0
  188.2080  177.9900  142.5090 C   0  0  0  0  0  0  0  0  0  0  0  0
  186.9160  178.1130  141.8470 N   0  0  0  0  0  2  0  0  0  0  0  0
  189.2270  178.4810  141.9630 O   0  0  0  0  0  0  0  0  0  0  0  0
  187.5250  175.5790  140.9770 O   0  0  0  0  0  0  0  0  0  0  0  0
  186.6920  177.7180  140.5270 N   0  0  0  0  0  2  0  0  0  0  0  0
  187.0730  176.4190  140.0940 C   0  0  0  0  0  0  0  0  0  0  0  0
  186.6000  176.6020  137.5750 C   0  0  0  0  0  3  0  0  0  0  0  0
  187.1720  175.9880  138.6880 C   0  0  2  0  0  3  0  0  0  0  0  0
  187.8370  174.8960  138.2520 N   0  0  0  0  0  0  0  0  0  0  0  0
  186.9560  175.9130  136.4810 N   0  0  0  0  0  0  0  0  0  0  0  0
  187.7260  174.8790  136.9190 C   0  0  0  0  0  3  0  0  0  0  0  0
  186.8690  177.6930  144.5440 C   0  0  2  0  0  3  0  0  0  0  0  0
  186.5110  178.9970  144.9970 O   0  0  0  0  0  1  0  0  0  0  0  0
  186.1320  176.4980  145.2700 C   0  0  0  0  0  2  0  0  0  0  0  0
  185.3000  177.0950  146.3650 C   0  0  0  0  0  1  0  0  0  0  0  0
  193.5510  170.3220  143.8160 O   0  0  0  0  0  0  0  0  0  0  0  0
  194.2750  171.0330  142.5790 S   0  0  2  0  0  0  0  0  0  0  0  0
  195.5230  172.0540  143.2940 C   0  0  1  0  0  3  0  0  0  0  0  0
  196.5000  171.4930  146.0650 C   0  0  0  0  0  0  0  0  0  0  0  0
  196.7170  170.8120  144.7650 O   0  0  0  0  0  0  0  0  0  0  0  0
  195.5570  171.5590  144.7930 C   0  0  2  0  0  3  0  0  0  0  0  0
  196.7030  170.4290  146.9140 F   0  0  0  0  0  0  0  0  0  0  0  0
  197.2530  172.7370  146.2850 F   0  0  0  0  0  0  0  0  0  0  0  0
  196.7950  171.7130  142.3300 C   0  0  0  0  0  2  0  0  0  0  0  0
  197.9410  172.6740  142.0760 C   0  0  0  0  0  2  0  0  0  0  0  0
  197.8680  172.8950  140.4620 C   0  0  0  0  0  2  0  0  0  0  0  0
  197.9410  174.3140  140.0330 F   0  0  0  0  0  0  0  0  0  0  0  0
  1 54  1  1  0  0  0
  1 28  1  0  0  0  0
  2 14  1  0  0  0  0
  3  9  1  0  0  0  0
  4  5  1  6  0  0  0
  4 16  1  0  0  0  0
  5  3  1  0  0  0  0
  6 10  1  0  0  0  0
  8  5  2  0  0  0  0
 10  7  1  0  0  0  0
 10  1  1  0  0  0  0
 11 15  1  0  0  0  0
 13  6  1  0  0  0  0
 13  2  1  0  0  0  0
 14 18  1  0  0  0  0
 14  7  1  0  0  0  0
 15 17  1  0  0  0  0
 15  4  1  0  0  0  0
 16 12  1  0  0  0  0
 16  9  1  0  0  0  0
 16  6  1  0  0  0  0
 17 13  1  0  0  0  0
 18 19  1  0  0  0  0
 19 21  1  0  0  0  0
 20 19  2  0  0  0  0
 21 22  1  0  0  0  0
 23 26  1  0  0  0  0
 23 31  1  0  0  0  0
 24 30  1  0  0  0  0
 25 23  1  0  0  0  0
 25 24  1  0  0  0  0
 25 28  1  0  0  0  0
 26 27  1  0  0  0  0
 26 33  1  0  0  0  0
 27 29  2  0  0  0  0
 28 27  1  0  0  0  0
 30 31  1  0  0  0  0
 33 32  2  0  0  0  0
 34 35  1  0  0  0  0
 35 33  1  0  0  0  0
 36 37  1  0  0  0  0
 36 33  1  0  0  0  0
 37 49  1  0  0  0  0
 38 37  1  0  0  0  0
 39 38  1  0  0  0  0
 40 38  2  0  0  0  0
 42 39  1  0  0  0  0
 43 42  1  0  0  0  0
 43 41  2  0  0  0  0
 44 45  1  0  0  0  0
 45 43  1  0  0  0  0
 46 45  1  0  0  0  0
 47 48  1  0  0  0  0
 47 44  2  0  0  0  0
 48 46  2  0  0  0  0
 49 50  1  0  0  0  0
 49 51  1  0  0  0  0
 51 52  1  0  0  0  0
 54 55  1  0  0  0  0
 54 53  2  0  0  0  0
 55 58  1  0  0  0  0
 56 60  1  0  0  0  0
 56 59  1  0  0  0  0
 57 58  1  0  0  0  0
 57 56  1  0  0  0  0
 58 56  1  0  0  0  0
 61 55  1  0  0  0  0
 62 61  1  0  0  0  0
 63 62  1  0  0  0  0
 64 63  1  0  0  0  0
M  END
>  <MODEL>
1

>  <REMARK>
 VINA RESULT:      -5.9      0.000      0.000
  Name = 
  20 active torsions:
  status: ('A' for Active; 'I' for Inactive)
    1  A    between atoms: C_1  and  C_60
    2  A    between atoms: C_1  and  C_61
    3  A    between atoms: C_2  and  C_40
    4  A    between atoms: C_2  and  C_53
    5  A    between atoms: C_4  and  C_16
    6  A    between atoms: C_16  and  C_37
    7  A    between atoms: C_16  and  O_56
    8  A    between atoms: C_18  and  P_49
    9  A    between atoms: N_19  and  N_32
   10  A    between atoms: C_20  and  C_37
   11  A    between atoms: C_21  and  C_52
   12  A    between atoms: C_22  and  C_40
   13  A    between atoms: C_23  and  C_33
   14  A    between atoms: C_23  and  C_42
   15  A    between atoms: C_23  and  S_63
   16  A    between atoms: C_27  and  C_61
   17  A    between atoms: C_28  and  C_60
   18  A    between atoms: P_49  and  O_56
   19  A    between atoms: P_49  and  O_64
   20  A    between atoms: C_60  and  S_63
                            x       y       z     vdW  Elec       q    Type
                         _______ _______ _______ _____ _____    ______ ____

>  <TORSDO>
F 20

$$$$
=
 OpenBabel11062418233D

 64 70  0  0  1  0  0  0  0  0999 V2000
  195.5380  172.3820  141.5750 C   0  0  2  0  0  3  0  0  0  0  0  0
  192.1530  169.8800  142.7220 C   0  0  0  0  0  2  0  0  0  0  0  0
  197.4810  171.1360  145.3140 N   0  0  0  0  0  2  0  0  0  0  0  0
  195.6320  169.6660  145.0870 C   0  0  1  0  0  3  0  0  0  0  0  0
  196.8360  170.0560  145.9080 C   0  0  0  0  0  0  0  0  0  0  0  0
  194.6850  170.3500  142.8970 C   0  0  2  0  0  3  0  0  0  0  0  0
  193.2850  171.2370  141.0030 C   0  0  0  0  0  2  0  0  0  0  0  0
  197.4870  169.3120  146.6820 O   0  0  0  0  0  0  0  0  0  0  0  0
  197.0130  171.1470  143.9910 C   0  0  0  0  0  2  0  0  0  0  0  0
  194.3010  171.5940  142.0890 C   0  0  2  0  0  3  0  0  0  0  0  0
  194.4580  168.4700  146.6950 O   0  0  0  0  0  1  0  0  0  0  0  0
  194.8780  171.8600  144.7460 O   0  0  0  0  0  1  0  0  0  0  0  0
  193.4760  169.3900  143.2260 C   0  0  1  0  0  3  0  0  0  0  0  0
  192.0630  170.6780  141.6610 C   0  0  1  0  0  3  0  0  0  0  0  0
  194.3050  169.4190  145.7110 C   0  0  2  0  0  3  0  0  0  0  0  0
  195.5300  170.8210  144.1290 C   0  0  2  0  0  0  0  0  0  0  0  0
  193.3350  168.8710  144.6760 C   0  0  0  0  0  2  0  0  0  0  0  0
  190.7030  170.6030  141.0150 C   0  0  0  0  0  2  0  0  0  0  0  0
  189.9960  171.9470  140.8140 C   0  0  0  0  0  0  0  0  0  0  0  0
  190.1410  172.5420  139.7400 O   0  0  0  0  0  0  0  0  0  0  0  0
  189.1780  172.5730  141.9310 C   0  0  0  0  0  2  0  0  0  0  0  0
  188.9410  171.6830  142.9950 O   0  0  0  0  0  1  0  0  0  0  0  0
  195.5970  175.0910  143.9650 C   0  0  2  0  0  3  0  0  0  0  0  0
  197.2750  175.2370  142.3850 O   0  0  0  0  0  0  0  0  0  0  0  0
  196.4090  174.3150  142.9350 C   0  0  2  0  0  3  0  0  0  0  0  0
  194.1040  174.7990  143.6880 C   0  0  2  0  0  3  0  0  0  0  0  0
  194.1440  174.3140  142.2590 C   0  0  0  0  0  0  0  0  0  0  0  0
  195.4880  173.8860  141.8390 C   0  0  2  0  0  3  0  0  0  0  0  0
  193.0950  174.0990  141.5990 O   0  0  0  0  0  0  0  0  0  0  0  0
  197.2210  176.3050  143.2530 C   0  0  0  0  0  2  0  0  0  0  0  0
  195.8990  176.4430  143.7240 O   0  0  0  0  0  0  0  0  0  0  0  0
  193.1240  177.1400  145.1510 O   0  0  0  0  0  0  0  0  0  0  0  0
  192.8280  176.1640  144.0070 P   0  0  1  0  0  0  0  0  0  0  0  0
  191.9350  178.2000  142.7800 C   0  0  0  0  0  1  0  0  0  0  0  0
  192.7700  177.0770  142.5690 O   0  0  0  0  0  0  0  0  0  0  0  0
  191.3890  175.3190  144.4160 O   0  0  0  0  0  0  0  0  0  0  0  0
  190.2820  176.2220  144.5270 C   0  0  1  0  0  3  0  0  0  0  0  0
  189.1540  175.7130  143.6650 C   0  0  0  0  0  0  0  0  0  0  0  0
  189.0850  176.0370  142.2470 N   0  0  0  0  0  2  0  0  0  0  0  0
  188.3850  174.8380  144.1340 O   0  0  0  0  0  0  0  0  0  0  0  0
  187.6500  178.2610  142.9810 O   0  0  0  0  0  0  0  0  0  0  0  0
  187.9000  176.3910  141.5990 N   0  0  0  0  0  2  0  0  0  0  0  0
  187.1500  177.5140  142.0420 C   0  0  0  0  0  0  0  0  0  0  0  0
  184.6390  177.8340  142.4850 C   0  0  0  0  0  3  0  0  0  0  0  0
  185.7600  177.8130  141.6560 C   0  0  0  0  0  0  0  0  0  0  0  0
  185.3430  178.1040  140.4050 N   0  0  0  0  0  0  0  0  0  0  0  0
  183.5730  178.1780  141.7490 N   0  0  0  0  0  2  0  0  0  0  0  0
  184.0310  178.3520  140.4780 C   0  0  0  0  0  3  0  0  0  0  0  0
  189.7270  176.1900  146.0030 C   0  0  2  0  0  3  0  0  0  0  0  0
  189.3580  177.4350  146.5910 O   0  0  0  0  0  1  0  0  0  0  0  0
  190.1820  175.0690  147.0200 C   0  0  0  0  0  2  0  0  0  0  0  0
  188.9370  174.4630  147.5940 C   0  0  0  0  0  1  0  0  0  0  0  0
  197.8090  172.4140  139.9720 O   0  0  0  0  0  0  0  0  0  0  0  0
  196.2860  171.9290  139.9560 S   0  0  2  0  0  0  0  0  0  0  0  0
  195.4960  172.9140  138.7240 C   0  0  1  0  0  3  0  0  0  0  0  0
  197.2760  175.2530  138.1680 C   0  0  0  0  0  0  0  0  0  0  0  0
  195.9760  174.8220  137.6010 O   0  0  0  0  0  0  0  0  0  0  0  0
  196.6890  173.7810  138.1590 C   0  0  2  0  0  3  0  0  0  0  0  0
  197.7580  175.9800  137.1040 F   0  0  0  0  0  0  0  0  0  0  0  0
  197.2330  175.8780  139.5000 F   0  0  0  0  0  0  0  0  0  0  0  0
  194.8490  171.7600  137.7680 C   0  0  0  0  0  2  0  0  0  0  0  0
  193.4180  171.7840  137.2680 C   0  0  0  0  0  2  0  0  0  0  0  0
  192.8830  173.2330  137.7930 C   0  0  0  0  0  2  0  0  0  0  0  0
  192.9560  174.3180  136.7830 F   0  0  0  0  0  0  0  0  0  0  0  0
  1 54  1  6  0  0  0
  1 28  1  0  0  0  0
  1 10  1  0  0  0  0
  2 13  1  0  0  0  0
  3  5  1  0  0  0  0
  4 15  1  0  0  0  0
  4  5  1  1  0  0  0
  5  8  2  0  0  0  0
  6 13  1  0  0  0  0
  6 16  1  0  0  0  0
  7 14  1  0  0  0  0
  7 10  1  0  0  0  0
  9 16  1  0  0  0  0
  9  3  1  0  0  0  0
 10  6  1  0  0  0  0
 13 17  1  0  0  0  0
 14  2  1  0  0  0  0
 15 11  1  0  0  0  0
 16 12  1  0  0  0  0
 16  4  1  0  0  0  0
 17 15  1  0  0  0  0
 18 14  1  0  0  0  0
 19 18  1  0  0  0  0
 19 21  1  0  0  0  0
 20 19  2  0  0  0  0
 21 22  1  0  0  0  0
 24 25  1  0  0  0  0
 24 30  1  0  0  0  0
 25 23  1  0  0  0  0
 26 23  1  0  0  0  0
 26 33  1  0  0  0  0
 27 26  1  0  0  0  0
 28 27  1  0  0  0  0
 28 25  1  0  0  0  0
 29 27  2  0  0  0  0
 30 31  1  0  0  0  0
 31 23  1  0  0  0  0
 33 36  1  0  0  0  0
 33 32  2  0  0  0  0
 35 34  1  0  0  0  0
 35 33  1  0  0  0  0
 36 37  1  0  0  0  0
 37 49  1  0  0  0  0
 38 40  2  0  0  0  0
 38 37  1  0  0  0  0
 39 38  1  0  0  0  0
 42 43  1  0  0  0  0
 42 39  1  0  0  0  0
 43 41  2  0  0  0  0
 45 43  1  0  0  0  0
 45 44  2  0  0  0  0
 46 48  2  0  0  0  0
 46 45  1  0  0  0  0
 47 44  1  0  0  0  0
 48 47  1  0  0  0  0
 49 50  1  0  0  0  0
 49 51  1  0  0  0  0
 51 52  1  0  0  0  0
 54 53  2  0  0  0  0
 55 54  1  0  0  0  0
 56 60  1  0  0  0  0
 57 58  1  0  0  0  0
 57 56  1  0  0  0  0
 58 56  1  0  0  0  0
 58 55  1  0  0  0  0
 59 56  1  0  0  0  0
 61 55  1  0  0  0  0
 62 61  1  0  0  0  0
 62 63  1  0  0  0  0
 64 63  1  0  0  0  0
M  END
>  <MODEL>
2

>  <REMARK>
 VINA RESULT:      -5.8      2.905      6.400
  Name = 
  20 active torsions:
  status: ('A' for Active; 'I' for Inactive)
    1  A    between atoms: C_1  and  C_60
    2  A    between atoms: C_1  and  C_61
    3  A    between atoms: C_2  and  C_40
    4  A    between atoms: C_2  and  C_53
    5  A    between atoms: C_4  and  C_16
    6  A    between atoms: C_16  and  C_37
    7  A    between atoms: C_16  and  O_56
    8  A    between atoms: C_18  and  P_49
    9  A    between atoms: N_19  and  N_32
   10  A    between atoms: C_20  and  C_37
   11  A    between atoms: C_21  and  C_52
   12  A    between atoms: C_22  and  C_40
   13  A    between atoms: C_23  and  C_33
   14  A    between atoms: C_23  and  C_42
   15  A    between atoms: C_23  and  S_63
   16  A    between atoms: C_27  and  C_61
   17  A    between atoms: C_28  and  C_60
   18  A    between atoms: P_49  and  O_56
   19  A    between atoms: P_49  and  O_64
   20  A    between atoms: C_60  and  S_63
                            x       y       z     vdW  Elec       q    Type
                         _______ _______ _______ _____ _____    ______ ____

>  <TORSDO>
F 20

$$$$
=
 OpenBabel11062418233D

 64 70  0  0  1  0  0  0  0  0999 V2000
  192.7590  172.1520  140.5940 C   0  0  2  0  0  3  0  0  0  0  0  0
  197.0860  172.5420  141.0000 C   0  0  0  0  0  2  0  0  0  0  0  0
  192.9860  175.1260  137.3670 N   0  0  0  0  0  2  0  0  0  0  0  0
  195.2420  174.5030  137.7620 C   0  0  1  0  0  3  0  0  0  0  0  0
  194.2930  175.3440  136.9440 C   0  0  0  0  0  0  0  0  0  0  0  0
  195.0040  172.7360  139.4870 C   0  0  2  0  0  3  0  0  0  0  0  0
  195.0130  171.3390  141.5800 C   0  0  0  0  0  2  0  0  0  0  0  0
  194.4890  175.7810  135.7830 O   0  0  0  0  0  0  0  0  0  0  0  0
  193.0380  173.9150  138.0730 C   0  0  0  0  0  2  0  0  0  0  0  0
  194.2760  172.4260  140.7980 C   0  0  2  0  0  3  0  0  0  0  0  0
  197.2130  175.6610  137.3470 O   0  0  0  0  0  1  0  0  0  0  0  0
  194.2360  174.9780  139.8250 O   0  0  0  0  0  1  0  0  0  0  0  0
  196.5780  172.7760  139.6110 C   0  0  1  0  0  3  0  0  0  0  0  0
  196.3950  171.8270  141.8840 C   0  0  1  0  0  3  0  0  0  0  0  0
  196.4810  175.0730  138.3530 C   0  0  2  0  0  3  0  0  0  0  0  0
  194.3410  174.0090  138.8590 C   0  0  2  0  0  0  0  0  0  0  0  0
  197.3260  173.9640  138.9630 C   0  0  0  0  0  2  0  0  0  0  0  0
  197.2800  171.2660  142.9680 C   0  0  0  0  0  2  0  0  0  0  0  0
  196.5690  170.4000  144.0140 C   0  0  0  0  0  0  0  0  0  0  0  0
  196.5580  169.1730  143.8620 O   0  0  0  0  0  0  0  0  0  0  0  0
  195.8400  171.0330  145.1860 C   0  0  0  0  0  2  0  0  0  0  0  0
  194.4700  171.2310  144.9300 O   0  0  0  0  0  1  0  0  0  0  0  0
  189.8190  173.8780  141.7890 C   0  0  2  0  0  3  0  0  0  0  0  0
  189.8360  171.6320  142.3280 O   0  0  0  0  0  0  0  0  0  0  0  0
  190.4170  172.5190  141.4460 C   0  0  2  0  0  3  0  0  0  0  0  0
  190.9950  174.8670  141.9610 C   0  0  2  0  0  3  0  0  0  0  0  0
  192.1520  173.9320  142.2080 C   0  0  0  0  0  0  0  0  0  0  0  0
  191.8760  172.5540  141.7730 C   0  0  2  0  0  3  0  0  0  0  0  0
  193.2910  174.3530  142.5400 O   0  0  0  0  0  0  0  0  0  0  0  0
  188.7700  172.3310  142.8490 C   0  0  0  0  0  2  0  0  0  0  0  0
  189.1430  173.6810  143.0060 O   0  0  0  0  0  0  0  0  0  0  0  0
  191.8080  177.4400  143.1020 O   0  0  0  0  0  0  0  0  0  0  0  0
  190.8390  176.2610  143.2370 P   0  0  1  0  0  0  0  0  0  0  0  0
  189.3220  178.0200  142.2140 C   0  0  0  0  0  1  0  0  0  0  0  0
  189.2630  176.8780  143.0480 O   0  0  0  0  0  0  0  0  0  0  0  0
  191.1690  175.5010  144.7440 O   0  0  0  0  0  0  0  0  0  0  0  0
  191.6330  176.4560  145.7050 C   0  0  1  0  0  3  0  0  0  0  0  0
  190.6070  176.5750  146.8040 C   0  0  0  0  0  0  0  0  0  0  0  0
  189.3520  175.8380  146.7460 N   0  0  0  0  0  2  0  0  0  0  0  0
  190.9300  177.1550  147.8700 O   0  0  0  0  0  0  0  0  0  0  0  0
  187.3320  176.1390  144.9090 O   0  0  0  0  0  0  0  0  0  0  0  0
  188.1210  176.3930  147.0960 N   0  0  0  0  0  2  0  0  0  0  0  0
  187.1170  176.5900  146.1080 C   0  0  0  0  0  0  0  0  0  0  0  0
  185.0160  177.8180  145.2840 C   0  0  0  0  0  3  0  0  0  0  0  0
  185.9160  177.4270  146.2740 C   0  0  2  0  0  3  0  0  0  0  0  0
  185.4980  177.9710  147.4380 N   0  0  0  0  0  0  0  0  0  0  0  0
  184.0470  178.5480  145.8550 N   0  0  0  0  0  0  0  0  0  0  0  0
  184.3560  178.6180  147.1790 C   0  0  0  0  0  3  0  0  0  0  0  0
  192.9330  175.9030  146.4060 C   0  0  2  0  0  3  0  0  0  0  0  0
  193.9100  176.8570  146.8200 O   0  0  0  0  0  1  0  0  0  0  0  0
  193.4920  174.4640  146.0680 C   0  0  0  0  0  2  0  0  0  0  0  0
  194.9150  174.6370  145.6300 C   0  0  0  0  0  1  0  0  0  0  0  0
  193.1190  169.4070  140.3380 O   0  0  0  0  0  0  0  0  0  0  0  0
  192.2310  170.6020  139.7540 S   0  0  2  0  0  0  0  0  0  0  0  0
  192.6960  170.7430  138.0580 C   0  0  1  0  0  3  0  0  0  0  0  0
  195.1180  169.0110  137.7680 C   0  0  0  0  0  0  0  0  0  0  0  0
  194.4250  169.9350  136.8380 O   0  0  0  0  0  0  0  0  0  0  0  0
  193.6020  169.4680  137.8410 C   0  0  2  0  0  3  0  0  0  0  0  0
  195.7040  168.1660  136.8540 F   0  0  0  0  0  0  0  0  0  0  0  0
  195.9540  169.6330  138.8060 F   0  0  0  0  0  0  0  0  0  0  0  0
  191.2340  170.7940  137.3360 C   0  0  0  0  0  2  0  0  0  0  0  0
  189.9290  170.9820  138.0860 C   0  0  0  0  0  2  0  0  0  0  0  0
  189.4670  172.4770  137.6270 C   0  0  0  0  0  2  0  0  0  0  0  0
  188.0900  172.8480  138.0380 F   0  0  0  0  0  0  0  0  0  0  0  0
  1 54  1  1  0  0  0
  1 10  1  0  0  0  0
  1 28  1  0  0  0  0
  2 14  1  0  0  0  0
  3  9  1  0  0  0  0
  4  5  1  1  0  0  0
  4 15  1  0  0  0  0
  4 16  1  0  0  0  0
  5  3  1  0  0  0  0
  6 13  1  0  0  0  0
  6 10  1  0  0  0  0
  7 14  1  0  0  0  0
  8  5  2  0  0  0  0
  9 16  1  0  0  0  0
 10  7  1  0  0  0  0
 11 15  1  0  0  0  0
 13  2  1  0  0  0  0
 14 18  1  0  0  0  0
 15 17  1  0  0  0  0
 16  6  1  0  0  0  0
 16 12  1  0  0  0  0
 17 13  1  0  0  0  0
 18 19  1  0  0  0  0
 19 21  1  0  0  0  0
 20 19  2  0  0  0  0
 22 21  1  0  0  0  0
 23 26  1  0  0  0  0
 23 31  1  0  0  0  0
 24 30  1  0  0  0  0
 25 28  1  0  0  0  0
 25 23  1  0  0  0  0
 25 24  1  0  0  0  0
 26 27  1  0  0  0  0
 26 33  1  0  0  0  0
 27 29  2  0  0  0  0
 28 27  1  0  0  0  0
 30 31  1  0  0  0  0
 32 33  2  0  0  0  0
 33 36  1  0  0  0  0
 34 35  1  0  0  0  0
 35 33  1  0  0  0  0
 36 37  1  0  0  0  0
 37 49  1  0  0  0  0
 37 38  1  0  0  0  0
 38 40  2  0  0  0  0
 39 38  1  0  0  0  0
 39 42  1  0  0  0  0
 41 43  2  0  0  0  0
 43 45  1  0  0  0  0
 43 42  1  0  0  0  0
 44 47  2  0  0  0  0
 44 45  1  0  0  0  0
 45 46  1  0  0  0  0
 47 48  1  0  0  0  0
 48 46  2  0  0  0  0
 49 50  1  0  0  0  0
 51 49  1  0  0  0  0
 52 51  1  0  0  0  0
 54 53  2  0  0  0  0
 55 54  1  0  0  0  0
 56 58  1  0  0  0  0
 56 60  1  0  0  0  0
 57 56  1  0  0  0  0
 57 58  1  0  0  0  0
 58 55  1  0  0  0  0
 59 56  1  0  0  0  0
 61 55  1  0  0  0  0
 61 62  1  0  0  0  0
 63 64  1  0  0  0  0
 63 62  1  0  0  0  0
M  END
>  <MODEL>
3

>  <REMARK>
 VINA RESULT:      -5.7      2.988      5.769
  Name = 
  20 active torsions:
  status: ('A' for Active; 'I' for Inactive)
    1  A    between atoms: C_1  and  C_60
    2  A    between atoms: C_1  and  C_61
    3  A    between atoms: C_2  and  C_40
    4  A    between atoms: C_2  and  C_53
    5  A    between atoms: C_4  and  C_16
    6  A    between atoms: C_16  and  C_37
    7  A    between atoms: C_16  and  O_56
    8  A    between atoms: C_18  and  P_49
    9  A    between atoms: N_19  and  N_32
   10  A    between atoms: C_20  and  C_37
   11  A    between atoms: C_21  and  C_52
   12  A    between atoms: C_22  and  C_40
   13  A    between atoms: C_23  and  C_33
   14  A    between atoms: C_23  and  C_42
   15  A    between atoms: C_23  and  S_63
   16  A    between atoms: C_27  and  C_61
   17  A    between atoms: C_28  and  C_60
   18  A    between atoms: P_49  and  O_56
   19  A    between atoms: P_49  and  O_64
   20  A    between atoms: C_60  and  S_63
                            x       y       z     vdW  Elec       q    Type
                         _______ _______ _______ _____ _____    ______ ____

>  <TORSDO>
F 20

$$$$
=
 OpenBabel11062418233D

 64 70  0  0  1  0  0  0  0  0999 V2000
  192.4370  173.6130  143.1920 C   0  0  2  0  0  3  0  0  0  0  0  0
  192.5340  176.0720  146.7950 C   0  0  0  0  0  2  0  0  0  0  0  0
  195.8900  175.9200  141.7550 N   0  0  0  0  0  2  0  0  0  0  0  0
  195.6960  176.5060  144.0460 C   0  0  1  0  0  3  0  0  0  0  0  0
  196.4680  176.6850  142.7630 C   0  0  0  0  0  0  0  0  0  0  0  0
  193.8230  175.0630  144.7990 C   0  0  2  0  0  3  0  0  0  0  0  0
  191.6410  174.1040  145.6080 C   0  0  0  0  0  2  0  0  0  0  0  0
  197.6740  177.0180  142.6540 O   0  0  0  0  0  0  0  0  0  0  0  0
  195.1020  174.9770  142.4310 C   0  0  0  0  0  2  0  0  0  0  0  0
  192.4200  174.6030  144.3910 C   0  0  2  0  0  3  0  0  0  0  0  0
  196.4100  178.4060  145.1760 O   0  0  0  0  0  1  0  0  0  0  0  0
  193.5780  176.6860  143.0570 O   0  0  0  0  0  1  0  0  0  0  0  0
  193.8740  175.8660  146.1580 C   0  0  1  0  0  3  0  0  0  0  0  0
  191.5270  175.2260  146.5910 C   0  0  1  0  0  3  0  0  0  0  0  0
  195.2880  177.6650  144.8830 C   0  0  2  0  0  3  0  0  0  0  0  0
  194.4720  175.7770  143.5660 C   0  0  2  0  0  0  0  0  0  0  0  0
  194.6890  177.1790  146.1940 C   0  0  0  0  0  2  0  0  0  0  0  0
  190.5060  175.2920  147.6980 C   0  0  0  0  0  2  0  0  0  0  0  0
  189.0560  175.0410  147.2700 C   0  0  0  0  0  0  0  0  0  0  0  0
  188.4550  174.0710  147.7440 O   0  0  0  0  0  0  0  0  0  0  0  0
  188.3830  175.9290  146.2370 C   0  0  0  0  0  2  0  0  0  0  0  0
  187.1040  176.3560  146.6390 O   0  0  0  0  0  1  0  0  0  0  0  0
  189.8020  172.0610  141.2690 C   0  0  2  0  0  3  0  0  0  0  0  0
  189.0270  173.6530  142.7520 O   0  0  0  0  0  0  0  0  0  0  0  0
  190.1290  172.8540  142.5280 C   0  0  2  0  0  3  0  0  0  0  0  0
  190.9990  172.2180  140.3030 C   0  0  2  0  0  3  0  0  0  0  0  0
  191.6680  173.4590  140.8400 C   0  0  0  0  0  0  0  0  0  0  0  0
  191.2680  173.7720  142.2210 C   0  0  2  0  0  3  0  0  0  0  0  0
  192.6240  174.0150  140.2380 O   0  0  0  0  0  0  0  0  0  0  0  0
  188.0520  173.1110  141.9440 C   0  0  0  0  0  2  0  0  0  0  0  0
  188.6470  172.6700  140.7450 O   0  0  0  0  0  0  0  0  0  0  0  0
  189.6020  171.3060  137.8940 O   0  0  0  0  0  0  0  0  0  0  0  0
  190.6700  172.2620  138.4360 P   0  0  1  0  0  0  0  0  0  0  0  0
  188.8210  173.7880  137.6000 C   0  0  0  0  0  1  0  0  0  0  0  0
  190.1420  173.8470  138.1040 O   0  0  0  0  0  0  0  0  0  0  0  0
  192.1690  171.8090  137.7270 O   0  0  0  0  0  0  0  0  0  0  0  0
  192.0410  171.6800  136.3060 C   0  0  1  0  0  3  0  0  0  0  0  0
  193.2060  172.3770  135.6500 C   0  0  0  0  0  0  0  0  0  0  0  0
  194.0320  173.3220  136.3880 N   0  0  0  0  0  2  0  0  0  0  0  0
  193.5850  171.9820  134.5190 O   0  0  0  0  0  0  0  0  0  0  0  0
  192.9170  175.7230  137.1230 O   0  0  0  0  0  0  0  0  0  0  0  0
  194.4780  174.5310  135.8520 N   0  0  0  0  0  2  0  0  0  0  0  0
  193.8400  175.7510  136.2080 C   0  0  0  0  0  0  0  0  0  0  0  0
  193.0040  177.9370  135.1480 C   0  0  0  0  0  3  0  0  0  0  0  0
  194.0050  177.0330  135.5010 C   0  0  2  0  0  3  0  0  0  0  0  0
  195.1790  177.5350  135.0600 N   0  0  0  0  0  0  0  0  0  0  0  0
  193.5770  178.9890  134.5450 N   0  0  0  0  0  0  0  0  0  0  0  0
  194.9130  178.7270  134.5140 C   0  0  0  0  0  3  0  0  0  0  0  0
  192.1820  170.1610  135.9040 C   0  0  2  0  0  3  0  0  0  0  0  0
  191.0300  169.5170  135.3650 O   0  0  0  0  0  1  0  0  0  0  0  0
  193.2020  169.2120  136.6490 C   0  0  0  0  0  2  0  0  0  0  0  0
  194.1220  168.6500  135.6080 C   0  0  0  0  0  1  0  0  0  0  0  0
  192.7800  171.5580  145.0320 O   0  0  0  0  0  0  0  0  0  0  0  0
  192.9490  171.8680  143.4720 S   0  0  2  0  0  0  0  0  0  0  0  0
  194.6840  171.7790  143.1640 C   0  0  1  0  0  3  0  0  0  0  0  0
  196.3340  171.6860  145.6580 C   0  0  0  0  0  0  0  0  0  0  0  0
  196.6040  171.2780  144.2580 O   0  0  0  0  0  0  0  0  0  0  0  0
  195.2580  171.3070  144.5580 C   0  0  2  0  0  3  0  0  0  0  0  0
  197.2090  170.8490  146.3110 F   0  0  0  0  0  0  0  0  0  0  0  0
  196.3820  173.1300  145.9390 F   0  0  0  0  0  0  0  0  0  0  0  0
  194.7260  170.7360  141.9100 C   0  0  0  0  0  2  0  0  0  0  0  0
  195.8480  170.6870  140.8920 C   0  0  0  0  0  2  0  0  0  0  0  0
  195.9230  172.2300  140.3710 C   0  0  0  0  0  2  0  0  0  0  0  0
  197.1680  172.9450  140.7460 F   0  0  0  0  0  0  0  0  0  0  0  0
  1 54  1  1  0  0  0
  1 10  1  0  0  0  0
  3  9  1  0  0  0  0
  3  5  1  0  0  0  0
  4  5  1  6  0  0  0
  4 15  1  0  0  0  0
  6 13  1  0  0  0  0
  7 14  1  0  0  0  0
  8  5  2  0  0  0  0
  9 16  1  0  0  0  0
 10  6  1  0  0  0  0
 10  7  1  0  0  0  0
 12 16  1  0  0  0  0
 13 17  1  0  0  0  0
 13  2  1  0  0  0  0
 14  2  1  0  0  0  0
 14 18  1  0  0  0  0
 15 11  1  0  0  0  0
 15 17  1  0  0  0  0
 16  4  1  0  0  0  0
 16  6  1  0  0  0  0
 19 18  1  0  0  0  0
 19 20  2  0  0  0  0
 21 22  1  0  0  0  0
 21 19  1  0  0  0  0
 23 25  1  0  0  0  0
 25 24  1  0  0  0  0
 26 27  1  0  0  0  0
 26 23  1  0  0  0  0
 27 28  1  0  0  0  0
 28 25  1  0  0  0  0
 28  1  1  0  0  0  0
 29 27  2  0  0  0  0
 30 24  1  0  0  0  0
 31 23  1  0  0  0  0
 31 30  1  0  0  0  0
 32 33  2  0  0  0  0
 33 26  1  0  0  0  0
 34 35  1  0  0  0  0
 35 33  1  0  0  0  0
 36 33  1  0  0  0  0
 37 36  1  0  0  0  0
 38 37  1  0  0  0  0
 38 39  1  0  0  0  0
 40 38  2  0  0  0  0
 42 43  1  0  0  0  0
 42 39  1  0  0  0  0
 43 41  2  0  0  0  0
 44 45  1  0  0  0  0
 45 43  1  0  0  0  0
 46 45  1  0  0  0  0
 47 44  2  0  0  0  0
 48 47  1  0  0  0  0
 48 46  2  0  0  0  0
 49 37  1  0  0  0  0
 49 51  1  0  0  0  0
 50 49  1  0  0  0  0
 52 51  1  0  0  0  0
 54 53  2  0  0  0  0
 55 54  1  0  0  0  0
 55 58  1  0  0  0  0
 56 60  1  0  0  0  0
 56 59  1  0  0  0  0
 57 58  1  0  0  0  0
 57 56  1  0  0  0  0
 58 56  1  0  0  0  0
 61 55  1  0  0  0  0
 62 61  1  0  0  0  0
 63 64  1  0  0  0  0
 63 62  1  0  0  0  0
M  END
>  <MODEL>
4

>  <REMARK>
 VINA RESULT:      -5.6      3.118      7.383
  Name = 
  20 active torsions:
  status: ('A' for Active; 'I' for Inactive)
    1  A    between atoms: C_1  and  C_60
    2  A    between atoms: C_1  and  C_61
    3  A    between atoms: C_2  and  C_40
    4  A    between atoms: C_2  and  C_53
    5  A    between atoms: C_4  and  C_16
    6  A    between atoms: C_16  and  C_37
    7  A    between atoms: C_16  and  O_56
    8  A    between atoms: C_18  and  P_49
    9  A    between atoms: N_19  and  N_32
   10  A    between atoms: C_20  and  C_37
   11  A    between atoms: C_21  and  C_52
   12  A    between atoms: C_22  and  C_40
   13  A    between atoms: C_23  and  C_33
   14  A    between atoms: C_23  and  C_42
   15  A    between atoms: C_23  and  S_63
   16  A    between atoms: C_27  and  C_61
   17  A    between atoms: C_28  and  C_60
   18  A    between atoms: P_49  and  O_56
   19  A    between atoms: P_49  and  O_64
   20  A    between atoms: C_60  and  S_63
                            x       y       z     vdW  Elec       q    Type
                         _______ _______ _______ _____ _____    ______ ____

>  <TORSDO>
F 20

$$$$
=
 OpenBabel11062418233D

 64 70  0  0  1  0  0  0  0  0999 V2000
  192.1150  174.8450  143.2820 C   0  0  2  0  0  3  0  0  0  0  0  0
  189.9680  171.6850  141.1750 C   0  0  0  0  0  2  0  0  0  0  0  0
  194.5800  171.6960  145.1010 N   0  0  0  0  0  2  0  0  0  0  0  0
  193.3990  170.5960  143.3610 C   0  0  1  0  0  3  0  0  0  0  0  0
  194.4150  170.4670  144.4690 C   0  0  0  0  0  0  0  0  0  0  0  0
  192.1490  172.4650  142.3120 C   0  0  2  0  0  3  0  0  0  0  0  0
  190.4210  174.0900  141.4720 C   0  0  0  0  0  2  0  0  0  0  0  0
  195.3360  169.6180  144.5460 O   0  0  0  0  0  0  0  0  0  0  0  0
  194.0710  172.6350  144.1920 C   0  0  0  0  0  2  0  0  0  0  0  0
  191.2880  173.6820  142.6630 C   0  0  2  0  0  3  0  0  0  0  0  0
  192.8430  168.3550  143.1080 O   0  0  0  0  0  1  0  0  0  0  0  0
  191.8670  171.8560  144.6100 O   0  0  0  0  0  1  0  0  0  0  0  0
  191.4030  171.3650  141.4600 C   0  0  1  0  0  3  0  0  0  0  0  0
  189.5310  172.9400  141.1180 C   0  0  1  0  0  3  0  0  0  0  0  0
  192.2950  169.6140  143.1930 C   0  0  2  0  0  3  0  0  0  0  0  0
  192.8240  171.9580  143.6310 C   0  0  2  0  0  0  0  0  0  0  0  0
  191.5430  169.8890  141.9000 C   0  0  0  0  0  2  0  0  0  0  0  0
  188.2640  173.0580  140.3090 C   0  0  0  0  0  2  0  0  0  0  0  0
  188.3250  174.0350  139.1310 C   0  0  0  0  0  0  0  0  0  0  0  0
  187.7930  175.1440  139.2490 O   0  0  0  0  0  0  0  0  0  0  0  0
  188.9760  173.6340  137.8180 C   0  0  0  0  0  2  0  0  0  0  0  0
  189.1200  172.2400  137.6870 O   0  0  0  0  0  1  0  0  0  0  0  0
  189.7550  174.6070  146.0070 C   0  0  2  0  0  3  0  0  0  0  0  0
  191.9280  174.9460  146.7140 O   0  0  0  0  0  0  0  0  0  0  0  0
  191.2230  174.5040  145.6130 C   0  0  2  0  0  3  0  0  0  0  0  0
  189.0300  175.3790  144.8820 C   0  0  2  0  0  3  0  0  0  0  0  0
  190.1770  176.0860  144.2030 C   0  0  0  0  0  0  0  0  0  0  0  0
  191.4830  175.4870  144.5160 C   0  0  2  0  0  3  0  0  0  0  0  0
  189.9910  176.9450  143.3020 O   0  0  0  0  0  0  0  0  0  0  0  0
  190.9980  174.9420  147.7290 C   0  0  0  0  0  2  0  0  0  0  0  0
  189.7510  175.3410  147.2070 O   0  0  0  0  0  0  0  0  0  0  0  0
  186.7280  176.1060  146.5420 O   0  0  0  0  0  0  0  0  0  0  0  0
  187.5800  176.5130  145.3350 P   0  0  1  0  0  0  0  0  0  0  0  0
  188.1820  178.2430  147.0940 C   0  0  0  0  0  1  0  0  0  0  0  0
  188.2800  178.0230  145.6990 O   0  0  0  0  0  0  0  0  0  0  0  0
  186.5580  176.4750  143.9540 O   0  0  0  0  0  0  0  0  0  0  0  0
  186.3060  177.8000  143.4700 C   0  0  1  0  0  3  0  0  0  0  0  0
  185.5230  177.7050  142.1850 C   0  0  0  0  0  0  0  0  0  0  0  0
  184.3900  178.5830  141.9260 N   0  0  0  0  0  2  0  0  0  0  0  0
  185.9810  177.0020  141.2500 O   0  0  0  0  0  0  0  0  0  0  0  0
  181.9730  179.7050  142.5930 O   0  0  0  0  0  0  0  0  0  0  0  0
  183.1960  178.1440  141.3530 N   0  0  0  0  0  2  0  0  0  0  0  0
  181.9560  178.7050  141.7640 C   0  0  0  0  0  0  0  0  0  0  0  0
  180.0000  178.0540  140.2300 C   0  0  0  0  0  3  0  0  0  0  0  0
  180.6290  178.1360  141.4710 C   0  0  2  0  0  3  0  0  0  0  0  0
  179.7890  177.6050  142.3860 N   0  0  0  0  0  0  0  0  0  0  0  0
  178.8180  177.4420  140.3920 N   0  0  0  0  0  0  0  0  0  0  0  0
  178.7150  177.1630  141.7210 C   0  0  0  0  0  3  0  0  0  0  0  0
  185.3610  178.5550  144.4820 C   0  0  2  0  0  3  0  0  0  0  0  0
  185.7880  179.8340  144.9460 O   0  0  0  0  0  1  0  0  0  0  0  0
  184.4180  177.7570  145.4670 C   0  0  0  0  0  2  0  0  0  0  0  0
  184.3910  178.5150  146.7600 C   0  0  0  0  0  1  0  0  0  0  0  0
  193.2800  175.2790  140.7960 O   0  0  0  0  0  0  0  0  0  0  0  0
  192.9640  176.0380  142.1670 S   0  0  2  0  0  0  0  0  0  0  0  0
  194.5390  176.3870  142.8800 C   0  0  1  0  0  3  0  0  0  0  0  0
  194.8060  176.3170  145.8590 C   0  0  0  0  0  0  0  0  0  0  0  0
  195.6550  175.7970  144.7610 O   0  0  0  0  0  0  0  0  0  0  0  0
  194.3380  175.9610  144.3880 C   0  0  2  0  0  3  0  0  0  0  0  0
  195.1770  175.4520  146.8630 F   0  0  0  0  0  0  0  0  0  0  0  0
  194.8690  177.7660  146.1040 F   0  0  0  0  0  0  0  0  0  0  0  0
  195.5170  175.4830  141.9370 C   0  0  0  0  0  2  0  0  0  0  0  0
  196.5440  176.0650  140.9860 C   0  0  0  0  0  2  0  0  0  0  0  0
  197.6770  174.8930  140.9260 C   0  0  0  0  0  2  0  0  0  0  0  0
  197.1670  173.5300  141.2170 F   0  0  0  0  0  0  0  0  0  0  0  0
  1 54  1  6  0  0  0
  1 28  1  0  0  0  0
  2 13  1  0  0  0  0
  4 16  1  0  0  0  0
  4  5  1  1  0  0  0
  5  8  2  0  0  0  0
  5  3  1  0  0  0  0
  6 10  1  0  0  0  0
  6 16  1  0  0  0  0
  7 10  1  0  0  0  0
  9  3  1  0  0  0  0
 10  1  1  0  0  0  0
 11 15  1  0  0  0  0
 13 17  1  0  0  0  0
 13  6  1  0  0  0  0
 14  2  1  0  0  0  0
 14  7  1  0  0  0  0
 15  4  1  0  0  0  0
 16  9  1  0  0  0  0
 16 12  1  0  0  0  0
 17 15  1  0  0  0  0
 18 14  1  0  0  0  0
 19 20  2  0  0  0  0
 19 18  1  0  0  0  0
 21 19  1  0  0  0  0
 22 21  1  0  0  0  0
 23 31  1  0  0  0  0
 24 30  1  0  0  0  0
 25 23  1  0  0  0  0
 25 24  1  0  0  0  0
 26 33  1  0  0  0  0
 26 23  1  0  0  0  0
 27 28  1  0  0  0  0
 27 26  1  0  0  0  0
 28 25  1  0  0  0  0
 29 27  2  0  0  0  0
 31 30  1  0  0  0  0
 33 35  1  0  0  0  0
 33 32  2  0  0  0  0
 35 34  1  0  0  0  0
 36 33  1  0  0  0  0
 37 36  1  0  0  0  0
 37 49  1  0  0  0  0
 38 37  1  0  0  0  0
 39 38  1  0  0  0  0
 40 38  2  0  0  0  0
 42 43  1  0  0  0  0
 42 39  1  0  0  0  0
 43 41  2  0  0  0  0
 44 47  2  0  0  0  0
 44 45  1  0  0  0  0
 45 43  1  0  0  0  0
 45 46  1  0  0  0  0
 47 48  1  0  0  0  0
 48 46  2  0  0  0  0
 49 50  1  0  0  0  0
 49 51  1  0  0  0  0
 51 52  1  0  0  0  0
 53 54  2  0  0  0  0
 54 55  1  0  0  0  0
 55 58  1  0  0  0  0
 56 60  1  0  0  0  0
 56 59  1  0  0  0  0
 57 56  1  0  0  0  0
 58 57  1  0  0  0  0
 58 56  1  0  0  0  0
 61 55  1  0  0  0  0
 62 61  1  0  0  0  0
 63 62  1  0  0  0  0
 63 64  1  0  0  0  0
M  END
>  <MODEL>
5

>  <REMARK>
 VINA RESULT:      -5.5      3.348      5.842
  Name = 
  20 active torsions:
  status: ('A' for Active; 'I' for Inactive)
    1  A    between atoms: C_1  and  C_60
    2  A    between atoms: C_1  and  C_61
    3  A    between atoms: C_2  and  C_40
    4  A    between atoms: C_2  and  C_53
    5  A    between atoms: C_4  and  C_16
    6  A    between atoms: C_16  and  C_37
    7  A    between atoms: C_16  and  O_56
    8  A    between atoms: C_18  and  P_49
    9  A    between atoms: N_19  and  N_32
   10  A    between atoms: C_20  and  C_37
   11  A    between atoms: C_21  and  C_52
   12  A    between atoms: C_22  and  C_40
   13  A    between atoms: C_23  and  C_33
   14  A    between atoms: C_23  and  C_42
   15  A    between atoms: C_23  and  S_63
   16  A    between atoms: C_27  and  C_61
   17  A    between atoms: C_28  and  C_60
   18  A    between atoms: P_49  and  O_56
   19  A    between atoms: P_49  and  O_64
   20  A    between atoms: C_60  and  S_63
                            x       y       z     vdW  Elec       q    Type
                         _______ _______ _______ _____ _____    ______ ____

>  <TORSDO>
F 20

$$$$
=
 OpenBabel11062418233D

 64 70  0  0  1  0  0  0  0  0999 V2000
  192.0810  173.8750  141.9350 C   0  0  2  0  0  3  0  0  0  0  0  0
  192.6800  172.0020  138.0400 C   0  0  0  0  0  2  0  0  0  0  0  0
  193.8000  170.2510  143.7290 N   0  0  0  0  0  2  0  0  0  0  0  0
  194.2800  170.0530  141.4130 C   0  0  1  0  0  3  0  0  0  0  0  0
  194.4220  169.4410  142.7850 C   0  0  0  0  0  0  0  0  0  0  0  0
  193.4010  172.1910  140.5110 C   0  0  2  0  0  3  0  0  0  0  0  0
  192.1140  174.0140  139.3480 C   0  0  0  0  0  2  0  0  0  0  0  0
  195.3220  168.6520  143.1630 O   0  0  0  0  0  0  0  0  0  0  0  0
  193.6730  171.4990  143.1000 C   0  0  0  0  0  2  0  0  0  0  0  0
  192.1810  173.1150  140.5820 C   0  0  2  0  0  3  0  0  0  0  0  0
  194.6920  168.1670  140.1220 O   0  0  0  0  0  1  0  0  0  0  0  0
  192.0150  170.6070  141.6530 O   0  0  0  0  0  1  0  0  0  0  0  0
  193.6800  171.5920  139.0770 C   0  0  1  0  0  3  0  0  0  0  0  0
  192.0070  173.1460  138.1340 C   0  0  1  0  0  3  0  0  0  0  0  0
  193.8510  169.2500  140.2380 C   0  0  2  0  0  3  0  0  0  0  0  0
  193.2780  171.1450  141.6700 C   0  0  2  0  0  0  0  0  0  0  0  0
  193.9710  170.0780  138.9680 C   0  0  0  0  0  2  0  0  0  0  0  0
  191.5030  173.6120  136.7920 C   0  0  0  0  0  2  0  0  0  0  0  0
  190.0350  174.0510  136.7580 C   0  0  0  0  0  0  0  0  0  0  0  0
  189.3440  173.8970  137.7710 O   0  0  0  0  0  0  0  0  0  0  0  0
  189.4170  174.6120  135.4890 C   0  0  0  0  0  2  0  0  0  0  0  0
  189.8030  175.9420  135.2390 O   0  0  0  0  0  1  0  0  0  0  0  0
  188.5770  174.3310  141.1840 C   0  0  2  0  0  3  0  0  0  0  0  0
  188.9900  172.4820  142.5040 O   0  0  0  0  0  0  0  0  0  0  0  0
  189.6380  173.3370  141.6380 C   0  0  2  0  0  3  0  0  0  0  0  0
  189.1560  175.7490  141.3910 C   0  0  2  0  0  3  0  0  0  0  0  0
  190.2560  175.4900  142.3900 C   0  0  0  0  0  0  0  0  0  0  0  0
  190.6550  174.0750  142.4470 C   0  0  2  0  0  3  0  0  0  0  0  0
  190.8950  176.4280  142.9360 O   0  0  0  0  0  0  0  0  0  0  0  0
  187.6540  172.7280  142.2780 C   0  0  0  0  0  2  0  0  0  0  0  0
  187.4790  174.1050  142.0330 O   0  0  0  0  0  0  0  0  0  0  0  0
  188.4970  178.5880  141.6900 O   0  0  0  0  0  0  0  0  0  0  0  0
  187.9830  177.1560  141.8770 P   0  0  1  0  0  0  0  0  0  0  0  0
  187.0150  177.1610  139.5300 C   0  0  0  0  0  1  0  0  0  0  0  0
  186.6170  176.9770  140.8760 O   0  0  0  0  0  0  0  0  0  0  0  0
  187.7130  176.9270  143.5590 O   0  0  0  0  0  0  0  0  0  0  0  0
  186.7520  177.8670  144.0540 C   0  0  1  0  0  3  0  0  0  0  0  0
  185.4010  177.5270  143.4770 C   0  0  0  0  0  0  0  0  0  0  0  0
  184.6290  178.5120  142.7340 N   0  0  0  0  0  2  0  0  0  0  0  0
  185.0370  176.3250  143.4650 O   0  0  0  0  0  0  0  0  0  0  0  0
  182.8680  177.9040  140.7150 O   0  0  0  0  0  0  0  0  0  0  0  0
  183.2520  178.6800  142.8880 N   0  0  0  0  0  2  0  0  0  0  0  0
  182.3720  178.4130  141.8030 C   0  0  0  0  0  0  0  0  0  0  0  0
  180.3640  179.6270  140.7570 C   0  0  0  0  0  3  0  0  0  0  0  0
  180.9610  178.8290  141.7320 C   0  0  2  0  0  3  0  0  0  0  0  0
  180.0060  178.5080  142.6320 N   0  0  0  0  0  0  0  0  0  0  0  0
  179.0600  179.7440  141.0440 N   0  0  0  0  0  0  0  0  0  0  0  0
  178.8600  179.0380  142.1910 C   0  0  0  0  0  3  0  0  0  0  0  0
  186.5980  177.6860  145.6130 C   0  0  2  0  0  3  0  0  0  0  0  0
  187.6190  176.9570  146.2920 O   0  0  0  0  0  1  0  0  0  0  0  0
  185.1720  177.6460  146.2920 C   0  0  0  0  0  2  0  0  0  0  0  0
  184.9610  178.9740  146.9530 C   0  0  0  0  0  1  0  0  0  0  0  0
  194.1300  175.4820  140.9630 O   0  0  0  0  0  0  0  0  0  0  0  0
  193.1990  175.3020  142.2510 S   0  0  2  0  0  0  0  0  0  0  0  0
  194.2910  174.8300  143.5530 C   0  0  1  0  0  3  0  0  0  0  0  0
  197.1250  175.7890  143.5400 C   0  0  0  0  0  0  0  0  0  0  0  0
  195.8360  176.4650  143.8220 O   0  0  0  0  0  0  0  0  0  0  0  0
  195.6910  175.3430  143.0320 C   0  0  2  0  0  3  0  0  0  0  0  0
  197.8670  176.8740  143.1340 F   0  0  0  0  0  0  0  0  0  0  0  0
  197.6520  174.9180  144.6010 F   0  0  0  0  0  0  0  0  0  0  0  0
  193.6060  175.5880  144.8250 C   0  0  0  0  0  2  0  0  0  0  0  0
  193.3920  174.9370  146.1790 C   0  0  0  0  0  2  0  0  0  0  0  0
  192.3740  175.9760  146.9150 C   0  0  0  0  0  2  0  0  0  0  0  0
  191.3220  176.5360  146.0310 F   0  0  0  0  0  0  0  0  0  0  0  0
  1 54  1  6  0  0  0
  1 28  1  0  0  0  0
  2 14  1  0  0  0  0
  2 13  1  0  0  0  0
  4 16  1  0  0  0  0
  4  5  1  1  0  0  0
  5  8  2  0  0  0  0
  5  3  1  0  0  0  0
  6 10  1  0  0  0  0
  6 16  1  0  0  0  0
  7 10  1  0  0  0  0
  9  3  1  0  0  0  0
 10  1  1  0  0  0  0
 11 15  1  0  0  0  0
 12 16  1  0  0  0  0
 13  6  1  0  0  0  0
 14  7  1  0  0  0  0
 15  4  1  0  0  0  0
 16  9  1  0  0  0  0
 17 13  1  0  0  0  0
 17 15  1  0  0  0  0
 18 14  1  0  0  0  0
 19 18  1  0  0  0  0
 19 20  2  0  0  0  0
 21 19  1  0  0  0  0
 22 21  1  0  0  0  0
 23 26  1  0  0  0  0
 23 25  1  0  0  0  0
 23 31  1  0  0  0  0
 25 28  1  0  0  0  0
 25 24  1  0  0  0  0
 26 33  1  0  0  0  0
 26 27  1  0  0  0  0
 27 28  1  0  0  0  0
 27 29  2  0  0  0  0
 30 24  1  0  0  0  0
 31 30  1  0  0  0  0
 32 33  2  0  0  0  0
 33 36  1  0  0  0  0
 34 35  1  0  0  0  0
 35 33  1  0  0  0  0
 36 37  1  0  0  0  0
 37 49  1  0  0  0  0
 38 37  1  0  0  0  0
 39 42  1  0  0  0  0
 39 38  1  0  0  0  0
 40 38  2  0  0  0  0
 41 43  2  0  0  0  0
 43 42  1  0  0  0  0
 44 47  2  0  0  0  0
 44 45  1  0  0  0  0
 45 43  1  0  0  0  0
 45 46  1  0  0  0  0
 47 48  1  0  0  0  0
 48 46  2  0  0  0  0
 49 51  1  0  0  0  0
 49 50  1  0  0  0  0
 51 52  1  0  0  0  0
 53 54  2  0  0  0  0
 54 55  1  0  0  0  0
 55 61  1  0  0  0  0
 56 57  1  0  0  0  0
 56 60  1  0  0  0  0
 58 56  1  0  0  0  0
 58 55  1  0  0  0  0
 58 57  1  0  0  0  0
 59 56  1  0  0  0  0
 61 62  1  0  0  0  0
 62 63  1  0  0  0  0
 64 63  1  0  0  0  0
M  END
>  <MODEL>
6

>  <REMARK>
 VINA RESULT:      -5.3      3.344      5.628
  Name = 
  20 active torsions:
  status: ('A' for Active; 'I' for Inactive)
    1  A    between atoms: C_1  and  C_60
    2  A    between atoms: C_1  and  C_61
    3  A    between atoms: C_2  and  C_40
    4  A    between atoms: C_2  and  C_53
    5  A    between atoms: C_4  and  C_16
    6  A    between atoms: C_16  and  C_37
    7  A    between atoms: C_16  and  O_56
    8  A    between atoms: C_18  and  P_49
    9  A    between atoms: N_19  and  N_32
   10  A    between atoms: C_20  and  C_37
   11  A    between atoms: C_21  and  C_52
   12  A    between atoms: C_22  and  C_40
   13  A    between atoms: C_23  and  C_33
   14  A    between atoms: C_23  and  C_42
   15  A    between atoms: C_23  and  S_63
   16  A    between atoms: C_27  and  C_61
   17  A    between atoms: C_28  and  C_60
   18  A    between atoms: P_49  and  O_56
   19  A    between atoms: P_49  and  O_64
   20  A    between atoms: C_60  and  S_63
                            x       y       z     vdW  Elec       q    Type
                         _______ _______ _______ _____ _____    ______ ____

>  <TORSDO>
F 20

$$$$
=
 OpenBabel11062418233D

 64 70  0  0  1  0  0  0  0  0999 V2000
  193.8150  172.9960  141.0530 C   0  0  2  0  0  3  0  0  0  0  0  0
  192.4080  169.1380  142.5290 C   0  0  0  0  0  2  0  0  0  0  0  0
  195.8560  173.5110  144.9100 N   0  0  0  0  0  2  0  0  0  0  0  0
  195.2050  171.2290  144.8820 C   0  0  1  0  0  3  0  0  0  0  0  0
  195.9070  172.3280  145.6410 C   0  0  0  0  0  0  0  0  0  0  0  0
  194.1920  171.0010  142.6290 C   0  0  2  0  0  3  0  0  0  0  0  0
  192.6720  170.7060  140.6440 C   0  0  0  0  0  2  0  0  0  0  0  0
  196.8110  172.1870  146.5000 O   0  0  0  0  0  0  0  0  0  0  0  0
  195.5590  173.1080  143.6000 C   0  0  0  0  0  2  0  0  0  0  0  0
  193.2220  171.6980  141.6700 C   0  0  2  0  0  3  0  0  0  0  0  0
  194.8210  169.7560  146.6370 O   0  0  0  0  0  1  0  0  0  0  0  0
  193.3550  172.5320  144.2680 O   0  0  0  0  0  1  0  0  0  0  0  0
  193.7330  169.5600  143.0840 C   0  0  1  0  0  3  0  0  0  0  0  0
  191.9500  169.6180  141.3750 C   0  0  0  0  0  0  0  0  0  0  0  0
  194.2210  170.3300  145.5400 C   0  0  2  0  0  3  0  0  0  0  0  0
  194.5260  172.0020  143.7860 C   0  0  2  0  0  0  0  0  0  0  0  0
  193.8150  169.2140  144.5890 C   0  0  0  0  0  2  0  0  0  0  0  0
  190.9290  168.7020  140.7510 C   0  0  0  0  0  3  0  0  0  0  0  0
  190.6070  168.9820  139.2790 C   0  0  0  0  0  0  0  0  0  0  0  0
  189.7450  169.8260  139.0080 O   0  0  0  0  0  0  0  0  0  0  0  0
  191.2890  168.2000  138.1690 C   0  0  0  0  0  2  0  0  0  0  0  0
  192.0990  169.0110  137.3530 O   0  0  0  0  0  1  0  0  0  0  0  0
  191.0840  174.7960  142.5870 C   0  0  2  0  0  3  0  0  0  0  0  0
  192.9740  176.0910  142.2910 O   0  0  0  0  0  0  0  0  0  0  0  0
  192.5900  174.7680  142.3590 C   0  0  2  0  0  3  0  0  0  0  0  0
  190.4420  173.8630  141.5360 C   0  0  2  0  0  3  0  0  0  0  0  0
  191.5300  173.7770  140.4940 C   0  0  0  0  0  0  0  0  0  0  0  0
  192.8480  174.1780  141.0100 C   0  0  2  0  0  3  0  0  0  0  0  0
  191.3470  173.2110  139.3840 O   0  0  0  0  0  0  0  0  0  0  0  0
  191.8900  176.7780  142.7910 C   0  0  0  0  0  2  0  0  0  0  0  0
  190.7080  176.1330  142.3720 O   0  0  0  0  0  0  0  0  0  0  0  0
  188.5660  174.2390  139.3170 O   0  0  0  0  0  0  0  0  0  0  0  0
  188.7350  174.3040  140.8390 P   0  0  1  0  0  0  0  0  0  0  0  0
  188.3700  172.3670  142.4390 C   0  0  0  0  0  1  0  0  0  0  0  0
  187.6600  173.1690  141.5140 O   0  0  0  0  0  0  0  0  0  0  0  0
  188.4910  175.9400  141.3090 O   0  0  0  0  0  0  0  0  0  0  0  0
  187.1120  176.1810  141.6160 C   0  0  1  0  0  3  0  0  0  0  0  0
  186.9640  176.3130  143.1100 C   0  0  0  0  0  0  0  0  0  0  0  0
  187.9290  177.0670  143.8990 N   0  0  0  0  0  0  0  0  0  0  0  0
  185.8900  175.9410  143.6440 O   0  0  0  0  0  0  0  0  0  0  0  0
  190.0900  178.2640  145.0980 O   0  0  0  0  0  0  0  0  0  0  0  0
  188.4150  176.6320  145.1330 N   0  0  0  0  0  0  0  0  0  0  0  0
  189.5720  177.2340  145.6990 C   0  0  0  0  0  0  0  0  0  0  0  0
  190.8710  177.3780  147.9110 C   0  0  0  0  0  3  0  0  0  0  0  0
  190.3540  176.6830  146.8190 C   0  0  0  0  0  0  0  0  0  0  0  0
  190.7140  175.3880  146.9570 N   0  0  0  0  0  0  0  0  0  0  0  0
  191.4920  176.5040  148.7150 N   0  0  0  0  0  2  0  0  0  0  0  0
  191.3720  175.2870  148.1170 C   0  0  0  0  0  3  0  0  0  0  0  0
  186.6830  177.5790  141.0270 C   0  0  2  0  0  3  0  0  0  0  0  0
  186.9980  178.7380  141.7960 O   0  0  0  0  0  1  0  0  0  0  0  0
  185.4220  177.7150  140.0840 C   0  0  0  0  0  2  0  0  0  0  0  0
  184.3280  178.3350  140.8990 C   0  0  0  0  0  1  0  0  0  0  0  0
  196.1860  171.9940  140.0030 O   0  0  0  0  0  0  0  0  0  0  0  0
  194.9160  172.8720  139.5840 S   0  0  2  0  0  0  0  0  0  0  0  0
  195.5500  174.4880  139.2700 C   0  0  1  0  0  3  0  0  0  0  0  0
  193.4300  175.2460  137.3010 C   0  0  0  0  0  0  0  0  0  0  0  0
  194.8710  175.5790  137.4050 O   0  0  0  0  0  0  0  0  0  0  0  0
  194.3140  175.2220  138.6150 C   0  0  2  0  0  3  0  0  0  0  0  0
  192.9940  176.3430  136.5930 F   0  0  0  0  0  0  0  0  0  0  0  0
  193.1040  173.9000  136.8050 F   0  0  0  0  0  0  0  0  0  0  0  0
  196.0210  174.9350  140.7670 C   0  0  0  0  0  2  0  0  0  0  0  0
  196.6740  176.2670  141.0820 C   0  0  0  0  0  2  0  0  0  0  0  0
  196.3500  176.4550  142.6700 C   0  0  0  0  0  2  0  0  0  0  0  0
  197.4340  176.0000  143.5750 F   0  0  0  0  0  0  0  0  0  0  0  0
  1 54  1  6  0  0  0
  1 10  1  0  0  0  0
  2 13  1  0  0  0  0
  3  5  1  0  0  0  0
  4 15  1  0  0  0  0
  4  5  1  1  0  0  0
  5  8  2  0  0  0  0
  6 13  1  0  0  0  0
  6 16  1  0  0  0  0
  7 14  1  0  0  0  0
  7 10  1  0  0  0  0
  9 16  1  0  0  0  0
  9  3  1  0  0  0  0
 10  6  1  0  0  0  0
 13 17  1  0  0  0  0
 14  2  1  0  0  0  0
 15 11  1  0  0  0  0
 16 12  1  0  0  0  0
 16  4  1  0  0  0  0
 17 15  1  0  0  0  0
 18 14  2  0  0  0  0
 19 18  1  0  0  0  0
 20 19  2  0  0  0  0
 21 19  1  0  0  0  0
 22 21  1  0  0  0  0
 24 25  1  0  0  0  0
 24 30  1  0  0  0  0
 25 23  1  0  0  0  0
 26 23  1  0  0  0  0
 27 28  1  0  0  0  0
 27 26  1  0  0  0  0
 28  1  1  0  0  0  0
 28 25  1  0  0  0  0
 29 27  2  0  0  0  0
 31 23  1  0  0  0  0
 31 30  1  0  0  0  0
 32 33  2  0  0  0  0
 33 36  1  0  0  0  0
 33 35  1  0  0  0  0
 33 26  1  0  0  0  0
 35 34  1  0  0  0  0
 36 37  1  0  0  0  0
 37 38  1  0  0  0  0
 38 40  2  0  0  0  0
 38 39  1  0  0  0  0
 39 42  2  0  0  0  0
 41 43  2  0  0  0  0
 42 43  1  0  0  0  0
 43 45  1  0  0  0  0
 44 47  1  0  0  0  0
 45 46  1  0  0  0  0
 45 44  2  0  0  0  0
 46 48  2  0  0  0  0
 48 47  1  0  0  0  0
 49 37  1  0  0  0  0
 49 50  1  0  0  0  0
 51 52  1  0  0  0  0
 51 49  1  0  0  0  0
 54 53  2  0  0  0  0
 55 54  1  0  0  0  0
 55 61  1  0  0  0  0
 56 57  1  0  0  0  0
 56 58  1  0  0  0  0
 57 58  1  0  0  0  0
 58 55  1  0  0  0  0
 59 56  1  0  0  0  0
 60 56  1  0  0  0  0
 61 62  1  0  0  0  0
 62 63  1  0  0  0  0
 63 64  1  0  0  0  0
M  END
>  <MODEL>
7

>  <REMARK>
 VINA RESULT:      -5.3      3.124      7.070
  Name = 
  20 active torsions:
  status: ('A' for Active; 'I' for Inactive)
    1  A    between atoms: C_1  and  C_60
    2  A    between atoms: C_1  and  C_61
    3  A    between atoms: C_2  and  C_40
    4  A    between atoms: C_2  and  C_53
    5  A    between atoms: C_4  and  C_16
    6  A    between atoms: C_16  and  C_37
    7  A    between atoms: C_16  and  O_56
    8  A    between atoms: C_18  and  P_49
    9  A    between atoms: N_19  and  N_32
   10  A    between atoms: C_20  and  C_37
   11  A    between atoms: C_21  and  C_52
   12  A    between atoms: C_22  and  C_40
   13  A    between atoms: C_23  and  C_33
   14  A    between atoms: C_23  and  C_42
   15  A    between atoms: C_23  and  S_63
   16  A    between atoms: C_27  and  C_61
   17  A    between atoms: C_28  and  C_60
   18  A    between atoms: P_49  and  O_56
   19  A    between atoms: P_49  and  O_64
   20  A    between atoms: C_60  and  S_63
                            x       y       z     vdW  Elec       q    Type
                         _______ _______ _______ _____ _____    ______ ____

>  <TORSDO>
F 20

$$$$
=
 OpenBabel11062418233D

 64 70  0  0  1  0  0  0  0  0999 V2000
  193.4860  173.6250  143.0890 C   0  0  2  0  0  3  0  0  0  0  0  0
  194.1230  173.1200  138.8020 C   0  0  0  0  0  2  0  0  0  0  0  0
  190.7210  170.2160  142.8860 N   0  0  0  0  0  2  0  0  0  0  0  0
  191.8510  170.1900  140.7990 C   0  0  1  0  0  3  0  0  0  0  0  0
  190.8270  169.5230  141.6850 C   0  0  0  0  0  0  0  0  0  0  0  0
  193.4740  172.0490  141.0590 C   0  0  2  0  0  3  0  0  0  0  0  0
  194.7880  174.1910  140.9200 C   0  0  0  0  0  2  0  0  0  0  0  0
  190.4750  168.3180  141.6470 O   0  0  0  0  0  0  0  0  0  0  0  0
  191.8940  170.9820  142.9610 C   0  0  0  0  0  2  0  0  0  0  0  0
  193.5740  173.4990  141.5410 C   0  0  2  0  0  3  0  0  0  0  0  0
  191.2030  169.3040  138.7520 O   0  0  0  0  0  1  0  0  0  0  0  0
  191.1070  172.3750  141.2080 O   0  0  0  0  0  1  0  0  0  0  0  0
  193.8050  171.8490  139.5280 C   0  0  1  0  0  3  0  0  0  0  0  0
  194.6340  174.1740  139.4320 C   0  0  1  0  0  3  0  0  0  0  0  0
  191.5790  170.4760  139.3660 C   0  0  2  0  0  3  0  0  0  0  0  0
  192.0950  171.4790  141.5340 C   0  0  2  0  0  0  0  0  0  0  0  0
  192.8420  170.9800  138.6850 C   0  0  0  0  0  2  0  0  0  0  0  0
  195.3650  175.0930  138.4870 C   0  0  0  0  0  2  0  0  0  0  0  0
  194.6700  175.3410  137.1440 C   0  0  0  0  0  0  0  0  0  0  0  0
  193.4950  175.7240  137.1430 O   0  0  0  0  0  0  0  0  0  0  0  0
  195.3870  175.0680  135.8330 C   0  0  0  0  0  2  0  0  0  0  0  0
  196.7610  174.8190  136.0070 O   0  0  0  0  0  1  0  0  0  0  0  0
  190.8680  175.2660  144.9610 C   0  0  2  0  0  3  0  0  0  0  0  0
  192.9870  175.7720  145.7280 O   0  0  0  0  0  0  0  0  0  0  0  0
  192.3250  174.8230  144.9770 C   0  0  2  0  0  3  0  0  0  0  0  0
  190.4050  175.2710  143.4860 C   0  0  2  0  0  3  0  0  0  0  0  0
  191.7200  175.3310  142.7490 C   0  0  0  0  0  0  0  0  0  0  0  0
  192.8620  174.9280  143.5850 C   0  0  2  0  0  3  0  0  0  0  0  0
  191.7790  175.4940  141.5030 O   0  0  0  0  0  0  0  0  0  0  0  0
  191.9760  176.4550  146.3670 C   0  0  0  0  0  2  0  0  0  0  0  0
  190.8780  176.5680  145.4910 O   0  0  0  0  0  0  0  0  0  0  0  0
  189.6590  177.9980  142.7190 O   0  0  0  0  0  0  0  0  0  0  0  0
  189.1430  176.5710  142.9260 P   0  0  1  0  0  0  0  0  0  0  0  0
  188.2380  174.6490  141.5350 C   0  0  0  0  0  1  0  0  0  0  0  0
  188.5610  176.0220  141.4230 O   0  0  0  0  0  0  0  0  0  0  0  0
  187.9910  176.6250  144.2010 O   0  0  0  0  0  0  0  0  0  0  0  0
  187.1040  177.7390  144.0380 C   0  0  1  0  0  3  0  0  0  0  0  0
  185.8580  177.2680  143.3320 C   0  0  0  0  0  0  0  0  0  0  0  0
  185.0720  178.1730  142.5060 N   0  0  0  0  0  2  0  0  0  0  0  0
  185.6160  176.0360  143.2970 O   0  0  0  0  0  0  0  0  0  0  0  0
  183.6030  177.9450  140.1960 O   0  0  0  0  0  0  0  0  0  0  0  0
  183.6770  178.2050  142.5190 N   0  0  0  0  0  2  0  0  0  0  0  0
  182.9480  178.1440  141.3000 C   0  0  0  0  0  0  0  0  0  0  0  0
  180.7780  179.3850  141.8940 C   0  0  0  0  0  3  0  0  0  0  0  0
  181.5190  178.4690  141.1490 C   0  0  0  0  0  0  0  0  0  0  0  0
  180.6800  177.9040  140.2530 N   0  0  0  0  0  0  0  0  0  0  0  0
  179.5230  179.4020  141.4210 N   0  0  0  0  0  2  0  0  0  0  0  0
  179.4900  178.4950  140.4050 C   0  0  0  0  0  3  0  0  0  0  0  0
  186.6210  178.2330  145.4560 C   0  0  2  0  0  3  0  0  0  0  0  0
  187.4940  178.0080  146.5610 O   0  0  0  0  0  1  0  0  0  0  0  0
  185.0830  178.3070  145.8120 C   0  0  0  0  0  2  0  0  0  0  0  0
  184.9840  178.7210  147.2490 C   0  0  0  0  0  1  0  0  0  0  0  0
  194.7380  173.6830  145.5700 O   0  0  0  0  0  0  0  0  0  0  0  0
  194.8830  173.0200  144.1210 S   0  0  2  0  0  0  0  0  0  0  0  0
  196.3640  173.7000  143.4450 C   0  0  1  0  0  3  0  0  0  0  0  0
  196.4560  176.6890  143.3420 C   0  0  0  0  0  0  0  0  0  0  0  0
  197.5120  175.6530  143.4410 O   0  0  0  0  0  0  0  0  0  0  0  0
  196.2850  175.2130  143.8930 C   0  0  2  0  0  3  0  0  0  0  0  0
  197.1150  177.7420  143.9320 F   0  0  0  0  0  0  0  0  0  0  0  0
  195.8480  176.8770  142.0160 F   0  0  0  0  0  0  0  0  0  0  0  0
  197.4910  172.7400  144.1310 C   0  0  0  0  0  2  0  0  0  0  0  0
  197.5810  171.2440  143.8940 C   0  0  0  0  0  2  0  0  0  0  0  0
  196.9210  170.6300  145.2540 C   0  0  0  0  0  2  0  0  0  0  0  0
  195.4550  170.4100  145.1790 F   0  0  0  0  0  0  0  0  0  0  0  0
  1 28  1  0  0  0  0
  1 54  1  1  0  0  0
  2 14  1  0  0  0  0
  2 13  1  0  0  0  0
  3  9  1  0  0  0  0
  4 16  1  0  0  0  0
  4  5  1  1  0  0  0
  5  3  1  0  0  0  0
  6 16  1  0  0  0  0
  6 10  1  0  0  0  0
  7 10  1  0  0  0  0
  8  5  2  0  0  0  0
 10  1  1  0  0  0  0
 11 15  1  0  0  0  0
 12 16  1  0  0  0  0
 13  6  1  0  0  0  0
 14  7  1  0  0  0  0
 15  4  1  0  0  0  0
 16  9  1  0  0  0  0
 17 15  1  0  0  0  0
 17 13  1  0  0  0  0
 18 14  1  0  0  0  0
 19 18  1  0  0  0  0
 20 19  2  0  0  0  0
 21 22  1  0  0  0  0
 21 19  1  0  0  0  0
 23 25  1  0  0  0  0
 23 31  1  0  0  0  0
 24 30  1  0  0  0  0
 25 24  1  0  0  0  0
 26 23  1  0  0  0  0
 27 26  1  0  0  0  0
 27 28  1  0  0  0  0
 28 25  1  0  0  0  0
 29 27  2  0  0  0  0
 31 30  1  0  0  0  0
 32 33  2  0  0  0  0
 33 26  1  0  0  0  0
 33 36  1  0  0  0  0
 35 34  1  0  0  0  0
 35 33  1  0  0  0  0
 37 36  1  0  0  0  0
 37 49  1  0  0  0  0
 38 37  1  0  0  0  0
 39 42  1  0  0  0  0
 39 38  1  0  0  0  0
 40 38  2  0  0  0  0
 41 43  2  0  0  0  0
 43 42  1  0  0  0  0
 45 43  1  0  0  0  0
 45 44  2  0  0  0  0
 46 48  2  0  0  0  0
 46 45  1  0  0  0  0
 47 44  1  0  0  0  0
 48 47  1  0  0  0  0
 49 51  1  0  0  0  0
 49 50  1  0  0  0  0
 51 52  1  0  0  0  0
 54 53  2  0  0  0  0
 55 58  1  0  0  0  0
 55 54  1  0  0  0  0
 55 61  1  0  0  0  0
 56 57  1  0  0  0  0
 56 58  1  0  0  0  0
 56 59  1  0  0  0  0
 57 58  1  0  0  0  0
 60 56  1  0  0  0  0
 62 61  1  0  0  0  0
 62 63  1  0  0  0  0
 64 63  1  0  0  0  0
M  END
>  <MODEL>
8

>  <REMARK>
 VINA RESULT:      -5.2      2.927      4.754
  Name = 
  20 active torsions:
  status: ('A' for Active; 'I' for Inactive)
    1  A    between atoms: C_1  and  C_60
    2  A    between atoms: C_1  and  C_61
    3  A    between atoms: C_2  and  C_40
    4  A    between atoms: C_2  and  C_53
    5  A    between atoms: C_4  and  C_16
    6  A    between atoms: C_16  and  C_37
    7  A    between atoms: C_16  and  O_56
    8  A    between atoms: C_18  and  P_49
    9  A    between atoms: N_19  and  N_32
   10  A    between atoms: C_20  and  C_37
   11  A    between atoms: C_21  and  C_52
   12  A    between atoms: C_22  and  C_40
   13  A    between atoms: C_23  and  C_33
   14  A    between atoms: C_23  and  C_42
   15  A    between atoms: C_23  and  S_63
   16  A    between atoms: C_27  and  C_61
   17  A    between atoms: C_28  and  C_60
   18  A    between atoms: P_49  and  O_56
   19  A    between atoms: P_49  and  O_64
   20  A    between atoms: C_60  and  S_63
                            x       y       z     vdW  Elec       q    Type
                         _______ _______ _______ _____ _____    ______ ____

>  <TORSDO>
F 20

$$$$
=
 OpenBabel11062418233D

 64 70  0  0  1  0  0  0  0  0999 V2000
  192.9050  172.2480  142.7700 C   0  0  2  0  0  3  0  0  0  0  0  0
  195.9750  175.3340  143.0710 C   0  0  0  0  0  2  0  0  0  0  0  0
  193.3440  172.5050  138.4060 N   0  0  0  0  0  2  0  0  0  0  0  0
  195.1990  173.7130  139.2620 C   0  0  1  0  0  3  0  0  0  0  0  0
  194.4800  173.2160  138.0320 C   0  0  0  0  0  0  0  0  0  0  0  0
  194.9440  173.3980  141.7100 C   0  0  2  0  0  3  0  0  0  0  0  0
  194.5660  173.6460  144.1860 C   0  0  0  0  0  2  0  0  0  0  0  0
  194.9870  172.9980  136.9050 O   0  0  0  0  0  0  0  0  0  0  0  0
  193.5570  172.1740  139.7520 C   0  0  0  0  0  2  0  0  0  0  0  0
  193.8960  173.4440  142.8260 C   0  0  2  0  0  3  0  0  0  0  0  0
  196.4700  175.3970  138.2920 O   0  0  0  0  0  1  0  0  0  0  0  0
  193.2660  174.4490  140.3650 O   0  0  0  0  0  1  0  0  0  0  0  0
  196.1130  174.4470  141.8720 C   0  0  1  0  0  3  0  0  0  0  0  0
  195.3170  174.9390  144.1580 C   0  0  1  0  0  3  0  0  0  0  0  0
  195.6730  175.1170  139.3780 C   0  0  2  0  0  3  0  0  0  0  0  0
  194.1880  173.4330  140.3390 C   0  0  2  0  0  0  0  0  0  0  0  0
  196.5150  175.2820  140.6340 C   0  0  0  0  0  2  0  0  0  0  0  0
  195.7490  175.7030  145.3840 C   0  0  0  0  0  2  0  0  0  0  0  0
  194.8160  176.8400  145.8120 C   0  0  0  0  0  0  0  0  0  0  0  0
  194.9570  177.9530  145.2950 O   0  0  0  0  0  0  0  0  0  0  0  0
  193.7720  176.6260  146.8950 C   0  0  0  0  0  2  0  0  0  0  0  0
  192.4560  176.6840  146.4000 O   0  0  0  0  0  1  0  0  0  0  0  0
  189.8900  173.9360  141.7170 C   0  0  2  0  0  3  0  0  0  0  0  0
  189.5870  171.6750  142.0770 O   0  0  0  0  0  0  0  0  0  0  0  0
  190.5910  172.5890  141.8350 C   0  0  2  0  0  3  0  0  0  0  0  0
  190.6240  174.9200  142.6560 C   0  0  2  0  0  3  0  0  0  0  0  0
  191.3340  173.9780  143.5970 C   0  0  0  0  0  0  0  0  0  0  0  0
  191.4500  172.6140  143.0580 C   0  0  2  0  0  3  0  0  0  0  0  0
  191.9450  174.3900  144.6170 O   0  0  0  0  0  0  0  0  0  0  0  0
  188.4330  172.3580  141.7610 C   0  0  0  0  0  2  0  0  0  0  0  0
  188.5760  173.7030  142.1580 O   0  0  0  0  0  0  0  0  0  0  0  0
  189.4900  176.1720  145.0500 O   0  0  0  0  0  0  0  0  0  0  0  0
  189.6230  176.2750  143.5270 P   0  0  1  0  0  0  0  0  0  0  0  0
  191.8230  177.4590  143.0710 C   0  0  0  0  0  1  0  0  0  0  0  0
  190.4390  177.7310  143.1900 O   0  0  0  0  0  0  0  0  0  0  0  0
  188.0430  176.1310  142.8660 O   0  0  0  0  0  0  0  0  0  0  0  0
  187.5510  177.4080  142.4400 C   0  0  1  0  0  3  0  0  0  0  0  0
  186.8350  177.2370  141.1250 C   0  0  0  0  0  0  0  0  0  0  0  0
  187.0970  176.0900  140.2670 N   0  0  0  0  0  0  0  0  0  0  0  0
  185.8580  177.9840  140.8700 O   0  0  0  0  0  0  0  0  0  0  0  0
  187.9170  173.9540  138.7470 O   0  0  0  0  0  0  0  0  0  0  0  0
  187.2270  176.1840  138.8810 N   0  0  0  0  0  0  0  0  0  0  0  0
  187.7110  175.0780  138.1300 C   0  0  0  0  0  0  0  0  0  0  0  0
  187.5280  175.7360  135.6530 C   0  0  0  0  0  3  0  0  0  0  0  0
  188.1760  175.1390  136.7330 C   0  0  2  0  0  3  0  0  0  0  0  0
  189.3240  174.5990  136.2690 N   0  0  0  0  0  0  0  0  0  0  0  0
  188.2990  175.5950  134.5650 N   0  0  0  0  0  0  0  0  0  0  0  0
  189.4020  174.9070  134.9690 C   0  0  0  0  0  3  0  0  0  0  0  0
  186.4520  177.9090  143.4540 C   0  0  2  0  0  3  0  0  0  0  0  0
  186.6980  179.1380  144.1340 O   0  0  0  0  0  1  0  0  0  0  0  0
  185.5230  176.8850  144.2210 C   0  0  0  0  0  2  0  0  0  0  0  0
  186.0790  176.7390  145.6050 C   0  0  0  0  0  1  0  0  0  0  0  0
  193.2380  170.6850  145.0450 O   0  0  0  0  0  0  0  0  0  0  0  0
  193.4200  170.6200  143.4580 S   0  0  2  0  0  0  0  0  0  0  0  0
  195.1580  170.4690  143.1940 C   0  0  1  0  0  3  0  0  0  0  0  0
  196.5810  170.4250  145.8250 C   0  0  0  0  0  0  0  0  0  0  0  0
  197.0320  170.1830  144.4330 O   0  0  0  0  0  0  0  0  0  0  0  0
  195.6790  169.9770  144.6010 C   0  0  2  0  0  3  0  0  0  0  0  0
  197.5220  169.6810  146.5000 F   0  0  0  0  0  0  0  0  0  0  0  0
  196.3690  171.8290  146.2090 F   0  0  0  0  0  0  0  0  0  0  0  0
  195.1940  169.4270  141.9390 C   0  0  0  0  0  2  0  0  0  0  0  0
  196.0820  169.6030  140.7220 C   0  0  0  0  0  2  0  0  0  0  0  0
  195.5030  168.4770  139.6940 C   0  0  0  0  0  2  0  0  0  0  0  0
  194.2110  168.8320  139.0580 F   0  0  0  0  0  0  0  0  0  0  0  0
  1 10  1  0  0  0  0
  1 28  1  0  0  0  0
  1 54  1  1  0  0  0
  2 14  1  0  0  0  0
  3  9  1  0  0  0  0
  4  5  1  6  0  0  0
  4 15  1  0  0  0  0
  4 16  1  0  0  0  0
  5  3  1  0  0  0  0
  6 13  1  0  0  0  0
  6 10  1  0  0  0  0
  8  5  2  0  0  0  0
  9 16  1  0  0  0  0
 10  7  1  0  0  0  0
 11 15  1  0  0  0  0
 13  2  1  0  0  0  0
 14  7  1  0  0  0  0
 14 18  1  0  0  0  0
 15 17  1  0  0  0  0
 16 12  1  0  0  0  0
 16  6  1  0  0  0  0
 17 13  1  0  0  0  0
 18 19  1  0  0  0  0
 19 21  1  0  0  0  0
 20 19  2  0  0  0  0
 22 21  1  0  0  0  0
 23 25  1  0  0  0  0
 23 31  1  0  0  0  0
 23 26  1  0  0  0  0
 25 24  1  0  0  0  0
 25 28  1  0  0  0  0
 26 33  1  0  0  0  0
 26 27  1  0  0  0  0
 27 29  2  0  0  0  0
 28 27  1  0  0  0  0
 30 24  1  0  0  0  0
 30 31  1  0  0  0  0
 33 32  2  0  0  0  0
 34 35  1  0  0  0  0
 35 33  1  0  0  0  0
 36 33  1  0  0  0  0
 37 36  1  0  0  0  0
 37 49  1  0  0  0  0
 38 37  1  0  0  0  0
 39 38  1  0  0  0  0
 40 38  2  0  0  0  0
 42 39  2  0  0  0  0
 43 41  2  0  0  0  0
 43 42  1  0  0  0  0
 44 45  1  0  0  0  0
 45 43  1  0  0  0  0
 46 45  1  0  0  0  0
 47 48  1  0  0  0  0
 47 44  2  0  0  0  0
 48 46  2  0  0  0  0
 49 50  1  0  0  0  0
 49 51  1  0  0  0  0
 51 52  1  0  0  0  0
 54 53  2  0  0  0  0
 55 54  1  0  0  0  0
 55 58  1  0  0  0  0
 56 60  1  0  0  0  0
 56 59  1  0  0  0  0
 57 58  1  0  0  0  0
 57 56  1  0  0  0  0
 58 56  1  0  0  0  0
 61 55  1  0  0  0  0
 62 61  1  0  0  0  0
 63 62  1  0  0  0  0
 64 63  1  0  0  0  0
M  END
>  <MODEL>
9

>  <REMARK>
 VINA RESULT:      -5.1      1.956      2.604
  Name = 
  20 active torsions:
  status: ('A' for Active; 'I' for Inactive)
    1  A    between atoms: C_1  and  C_60
    2  A    between atoms: C_1  and  C_61
    3  A    between atoms: C_2  and  C_40
    4  A    between atoms: C_2  and  C_53
    5  A    between atoms: C_4  and  C_16
    6  A    between atoms: C_16  and  C_37
    7  A    between atoms: C_16  and  O_56
    8  A    between atoms: C_18  and  P_49
    9  A    between atoms: N_19  and  N_32
   10  A    between atoms: C_20  and  C_37
   11  A    between atoms: C_21  and  C_52
   12  A    between atoms: C_22  and  C_40
   13  A    between atoms: C_23  and  C_33
   14  A    between atoms: C_23  and  C_42
   15  A    between atoms: C_23  and  S_63
   16  A    between atoms: C_27  and  C_61
   17  A    between atoms: C_28  and  C_60
   18  A    between atoms: P_49  and  O_56
   19  A    between atoms: P_49  and  O_64
   20  A    between atoms: C_60  and  S_63
                            x       y       z     vdW  Elec       q    Type
                         _______ _______ _______ _____ _____    ______ ____

>  <TORSDO>
F 20

$$$$
