=
 OpenBabel11062418383D

 55 60  0  0  1  0  0  0  0  0999 V2000
  189.2670  175.0620  143.2240 C   0  0  1  0  0  3  0  0  0  0  0  0
  192.7670  177.3100  144.3860 C   0  0  0  0  0  3  0  0  0  0  0  0
  187.7060  173.2660  142.7110 O   0  0  0  0  0  1  0  0  0  0  0  0
  195.5210  176.6060  143.7450 O   0  0  0  0  0  0  0  0  0  0  0  0
  191.6490  175.1740  147.2230 O   0  0  0  0  0  1  0  0  0  0  0  0
  191.6190  176.0020  146.1050 C   0  0  0  0  0  0  0  0  0  0  0  0
  195.3840  170.6920  140.4410 C   0  0  1  0  0  3  0  0  0  0  0  0
  195.5160  175.4870  144.3180 C   0  0  0  0  0  0  0  0  0  0  0  0
  196.3120  174.0910  143.5180 S   0  0  0  0  0  0  0  0  0  0  0  0
  190.9370  170.6390  141.0000 O   0  0  0  0  0  0  0  0  0  0  0  0
  188.1420  174.5390  142.3180 C   0  0  2  0  0  3  0  0  0  0  0  0
  195.4610  172.1080  140.9950 C   0  0  0  0  0  2  0  0  0  0  0  0
  189.2740  172.2130  140.1540 C   0  0  0  0  0  2  0  0  0  0  0  0
  191.7710  171.8250  139.4390 C   0  0  2  0  0  3  0  0  0  0  0  0
  191.9990  173.3330  139.6470 C   0  0  0  0  0  2  0  0  0  0  0  0
  190.4070  176.9080  144.2150 C   0  0  0  0  0  0  0  0  0  0  0  0
  190.7120  174.1390  139.5950 C   0  0  0  0  0  2  0  0  0  0  0  0
  194.8940  175.3010  145.5630 O   0  0  0  0  0  0  0  0  0  0  0  0
  191.5720  177.4510  143.6660 C   0  0  0  0  0  3  0  0  0  0  0  0
  188.1830  176.4330  144.7020 C   0  0  1  0  0  3  0  0  0  0  0  0
  194.8710  172.1510  142.3270 N   0  0  0  0  0  2  0  0  0  0  0  0
  189.1230  176.5720  143.5090 C   0  0  2  0  0  3  0  0  0  0  0  0
  188.5930  174.5230  140.8620 C   0  0  0  0  0  2  0  0  0  0  0  0
  194.9380  177.5510  146.5390 C   0  0  0  0  0  1  0  0  0  0  0  0
  193.1450  170.0380  140.4530 N   0  0  0  0  0  2  0  0  0  0  0  0
  192.8080  176.5720  145.5890 C   0  0  0  0  0  0  0  0  0  0  0  0
  194.1760  170.5310  139.6360 N   0  0  0  0  0  2  0  0  0  0  0  0
  190.4170  171.2310  139.8320 C   0  0  1  0  0  3  0  0  0  0  0  0
  189.7660  173.5700  140.6370 C   0  0  1  0  0  3  0  0  0  0  0  0
  190.4170  176.2420  145.4250 C   0  0  0  0  0  0  0  0  0  0  0  0
  189.1290  175.4750  145.4130 C   0  0  2  0  0  0  0  0  0  0  0  0
  194.1250  176.2900  146.2620 C   0  0  1  0  0  3  0  0  0  0  0  0
  194.7730  173.5480  142.7100 C   0  0  0  0  0  2  0  0  0  0  0  0
  192.2230  171.1380  140.7180 C   0  0  2  0  0  3  0  0  0  0  0  0
  189.2690  174.4130  144.4990 O   0  0  0  0  0  0  0  0  0  0  0  0
  188.6830  175.0440  146.6650 O   0  0  0  0  0  1  0  0  0  0  0  0
  196.1460  168.1670  139.2460 O   0  0  0  0  0  0  0  0  0  0  0  0
  196.8450  169.1840  138.9930 C   0  0  0  0  0  0  0  0  0  0  0  0
  196.5350  170.4500  139.5800 N   0  0  0  0  0  2  0  0  0  0  0  0
  197.9410  169.1100  137.9830 C   0  0  0  0  0  2  0  0  0  0  0  0
  197.8870  170.2630  137.0810 N   0  0  0  0  0  2  0  0  0  0  0  0
  195.7940  170.0560  135.8000 C   0  0  0  0  0  1  0  0  0  0  0  0
  197.6730  168.4810  135.3700 C   0  0  0  0  0  1  0  0  0  0  0  0
  197.3090  169.9040  135.7800 C   0  0  0  0  0  0  0  0  0  0  0  0
  197.8720  170.8470  134.7340 C   0  0  0  0  0  1  0  0  0  0  0  0
  188.0030  177.6380  145.4220 O   0  0  0  0  0  0  0  0  0  0  0  0
  186.2980  177.1330  146.9810 C   0  0  0  0  0  1  0  0  0  0  0  0
  186.6240  177.7870  145.6440 C   0  0  2  0  0  3  0  0  0  0  0  0
  185.8090  177.1400  144.5270 C   0  0  0  0  0  2  0  0  0  0  0  0
  184.7230  179.2450  144.2090 O   0  0  0  0  0  0  0  0  0  0  0  0
  185.1850  178.1980  143.6800 C   0  0  0  0  0  0  0  0  0  0  0  0
  183.8080  178.1900  141.5760 C   0  0  0  0  0  0  0  0  0  0  0  0
  182.7140  178.2210  142.2060 O   0  0  0  0  0  0  0  0  0  0  0  0
  185.0390  177.9660  142.2760 N   0  0  0  0  0  2  0  0  0  0  0  0
  183.8060  178.2660  140.1540 N   0  0  0  0  0  1  0  0  0  0  0  0
  1 22  1  0  0  0  0
  1 35  1  1  0  0  0
  2 26  1  0  0  0  0
  4  8  2  0  0  0  0
  6  5  1  0  0  0  0
  7 39  1  6  0  0  0
  7 12  1  0  0  0  0
  8 18  1  0  0  0  0
  9  8  1  0  0  0  0
 11  3  1  1  0  0  0
 11  1  1  0  0  0  0
 12 21  1  0  0  0  0
 13 29  1  0  0  0  0
 14 15  1  1  0  0  0
 14 28  1  0  0  0  0
 14 34  1  0  0  0  0
 16 30  2  0  0  0  0
 17 15  1  0  0  0  0
 18 32  1  0  0  0  0
 19 16  1  0  0  0  0
 19  2  2  0  0  0  0
 20 31  1  0  0  0  0
 20 46  1  1  0  0  0
 21 33  1  0  0  0  0
 22 16  1  1  0  0  0
 22 20  1  0  0  0  0
 23 11  1  0  0  0  0
 26  6  2  0  0  0  0
 26 32  1  0  0  0  0
 27  7  1  0  0  0  0
 27 25  1  0  0  0  0
 28 13  1  1  0  0  0
 28 10  1  0  0  0  0
 29 17  1  6  0  0  0
 29 23  1  0  0  0  0
 30  6  1  0  0  0  0
 31 30  1  0  0  0  0
 31 36  1  1  0  0  0
 32 24  1  6  0  0  0
 33  9  1  0  0  0  0
 34 25  1  6  0  0  0
 34 10  1  0  0  0  0
 35 31  1  0  0  0  0
 38 37  2  0  0  0  0
 38 39  1  0  0  0  0
 40 38  1  0  0  0  0
 41 40  1  0  0  0  0
 43 44  1  0  0  0  0
 44 42  1  0  0  0  0
 44 41  1  0  0  0  0
 45 44  1  0  0  0  0
 46 48  1  0  0  0  0
 48 47  1  1  0  0  0
 49 48  1  0  0  0  0
 51 50  2  0  0  0  0
 51 49  1  0  0  0  0
 52 53  2  0  0  0  0
 52 54  1  0  0  0  0
 54 51  1  0  0  0  0
 55 52  1  0  0  0  0
M  END
>  <MODEL>
1

>  <REMARK>
 VINA RESULT:      -7.6      0.000      0.000
  Name = 
  8 active torsions:
  status: ('A' for Active; 'I' for Inactive)
    1  A    between atoms: O_6  and  C_27
    2  A    between atoms: O_6  and  C_44
    3  A    between atoms: C_10  and  C_53
    4  A    between atoms: C_11  and  N_47
    5  A    between atoms: N_19  and  C_33
    6  A    between atoms: N_19  and  C_51
    7  A    between atoms: C_33  and  C_45
    8  A    between atoms: C_44  and  C_53
                            x       y       z     vdW  Elec       q    Type
                         _______ _______ _______ _____ _____    ______ ____

>  <TORSDO>
F 8

$$$$
=
 OpenBabel11062418383D

 55 60  0  0  1  0  0  0  0  0999 V2000
  193.1030  174.2640  144.5680 C   0  0  1  0  0  3  0  0  0  0  0  0
  192.5050  173.5220  140.3560 C   0  0  0  0  0  3  0  0  0  0  0  0
  192.7800  174.5010  146.9700 O   0  0  0  0  0  1  0  0  0  0  0  0
  190.1120  174.2060  138.8390 O   0  0  0  0  0  0  0  0  0  0  0  0
  191.8110  170.4160  142.2880 O   0  0  0  0  0  1  0  0  0  0  0  0
  192.3880  171.6160  141.8860 C   0  0  0  0  0  0  0  0  0  0  0  0
  185.6300  176.8190  143.1970 C   0  0  1  0  0  3  0  0  0  0  0  0
  189.3130  173.5120  139.5180 C   0  0  0  0  0  0  0  0  0  0  0  0
  187.7020  174.1870  139.9330 S   0  0  0  0  0  0  0  0  0  0  0  0
  188.5840  176.0540  146.4810 O   0  0  0  0  0  0  0  0  0  0  0  0
  193.4160  175.0530  145.8480 C   0  0  2  0  0  3  0  0  0  0  0  0
  186.6620  176.4310  142.1470 C   0  0  0  0  0  2  0  0  0  0  0  0
  190.8170  176.9940  146.7740 C   0  0  0  0  0  2  0  0  0  0  0  0
  188.8270  177.7750  145.2480 C   0  0  2  0  0  3  0  0  0  0  0  0
  189.8080  177.7460  144.0620 C   0  0  0  0  0  2  0  0  0  0  0  0
  193.7690  173.5390  142.3950 C   0  0  0  0  0  0  0  0  0  0  0  0
  191.2620  177.8290  144.4940 C   0  0  0  0  0  2  0  0  0  0  0  0
  189.6550  172.2270  139.9690 O   0  0  0  0  0  0  0  0  0  0  0  0
  193.3680  174.1980  141.2300 C   0  0  0  0  0  3  0  0  0  0  0  0
  194.9240  172.9000  144.3110 C   0  0  1  0  0  3  0  0  0  0  0  0
  187.1570  175.0860  142.4130 N   0  0  0  0  0  2  0  0  0  0  0  0
  194.3370  174.1430  143.6490 C   0  0  2  0  0  3  0  0  0  0  0  0
  193.0270  176.5170  145.6810 C   0  0  0  0  0  2  0  0  0  0  0  0
  191.3510  171.5110  138.3470 C   0  0  0  0  0  1  0  0  0  0  0  0
  186.6360  176.6310  145.2940 N   0  0  0  0  0  2  0  0  0  0  0  0
  191.9920  172.2470  140.6810 C   0  0  0  0  0  0  0  0  0  0  0  0
  186.2730  177.5450  144.2900 N   0  0  0  0  0  2  0  0  0  0  0  0
  189.3090  177.2560  146.6050 C   0  0  1  0  0  3  0  0  0  0  0  0
  191.5250  176.6880  145.4610 C   0  0  1  0  0  3  0  0  0  0  0  0
  193.3310  172.2630  142.6960 C   0  0  0  0  0  0  0  0  0  0  0  0
  193.6190  172.1300  144.1610 C   0  0  2  0  0  0  0  0  0  0  0  0
  190.9400  171.6080  139.8140 C   0  0  1  0  0  3  0  0  0  0  0  0
  188.2820  174.8570  141.5240 C   0  0  0  0  0  2  0  0  0  0  0  0
  188.0830  176.4490  145.2260 C   0  0  2  0  0  3  0  0  0  0  0  0
  192.6870  172.9250  144.8560 O   0  0  0  0  0  0  0  0  0  0  0  0
  193.6610  170.8190  144.6410 O   0  0  0  0  0  1  0  0  0  0  0  0
  185.3500  177.4300  140.3810 O   0  0  0  0  0  0  0  0  0  0  0  0
  184.5280  177.9400  141.1890 C   0  0  0  0  0  0  0  0  0  0  0  0
  184.6370  177.7000  142.5940 N   0  0  0  0  0  2  0  0  0  0  0  0
  183.3570  178.7120  140.6820 C   0  0  0  0  0  2  0  0  0  0  0  0
  182.1340  177.9120  140.7780 N   0  0  0  0  0  2  0  0  0  0  0  0
  179.7820  177.8230  141.5030 C   0  0  0  0  0  1  0  0  0  0  0  0
  180.6940  179.9120  140.5010 C   0  0  0  0  0  1  0  0  0  0  0  0
  181.0260  178.6880  141.3490 C   0  0  0  0  0  0  0  0  0  0  0  0
  181.4450  179.1750  142.7230 C   0  0  0  0  0  1  0  0  0  0  0  0
  195.9770  172.3120  143.5720 O   0  0  0  0  0  0  0  0  0  0  0  0
  197.9070  172.9050  144.8050 C   0  0  0  0  0  1  0  0  0  0  0  0
  196.9010  171.8020  144.5010 C   0  0  2  0  0  3  0  0  0  0  0  0
  197.6170  170.5710  143.9510 C   0  0  0  0  0  2  0  0  0  0  0  0
  196.3580  168.5540  144.1840 O   0  0  0  0  0  0  0  0  0  0  0  0
  197.1810  169.3570  144.7010 C   0  0  0  0  0  0  0  0  0  0  0  0
  196.7610  168.8350  147.1240 C   0  0  0  0  0  0  0  0  0  0  0  0
  195.5250  169.0740  147.0360 O   0  0  0  0  0  0  0  0  0  0  0  0
  197.6400  169.1670  146.0420 N   0  0  0  0  0  2  0  0  0  0  0  0
  197.2990  168.3360  148.3450 N   0  0  0  0  0  1  0  0  0  0  0  0
  1 35  1  1  0  0  0
  1 11  1  0  0  0  0
  2 26  2  0  0  0  0
  2 19  1  0  0  0  0
  4  8  2  0  0  0  0
  6  5  1  0  0  0  0
  6 30  2  0  0  0  0
  7 39  1  6  0  0  0
  7 27  1  0  0  0  0
  8  9  1  0  0  0  0
  8 18  1  0  0  0  0
  9 33  1  0  0  0  0
 10 28  1  0  0  0  0
 11  3  1  1  0  0  0
 12 21  1  0  0  0  0
 12  7  1  0  0  0  0
 14 15  1  6  0  0  0
 14 28  1  0  0  0  0
 15 17  1  0  0  0  0
 16 30  1  0  0  0  0
 19 16  2  0  0  0  0
 20 46  1  6  0  0  0
 22 16  1  6  0  0  0
 22 20  1  0  0  0  0
 22  1  1  0  0  0  0
 23 11  1  0  0  0  0
 26  6  1  0  0  0  0
 27 25  1  0  0  0  0
 28 13  1  6  0  0  0
 29 17  1  6  0  0  0
 29 23  1  0  0  0  0
 29 13  1  0  0  0  0
 30 31  1  0  0  0  0
 31 20  1  0  0  0  0
 31 36  1  1  0  0  0
 31 35  1  0  0  0  0
 32 24  1  6  0  0  0
 32 18  1  0  0  0  0
 32 26  1  0  0  0  0
 33 21  1  0  0  0  0
 34 14  1  0  0  0  0
 34 25  1  1  0  0  0
 34 10  1  0  0  0  0
 37 38  2  0  0  0  0
 38 39  1  0  0  0  0
 40 41  1  0  0  0  0
 40 38  1  0  0  0  0
 41 44  1  0  0  0  0
 43 44  1  0  0  0  0
 44 42  1  0  0  0  0
 44 45  1  0  0  0  0
 46 48  1  0  0  0  0
 48 47  1  6  0  0  0
 49 48  1  0  0  0  0
 49 51  1  0  0  0  0
 50 51  2  0  0  0  0
 51 54  1  0  0  0  0
 52 55  1  0  0  0  0
 53 52  2  0  0  0  0
 54 52  1  0  0  0  0
M  END
>  <MODEL>
2

>  <REMARK>
 VINA RESULT:      -7.5      3.782     11.412
  Name = 
  8 active torsions:
  status: ('A' for Active; 'I' for Inactive)
    1  A    between atoms: O_6  and  C_27
    2  A    between atoms: O_6  and  C_44
    3  A    between atoms: C_10  and  C_53
    4  A    between atoms: C_11  and  N_47
    5  A    between atoms: N_19  and  C_33
    6  A    between atoms: N_19  and  C_51
    7  A    between atoms: C_33  and  C_45
    8  A    between atoms: C_44  and  C_53
                            x       y       z     vdW  Elec       q    Type
                         _______ _______ _______ _____ _____    ______ ____

>  <TORSDO>
F 8

$$$$
=
 OpenBabel11062418383D

 55 60  0  0  1  0  0  0  0  0999 V2000
  193.3250  172.1000  142.0670 C   0  0  1  0  0  3  0  0  0  0  0  0
  193.5500  174.3840  145.7250 C   0  0  0  0  0  3  0  0  0  0  0  0
  192.9680  171.4090  139.7590 O   0  0  0  0  0  1  0  0  0  0  0  0
  191.6040  176.3650  146.6060 O   0  0  0  0  0  0  0  0  0  0  0  0
  195.7160  175.9500  143.1330 O   0  0  0  0  0  1  0  0  0  0  0  0
  195.0590  174.9900  143.8970 C   0  0  0  0  0  0  0  0  0  0  0  0
  186.9350  176.9280  141.7280 C   0  0  1  0  0  3  0  0  0  0  0  0
  191.7210  177.1280  145.6130 C   0  0  0  0  0  0  0  0  0  0  0  0
  190.2490  177.8610  144.8940 S   0  0  0  0  0  0  0  0  0  0  0  0
  189.2860  173.9610  139.3260 O   0  0  0  0  0  0  0  0  0  0  0  0
  192.8700  170.9990  141.0960 C   0  0  2  0  0  3  0  0  0  0  0  0
  187.8340  176.6980  142.9350 C   0  0  0  0  0  2  0  0  0  0  0  0
  189.7990  171.6350  139.8540 C   0  0  0  0  0  2  0  0  0  0  0  0
  188.0040  173.2570  140.8750 C   0  0  2  0  0  3  0  0  0  0  0  0
  188.5780  172.9180  142.2620 C   0  0  0  0  0  2  0  0  0  0  0  0
  194.2810  172.7130  144.1650 C   0  0  0  0  0  0  0  0  0  0  0  0
  189.3480  171.6080  142.2810 C   0  0  0  0  0  2  0  0  0  0  0  0
  192.9750  177.4090  145.0460 O   0  0  0  0  0  0  0  0  0  0  0  0
  193.4990  173.0580  145.2710 C   0  0  0  0  0  3  0  0  0  0  0  0
  195.4840  171.5240  142.5670 C   0  0  1  0  0  3  0  0  0  0  0  0
  189.2230  176.9570  142.5740 N   0  0  0  0  0  2  0  0  0  0  0  0
  194.1230  171.5250  143.2560 C   0  0  2  0  0  3  0  0  0  0  0  0
  191.4450  170.5610  141.4160 C   0  0  0  0  0  2  0  0  0  0  0  0
  194.5170  177.0390  146.9170 C   0  0  0  0  0  1  0  0  0  0  0  0
  187.6860  175.5480  140.0030 N   0  0  0  0  0  2  0  0  0  0  0  0
  194.3040  175.3600  145.0370 C   0  0  0  0  0  0  0  0  0  0  0  0
  186.7190  175.6710  141.0160 N   0  0  0  0  0  2  0  0  0  0  0  0
  188.7180  172.7100  139.6370 C   0  0  1  0  0  3  0  0  0  0  0  0
  190.4420  171.6990  141.2330 C   0  0  1  0  0  3  0  0  0  0  0  0
  195.0770  173.6410  143.5210 C   0  0  0  0  0  0  0  0  0  0  0  0
  195.3650  172.9970  142.1970 C   0  0  2  0  0  0  0  0  0  0  0  0
  194.2170  176.8080  145.4390 C   0  0  1  0  0  3  0  0  0  0  0  0
  190.0470  176.5150  143.6850 C   0  0  0  0  0  2  0  0  0  0  0  0
  188.6640  174.5570  140.4400 C   0  0  2  0  0  3  0  0  0  0  0  0
  194.1860  173.0480  141.4290 O   0  0  0  0  0  0  0  0  0  0  0  0
  196.4680  173.5130  141.5140 O   0  0  0  0  0  1  0  0  0  0  0  0
  184.8770  178.1380  140.0880 O   0  0  0  0  0  0  0  0  0  0  0  0
  184.6480  177.9800  141.3180 C   0  0  0  0  0  0  0  0  0  0  0  0
  185.6390  177.4180  142.1810 N   0  0  0  0  0  2  0  0  0  0  0  0
  183.2950  178.2710  141.8720 C   0  0  0  0  0  2  0  0  0  0  0  0
  182.3150  178.4080  140.7920 N   0  0  0  0  0  2  0  0  0  0  0  0
  179.9820  177.7620  141.2440 C   0  0  0  0  0  1  0  0  0  0  0  0
  180.5080  180.0830  140.5140 C   0  0  0  0  0  1  0  0  0  0  0  0
  181.0180  178.8760  141.2950 C   0  0  0  0  0  0  0  0  0  0  0  0
  181.1950  179.3000  142.7420 C   0  0  0  0  0  1  0  0  0  0  0  0
  196.5620  171.2820  143.4500 O   0  0  0  0  0  0  0  0  0  0  0  0
  197.8600  170.4390  141.6610 C   0  0  0  0  0  1  0  0  0  0  0  0
  197.2120  170.1190  143.0020 C   0  0  2  0  0  3  0  0  0  0  0  0
  196.2300  168.9600  142.8500 C   0  0  0  0  0  2  0  0  0  0  0  0
  194.6640  168.2000  144.4870 O   0  0  0  0  0  0  0  0  0  0  0  0
  195.8690  168.4240  144.1960 C   0  0  0  0  0  0  0  0  0  0  0  0
  196.7770  168.7350  146.5200 C   0  0  0  0  0  0  0  0  0  0  0  0
  195.9520  169.6490  146.7980 O   0  0  0  0  0  0  0  0  0  0  0  0
  196.8990  168.2570  145.1740 N   0  0  0  0  0  2  0  0  0  0  0  0
  197.6670  168.2580  147.5240 N   0  0  0  0  0  1  0  0  0  0  0  0
  1 35  1  6  0  0  0
  1 22  1  0  0  0  0
  5  6  1  0  0  0  0
  6 26  1  0  0  0  0
  7 39  1  1  0  0  0
  7 12  1  0  0  0  0
  8  4  2  0  0  0  0
  9  8  1  0  0  0  0
 10 28  1  0  0  0  0
 11  3  1  6  0  0  0
 11 23  1  0  0  0  0
 11  1  1  0  0  0  0
 14 15  1  1  0  0  0
 15 17  1  0  0  0  0
 16 19  2  0  0  0  0
 18 32  1  0  0  0  0
 18  8  1  0  0  0  0
 19  2  1  0  0  0  0
 20 22  1  0  0  0  0
 20 46  1  1  0  0  0
 21 12  1  0  0  0  0
 21 33  1  0  0  0  0
 22 16  1  1  0  0  0
 25 34  1  0  0  0  0
 25 27  1  0  0  0  0
 26 32  1  0  0  0  0
 26  2  2  0  0  0  0
 27  7  1  0  0  0  0
 28 13  1  1  0  0  0
 28 14  1  0  0  0  0
 29 13  1  6  0  0  0
 29 23  1  0  0  0  0
 29 17  1  0  0  0  0
 30  6  2  0  0  0  0
 30 16  1  0  0  0  0
 31 36  1  6  0  0  0
 31 20  1  0  0  0  0
 31 30  1  0  0  0  0
 32 24  1  1  0  0  0
 33  9  1  0  0  0  0
 34 10  1  6  0  0  0
 34 14  1  0  0  0  0
 35 31  1  0  0  0  0
 37 38  2  0  0  0  0
 38 40  1  0  0  0  0
 38 39  1  0  0  0  0
 41 44  1  0  0  0  0
 41 40  1  0  0  0  0
 42 44  1  0  0  0  0
 43 44  1  0  0  0  0
 44 45  1  0  0  0  0
 48 47  1  6  0  0  0
 48 46  1  0  0  0  0
 49 48  1  0  0  0  0
 49 51  1  0  0  0  0
 51 50  2  0  0  0  0
 51 54  1  0  0  0  0
 52 53  2  0  0  0  0
 52 55  1  0  0  0  0
 54 52  1  0  0  0  0
M  END
>  <MODEL>
3

>  <REMARK>
 VINA RESULT:      -7.1      3.519     10.735
  Name = 
  8 active torsions:
  status: ('A' for Active; 'I' for Inactive)
    1  A    between atoms: O_6  and  C_27
    2  A    between atoms: O_6  and  C_44
    3  A    between atoms: C_10  and  C_53
    4  A    between atoms: C_11  and  N_47
    5  A    between atoms: N_19  and  C_33
    6  A    between atoms: N_19  and  C_51
    7  A    between atoms: C_33  and  C_45
    8  A    between atoms: C_44  and  C_53
                            x       y       z     vdW  Elec       q    Type
                         _______ _______ _______ _____ _____    ______ ____

>  <TORSDO>
F 8

$$$$
=
 OpenBabel11062418383D

 55 60  0  0  1  0  0  0  0  0999 V2000
  193.0930  174.2650  144.4720 C   0  0  1  0  0  3  0  0  0  0  0  0
  192.4220  173.5980  140.2590 C   0  0  0  0  0  3  0  0  0  0  0  0
  192.8130  174.4550  146.8840 O   0  0  0  0  0  1  0  0  0  0  0  0
  189.9970  174.2950  138.7990 O   0  0  0  0  0  0  0  0  0  0  0  0
  191.7840  170.4520  142.1440 O   0  0  0  0  0  1  0  0  0  0  0  0
  192.3450  171.6640  141.7540 C   0  0  0  0  0  0  0  0  0  0  0  0
  185.5790  176.7940  143.2880 C   0  0  1  0  0  3  0  0  0  0  0  0
  189.2150  173.5820  139.4800 C   0  0  0  0  0  0  0  0  0  0  0  0
  187.6080  174.2380  139.9370 S   0  0  0  0  0  0  0  0  0  0  0  0
  188.5980  175.9870  146.5020 O   0  0  0  0  0  0  0  0  0  0  0  0
  193.4240  175.0320  145.7620 C   0  0  2  0  0  3  0  0  0  0  0  0
  186.5940  176.4330  142.2110 C   0  0  0  0  0  2  0  0  0  0  0  0
  190.8300  176.9370  146.7710 C   0  0  0  0  0  2  0  0  0  0  0  0
  188.8070  177.7330  145.2980 C   0  0  2  0  0  3  0  0  0  0  0  0
  189.7660  177.7340  144.0940 C   0  0  0  0  0  2  0  0  0  0  0  0
  193.7240  173.5850  142.2740 C   0  0  0  0  0  0  0  0  0  0  0  0
  191.2280  177.8180  144.5000 C   0  0  0  0  0  2  0  0  0  0  0  0
  189.5740  172.2910  139.9000 O   0  0  0  0  0  0  0  0  0  0  0  0
  193.2960  174.2640  141.1300 C   0  0  0  0  0  3  0  0  0  0  0  0
  194.9170  172.9190  144.1570 C   0  0  1  0  0  3  0  0  0  0  0  0
  187.1030  175.0870  142.4430 N   0  0  0  0  0  2  0  0  0  0  0  0
  194.3110  174.1700  143.5290 C   0  0  2  0  0  3  0  0  0  0  0  0
  193.0220  176.4960  145.6300 C   0  0  0  0  0  2  0  0  0  0  0  0
  191.2440  171.6180  138.2340 C   0  0  0  0  0  1  0  0  0  0  0  0
  186.6250  176.5740  145.3620 N   0  0  0  0  0  2  0  0  0  0  0  0
  191.9230  172.3140  140.5690 C   0  0  0  0  0  0  0  0  0  0  0  0
  186.2370  177.5040  144.3810 N   0  0  0  0  0  2  0  0  0  0  0  0
  189.3170  177.1920  146.6350 C   0  0  1  0  0  3  0  0  0  0  0  0
  191.5150  176.6610  145.4400 C   0  0  1  0  0  3  0  0  0  0  0  0
  193.2990  172.3020  142.5590 C   0  0  0  0  0  0  0  0  0  0  0  0
  193.6150  172.1430  144.0160 C   0  0  2  0  0  0  0  0  0  0  0  0
  190.8600  171.6840  139.7090 C   0  0  1  0  0  3  0  0  0  0  0  0
  188.2120  174.8830  141.5290 C   0  0  0  0  0  2  0  0  0  0  0  0
  188.0710  176.4020  145.2640 C   0  0  2  0  0  3  0  0  0  0  0  0
  192.6910  172.9180  144.7430 O   0  0  0  0  0  0  0  0  0  0  0  0
  193.6740  170.8230  144.4700 O   0  0  0  0  0  1  0  0  0  0  0  0
  185.2850  177.5090  140.4970 O   0  0  0  0  0  0  0  0  0  0  0  0
  184.4550  177.9720  141.3250 C   0  0  0  0  0  0  0  0  0  0  0  0
  184.5700  177.6790  142.7190 N   0  0  0  0  0  2  0  0  0  0  0  0
  183.2700  178.7420  140.8480 C   0  0  0  0  0  2  0  0  0  0  0  0
  182.0540  177.9310  140.9550 N   0  0  0  0  0  2  0  0  0  0  0  0
  179.7010  177.8350  141.6750 C   0  0  0  0  0  1  0  0  0  0  0  0
  180.5650  179.8660  140.5220 C   0  0  0  0  0  1  0  0  0  0  0  0
  180.9230  178.7180  141.4610 C   0  0  0  0  0  0  0  0  0  0  0  0
  181.3210  179.3170  142.7970 C   0  0  0  0  0  1  0  0  0  0  0  0
  195.9610  172.3520  143.3880 O   0  0  0  0  0  0  0  0  0  0  0  0
  197.5070  172.0860  145.1570 C   0  0  0  0  0  1  0  0  0  0  0  0
  197.1700  172.8610  143.8900 C   0  0  2  0  0  3  0  0  0  0  0  0
  197.0590  174.3520  144.1970 C   0  0  0  0  0  2  0  0  0  0  0  0
  197.8920  176.3680  143.2220 O   0  0  0  0  0  0  0  0  0  0  0  0
  197.6330  175.1440  143.0700 C   0  0  0  0  0  0  0  0  0  0  0  0
  197.3540  175.1160  140.5710 C   0  0  0  0  0  0  0  0  0  0  0  0
  196.4660  176.0140  140.5880 O   0  0  0  0  0  0  0  0  0  0  0  0
  197.7990  174.5170  141.7950 N   0  0  0  0  0  2  0  0  0  0  0  0
  197.8330  174.6200  139.3250 N   0  0  0  0  0  1  0  0  0  0  0  0
  1 35  1  1  0  0  0
  1 11  1  0  0  0  0
  2 26  2  0  0  0  0
  2 19  1  0  0  0  0
  4  8  2  0  0  0  0
  6  5  1  0  0  0  0
  6 30  2  0  0  0  0
  7 39  1  6  0  0  0
  7 27  1  0  0  0  0
  8 18  1  0  0  0  0
  8  9  1  0  0  0  0
  9 33  1  0  0  0  0
 10 28  1  0  0  0  0
 11  3  1  1  0  0  0
 12 21  1  0  0  0  0
 12  7  1  0  0  0  0
 14 15  1  6  0  0  0
 14 28  1  0  0  0  0
 15 17  1  0  0  0  0
 16 30  1  0  0  0  0
 19 16  2  0  0  0  0
 20 46  1  6  0  0  0
 22 16  1  6  0  0  0
 22 20  1  0  0  0  0
 22  1  1  0  0  0  0
 23 11  1  0  0  0  0
 26  6  1  0  0  0  0
 27 25  1  0  0  0  0
 28 13  1  6  0  0  0
 29 17  1  6  0  0  0
 29 23  1  0  0  0  0
 29 13  1  0  0  0  0
 30 31  1  0  0  0  0
 31 20  1  0  0  0  0
 31 36  1  1  0  0  0
 31 35  1  0  0  0  0
 32 24  1  6  0  0  0
 32 18  1  0  0  0  0
 32 26  1  0  0  0  0
 33 21  1  0  0  0  0
 34 14  1  0  0  0  0
 34 25  1  1  0  0  0
 34 10  1  0  0  0  0
 37 38  2  0  0  0  0
 38 39  1  0  0  0  0
 40 41  1  0  0  0  0
 40 38  1  0  0  0  0
 41 44  1  0  0  0  0
 43 44  1  0  0  0  0
 44 42  1  0  0  0  0
 44 45  1  0  0  0  0
 46 48  1  0  0  0  0
 48 49  1  0  0  0  0
 48 47  1  1  0  0  0
 51 50  2  0  0  0  0
 51 49  1  0  0  0  0
 52 53  2  0  0  0  0
 52 54  1  0  0  0  0
 54 51  1  0  0  0  0
 55 52  1  0  0  0  0
M  END
>  <MODEL>
4

>  <REMARK>
 VINA RESULT:      -7.0      3.468     10.999
  Name = 
  8 active torsions:
  status: ('A' for Active; 'I' for Inactive)
    1  A    between atoms: O_6  and  C_27
    2  A    between atoms: O_6  and  C_44
    3  A    between atoms: C_10  and  C_53
    4  A    between atoms: C_11  and  N_47
    5  A    between atoms: N_19  and  C_33
    6  A    between atoms: N_19  and  C_51
    7  A    between atoms: C_33  and  C_45
    8  A    between atoms: C_44  and  C_53
                            x       y       z     vdW  Elec       q    Type
                         _______ _______ _______ _____ _____    ______ ____

>  <TORSDO>
F 8

$$$$
=
 OpenBabel11062418383D

 55 60  0  0  1  0  0  0  0  0999 V2000
  195.2800  173.6840  141.2140 C   0  0  1  0  0  3  0  0  0  0  0  0
  191.7110  173.4550  138.7930 C   0  0  0  0  0  3  0  0  0  0  0  0
  196.8850  173.5060  143.0370 O   0  0  0  0  0  1  0  0  0  0  0  0
  188.9890  173.8790  139.7450 O   0  0  0  0  0  0  0  0  0  0  0  0
  192.7730  170.0290  139.7880 O   0  0  0  0  0  1  0  0  0  0  0  0
  192.8250  171.3630  139.3970 C   0  0  0  0  0  0  0  0  0  0  0  0
  189.3220  174.9270  146.4310 C   0  0  1  0  0  3  0  0  0  0  0  0
  188.9940  172.9540  140.5970 C   0  0  0  0  0  0  0  0  0  0  0  0
  188.2460  173.2400  142.2040 S   0  0  0  0  0  0  0  0  0  0  0  0
  193.7500  174.2780  146.1740 O   0  0  0  0  0  0  0  0  0  0  0  0
  196.4410  174.3250  141.9890 C   0  0  2  0  0  3  0  0  0  0  0  0
  189.2060  174.9000  144.9130 C   0  0  0  0  0  2  0  0  0  0  0  0
  195.4140  175.5770  144.9480 C   0  0  0  0  0  2  0  0  0  0  0  0
  192.9460  176.1730  145.6230 C   0  0  2  0  0  3  0  0  0  0  0  0
  192.6880  176.5050  144.1420 C   0  0  0  0  0  2  0  0  0  0  0  0
  194.0810  173.4210  139.1690 C   0  0  0  0  0  0  0  0  0  0  0  0
  193.9630  176.8020  143.3700 C   0  0  0  0  0  2  0  0  0  0  0  0
  189.5800  171.7070  140.3260 O   0  0  0  0  0  0  0  0  0  0  0  0
  192.9250  174.1510  138.8800 C   0  0  0  0  0  3  0  0  0  0  0  0
  196.2960  172.7460  139.3900 C   0  0  1  0  0  3  0  0  0  0  0  0
  189.7530  173.6510  144.3970 N   0  0  0  0  0  2  0  0  0  0  0  0
  195.3910  173.9360  139.6960 C   0  0  2  0  0  3  0  0  0  0  0  0
  196.0360  175.6960  142.5190 C   0  0  0  0  0  2  0  0  0  0  0  0
  189.4700  171.5720  137.8790 C   0  0  0  0  0  1  0  0  0  0  0  0
  191.5700  174.6360  146.9840 N   0  0  0  0  0  2  0  0  0  0  0  0
  191.6440  172.0730  139.0710 C   0  0  0  0  0  0  0  0  0  0  0  0
  190.5570  175.5980  146.8290 N   0  0  0  0  0  2  0  0  0  0  0  0
  194.2970  175.5670  146.0090 C   0  0  1  0  0  3  0  0  0  0  0  0
  194.8860  175.6060  143.5210 C   0  0  1  0  0  3  0  0  0  0  0  0
  194.0430  172.0550  139.3770 C   0  0  0  0  0  0  0  0  0  0  0  0
  195.3440  171.7700  140.0670 C   0  0  2  0  0  0  0  0  0  0  0  0
  190.3110  171.3750  139.1360 C   0  0  1  0  0  3  0  0  0  0  0  0
  189.8180  173.7730  142.9520 C   0  0  0  0  0  2  0  0  0  0  0  0
  192.4660  174.7460  145.8360 C   0  0  2  0  0  3  0  0  0  0  0  0
  195.2490  172.2630  141.3820 O   0  0  0  0  0  0  0  0  0  0  0  0
  195.7560  170.4360  140.0270 O   0  0  0  0  0  1  0  0  0  0  0  0
  188.8010  177.7540  146.0850 O   0  0  0  0  0  0  0  0  0  0  0  0
  187.9800  177.0710  146.7550 C   0  0  0  0  0  0  0  0  0  0  0  0
  188.2020  175.6780  146.9850 N   0  0  0  0  0  2  0  0  0  0  0  0
  186.7010  177.6810  147.2210 C   0  0  0  0  0  2  0  0  0  0  0  0
  186.4030  178.8960  146.4600 N   0  0  0  0  0  2  0  0  0  0  0  0
  185.5580  177.2930  144.7910 C   0  0  0  0  0  1  0  0  0  0  0  0
  185.3700  179.7390  144.3690 C   0  0  0  0  0  1  0  0  0  0  0  0
  185.3710  178.6560  145.4430 C   0  0  0  0  0  0  0  0  0  0  0  0
  184.0160  178.6780  146.1260 C   0  0  0  0  0  1  0  0  0  0  0  0
  196.4340  172.4840  138.0070 O   0  0  0  0  0  0  0  0  0  0  0  0
  197.9410  174.3050  138.0940 C   0  0  0  0  0  1  0  0  0  0  0  0
  197.7360  172.8650  137.6390 C   0  0  2  0  0  3  0  0  0  0  0  0
  197.9410  172.7530  136.1310 C   0  0  0  0  0  2  0  0  0  0  0  0
  197.7410  174.8480  134.9990 O   0  0  0  0  0  0  0  0  0  0  0  0
  197.1610  173.8180  135.4340 C   0  0  0  0  0  0  0  0  0  0  0  0
  194.8430  174.7600  135.6890 C   0  0  0  0  0  0  0  0  0  0  0  0
  195.2300  175.7020  136.4350 O   0  0  0  0  0  0  0  0  0  0  0  0
  195.7380  173.6930  135.3500 N   0  0  0  0  0  2  0  0  0  0  0  0
  193.4810  174.6990  135.2760 N   0  0  0  0  0  1  0  0  0  0  0  0
  1 35  1  6  0  0  0
  1 11  1  0  0  0  0
  2 19  2  0  0  0  0
  2 26  1  0  0  0  0
  4  8  2  0  0  0  0
  6  5  1  0  0  0  0
  7 27  1  0  0  0  0
  7 39  1  1  0  0  0
  8  9  1  0  0  0  0
  9 33  1  0  0  0  0
 11 23  1  0  0  0  0
 11  3  1  1  0  0  0
 12  7  1  0  0  0  0
 14 15  1  6  0  0  0
 14 34  1  0  0  0  0
 14 28  1  0  0  0  0
 16 30  2  0  0  0  0
 17 29  1  0  0  0  0
 17 15  1  0  0  0  0
 18  8  1  0  0  0  0
 19 16  1  0  0  0  0
 20 46  1  6  0  0  0
 20 22  1  0  0  0  0
 20 31  1  0  0  0  0
 21 12  1  0  0  0  0
 22 16  1  6  0  0  0
 22  1  1  0  0  0  0
 26 32  1  0  0  0  0
 26  6  2  0  0  0  0
 27 25  1  0  0  0  0
 28 13  1  6  0  0  0
 28 10  1  0  0  0  0
 29 23  1  6  0  0  0
 29 13  1  0  0  0  0
 30  6  1  0  0  0  0
 30 31  1  0  0  0  0
 31 36  1  6  0  0  0
 31 35  1  0  0  0  0
 32 24  1  6  0  0  0
 32 18  1  0  0  0  0
 33 21  1  0  0  0  0
 34 10  1  1  0  0  0
 34 25  1  0  0  0  0
 37 38  2  0  0  0  0
 38 39  1  0  0  0  0
 38 40  1  0  0  0  0
 41 40  1  0  0  0  0
 42 44  1  0  0  0  0
 43 44  1  0  0  0  0
 44 45  1  0  0  0  0
 44 41  1  0  0  0  0
 48 46  1  0  0  0  0
 48 47  1  6  0  0  0
 49 48  1  0  0  0  0
 50 51  2  0  0  0  0
 51 49  1  0  0  0  0
 52 53  2  0  0  0  0
 54 51  1  0  0  0  0
 54 52  1  0  0  0  0
 55 52  1  0  0  0  0
M  END
>  <MODEL>
5

>  <REMARK>
 VINA RESULT:      -6.9      3.422     11.087
  Name = 
  8 active torsions:
  status: ('A' for Active; 'I' for Inactive)
    1  A    between atoms: O_6  and  C_27
    2  A    between atoms: O_6  and  C_44
    3  A    between atoms: C_10  and  C_53
    4  A    between atoms: C_11  and  N_47
    5  A    between atoms: N_19  and  C_33
    6  A    between atoms: N_19  and  C_51
    7  A    between atoms: C_33  and  C_45
    8  A    between atoms: C_44  and  C_53
                            x       y       z     vdW  Elec       q    Type
                         _______ _______ _______ _____ _____    ______ ____

>  <TORSDO>
F 8

$$$$
=
 OpenBabel11062418383D

 55 60  0  0  1  0  0  0  0  0999 V2000
  195.2860  173.2260  140.6560 C   0  0  1  0  0  3  0  0  0  0  0  0
  191.6590  173.4770  138.3250 C   0  0  0  0  0  3  0  0  0  0  0  0
  196.9040  172.8050  142.4270 O   0  0  0  0  0  1  0  0  0  0  0  0
  189.0220  174.1500  139.3650 O   0  0  0  0  0  0  0  0  0  0  0  0
  192.3690  169.9190  139.1620 O   0  0  0  0  0  1  0  0  0  0  0  0
  192.5550  171.2550  138.8200 C   0  0  0  0  0  0  0  0  0  0  0  0
  189.6170  174.8880  146.0740 C   0  0  1  0  0  3  0  0  0  0  0  0
  188.9460  173.1960  140.1810 C   0  0  0  0  0  0  0  0  0  0  0  0
  188.2700  173.4960  141.8170 S   0  0  0  0  0  0  0  0  0  0  0  0
  193.9430  173.7810  145.6730 O   0  0  0  0  0  0  0  0  0  0  0  0
  196.5270  173.7090  141.4220 C   0  0  2  0  0  3  0  0  0  0  0  0
  189.4650  174.9340  144.5600 C   0  0  0  0  0  2  0  0  0  0  0  0
  195.7080  174.9430  144.4530 C   0  0  0  0  0  2  0  0  0  0  0  0
  193.3350  175.7720  145.2150 C   0  0  2  0  0  3  0  0  0  0  0  0
  193.0810  176.1880  143.7560 C   0  0  0  0  0  2  0  0  0  0  0  0
  194.0200  173.1750  138.6350 C   0  0  0  0  0  0  0  0  0  0  0  0
  194.3630  176.3780  142.9620 C   0  0  0  0  0  2  0  0  0  0  0  0
  189.3880  171.9060  139.8470 O   0  0  0  0  0  0  0  0  0  0  0  0
  192.9430  174.0360  138.4040 C   0  0  0  0  0  3  0  0  0  0  0  0
  196.1540  172.2600  138.7710 C   0  0  1  0  0  3  0  0  0  0  0  0
  189.8620  173.6560  143.9830 N   0  0  0  0  0  2  0  0  0  0  0  0
  195.3900  173.5260  139.1450 C   0  0  2  0  0  3  0  0  0  0  0  0
  196.2840  175.0920  142.0140 C   0  0  0  0  0  2  0  0  0  0  0  0
  189.2090  171.8820  137.4010 C   0  0  0  0  0  1  0  0  0  0  0  0
  191.8330  174.3370  146.5540 N   0  0  0  0  0  2  0  0  0  0  0  0
  191.4500  172.1000  138.5530 C   0  0  0  0  0  0  0  0  0  0  0  0
  190.9260  175.4060  146.4630 N   0  0  0  0  0  2  0  0  0  0  0  0
  194.6210  175.0090  145.5430 C   0  0  1  0  0  3  0  0  0  0  0  0
  195.1540  175.0850  143.0420 C   0  0  1  0  0  3  0  0  0  0  0  0
  193.8400  171.8140  138.7920 C   0  0  0  0  0  0  0  0  0  0  0  0
  195.1180  171.3640  139.4360 C   0  0  2  0  0  0  0  0  0  0  0  0
  190.0520  171.5460  138.6270 C   0  0  1  0  0  3  0  0  0  0  0  0
  189.9070  173.8280  142.5420 C   0  0  0  0  0  2  0  0  0  0  0  0
  192.7090  174.3960  145.3880 C   0  0  2  0  0  3  0  0  0  0  0  0
  195.1060  171.8110  140.7710 O   0  0  0  0  0  0  0  0  0  0  0  0
  195.3830  169.9970  139.3350 O   0  0  0  0  0  1  0  0  0  0  0  0
  189.2280  177.7230  145.6290 O   0  0  0  0  0  0  0  0  0  0  0  0
  188.4350  177.1230  146.4040 C   0  0  0  0  0  0  0  0  0  0  0  0
  188.5980  175.7320  146.6850 N   0  0  0  0  0  2  0  0  0  0  0  0
  187.2410  177.8310  146.9500 C   0  0  0  0  0  2  0  0  0  0  0  0
  186.6080  178.6470  145.9120 N   0  0  0  0  0  2  0  0  0  0  0  0
  185.7280  177.1080  144.2020 C   0  0  0  0  0  1  0  0  0  0  0  0
  184.3470  179.0330  144.9690 C   0  0  0  0  0  1  0  0  0  0  0  0
  185.3960  178.0070  145.3850 C   0  0  0  0  0  0  0  0  0  0  0  0
  184.7970  177.1490  146.4850 C   0  0  0  0  0  1  0  0  0  0  0  0
  196.2320  172.0400  137.3750 O   0  0  0  0  0  0  0  0  0  0  0  0
  197.9000  172.8790  135.9250 C   0  0  0  0  0  1  0  0  0  0  0  0
  197.5920  171.9020  137.0520 C   0  0  2  0  0  3  0  0  0  0  0  0
  197.9160  170.4750  136.6170 C   0  0  0  0  0  2  0  0  0  0  0  0
  196.7880  170.3270  134.5150 O   0  0  0  0  0  0  0  0  0  0  0  0
  196.8370  169.9630  135.7200 C   0  0  0  0  0  0  0  0  0  0  0  0
  194.4190  169.3540  136.0390 C   0  0  0  0  0  0  0  0  0  0  0  0
  194.0100  170.4920  135.6780 O   0  0  0  0  0  0  0  0  0  0  0  0
  195.8150  169.1290  136.2730 N   0  0  0  0  0  2  0  0  0  0  0  0
  193.4780  168.3230  136.3250 N   0  0  0  0  0  1  0  0  0  0  0  0
  1 35  1  6  0  0  0
  1 11  1  0  0  0  0
  2 19  2  0  0  0  0
  2 26  1  0  0  0  0
  4  8  2  0  0  0  0
  6  5  1  0  0  0  0
  7 27  1  0  0  0  0
  7 39  1  1  0  0  0
  8  9  1  0  0  0  0
  9 33  1  0  0  0  0
 11 23  1  0  0  0  0
 11  3  1  1  0  0  0
 12  7  1  0  0  0  0
 14 15  1  6  0  0  0
 14 34  1  0  0  0  0
 14 28  1  0  0  0  0
 16 30  2  0  0  0  0
 17 29  1  0  0  0  0
 17 15  1  0  0  0  0
 18  8  1  0  0  0  0
 19 16  1  0  0  0  0
 20 46  1  6  0  0  0
 20 22  1  0  0  0  0
 20 31  1  0  0  0  0
 21 12  1  0  0  0  0
 22 16  1  6  0  0  0
 22  1  1  0  0  0  0
 26 32  1  0  0  0  0
 26  6  2  0  0  0  0
 27 25  1  0  0  0  0
 28 13  1  6  0  0  0
 28 10  1  0  0  0  0
 29 23  1  6  0  0  0
 29 13  1  0  0  0  0
 30  6  1  0  0  0  0
 30 31  1  0  0  0  0
 31 36  1  6  0  0  0
 31 35  1  0  0  0  0
 32 24  1  6  0  0  0
 32 18  1  0  0  0  0
 33 21  1  0  0  0  0
 34 10  1  1  0  0  0
 34 25  1  0  0  0  0
 37 38  2  0  0  0  0
 38 39  1  0  0  0  0
 38 40  1  0  0  0  0
 41 40  1  0  0  0  0
 42 44  1  0  0  0  0
 43 44  1  0  0  0  0
 44 41  1  0  0  0  0
 44 45  1  0  0  0  0
 48 47  1  6  0  0  0
 48 46  1  0  0  0  0
 49 48  1  0  0  0  0
 50 51  2  0  0  0  0
 51 54  1  0  0  0  0
 51 49  1  0  0  0  0
 52 54  1  0  0  0  0
 52 55  1  0  0  0  0
 53 52  2  0  0  0  0
M  END
>  <MODEL>
6

>  <REMARK>
 VINA RESULT:      -6.8      2.966     11.353
  Name = 
  8 active torsions:
  status: ('A' for Active; 'I' for Inactive)
    1  A    between atoms: O_6  and  C_27
    2  A    between atoms: O_6  and  C_44
    3  A    between atoms: C_10  and  C_53
    4  A    between atoms: C_11  and  N_47
    5  A    between atoms: N_19  and  C_33
    6  A    between atoms: N_19  and  C_51
    7  A    between atoms: C_33  and  C_45
    8  A    between atoms: C_44  and  C_53
                            x       y       z     vdW  Elec       q    Type
                         _______ _______ _______ _____ _____    ______ ____

>  <TORSDO>
F 8

$$$$
=
 OpenBabel11062418383D

 55 60  0  0  1  0  0  0  0  0999 V2000
  193.9820  172.0940  138.6460 C   0  0  1  0  0  3  0  0  0  0  0  0
  196.2830  172.8820  142.2140 C   0  0  0  0  0  3  0  0  0  0  0  0
  192.4040  172.2530  136.7970 O   0  0  0  0  0  1  0  0  0  0  0  0
  195.2540  174.0860  144.6600 O   0  0  0  0  0  0  0  0  0  0  0  0
  196.8520  175.5960  139.7290 O   0  0  0  0  0  1  0  0  0  0  0  0
  196.6310  174.3360  140.2780 C   0  0  0  0  0  0  0  0  0  0  0  0
  188.7650  175.6910  143.5550 C   0  0  1  0  0  3  0  0  0  0  0  0
  194.8820  175.1680  144.1380 C   0  0  0  0  0  0  0  0  0  0  0  0
  193.3120  175.8840  144.6320 S   0  0  0  0  0  0  0  0  0  0  0  0
  189.2550  174.2020  139.3550 O   0  0  0  0  0  0  0  0  0  0  0  0
  193.0010  171.3710  137.7090 C   0  0  2  0  0  3  0  0  0  0  0  0
  190.1480  175.1730  143.9250 C   0  0  0  0  0  2  0  0  0  0  0  0
  189.7960  171.9490  138.5890 C   0  0  0  0  0  2  0  0  0  0  0  0
  188.9430  172.7940  140.9240 C   0  0  2  0  0  3  0  0  0  0  0  0
  190.1380  172.0600  141.5560 C   0  0  0  0  0  2  0  0  0  0  0  0
  195.9470  172.0310  139.9960 C   0  0  0  0  0  0  0  0  0  0  0  0
  190.7010  170.9670  140.6640 C   0  0  0  0  0  2  0  0  0  0  0  0
  195.6600  175.8220  143.1690 O   0  0  0  0  0  0  0  0  0  0  0  0
  195.9000  171.8240  141.3770 C   0  0  0  0  0  3  0  0  0  0  0  0
  196.0270  171.7060  137.6930 C   0  0  1  0  0  3  0  0  0  0  0  0
  191.1470  175.7510  143.0350 N   0  0  0  0  0  2  0  0  0  0  0  0
  195.2440  171.2490  138.9210 C   0  0  2  0  0  3  0  0  0  0  0  0
  191.9360  170.6380  138.5170 C   0  0  0  0  0  2  0  0  0  0  0  0
  197.9280  175.0280  143.6610 C   0  0  0  0  0  1  0  0  0  0  0  0
  188.3810  175.1700  141.3130 N   0  0  0  0  0  2  0  0  0  0  0  0
  196.6260  174.1440  141.6810 C   0  0  0  0  0  0  0  0  0  0  0  0
  188.1110  174.7660  142.6320 N   0  0  0  0  0  2  0  0  0  0  0  0
  188.8480  172.8540  139.3980 C   0  0  1  0  0  3  0  0  0  0  0  0
  191.0750  171.5990  139.3360 C   0  0  1  0  0  3  0  0  0  0  0  0
  196.3470  173.2380  139.4550 C   0  0  0  0  0  0  0  0  0  0  0  0
  195.8400  173.1760  138.0450 C   0  0  2  0  0  0  0  0  0  0  0  0
  196.8730  175.3130  142.5960 C   0  0  1  0  0  3  0  0  0  0  0  0
  192.4000  175.0610  143.2880 C   0  0  0  0  0  2  0  0  0  0  0  0
  189.3650  174.2460  140.7580 C   0  0  2  0  0  3  0  0  0  0  0  0
  194.4410  173.3280  138.0850 O   0  0  0  0  0  0  0  0  0  0  0  0
  196.4470  174.0660  137.1570 O   0  0  0  0  0  1  0  0  0  0  0  0
  188.9800  177.6840  145.6450 O   0  0  0  0  0  0  0  0  0  0  0  0
  188.0800  176.8070  145.7430 C   0  0  0  0  0  0  0  0  0  0  0  0
  187.9470  175.7800  144.7580 N   0  0  0  0  0  2  0  0  0  0  0  0
  187.0630  176.8950  146.8310 C   0  0  0  0  0  2  0  0  0  0  0  0
  185.7200  177.0530  146.2670 N   0  0  0  0  0  2  0  0  0  0  0  0
  185.9300  179.2600  147.3410 C   0  0  0  0  0  1  0  0  0  0  0  0
  183.8160  178.6390  146.1800 C   0  0  0  0  0  1  0  0  0  0  0  0
  185.3320  178.4660  146.1870 C   0  0  0  0  0  0  0  0  0  0  0  0
  185.8700  179.0330  144.8860 C   0  0  0  0  0  1  0  0  0  0  0  0
  197.3880  171.3210  137.7180 O   0  0  0  0  0  0  0  0  0  0  0  0
  196.8060  170.9660  135.4540 C   0  0  0  0  0  1  0  0  0  0  0  0
  197.5880  170.4340  136.6470 C   0  0  2  0  0  3  0  0  0  0  0  0
  197.1190  169.0250  137.0000 C   0  0  0  0  0  2  0  0  0  0  0  0
  196.7080  168.3220  134.7540 O   0  0  0  0  0  0  0  0  0  0  0  0
  196.2440  168.4960  135.9120 C   0  0  0  0  0  0  0  0  0  0  0  0
  193.8140  168.7530  135.3210 C   0  0  0  0  0  0  0  0  0  0  0  0
  194.0360  169.6990  134.5150 O   0  0  0  0  0  0  0  0  0  0  0  0
  194.8570  168.2780  136.1830 N   0  0  0  0  0  2  0  0  0  0  0  0
  192.4950  168.2310  135.4520 N   0  0  0  0  0  1  0  0  0  0  0  0
  1 35  1  6  0  0  0
  1 22  1  0  0  0  0
  5  6  1  0  0  0  0
  6 26  2  0  0  0  0
  7 12  1  0  0  0  0
  7 39  1  1  0  0  0
  8  9  1  0  0  0  0
  8  4  2  0  0  0  0
 10 28  1  0  0  0  0
 11  3  1  6  0  0  0
 11 23  1  0  0  0  0
 11  1  1  0  0  0  0
 13 29  1  0  0  0  0
 14 15  1  6  0  0  0
 16 19  1  0  0  0  0
 17 15  1  0  0  0  0
 18  8  1  0  0  0  0
 19  2  2  0  0  0  0
 20 46  1  1  0  0  0
 20 31  1  0  0  0  0
 20 22  1  0  0  0  0
 21 33  1  0  0  0  0
 21 12  1  0  0  0  0
 22 16  1  1  0  0  0
 25 27  1  0  0  0  0
 26  2  1  0  0  0  0
 26 32  1  0  0  0  0
 27  7  1  0  0  0  0
 28 13  1  6  0  0  0
 28 14  1  0  0  0  0
 29 23  1  6  0  0  0
 29 17  1  0  0  0  0
 30 16  2  0  0  0  0
 30  6  1  0  0  0  0
 31 36  1  6  0  0  0
 31 35  1  0  0  0  0
 31 30  1  0  0  0  0
 32 18  1  0  0  0  0
 32 24  1  1  0  0  0
 33  9  1  0  0  0  0
 34 10  1  6  0  0  0
 34 14  1  0  0  0  0
 34 25  1  0  0  0  0
 37 38  2  0  0  0  0
 38 40  1  0  0  0  0
 39 38  1  0  0  0  0
 41 40  1  0  0  0  0
 43 44  1  0  0  0  0
 44 41  1  0  0  0  0
 44 42  1  0  0  0  0
 45 44  1  0  0  0  0
 48 47  1  6  0  0  0
 48 49  1  0  0  0  0
 48 46  1  0  0  0  0
 50 51  2  0  0  0  0
 51 54  1  0  0  0  0
 51 49  1  0  0  0  0
 52 55  1  0  0  0  0
 52 54  1  0  0  0  0
 53 52  2  0  0  0  0
M  END
>  <MODEL>
7

>  <REMARK>
 VINA RESULT:      -6.8      2.898     10.879
  Name = 
  8 active torsions:
  status: ('A' for Active; 'I' for Inactive)
    1  A    between atoms: O_6  and  C_27
    2  A    between atoms: O_6  and  C_44
    3  A    between atoms: C_10  and  C_53
    4  A    between atoms: C_11  and  N_47
    5  A    between atoms: N_19  and  C_33
    6  A    between atoms: N_19  and  C_51
    7  A    between atoms: C_33  and  C_45
    8  A    between atoms: C_44  and  C_53
                            x       y       z     vdW  Elec       q    Type
                         _______ _______ _______ _____ _____    ______ ____

>  <TORSDO>
F 8

$$$$
=
 OpenBabel11062418383D

 55 60  0  0  1  0  0  0  0  0999 V2000
  192.8050  174.1390  144.7370 C   0  0  1  0  0  3  0  0  0  0  0  0
  192.3910  173.5680  140.4760 C   0  0  0  0  0  3  0  0  0  0  0  0
  192.3700  174.3130  147.1260 O   0  0  0  0  0  1  0  0  0  0  0  0
  190.1160  174.4200  138.8670 O   0  0  0  0  0  0  0  0  0  0  0  0
  191.4490  170.4380  142.2600 O   0  0  0  0  0  1  0  0  0  0  0  0
  192.1030  171.6210  141.9300 C   0  0  0  0  0  0  0  0  0  0  0  0
  185.5440  177.1080  143.0850 C   0  0  1  0  0  3  0  0  0  0  0  0
  189.2500  173.7440  139.4800 C   0  0  0  0  0  0  0  0  0  0  0  0
  187.6540  174.4850  139.8370 S   0  0  0  0  0  0  0  0  0  0  0  0
  188.2840  176.0890  146.4840 O   0  0  0  0  0  0  0  0  0  0  0  0
  193.0890  174.8690  146.0590 C   0  0  2  0  0  3  0  0  0  0  0  0
  186.6100  176.7040  142.0740 C   0  0  0  0  0  2  0  0  0  0  0  0
  190.5420  176.9060  146.9210 C   0  0  0  0  0  2  0  0  0  0  0  0
  188.6740  177.8350  145.3260 C   0  0  2  0  0  3  0  0  0  0  0  0
  189.7120  177.7970  144.1910 C   0  0  0  0  0  2  0  0  0  0  0  0
  193.5470  173.4540  142.5760 C   0  0  0  0  0  0  0  0  0  0  0  0
  191.1440  177.7930  144.6980 C   0  0  0  0  0  2  0  0  0  0  0  0
  189.5060  172.4300  139.9010 O   0  0  0  0  0  0  0  0  0  0  0  0
  193.2390  174.1710  141.4160 C   0  0  0  0  0  3  0  0  0  0  0  0
  194.5690  172.6960  144.5240 C   0  0  1  0  0  3  0  0  0  0  0  0
  187.0250  175.3280  142.3170 N   0  0  0  0  0  2  0  0  0  0  0  0
  194.0780  173.9880  143.8770 C   0  0  2  0  0  3  0  0  0  0  0  0
  192.7790  176.3560  145.9240 C   0  0  0  0  0  2  0  0  0  0  0  0
  191.2470  171.6850  138.3420 C   0  0  0  0  0  1  0  0  0  0  0  0
  186.4310  176.8010  145.2210 N   0  0  0  0  0  2  0  0  0  0  0  0
  191.8010  172.3100  140.7300 C   0  0  0  0  0  0  0  0  0  0  0  0
  186.1640  177.7650  144.2330 N   0  0  0  0  0  2  0  0  0  0  0  0
  189.0590  177.2490  146.6860 C   0  0  1  0  0  3  0  0  0  0  0  0
  191.3010  176.6090  145.6350 C   0  0  1  0  0  3  0  0  0  0  0  0
  193.0330  172.1930  142.8090 C   0  0  0  0  0  0  0  0  0  0  0  0
  193.2380  171.9970  144.2810 C   0  0  2  0  0  0  0  0  0  0  0  0
  190.7670  171.7530  139.7890 C   0  0  1  0  0  3  0  0  0  0  0  0
  188.1820  175.0730  141.4780 C   0  0  0  0  0  2  0  0  0  0  0  0
  187.8680  176.5490  145.2190 C   0  0  2  0  0  3  0  0  0  0  0  0
  192.3110  172.8150  144.9560 O   0  0  0  0  0  0  0  0  0  0  0  0
  193.1920  170.6700  144.7150 O   0  0  0  0  0  1  0  0  0  0  0  0
  184.7470  177.1680  140.3010 O   0  0  0  0  0  0  0  0  0  0  0  0
  184.2470  178.0190  141.0860 C   0  0  0  0  0  0  0  0  0  0  0  0
  184.6280  178.0570  142.4630 N   0  0  0  0  0  2  0  0  0  0  0  0
  183.1620  178.9270  140.6160 C   0  0  0  0  0  2  0  0  0  0  0  0
  181.9120  178.1850  140.4380 N   0  0  0  0  0  2  0  0  0  0  0  0
  180.4900  180.1960  140.4170 C   0  0  0  0  0  1  0  0  0  0  0  0
  181.0410  179.0890  142.5780 C   0  0  0  0  0  1  0  0  0  0  0  0
  180.7840  178.8630  141.0910 C   0  0  0  0  0  0  0  0  0  0  0  0
  179.5590  177.9790  140.9600 C   0  0  0  0  0  1  0  0  0  0  0  0
  195.6300  172.0810  143.8180 O   0  0  0  0  0  0  0  0  0  0  0  0
  197.9400  172.1710  144.3160 C   0  0  0  0  0  1  0  0  0  0  0  0
  196.5760  171.6670  144.7710 C   0  0  2  0  0  3  0  0  0  0  0  0
  196.5950  170.1470  144.9100 C   0  0  0  0  0  2  0  0  0  0  0  0
  197.7070  169.5260  142.8880 O   0  0  0  0  0  0  0  0  0  0  0  0
  196.6390  169.5160  143.5570 C   0  0  0  0  0  0  0  0  0  0  0  0
  194.9990  169.2780  141.6660 C   0  0  0  0  0  0  0  0  0  0  0  0
  195.4300  170.3030  141.0680 O   0  0  0  0  0  0  0  0  0  0  0  0
  195.4340  168.9840  143.0000 N   0  0  0  0  0  2  0  0  0  0  0  0
  193.9940  168.4750  141.0560 N   0  0  0  0  0  1  0  0  0  0  0  0
  1 35  1  1  0  0  0
  1 11  1  0  0  0  0
  2 26  2  0  0  0  0
  2 19  1  0  0  0  0
  4  8  2  0  0  0  0
  6  5  1  0  0  0  0
  6 30  2  0  0  0  0
  7 39  1  6  0  0  0
  7 27  1  0  0  0  0
  8  9  1  0  0  0  0
  8 18  1  0  0  0  0
  9 33  1  0  0  0  0
 10 28  1  0  0  0  0
 11  3  1  1  0  0  0
 12 21  1  0  0  0  0
 12  7  1  0  0  0  0
 14 15  1  6  0  0  0
 14 28  1  0  0  0  0
 15 17  1  0  0  0  0
 16 30  1  0  0  0  0
 19 16  2  0  0  0  0
 20 46  1  6  0  0  0
 22 16  1  6  0  0  0
 22 20  1  0  0  0  0
 22  1  1  0  0  0  0
 23 11  1  0  0  0  0
 26  6  1  0  0  0  0
 27 25  1  0  0  0  0
 28 13  1  6  0  0  0
 29 17  1  6  0  0  0
 29 23  1  0  0  0  0
 29 13  1  0  0  0  0
 30 31  1  0  0  0  0
 31 20  1  0  0  0  0
 31 36  1  1  0  0  0
 31 35  1  0  0  0  0
 32 24  1  6  0  0  0
 32 18  1  0  0  0  0
 32 26  1  0  0  0  0
 33 21  1  0  0  0  0
 34 25  1  1  0  0  0
 34 14  1  0  0  0  0
 34 10  1  0  0  0  0
 37 38  2  0  0  0  0
 38 39  1  0  0  0  0
 40 38  1  0  0  0  0
 41 40  1  0  0  0  0
 41 44  1  0  0  0  0
 42 44  1  0  0  0  0
 44 43  1  0  0  0  0
 45 44  1  0  0  0  0
 46 48  1  0  0  0  0
 48 47  1  6  0  0  0
 48 49  1  0  0  0  0
 50 51  2  0  0  0  0
 51 49  1  0  0  0  0
 52 54  1  0  0  0  0
 53 52  2  0  0  0  0
 54 51  1  0  0  0  0
 55 52  1  0  0  0  0
M  END
>  <MODEL>
8

>  <REMARK>
 VINA RESULT:      -6.3      3.109     11.195
  Name = 
  8 active torsions:
  status: ('A' for Active; 'I' for Inactive)
    1  A    between atoms: O_6  and  C_27
    2  A    between atoms: O_6  and  C_44
    3  A    between atoms: C_10  and  C_53
    4  A    between atoms: C_11  and  N_47
    5  A    between atoms: N_19  and  C_33
    6  A    between atoms: N_19  and  C_51
    7  A    between atoms: C_33  and  C_45
    8  A    between atoms: C_44  and  C_53
                            x       y       z     vdW  Elec       q    Type
                         _______ _______ _______ _____ _____    ______ ____

>  <TORSDO>
F 8

$$$$
=
 OpenBabel11062418383D

 55 60  0  0  1  0  0  0  0  0999 V2000
  193.0380  172.3410  141.8880 C   0  0  1  0  0  3  0  0  0  0  0  0
  193.3960  174.4770  145.6240 C   0  0  0  0  0  3  0  0  0  0  0  0
  192.6030  171.7450  139.5670 O   0  0  0  0  0  1  0  0  0  0  0  0
  191.4950  176.4350  146.6440 O   0  0  0  0  0  0  0  0  0  0  0  0
  195.4920  176.1290  143.0290 O   0  0  0  0  0  1  0  0  0  0  0  0
  194.8520  175.1450  143.7750 C   0  0  0  0  0  0  0  0  0  0  0  0
  186.6800  177.2230  141.9420 C   0  0  1  0  0  3  0  0  0  0  0  0
  191.5870  177.2360  145.6780 C   0  0  0  0  0  0  0  0  0  0  0  0
  190.0990  178.0070  145.0360 S   0  0  0  0  0  0  0  0  0  0  0  0
  188.9300  174.3380  139.3520 O   0  0  0  0  0  0  0  0  0  0  0  0
  192.5440  171.2830  140.8900 C   0  0  2  0  0  3  0  0  0  0  0  0
  187.6150  176.9400  143.1100 C   0  0  0  0  0  2  0  0  0  0  0  0
  189.4400  171.9880  139.7710 C   0  0  0  0  0  2  0  0  0  0  0  0
  187.6910  173.5810  140.9120 C   0  0  2  0  0  3  0  0  0  0  0  0
  188.3060  173.1840  142.2660 C   0  0  0  0  0  2  0  0  0  0  0  0
  194.0640  172.8640  143.9770 C   0  0  0  0  0  0  0  0  0  0  0  0
  189.0650  171.8690  142.2080 C   0  0  0  0  0  2  0  0  0  0  0  0
  192.8240  177.5310  145.0830 O   0  0  0  0  0  0  0  0  0  0  0  0
  193.3200  173.1700  145.1200 C   0  0  0  0  0  3  0  0  0  0  0  0
  195.2060  171.7320  142.2970 C   0  0  1  0  0  3  0  0  0  0  0  0
  188.9930  177.2020  142.7160 N   0  0  0  0  0  2  0  0  0  0  0  0
  193.8680  171.7140  143.0280 C   0  0  2  0  0  3  0  0  0  0  0  0
  191.1260  170.8430  141.2370 C   0  0  0  0  0  2  0  0  0  0  0  0
  194.4220  177.0760  146.8880 C   0  0  0  0  0  1  0  0  0  0  0  0
  187.3650  175.9070  140.1410 N   0  0  0  0  0  2  0  0  0  0  0  0
  194.1350  175.4740  144.9520 C   0  0  0  0  0  0  0  0  0  0  0  0
  186.4310  175.9970  141.1880 N   0  0  0  0  0  2  0  0  0  0  0  0
  188.3610  173.0790  139.6310 C   0  0  1  0  0  3  0  0  0  0  0  0
  190.1270  171.9930  141.1310 C   0  0  1  0  0  3  0  0  0  0  0  0
  194.8470  173.8110  143.3450 C   0  0  0  0  0  0  0  0  0  0  0  0
  195.0880  173.2180  141.9890 C   0  0  2  0  0  0  0  0  0  0  0  0
  194.0730  176.9060  145.4130 C   0  0  1  0  0  3  0  0  0  0  0  0
  189.8480  176.7110  143.7810 C   0  0  0  0  0  2  0  0  0  0  0  0
  188.3480  174.8930  140.5070 C   0  0  2  0  0  3  0  0  0  0  0  0
  193.8860  173.3080  141.2610 O   0  0  0  0  0  0  0  0  0  0  0  0
  196.1730  173.7540  141.2920 O   0  0  0  0  0  1  0  0  0  0  0  0
  184.6460  178.6460  140.4500 O   0  0  0  0  0  0  0  0  0  0  0  0
  184.4220  178.3750  141.6610 C   0  0  0  0  0  0  0  0  0  0  0  0
  185.4030  177.7040  142.4540 N   0  0  0  0  0  2  0  0  0  0  0  0
  183.0820  178.6500  142.2560 C   0  0  0  0  0  2  0  0  0  0  0  0
  182.0260  178.0320  141.4510 N   0  0  0  0  0  2  0  0  0  0  0  0
  179.5720  177.8160  141.4570 C   0  0  0  0  0  1  0  0  0  0  0  0
  180.6360  179.8620  140.5170 C   0  0  0  0  0  1  0  0  0  0  0  0
  180.7590  178.7640  141.5700 C   0  0  0  0  0  0  0  0  0  0  0  0
  180.7180  179.4240  142.9360 C   0  0  0  0  0  1  0  0  0  0  0  0
  196.3100  171.4470  143.1340 O   0  0  0  0  0  0  0  0  0  0  0  0
  196.8830  169.5810  144.4700 C   0  0  0  0  0  1  0  0  0  0  0  0
  196.5360  170.0610  143.0670 C   0  0  2  0  0  3  0  0  0  0  0  0
  197.6690  169.7310  142.1000 C   0  0  0  0  0  2  0  0  0  0  0  0
  197.8880  168.6520  139.9790 O   0  0  0  0  0  0  0  0  0  0  0  0
  197.1380  168.9430  140.9490 C   0  0  0  0  0  0  0  0  0  0  0  0
  194.9190  168.8150  139.7730 C   0  0  0  0  0  0  0  0  0  0  0  0
  195.2590  169.6480  138.8870 O   0  0  0  0  0  0  0  0  0  0  0  0
  195.7480  168.6050  140.9230 N   0  0  0  0  0  2  0  0  0  0  0  0
  193.6540  168.1660  139.6840 N   0  0  0  0  0  1  0  0  0  0  0  0
  1 35  1  6  0  0  0
  1 22  1  0  0  0  0
  5  6  1  0  0  0  0
  6 26  1  0  0  0  0
  7 39  1  1  0  0  0
  7 12  1  0  0  0  0
  8  4  2  0  0  0  0
  9  8  1  0  0  0  0
 10 28  1  0  0  0  0
 11  3  1  6  0  0  0
 11 23  1  0  0  0  0
 11  1  1  0  0  0  0
 14 15  1  1  0  0  0
 16 19  2  0  0  0  0
 17 15  1  0  0  0  0
 18 32  1  0  0  0  0
 18  8  1  0  0  0  0
 19  2  1  0  0  0  0
 20 22  1  0  0  0  0
 20 46  1  1  0  0  0
 21 12  1  0  0  0  0
 21 33  1  0  0  0  0
 22 16  1  1  0  0  0
 25 34  1  0  0  0  0
 25 27  1  0  0  0  0
 26 32  1  0  0  0  0
 26  2  2  0  0  0  0
 27  7  1  0  0  0  0
 28 13  1  1  0  0  0
 28 14  1  0  0  0  0
 29 13  1  6  0  0  0
 29 23  1  0  0  0  0
 29 17  1  0  0  0  0
 30  6  2  0  0  0  0
 30 16  1  0  0  0  0
 31 36  1  6  0  0  0
 31 20  1  0  0  0  0
 31 30  1  0  0  0  0
 32 24  1  1  0  0  0
 33  9  1  0  0  0  0
 34 10  1  6  0  0  0
 34 14  1  0  0  0  0
 35 31  1  0  0  0  0
 37 38  2  0  0  0  0
 38 40  1  0  0  0  0
 38 39  1  0  0  0  0
 41 44  1  0  0  0  0
 41 40  1  0  0  0  0
 42 44  1  0  0  0  0
 43 44  1  0  0  0  0
 44 45  1  0  0  0  0
 48 46  1  0  0  0  0
 48 47  1  1  0  0  0
 49 48  1  0  0  0  0
 50 51  2  0  0  0  0
 51 49  1  0  0  0  0
 52 54  1  0  0  0  0
 53 52  2  0  0  0  0
 54 51  1  0  0  0  0
 55 52  1  0  0  0  0
M  END
>  <MODEL>
9

>  <REMARK>
 VINA RESULT:      -6.1      2.761     10.669
  Name = 
  8 active torsions:
  status: ('A' for Active; 'I' for Inactive)
    1  A    between atoms: O_6  and  C_27
    2  A    between atoms: O_6  and  C_44
    3  A    between atoms: C_10  and  C_53
    4  A    between atoms: C_11  and  N_47
    5  A    between atoms: N_19  and  C_33
    6  A    between atoms: N_19  and  C_51
    7  A    between atoms: C_33  and  C_45
    8  A    between atoms: C_44  and  C_53
                            x       y       z     vdW  Elec       q    Type
                         _______ _______ _______ _____ _____    ______ ____

>  <TORSDO>
F 8

$$$$
