=
 OpenBabel11062420163D

 25 26  0  0  1  0  0  0  0  0999 V2000
  188.2610  174.8220  141.8490 O   0  0  0  0  0  1  0  0  0  0  0  0
  188.7540  175.7980  142.7190 C   0  0  1  0  0  3  0  0  0  0  0  0
  185.5220  178.2680  144.7940 C   0  0  0  0  0  0  0  0  0  0  0  0
  188.3190  178.1560  141.3320 O   0  0  0  0  0  1  0  0  0  0  0  0
  186.5320  177.1200  146.6900 C   0  0  0  0  0  3  0  0  0  0  0  0
  186.5360  177.4150  145.3210 C   0  0  0  0  0  0  0  0  0  0  0  0
  185.5410  177.6220  147.5330 C   0  0  0  0  0  3  0  0  0  0  0  0
  187.6910  178.1290  142.5780 C   0  0  1  0  0  3  0  0  0  0  0  0
  187.5550  176.8230  144.5680 O   0  0  0  0  0  0  0  0  0  0  0  0
  186.3160  178.6710  142.4250 C   0  0  0  0  0  3  0  0  0  0  0  0
  184.5340  178.4310  147.0150 C   0  0  0  0  0  3  0  0  0  0  0  0
  185.4040  178.7290  143.3960 C   0  0  0  0  0  3  0  0  0  0  0  0
  184.5290  178.7490  145.6560 C   0  0  0  0  0  3  0  0  0  0  0  0
  187.5940  176.7180  143.1520 C   0  0  2  0  0  3  0  0  0  0  0  0
  189.4280  175.1160  143.9190 C   0  0  1  0  0  3  0  0  0  0  0  0
  189.5410  173.7350  143.7260 O   0  0  0  0  0  1  0  0  0  0  0  0
  190.8010  175.7370  144.2510 C   0  0  2  0  0  3  0  0  0  0  0  0
  190.1540  175.5010  146.6750 C   0  0  0  0  0  1  0  0  0  0  0  0
  192.1830  176.5720  146.0600 O   0  0  0  0  0  1  0  0  0  0  0  0
  190.2150  177.6080  145.6670 F   0  0  0  0  0  0  0  0  0  0  0  0
  190.8580  176.3830  145.6620 C   0  0  1  0  0  0  0  0  0  0  0  0
  191.2500  178.1320  143.5510 C   0  0  0  0  0  1  0  0  0  0  0  0
  191.2590  176.6770  143.1140 C   0  0  1  0  0  3  0  0  0  0  0  0
  192.6070  176.3380  142.6790 N   0  0  0  0  0  2  0  0  0  0  0  0
  192.5180  175.0850  141.9500 C   0  0  0  0  0  1  0  0  0  0  0  0
  2  1  1  6  0  0  0
  2 15  1  0  0  0  0
  3  6  2  0  0  0  0
  3 13  1  0  0  0  0
  5  7  2  0  0  0  0
  6  5  1  0  0  0  0
  8  4  1  6  0  0  0
  8 14  1  0  0  0  0
  9  6  1  0  0  0  0
 10  8  1  0  0  0  0
 10 12  2  0  0  0  0
 11  7  1  0  0  0  0
 12  3  1  0  0  0  0
 13 11  2  0  0  0  0
 14  2  1  1  0  0  0
 14  9  1  0  0  0  0
 15 16  1  6  0  0  0
 15 17  1  0  0  0  0
 17 23  1  6  0  0  0
 17 21  1  0  0  0  0
 21 20  1  0  0  0  0
 21 19  1  0  0  0  0
 21 18  1  1  0  0  0
 23 22  1  1  0  0  0
 24 23  1  0  0  0  0
 25 24  1  0  0  0  0
M  END
>  <MODEL>
1

>  <REMARK>
 VINA RESULT:      -6.7      0.000      0.000
  Name = 
  6 active torsions:
  status: ('A' for Active; 'I' for Inactive)
    1  A    between atoms: N_1  and  C_21
    2  A    between atoms: C_9  and  C_10
    3  A    between atoms: C_9  and  C_25
    4  A    between atoms: C_10  and  C_23
    5  A    between atoms: C_21  and  C_23
    6  A    between atoms: C_23  and  C_24
                            x       y       z     vdW  Elec       q    Type
                         _______ _______ _______ _____ _____    ______ ____

>  <TORSDO>
F 6

$$$$
=
 OpenBabel11062420163D

 25 26  0  0  1  0  0  0  0  0999 V2000
  187.6820  174.3850  142.2750 O   0  0  0  0  0  1  0  0  0  0  0  0
  188.4010  175.5540  142.5410 C   0  0  1  0  0  3  0  0  0  0  0  0
  185.7840  178.3540  145.0220 C   0  0  0  0  0  0  0  0  0  0  0  0
  188.2460  178.0380  141.3250 O   0  0  0  0  0  1  0  0  0  0  0  0
  186.7400  176.9380  146.7570 C   0  0  0  0  0  3  0  0  0  0  0  0
  186.6840  177.3190  145.4110 C   0  0  0  0  0  0  0  0  0  0  0  0
  185.9130  177.5310  147.7100 C   0  0  0  0  0  3  0  0  0  0  0  0
  187.7200  178.0260  142.6190 C   0  0  1  0  0  3  0  0  0  0  0  0
  187.5320  176.6270  144.5400 O   0  0  0  0  0  0  0  0  0  0  0  0
  186.4430  178.7860  142.6180 C   0  0  0  0  0  3  0  0  0  0  0  0
  185.0120  178.5200  147.3270 C   0  0  0  0  0  3  0  0  0  0  0  0
  185.6320  178.9200  143.6660 C   0  0  0  0  0  3  0  0  0  0  0  0
  184.9510  178.9260  145.9930 C   0  0  0  0  0  3  0  0  0  0  0  0
  187.4420  176.6120  143.1230 C   0  0  2  0  0  3  0  0  0  0  0  0
  189.5570  175.2330  143.5000 C   0  0  1  0  0  3  0  0  0  0  0  0
  189.6740  173.8550  143.7180 O   0  0  0  0  0  1  0  0  0  0  0  0
  190.8980  175.8280  143.0220 C   0  0  2  0  0  3  0  0  0  0  0  0
  193.0860  175.4110  141.8440 C   0  0  0  0  0  1  0  0  0  0  0  0
  192.3760  174.0010  143.6180 O   0  0  0  0  0  1  0  0  0  0  0  0
  191.3180  173.9000  141.6240 F   0  0  0  0  0  0  0  0  0  0  0  0
  191.9090  174.7540  142.5380 C   0  0  1  0  0  0  0  0  0  0  0  0
  191.2550  178.2470  143.6920 C   0  0  0  0  0  1  0  0  0  0  0  0
  191.4700  176.7940  144.0820 C   0  0  1  0  0  3  0  0  0  0  0  0
  190.8400  176.5680  145.3760 N   0  0  0  0  0  2  0  0  0  0  0  0
  191.9000  176.2480  146.3170 C   0  0  0  0  0  1  0  0  0  0  0  0
  2  1  1  1  0  0  0
  2 15  1  0  0  0  0
  3  6  2  0  0  0  0
  3 13  1  0  0  0  0
  5  7  2  0  0  0  0
  6  5  1  0  0  0  0
  8  4  1  6  0  0  0
  8 14  1  0  0  0  0
  9  6  1  0  0  0  0
 10  8  1  0  0  0  0
 10 12  2  0  0  0  0
 11  7  1  0  0  0  0
 12  3  1  0  0  0  0
 13 11  2  0  0  0  0
 14  2  1  6  0  0  0
 14  9  1  0  0  0  0
 15 16  1  6  0  0  0
 17 15  1  1  0  0  0
 17 23  1  0  0  0  0
 20 21  1  0  0  0  0
 21 18  1  6  0  0  0
 21 17  1  0  0  0  0
 21 19  1  0  0  0  0
 23 22  1  6  0  0  0
 23 24  1  0  0  0  0
 24 25  1  0  0  0  0
M  END
>  <MODEL>
2

>  <REMARK>
 VINA RESULT:      -6.6      1.613      2.243
  Name = 
  6 active torsions:
  status: ('A' for Active; 'I' for Inactive)
    1  A    between atoms: N_1  and  C_21
    2  A    between atoms: C_9  and  C_10
    3  A    between atoms: C_9  and  C_25
    4  A    between atoms: C_10  and  C_23
    5  A    between atoms: C_21  and  C_23
    6  A    between atoms: C_23  and  C_24
                            x       y       z     vdW  Elec       q    Type
                         _______ _______ _______ _____ _____    ______ ____

>  <TORSDO>
F 6

$$$$
=
 OpenBabel11062420163D

 25 26  0  0  1  0  0  0  0  0999 V2000
  189.5610  174.4150  142.3770 O   0  0  0  0  0  1  0  0  0  0  0  0
  189.6670  175.2270  143.5100 C   0  0  1  0  0  3  0  0  0  0  0  0
  186.1320  178.0340  144.1970 C   0  0  0  0  0  0  0  0  0  0  0  0
  190.1470  177.6750  142.3060 O   0  0  0  0  0  1  0  0  0  0  0  0
  186.0650  176.6840  146.2220 C   0  0  0  0  0  3  0  0  0  0  0  0
  186.7080  177.0290  145.0280 C   0  0  0  0  0  0  0  0  0  0  0  0
  184.8630  177.2840  146.5940 C   0  0  0  0  0  3  0  0  0  0  0  0
  189.0310  177.6860  143.1450 C   0  0  1  0  0  3  0  0  0  0  0  0
  187.8870  176.3330  144.7410 O   0  0  0  0  0  0  0  0  0  0  0  0
  187.9330  178.4180  142.4620 C   0  0  0  0  0  3  0  0  0  0  0  0
  184.2830  178.2440  145.7690 C   0  0  0  0  0  3  0  0  0  0  0  0
  186.6970  178.5620  142.9380 C   0  0  0  0  0  3  0  0  0  0  0  0
  184.9160  178.6130  144.5820 C   0  0  0  0  0  3  0  0  0  0  0  0
  188.5400  176.2790  143.4810 C   0  0  2  0  0  3  0  0  0  0  0  0
  189.6060  174.3510  144.7700 C   0  0  1  0  0  3  0  0  0  0  0  0
  189.5760  172.9900  144.4480 O   0  0  0  0  0  1  0  0  0  0  0  0
  190.7560  174.6560  145.7520 C   0  0  2  0  0  3  0  0  0  0  0  0
  188.9730  174.7470  147.5310 C   0  0  0  0  0  1  0  0  0  0  0  0
  191.2410  175.2100  148.0630 O   0  0  0  0  0  1  0  0  0  0  0  0
  190.0580  176.6990  146.8430 F   0  0  0  0  0  0  0  0  0  0  0  0
  190.2810  175.3500  147.0580 C   0  0  1  0  0  0  0  0  0  0  0  0
  192.7310  176.2270  145.9980 C   0  0  0  0  0  1  0  0  0  0  0  0
  191.9020  175.3990  145.0300 C   0  0  1  0  0  3  0  0  0  0  0  0
  192.7860  174.4540  144.3620 N   0  0  0  0  0  2  0  0  0  0  0  0
  193.2420  173.5110  145.3680 C   0  0  0  0  0  1  0  0  0  0  0  0
  2  1  1  6  0  0  0
  2 15  1  0  0  0  0
  3 13  2  0  0  0  0
  3  6  1  0  0  0  0
  5  7  1  0  0  0  0
  6  5  2  0  0  0  0
  8  4  1  6  0  0  0
  8 14  1  0  0  0  0
  9  6  1  0  0  0  0
 10 12  2  0  0  0  0
 10  8  1  0  0  0  0
 11  7  2  0  0  0  0
 12  3  1  0  0  0  0
 13 11  1  0  0  0  0
 14  2  1  1  0  0  0
 14  9  1  0  0  0  0
 15 16  1  6  0  0  0
 17 15  1  6  0  0  0
 17 21  1  0  0  0  0
 20 21  1  0  0  0  0
 21 18  1  1  0  0  0
 21 19  1  0  0  0  0
 23 17  1  0  0  0  0
 23 22  1  1  0  0  0
 24 23  1  0  0  0  0
 24 25  1  0  0  0  0
M  END
>  <MODEL>
3

>  <REMARK>
 VINA RESULT:      -6.5      1.516      1.817
  Name = 
  6 active torsions:
  status: ('A' for Active; 'I' for Inactive)
    1  A    between atoms: N_1  and  C_21
    2  A    between atoms: C_9  and  C_10
    3  A    between atoms: C_9  and  C_25
    4  A    between atoms: C_10  and  C_23
    5  A    between atoms: C_21  and  C_23
    6  A    between atoms: C_23  and  C_24
                            x       y       z     vdW  Elec       q    Type
                         _______ _______ _______ _____ _____    ______ ____

>  <TORSDO>
F 6

$$$$
=
 OpenBabel11062420163D

 25 26  0  0  1  0  0  0  0  0999 V2000
  189.0380  177.8990  147.2660 O   0  0  0  0  0  1  0  0  0  0  0  0
  188.5480  176.9280  146.3880 C   0  0  1  0  0  3  0  0  0  0  0  0
  184.8680  178.0680  143.9380 C   0  0  0  0  0  0  0  0  0  0  0  0
  186.2570  176.6140  147.9110 O   0  0  0  0  0  1  0  0  0  0  0  0
  186.3490  177.2190  142.2010 C   0  0  0  0  0  3  0  0  0  0  0  0
  186.0910  177.4400  143.5600 C   0  0  0  0  0  0  0  0  0  0  0  0
  185.4470  177.6280  141.2200 C   0  0  0  0  0  3  0  0  0  0  0  0
  185.9900  176.8430  146.5600 C   0  0  1  0  0  3  0  0  0  0  0  0
  187.0860  177.0230  144.4500 O   0  0  0  0  0  0  0  0  0  0  0  0
  184.8770  177.8220  146.4570 C   0  0  0  0  0  3  0  0  0  0  0  0
  184.2670  178.2680  141.5860 C   0  0  0  0  0  3  0  0  0  0  0  0
  184.4060  178.3280  145.3170 C   0  0  0  0  0  3  0  0  0  0  0  0
  183.9830  178.4840  142.9350 C   0  0  0  0  0  3  0  0  0  0  0  0
  187.1990  177.4030  145.8140 C   0  0  2  0  0  3  0  0  0  0  0  0
  189.5860  176.6700  145.2850 C   0  0  1  0  0  3  0  0  0  0  0  0
  190.3130  177.8280  144.9860 O   0  0  0  0  0  1  0  0  0  0  0  0
  190.5330  175.5030  145.6320 C   0  0  2  0  0  3  0  0  0  0  0  0
  192.8170  174.7790  146.4150 C   0  0  0  0  0  1  0  0  0  0  0  0
  192.5730  176.5900  144.8970 O   0  0  0  0  0  1  0  0  0  0  0  0
  191.9490  176.8530  147.0530 F   0  0  0  0  0  0  0  0  0  0  0  0
  191.9710  175.9650  145.9920 C   0  0  1  0  0  0  0  0  0  0  0  0
  189.8110  173.1480  145.0300 C   0  0  0  0  0  1  0  0  0  0  0  0
  190.4820  174.4190  144.5330 C   0  0  1  0  0  3  0  0  0  0  0  0
  189.7470  174.9000  143.3710 N   0  0  0  0  0  2  0  0  0  0  0  0
  190.6810  174.9290  142.2580 C   0  0  0  0  0  1  0  0  0  0  0  0
  2  1  1  1  0  0  0
  3 12  1  0  0  0  0
  5  6  2  0  0  0  0
  6  3  1  0  0  0  0
  6  9  1  0  0  0  0
  7 11  2  0  0  0  0
  7  5  1  0  0  0  0
  8  4  1  1  0  0  0
  9 14  1  0  0  0  0
 10  8  1  0  0  0  0
 11 13  1  0  0  0  0
 12 10  2  0  0  0  0
 13  3  2  0  0  0  0
 14  2  1  1  0  0  0
 14  8  1  0  0  0  0
 15 16  1  1  0  0  0
 15 17  1  0  0  0  0
 15  2  1  0  0  0  0
 17 23  1  6  0  0  0
 17 21  1  0  0  0  0
 19 21  1  0  0  0  0
 21 18  1  1  0  0  0
 21 20  1  0  0  0  0
 23 22  1  1  0  0  0
 24 23  1  0  0  0  0
 25 24  1  0  0  0  0
M  END
>  <MODEL>
4

>  <REMARK>
 VINA RESULT:      -6.5      2.008      3.746
  Name = 
  6 active torsions:
  status: ('A' for Active; 'I' for Inactive)
    1  A    between atoms: N_1  and  C_21
    2  A    between atoms: C_9  and  C_10
    3  A    between atoms: C_9  and  C_25
    4  A    between atoms: C_10  and  C_23
    5  A    between atoms: C_21  and  C_23
    6  A    between atoms: C_23  and  C_24
                            x       y       z     vdW  Elec       q    Type
                         _______ _______ _______ _____ _____    ______ ____

>  <TORSDO>
F 6

$$$$
=
 OpenBabel11062420163D

 25 26  0  0  1  0  0  0  0  0999 V2000
  190.5210  178.3130  144.6420 O   0  0  0  0  0  1  0  0  0  0  0  0
  189.9560  177.1180  145.0960 C   0  0  1  0  0  3  0  0  0  0  0  0
  185.5210  178.0750  145.6080 C   0  0  0  0  0  0  0  0  0  0  0  0
  188.8790  175.5780  147.1300 O   0  0  0  0  0  1  0  0  0  0  0  0
  185.8170  178.4660  143.2230 C   0  0  0  0  0  3  0  0  0  0  0  0
  186.3440  178.0290  144.4450 C   0  0  0  0  0  0  0  0  0  0  0  0
  184.5200  178.9690  143.1350 C   0  0  0  0  0  3  0  0  0  0  0  0
  187.9120  176.2540  146.3840 C   0  0  1  0  0  3  0  0  0  0  0  0
  187.6690  177.5820  144.4190 O   0  0  0  0  0  0  0  0  0  0  0  0
  186.9130  176.8330  147.3180 C   0  0  0  0  0  3  0  0  0  0  0  0
  183.7260  179.0420  144.2760 C   0  0  0  0  0  3  0  0  0  0  0  0
  185.8870  177.6060  146.9600 C   0  0  0  0  0  3  0  0  0  0  0  0
  184.2260  178.5970  145.5000 C   0  0  0  0  0  3  0  0  0  0  0  0
  188.5060  177.3860  145.5480 C   0  0  2  0  0  3  0  0  0  0  0  0
  190.0260  176.0660  143.9780 C   0  0  1  0  0  3  0  0  0  0  0  0
  190.6570  176.5730  142.8360 O   0  0  0  0  0  1  0  0  0  0  0  0
  190.7030  174.7600  144.4430 C   0  0  2  0  0  3  0  0  0  0  0  0
  192.7890  174.2160  145.7480 C   0  0  0  0  0  1  0  0  0  0  0  0
  192.8060  174.2030  143.3730 O   0  0  0  0  0  1  0  0  0  0  0  0
  192.6670  176.1710  144.4730 F   0  0  0  0  0  0  0  0  0  0  0  0
  192.2530  174.8510  144.4800 C   0  0  1  0  0  0  0  0  0  0  0  0
  189.8710  172.3680  144.5410 C   0  0  0  0  0  1  0  0  0  0  0  0
  190.1650  173.5560  143.6400 C   0  0  1  0  0  3  0  0  0  0  0  0
  188.9410  173.9120  142.9370 N   0  0  0  0  0  2  0  0  0  0  0  0
  188.4270  172.6970  142.3310 C   0  0  0  0  0  1  0  0  0  0  0  0
  2  1  1  6  0  0  0
  3 12  1  0  0  0  0
  5  6  1  0  0  0  0
  6  3  2  0  0  0  0
  7  5  2  0  0  0  0
  7 11  1  0  0  0  0
  8  4  1  1  0  0  0
  8 10  1  0  0  0  0
  9  6  1  0  0  0  0
  9 14  1  0  0  0  0
 11 13  2  0  0  0  0
 12 10  2  0  0  0  0
 13  3  1  0  0  0  0
 14  2  1  6  0  0  0
 14  8  1  0  0  0  0
 15 16  1  6  0  0  0
 15 17  1  0  0  0  0
 15  2  1  0  0  0  0
 17 23  1  6  0  0  0
 17 21  1  0  0  0  0
 19 21  1  0  0  0  0
 20 21  1  0  0  0  0
 21 18  1  1  0  0  0
 23 22  1  1  0  0  0
 24 23  1  0  0  0  0
 25 24  1  0  0  0  0
M  END
>  <MODEL>
5

>  <REMARK>
 VINA RESULT:      -6.2      2.160      3.626
  Name = 
  6 active torsions:
  status: ('A' for Active; 'I' for Inactive)
    1  A    between atoms: N_1  and  C_21
    2  A    between atoms: C_9  and  C_10
    3  A    between atoms: C_9  and  C_25
    4  A    between atoms: C_10  and  C_23
    5  A    between atoms: C_21  and  C_23
    6  A    between atoms: C_23  and  C_24
                            x       y       z     vdW  Elec       q    Type
                         _______ _______ _______ _____ _____    ______ ____

>  <TORSDO>
F 6

$$$$
=
 OpenBabel11062420163D

 25 26  0  0  1  0  0  0  0  0999 V2000
  191.0910  178.7690  143.8900 O   0  0  0  0  0  1  0  0  0  0  0  0
  190.3870  177.6530  144.3510 C   0  0  1  0  0  3  0  0  0  0  0  0
  186.0310  178.2080  143.1000 C   0  0  0  0  0  0  0  0  0  0  0  0
  188.7030  177.0210  146.4570 O   0  0  0  0  0  1  0  0  0  0  0  0
  187.0530  177.5690  140.9840 C   0  0  0  0  0  3  0  0  0  0  0  0
  187.1690  177.7640  142.3650 C   0  0  0  0  0  0  0  0  0  0  0  0
  185.8570  177.8290  140.3170 C   0  0  0  0  0  3  0  0  0  0  0  0
  188.0270  177.1920  145.2480 C   0  0  1  0  0  3  0  0  0  0  0  0
  188.4290  177.5090  142.9190 O   0  0  0  0  0  0  0  0  0  0  0  0
  186.8020  177.9940  145.5000 C   0  0  0  0  0  3  0  0  0  0  0  0
  184.7530  178.2910  141.0270 C   0  0  0  0  0  3  0  0  0  0  0  0
  185.9540  178.4110  144.5610 C   0  0  0  0  0  3  0  0  0  0  0  0
  184.8430  178.4770  142.4070 C   0  0  0  0  0  3  0  0  0  0  0  0
  188.8740  177.9170  144.2040 C   0  0  2  0  0  3  0  0  0  0  0  0
  190.8340  176.4110  143.5660 C   0  0  1  0  0  3  0  0  0  0  0  0
  191.7210  176.7460  142.5370 O   0  0  0  0  0  1  0  0  0  0  0  0
  191.4420  175.3270  144.4820 C   0  0  2  0  0  3  0  0  0  0  0  0
  189.3870  174.0960  143.7000 C   0  0  0  0  0  1  0  0  0  0  0  0
  191.1750  172.9310  144.7410 O   0  0  0  0  0  1  0  0  0  0  0  0
  189.8570  174.2840  145.9810 F   0  0  0  0  0  0  0  0  0  0  0  0
  190.4770  174.1410  144.7520 C   0  0  1  0  0  0  0  0  0  0  0  0
  192.3230  174.9180  146.8230 C   0  0  0  0  0  1  0  0  0  0  0  0
  192.0250  175.9640  145.7620 C   0  0  1  0  0  3  0  0  0  0  0  0
  193.2580  176.6790  145.4640 N   0  0  0  0  0  2  0  0  0  0  0  0
  194.2080  176.3470  146.5120 C   0  0  0  0  0  1  0  0  0  0  0  0
  2  1  1  6  0  0  0
  3 12  1  0  0  0  0
  5  6  1  0  0  0  0
  6  9  1  0  0  0  0
  6  3  2  0  0  0  0
  7  5  2  0  0  0  0
  7 11  1  0  0  0  0
  8 10  1  0  0  0  0
  8  4  1  1  0  0  0
  9 14  1  0  0  0  0
 11 13  2  0  0  0  0
 12 10  2  0  0  0  0
 13  3  1  0  0  0  0
 14  2  1  1  0  0  0
 14  8  1  0  0  0  0
 15 16  1  6  0  0  0
 15  2  1  0  0  0  0
 17 15  1  1  0  0  0
 17 21  1  0  0  0  0
 17 23  1  0  0  0  0
 19 21  1  0  0  0  0
 21 18  1  6  0  0  0
 21 20  1  0  0  0  0
 23 22  1  1  0  0  0
 24 23  1  0  0  0  0
 24 25  1  0  0  0  0
M  END
>  <MODEL>
6

>  <REMARK>
 VINA RESULT:      -6.2      2.031      3.820
  Name = 
  6 active torsions:
  status: ('A' for Active; 'I' for Inactive)
    1  A    between atoms: N_1  and  C_21
    2  A    between atoms: C_9  and  C_10
    3  A    between atoms: C_9  and  C_25
    4  A    between atoms: C_10  and  C_23
    5  A    between atoms: C_21  and  C_23
    6  A    between atoms: C_23  and  C_24
                            x       y       z     vdW  Elec       q    Type
                         _______ _______ _______ _____ _____    ______ ____

>  <TORSDO>
F 6

$$$$
=
 OpenBabel11062420163D

 25 26  0  0  1  0  0  0  0  0999 V2000
  190.9400  177.4510  145.0250 O   0  0  0  0  0  1  0  0  0  0  0  0
  189.8990  176.6730  144.5130 C   0  0  1  0  0  3  0  0  0  0  0  0
  185.8100  177.7030  146.2650 C   0  0  0  0  0  0  0  0  0  0  0  0
  189.2250  174.8540  146.4900 O   0  0  0  0  0  1  0  0  0  0  0  0
  185.5520  178.4800  143.9720 C   0  0  0  0  0  3  0  0  0  0  0  0
  186.3210  177.8220  144.9400 C   0  0  0  0  0  0  0  0  0  0  0  0
  184.3160  179.0410  144.2920 C   0  0  0  0  0  3  0  0  0  0  0  0
  188.1640  175.6850  146.1240 C   0  0  1  0  0  3  0  0  0  0  0  0
  187.5610  177.3350  144.5120 O   0  0  0  0  0  0  0  0  0  0  0  0
  187.4700  176.1360  147.3580 C   0  0  0  0  0  3  0  0  0  0  0  0
  183.8300  178.9520  145.5920 C   0  0  0  0  0  3  0  0  0  0  0  0
  186.4540  176.9980  147.3930 C   0  0  0  0  0  3  0  0  0  0  0  0
  184.5740  178.2870  146.5680 C   0  0  0  0  0  3  0  0  0  0  0  0
  188.6280  176.9170  145.3510 C   0  0  2  0  0  3  0  0  0  0  0  0
  189.6870  177.0180  143.0310 C   0  0  1  0  0  3  0  0  0  0  0  0
  190.6430  177.9340  142.5770 O   0  0  0  0  0  1  0  0  0  0  0  0
  189.6620  175.7630  142.1340 C   0  0  2  0  0  3  0  0  0  0  0  0
  187.5610  176.6540  141.0630 C   0  0  0  0  0  1  0  0  0  0  0  0
  188.3200  174.4510  140.5980 O   0  0  0  0  0  1  0  0  0  0  0  0
  187.4490  174.9220  142.6290 F   0  0  0  0  0  0  0  0  0  0  0  0
  188.2430  175.4130  141.6080 C   0  0  1  0  0  0  0  0  0  0  0  0
  189.4100  173.4700  143.1850 C   0  0  0  0  0  1  0  0  0  0  0  0
  190.3790  174.5860  142.8290 C   0  0  1  0  0  3  0  0  0  0  0  0
  191.4160  174.0350  141.9680 N   0  0  0  0  0  2  0  0  0  0  0  0
  192.5800  174.8950  142.0980 C   0  0  0  0  0  1  0  0  0  0  0  0
  2  1  1  1  0  0  0
  3 13  1  0  0  0  0
  3 12  1  0  0  0  0
  5  7  2  0  0  0  0
  5  6  1  0  0  0  0
  6  3  2  0  0  0  0
  7 11  1  0  0  0  0
  8  4  1  1  0  0  0
  8 10  1  0  0  0  0
  9  6  1  0  0  0  0
  9 14  1  0  0  0  0
 10 12  2  0  0  0  0
 11 13  2  0  0  0  0
 14  2  1  6  0  0  0
 14  8  1  0  0  0  0
 15 16  1  6  0  0  0
 15  2  1  0  0  0  0
 17 23  1  1  0  0  0
 17 15  1  0  0  0  0
 19 21  1  0  0  0  0
 21 18  1  6  0  0  0
 21 17  1  0  0  0  0
 21 20  1  0  0  0  0
 23 22  1  6  0  0  0
 24 25  1  0  0  0  0
 24 23  1  0  0  0  0
M  END
>  <MODEL>
7

>  <REMARK>
 VINA RESULT:      -6.2      1.866      3.905
  Name = 
  6 active torsions:
  status: ('A' for Active; 'I' for Inactive)
    1  A    between atoms: N_1  and  C_21
    2  A    between atoms: C_9  and  C_10
    3  A    between atoms: C_9  and  C_25
    4  A    between atoms: C_10  and  C_23
    5  A    between atoms: C_21  and  C_23
    6  A    between atoms: C_23  and  C_24
                            x       y       z     vdW  Elec       q    Type
                         _______ _______ _______ _____ _____    ______ ____

>  <TORSDO>
F 6

$$$$
=
 OpenBabel11062420163D

 25 26  0  0  1  0  0  0  0  0999 V2000
  186.6860  176.6220  147.7660 O   0  0  0  0  0  1  0  0  0  0  0  0
  187.3740  177.0660  146.6340 C   0  0  1  0  0  3  0  0  0  0  0  0
  191.0650  174.5880  145.5920 C   0  0  0  0  0  0  0  0  0  0  0  0
  189.6460  178.2570  147.6790 O   0  0  0  0  0  1  0  0  0  0  0  0
  189.6400  174.1480  143.6670 C   0  0  0  0  0  3  0  0  0  0  0  0
  189.8670  174.8420  144.8620 C   0  0  0  0  0  0  0  0  0  0  0  0
  190.5480  173.1970  143.2010 C   0  0  0  0  0  3  0  0  0  0  0  0
  189.9300  177.2160  146.7930 C   0  0  1  0  0  3  0  0  0  0  0  0
  188.8680  175.7410  145.2500 O   0  0  0  0  0  0  0  0  0  0  0  0
  191.0170  176.3850  147.3730 C   0  0  0  0  0  3  0  0  0  0  0  0
  191.7030  172.9270  143.9290 C   0  0  0  0  0  3  0  0  0  0  0  0
  191.4950  175.2640  146.8340 C   0  0  0  0  0  3  0  0  0  0  0  0
  191.9560  173.6190  145.1140 C   0  0  0  0  0  3  0  0  0  0  0  0
  188.7200  176.3200  146.5370 C   0  0  2  0  0  3  0  0  0  0  0  0
  186.5010  176.8430  145.3890 C   0  0  1  0  0  3  0  0  0  0  0  0
  185.1970  176.4740  145.7380 O   0  0  0  0  0  1  0  0  0  0  0  0
  186.4920  178.0690  144.4530 C   0  0  2  0  0  3  0  0  0  0  0  0
  184.0760  178.7860  144.5210 C   0  0  0  0  0  1  0  0  0  0  0  0
  185.5650  179.3710  146.2770 O   0  0  0  0  0  1  0  0  0  0  0  0
  185.7740  180.3710  144.2620 F   0  0  0  0  0  0  0  0  0  0  0  0
  185.4940  179.1730  144.8960 C   0  0  1  0  0  0  0  0  0  0  0  0
  187.1930  178.4460  142.0460 C   0  0  0  0  0  1  0  0  0  0  0  0
  186.3220  177.6270  142.9830 C   0  0  1  0  0  3  0  0  0  0  0  0
  186.6740  176.2220  142.8250 N   0  0  0  0  0  2  0  0  0  0  0  0
  187.4390  176.1090  141.5960 C   0  0  0  0  0  1  0  0  0  0  0  0
  2  1  1  1  0  0  0
  3 12  1  0  0  0  0
  5  6  1  0  0  0  0
  6  9  1  0  0  0  0
  6  3  2  0  0  0  0
  7  5  2  0  0  0  0
  7 11  1  0  0  0  0
  8 10  1  0  0  0  0
  8  4  1  1  0  0  0
  9 14  1  0  0  0  0
 11 13  2  0  0  0  0
 12 10  2  0  0  0  0
 13  3  1  0  0  0  0
 14  2  1  6  0  0  0
 14  8  1  0  0  0  0
 15 16  1  1  0  0  0
 15  2  1  0  0  0  0
 17 23  1  6  0  0  0
 17 21  1  0  0  0  0
 17 15  1  0  0  0  0
 20 21  1  0  0  0  0
 21 18  1  6  0  0  0
 21 19  1  0  0  0  0
 23 22  1  6  0  0  0
 24 23  1  0  0  0  0
 25 24  1  0  0  0  0
M  END
>  <MODEL>
8

>  <REMARK>
 VINA RESULT:      -6.1      2.701      6.086
  Name = 
  6 active torsions:
  status: ('A' for Active; 'I' for Inactive)
    1  A    between atoms: N_1  and  C_21
    2  A    between atoms: C_9  and  C_10
    3  A    between atoms: C_9  and  C_25
    4  A    between atoms: C_10  and  C_23
    5  A    between atoms: C_21  and  C_23
    6  A    between atoms: C_23  and  C_24
                            x       y       z     vdW  Elec       q    Type
                         _______ _______ _______ _____ _____    ______ ____

>  <TORSDO>
F 6

$$$$
=
 OpenBabel11062420163D

 25 26  0  0  1  0  0  0  0  0999 V2000
  189.3770  175.3190  142.0510 O   0  0  0  0  0  1  0  0  0  0  0  0
  189.3540  175.0250  143.4170 C   0  0  1  0  0  3  0  0  0  0  0  0
  193.4700  173.8120  144.9780 C   0  0  0  0  0  0  0  0  0  0  0  0
  189.3920  172.3160  143.9950 O   0  0  0  0  0  1  0  0  0  0  0  0
  193.3220  176.1110  145.7670 C   0  0  0  0  0  3  0  0  0  0  0  0
  192.7180  175.0120  145.1440 C   0  0  0  0  0  0  0  0  0  0  0  0
  194.6470  176.0580  146.1980 C   0  0  0  0  0  3  0  0  0  0  0  0
  190.5200  172.9930  144.4630 C   0  0  1  0  0  3  0  0  0  0  0  0
  191.3980  175.1950  144.7190 O   0  0  0  0  0  0  0  0  0  0  0  0
  191.7230  172.1750  144.1590 C   0  0  0  0  0  3  0  0  0  0  0  0
  195.3910  174.8970  146.0090 C   0  0  0  0  0  3  0  0  0  0  0  0
  192.9810  172.5440  144.3970 C   0  0  0  0  0  3  0  0  0  0  0  0
  194.8030  173.7860  145.4040 C   0  0  0  0  0  3  0  0  0  0  0  0
  190.6900  174.3640  143.8120 C   0  0  2  0  0  3  0  0  0  0  0  0
  189.0910  176.3130  144.2100 C   0  0  1  0  0  3  0  0  0  0  0  0
  188.8070  177.3890  143.3610 O   0  0  0  0  0  1  0  0  0  0  0  0
  187.9770  176.1370  145.2630 C   0  0  2  0  0  3  0  0  0  0  0  0
  185.6620  176.7650  146.0380 C   0  0  0  0  0  1  0  0  0  0  0  0
  187.0410  178.3500  144.9300 O   0  0  0  0  0  1  0  0  0  0  0  0
  186.1520  176.6360  143.7570 F   0  0  0  0  0  0  0  0  0  0  0  0
  186.7140  176.9920  144.9700 C   0  0  1  0  0  0  0  0  0  0  0  0
  189.0570  175.0170  147.2640 C   0  0  0  0  0  1  0  0  0  0  0  0
  188.5430  176.3250  146.6870 C   0  0  1  0  0  3  0  0  0  0  0  0
  189.6380  177.2860  146.6820 N   0  0  0  0  0  2  0  0  0  0  0  0
  190.5220  176.9310  147.7790 C   0  0  0  0  0  1  0  0  0  0  0  0
  2  1  1  6  0  0  0
  2 15  1  0  0  0  0
  3  6  2  0  0  0  0
  3 13  1  0  0  0  0
  5  7  2  0  0  0  0
  6  5  1  0  0  0  0
  8  4  1  6  0  0  0
  9  6  1  0  0  0  0
 10 12  2  0  0  0  0
 10  8  1  0  0  0  0
 11  7  1  0  0  0  0
 12  3  1  0  0  0  0
 13 11  2  0  0  0  0
 14  2  1  1  0  0  0
 14  8  1  0  0  0  0
 14  9  1  0  0  0  0
 15 16  1  6  0  0  0
 17 15  1  6  0  0  0
 17 23  1  0  0  0  0
 19 21  1  0  0  0  0
 20 21  1  0  0  0  0
 21 17  1  0  0  0  0
 21 18  1  1  0  0  0
 23 22  1  6  0  0  0
 24 23  1  0  0  0  0
 24 25  1  0  0  0  0
M  END
>  <MODEL>
9

>  <REMARK>
 VINA RESULT:      -6.1      2.756      6.462
  Name = 
  6 active torsions:
  status: ('A' for Active; 'I' for Inactive)
    1  A    between atoms: N_1  and  C_21
    2  A    between atoms: C_9  and  C_10
    3  A    between atoms: C_9  and  C_25
    4  A    between atoms: C_10  and  C_23
    5  A    between atoms: C_21  and  C_23
    6  A    between atoms: C_23  and  C_24
                            x       y       z     vdW  Elec       q    Type
                         _______ _______ _______ _____ _____    ______ ____

>  <TORSDO>
F 6

$$$$
