=
 OpenBabel11072408523D

 60 65  0  0  1  0  0  0  0  0999 V2000
  194.7820  174.6970  137.7730 O   0  0  0  0  0  1  0  0  0  0  0  0
  196.4150  168.6310  140.4200 F   0  0  0  0  0  0  0  0  0  0  0  0
  195.2630  172.8020  139.1410 C   0  0  1  0  0  3  0  0  0  0  0  0
  188.5730  174.9310  140.2730 N   0  0  0  0  0  2  0  0  0  0  0  0
  190.3750  177.1940  143.4330 C   0  0  1  0  0  3  0  0  0  0  0  0
  187.6800  175.4410  141.3030 C   0  0  0  0  0  2  0  0  0  0  0  0
  193.9670  174.9140  141.4250 C   0  0  2  0  0  3  0  0  0  0  0  0
  194.1320  171.9840  138.4830 C   0  0  2  0  0  3  0  0  0  0  0  0
  196.3250  171.0710  143.2510 C   0  0  1  0  0  3  0  0  0  0  0  0
  196.6190  170.9940  140.3530 C   0  0  0  0  0  2  0  0  0  0  0  0
  195.0070  174.0100  142.0900 C   0  0  0  0  0  2  0  0  0  0  0  0
  195.0100  174.3240  139.0980 C   0  0  0  0  0  0  0  0  0  0  0  0
  188.4600  175.7720  142.5620 C   0  0  0  0  0  2  0  0  0  0  0  0
  191.2970  175.9800  143.5190 C   0  0  1  0  0  3  0  0  0  0  0  0
  196.5280  169.7410  142.5230 C   0  0  1  0  0  3  0  0  0  0  0  0
  192.7430  174.7750  142.0850 O   0  0  0  0  0  0  0  0  0  0  0  0
  194.9580  171.6990  142.9740 C   0  0  1  0  0  3  0  0  0  0  0  0
  192.9170  171.7370  139.3760 C   0  0  0  0  0  2  0  0  0  0  0  0
  193.7660  174.7040  139.9150 C   0  0  0  0  0  2  0  0  0  0  0  0
  192.3410  176.0720  142.4170 C   0  0  2  0  0  3  0  0  0  0  0  0
  196.1330  175.0170  139.5590 O   0  0  0  0  0  1  0  0  0  0  0  0
  188.6810  172.7800  141.1510 O   0  0  0  0  0  0  0  0  0  0  0  0
  196.0440  169.7890  141.0740 C   0  0  2  0  0  3  0  0  0  0  0  0
  189.3430  176.9890  142.3220 C   0  0  0  0  0  2  0  0  0  0  0  0
  196.4840  170.8780  144.6250 O   0  0  0  0  0  1  0  0  0  0  0  0
  195.7830  172.2740  140.4930 C   0  0  2  0  0  3  0  0  0  0  0  0
  192.7180  176.3950  143.8550 C   0  0  0  0  0  2  0  0  0  0  0  0
  191.6990  171.4010  138.5310 C   0  0  0  0  0  2  0  0  0  0  0  0
  189.5990  173.5590  137.8440 C   0  0  0  0  0  1  0  0  0  0  0  0
  189.0730  173.5970  140.2700 C   0  0  0  0  0  0  0  0  0  0  0  0
  194.8540  172.5520  141.7030 C   0  0  2  0  0  3  0  0  0  0  0  0
  193.9260  170.7600  143.0340 O   0  0  0  0  0  1  0  0  0  0  0  0
  190.0930  173.1930  139.2380 C   0  0  1  0  0  3  0  0  0  0  0  0
  197.8820  169.3900  142.5730 O   0  0  0  0  0  1  0  0  0  0  0  0
  190.4270  171.7030  139.3010 C   0  0  0  0  0  2  0  0  0  0  0  0
  189.7330  177.5090  144.8020 C   0  0  2  0  0  3  0  0  0  0  0  0
  190.7230  177.9620  145.8550 C   0  0  0  0  0  2  0  0  0  0  0  0
  189.0090  176.3510  145.4690 C   0  0  2  0  0  0  0  0  0  0  0  0
  189.0500  176.7190  146.9410 C   0  0  0  0  0  2  0  0  0  0  0  0
  190.2120  177.5860  147.1690 N   0  0  0  0  0  0  0  0  0  0  0  0
  192.3820  176.7060  147.0270 O   0  0  0  0  0  1  0  0  0  0  0  0
  191.2520  176.8060  147.8460 C   0  0  0  0  0  3  0  0  0  0  0  0
  191.6190  177.4190  149.0490 O   0  0  0  0  0  1  0  0  0  0  0  0
  189.7600  175.0200  145.2570 C   0  0  0  0  0  2  0  0  0  0  0  0
  189.3470  173.9000  146.1560 C   0  0  0  0  0  0  0  0  0  0  0  0
  189.4440  172.5760  145.7470 O   0  0  0  0  0  0  0  0  0  0  0  0
  188.9760  174.1540  147.3290 O   0  0  0  0  0  1  0  0  0  0  0  0
  187.6670  176.2300  144.9830 O   0  0  0  0  0  0  0  0  0  0  0  0
  186.6050  177.1150  145.2280 C   0  0  0  0  0  0  0  0  0  0  0  0
  185.3480  179.1400  144.8080 C   0  0  0  0  0  3  0  0  0  0  0  0
  184.4630  178.7900  145.7790 N   0  0  0  0  0  0  0  0  0  0  0  0
  184.6050  177.6370  146.4810 C   0  0  0  0  0  3  0  0  0  0  0  0
  186.4370  178.3110  144.5140 C   0  0  0  0  0  3  0  0  0  0  0  0
  185.6780  176.7810  146.2180 C   0  0  0  0  0  3  0  0  0  0  0  0
  194.3170  169.6400  138.1540 O   0  0  0  0  0  0  0  0  0  0  0  0
  194.6260  170.7530  137.7580 C   0  0  0  0  0  0  0  0  0  0  0  0
  194.7200  171.0240  135.2920 C   0  0  0  0  0  1  0  0  0  0  0  0
  195.5350  170.8730  136.5670 C   0  0  2  0  0  3  0  0  0  0  0  0
  197.8280  170.0530  137.0580 C   0  0  0  0  0  1  0  0  0  0  0  0
  196.4800  169.6920  136.4780 C   0  0  0  0  0  2  0  0  0  0  0  0
  1 12  1  0  0  0  0
  3 12  1  1  0  0  0
  3 26  1  0  0  0  0
  4  6  1  0  0  0  0
  5 24  1  6  0  0  0
  5 14  1  0  0  0  0
  5 36  1  0  0  0  0
  6 13  1  0  0  0  0
  7 19  1  6  0  0  0
  7 16  1  0  0  0  0
  7 11  1  0  0  0  0
  8 56  1  1  0  0  0
  8  3  1  0  0  0  0
  8 18  1  0  0  0  0
  9 25  1  1  0  0  0
 10 23  1  0  0  0  0
 12 21  1  0  0  0  0
 12 19  1  0  0  0  0
 14 27  1  1  0  0  0
 15 34  1  6  0  0  0
 15  9  1  0  0  0  0
 16 20  1  0  0  0  0
 17 32  1  6  0  0  0
 17  9  1  0  0  0  0
 20 14  1  0  0  0  0
 20 27  1  1  0  0  0
 23  2  1  6  0  0  0
 23 15  1  0  0  0  0
 24 13  1  0  0  0  0
 26 10  1  6  0  0  0
 26 31  1  0  0  0  0
 28 35  1  0  0  0  0
 28 18  1  0  0  0  0
 30  4  1  0  0  0  0
 30 22  2  0  0  0  0
 31 11  1  1  0  0  0
 31 17  1  0  0  0  0
 33 29  1  6  0  0  0
 33 35  1  0  0  0  0
 33 30  1  0  0  0  0
 36 38  1  0  0  0  0
 36 37  1  1  0  0  0
 37 40  1  0  0  0  0
 38 44  1  6  0  0  0
 38 39  1  0  0  0  0
 39 40  1  0  0  0  0
 40 42  1  0  0  0  0
 41 42  1  0  0  0  0
 42 43  1  0  0  0  0
 44 45  1  0  0  0  0
 45 47  1  0  0  0  0
 46 45  2  0  0  0  0
 48 49  1  0  0  0  0
 48 38  1  0  0  0  0
 49 54  1  0  0  0  0
 50 51  2  0  0  0  0
 51 52  1  0  0  0  0
 53 50  1  0  0  0  0
 53 49  2  0  0  0  0
 54 52  2  0  0  0  0
 56 55  2  0  0  0  0
 58 57  1  6  0  0  0
 58 56  1  0  0  0  0
 60 58  1  0  0  0  0
 60 59  1  0  0  0  0
M  END
>  <MODEL>
1

>  <REMARK>
 VINA RESULT:      -7.3      0.000      0.000
  Name = 
  9 active torsions:
  status: ('A' for Active; 'I' for Inactive)
    1  A    between atoms: C_1  and  C_7
    2  A    between atoms: C_10  and  C_35
    3  A    between atoms: C_11  and  C_33
    4  A    between atoms: C_11  and  O_46
    5  A    between atoms: C_16  and  C_33
    6  A    between atoms: C_28  and  O_46
    7  A    between atoms: C_34  and  C_52
    8  A    between atoms: C_35  and  C_52
    9  A    between atoms: C_47  and  N_56
                            x       y       z     vdW  Elec       q    Type
                         _______ _______ _______ _____ _____    ______ ____

>  <TORSDO>
F 9

$$$$
=
 OpenBabel11072408523D

 60 65  0  0  1  0  0  0  0  0999 V2000
  192.6070  169.6600  141.5050 O   0  0  0  0  0  1  0  0  0  0  0  0
  197.0340  172.6210  137.2500 F   0  0  0  0  0  0  0  0  0  0  0  0
  193.8300  171.0820  140.0300 C   0  0  1  0  0  3  0  0  0  0  0  0
  193.0240  174.2930  146.3240 N   0  0  0  0  0  2  0  0  0  0  0  0
  189.5550  175.9630  144.4460 C   0  0  1  0  0  3  0  0  0  0  0  0
  192.4370  175.4640  146.9580 C   0  0  0  0  0  2  0  0  0  0  0  0
  191.4690  173.2130  141.1430 C   0  0  2  0  0  3  0  0  0  0  0  0
  195.0440  171.1020  140.9840 C   0  0  2  0  0  3  0  0  0  0  0  0
  193.9300  174.7030  137.2210 C   0  0  1  0  0  3  0  0  0  0  0  0
  194.8240  172.0030  137.8530 C   0  0  0  0  0  2  0  0  0  0  0  0
  191.8660  173.5850  139.7130 C   0  0  0  0  0  2  0  0  0  0  0  0
  192.4930  170.8360  140.7610 C   0  0  0  0  0  0  0  0  0  0  0  0
  191.5690  176.2210  145.9700 C   0  0  0  0  0  2  0  0  0  0  0  0
  190.4430  175.9240  143.2040 C   0  0  1  0  0  3  0  0  0  0  0  0
  195.3370  174.2390  136.8410 C   0  0  1  0  0  3  0  0  0  0  0  0
  191.6700  174.3140  141.9800 O   0  0  0  0  0  0  0  0  0  0  0  0
  193.7420  174.8640  138.7300 C   0  0  1  0  0  3  0  0  0  0  0  0
  195.2720  172.4290  141.7030 C   0  0  0  0  0  2  0  0  0  0  0  0
  192.1720  171.9800  141.7330 C   0  0  0  0  0  2  0  0  0  0  0  0
  190.4610  174.5070  142.6520 C   0  0  2  0  0  3  0  0  0  0  0  0
  191.4580  170.6680  139.8370 O   0  0  0  0  0  1  0  0  0  0  0  0
  194.7190  175.4730  145.2550 O   0  0  0  0  0  0  0  0  0  0  0  0
  195.8460  173.1190  137.7480 C   0  0  2  0  0  3  0  0  0  0  0  0
  190.3180  175.4130  145.6530 C   0  0  0  0  0  2  0  0  0  0  0  0
  193.6500  175.9130  136.5800 O   0  0  0  0  0  1  0  0  0  0  0  0
  193.7860  172.1980  138.9670 C   0  0  2  0  0  3  0  0  0  0  0  0
  189.6350  175.5850  141.9650 C   0  0  0  0  0  2  0  0  0  0  0  0
  196.1170  172.2170  142.9490 C   0  0  0  0  0  2  0  0  0  0  0  0
  194.8060  171.9880  145.7360 C   0  0  0  0  0  1  0  0  0  0  0  0
  194.1450  174.3630  145.4480 C   0  0  0  0  0  0  0  0  0  0  0  0
  193.3670  173.5920  139.5020 C   0  0  2  0  0  3  0  0  0  0  0  0
  194.8250  175.5130  139.3290 O   0  0  0  0  0  1  0  0  0  0  0  0
  194.6050  173.1190  144.7350 C   0  0  1  0  0  3  0  0  0  0  0  0
  195.3400  173.8240  135.5050 O   0  0  0  0  0  1  0  0  0  0  0  0
  195.8890  173.3460  143.9370 C   0  0  0  0  0  2  0  0  0  0  0  0
  188.9880  177.3800  144.6850 C   0  0  2  0  0  3  0  0  0  0  0  0
  188.7390  177.7030  146.1430 C   0  0  0  0  0  2  0  0  0  0  0  0
  187.6520  177.6730  144.0220 C   0  0  2  0  0  0  0  0  0  0  0  0
  187.0750  178.7820  144.8820 C   0  0  0  0  0  2  0  0  0  0  0  0
  187.6490  178.6720  146.2280 N   0  0  0  0  0  0  0  0  0  0  0  0
  187.1690  177.9590  148.4100 O   0  0  0  0  0  1  0  0  0  0  0  0
  186.6320  178.1230  147.1280 C   0  0  0  0  0  3  0  0  0  0  0  0
  185.5310  178.9810  147.2060 O   0  0  0  0  0  1  0  0  0  0  0  0
  186.7160  176.4480  144.0760 C   0  0  0  0  0  2  0  0  0  0  0  0
  185.3920  176.6800  144.7320 C   0  0  0  0  0  0  0  0  0  0  0  0
  184.4510  177.5330  144.1700 O   0  0  0  0  0  0  0  0  0  0  0  0
  185.0960  176.0370  145.7690 O   0  0  0  0  0  1  0  0  0  0  0  0
  187.8280  178.0850  142.6620 O   0  0  0  0  0  0  0  0  0  0  0  0
  186.8910  177.9620  141.6220 C   0  0  0  0  0  0  0  0  0  0  0  0
  184.7720  178.4530  140.5640 C   0  0  0  0  0  3  0  0  0  0  0  0
  185.1160  177.6650  139.5110 N   0  0  0  0  0  0  0  0  0  0  0  0
  186.3110  177.0220  139.4720 C   0  0  0  0  0  3  0  0  0  0  0  0
  185.6510  178.6170  141.6410 C   0  0  0  0  0  3  0  0  0  0  0  0
  187.2180  177.1610  140.5270 C   0  0  0  0  0  3  0  0  0  0  0  0
  197.2750  171.2040  140.1790 O   0  0  0  0  0  0  0  0  0  0  0  0
  196.2930  170.5060  140.3750 C   0  0  0  0  0  0  0  0  0  0  0  0
  196.4670  168.1660  141.1880 C   0  0  0  0  0  1  0  0  0  0  0  0
  196.3370  169.0600  139.9650 C   0  0  2  0  0  3  0  0  0  0  0  0
  196.9820  169.0650  137.5660 C   0  0  0  0  0  1  0  0  0  0  0  0
  197.4560  168.8050  138.9770 C   0  0  0  0  0  2  0  0  0  0  0  0
  3 12  1  1  0  0  0
  3  8  1  0  0  0  0
  4  6  1  0  0  0  0
  5 36  1  0  0  0  0
  5 24  1  1  0  0  0
  7 11  1  6  0  0  0
  7 19  1  0  0  0  0
  7 16  1  0  0  0  0
  8 56  1  6  0  0  0
  8 18  1  0  0  0  0
  9 25  1  6  0  0  0
  9 17  1  0  0  0  0
 12  1  1  0  0  0  0
 12 19  1  0  0  0  0
 13  6  1  0  0  0  0
 14 27  1  6  0  0  0
 14  5  1  0  0  0  0
 15 34  1  6  0  0  0
 15  9  1  0  0  0  0
 15 23  1  0  0  0  0
 16 20  1  0  0  0  0
 17 32  1  1  0  0  0
 17 31  1  0  0  0  0
 18 28  1  0  0  0  0
 20 27  1  6  0  0  0
 20 14  1  0  0  0  0
 21 12  1  0  0  0  0
 22 30  2  0  0  0  0
 23  2  1  6  0  0  0
 23 10  1  0  0  0  0
 24 13  1  0  0  0  0
 26 10  1  1  0  0  0
 26 31  1  0  0  0  0
 26  3  1  0  0  0  0
 28 35  1  0  0  0  0
 30  4  1  0  0  0  0
 31 11  1  6  0  0  0
 33 30  1  0  0  0  0
 33 29  1  1  0  0  0
 35 33  1  0  0  0  0
 36 37  1  1  0  0  0
 37 40  1  0  0  0  0
 38 44  1  1  0  0  0
 38 36  1  0  0  0  0
 38 39  1  0  0  0  0
 39 40  1  0  0  0  0
 40 42  1  0  0  0  0
 42 43  1  0  0  0  0
 42 41  1  0  0  0  0
 44 45  1  0  0  0  0
 45 47  1  0  0  0  0
 46 45  2  0  0  0  0
 48 38  1  0  0  0  0
 49 53  1  0  0  0  0
 49 48  1  0  0  0  0
 50 53  2  0  0  0  0
 51 50  1  0  0  0  0
 52 51  2  0  0  0  0
 52 54  1  0  0  0  0
 54 49  2  0  0  0  0
 55 56  2  0  0  0  0
 58 56  1  0  0  0  0
 58 57  1  1  0  0  0
 59 60  1  0  0  0  0
 60 58  1  0  0  0  0
M  END
>  <MODEL>
2

>  <REMARK>
 VINA RESULT:      -6.8      2.376      5.213
  Name = 
  9 active torsions:
  status: ('A' for Active; 'I' for Inactive)
    1  A    between atoms: C_1  and  C_7
    2  A    between atoms: C_10  and  C_35
    3  A    between atoms: C_11  and  C_33
    4  A    between atoms: C_11  and  O_46
    5  A    between atoms: C_16  and  C_33
    6  A    between atoms: C_28  and  O_46
    7  A    between atoms: C_34  and  C_52
    8  A    between atoms: C_35  and  C_52
    9  A    between atoms: C_47  and  N_56
                            x       y       z     vdW  Elec       q    Type
                         _______ _______ _______ _____ _____    ______ ____

>  <TORSDO>
F 9

$$$$
=
 OpenBabel11072408523D

 60 65  0  0  1  0  0  0  0  0999 V2000
  194.6750  169.0030  140.9960 O   0  0  0  0  0  1  0  0  0  0  0  0
  193.3540  170.6530  134.5160 F   0  0  0  0  0  0  0  0  0  0  0  0
  193.8410  169.8570  138.9300 C   0  0  1  0  0  3  0  0  0  0  0  0
  195.8420  175.2490  143.1110 N   0  0  0  0  0  2  0  0  0  0  0  0
  191.7280  175.1730  144.3040 C   0  0  1  0  0  3  0  0  0  0  0  0
  195.3380  176.4310  143.7970 C   0  0  0  0  0  2  0  0  0  0  0  0
  192.0950  171.7200  141.1300 C   0  0  2  0  0  3  0  0  0  0  0  0
  195.1880  170.5420  138.6180 C   0  0  2  0  0  3  0  0  0  0  0  0
  190.4470  171.8200  136.5550 C   0  0  1  0  0  3  0  0  0  0  0  0
  192.6510  169.9170  136.6590 C   0  0  0  0  0  2  0  0  0  0  0  0
  191.2640  171.5020  139.8640 C   0  0  0  0  0  2  0  0  0  0  0  0
  193.5890  169.6830  140.4430 C   0  0  0  0  0  0  0  0  0  0  0  0
  193.8230  176.4820  143.7170 C   0  0  0  0  0  2  0  0  0  0  0  0
  191.5100  174.7800  142.8440 C   0  0  1  0  0  3  0  0  0  0  0  0
  191.2930  171.5390  135.3120 C   0  0  1  0  0  3  0  0  0  0  0  0
  192.2410  173.0900  141.3590 O   0  0  0  0  0  0  0  0  0  0  0  0
  191.2120  172.5810  137.6380 C   0  0  1  0  0  3  0  0  0  0  0  0
  195.1710  172.0650  138.7190 C   0  0  0  0  0  2  0  0  0  0  0  0
  193.4760  171.0430  141.1480 C   0  0  0  0  0  2  0  0  0  0  0  0
  191.8270  173.3030  142.6760 C   0  0  2  0  0  3  0  0  0  0  0  0
  192.4400  168.9180  140.6600 O   0  0  0  0  0  1  0  0  0  0  0  0
  195.6700  176.1660  140.9810 O   0  0  0  0  0  0  0  0  0  0  0  0
  192.7020  171.0600  135.6620 C   0  0  2  0  0  3  0  0  0  0  0  0
  193.2210  175.3760  144.5740 C   0  0  0  0  0  2  0  0  0  0  0  0
  189.3070  172.5410  136.1890 O   0  0  0  0  0  1  0  0  0  0  0  0
  192.6230  170.3600  138.1290 C   0  0  2  0  0  3  0  0  0  0  0  0
  190.3820  173.7750  142.7110 C   0  0  0  0  0  2  0  0  0  0  0  0
  196.5830  172.5980  138.9050 C   0  0  0  0  0  2  0  0  0  0  0  0
  197.6420  173.3450  141.7090 C   0  0  0  0  0  1  0  0  0  0  0  0
  195.9500  175.1610  141.6930 C   0  0  0  0  0  0  0  0  0  0  0  0
  192.0580  171.7270  138.5930 C   0  0  2  0  0  3  0  0  0  0  0  0
  191.9620  173.6350  137.1110 O   0  0  0  0  0  1  0  0  0  0  0  0
  196.3590  173.8560  141.0640 C   0  0  1  0  0  3  0  0  0  0  0  0
  190.6410  170.5930  134.5150 O   0  0  0  0  0  1  0  0  0  0  0  0
  196.5440  173.9710  139.5510 C   0  0  0  0  0  2  0  0  0  0  0  0
  190.8730  176.4000  144.6880 C   0  0  2  0  0  3  0  0  0  0  0  0
  191.4440  177.2140  145.8300 C   0  0  0  0  0  2  0  0  0  0  0  0
  189.4550  176.0960  145.1410 C   0  0  2  0  0  0  0  0  0  0  0  0
  189.1020  177.2960  146.0020 C   0  0  0  0  0  2  0  0  0  0  0  0
  190.3440  177.8640  146.5370 N   0  0  0  0  0  0  0  0  0  0  0  0
  191.6390  176.8030  148.1800 O   0  0  0  0  0  1  0  0  0  0  0  0
  190.4510  177.5060  147.9540 C   0  0  0  0  0  3  0  0  0  0  0  0
  190.4470  178.6550  148.7510 O   0  0  0  0  0  1  0  0  0  0  0  0
  189.4020  174.8180  146.0050 C   0  0  0  0  0  2  0  0  0  0  0  0
  188.5360  174.9000  147.2210 C   0  0  0  0  0  0  0  0  0  0  0  0
  188.8340  174.1740  148.3660 O   0  0  0  0  0  1  0  0  0  0  0  0
  187.5630  175.6950  147.2340 O   0  0  0  0  0  0  0  0  0  0  0  0
  188.5700  175.9590  144.0230 O   0  0  0  0  0  0  0  0  0  0  0  0
  187.7600  176.9620  143.4680 C   0  0  0  0  0  0  0  0  0  0  0  0
  186.9390  178.2910  141.6200 C   0  0  0  0  0  3  0  0  0  0  0  0
  186.1090  178.9540  142.4670 N   0  0  0  0  0  0  0  0  0  0  0  0
  186.0710  178.6600  143.7920 C   0  0  0  0  0  3  0  0  0  0  0  0
  187.7820  177.2830  142.1030 C   0  0  0  0  0  3  0  0  0  0  0  0
  186.8960  177.6600  144.3140 C   0  0  0  0  0  3  0  0  0  0  0  0
  195.9850  170.7320  136.3900 O   0  0  0  0  0  0  0  0  0  0  0  0
  195.8530  170.0130  137.3670 C   0  0  0  0  0  0  0  0  0  0  0  0
  197.1960  168.2520  138.4900 C   0  0  0  0  0  1  0  0  0  0  0  0
  196.3260  168.5880  137.2890 C   0  0  2  0  0  3  0  0  0  0  0  0
  196.0750  168.1690  134.8530 C   0  0  0  0  0  1  0  0  0  0  0  0
  197.0590  168.3250  135.9890 C   0  0  0  0  0  2  0  0  0  0  0  0
  3 12  1  1  0  0  0
  4  6  1  0  0  0  0
  5 24  1  6  0  0  0
  5 36  1  0  0  0  0
  7 11  1  6  0  0  0
  7 19  1  0  0  0  0
  7 16  1  0  0  0  0
  8 56  1  6  0  0  0
  8 18  1  0  0  0  0
  8  3  1  0  0  0  0
  9 25  1  6  0  0  0
  9 17  1  0  0  0  0
 12 21  1  0  0  0  0
 12  1  1  0  0  0  0
 12 19  1  0  0  0  0
 13  6  1  0  0  0  0
 13 24  1  0  0  0  0
 14 27  1  1  0  0  0
 14  5  1  0  0  0  0
 15 34  1  6  0  0  0
 15 23  1  0  0  0  0
 15  9  1  0  0  0  0
 16 20  1  0  0  0  0
 17 32  1  6  0  0  0
 17 31  1  0  0  0  0
 18 28  1  0  0  0  0
 20 27  1  6  0  0  0
 20 14  1  0  0  0  0
 22 30  2  0  0  0  0
 23  2  1  6  0  0  0
 23 10  1  0  0  0  0
 26 10  1  6  0  0  0
 26 31  1  0  0  0  0
 26  3  1  0  0  0  0
 28 35  1  0  0  0  0
 30  4  1  0  0  0  0
 31 11  1  1  0  0  0
 33 30  1  0  0  0  0
 33 29  1  1  0  0  0
 35 33  1  0  0  0  0
 36 38  1  0  0  0  0
 36 37  1  1  0  0  0
 37 40  1  0  0  0  0
 38 39  1  0  0  0  0
 38 44  1  1  0  0  0
 39 40  1  0  0  0  0
 40 42  1  0  0  0  0
 42 41  1  0  0  0  0
 42 43  1  0  0  0  0
 44 45  1  0  0  0  0
 45 47  2  0  0  0  0
 45 46  1  0  0  0  0
 48 38  1  0  0  0  0
 49 48  1  0  0  0  0
 49 54  1  0  0  0  0
 50 53  1  0  0  0  0
 50 51  2  0  0  0  0
 51 52  1  0  0  0  0
 52 54  2  0  0  0  0
 53 49  2  0  0  0  0
 55 56  2  0  0  0  0
 58 56  1  0  0  0  0
 58 57  1  1  0  0  0
 59 60  1  0  0  0  0
 60 58  1  0  0  0  0
M  END
>  <MODEL>
3

>  <REMARK>
 VINA RESULT:      -6.8      2.435      5.013
  Name = 
  9 active torsions:
  status: ('A' for Active; 'I' for Inactive)
    1  A    between atoms: C_1  and  C_7
    2  A    between atoms: C_10  and  C_35
    3  A    between atoms: C_11  and  C_33
    4  A    between atoms: C_11  and  O_46
    5  A    between atoms: C_16  and  C_33
    6  A    between atoms: C_28  and  O_46
    7  A    between atoms: C_34  and  C_52
    8  A    between atoms: C_35  and  C_52
    9  A    between atoms: C_47  and  N_56
                            x       y       z     vdW  Elec       q    Type
                         _______ _______ _______ _____ _____    ______ ____

>  <TORSDO>
F 9

$$$$
=
 OpenBabel11072408523D

 60 65  0  0  1  0  0  0  0  0999 V2000
  193.7070  169.4160  140.5660 O   0  0  0  0  0  1  0  0  0  0  0  0
  197.8290  173.7530  137.3000 F   0  0  0  0  0  0  0  0  0  0  0  0
  194.7330  171.2170  139.3840 C   0  0  1  0  0  3  0  0  0  0  0  0
  191.9830  173.6200  145.4860 N   0  0  0  0  0  2  0  0  0  0  0  0
  188.5760  174.4470  143.0250 C   0  0  1  0  0  3  0  0  0  0  0  0
  190.9950  174.5430  146.0260 C   0  0  0  0  0  2  0  0  0  0  0  0
  191.7200  172.5570  140.0800 C   0  0  2  0  0  3  0  0  0  0  0  0
  195.7080  171.4860  140.5510 C   0  0  2  0  0  3  0  0  0  0  0  0
  194.3280  174.9350  136.7320 C   0  0  1  0  0  3  0  0  0  0  0  0
  195.8030  172.5280  137.4570 C   0  0  0  0  0  2  0  0  0  0  0  0
  192.2450  173.1260  138.7610 C   0  0  0  0  0  2  0  0  0  0  0  0
  193.4080  170.5710  139.8420 C   0  0  0  0  0  0  0  0  0  0  0  0
  190.1410  175.1150  144.9090 C   0  0  0  0  0  2  0  0  0  0  0  0
  189.6440  174.7380  141.9730 C   0  0  1  0  0  3  0  0  0  0  0  0
  195.8530  174.8900  136.6150 C   0  0  1  0  0  3  0  0  0  0  0  0
  191.4620  173.6060  140.9670 O   0  0  0  0  0  0  0  0  0  0  0  0
  193.8410  174.9270  138.1820 C   0  0  1  0  0  3  0  0  0  0  0  0
  195.4330  172.7690  141.3320 C   0  0  0  0  0  2  0  0  0  0  0  0
  192.6190  171.5130  140.7630 C   0  0  0  0  0  2  0  0  0  0  0  0
  190.1470  173.4210  141.4010 C   0  0  2  0  0  3  0  0  0  0  0  0
  192.6380  170.2050  138.7350 O   0  0  0  0  0  1  0  0  0  0  0  0
  193.4500  175.2830  144.7860 O   0  0  0  0  0  0  0  0  0  0  0  0
  196.4820  173.8800  137.5750 C   0  0  2  0  0  3  0  0  0  0  0  0
  189.2360  174.0300  144.3410 C   0  0  0  0  0  2  0  0  0  0  0  0
  193.8450  176.0710  136.0800 O   0  0  0  0  0  1  0  0  0  0  0  0
  194.5720  172.3570  138.3590 C   0  0  2  0  0  3  0  0  0  0  0  0
  189.1920  174.2900  140.5960 C   0  0  0  0  0  2  0  0  0  0  0  0
  196.0710  172.6960  142.7100 C   0  0  0  0  0  2  0  0  0  0  0  0
  194.4040  171.9210  145.1920 C   0  0  0  0  0  1  0  0  0  0  0  0
  193.1780  174.0510  144.8410 C   0  0  0  0  0  0  0  0  0  0  0  0
  193.7000  173.5460  138.8380 C   0  0  2  0  0  3  0  0  0  0  0  0
  194.5820  175.7930  138.9900 O   0  0  0  0  0  1  0  0  0  0  0  0
  194.0790  173.0290  144.1990 C   0  0  1  0  0  3  0  0  0  0  0  0
  196.2050  174.5910  135.2940 O   0  0  0  0  0  1  0  0  0  0  0  0
  195.3710  173.6470  143.6630 C   0  0  0  0  0  2  0  0  0  0  0  0
  187.6090  175.6410  143.1870 C   0  0  2  0  0  3  0  0  0  0  0  0
  186.6900  175.8520  142.0020 C   0  0  0  0  0  2  0  0  0  0  0  0
  188.2680  176.9980  143.3720 C   0  0  2  0  0  0  0  0  0  0  0  0
  187.2060  177.9670  142.8860 C   0  0  0  0  0  2  0  0  0  0  0  0
  186.3480  177.2690  141.9230 N   0  0  0  0  0  0  0  0  0  0  0  0
  187.1340  176.6610  139.7980 O   0  0  0  0  0  1  0  0  0  0  0  0
  186.6820  177.7340  140.5740 C   0  0  0  0  0  3  0  0  0  0  0  0
  185.5590  178.2950  139.9570 O   0  0  0  0  0  1  0  0  0  0  0  0
  189.5260  177.1380  142.4910 C   0  0  0  0  0  2  0  0  0  0  0  0
  190.6740  177.8600  143.1200 C   0  0  0  0  0  0  0  0  0  0  0  0
  190.4730  178.9990  143.8890 O   0  0  0  0  0  1  0  0  0  0  0  0
  191.8330  177.3880  143.0150 O   0  0  0  0  0  0  0  0  0  0  0  0
  188.6130  177.2240  144.7440 O   0  0  0  0  0  0  0  0  0  0  0  0
  187.7210  177.4400  145.8070 C   0  0  0  0  0  0  0  0  0  0  0  0
  186.1300  178.7790  147.0450 C   0  0  0  0  0  3  0  0  0  0  0  0
  185.9720  177.7640  147.9350 N   0  0  0  0  0  0  0  0  0  0  0  0
  186.6510  176.5960  147.8030 C   0  0  0  0  0  3  0  0  0  0  0  0
  187.0080  178.6380  145.9630 C   0  0  0  0  0  3  0  0  0  0  0  0
  187.5370  176.4160  146.7370 C   0  0  0  0  0  3  0  0  0  0  0  0
  197.8780  172.2550  139.9740 O   0  0  0  0  0  0  0  0  0  0  0  0
  197.1590  171.2900  140.1760 C   0  0  0  0  0  0  0  0  0  0  0  0
  197.5230  169.4190  138.5840 C   0  0  0  0  0  1  0  0  0  0  0  0
  197.7320  169.9100  140.0080 C   0  0  2  0  0  3  0  0  0  0  0  0
  197.7810  169.1380  142.3690 C   0  0  0  0  0  1  0  0  0  0  0  0
  197.1400  168.9450  141.0150 C   0  0  0  0  0  2  0  0  0  0  0  0
  3 12  1  1  0  0  0
  3  8  1  0  0  0  0
  4  6  1  0  0  0  0
  5 36  1  0  0  0  0
  5 24  1  1  0  0  0
  7 11  1  6  0  0  0
  7 19  1  0  0  0  0
  7 16  1  0  0  0  0
  8 56  1  6  0  0  0
  8 18  1  0  0  0  0
  9 25  1  1  0  0  0
  9 17  1  0  0  0  0
 10 23  1  0  0  0  0
 12  1  1  0  0  0  0
 12 19  1  0  0  0  0
 13  6  1  0  0  0  0
 14 27  1  6  0  0  0
 14  5  1  0  0  0  0
 15 34  1  6  0  0  0
 15  9  1  0  0  0  0
 15 23  1  0  0  0  0
 16 20  1  0  0  0  0
 17 31  1  0  0  0  0
 17 32  1  1  0  0  0
 18 28  1  0  0  0  0
 20 27  1  6  0  0  0
 20 14  1  0  0  0  0
 21 12  1  0  0  0  0
 22 30  2  0  0  0  0
 23  2  1  6  0  0  0
 24 13  1  0  0  0  0
 26 10  1  1  0  0  0
 26 31  1  0  0  0  0
 26  3  1  0  0  0  0
 28 35  1  0  0  0  0
 30  4  1  0  0  0  0
 31 11  1  6  0  0  0
 33 30  1  0  0  0  0
 33 29  1  1  0  0  0
 35 33  1  0  0  0  0
 36 37  1  6  0  0  0
 36 38  1  0  0  0  0
 38 44  1  6  0  0  0
 38 48  1  0  0  0  0
 39 38  1  0  0  0  0
 40 37  1  0  0  0  0
 40 39  1  0  0  0  0
 41 42  1  0  0  0  0
 42 40  1  0  0  0  0
 43 42  1  0  0  0  0
 44 45  1  0  0  0  0
 45 46  1  0  0  0  0
 47 45  2  0  0  0  0
 48 49  1  0  0  0  0
 49 53  2  0  0  0  0
 49 54  1  0  0  0  0
 50 51  2  0  0  0  0
 52 51  1  0  0  0  0
 53 50  1  0  0  0  0
 54 52  2  0  0  0  0
 55 56  2  0  0  0  0
 58 57  1  6  0  0  0
 58 56  1  0  0  0  0
 58 60  1  0  0  0  0
 60 59  1  0  0  0  0
M  END
>  <MODEL>
4

>  <REMARK>
 VINA RESULT:      -6.5      2.447      5.404
  Name = 
  9 active torsions:
  status: ('A' for Active; 'I' for Inactive)
    1  A    between atoms: C_1  and  C_7
    2  A    between atoms: C_10  and  C_35
    3  A    between atoms: C_11  and  C_33
    4  A    between atoms: C_11  and  O_46
    5  A    between atoms: C_16  and  C_33
    6  A    between atoms: C_28  and  O_46
    7  A    between atoms: C_34  and  C_52
    8  A    between atoms: C_35  and  C_52
    9  A    between atoms: C_47  and  N_56
                            x       y       z     vdW  Elec       q    Type
                         _______ _______ _______ _____ _____    ______ ____

>  <TORSDO>
F 9

$$$$
=
 OpenBabel11072408523D

 60 65  0  0  1  0  0  0  0  0999 V2000
  194.9830  176.4560  143.9500 O   0  0  0  0  0  1  0  0  0  0  0  0
  188.5400  175.6540  146.0250 F   0  0  0  0  0  0  0  0  0  0  0  0
  192.6570  175.9910  144.2110 C   0  0  1  0  0  3  0  0  0  0  0  0
  196.1330  169.9900  142.6390 N   0  0  0  0  0  2  0  0  0  0  0  0
  195.0830  171.0450  138.6210 C   0  0  1  0  0  3  0  0  0  0  0  0
  196.2270  168.9350  141.6400 C   0  0  0  0  0  2  0  0  0  0  0  0
  193.2680  174.4960  141.2540 C   0  0  2  0  0  3  0  0  0  0  0  0
  192.9380  175.0050  145.3640 C   0  0  2  0  0  3  0  0  0  0  0  0
  188.5670  175.1390  142.3230 C   0  0  1  0  0  3  0  0  0  0  0  0
  190.1350  176.3960  144.4340 C   0  0  0  0  0  2  0  0  0  0  0  0
  191.8270  175.0070  141.2840 C   0  0  0  0  0  2  0  0  0  0  0  0
  193.8380  176.1190  143.2260 C   0  0  0  0  0  0  0  0  0  0  0  0
  195.3880  169.2820  140.4240 C   0  0  0  0  0  2  0  0  0  0  0  0
  193.8210  171.5790  139.2940 C   0  0  1  0  0  3  0  0  0  0  0  0
  188.0010  175.2770  143.7380 C   0  0  1  0  0  3  0  0  0  0  0  0
  193.2670  173.1210  141.0010 O   0  0  0  0  0  0  0  0  0  0  0  0
  189.7160  174.1330  142.2360 C   0  0  1  0  0  3  0  0  0  0  0  0
  192.7180  173.5340  145.0170 C   0  0  0  0  0  2  0  0  0  0  0  0
  194.1100  174.7900  142.5070 C   0  0  0  0  0  2  0  0  0  0  0  0
  194.1270  172.9330  139.9160 C   0  0  2  0  0  3  0  0  0  0  0  0
  193.5920  177.1380  142.3010 O   0  0  0  0  0  1  0  0  0  0  0  0
  194.0740  169.2980  143.4680 O   0  0  0  0  0  0  0  0  0  0  0  0
  189.0980  175.3500  144.8000 C   0  0  2  0  0  3  0  0  0  0  0  0
  196.0220  170.4440  139.6710 C   0  0  0  0  0  2  0  0  0  0  0  0
  187.5460  174.7640  141.4480 O   0  0  0  0  0  1  0  0  0  0  0  0
  191.2720  175.8760  143.5430 C   0  0  2  0  0  3  0  0  0  0  0  0
  193.3370  172.8490  138.6180 C   0  0  0  0  0  2  0  0  0  0  0  0
  193.4810  172.6430  145.9850 C   0  0  0  0  0  2  0  0  0  0  0  0
  196.2290  171.4570  145.2220 C   0  0  0  0  0  1  0  0  0  0  0  0
  195.0110  170.1450  143.5020 C   0  0  0  0  0  0  0  0  0  0  0  0
  191.1120  174.6730  142.5780 C   0  0  2  0  0  3  0  0  0  0  0  0
  189.4440  172.9610  142.9440 O   0  0  0  0  0  1  0  0  0  0  0  0
  194.9410  171.3400  144.4150 C   0  0  1  0  0  3  0  0  0  0  0  0
  187.1870  176.4120  143.8000 O   0  0  0  0  0  1  0  0  0  0  0  0
  193.7380  171.2850  145.3560 C   0  0  0  0  0  2  0  0  0  0  0  0
  194.7370  170.0560  137.4860 C   0  0  2  0  0  3  0  0  0  0  0  0
  195.5880  168.8040  137.4810 C   0  0  0  0  0  2  0  0  0  0  0  0
  194.8920  170.5970  136.0750 C   0  0  2  0  0  0  0  0  0  0  0  0
  195.1090  169.3450  135.2450 C   0  0  0  0  0  2  0  0  0  0  0  0
  195.6860  168.3110  136.1100 N   0  0  0  0  0  0  0  0  0  0  0  0
  197.3880  168.8120  134.5760 O   0  0  0  0  0  1  0  0  0  0  0  0
  197.1080  168.1700  135.7870 C   0  0  0  0  0  3  0  0  0  0  0  0
  197.8990  168.7370  136.7920 O   0  0  0  0  0  1  0  0  0  0  0  0
  196.1320  171.5080  135.9540 C   0  0  0  0  0  2  0  0  0  0  0  0
  195.8450  172.9640  135.7760 C   0  0  0  0  0  0  0  0  0  0  0  0
  195.9770  173.8570  136.8310 O   0  0  0  0  0  1  0  0  0  0  0  0
  195.5520  173.4000  134.6350 O   0  0  0  0  0  0  0  0  0  0  0  0
  193.7250  171.3180  135.6640 O   0  0  0  0  0  0  0  0  0  0  0  0
  192.3990  171.0520  136.0450 C   0  0  0  0  0  0  0  0  0  0  0  0
  190.6640  169.6340  136.9570 C   0  0  0  0  0  3  0  0  0  0  0  0
  189.7570  170.6310  136.7790 N   0  0  0  0  0  0  0  0  0  0  0  0
  190.1200  171.8280  136.2520 C   0  0  0  0  0  3  0  0  0  0  0  0
  192.0020  169.8230  136.5920 C   0  0  0  0  0  3  0  0  0  0  0  0
  191.4460  172.0580  135.8760 C   0  0  0  0  0  3  0  0  0  0  0  0
  191.6050  174.6600  147.2980 O   0  0  0  0  0  0  0  0  0  0  0  0
  192.3230  175.4290  146.6780 C   0  0  0  0  0  0  0  0  0  0  0  0
  194.0360  177.1250  147.2710 C   0  0  0  0  0  1  0  0  0  0  0  0
  192.5500  176.8100  147.2260 C   0  0  2  0  0  3  0  0  0  0  0  0
  190.7170  177.8900  148.5110 C   0  0  0  0  0  1  0  0  0  0  0  0
  191.9120  176.9690  148.5910 C   0  0  0  0  0  2  0  0  0  0  0  0
  3 12  1  6  0  0  0
  3  8  1  0  0  0  0
  4 30  1  0  0  0  0
  5 14  1  0  0  0  0
  5 24  1  1  0  0  0
  6  4  1  0  0  0  0
  7 11  1  1  0  0  0
  7 19  1  0  0  0  0
  8 56  1  1  0  0  0
  9 25  1  6  0  0  0
  9 15  1  0  0  0  0
 10 23  1  0  0  0  0
 12  1  1  0  0  0  0
 13  6  1  0  0  0  0
 14 27  1  6  0  0  0
 14 20  1  0  0  0  0
 15 34  1  6  0  0  0
 15 23  1  0  0  0  0
 16  7  1  0  0  0  0
 17  9  1  0  0  0  0
 17 31  1  0  0  0  0
 17 32  1  1  0  0  0
 18  8  1  0  0  0  0
 18 28  1  0  0  0  0
 19 12  1  0  0  0  0
 20 27  1  6  0  0  0
 20 16  1  0  0  0  0
 21 12  1  0  0  0  0
 22 30  2  0  0  0  0
 23  2  1  1  0  0  0
 24 13  1  0  0  0  0
 26  3  1  0  0  0  0
 26 10  1  1  0  0  0
 30 33  1  0  0  0  0
 31 11  1  6  0  0  0
 31 26  1  0  0  0  0
 33 29  1  1  0  0  0
 33 35  1  0  0  0  0
 35 28  1  0  0  0  0
 36 37  1  6  0  0  0
 36  5  1  0  0  0  0
 38 44  1  6  0  0  0
 38 36  1  0  0  0  0
 39 38  1  0  0  0  0
 39 40  1  0  0  0  0
 40 37  1  0  0  0  0
 41 42  1  0  0  0  0
 42 40  1  0  0  0  0
 42 43  1  0  0  0  0
 45 44  1  0  0  0  0
 45 46  1  0  0  0  0
 47 45  2  0  0  0  0
 48 49  1  0  0  0  0
 48 38  1  0  0  0  0
 49 53  1  0  0  0  0
 51 50  1  0  0  0  0
 52 51  2  0  0  0  0
 53 50  2  0  0  0  0
 54 49  2  0  0  0  0
 54 52  1  0  0  0  0
 56 58  1  0  0  0  0
 56 55  2  0  0  0  0
 58 57  1  1  0  0  0
 58 60  1  0  0  0  0
 59 60  1  0  0  0  0
M  END
>  <MODEL>
5

>  <REMARK>
 VINA RESULT:      -6.1      3.505     10.473
  Name = 
  9 active torsions:
  status: ('A' for Active; 'I' for Inactive)
    1  A    between atoms: C_1  and  C_7
    2  A    between atoms: C_10  and  C_35
    3  A    between atoms: C_11  and  C_33
    4  A    between atoms: C_11  and  O_46
    5  A    between atoms: C_16  and  C_33
    6  A    between atoms: C_28  and  O_46
    7  A    between atoms: C_34  and  C_52
    8  A    between atoms: C_35  and  C_52
    9  A    between atoms: C_47  and  N_56
                            x       y       z     vdW  Elec       q    Type
                         _______ _______ _______ _____ _____    ______ ____

>  <TORSDO>
F 9

$$$$
=
 OpenBabel11072408523D

 60 65  0  0  1  0  0  0  0  0999 V2000
  193.6060  175.5220  145.6800 O   0  0  0  0  0  1  0  0  0  0  0  0
  186.8750  176.5020  145.2380 F   0  0  0  0  0  0  0  0  0  0  0  0
  191.3440  175.9190  145.0320 C   0  0  1  0  0  3  0  0  0  0  0  0
  193.8270  170.1780  141.6490 N   0  0  0  0  0  2  0  0  0  0  0  0
  194.8020  173.0310  138.6060 C   0  0  1  0  0  3  0  0  0  0  0  0
  194.1080  169.6480  140.3230 C   0  0  0  0  0  2  0  0  0  0  0  0
  192.8130  175.5870  142.0170 C   0  0  2  0  0  3  0  0  0  0  0  0
  190.9040  174.5350  145.5550 C   0  0  2  0  0  3  0  0  0  0  0  0
  188.3440  177.5060  141.9510 C   0  0  1  0  0  3  0  0  0  0  0  0
  189.1060  177.1360  144.7390 C   0  0  0  0  0  2  0  0  0  0  0  0
  191.6320  176.5550  141.9120 C   0  0  0  0  0  2  0  0  0  0  0  0
  192.8280  175.9600  144.6080 C   0  0  0  0  0  0  0  0  0  0  0  0
  193.9490  170.7350  139.2750 C   0  0  0  0  0  2  0  0  0  0  0  0
  193.5160  173.6980  139.0870 C   0  0  1  0  0  3  0  0  0  0  0  0
  187.2790  177.2860  143.0270 C   0  0  1  0  0  3  0  0  0  0  0  0
  192.6320  174.5350  141.1160 O   0  0  0  0  0  0  0  0  0  0  0  0
  189.1860  176.2590  141.6810 C   0  0  1  0  0  3  0  0  0  0  0  0
  190.5490  173.5230  144.4680 C   0  0  0  0  0  2  0  0  0  0  0  0
  193.0920  175.0230  143.4200 C   0  0  0  0  0  2  0  0  0  0  0  0
  193.8070  174.4730  140.3630 C   0  0  2  0  0  3  0  0  0  0  0  0
  193.2100  177.2680  144.2980 O   0  0  0  0  0  1  0  0  0  0  0  0
  191.5150  170.0610  141.4240 O   0  0  0  0  0  0  0  0  0  0  0  0
  187.8190  176.5130  144.2310 C   0  0  2  0  0  3  0  0  0  0  0  0
  195.0660  171.7590  139.4160 C   0  0  0  0  0  2  0  0  0  0  0  0
  187.7300  177.9240  140.7670 O   0  0  0  0  0  1  0  0  0  0  0  0
  190.3760  176.6130  144.0530 C   0  0  2  0  0  3  0  0  0  0  0  0
  193.6360  175.2100  139.0440 C   0  0  0  0  0  2  0  0  0  0  0  0
  190.6320  172.1080  145.0170 C   0  0  0  0  0  2  0  0  0  0  0  0
  193.1340  170.3620  144.5340 C   0  0  0  0  0  1  0  0  0  0  0  0
  192.5050  170.3990  142.1330 C   0  0  0  0  0  0  0  0  0  0  0  0
  190.3880  176.0430  142.6110 C   0  0  2  0  0  3  0  0  0  0  0  0
  188.4050  175.1040  141.5960 O   0  0  0  0  0  1  0  0  0  0  0  0
  192.3100  171.0710  143.4660 C   0  0  1  0  0  3  0  0  0  0  0  0
  186.7700  178.5240  143.4310 O   0  0  0  0  0  1  0  0  0  0  0  0
  190.8400  171.1180  143.8850 C   0  0  0  0  0  2  0  0  0  0  0  0
  194.7660  172.7780  137.0820 C   0  0  2  0  0  3  0  0  0  0  0  0
  195.1060  171.3560  136.6870 C   0  0  0  0  0  2  0  0  0  0  0  0
  195.7270  173.6170  136.2550 C   0  0  2  0  0  0  0  0  0  0  0  0
  195.9340  172.7770  135.0080 C   0  0  0  0  0  2  0  0  0  0  0  0
  195.6960  171.3710  135.3510 N   0  0  0  0  0  0  0  0  0  0  0  0
  197.2030  170.2140  136.7270 O   0  0  0  0  0  1  0  0  0  0  0  0
  196.9870  170.6820  135.4260 C   0  0  0  0  0  3  0  0  0  0  0  0
  197.0160  169.5960  134.5450 O   0  0  0  0  0  1  0  0  0  0  0  0
  197.0790  173.7990  136.9760 C   0  0  0  0  0  2  0  0  0  0  0  0
  197.4910  175.2150  137.2200 C   0  0  0  0  0  0  0  0  0  0  0  0
  197.9370  176.0230  136.1830 O   0  0  0  0  0  0  0  0  0  0  0  0
  197.3620  175.7070  138.3690 O   0  0  0  0  0  1  0  0  0  0  0  0
  195.1660  174.9000  135.9520 O   0  0  0  0  0  0  0  0  0  0  0  0
  193.8430  175.1650  135.5650 C   0  0  0  0  0  0  0  0  0  0  0  0
  191.6610  174.5010  134.7560 C   0  0  0  0  0  3  0  0  0  0  0  0
  191.2400  175.7910  134.8350 N   0  0  0  0  0  0  0  0  0  0  0  0
  192.0670  176.7780  135.2650 C   0  0  0  0  0  3  0  0  0  0  0  0
  192.9700  174.1620  135.1170 C   0  0  0  0  0  3  0  0  0  0  0  0
  193.3820  176.4810  135.6370 C   0  0  0  0  0  3  0  0  0  0  0  0
  188.8670  173.9600  146.6300 O   0  0  0  0  0  0  0  0  0  0  0  0
  189.8980  174.6130  146.6800 C   0  0  0  0  0  0  0  0  0  0  0  0
  189.4700  176.8690  147.6230 C   0  0  0  0  0  1  0  0  0  0  0  0
  190.1260  175.5190  147.8580 C   0  0  2  0  0  3  0  0  0  0  0  0
  191.9340  177.1120  148.4660 C   0  0  0  0  0  1  0  0  0  0  0  0
  191.6050  175.6700  148.1530 C   0  0  0  0  0  2  0  0  0  0  0  0
  3 12  1  6  0  0  0
  3  8  1  0  0  0  0
  4 30  1  0  0  0  0
  5 14  1  0  0  0  0
  5 24  1  1  0  0  0
  6  4  1  0  0  0  0
  7 11  1  1  0  0  0
  7 19  1  0  0  0  0
  8 56  1  1  0  0  0
  9 25  1  6  0  0  0
  9 15  1  0  0  0  0
 12  1  1  0  0  0  0
 13 24  1  0  0  0  0
 13  6  1  0  0  0  0
 14 27  1  6  0  0  0
 14 20  1  0  0  0  0
 15 34  1  1  0  0  0
 15 23  1  0  0  0  0
 16  7  1  0  0  0  0
 17 32  1  1  0  0  0
 17  9  1  0  0  0  0
 17 31  1  0  0  0  0
 18 28  1  0  0  0  0
 18  8  1  0  0  0  0
 19 12  1  0  0  0  0
 20 27  1  6  0  0  0
 20 16  1  0  0  0  0
 21 12  1  0  0  0  0
 22 30  2  0  0  0  0
 23 10  1  0  0  0  0
 23  2  1  1  0  0  0
 26 10  1  1  0  0  0
 26  3  1  0  0  0  0
 30 33  1  0  0  0  0
 31 11  1  6  0  0  0
 31 26  1  0  0  0  0
 33 35  1  0  0  0  0
 33 29  1  1  0  0  0
 35 28  1  0  0  0  0
 36 37  1  1  0  0  0
 36  5  1  0  0  0  0
 38 44  1  1  0  0  0
 38 36  1  0  0  0  0
 39 40  1  0  0  0  0
 39 38  1  0  0  0  0
 40 42  1  0  0  0  0
 40 37  1  0  0  0  0
 42 41  1  0  0  0  0
 43 42  1  0  0  0  0
 44 45  1  0  0  0  0
 45 47  1  0  0  0  0
 46 45  2  0  0  0  0
 48 38  1  0  0  0  0
 49 54  1  0  0  0  0
 49 48  1  0  0  0  0
 50 51  2  0  0  0  0
 50 53  1  0  0  0  0
 51 52  1  0  0  0  0
 52 54  2  0  0  0  0
 53 49  2  0  0  0  0
 55 56  2  0  0  0  0
 56 58  1  0  0  0  0
 58 57  1  6  0  0  0
 58 60  1  0  0  0  0
 60 59  1  0  0  0  0
M  END
>  <MODEL>
6

>  <REMARK>
 VINA RESULT:      -6.0      3.671     10.331
  Name = 
  9 active torsions:
  status: ('A' for Active; 'I' for Inactive)
    1  A    between atoms: C_1  and  C_7
    2  A    between atoms: C_10  and  C_35
    3  A    between atoms: C_11  and  C_33
    4  A    between atoms: C_11  and  O_46
    5  A    between atoms: C_16  and  C_33
    6  A    between atoms: C_28  and  O_46
    7  A    between atoms: C_34  and  C_52
    8  A    between atoms: C_35  and  C_52
    9  A    between atoms: C_47  and  N_56
                            x       y       z     vdW  Elec       q    Type
                         _______ _______ _______ _____ _____    ______ ____

>  <TORSDO>
F 9

$$$$
=
 OpenBabel11072408523D

 60 65  0  0  1  0  0  0  0  0999 V2000
  192.4410  169.3750  137.2290 O   0  0  0  0  0  1  0  0  0  0  0  0
  197.1970  174.0080  135.6870 F   0  0  0  0  0  0  0  0  0  0  0  0
  193.7550  171.3290  136.8400 C   0  0  1  0  0  3  0  0  0  0  0  0
  191.8780  171.0380  143.6920 N   0  0  0  0  0  2  0  0  0  0  0  0
  188.5940  173.4440  142.3610 C   0  0  1  0  0  3  0  0  0  0  0  0
  191.1320  171.7510  144.7190 C   0  0  0  0  0  2  0  0  0  0  0  0
  191.1240  172.6570  138.4740 C   0  0  2  0  0  3  0  0  0  0  0  0
  194.8230  170.8670  137.8540 C   0  0  2  0  0  3  0  0  0  0  0  0
  193.9920  175.8620  136.2010 C   0  0  1  0  0  3  0  0  0  0  0  0
  194.9730  173.1930  135.5670 C   0  0  0  0  0  2  0  0  0  0  0  0
  191.6870  173.6800  137.4850 C   0  0  0  0  0  2  0  0  0  0  0  0
  192.3500  170.7660  137.1440 C   0  0  0  0  0  0  0  0  0  0  0  0
  190.3580  172.9030  144.1050 C   0  0  0  0  0  2  0  0  0  0  0  0
  189.6440  174.0130  141.4090 C   0  0  1  0  0  3  0  0  0  0  0  0
  195.4660  175.6330  135.8630 C   0  0  1  0  0  3  0  0  0  0  0  0
  191.1340  173.2020  139.7610 O   0  0  0  0  0  0  0  0  0  0  0  0
  193.5890  175.2620  137.5490 C   0  0  1  0  0  3  0  0  0  0  0  0
  194.8590  171.6670  139.1540 C   0  0  0  0  0  2  0  0  0  0  0  0
  191.8220  171.2870  138.4880 C   0  0  0  0  0  2  0  0  0  0  0  0
  189.8330  173.0510  140.2480 C   0  0  2  0  0  3  0  0  0  0  0  0
  191.4650  171.0820  136.1100 O   0  0  0  0  0  1  0  0  0  0  0  0
  193.6190  172.5760  143.6060 O   0  0  0  0  0  0  0  0  0  0  0  0
  195.9210  174.2080  136.1760 C   0  0  2  0  0  3  0  0  0  0  0  0
  189.2200  172.3650  143.2470 C   0  0  0  0  0  2  0  0  0  0  0  0
  193.7210  177.2330  136.1970 O   0  0  0  0  0  1  0  0  0  0  0  0
  193.7810  172.8230  136.4620 C   0  0  2  0  0  3  0  0  0  0  0  0
  189.0390  174.3330  140.0550 C   0  0  0  0  0  2  0  0  0  0  0  0
  195.5380  170.8630  140.2510 C   0  0  0  0  0  2  0  0  0  0  0  0
  193.8770  169.3050  142.3370 C   0  0  0  0  0  1  0  0  0  0  0  0
  193.1010  171.5200  143.1450 C   0  0  0  0  0  0  0  0  0  0  0  0
  193.1990  173.7770  137.5360 C   0  0  2  0  0  3  0  0  0  0  0  0
  194.5330  175.5240  138.5450 O   0  0  0  0  0  1  0  0  0  0  0  0
  193.7380  170.7830  141.9960 C   0  0  1  0  0  3  0  0  0  0  0  0
  195.6810  175.9280  134.5130 O   0  0  0  0  0  1  0  0  0  0  0  0
  195.1000  171.3630  141.6160 C   0  0  0  0  0  2  0  0  0  0  0  0
  187.9040  174.5650  143.1700 C   0  0  2  0  0  3  0  0  0  0  0  0
  187.0080  175.4600  142.3400 C   0  0  0  0  0  2  0  0  0  0  0  0
  188.8380  175.5420  143.8650 C   0  0  2  0  0  0  0  0  0  0  0  0
  187.9870  176.7890  144.0130 C   0  0  0  0  0  2  0  0  0  0  0  0
  186.9680  176.7820  142.9580 N   0  0  0  0  0  0  0  0  0  0  0  0
  187.2720  177.1810  140.6670 O   0  0  0  0  0  1  0  0  0  0  0  0
  187.3440  177.7640  141.9370 C   0  0  0  0  0  3  0  0  0  0  0  0
  186.4850  178.8670  141.9770 O   0  0  0  0  0  1  0  0  0  0  0  0
  190.0670  175.8660  142.9890 C   0  0  0  0  0  2  0  0  0  0  0  0
  190.6140  177.2490  143.1380 C   0  0  0  0  0  0  0  0  0  0  0  0
  191.5970  177.5360  144.0770 O   0  0  0  0  0  1  0  0  0  0  0  0
  190.2350  178.1520  142.3520 O   0  0  0  0  0  0  0  0  0  0  0  0
  189.2710  175.0340  145.1320 O   0  0  0  0  0  0  0  0  0  0  0  0
  189.9620  175.7440  146.1280 C   0  0  0  0  0  0  0  0  0  0  0  0
  191.8750  176.1440  147.5540 C   0  0  0  0  0  3  0  0  0  0  0  0
  191.2470  177.2230  148.0910 N   0  0  0  0  0  0  0  0  0  0  0  0
  190.0060  177.5920  147.6850 C   0  0  0  0  0  3  0  0  0  0  0  0
  191.2450  175.3820  146.5620 C   0  0  0  0  0  3  0  0  0  0  0  0
  189.3430  176.8590  146.6970 C   0  0  0  0  0  3  0  0  0  0  0  0
  197.1110  171.3840  137.4900 O   0  0  0  0  0  0  0  0  0  0  0  0
  196.1800  170.6370  137.2310 C   0  0  0  0  0  0  0  0  0  0  0  0
  197.6750  168.7570  136.6000 C   0  0  0  0  0  1  0  0  0  0  0  0
  196.4010  169.5130  136.2570 C   0  0  2  0  0  3  0  0  0  0  0  0
  197.7870  170.6140  134.5130 C   0  0  0  0  0  1  0  0  0  0  0  0
  196.4330  170.0240  134.8310 C   0  0  0  0  0  2  0  0  0  0  0  0
  3 12  1  1  0  0  0
  3  8  1  0  0  0  0
  4  6  1  0  0  0  0
  5 36  1  0  0  0  0
  5 24  1  1  0  0  0
  7 11  1  6  0  0  0
  7 19  1  0  0  0  0
  7 16  1  0  0  0  0
  8 56  1  6  0  0  0
  8 18  1  0  0  0  0
  9 25  1  1  0  0  0
  9 17  1  0  0  0  0
 10 23  1  0  0  0  0
 12  1  1  0  0  0  0
 12 19  1  0  0  0  0
 13  6  1  0  0  0  0
 14 27  1  6  0  0  0
 14  5  1  0  0  0  0
 15 34  1  6  0  0  0
 15 23  1  0  0  0  0
 15  9  1  0  0  0  0
 16 20  1  0  0  0  0
 17 32  1  1  0  0  0
 18 28  1  0  0  0  0
 20 27  1  6  0  0  0
 20 14  1  0  0  0  0
 21 12  1  0  0  0  0
 23  2  1  6  0  0  0
 24 13  1  0  0  0  0
 26 10  1  1  0  0  0
 26  3  1  0  0  0  0
 26 31  1  0  0  0  0
 28 35  1  0  0  0  0
 30 22  2  0  0  0  0
 30  4  1  0  0  0  0
 31 11  1  6  0  0  0
 31 17  1  0  0  0  0
 33 29  1  1  0  0  0
 33 30  1  0  0  0  0
 35 33  1  0  0  0  0
 36 37  1  6  0  0  0
 36 38  1  0  0  0  0
 37 40  1  0  0  0  0
 38 44  1  6  0  0  0
 38 39  1  0  0  0  0
 38 48  1  0  0  0  0
 40 39  1  0  0  0  0
 41 42  1  0  0  0  0
 42 43  1  0  0  0  0
 42 40  1  0  0  0  0
 44 45  1  0  0  0  0
 45 46  1  0  0  0  0
 47 45  2  0  0  0  0
 48 49  1  0  0  0  0
 49 53  2  0  0  0  0
 49 54  1  0  0  0  0
 50 51  2  0  0  0  0
 52 51  1  0  0  0  0
 53 50  1  0  0  0  0
 54 52  2  0  0  0  0
 56 55  2  0  0  0  0
 58 57  1  1  0  0  0
 58 56  1  0  0  0  0
 59 60  1  0  0  0  0
 60 58  1  0  0  0  0
M  END
>  <MODEL>
7

>  <REMARK>
 VINA RESULT:      -5.8      2.556      5.585
  Name = 
  9 active torsions:
  status: ('A' for Active; 'I' for Inactive)
    1  A    between atoms: C_1  and  C_7
    2  A    between atoms: C_10  and  C_35
    3  A    between atoms: C_11  and  C_33
    4  A    between atoms: C_11  and  O_46
    5  A    between atoms: C_16  and  C_33
    6  A    between atoms: C_28  and  O_46
    7  A    between atoms: C_34  and  C_52
    8  A    between atoms: C_35  and  C_52
    9  A    between atoms: C_47  and  N_56
                            x       y       z     vdW  Elec       q    Type
                         _______ _______ _______ _____ _____    ______ ____

>  <TORSDO>
F 9

$$$$
=
 OpenBabel11072408523D

 60 65  0  0  1  0  0  0  0  0999 V2000
  193.2270  176.5080  145.4930 O   0  0  0  0  0  1  0  0  0  0  0  0
  186.4160  176.4700  145.2260 F   0  0  0  0  0  0  0  0  0  0  0  0
  190.9160  176.4710  144.9000 C   0  0  1  0  0  3  0  0  0  0  0  0
  194.1050  170.6030  142.4580 N   0  0  0  0  0  2  0  0  0  0  0  0
  194.5850  172.9630  138.9150 C   0  0  1  0  0  3  0  0  0  0  0  0
  194.4250  169.8850  141.2330 C   0  0  0  0  0  2  0  0  0  0  0  0
  192.3390  175.8010  141.9200 C   0  0  2  0  0  3  0  0  0  0  0  0
  190.6910  175.1580  145.6800 C   0  0  2  0  0  3  0  0  0  0  0  0
  187.6420  177.0520  141.7440 C   0  0  1  0  0  3  0  0  0  0  0  0
  188.5200  177.2990  144.5110 C   0  0  0  0  0  2  0  0  0  0  0  0
  191.0310  176.5640  141.7060 C   0  0  0  0  0  2  0  0  0  0  0  0
  192.3670  176.6350  144.4010 C   0  0  0  0  0  0  0  0  0  0  0  0
  194.0860  170.7320  140.0200 C   0  0  0  0  0  2  0  0  0  0  0  0
  193.2300  173.5260  139.3360 C   0  0  1  0  0  3  0  0  0  0  0  0
  186.6480  176.8870  142.8950 C   0  0  1  0  0  3  0  0  0  0  0  0
  192.2870  174.5880  141.2280 O   0  0  0  0  0  0  0  0  0  0  0  0
  188.6470  175.9020  141.6550 C   0  0  1  0  0  3  0  0  0  0  0  0
  190.4560  173.9270  144.8070 C   0  0  0  0  0  2  0  0  0  0  0  0
  192.7320  175.5430  143.3840 C   0  0  0  0  0  2  0  0  0  0  0  0
  193.4400  174.5500  140.4390 C   0  0  2  0  0  3  0  0  0  0  0  0
  192.5500  177.9050  143.8470 O   0  0  0  0  0  1  0  0  0  0  0  0
  191.8290  170.1350  142.3740 O   0  0  0  0  0  0  0  0  0  0  0  0
  187.3230  176.4260  144.1860 C   0  0  2  0  0  3  0  0  0  0  0  0
  195.0490  171.9070  139.9210 C   0  0  0  0  0  2  0  0  0  0  0  0
  186.9450  177.1610  140.5380 O   0  0  0  0  0  1  0  0  0  0  0  0
  189.8340  176.8380  143.8650 C   0  0  2  0  0  3  0  0  0  0  0  0
  193.1320  175.0070  139.0220 C   0  0  0  0  0  2  0  0  0  0  0  0
  190.7540  172.6590  145.5910 C   0  0  0  0  0  2  0  0  0  0  0  0
  193.4670  171.2110  145.2970 C   0  0  0  0  0  1  0  0  0  0  0  0
  192.7780  170.7270  142.9610 C   0  0  0  0  0  0  0  0  0  0  0  0
  189.8910  176.0230  142.5460 C   0  0  2  0  0  3  0  0  0  0  0  0
  188.0360  174.6560  141.8140 O   0  0  0  0  0  1  0  0  0  0  0  0
  192.5230  171.5960  144.1640 C   0  0  1  0  0  3  0  0  0  0  0  0
  185.9770  178.0970  143.1000 O   0  0  0  0  0  1  0  0  0  0  0  0
  191.0730  171.5180  144.6420 C   0  0  0  0  0  2  0  0  0  0  0  0
  194.5470  172.4360  137.4630 C   0  0  2  0  0  3  0  0  0  0  0  0
  195.5970  171.3870  137.1630 C   0  0  0  0  0  2  0  0  0  0  0  0
  194.7660  173.4790  136.3810 C   0  0  2  0  0  0  0  0  0  0  0  0
  195.2890  172.6630  135.2130 C   0  0  0  0  0  2  0  0  0  0  0  0
  195.9350  171.4570  135.7440 N   0  0  0  0  0  0  0  0  0  0  0  0
  197.6880  172.6430  134.7340 O   0  0  0  0  0  1  0  0  0  0  0  0
  197.3870  171.6180  135.6370 C   0  0  0  0  0  3  0  0  0  0  0  0
  197.9380  171.9390  136.8820 O   0  0  0  0  0  1  0  0  0  0  0  0
  195.8350  174.5100  136.7990 C   0  0  0  0  0  2  0  0  0  0  0  0
  196.0220  175.6590  135.8610 C   0  0  0  0  0  0  0  0  0  0  0  0
  197.2050  175.8220  135.1520 O   0  0  0  0  0  0  0  0  0  0  0  0
  195.0670  176.4480  135.6520 O   0  0  0  0  0  1  0  0  0  0  0  0
  193.5450  174.1560  136.0580 O   0  0  0  0  0  0  0  0  0  0  0  0
  192.3190  173.5580  135.7240 C   0  0  0  0  0  0  0  0  0  0  0  0
  190.9670  171.9150  134.5710 C   0  0  0  0  0  3  0  0  0  0  0  0
  189.8490  172.4380  135.1390 N   0  0  0  0  0  0  0  0  0  0  0  0
  189.9170  173.4960  135.9880 C   0  0  0  0  0  3  0  0  0  0  0  0
  192.2250  172.4650  134.8500 C   0  0  0  0  0  3  0  0  0  0  0  0
  191.1530  174.0720  136.2940 C   0  0  0  0  0  3  0  0  0  0  0  0
  188.6990  174.6210  146.8540 O   0  0  0  0  0  0  0  0  0  0  0  0
  189.7130  175.3010  146.8230 C   0  0  0  0  0  0  0  0  0  0  0  0
  189.2830  177.6280  147.5750 C   0  0  0  0  0  1  0  0  0  0  0  0
  189.9470  176.3040  147.9180 C   0  0  2  0  0  3  0  0  0  0  0  0
  191.6610  177.7050  149.0470 C   0  0  0  0  0  1  0  0  0  0  0  0
  191.4280  176.4860  148.1860 C   0  0  0  0  0  2  0  0  0  0  0  0
  3 12  1  6  0  0  0
  3  8  1  0  0  0  0
  4 30  1  0  0  0  0
  5 14  1  0  0  0  0
  5 24  1  1  0  0  0
  6  4  1  0  0  0  0
  7 11  1  1  0  0  0
  7 19  1  0  0  0  0
  8 56  1  1  0  0  0
  9 25  1  6  0  0  0
  9 15  1  0  0  0  0
 12  1  1  0  0  0  0
 13  6  1  0  0  0  0
 14 27  1  6  0  0  0
 14 20  1  0  0  0  0
 15 34  1  1  0  0  0
 15 23  1  0  0  0  0
 16  7  1  0  0  0  0
 17  9  1  0  0  0  0
 17 32  1  1  0  0  0
 17 31  1  0  0  0  0
 18 28  1  0  0  0  0
 18  8  1  0  0  0  0
 19 12  1  0  0  0  0
 20 27  1  6  0  0  0
 20 16  1  0  0  0  0
 21 12  1  0  0  0  0
 22 30  2  0  0  0  0
 23 10  1  0  0  0  0
 23  2  1  1  0  0  0
 24 13  1  0  0  0  0
 26 10  1  1  0  0  0
 26  3  1  0  0  0  0
 30 33  1  0  0  0  0
 31 11  1  6  0  0  0
 31 26  1  0  0  0  0
 33 35  1  0  0  0  0
 33 29  1  1  0  0  0
 35 28  1  0  0  0  0
 36 37  1  1  0  0  0
 36  5  1  0  0  0  0
 38 44  1  1  0  0  0
 38 36  1  0  0  0  0
 39 40  1  0  0  0  0
 39 38  1  0  0  0  0
 40 37  1  0  0  0  0
 41 42  1  0  0  0  0
 42 40  1  0  0  0  0
 42 43  1  0  0  0  0
 45 44  1  0  0  0  0
 46 45  2  0  0  0  0
 47 45  1  0  0  0  0
 48 38  1  0  0  0  0
 49 48  1  0  0  0  0
 49 54  1  0  0  0  0
 50 53  1  0  0  0  0
 50 51  2  0  0  0  0
 51 52  1  0  0  0  0
 52 54  2  0  0  0  0
 53 49  2  0  0  0  0
 56 55  2  0  0  0  0
 56 58  1  0  0  0  0
 58 57  1  6  0  0  0
 58 60  1  0  0  0  0
 60 59  1  0  0  0  0
M  END
>  <MODEL>
8

>  <REMARK>
 VINA RESULT:      -5.2      3.611     10.386
  Name = 
  9 active torsions:
  status: ('A' for Active; 'I' for Inactive)
    1  A    between atoms: C_1  and  C_7
    2  A    between atoms: C_10  and  C_35
    3  A    between atoms: C_11  and  C_33
    4  A    between atoms: C_11  and  O_46
    5  A    between atoms: C_16  and  C_33
    6  A    between atoms: C_28  and  O_46
    7  A    between atoms: C_34  and  C_52
    8  A    between atoms: C_35  and  C_52
    9  A    between atoms: C_47  and  N_56
                            x       y       z     vdW  Elec       q    Type
                         _______ _______ _______ _____ _____    ______ ____

>  <TORSDO>
F 9

$$$$
=
 OpenBabel11072408523D

 60 65  0  0  1  0  0  0  0  0999 V2000
  193.3540  175.5760  144.6000 O   0  0  0  0  0  1  0  0  0  0  0  0
  186.6550  176.5490  145.4090 F   0  0  0  0  0  0  0  0  0  0  0  0
  190.9960  175.8710  144.3790 C   0  0  1  0  0  3  0  0  0  0  0  0
  192.8700  169.5350  141.7510 N   0  0  0  0  0  2  0  0  0  0  0  0
  193.1020  171.7100  138.0670 C   0  0  1  0  0  3  0  0  0  0  0  0
  192.8810  168.7480  140.5260 C   0  0  0  0  0  2  0  0  0  0  0  0
  191.8050  174.9240  141.2480 C   0  0  2  0  0  3  0  0  0  0  0  0
  190.7150  174.6250  145.2470 C   0  0  2  0  0  3  0  0  0  0  0  0
  187.3710  176.8570  141.7520 C   0  0  1  0  0  3  0  0  0  0  0  0
  188.7130  177.0380  144.3330 C   0  0  0  0  0  2  0  0  0  0  0  0
  190.6030  175.8680  141.2070 C   0  0  0  0  0  2  0  0  0  0  0  0
  192.3550  175.8040  143.6510 C   0  0  0  0  0  0  0  0  0  0  0  0
  192.4740  169.6060  139.3420 C   0  0  0  0  0  2  0  0  0  0  0  0
  191.9280  172.4790  138.6680 C   0  0  1  0  0  3  0  0  0  0  0  0
  186.5630  176.8710  143.0520 C   0  0  1  0  0  3  0  0  0  0  0  0
  191.4680  173.7160  140.6320 O   0  0  0  0  0  0  0  0  0  0  0  0
  188.1720  175.5680  141.5620 C   0  0  1  0  0  3  0  0  0  0  0  0
  190.1670  173.4220  144.4820 C   0  0  0  0  0  2  0  0  0  0  0  0
  192.3900  174.6460  142.6440 C   0  0  0  0  0  2  0  0  0  0  0  0
  192.4600  173.4870  139.6750 C   0  0  2  0  0  3  0  0  0  0  0  0
  192.6260  177.0190  143.0160 O   0  0  0  0  0  1  0  0  0  0  0  0
  190.5670  169.4100  142.0480 O   0  0  0  0  0  0  0  0  0  0  0  0
  187.3660  176.3450  144.2420 C   0  0  2  0  0  3  0  0  0  0  0  0
  193.5670  170.6220  139.0380 C   0  0  0  0  0  2  0  0  0  0  0  0
  186.5100  177.0400  140.6680 O   0  0  0  0  0  1  0  0  0  0  0  0
  189.8240  176.3700  143.5110 C   0  0  2  0  0  3  0  0  0  0  0  0
  191.9940  173.9500  138.3030 C   0  0  0  0  0  2  0  0  0  0  0  0
  190.4030  172.1430  145.2690 C   0  0  0  0  0  2  0  0  0  0  0  0
  192.7950  170.3000  144.6220 C   0  0  0  0  0  1  0  0  0  0  0  0
  191.6740  169.8680  142.4490 C   0  0  0  0  0  0  0  0  0  0  0  0
  189.5490  175.5240  142.2400 C   0  0  2  0  0  3  0  0  0  0  0  0
  187.4230  174.4320  141.8740 O   0  0  0  0  0  1  0  0  0  0  0  0
  191.7450  170.7940  143.6350 C   0  0  1  0  0  3  0  0  0  0  0  0
  186.1160  178.1720  143.3020 O   0  0  0  0  0  1  0  0  0  0  0  0
  190.3960  170.9450  144.3380 C   0  0  0  0  0  2  0  0  0  0  0  0
  192.7540  171.1600  136.6660 C   0  0  2  0  0  3  0  0  0  0  0  0
  192.7500  169.6480  136.5840 C   0  0  0  0  0  2  0  0  0  0  0  0
  193.6930  171.5750  135.5460 C   0  0  2  0  0  0  0  0  0  0  0  0
  193.5190  170.4700  134.5210 C   0  0  0  0  0  2  0  0  0  0  0  0
  193.0890  169.2540  135.2190 N   0  0  0  0  0  0  0  0  0  0  0  0
  195.2920  168.8260  134.5360 O   0  0  0  0  0  1  0  0  0  0  0  0
  194.2230  168.3290  135.2900 C   0  0  0  0  0  3  0  0  0  0  0  0
  194.6420  168.1670  136.6150 O   0  0  0  0  0  1  0  0  0  0  0  0
  195.1600  171.6010  136.0220 C   0  0  0  0  0  2  0  0  0  0  0  0
  195.8030  172.9500  136.0500 C   0  0  0  0  0  0  0  0  0  0  0  0
  196.3210  173.4750  137.2270 O   0  0  0  0  0  1  0  0  0  0  0  0
  195.9430  173.5910  134.9780 O   0  0  0  0  0  0  0  0  0  0  0  0
  193.3350  172.8580  135.0180 O   0  0  0  0  0  0  0  0  0  0  0  0
  192.0360  173.3690  134.8680 C   0  0  0  0  0  0  0  0  0  0  0  0
  190.4530  175.1750  134.5710 C   0  0  0  0  0  3  0  0  0  0  0  0
  189.4320  174.2770  134.5630 N   0  0  0  0  0  0  0  0  0  0  0  0
  189.6620  172.9460  134.6990 C   0  0  0  0  0  3  0  0  0  0  0  0
  191.7750  174.7400  134.7250 C   0  0  0  0  0  3  0  0  0  0  0  0
  190.9670  172.4710  134.8540 C   0  0  0  0  0  3  0  0  0  0  0  0
  188.7940  174.6200  146.6420 O   0  0  0  0  0  0  0  0  0  0  0  0
  189.9660  174.9400  146.5220 C   0  0  0  0  0  0  0  0  0  0  0  0
  190.2750  177.1600  147.5900 C   0  0  0  0  0  1  0  0  0  0  0  0
  190.6340  175.6840  147.6450 C   0  0  2  0  0  3  0  0  0  0  0  0
  192.8410  176.8050  147.4370 C   0  0  0  0  0  1  0  0  0  0  0  0
  192.1350  175.4820  147.6180 C   0  0  0  0  0  2  0  0  0  0  0  0
  3 12  1  6  0  0  0
  3  8  1  0  0  0  0
  4 30  1  0  0  0  0
  5 14  1  0  0  0  0
  5 24  1  1  0  0  0
  6  4  1  0  0  0  0
  7 11  1  1  0  0  0
  7 19  1  0  0  0  0
  8 56  1  1  0  0  0
  9 25  1  6  0  0  0
  9 15  1  0  0  0  0
 12  1  1  0  0  0  0
 13  6  1  0  0  0  0
 14 27  1  6  0  0  0
 14 20  1  0  0  0  0
 15 34  1  1  0  0  0
 15 23  1  0  0  0  0
 16  7  1  0  0  0  0
 17  9  1  0  0  0  0
 17 32  1  1  0  0  0
 17 31  1  0  0  0  0
 18  8  1  0  0  0  0
 18 28  1  0  0  0  0
 19 12  1  0  0  0  0
 20 27  1  6  0  0  0
 20 16  1  0  0  0  0
 21 12  1  0  0  0  0
 22 30  2  0  0  0  0
 23 10  1  0  0  0  0
 23  2  1  1  0  0  0
 24 13  1  0  0  0  0
 26 10  1  1  0  0  0
 26  3  1  0  0  0  0
 30 33  1  0  0  0  0
 31 11  1  6  0  0  0
 31 26  1  0  0  0  0
 33 35  1  0  0  0  0
 33 29  1  1  0  0  0
 35 28  1  0  0  0  0
 36 37  1  1  0  0  0
 36  5  1  0  0  0  0
 38 44  1  1  0  0  0
 38 36  1  0  0  0  0
 39 40  1  0  0  0  0
 39 38  1  0  0  0  0
 40 42  1  0  0  0  0
 40 37  1  0  0  0  0
 41 42  1  0  0  0  0
 42 43  1  0  0  0  0
 44 45  1  0  0  0  0
 45 46  1  0  0  0  0
 47 45  2  0  0  0  0
 48 38  1  0  0  0  0
 49 48  1  0  0  0  0
 50 53  1  0  0  0  0
 51 50  2  0  0  0  0
 51 52  1  0  0  0  0
 52 54  2  0  0  0  0
 53 49  2  0  0  0  0
 54 49  1  0  0  0  0
 56 55  2  0  0  0  0
 56 58  1  0  0  0  0
 58 57  1  6  0  0  0
 59 60  1  0  0  0  0
 60 58  1  0  0  0  0
M  END
>  <MODEL>
9

>  <REMARK>
 VINA RESULT:      -5.1      3.805     10.370
  Name = 
  9 active torsions:
  status: ('A' for Active; 'I' for Inactive)
    1  A    between atoms: C_1  and  C_7
    2  A    between atoms: C_10  and  C_35
    3  A    between atoms: C_11  and  C_33
    4  A    between atoms: C_11  and  O_46
    5  A    between atoms: C_16  and  C_33
    6  A    between atoms: C_28  and  O_46
    7  A    between atoms: C_34  and  C_52
    8  A    between atoms: C_35  and  C_52
    9  A    between atoms: C_47  and  N_56
                            x       y       z     vdW  Elec       q    Type
                         _______ _______ _______ _____ _____    ______ ____

>  <TORSDO>
F 9

$$$$
