=
 OpenBabel11062422183D

 41 45  0  0  1  0  0  0  0  0999 V2000
  185.9350  178.7120  143.6310 C   0  0  0  0  0  0  0  0  0  0  0  0
  185.1150  179.6590  144.1560 F   0  0  0  0  0  0  0  0  0  0  0  0
  186.0270  177.5010  144.2020 C   0  0  0  0  0  0  0  0  0  0  0  0
  186.8940  176.4310  143.5940 C   0  0  2  0  0  3  0  0  0  0  0  0
  188.0560  177.0490  142.8040 C   0  0  2  0  0  3  0  0  0  0  0  0
  186.7120  179.0370  142.5090 O   0  0  0  0  0  0  0  0  0  0  0  0
  187.5000  178.0680  141.8170 C   0  0  0  0  0  2  0  0  0  0  0  0
  186.1200  175.6270  142.7730 F   0  0  0  0  0  0  0  0  0  0  0  0
  188.8610  175.9910  142.0670 C   0  0  0  0  0  2  0  0  0  0  0  0
  188.5440  173.7350  140.3340 O   0  0  0  0  0  0  0  0  0  0  0  0
  192.2280  172.8420  143.6830 C   0  0  0  0  0  0  0  0  0  0  0  0
  189.0580  173.3420  141.9000 P   0  0  1  0  0  0  0  0  0  0  0  0
  189.0910  174.8390  142.9390 N   0  0  0  0  0  0  0  0  0  0  0  0
  188.2550  172.2840  142.6190 O   0  0  0  0  0  1  0  0  0  0  0  0
  190.3560  174.2290  142.7420 C   0  0  1  0  0  0  0  0  0  0  0  0
  193.0280  173.3070  142.7140 C   0  0  0  0  0  3  0  0  0  0  0  0
  190.8950  173.5000  143.9690 C   0  0  0  0  0  2  0  0  0  0  0  0
  192.6190  174.4050  141.8140 C   0  0  0  0  0  3  0  0  0  0  0  0
  191.3700  174.8680  141.8240 C   0  0  0  0  0  3  0  0  0  0  0  0
  192.6970  171.7610  144.4980 N   0  0  0  0  0  2  0  0  0  0  0  0
  196.6120  170.6760  145.7740 C   0  0  0  0  0  2  0  0  0  0  0  0
  196.2700  172.1730  145.7930 C   0  0  0  0  0  2  0  0  0  0  0  0
  194.1000  171.4280  144.7260 C   0  0  0  0  0  3  0  0  0  0  0  0
  194.7740  172.4680  145.6230 C   0  0  0  0  0  2  0  0  0  0  0  0
  194.2460  169.9930  145.2610 C   0  0  0  0  0  2  0  0  0  0  0  0
  195.4300  169.8210  146.2180 C   0  0  0  0  0  2  0  0  0  0  0  0
  185.2040  177.1620  145.4030 C   0  0  0  0  0  2  0  0  0  0  0  0
  186.0980  176.7020  146.5400 C   0  0  0  0  0  2  0  0  0  0  0  0
  188.2730  177.8100  147.3110 N   0  0  0  0  0  2  0  0  0  0  0  0
  189.1570  176.7570  146.8970 C   0  0  0  0  0  0  0  0  0  0  0  0
  188.7510  175.8370  146.1380 O   0  0  0  0  0  0  0  0  0  0  0  0
  186.8580  177.8660  147.0860 C   0  0  0  0  0  0  0  0  0  0  0  0
  186.2290  178.9070  147.4050 O   0  0  0  0  0  0  0  0  0  0  0  0
  190.4880  176.7480  147.3160 O   0  0  0  0  0  0  0  0  0  0  0  0
  191.4780  175.9350  146.6960 C   0  0  0  0  0  2  0  0  0  0  0  0
  192.2950  176.7420  145.6970 C   0  0  2  0  0  3  0  0  0  0  0  0
  191.5080  177.0140  144.5780 O   0  0  0  0  0  1  0  0  0  0  0  0
  193.5290  175.9610  145.2720 C   0  0  1  0  0  3  0  0  0  0  0  0
  194.7180  176.8990  145.1870 C   0  0  1  0  0  3  0  0  0  0  0  0
  194.5560  175.9880  146.3850 C   0  0  0  0  0  2  0  0  0  0  0  0
  195.6640  176.3550  144.3180 O   0  0  0  0  0  1  0  0  0  0  0  0
  1  2  1  0  0  0  0
  1  3  2  0  0  0  0
  3 27  1  0  0  0  0
  4  8  1  6  0  0  0
  4  3  1  0  0  0  0
  5  9  1  6  0  0  0
  5  4  1  0  0  0  0
  6  1  1  0  0  0  0
  7  6  1  0  0  0  0
  7  5  1  0  0  0  0
  9 13  1  0  0  0  0
 11 17  1  0  0  0  0
 11 20  1  0  0  0  0
 12 10  2  6  0  0  0
 12 14  1  0  0  0  0
 12 15  1  0  0  0  0
 12 13  1  0  0  0  0
 15 19  1  6  0  0  0
 15 13  1  0  0  0  0
 15 17  1  0  0  0  0
 16 11  2  0  0  0  0
 18 19  2  0  0  0  0
 18 16  1  0  0  0  0
 20 23  1  0  0  0  0
 21 22  1  0  0  0  0
 21 26  1  0  0  0  0
 23 25  1  0  0  0  0
 23 24  1  0  0  0  0
 24 22  1  0  0  0  0
 25 26  1  0  0  0  0
 27 28  1  0  0  0  0
 28 32  1  0  0  0  0
 30 29  1  0  0  0  0
 30 34  1  0  0  0  0
 31 30  2  0  0  0  0
 32 29  1  0  0  0  0
 32 33  2  0  0  0  0
 35 34  1  0  0  0  0
 36 37  1  6  0  0  0
 36 35  1  0  0  0  0
 38 36  1  1  0  0  0
 38 40  1  0  0  0  0
 39 41  1  6  0  0  0
 39 38  1  0  0  0  0
 39 40  1  0  0  0  0
M  END
>  <MODEL>
1

>  <REMARK>
 VINA RESULT:      -7.5      0.000      0.000
  Name = 
  11 active torsions:
  status: ('A' for Active; 'I' for Inactive)
    1  A    between atoms: N_3  and  C_4
    2  A    between atoms: N_3  and  C_22
    3  A    between atoms: C_6  and  C_14
    4  A    between atoms: C_6  and  N_15
    5  A    between atoms: C_7  and  C_30
    6  A    between atoms: C_7  and  C_31
    7  A    between atoms: C_8  and  C_13
    8  A    between atoms: C_8  and  C_20
    9  A    between atoms: C_10  and  C_31
   10  A    between atoms: O_16  and  C_20
   11  A    between atoms: O_16  and  C_27
                            x       y       z     vdW  Elec       q    Type
                         _______ _______ _______ _____ _____    ______ ____

>  <TORSDO>
F 11

$$$$
=
 OpenBabel11062422183D

 41 45  0  0  1  0  0  0  0  0999 V2000
  185.6150  178.3660  142.5360 C   0  0  0  0  0  0  0  0  0  0  0  0
  184.8050  179.4090  142.8490 F   0  0  0  0  0  0  0  0  0  0  0  0
  185.9580  177.4670  143.4720 C   0  0  0  0  0  0  0  0  0  0  0  0
  186.8140  176.2800  143.1180 C   0  0  2  0  0  3  0  0  0  0  0  0
  187.7200  176.5940  141.9200 C   0  0  2  0  0  3  0  0  0  0  0  0
  186.1180  178.2680  141.2300 O   0  0  0  0  0  0  0  0  0  0  0  0
  186.8680  177.1380  140.7810 C   0  0  0  0  0  2  0  0  0  0  0  0
  185.9980  175.1950  142.8410 F   0  0  0  0  0  0  0  0  0  0  0  0
  188.4880  175.3660  141.4590 C   0  0  0  0  0  2  0  0  0  0  0  0
  188.0410  172.6230  142.1420 O   0  0  0  0  0  0  0  0  0  0  0  0
  193.0050  173.5610  141.9080 C   0  0  0  0  0  0  0  0  0  0  0  0
  189.4560  173.2810  142.8010 P   0  0  1  0  0  0  0  0  0  0  0  0
  189.5570  175.0590  142.4100 N   0  0  0  0  0  0  0  0  0  0  0  0
  189.6370  173.1140  144.2920 O   0  0  0  0  0  1  0  0  0  0  0  0
  190.5960  174.2700  141.8500 C   0  0  1  0  0  0  0  0  0  0  0  0
  192.8850  173.1300  140.6450 C   0  0  0  0  0  3  0  0  0  0  0  0
  191.9520  174.4550  142.5260 C   0  0  0  0  0  2  0  0  0  0  0  0
  191.6850  173.4090  139.8300 C   0  0  0  0  0  3  0  0  0  0  0  0
  190.6020  173.9640  140.3730 C   0  0  0  0  0  3  0  0  0  0  0  0
  194.1950  173.2280  142.6340 N   0  0  0  0  0  2  0  0  0  0  0  0
  197.6580  175.6570  143.1210 C   0  0  0  0  0  2  0  0  0  0  0  0
  196.4720  176.2870  142.3750 C   0  0  0  0  0  2  0  0  0  0  0  0
  195.4410  173.9880  142.6000 C   0  0  0  0  0  3  0  0  0  0  0  0
  195.1680  175.4900  142.5020 C   0  0  0  0  0  2  0  0  0  0  0  0
  196.3420  173.6200  143.7910 C   0  0  0  0  0  2  0  0  0  0  0  0
  197.1960  174.7920  144.2880 C   0  0  0  0  0  2  0  0  0  0  0  0
  185.4280  177.5810  144.8650 C   0  0  0  0  0  2  0  0  0  0  0  0
  186.4490  178.2540  145.7630 C   0  0  0  0  0  2  0  0  0  0  0  0
  188.0360  176.5730  146.8630 N   0  0  0  0  0  2  0  0  0  0  0  0
  189.1080  176.7080  145.9190 C   0  0  0  0  0  0  0  0  0  0  0  0
  189.1210  177.6550  145.0890 O   0  0  0  0  0  0  0  0  0  0  0  0
  186.8210  177.3350  146.8800 C   0  0  0  0  0  0  0  0  0  0  0  0
  186.0190  177.1880  147.8380 O   0  0  0  0  0  0  0  0  0  0  0  0
  190.1670  175.7970  145.9200 O   0  0  0  0  0  0  0  0  0  0  0  0
  190.7030  175.2500  147.1190 C   0  0  0  0  0  2  0  0  0  0  0  0
  192.0010  175.9490  147.5010 C   0  0  2  0  0  3  0  0  0  0  0  0
  191.7020  177.0890  148.2460 O   0  0  0  0  0  1  0  0  0  0  0  0
  192.7720  176.3450  146.2530 C   0  0  1  0  0  3  0  0  0  0  0  0
  194.2590  176.3380  146.5520 C   0  0  1  0  0  3  0  0  0  0  0  0
  193.6340  175.1860  145.7970 C   0  0  0  0  0  2  0  0  0  0  0  0
  194.9080  177.1830  145.6520 O   0  0  0  0  0  1  0  0  0  0  0  0
  1  2  1  0  0  0  0
  1  3  2  0  0  0  0
  3 27  1  0  0  0  0
  4  8  1  6  0  0  0
  4  3  1  0  0  0  0
  5  9  1  6  0  0  0
  5  4  1  0  0  0  0
  6  1  1  0  0  0  0
  7  6  1  0  0  0  0
  7  5  1  0  0  0  0
  9 13  1  0  0  0  0
 11 17  1  0  0  0  0
 11 20  1  0  0  0  0
 12 10  2  6  0  0  0
 12 14  1  0  0  0  0
 13 12  1  0  0  0  0
 15 19  1  6  0  0  0
 15 13  1  0  0  0  0
 15 17  1  0  0  0  0
 15 12  1  0  0  0  0
 16 11  2  0  0  0  0
 18 19  2  0  0  0  0
 18 16  1  0  0  0  0
 21 26  1  0  0  0  0
 22 24  1  0  0  0  0
 22 21  1  0  0  0  0
 23 20  1  0  0  0  0
 23 25  1  0  0  0  0
 24 23  1  0  0  0  0
 25 26  1  0  0  0  0
 27 28  1  0  0  0  0
 28 32  1  0  0  0  0
 29 32  1  0  0  0  0
 30 34  1  0  0  0  0
 30 29  1  0  0  0  0
 31 30  2  0  0  0  0
 32 33  2  0  0  0  0
 34 35  1  0  0  0  0
 35 36  1  0  0  0  0
 36 37  1  6  0  0  0
 38 39  1  0  0  0  0
 38 36  1  1  0  0  0
 39 41  1  6  0  0  0
 40 38  1  0  0  0  0
 40 39  1  0  0  0  0
M  END
>  <MODEL>
2

>  <REMARK>
 VINA RESULT:      -7.1      1.849      2.437
  Name = 
  11 active torsions:
  status: ('A' for Active; 'I' for Inactive)
    1  A    between atoms: N_3  and  C_4
    2  A    between atoms: N_3  and  C_22
    3  A    between atoms: C_6  and  C_14
    4  A    between atoms: C_6  and  N_15
    5  A    between atoms: C_7  and  C_30
    6  A    between atoms: C_7  and  C_31
    7  A    between atoms: C_8  and  C_13
    8  A    between atoms: C_8  and  C_20
    9  A    between atoms: C_10  and  C_31
   10  A    between atoms: O_16  and  C_20
   11  A    between atoms: O_16  and  C_27
                            x       y       z     vdW  Elec       q    Type
                         _______ _______ _______ _____ _____    ______ ____

>  <TORSDO>
F 11

$$$$
=
 OpenBabel11062422183D

 41 45  0  0  1  0  0  0  0  0999 V2000
  187.3920  176.3510  147.0990 C   0  0  0  0  0  0  0  0  0  0  0  0
  186.3140  176.3800  147.9230 F   0  0  0  0  0  0  0  0  0  0  0  0
  187.5500  177.2920  146.1540 C   0  0  0  0  0  0  0  0  0  0  0  0
  188.7690  177.2940  145.2710 C   0  0  2  0  0  3  0  0  0  0  0  0
  189.3340  175.8760  145.1110 C   0  0  2  0  0  3  0  0  0  0  0  0
  188.3130  175.3000  147.2250 O   0  0  0  0  0  0  0  0  0  0  0  0
  189.5370  175.2620  146.4900 C   0  0  0  0  0  2  0  0  0  0  0  0
  189.7230  178.1410  145.8120 F   0  0  0  0  0  0  0  0  0  0  0  0
  190.6440  175.8770  144.3400 C   0  0  0  0  0  2  0  0  0  0  0  0
  191.7700  174.8990  141.8970 O   0  0  0  0  0  0  0  0  0  0  0  0
  195.1550  174.5210  145.6350 C   0  0  0  0  0  0  0  0  0  0  0  0
  192.3590  174.1340  143.2880 P   0  0  1  0  0  0  0  0  0  0  0  0
  191.4720  174.7460  144.7590 N   0  0  0  0  0  0  0  0  0  0  0  0
  192.3000  172.6240  143.2940 O   0  0  0  0  0  1  0  0  0  0  0  0
  192.8620  175.0320  144.7450 C   0  0  1  0  0  0  0  0  0  0  0  0
  195.5670  175.7170  145.1940 C   0  0  0  0  0  3  0  0  0  0  0  0
  193.6790  174.1940  145.7250 C   0  0  0  0  0  2  0  0  0  0  0  0
  194.6260  176.7320  144.6760 C   0  0  0  0  0  3  0  0  0  0  0  0
  193.3430  176.4360  144.4760 C   0  0  0  0  0  3  0  0  0  0  0  0
  196.1380  173.5890  146.1020 N   0  0  0  0  0  2  0  0  0  0  0  0
  197.5520  170.4630  143.5800 C   0  0  0  0  0  2  0  0  0  0  0  0
  197.5820  170.1960  145.0930 C   0  0  0  0  0  2  0  0  0  0  0  0
  196.8230  172.6040  145.2720 C   0  0  0  0  0  3  0  0  0  0  0  0
  196.7870  171.2170  145.9170 C   0  0  0  0  0  2  0  0  0  0  0  0
  196.2670  172.6110  143.8370 C   0  0  0  0  0  2  0  0  0  0  0  0
  196.3020  171.2320  143.1680 C   0  0  0  0  0  2  0  0  0  0  0  0
  186.5610  178.4040  146.0170 C   0  0  0  0  0  2  0  0  0  0  0  0
  185.5060  178.0450  144.9860 C   0  0  0  0  0  2  0  0  0  0  0  0
  186.2910  178.1690  142.5520 N   0  0  0  0  0  2  0  0  0  0  0  0
  186.4780  176.7590  142.3620 C   0  0  0  0  0  0  0  0  0  0  0  0
  186.0250  175.9310  143.1950 O   0  0  0  0  0  0  0  0  0  0  0  0
  185.7570  178.8020  143.7240 C   0  0  0  0  0  0  0  0  0  0  0  0
  185.5410  180.0420  143.7050 O   0  0  0  0  0  0  0  0  0  0  0  0
  187.1530  176.2840  141.2360 O   0  0  0  0  0  0  0  0  0  0  0  0
  188.4030  175.6100  141.3230 C   0  0  0  0  0  2  0  0  0  0  0  0
  188.2060  174.1000  141.3290 C   0  0  2  0  0  3  0  0  0  0  0  0
  188.5470  173.6010  142.5860 O   0  0  0  0  0  1  0  0  0  0  0  0
  189.0820  173.4500  140.2700 C   0  0  1  0  0  3  0  0  0  0  0  0
  188.2140  172.6700  139.3020 C   0  0  1  0  0  3  0  0  0  0  0  0
  188.7510  174.0290  138.9100 C   0  0  0  0  0  2  0  0  0  0  0  0
  188.9850  171.6770  138.6990 O   0  0  0  0  0  1  0  0  0  0  0  0
  1  6  1  0  0  0  0
  1  2  1  0  0  0  0
  3  1  2  0  0  0  0
  4  8  1  1  0  0  0
  4  3  1  0  0  0  0
  5  9  1  1  0  0  0
  5  4  1  0  0  0  0
  5  7  1  0  0  0  0
  7  6  1  0  0  0  0
  9 13  1  0  0  0  0
 11 17  1  0  0  0  0
 11 20  1  0  0  0  0
 12 10  2  6  0  0  0
 12 14  1  0  0  0  0
 12 15  1  0  0  0  0
 12 13  1  0  0  0  0
 15 19  1  6  0  0  0
 15 13  1  0  0  0  0
 15 17  1  0  0  0  0
 16 11  2  0  0  0  0
 18 16  1  0  0  0  0
 19 18  2  0  0  0  0
 21 22  1  0  0  0  0
 22 24  1  0  0  0  0
 23 24  1  0  0  0  0
 23 20  1  0  0  0  0
 25 23  1  0  0  0  0
 26 21  1  0  0  0  0
 26 25  1  0  0  0  0
 27  3  1  0  0  0  0
 28 27  1  0  0  0  0
 29 32  1  0  0  0  0
 30 29  1  0  0  0  0
 30 31  2  0  0  0  0
 32 28  1  0  0  0  0
 33 32  2  0  0  0  0
 34 35  1  0  0  0  0
 34 30  1  0  0  0  0
 35 36  1  0  0  0  0
 36 37  1  1  0  0  0
 38 36  1  1  0  0  0
 39 41  1  6  0  0  0
 39 38  1  0  0  0  0
 40 39  1  0  0  0  0
 40 38  1  0  0  0  0
M  END
>  <MODEL>
3

>  <REMARK>
 VINA RESULT:      -7.0      2.593      4.904
  Name = 
  11 active torsions:
  status: ('A' for Active; 'I' for Inactive)
    1  A    between atoms: N_3  and  C_4
    2  A    between atoms: N_3  and  C_22
    3  A    between atoms: C_6  and  C_14
    4  A    between atoms: C_6  and  N_15
    5  A    between atoms: C_7  and  C_30
    6  A    between atoms: C_7  and  C_31
    7  A    between atoms: C_8  and  C_13
    8  A    between atoms: C_8  and  C_20
    9  A    between atoms: C_10  and  C_31
   10  A    between atoms: O_16  and  C_20
   11  A    between atoms: O_16  and  C_27
                            x       y       z     vdW  Elec       q    Type
                         _______ _______ _______ _____ _____    ______ ____

>  <TORSDO>
F 11

$$$$
=
 OpenBabel11062422183D

 41 45  0  0  1  0  0  0  0  0999 V2000
  186.2000  177.0530  146.1710 C   0  0  0  0  0  0  0  0  0  0  0  0
  184.8530  177.0550  146.3410 F   0  0  0  0  0  0  0  0  0  0  0  0
  186.7280  176.9730  144.9400 C   0  0  0  0  0  0  0  0  0  0  0  0
  188.2200  177.0230  144.7420 C   0  0  2  0  0  3  0  0  0  0  0  0
  188.9560  176.4950  145.9800 C   0  0  2  0  0  3  0  0  0  0  0  0
  187.0250  177.0950  147.3050 O   0  0  0  0  0  0  0  0  0  0  0  0
  188.4440  177.2270  147.2140 C   0  0  0  0  0  2  0  0  0  0  0  0
  188.6010  178.3260  144.4670 F   0  0  0  0  0  0  0  0  0  0  0  0
  190.4610  176.6680  145.8560 C   0  0  0  0  0  2  0  0  0  0  0  0
  191.5740  177.6290  143.4000 O   0  0  0  0  0  1  0  0  0  0  0  0
  194.5730  174.0720  145.3840 C   0  0  0  0  0  0  0  0  0  0  0  0
  191.9250  176.0060  143.7340 P   0  0  1  0  0  0  0  0  0  0  0  0
  191.0530  175.4770  145.2450 N   0  0  0  0  0  0  0  0  0  0  0  0
  191.6100  175.0170  142.6350 O   0  0  0  0  0  0  0  0  0  0  0  0
  192.4690  175.4440  145.3370 C   0  0  1  0  0  0  0  0  0  0  0  0
  195.2130  175.1150  145.9300 C   0  0  0  0  0  3  0  0  0  0  0  0
  193.0610  174.0370  145.3200 C   0  0  0  0  0  2  0  0  0  0  0  0
  194.4970  176.3200  146.3980 C   0  0  0  0  0  3  0  0  0  0  0  0
  193.2000  176.4860  146.1460 C   0  0  0  0  0  3  0  0  0  0  0  0
  195.3470  172.9520  144.9390 N   0  0  0  0  0  2  0  0  0  0  0  0
  196.4940  169.2780  146.7620 C   0  0  0  0  0  2  0  0  0  0  0  0
  194.9940  169.4770  146.4920 C   0  0  0  0  0  2  0  0  0  0  0  0
  195.6960  171.7940  145.7560 C   0  0  0  0  0  3  0  0  0  0  0  0
  194.6840  170.6620  145.5690 C   0  0  0  0  0  2  0  0  0  0  0  0
  197.1450  171.3490  145.4910 C   0  0  0  0  0  2  0  0  0  0  0  0
  197.3490  169.8370  145.6300 C   0  0  0  0  0  2  0  0  0  0  0  0
  185.8450  176.9190  143.7360 C   0  0  0  0  0  2  0  0  0  0  0  0
  186.3460  175.8680  142.7620 C   0  0  0  0  0  2  0  0  0  0  0  0
  188.0400  175.8790  140.8430 N   0  0  0  0  0  2  0  0  0  0  0  0
  188.4280  174.5010  140.9500 C   0  0  0  0  0  0  0  0  0  0  0  0
  187.7580  173.6960  141.6490 O   0  0  0  0  0  0  0  0  0  0  0  0
  187.0150  176.5320  141.6040 C   0  0  0  0  0  0  0  0  0  0  0  0
  186.7040  177.7180  141.3220 O   0  0  0  0  0  0  0  0  0  0  0  0
  189.5470  174.0280  140.2620 O   0  0  0  0  0  0  0  0  0  0  0  0
  189.7800  172.6420  140.0440 C   0  0  0  0  0  2  0  0  0  0  0  0
  191.1380  172.2270  140.5920 C   0  0  2  0  0  3  0  0  0  0  0  0
  191.9660  171.8640  139.5300 O   0  0  0  0  0  1  0  0  0  0  0  0
  190.9860  171.0500  141.5420 C   0  0  1  0  0  3  0  0  0  0  0  0
  191.9250  171.2250  142.7200 C   0  0  1  0  0  3  0  0  0  0  0  0
  190.4520  171.5370  142.8740 C   0  0  0  0  0  2  0  0  0  0  0  0
  192.1930  169.9750  143.2780 O   0  0  0  0  0  1  0  0  0  0  0  0
  1  2  1  0  0  0  0
  1  6  1  0  0  0  0
  3  1  2  0  0  0  0
  4  8  1  1  0  0  0
  4  3  1  0  0  0  0
  4  5  1  0  0  0  0
  5  9  1  6  0  0  0
  5  7  1  0  0  0  0
  7  6  1  0  0  0  0
 10 12  1  0  0  0  0
 11 16  2  0  0  0  0
 12 14  2  6  0  0  0
 12 13  1  0  0  0  0
 12 15  1  0  0  0  0
 13 15  1  0  0  0  0
 13  9  1  0  0  0  0
 15 17  1  1  0  0  0
 15 19  1  0  0  0  0
 16 18  1  0  0  0  0
 17 11  1  0  0  0  0
 19 18  2  0  0  0  0
 20 11  1  0  0  0  0
 20 23  1  0  0  0  0
 22 21  1  0  0  0  0
 24 23  1  0  0  0  0
 24 22  1  0  0  0  0
 25 26  1  0  0  0  0
 25 23  1  0  0  0  0
 26 21  1  0  0  0  0
 27  3  1  0  0  0  0
 28 27  1  0  0  0  0
 29 30  1  0  0  0  0
 29 32  1  0  0  0  0
 30 31  2  0  0  0  0
 32 28  1  0  0  0  0
 33 32  2  0  0  0  0
 34 30  1  0  0  0  0
 35 34  1  0  0  0  0
 35 36  1  0  0  0  0
 36 37  1  6  0  0  0
 38 36  1  6  0  0  0
 38 39  1  0  0  0  0
 38 40  1  0  0  0  0
 39 40  1  0  0  0  0
 39 41  1  1  0  0  0
M  END
>  <MODEL>
4

>  <REMARK>
 VINA RESULT:      -6.9      2.202      4.845
  Name = 
  11 active torsions:
  status: ('A' for Active; 'I' for Inactive)
    1  A    between atoms: N_3  and  C_4
    2  A    between atoms: N_3  and  C_22
    3  A    between atoms: C_6  and  C_14
    4  A    between atoms: C_6  and  N_15
    5  A    between atoms: C_7  and  C_30
    6  A    between atoms: C_7  and  C_31
    7  A    between atoms: C_8  and  C_13
    8  A    between atoms: C_8  and  C_20
    9  A    between atoms: C_10  and  C_31
   10  A    between atoms: O_16  and  C_20
   11  A    between atoms: O_16  and  C_27
                            x       y       z     vdW  Elec       q    Type
                         _______ _______ _______ _____ _____    ______ ____

>  <TORSDO>
F 11

$$$$
=
 OpenBabel11062422183D

 41 45  0  0  1  0  0  0  0  0999 V2000
  196.8950  172.5800  143.9090 C   0  0  0  0  0  0  0  0  0  0  0  0
  197.8010  171.6000  143.6570 F   0  0  0  0  0  0  0  0  0  0  0  0
  195.9460  172.4030  144.8410 C   0  0  0  0  0  0  0  0  0  0  0  0
  194.9720  173.5060  145.1610 C   0  0  2  0  0  3  0  0  0  0  0  0
  194.7620  174.4220  143.9470 C   0  0  2  0  0  3  0  0  0  0  0  0
  196.9460  173.7590  143.1510 O   0  0  0  0  0  0  0  0  0  0  0  0
  196.1190  174.8880  143.4350 C   0  0  0  0  0  2  0  0  0  0  0  0
  195.4420  174.2300  146.2440 F   0  0  0  0  0  0  0  0  0  0  0  0
  193.8930  175.6210  144.2920 C   0  0  0  0  0  2  0  0  0  0  0  0
  193.8330  176.9850  146.8070 O   0  0  0  0  0  0  0  0  0  0  0  0
  189.1610  176.6720  144.8950 C   0  0  0  0  0  0  0  0  0  0  0  0
  192.4300  176.1000  146.4630 P   0  0  1  0  0  0  0  0  0  0  0  0
  192.6440  175.1720  144.9080 N   0  0  0  0  0  0  0  0  0  0  0  0
  191.9730  175.1330  147.5310 O   0  0  0  0  0  1  0  0  0  0  0  0
  191.6190  176.1530  144.8750 C   0  0  1  0  0  0  0  0  0  0  0  0
  189.4360  177.8840  144.3930 C   0  0  0  0  0  3  0  0  0  0  0  0
  190.2050  175.5770  144.8940 C   0  0  0  0  0  2  0  0  0  0  0  0
  190.7860  178.2490  143.9150 C   0  0  0  0  0  3  0  0  0  0  0  0
  191.8250  177.4390  144.1140 C   0  0  0  0  0  3  0  0  0  0  0  0
  187.8290  176.4100  145.3540 N   0  0  0  0  0  2  0  0  0  0  0  0
  184.2870  178.7590  145.6120 C   0  0  0  0  0  2  0  0  0  0  0  0
  184.6890  178.2680  144.2130 C   0  0  0  0  0  2  0  0  0  0  0  0
  186.7460  177.3870  145.3960 C   0  0  0  0  0  3  0  0  0  0  0  0
  185.7790  177.1880  144.2270 C   0  0  0  0  0  2  0  0  0  0  0  0
  186.0420  177.3710  146.7630 C   0  0  0  0  0  2  0  0  0  0  0  0
  184.5470  177.7000  146.6790 C   0  0  0  0  0  2  0  0  0  0  0  0
  195.8900  171.1410  145.6390 C   0  0  0  0  0  2  0  0  0  0  0  0
  194.5340  170.4770  145.4790 C   0  0  0  0  0  2  0  0  0  0  0  0
  193.2210  170.2320  143.2950 N   0  0  0  0  0  2  0  0  0  0  0  0
  192.1630  171.1420  143.6300 C   0  0  0  0  0  0  0  0  0  0  0  0
  192.2660  171.9140  144.6200 O   0  0  0  0  0  0  0  0  0  0  0  0
  194.3870  169.9620  144.0850 C   0  0  0  0  0  0  0  0  0  0  0  0
  195.2900  169.2260  143.6110 O   0  0  0  0  0  0  0  0  0  0  0  0
  191.0070  171.1980  142.8490 O   0  0  0  0  0  0  0  0  0  0  0  0
  191.0260  171.6050  141.4860 C   0  0  0  0  0  2  0  0  0  0  0  0
  190.6070  173.0620  141.3490 C   0  0  2  0  0  3  0  0  0  0  0  0
  191.6430  173.8780  141.8040 O   0  0  0  0  0  1  0  0  0  0  0  0
  189.3540  173.3300  142.1670 C   0  0  1  0  0  3  0  0  0  0  0  0
  188.4220  174.2350  141.3860 C   0  0  1  0  0  3  0  0  0  0  0  0
  188.1490  172.7480  141.4560 C   0  0  0  0  0  2  0  0  0  0  0  0
  187.5820  174.9020  142.2770 O   0  0  0  0  0  1  0  0  0  0  0  0
  1  3  2  0  0  0  0
  2  1  1  0  0  0  0
  3  4  1  0  0  0  0
  3 27  1  0  0  0  0
  4  8  1  1  0  0  0
  5  9  1  1  0  0  0
  5  4  1  0  0  0  0
  6  7  1  0  0  0  0
  6  1  1  0  0  0  0
  7  5  1  0  0  0  0
  9 13  1  0  0  0  0
 11 20  1  0  0  0  0
 12 10  2  1  0  0  0
 12 14  1  0  0  0  0
 13 12  1  0  0  0  0
 15 19  1  6  0  0  0
 15 17  1  0  0  0  0
 15 13  1  0  0  0  0
 15 12  1  0  0  0  0
 16 11  2  0  0  0  0
 17 11  1  0  0  0  0
 18 19  2  0  0  0  0
 18 16  1  0  0  0  0
 20 23  1  0  0  0  0
 21 26  1  0  0  0  0
 22 24  1  0  0  0  0
 22 21  1  0  0  0  0
 23 25  1  0  0  0  0
 24 23  1  0  0  0  0
 26 25  1  0  0  0  0
 28 27  1  0  0  0  0
 29 30  1  0  0  0  0
 29 32  1  0  0  0  0
 30 31  2  0  0  0  0
 32 28  1  0  0  0  0
 33 32  2  0  0  0  0
 34 30  1  0  0  0  0
 35 34  1  0  0  0  0
 36 35  1  0  0  0  0
 36 37  1  1  0  0  0
 38 36  1  6  0  0  0
 39 40  1  0  0  0  0
 39 38  1  0  0  0  0
 39 41  1  1  0  0  0
 40 38  1  0  0  0  0
M  END
>  <MODEL>
5

>  <REMARK>
 VINA RESULT:      -6.9      3.594      9.071
  Name = 
  11 active torsions:
  status: ('A' for Active; 'I' for Inactive)
    1  A    between atoms: N_3  and  C_4
    2  A    between atoms: N_3  and  C_22
    3  A    between atoms: C_6  and  C_14
    4  A    between atoms: C_6  and  N_15
    5  A    between atoms: C_7  and  C_30
    6  A    between atoms: C_7  and  C_31
    7  A    between atoms: C_8  and  C_13
    8  A    between atoms: C_8  and  C_20
    9  A    between atoms: C_10  and  C_31
   10  A    between atoms: O_16  and  C_20
   11  A    between atoms: O_16  and  C_27
                            x       y       z     vdW  Elec       q    Type
                         _______ _______ _______ _____ _____    ______ ____

>  <TORSDO>
F 11

$$$$
=
 OpenBabel11062422183D

 41 45  0  0  1  0  0  0  0  0999 V2000
  185.6890  178.7380  145.4860 C   0  0  0  0  0  0  0  0  0  0  0  0
  184.6270  179.5150  145.1540 F   0  0  0  0  0  0  0  0  0  0  0  0
  186.5020  178.2550  144.5320 C   0  0  0  0  0  0  0  0  0  0  0  0
  187.7110  177.4360  144.8980 C   0  0  2  0  0  3  0  0  0  0  0  0
  187.4970  176.7080  146.2320 C   0  0  2  0  0  3  0  0  0  0  0  0
  185.8970  178.4170  146.8350 O   0  0  0  0  0  0  0  0  0  0  0  0
  187.0580  177.7160  147.2850 C   0  0  0  0  0  2  0  0  0  0  0  0
  188.8200  178.2640  144.9670 F   0  0  0  0  0  0  0  0  0  0  0  0
  188.7570  175.9890  146.6880 C   0  0  0  0  0  2  0  0  0  0  0  0
  191.0830  175.2670  148.1920 O   0  0  0  0  0  1  0  0  0  0  0  0
  191.7870  174.2060  143.2970 C   0  0  0  0  0  0  0  0  0  0  0  0
  191.4070  175.7560  146.6020 P   0  0  1  0  0  0  0  0  0  0  0  0
  189.8700  176.3170  145.7970 N   0  0  0  0  0  0  0  0  0  0  0  0
  192.4490  176.8380  146.4370 O   0  0  0  0  0  0  0  0  0  0  0  0
  190.4670  175.1750  145.2020 C   0  0  1  0  0  0  0  0  0  0  0  0
  191.3470  172.9880  143.6420 C   0  0  0  0  0  3  0  0  0  0  0  0
  191.1400  175.4530  143.8600 C   0  0  0  0  0  2  0  0  0  0  0  0
  190.2920  172.7920  144.6570 C   0  0  0  0  0  3  0  0  0  0  0  0
  189.8480  173.8120  145.3900 C   0  0  0  0  0  3  0  0  0  0  0  0
  192.8280  174.3040  142.3170 N   0  0  0  0  0  2  0  0  0  0  0  0
  196.5650  175.9980  143.4550 C   0  0  0  0  0  2  0  0  0  0  0  0
  195.9820  176.4540  142.1100 C   0  0  0  0  0  2  0  0  0  0  0  0
  194.2000  174.7220  142.5880 C   0  0  0  0  0  3  0  0  0  0  0  0
  194.5150  176.0540  141.9040 C   0  0  0  0  0  2  0  0  0  0  0  0
  194.4810  174.7450  144.1000 C   0  0  0  0  0  2  0  0  0  0  0  0
  195.4800  175.8310  144.5140 C   0  0  0  0  0  2  0  0  0  0  0  0
  186.2700  178.5920  143.0950 C   0  0  0  0  0  2  0  0  0  0  0  0
  185.7590  177.3750  142.3450 C   0  0  0  0  0  2  0  0  0  0  0  0
  187.4410  176.4510  140.6520 N   0  0  0  0  0  2  0  0  0  0  0  0
  187.9550  175.3970  141.4810 C   0  0  0  0  0  0  0  0  0  0  0  0
  187.3640  175.0660  142.5420 O   0  0  0  0  0  0  0  0  0  0  0  0
  186.3610  177.3350  140.9800 C   0  0  0  0  0  0  0  0  0  0  0  0
  185.9410  178.1380  140.1060 O   0  0  0  0  0  0  0  0  0  0  0  0
  189.1120  174.7100  141.1100 O   0  0  0  0  0  0  0  0  0  0  0  0
  189.0760  173.5070  140.3520 C   0  0  0  0  0  2  0  0  0  0  0  0
  189.3460  173.7860  138.8800 C   0  0  2  0  0  3  0  0  0  0  0  0
  188.1720  173.5820  138.1550 O   0  0  0  0  0  1  0  0  0  0  0  0
  190.4320  172.8580  138.3580 C   0  0  1  0  0  3  0  0  0  0  0  0
  191.6130  173.6800  137.8780 C   0  0  1  0  0  3  0  0  0  0  0  0
  191.6690  172.9870  139.2220 C   0  0  0  0  0  2  0  0  0  0  0  0
  192.3340  172.9360  136.9440 O   0  0  0  0  0  1  0  0  0  0  0  0
  1  6  1  0  0  0  0
  2  1  1  0  0  0  0
  3  4  1  0  0  0  0
  3  1  2  0  0  0  0
  4  8  1  1  0  0  0
  4  5  1  0  0  0  0
  5  9  1  1  0  0  0
  5  7  1  0  0  0  0
  6  7  1  0  0  0  0
 11 16  2  0  0  0  0
 11 17  1  0  0  0  0
 12 14  2  6  0  0  0
 12 10  1  0  0  0  0
 13 12  1  0  0  0  0
 13  9  1  0  0  0  0
 15 17  1  6  0  0  0
 15 19  1  0  0  0  0
 15 13  1  0  0  0  0
 15 12  1  0  0  0  0
 16 18  1  0  0  0  0
 18 19  2  0  0  0  0
 20 23  1  0  0  0  0
 20 11  1  0  0  0  0
 21 26  1  0  0  0  0
 22 21  1  0  0  0  0
 23 25  1  0  0  0  0
 24 22  1  0  0  0  0
 24 23  1  0  0  0  0
 25 26  1  0  0  0  0
 27  3  1  0  0  0  0
 28 27  1  0  0  0  0
 29 32  1  0  0  0  0
 29 30  1  0  0  0  0
 30 31  2  0  0  0  0
 32 28  1  0  0  0  0
 33 32  2  0  0  0  0
 34 30  1  0  0  0  0
 35 34  1  0  0  0  0
 36 37  1  6  0  0  0
 36 35  1  0  0  0  0
 38 36  1  1  0  0  0
 38 40  1  0  0  0  0
 39 41  1  6  0  0  0
 39 38  1  0  0  0  0
 39 40  1  0  0  0  0
M  END
>  <MODEL>
6

>  <REMARK>
 VINA RESULT:      -6.9      2.659      5.488
  Name = 
  11 active torsions:
  status: ('A' for Active; 'I' for Inactive)
    1  A    between atoms: N_3  and  C_4
    2  A    between atoms: N_3  and  C_22
    3  A    between atoms: C_6  and  C_14
    4  A    between atoms: C_6  and  N_15
    5  A    between atoms: C_7  and  C_30
    6  A    between atoms: C_7  and  C_31
    7  A    between atoms: C_8  and  C_13
    8  A    between atoms: C_8  and  C_20
    9  A    between atoms: C_10  and  C_31
   10  A    between atoms: O_16  and  C_20
   11  A    between atoms: O_16  and  C_27
                            x       y       z     vdW  Elec       q    Type
                         _______ _______ _______ _____ _____    ______ ____

>  <TORSDO>
F 11

$$$$
=
 OpenBabel11062422183D

 41 45  0  0  1  0  0  0  0  0999 V2000
  189.0850  175.7260  145.8560 C   0  0  0  0  0  0  0  0  0  0  0  0
  187.7320  175.8350  145.8720 F   0  0  0  0  0  0  0  0  0  0  0  0
  189.7150  175.2590  144.7660 C   0  0  0  0  0  0  0  0  0  0  0  0
  191.2180  175.1850  144.7240 C   0  0  2  0  0  3  0  0  0  0  0  0
  191.8010  175.0220  146.1350 C   0  0  2  0  0  3  0  0  0  0  0  0
  189.8060  176.0710  147.0090 O   0  0  0  0  0  0  0  0  0  0  0  0
  191.2340  176.1110  147.0360 C   0  0  0  0  0  2  0  0  0  0  0  0
  191.7150  176.3290  144.1210 F   0  0  0  0  0  0  0  0  0  0  0  0
  193.3190  175.0860  146.1270 C   0  0  0  0  0  2  0  0  0  0  0  0
  194.9460  177.3290  145.4090 O   0  0  0  0  0  1  0  0  0  0  0  0
  197.0410  173.0540  143.7020 C   0  0  0  0  0  0  0  0  0  0  0  0
  195.0030  176.0470  144.3030 P   0  0  1  0  0  0  0  0  0  0  0  0
  193.8280  174.7440  144.7990 N   0  0  0  0  0  0  0  0  0  0  0  0
  194.7360  176.4010  142.8590 O   0  0  0  0  0  0  0  0  0  0  0  0
  195.1900  174.3460  144.8050 C   0  0  1  0  0  0  0  0  0  0  0  0
  197.7240  173.0940  144.8540 C   0  0  0  0  0  3  0  0  0  0  0  0
  195.5710  173.4120  143.6590 C   0  0  0  0  0  2  0  0  0  0  0  0
  197.1200  173.5840  146.1100 C   0  0  0  0  0  3  0  0  0  0  0  0
  195.9180  174.1590  146.1130 C   0  0  0  0  0  3  0  0  0  0  0  0
  197.7110  172.5830  142.5260 N   0  0  0  0  0  2  0  0  0  0  0  0
  197.7170  175.1250  139.1100 C   0  0  0  0  0  2  0  0  0  0  0  0
  197.1140  173.7250  138.9270 C   0  0  0  0  0  2  0  0  0  0  0  0
  197.9040  173.3550  141.3020 C   0  0  0  0  0  3  0  0  0  0  0  0
  196.8620  172.9830  140.2450 C   0  0  0  0  0  2  0  0  0  0  0  0
  197.9380  174.8630  141.6020 C   0  0  0  0  0  2  0  0  0  0  0  0
  197.3630  175.7190  140.4690 C   0  0  0  0  0  2  0  0  0  0  0  0
  188.9420  174.8830  143.5440 C   0  0  0  0  0  2  0  0  0  0  0  0
  189.2870  175.8150  142.3970 C   0  0  0  0  0  2  0  0  0  0  0  0
  187.0930  176.7310  141.4490 N   0  0  0  0  0  2  0  0  0  0  0  0
  186.9920  177.8670  142.3200 C   0  0  0  0  0  0  0  0  0  0  0  0
  187.9730  178.2290  143.0220 O   0  0  0  0  0  0  0  0  0  0  0  0
  188.1850  175.8030  141.3900 C   0  0  0  0  0  0  0  0  0  0  0  0
  188.1890  174.9190  140.4940 O   0  0  0  0  0  0  0  0  0  0  0  0
  185.8060  178.6010  142.3880 O   0  0  0  0  0  0  0  0  0  0  0  0
  184.7730  178.2980  143.3190 C   0  0  0  0  0  2  0  0  0  0  0  0
  184.8840  179.1770  144.5570 C   0  0  2  0  0  3  0  0  0  0  0  0
  185.5660  180.3480  144.2240 O   0  0  0  0  0  1  0  0  0  0  0  0
  185.6370  178.4460  145.6560 C   0  0  1  0  0  3  0  0  0  0  0  0
  184.8360  178.5020  146.9430 C   0  0  1  0  0  3  0  0  0  0  0  0
  184.8370  177.2410  146.1060 C   0  0  0  0  0  2  0  0  0  0  0  0
  185.7010  178.3390  148.0240 O   0  0  0  0  0  1  0  0  0  0  0  0
  1  2  1  0  0  0  0
  1  6  1  0  0  0  0
  3  1  2  0  0  0  0
  4  8  1  1  0  0  0
  4  3  1  0  0  0  0
  4  5  1  0  0  0  0
  5  9  1  6  0  0  0
  5  7  1  0  0  0  0
  6  7  1  0  0  0  0
 11 16  2  0  0  0  0
 12 14  2  6  0  0  0
 12 13  1  0  0  0  0
 12 15  1  0  0  0  0
 12 10  1  0  0  0  0
 13 15  1  0  0  0  0
 13  9  1  0  0  0  0
 15 17  1  6  0  0  0
 15 19  1  0  0  0  0
 16 18  1  0  0  0  0
 17 11  1  0  0  0  0
 18 19  2  0  0  0  0
 20 11  1  0  0  0  0
 21 26  1  0  0  0  0
 22 21  1  0  0  0  0
 22 24  1  0  0  0  0
 23 25  1  0  0  0  0
 23 20  1  0  0  0  0
 24 23  1  0  0  0  0
 26 25  1  0  0  0  0
 27  3  1  0  0  0  0
 28 27  1  0  0  0  0
 29 30  1  0  0  0  0
 30 34  1  0  0  0  0
 30 31  2  0  0  0  0
 32 29  1  0  0  0  0
 32 28  1  0  0  0  0
 33 32  2  0  0  0  0
 34 35  1  0  0  0  0
 35 36  1  0  0  0  0
 36 37  1  6  0  0  0
 38 36  1  6  0  0  0
 38 40  1  0  0  0  0
 38 39  1  0  0  0  0
 39 41  1  1  0  0  0
 40 39  1  0  0  0  0
M  END
>  <MODEL>
7

>  <REMARK>
 VINA RESULT:      -6.8      3.043      6.693
  Name = 
  11 active torsions:
  status: ('A' for Active; 'I' for Inactive)
    1  A    between atoms: N_3  and  C_4
    2  A    between atoms: N_3  and  C_22
    3  A    between atoms: C_6  and  C_14
    4  A    between atoms: C_6  and  N_15
    5  A    between atoms: C_7  and  C_30
    6  A    between atoms: C_7  and  C_31
    7  A    between atoms: C_8  and  C_13
    8  A    between atoms: C_8  and  C_20
    9  A    between atoms: C_10  and  C_31
   10  A    between atoms: O_16  and  C_20
   11  A    between atoms: O_16  and  C_27
                            x       y       z     vdW  Elec       q    Type
                         _______ _______ _______ _____ _____    ______ ____

>  <TORSDO>
F 11

$$$$
=
 OpenBabel11062422183D

 41 45  0  0  1  0  0  0  0  0999 V2000
  193.1800  173.3130  139.4180 C   0  0  0  0  0  0  0  0  0  0  0  0
  192.9360  172.7850  138.1910 F   0  0  0  0  0  0  0  0  0  0  0  0
  192.7650  172.6770  140.5250 C   0  0  0  0  0  0  0  0  0  0  0  0
  193.0780  173.2310  141.8890 C   0  0  2  0  0  3  0  0  0  0  0  0
  193.2400  174.7570  141.8380 C   0  0  2  0  0  3  0  0  0  0  0  0
  193.8340  174.5510  139.5040 O   0  0  0  0  0  0  0  0  0  0  0  0
  194.2450  175.1140  140.7510 C   0  0  0  0  0  2  0  0  0  0  0  0
  194.2310  172.6340  142.3710 F   0  0  0  0  0  0  0  0  0  0  0  0
  193.6950  175.3190  143.1760 C   0  0  0  0  0  2  0  0  0  0  0  0
  194.4130  177.0190  145.3630 O   0  0  0  0  0  0  0  0  0  0  0  0
  189.3830  176.5670  145.1020 C   0  0  0  0  0  0  0  0  0  0  0  0
  192.9910  176.1320  145.6110 P   0  0  1  0  0  0  0  0  0  0  0  0
  192.7170  174.9930  144.2140 N   0  0  0  0  0  0  0  0  0  0  0  0
  192.9180  175.3350  146.8920 O   0  0  0  0  0  1  0  0  0  0  0  0
  191.7150  175.9860  144.3730 C   0  0  1  0  0  0  0  0  0  0  0  0
  189.4600  177.6900  144.3750 C   0  0  0  0  0  3  0  0  0  0  0  0
  190.3940  175.4550  144.9210 C   0  0  0  0  0  2  0  0  0  0  0  0
  190.5790  177.9500  143.4450 C   0  0  0  0  0  3  0  0  0  0  0  0
  191.6430  177.1490  143.4150 C   0  0  0  0  0  3  0  0  0  0  0  0
  188.2720  176.4060  145.9930 N   0  0  0  0  0  2  0  0  0  0  0  0
  185.1820  179.0410  147.2730 C   0  0  0  0  0  2  0  0  0  0  0  0
  184.7480  177.8070  146.4680 C   0  0  0  0  0  2  0  0  0  0  0  0
  187.2350  177.4030  146.2330 C   0  0  0  0  0  3  0  0  0  0  0  0
  185.8510  176.7540  146.3060 C   0  0  0  0  0  2  0  0  0  0  0  0
  187.5630  178.2520  147.4740 C   0  0  0  0  0  2  0  0  0  0  0  0
  186.3170  178.7140  148.2380 C   0  0  0  0  0  2  0  0  0  0  0  0
  192.0590  171.3640  140.4280 C   0  0  0  0  0  2  0  0  0  0  0  0
  190.6000  171.5210  140.8140 C   0  0  0  0  0  2  0  0  0  0  0  0
  189.0120  173.1430  139.6300 N   0  0  0  0  0  2  0  0  0  0  0  0
  189.0060  174.1510  140.6520 C   0  0  0  0  0  0  0  0  0  0  0  0
  189.8510  174.1270  141.5860 O   0  0  0  0  0  0  0  0  0  0  0  0
  189.8060  171.9490  139.6240 C   0  0  0  0  0  0  0  0  0  0  0  0
  189.7940  171.2110  138.6050 O   0  0  0  0  0  0  0  0  0  0  0  0
  188.0720  175.1880  140.6130 O   0  0  0  0  0  0  0  0  0  0  0  0
  187.4550  175.7030  141.7870 C   0  0  0  0  0  2  0  0  0  0  0  0
  186.9400  177.1170  141.5540 C   0  0  2  0  0  3  0  0  0  0  0  0
  187.9970  177.9220  141.1280 O   0  0  0  0  0  1  0  0  0  0  0  0
  186.3550  177.6830  142.8370 C   0  0  1  0  0  3  0  0  0  0  0  0
  185.6090  178.9680  142.5320 C   0  0  1  0  0  3  0  0  0  0  0  0
  184.8430  177.6810  142.7520 C   0  0  0  0  0  2  0  0  0  0  0  0
  185.5490  179.7450  143.6880 O   0  0  0  0  0  1  0  0  0  0  0  0
  1  6  1  0  0  0  0
  1  3  2  0  0  0  0
  2  1  1  0  0  0  0
  3  4  1  0  0  0  0
  4  8  1  6  0  0  0
  5  4  1  0  0  0  0
  5  9  1  1  0  0  0
  6  7  1  0  0  0  0
  7  5  1  0  0  0  0
  9 13  1  0  0  0  0
 11 20  1  0  0  0  0
 12 10  2  6  0  0  0
 12 14  1  0  0  0  0
 13 15  1  0  0  0  0
 13 12  1  0  0  0  0
 15 19  1  6  0  0  0
 15 17  1  0  0  0  0
 15 12  1  0  0  0  0
 16 11  2  0  0  0  0
 17 11  1  0  0  0  0
 18 16  1  0  0  0  0
 19 18  2  0  0  0  0
 20 23  1  0  0  0  0
 21 26  1  0  0  0  0
 22 21  1  0  0  0  0
 23 24  1  0  0  0  0
 23 25  1  0  0  0  0
 24 22  1  0  0  0  0
 25 26  1  0  0  0  0
 27  3  1  0  0  0  0
 27 28  1  0  0  0  0
 29 30  1  0  0  0  0
 30 31  2  0  0  0  0
 32 29  1  0  0  0  0
 32 28  1  0  0  0  0
 33 32  2  0  0  0  0
 34 30  1  0  0  0  0
 34 35  1  0  0  0  0
 36 37  1  1  0  0  0
 36 35  1  0  0  0  0
 38 36  1  6  0  0  0
 39 40  1  0  0  0  0
 39 38  1  0  0  0  0
 39 41  1  1  0  0  0
 40 38  1  0  0  0  0
M  END
>  <MODEL>
8

>  <REMARK>
 VINA RESULT:      -6.7      3.671      8.445
  Name = 
  11 active torsions:
  status: ('A' for Active; 'I' for Inactive)
    1  A    between atoms: N_3  and  C_4
    2  A    between atoms: N_3  and  C_22
    3  A    between atoms: C_6  and  C_14
    4  A    between atoms: C_6  and  N_15
    5  A    between atoms: C_7  and  C_30
    6  A    between atoms: C_7  and  C_31
    7  A    between atoms: C_8  and  C_13
    8  A    between atoms: C_8  and  C_20
    9  A    between atoms: C_10  and  C_31
   10  A    between atoms: O_16  and  C_20
   11  A    between atoms: O_16  and  C_27
                            x       y       z     vdW  Elec       q    Type
                         _______ _______ _______ _____ _____    ______ ____

>  <TORSDO>
F 11

$$$$
=
 OpenBabel11062422183D

 41 45  0  0  1  0  0  0  0  0999 V2000
  194.7800  172.4110  143.4890 C   0  0  0  0  0  0  0  0  0  0  0  0
  195.4830  171.5150  142.7480 F   0  0  0  0  0  0  0  0  0  0  0  0
  195.1510  173.7000  143.5260 C   0  0  0  0  0  0  0  0  0  0  0  0
  194.3460  174.7070  144.3030 C   0  0  2  0  0  3  0  0  0  0  0  0
  193.6100  174.0370  145.4720 C   0  0  2  0  0  3  0  0  0  0  0  0
  193.6890  171.9560  144.2440 O   0  0  0  0  0  0  0  0  0  0  0  0
  192.8190  172.8460  144.9450 C   0  0  0  0  0  2  0  0  0  0  0  0
  193.4460  175.3280  143.4520 F   0  0  0  0  0  0  0  0  0  0  0  0
  192.6810  175.0090  146.1820 C   0  0  0  0  0  2  0  0  0  0  0  0
  191.2230  176.2570  148.3050 O   0  0  0  0  0  1  0  0  0  0  0  0
  188.5720  176.5040  144.0050 C   0  0  0  0  0  0  0  0  0  0  0  0
  190.2480  175.5340  147.1240 P   0  0  1  0  0  0  0  0  0  0  0  0
  191.2870  174.6610  145.9070 N   0  0  0  0  0  0  0  0  0  0  0  0
  189.1970  174.5710  147.6250 O   0  0  0  0  0  0  0  0  0  0  0  0
  190.5340  175.7400  145.3750 C   0  0  1  0  0  0  0  0  0  0  0  0
  189.1560  177.7030  143.8780 C   0  0  0  0  0  3  0  0  0  0  0  0
  189.3530  175.3100  144.5100 C   0  0  0  0  0  2  0  0  0  0  0  0
  190.5450  177.9510  144.3160 C   0  0  0  0  0  3  0  0  0  0  0  0
  191.2200  177.0320  145.0060 C   0  0  0  0  0  3  0  0  0  0  0  0
  187.2140  176.3560  143.5730 N   0  0  0  0  0  2  0  0  0  0  0  0
  184.2340  178.5120  145.7190 C   0  0  0  0  0  2  0  0  0  0  0  0
  184.9050  177.3430  146.4550 C   0  0  0  0  0  2  0  0  0  0  0  0
  186.0520  176.9400  144.2360 C   0  0  0  0  0  3  0  0  0  0  0  0
  186.1630  176.8120  145.7570 C   0  0  0  0  0  2  0  0  0  0  0  0
  185.8230  178.3890  143.7730 C   0  0  0  0  0  2  0  0  0  0  0  0
  185.2310  179.2870  144.8640 C   0  0  0  0  0  2  0  0  0  0  0  0
  196.3210  174.1780  142.7280 C   0  0  0  0  0  2  0  0  0  0  0  0
  195.8600  174.6960  141.3780 C   0  0  0  0  0  2  0  0  0  0  0  0
  195.2220  172.8490  139.7250 N   0  0  0  0  0  2  0  0  0  0  0  0
  193.8020  172.9290  139.9200 C   0  0  0  0  0  0  0  0  0  0  0  0
  193.2900  173.9020  140.5340 O   0  0  0  0  0  0  0  0  0  0  0  0
  196.2070  173.7090  140.3130 C   0  0  0  0  0  0  0  0  0  0  0  0
  197.4090  173.5930  139.9600 O   0  0  0  0  0  0  0  0  0  0  0  0
  192.9630  171.9340  139.4140 O   0  0  0  0  0  0  0  0  0  0  0  0
  191.6350  171.7410  139.8870 C   0  0  0  0  0  2  0  0  0  0  0  0
  190.6250  171.9420  138.7660 C   0  0  2  0  0  3  0  0  0  0  0  0
  191.2450  171.6880  137.5430 O   0  0  0  0  0  1  0  0  0  0  0  0
  190.0990  173.3680  138.7820 C   0  0  1  0  0  3  0  0  0  0  0  0
  188.6040  173.3540  139.0340 C   0  0  1  0  0  3  0  0  0  0  0  0
  189.5580  173.6960  140.1580 C   0  0  0  0  0  2  0  0  0  0  0  0
  188.0460  174.5280  138.5290 O   0  0  0  0  0  1  0  0  0  0  0  0
  1  3  2  0  0  0  0
  1  6  1  0  0  0  0
  2  1  1  0  0  0  0
  3  4  1  0  0  0  0
  4  8  1  6  0  0  0
  4  5  1  0  0  0  0
  5  9  1  6  0  0  0
  6  7  1  0  0  0  0
  7  5  1  0  0  0  0
 11 17  1  0  0  0  0
 12 14  2  1  0  0  0
 12 10  1  0  0  0  0
 13  9  1  0  0  0  0
 13 12  1  0  0  0  0
 15 17  1  6  0  0  0
 15 13  1  0  0  0  0
 15 12  1  0  0  0  0
 16 11  2  0  0  0  0
 16 18  1  0  0  0  0
 18 19  2  0  0  0  0
 19 15  1  0  0  0  0
 20 11  1  0  0  0  0
 20 23  1  0  0  0  0
 21 22  1  0  0  0  0
 23 24  1  0  0  0  0
 24 22  1  0  0  0  0
 25 23  1  0  0  0  0
 25 26  1  0  0  0  0
 26 21  1  0  0  0  0
 27  3  1  0  0  0  0
 28 27  1  0  0  0  0
 29 30  1  0  0  0  0
 29 32  1  0  0  0  0
 30 31  2  0  0  0  0
 32 28  1  0  0  0  0
 33 32  2  0  0  0  0
 34 35  1  0  0  0  0
 34 30  1  0  0  0  0
 36 37  1  6  0  0  0
 36 35  1  0  0  0  0
 38 36  1  1  0  0  0
 38 39  1  0  0  0  0
 38 40  1  0  0  0  0
 39 41  1  6  0  0  0
 39 40  1  0  0  0  0
M  END
>  <MODEL>
9

>  <REMARK>
 VINA RESULT:      -6.6      3.595      9.225
  Name = 
  11 active torsions:
  status: ('A' for Active; 'I' for Inactive)
    1  A    between atoms: N_3  and  C_4
    2  A    between atoms: N_3  and  C_22
    3  A    between atoms: C_6  and  C_14
    4  A    between atoms: C_6  and  N_15
    5  A    between atoms: C_7  and  C_30
    6  A    between atoms: C_7  and  C_31
    7  A    between atoms: C_8  and  C_13
    8  A    between atoms: C_8  and  C_20
    9  A    between atoms: C_10  and  C_31
   10  A    between atoms: O_16  and  C_20
   11  A    between atoms: O_16  and  C_27
                            x       y       z     vdW  Elec       q    Type
                         _______ _______ _______ _____ _____    ______ ____

>  <TORSDO>
F 11

$$$$
