=
 OpenBabel11062421443D

 41 43  0  0  1  0  0  0  0  0999 V2000
  192.6920  175.1790  142.5300 C   0  0  0  0  0  0  0  0  0  0  0  0
  194.8300  175.9470  143.6290 C   0  0  0  0  0  2  0  0  0  0  0  0
  193.8190  175.3250  146.2860 C   0  0  0  0  0  2  0  0  0  0  0  0
  190.4030  174.3600  142.0160 C   0  0  1  0  0  3  0  0  0  0  0  0
  192.4740  174.6750  146.5640 C   0  0  0  0  0  2  0  0  0  0  0  0
  193.3660  176.0230  143.3140 C   0  0  0  0  0  3  0  0  0  0  0  0
  191.3120  175.3840  142.4070 O   0  0  0  0  0  0  0  0  0  0  0  0
  189.7890  173.7040  143.2660 C   0  0  2  0  0  3  0  0  0  0  0  0
  194.7470  174.2900  145.6660 C   0  0  2  0  0  3  0  0  0  0  0  0
  191.4050  175.3020  145.6870 C   0  0  1  0  0  3  0  0  0  0  0  0
  196.1220  174.8820  145.4480 C   0  0  2  0  0  3  0  0  0  0  0  0
  190.7570  173.5000  144.2570 O   0  0  0  0  0  0  0  0  0  0  0  0
  195.2400  174.6070  144.2480 C   0  0  2  0  0  3  0  0  0  0  0  0
  190.3320  174.2780  145.3380 C   0  0  0  0  0  2  0  0  0  0  0  0
  192.9460  172.8090  142.3110 O   0  0  0  0  0  1  0  0  0  0  0  0
  193.3930  174.0430  141.8290 C   0  0  1  0  0  3  0  0  0  0  0  0
  192.5370  173.1500  139.6660 O   0  0  0  0  0  0  0  0  0  0  0  0
  193.2470  174.1320  140.3430 C   0  0  0  0  0  0  0  0  0  0  0  0
  193.7810  175.0690  139.6990 O   0  0  0  0  0  1  0  0  0  0  0  0
  190.8280  176.5500  146.3570 C   0  0  2  0  0  3  0  0  0  0  0  0
  190.9780  176.5130  147.7450 O   0  0  0  0  0  1  0  0  0  0  0  0
  188.3520  176.2860  146.7600 C   0  0  0  0  0  3  0  0  0  0  0  0
  190.1160  178.1470  144.0930 O   0  0  0  0  0  1  0  0  0  0  0  0
  189.3980  176.7980  145.9800 C   0  0  0  0  0  0  0  0  0  0  0  0
  186.7270  177.3650  145.3210 C   0  0  0  0  0  3  0  0  0  0  0  0
  189.0980  177.6080  144.8720 C   0  0  0  0  0  0  0  0  0  0  0  0
  187.0210  176.5660  146.4310 C   0  0  0  0  0  3  0  0  0  0  0  0
  187.7670  177.8860  144.5470 C   0  0  0  0  0  3  0  0  0  0  0  0
  188.8270  173.9930  140.2400 O   0  0  0  0  0  1  0  0  0  0  0  0
  189.3100  174.9570  141.1280 C   0  0  1  0  0  3  0  0  0  0  0  0
  188.1600  175.4640  141.9770 C   0  0  0  0  0  2  0  0  0  0  0  0
  186.1710  176.7580  141.8680 O   0  0  0  0  0  1  0  0  0  0  0  0
  187.3960  176.5440  141.2380 C   0  0  0  0  0  2  0  0  0  0  0  0
  189.1140  172.3810  142.9350 C   0  0  0  0  0  2  0  0  0  0  0  0
  190.0410  171.3090  143.0370 O   0  0  0  0  0  0  0  0  0  0  0  0
  191.1800  169.3780  142.0510 N   0  0  0  0  0  1  0  0  0  0  0  0
  190.2490  171.0690  140.7670 O   0  0  0  0  0  0  0  0  0  0  0  0
  190.4810  170.6120  141.9160 C   0  0  0  0  0  0  0  0  0  0  0  0
  197.1630  173.7910  145.5660 C   0  0  0  0  0  2  0  0  0  0  0  0
  197.3280  171.4460  145.2370 O   0  0  0  0  0  1  0  0  0  0  0  0
  196.4780  172.4480  145.7020 C   0  0  0  0  0  2  0  0  0  0  0  0
  1  6  2  0  0  0  0
  3  5  1  0  0  0  0
  4 30  1  6  0  0  0
  4  7  1  0  0  0  0
  4  8  1  0  0  0  0
  6  2  1  0  0  0  0
  7  1  1  0  0  0  0
  8 34  1  6  0  0  0
  8 12  1  0  0  0  0
  9  3  1  1  0  0  0
 10 20  1  1  0  0  0
 10  5  1  0  0  0  0
 11 39  1  6  0  0  0
 11  9  1  0  0  0  0
 12 14  1  0  0  0  0
 13  2  1  1  0  0  0
 13 11  1  0  0  0  0
 13  9  1  0  0  0  0
 14 10  1  0  0  0  0
 16 15  1  1  0  0  0
 16  1  1  0  0  0  0
 17 18  2  0  0  0  0
 18 16  1  0  0  0  0
 19 18  1  0  0  0  0
 20 21  1  1  0  0  0
 23 26  1  0  0  0  0
 24 20  1  0  0  0  0
 24 22  2  0  0  0  0
 25 27  2  0  0  0  0
 26 24  1  0  0  0  0
 27 22  1  0  0  0  0
 28 26  2  0  0  0  0
 28 25  1  0  0  0  0
 30 29  1  6  0  0  0
 30 31  1  0  0  0  0
 33 32  1  0  0  0  0
 33 31  1  0  0  0  0
 34 35  1  0  0  0  0
 37 38  2  0  0  0  0
 38 36  1  0  0  0  0
 38 35  1  0  0  0  0
 39 41  1  0  0  0  0
 40 41  1  0  0  0  0
M  END
>  <MODEL>
1

>  <REMARK>
 VINA RESULT:      -6.7      0.000      0.000
  Name = 
  12 active torsions:
  status: ('A' for Active; 'I' for Inactive)
    1  A    between atoms: C_1  and  O_19
    2  A    between atoms: C_1  and  C_26
    3  A    between atoms: C_5  and  C_6
    4  A    between atoms: C_5  and  C_28
    5  A    between atoms: C_8  and  C_16
    6  A    between atoms: C_12  and  C_40
    7  A    between atoms: C_15  and  C_29
    8  A    between atoms: C_15  and  C_37
    9  A    between atoms: C_16  and  C_24
   10  A    between atoms: C_18  and  C_29
   11  A    between atoms: O_19  and  C_41
   12  A    between atoms: C_30  and  C_40
                            x       y       z     vdW  Elec       q    Type
                         _______ _______ _______ _____ _____    ______ ____

>  <TORSDO>
F 12

$$$$
=
 OpenBabel11062421443D

 41 43  0  0  1  0  0  0  0  0999 V2000
  191.3750  174.5940  143.0520 C   0  0  0  0  0  0  0  0  0  0  0  0
  192.8250  172.6600  142.3300 C   0  0  0  0  0  2  0  0  0  0  0  0
  194.2990  172.6800  144.8400 C   0  0  0  0  0  2  0  0  0  0  0  0
  190.3120  176.5000  144.2420 C   0  0  1  0  0  3  0  0  0  0  0  0
  193.9850  173.5930  146.0130 C   0  0  0  0  0  2  0  0  0  0  0  0
  192.5610  174.0850  142.7100 C   0  0  0  0  0  3  0  0  0  0  0  0
  191.3440  175.9410  143.4350 O   0  0  0  0  0  0  0  0  0  0  0  0
  190.7510  176.5060  145.7170 C   0  0  2  0  0  3  0  0  0  0  0  0
  193.1970  171.6370  144.7220 C   0  0  2  0  0  3  0  0  0  0  0  0
  193.7030  174.9990  145.5130 C   0  0  1  0  0  3  0  0  0  0  0  0
  193.5160  170.6600  143.6110 C   0  0  2  0  0  3  0  0  0  0  0  0
  191.3970  175.3120  146.0590 O   0  0  0  0  0  0  0  0  0  0  0  0
  192.3980  171.6620  143.4110 C   0  0  2  0  0  3  0  0  0  0  0  0
  192.6920  175.6940  146.4170 C   0  0  0  0  0  2  0  0  0  0  0  0
  189.6040  173.6200  144.3340 O   0  0  0  0  0  1  0  0  0  0  0  0
  190.1330  173.7400  143.0460 C   0  0  1  0  0  3  0  0  0  0  0  0
  189.4760  174.5190  140.7710 O   0  0  0  0  0  0  0  0  0  0  0  0
  189.1100  174.2540  142.0840 C   0  0  0  0  0  0  0  0  0  0  0  0
  187.9300  174.4740  142.4560 O   0  0  0  0  0  1  0  0  0  0  0  0
  195.0050  175.7890  145.3750 C   0  0  2  0  0  3  0  0  0  0  0  0
  194.8430  177.1300  145.7310 O   0  0  0  0  0  1  0  0  0  0  0  0
  195.0090  176.2780  142.9000 C   0  0  0  0  0  3  0  0  0  0  0  0
  197.4640  174.3950  144.9300 O   0  0  0  0  0  1  0  0  0  0  0  0
  195.6120  175.6670  144.0090 C   0  0  0  0  0  0  0  0  0  0  0  0
  196.8190  175.5220  141.4770 C   0  0  0  0  0  3  0  0  0  0  0  0
  196.8330  174.9920  143.8440 C   0  0  0  0  0  0  0  0  0  0  0  0
  195.6090  176.2030  141.6380 C   0  0  0  0  0  3  0  0  0  0  0  0
  197.4290  174.9210  142.5810 C   0  0  0  0  0  3  0  0  0  0  0  0
  191.1580  178.6990  143.7740 O   0  0  0  0  0  1  0  0  0  0  0  0
  190.0000  177.9190  143.7650 C   0  0  1  0  0  3  0  0  0  0  0  0
  189.4390  177.8890  142.3560 C   0  0  0  0  0  2  0  0  0  0  0  0
  187.4170  177.5360  141.1600 O   0  0  0  0  0  1  0  0  0  0  0  0
  187.9250  177.9490  142.3910 C   0  0  0  0  0  2  0  0  0  0  0  0
  189.5740  176.7330  146.6550 C   0  0  0  0  0  2  0  0  0  0  0  0
  188.3710  176.2560  146.0690 O   0  0  0  0  0  0  0  0  0  0  0  0
  187.0190  177.9090  147.2690 N   0  0  0  0  0  1  0  0  0  0  0  0
  186.1550  176.5780  145.5790 O   0  0  0  0  0  0  0  0  0  0  0  0
  187.1520  176.8930  146.2790 C   0  0  0  0  0  0  0  0  0  0  0  0
  192.9250  169.3080  143.9450 C   0  0  0  0  0  2  0  0  0  0  0  0
  195.2040  168.7890  144.3630 O   0  0  0  0  0  1  0  0  0  0  0  0
  193.9050  168.5210  144.7890 C   0  0  0  0  0  2  0  0  0  0  0  0
  1  7  1  0  0  0  0
  2  6  1  0  0  0  0
  3  5  1  0  0  0  0
  4 30  1  6  0  0  0
  4  8  1  0  0  0  0
  6  1  2  0  0  0  0
  7  4  1  0  0  0  0
  8 12  1  0  0  0  0
  8 34  1  1  0  0  0
  9  3  1  6  0  0  0
 10 20  1  1  0  0  0
 10  5  1  0  0  0  0
 10 14  1  0  0  0  0
 11 39  1  1  0  0  0
 11  9  1  0  0  0  0
 12 14  1  0  0  0  0
 13  2  1  6  0  0  0
 13 11  1  0  0  0  0
 13  9  1  0  0  0  0
 16  1  1  0  0  0  0
 16 15  1  1  0  0  0
 17 18  2  0  0  0  0
 18 19  1  0  0  0  0
 18 16  1  0  0  0  0
 20 21  1  6  0  0  0
 22 24  1  0  0  0  0
 24 20  1  0  0  0  0
 25 27  1  0  0  0  0
 25 28  2  0  0  0  0
 26 24  2  0  0  0  0
 26 23  1  0  0  0  0
 27 22  2  0  0  0  0
 28 26  1  0  0  0  0
 30 29  1  6  0  0  0
 31 33  1  0  0  0  0
 31 30  1  0  0  0  0
 32 33  1  0  0  0  0
 35 38  1  0  0  0  0
 35 34  1  0  0  0  0
 37 38  2  0  0  0  0
 38 36  1  0  0  0  0
 39 41  1  0  0  0  0
 40 41  1  0  0  0  0
M  END
>  <MODEL>
2

>  <REMARK>
 VINA RESULT:      -6.4      2.800      5.665
  Name = 
  12 active torsions:
  status: ('A' for Active; 'I' for Inactive)
    1  A    between atoms: C_1  and  O_19
    2  A    between atoms: C_1  and  C_26
    3  A    between atoms: C_5  and  C_6
    4  A    between atoms: C_5  and  C_28
    5  A    between atoms: C_8  and  C_16
    6  A    between atoms: C_12  and  C_40
    7  A    between atoms: C_15  and  C_29
    8  A    between atoms: C_15  and  C_37
    9  A    between atoms: C_16  and  C_24
   10  A    between atoms: C_18  and  C_29
   11  A    between atoms: O_19  and  C_41
   12  A    between atoms: C_30  and  C_40
                            x       y       z     vdW  Elec       q    Type
                         _______ _______ _______ _____ _____    ______ ____

>  <TORSDO>
F 12

$$$$
=
 OpenBabel11062421443D

 41 43  0  0  1  0  0  0  0  0999 V2000
  189.7850  175.6440  145.1970 C   0  0  0  0  0  0  0  0  0  0  0  0
  191.7170  174.0950  145.6830 C   0  0  0  0  0  2  0  0  0  0  0  0
  191.9880  173.3700  142.8770 C   0  0  0  0  0  2  0  0  0  0  0  0
  187.9420  176.9500  144.1620 C   0  0  1  0  0  3  0  0  0  0  0  0
  191.1670  173.9740  141.7500 C   0  0  0  0  0  2  0  0  0  0  0  0
  190.3200  174.4220  145.2510 C   0  0  0  0  0  3  0  0  0  0  0  0
  188.4770  175.7490  144.7080 O   0  0  0  0  0  0  0  0  0  0  0  0
  188.0860  176.9350  142.6290 C   0  0  2  0  0  3  0  0  0  0  0  0
  192.9630  174.4200  143.3910 C   0  0  2  0  0  3  0  0  0  0  0  0
  189.7110  174.0760  142.1680 C   0  0  1  0  0  3  0  0  0  0  0  0
  193.8520  173.8290  144.4630 C   0  0  2  0  0  3  0  0  0  0  0  0
  189.3360  176.4350  142.2430 O   0  0  0  0  0  0  0  0  0  0  0  0
  192.7830  174.8270  144.8610 C   0  0  2  0  0  3  0  0  0  0  0  0
  189.0490  175.2800  141.5100 C   0  0  0  0  0  2  0  0  0  0  0  0
  190.3380  177.9320  144.7650 O   0  0  0  0  0  1  0  0  0  0  0  0
  190.5740  176.8550  145.6240 C   0  0  1  0  0  3  0  0  0  0  0  0
  191.1660  176.8000  148.0450 O   0  0  0  0  0  1  0  0  0  0  0  0
  190.2990  177.2250  147.0470 C   0  0  0  0  0  0  0  0  0  0  0  0
  189.2790  177.8910  147.3530 O   0  0  0  0  0  0  0  0  0  0  0  0
  188.9770  172.7680  141.8690 C   0  0  2  0  0  3  0  0  0  0  0  0
  188.8740  171.9560  143.0000 O   0  0  0  0  0  1  0  0  0  0  0  0
  190.5650  171.0380  140.9480 C   0  0  0  0  0  3  0  0  0  0  0  0
  188.1350  173.1860  139.1660 O   0  0  0  0  0  1  0  0  0  0  0  0
  189.5840  172.0140  140.7230 C   0  0  0  0  0  0  0  0  0  0  0  0
  190.6320  170.5360  138.5780 C   0  0  0  0  0  3  0  0  0  0  0  0
  189.1220  172.2380  139.4160 C   0  0  0  0  0  0  0  0  0  0  0  0
  191.0890  170.3020  139.8780 C   0  0  0  0  0  3  0  0  0  0  0  0
  189.6480  171.5000  138.3510 C   0  0  0  0  0  3  0  0  0  0  0  0
  185.6780  176.2380  143.7910 O   0  0  0  0  0  1  0  0  0  0  0  0
  186.4730  177.0870  144.5640 C   0  0  1  0  0  3  0  0  0  0  0  0
  186.2940  176.7310  146.0280 C   0  0  0  0  0  2  0  0  0  0  0  0
  184.6310  178.4250  146.1310 O   0  0  0  0  0  1  0  0  0  0  0  0
  184.9010  177.1060  146.4940 C   0  0  0  0  0  2  0  0  0  0  0  0
  187.8850  178.3190  142.0290 C   0  0  0  0  0  2  0  0  0  0  0  0
  186.5150  178.5350  141.7220 O   0  0  0  0  0  0  0  0  0  0  0  0
  184.5260  178.0770  140.3680 N   0  0  0  0  0  1  0  0  0  0  0  0
  186.6680  177.5390  139.6630 O   0  0  0  0  0  0  0  0  0  0  0  0
  185.9370  178.0310  140.5610 C   0  0  0  0  0  0  0  0  0  0  0  0
  195.1980  174.5200  144.4360 C   0  0  0  0  0  2  0  0  0  0  0  0
  195.7690  176.8000  144.1070 O   0  0  0  0  0  1  0  0  0  0  0  0
  195.1380  175.7130  143.5060 C   0  0  0  0  0  2  0  0  0  0  0  0
  1  6  2  0  0  0  0
  1 16  1  0  0  0  0
  4 30  1  6  0  0  0
  4  7  1  0  0  0  0
  5 10  1  0  0  0  0
  5  3  1  0  0  0  0
  6  2  1  0  0  0  0
  7  1  1  0  0  0  0
  8 34  1  1  0  0  0
  8  4  1  0  0  0  0
  9  3  1  1  0  0  0
  9 11  1  0  0  0  0
  9 13  1  0  0  0  0
 10 20  1  6  0  0  0
 11 39  1  6  0  0  0
 11 13  1  0  0  0  0
 12  8  1  0  0  0  0
 13  2  1  1  0  0  0
 14 10  1  0  0  0  0
 14 12  1  0  0  0  0
 16 15  1  6  0  0  0
 16 18  1  0  0  0  0
 18 19  2  0  0  0  0
 18 17  1  0  0  0  0
 20 21  1  1  0  0  0
 23 26  1  0  0  0  0
 24 22  1  0  0  0  0
 24 20  1  0  0  0  0
 25 27  1  0  0  0  0
 26 24  2  0  0  0  0
 27 22  2  0  0  0  0
 28 25  2  0  0  0  0
 28 26  1  0  0  0  0
 30 29  1  6  0  0  0
 30 31  1  0  0  0  0
 31 33  1  0  0  0  0
 32 33  1  0  0  0  0
 35 34  1  0  0  0  0
 36 38  1  0  0  0  0
 37 38  2  0  0  0  0
 38 35  1  0  0  0  0
 41 40  1  0  0  0  0
 41 39  1  0  0  0  0
M  END
>  <MODEL>
3

>  <REMARK>
 VINA RESULT:      -6.4      2.724      6.367
  Name = 
  12 active torsions:
  status: ('A' for Active; 'I' for Inactive)
    1  A    between atoms: C_1  and  O_19
    2  A    between atoms: C_1  and  C_26
    3  A    between atoms: C_5  and  C_6
    4  A    between atoms: C_5  and  C_28
    5  A    between atoms: C_8  and  C_16
    6  A    between atoms: C_12  and  C_40
    7  A    between atoms: C_15  and  C_29
    8  A    between atoms: C_15  and  C_37
    9  A    between atoms: C_16  and  C_24
   10  A    between atoms: C_18  and  C_29
   11  A    between atoms: O_19  and  C_41
   12  A    between atoms: C_30  and  C_40
                            x       y       z     vdW  Elec       q    Type
                         _______ _______ _______ _____ _____    ______ ____

>  <TORSDO>
F 12

$$$$
=
 OpenBabel11062421443D

 41 43  0  0  1  0  0  0  0  0999 V2000
  190.3700  174.5890  143.3220 C   0  0  0  0  0  0  0  0  0  0  0  0
  188.0290  174.7660  142.3980 C   0  0  0  0  0  2  0  0  0  0  0  0
  187.4940  177.1940  143.9110 C   0  0  0  0  0  2  0  0  0  0  0  0
  192.5020  174.8840  144.5630 C   0  0  1  0  0  3  0  0  0  0  0  0
  188.5170  177.9080  144.7800 C   0  0  0  0  0  2  0  0  0  0  0  0
  189.0450  174.5600  143.4800 C   0  0  0  0  0  3  0  0  0  0  0  0
  191.1550  174.4320  144.4710 O   0  0  0  0  0  0  0  0  0  0  0  0
  192.5400  176.2780  145.2140 C   0  0  2  0  0  3  0  0  0  0  0  0
  187.8700  177.3890  142.4490 C   0  0  2  0  0  3  0  0  0  0  0  0
  189.3000  176.8950  145.5960 C   0  0  1  0  0  3  0  0  0  0  0  0
  186.8290  176.7560  141.5520 C   0  0  2  0  0  3  0  0  0  0  0  0
  191.5150  177.0950  144.7210 O   0  0  0  0  0  0  0  0  0  0  0  0
  188.1920  176.1050  141.6710 C   0  0  2  0  0  3  0  0  0  0  0  0
  190.7220  177.3860  145.8340 C   0  0  0  0  0  2  0  0  0  0  0  0
  191.9750  175.7900  142.0140 O   0  0  0  0  0  1  0  0  0  0  0  0
  190.9850  174.8040  141.9620 C   0  0  1  0  0  3  0  0  0  0  0  0
  192.8750  173.4050  141.1360 O   0  0  0  0  0  1  0  0  0  0  0  0
  191.5150  173.5310  141.3830 C   0  0  0  0  0  0  0  0  0  0  0  0
  190.7410  172.5840  141.0930 O   0  0  0  0  0  0  0  0  0  0  0  0
  188.5650  176.5750  146.8980 C   0  0  2  0  0  3  0  0  0  0  0  0
  188.5050  175.2010  147.1400 O   0  0  0  0  0  1  0  0  0  0  0  0
  186.0980  176.5410  146.3720 C   0  0  0  0  0  3  0  0  0  0  0  0
  188.0670  179.0420  148.2590 O   0  0  0  0  0  1  0  0  0  0  0  0
  187.1970  177.1880  146.9540 C   0  0  0  0  0  0  0  0  0  0  0  0
  184.6250  178.2960  147.1630 C   0  0  0  0  0  3  0  0  0  0  0  0
  186.9980  178.3900  147.6540 C   0  0  0  0  0  0  0  0  0  0  0  0
  184.8160  177.0950  146.4740 C   0  0  0  0  0  3  0  0  0  0  0  0
  185.7160  178.9390  147.7540 C   0  0  0  0  0  3  0  0  0  0  0  0
  192.9960  173.9820  146.7350 O   0  0  0  0  0  1  0  0  0  0  0  0
  193.3230  173.8850  145.3800 C   0  0  1  0  0  3  0  0  0  0  0  0
  193.0500  172.4690  144.9090 C   0  0  0  0  0  2  0  0  0  0  0  0
  195.3820  172.1950  145.2650 O   0  0  0  0  0  1  0  0  0  0  0  0
  194.1560  171.5390  145.3650 C   0  0  0  0  0  2  0  0  0  0  0  0
  193.8820  176.9640  145.0010 C   0  0  0  0  0  2  0  0  0  0  0  0
  194.5680  176.3860  143.8980 O   0  0  0  0  0  0  0  0  0  0  0  0
  196.8060  177.0180  143.1320 N   0  0  0  0  0  1  0  0  0  0  0  0
  196.4420  175.2890  144.6320 O   0  0  0  0  0  0  0  0  0  0  0  0
  195.9460  176.1940  143.9120 C   0  0  0  0  0  0  0  0  0  0  0  0
  186.7520  177.5260  140.2520 C   0  0  0  0  0  2  0  0  0  0  0  0
  184.7340  178.1090  141.3570 O   0  0  0  0  0  1  0  0  0  0  0  0
  185.3980  178.1920  140.1350 C   0  0  0  0  0  2  0  0  0  0  0  0
  1  6  2  0  0  0  0
  1  7  1  0  0  0  0
  2  6  1  0  0  0  0
  3  5  1  0  0  0  0
  4  8  1  0  0  0  0
  4 30  1  1  0  0  0
  5 10  1  0  0  0  0
  7  4  1  0  0  0  0
  8 34  1  6  0  0  0
  9  3  1  1  0  0  0
 10 14  1  0  0  0  0
 10 20  1  1  0  0  0
 11 39  1  6  0  0  0
 11 13  1  0  0  0  0
 11  9  1  0  0  0  0
 12  8  1  0  0  0  0
 12 14  1  0  0  0  0
 13  2  1  1  0  0  0
 13  9  1  0  0  0  0
 16 15  1  1  0  0  0
 16  1  1  0  0  0  0
 17 18  1  0  0  0  0
 18 16  1  0  0  0  0
 19 18  2  0  0  0  0
 20 24  1  0  0  0  0
 20 21  1  6  0  0  0
 22 27  2  0  0  0  0
 22 24  1  0  0  0  0
 24 26  2  0  0  0  0
 25 28  2  0  0  0  0
 26 28  1  0  0  0  0
 26 23  1  0  0  0  0
 27 25  1  0  0  0  0
 30 29  1  1  0  0  0
 31 33  1  0  0  0  0
 31 30  1  0  0  0  0
 32 33  1  0  0  0  0
 35 38  1  0  0  0  0
 35 34  1  0  0  0  0
 36 38  1  0  0  0  0
 38 37  2  0  0  0  0
 41 39  1  0  0  0  0
 41 40  1  0  0  0  0
M  END
>  <MODEL>
4

>  <REMARK>
 VINA RESULT:      -6.3      2.475      6.625
  Name = 
  12 active torsions:
  status: ('A' for Active; 'I' for Inactive)
    1  A    between atoms: C_1  and  O_19
    2  A    between atoms: C_1  and  C_26
    3  A    between atoms: C_5  and  C_6
    4  A    between atoms: C_5  and  C_28
    5  A    between atoms: C_8  and  C_16
    6  A    between atoms: C_12  and  C_40
    7  A    between atoms: C_15  and  C_29
    8  A    between atoms: C_15  and  C_37
    9  A    between atoms: C_16  and  C_24
   10  A    between atoms: C_18  and  C_29
   11  A    between atoms: O_19  and  C_41
   12  A    between atoms: C_30  and  C_40
                            x       y       z     vdW  Elec       q    Type
                         _______ _______ _______ _____ _____    ______ ____

>  <TORSDO>
F 12

$$$$
=
 OpenBabel11062421443D

 41 43  0  0  1  0  0  0  0  0999 V2000
  193.1390  174.6990  142.8710 C   0  0  0  0  0  0  0  0  0  0  0  0
  191.1280  176.2060  143.0990 C   0  0  0  0  0  2  0  0  0  0  0  0
  189.5390  174.0900  144.3110 C   0  0  0  0  0  2  0  0  0  0  0  0
  194.7380  172.7970  142.8490 C   0  0  1  0  0  3  0  0  0  0  0  0
  190.0660  172.7060  144.6490 C   0  0  0  0  0  2  0  0  0  0  0  0
  191.8890  175.0380  142.5480 C   0  0  0  0  0  3  0  0  0  0  0  0
  193.6560  173.5340  142.2900 O   0  0  0  0  0  0  0  0  0  0  0  0
  194.1930  171.6450  143.7120 C   0  0  2  0  0  3  0  0  0  0  0  0
  190.1520  175.0970  145.2730 C   0  0  2  0  0  3  0  0  0  0  0  0
  190.9230  172.1850  143.5080 C   0  0  1  0  0  3  0  0  0  0  0  0
  189.5880  176.4780  145.0150 C   0  0  2  0  0  3  0  0  0  0  0  0
  193.1010  172.0630  144.4840 O   0  0  0  0  0  0  0  0  0  0  0  0
  191.0230  176.1840  144.6280 C   0  0  2  0  0  3  0  0  0  0  0  0
  192.0300  171.2830  144.0400 C   0  0  0  0  0  2  0  0  0  0  0  0
  194.1360  174.8440  145.0420 O   0  0  0  0  0  1  0  0  0  0  0  0
  193.9430  175.5290  143.8380 C   0  0  1  0  0  3  0  0  0  0  0  0
  195.2660  176.5290  141.9780 O   0  0  0  0  0  0  0  0  0  0  0  0
  195.2450  175.9670  143.2470 C   0  0  0  0  0  0  0  0  0  0  0  0
  196.3230  175.8080  143.8740 O   0  0  0  0  0  1  0  0  0  0  0  0
  190.0530  171.4890  142.4610 C   0  0  2  0  0  3  0  0  0  0  0  0
  190.4920  170.1890  142.1980 O   0  0  0  0  0  1  0  0  0  0  0  0
  191.0030  172.3570  140.2920 C   0  0  0  0  0  3  0  0  0  0  0  0
  187.6260  172.8170  141.7320 O   0  0  0  0  0  1  0  0  0  0  0  0
  189.9320  172.2790  141.1920 C   0  0  0  0  0  0  0  0  0  0  0  0
  189.6520  173.6740  138.7710 C   0  0  0  0  0  3  0  0  0  0  0  0
  188.7120  172.8960  140.8670 C   0  0  0  0  0  0  0  0  0  0  0  0
  190.8650  173.0540  139.0860 C   0  0  0  0  0  3  0  0  0  0  0  0
  188.5780  173.5900  139.6610 C   0  0  0  0  0  3  0  0  0  0  0  0
  194.9010  171.3790  140.9160 O   0  0  0  0  0  1  0  0  0  0  0  0
  195.6250  172.2570  141.7270 C   0  0  1  0  0  3  0  0  0  0  0  0
  196.1460  173.3980  140.8730 C   0  0  0  0  0  2  0  0  0  0  0  0
  197.9410  174.9400  140.6670 O   0  0  0  0  0  1  0  0  0  0  0  0
  197.5760  173.7280  141.2510 C   0  0  0  0  0  2  0  0  0  0  0  0
  195.2660  171.0650  144.6230 C   0  0  0  0  0  2  0  0  0  0  0  0
  195.6110  171.9940  145.6410 O   0  0  0  0  0  0  0  0  0  0  0  0
  197.8440  172.3230  144.6910 N   0  0  0  0  0  1  0  0  0  0  0  0
  197.0990  173.4780  146.5570 O   0  0  0  0  0  0  0  0  0  0  0  0
  196.8520  172.6230  145.6680 C   0  0  0  0  0  0  0  0  0  0  0  0
  189.5680  177.2620  146.3090 C   0  0  0  0  0  2  0  0  0  0  0  0
  187.2810  176.7780  145.8950 O   0  0  0  0  0  1  0  0  0  0  0  0
  188.1440  177.3790  146.8090 C   0  0  0  0  0  2  0  0  0  0  0  0
  1 16  1  0  0  0  0
  3  5  1  0  0  0  0
  4 30  1  6  0  0  0
  4  8  1  0  0  0  0
  6  1  2  0  0  0  0
  6  2  1  0  0  0  0
  7  4  1  0  0  0  0
  7  1  1  0  0  0  0
  8 12  1  0  0  0  0
  8 34  1  1  0  0  0
  9  3  1  6  0  0  0
 10 20  1  6  0  0  0
 10 14  1  0  0  0  0
 10  5  1  0  0  0  0
 11  9  1  0  0  0  0
 11 39  1  1  0  0  0
 13  2  1  6  0  0  0
 13 11  1  0  0  0  0
 13  9  1  0  0  0  0
 14 12  1  0  0  0  0
 16 15  1  1  0  0  0
 17 18  2  0  0  0  0
 18 16  1  0  0  0  0
 18 19  1  0  0  0  0
 20 21  1  6  0  0  0
 22 24  1  0  0  0  0
 24 20  1  0  0  0  0
 25 27  1  0  0  0  0
 25 28  2  0  0  0  0
 26 24  2  0  0  0  0
 26 23  1  0  0  0  0
 27 22  2  0  0  0  0
 28 26  1  0  0  0  0
 30 29  1  6  0  0  0
 31 33  1  0  0  0  0
 31 30  1  0  0  0  0
 32 33  1  0  0  0  0
 34 35  1  0  0  0  0
 35 38  1  0  0  0  0
 36 38  1  0  0  0  0
 38 37  2  0  0  0  0
 39 41  1  0  0  0  0
 40 41  1  0  0  0  0
M  END
>  <MODEL>
5

>  <REMARK>
 VINA RESULT:      -6.2      2.616      6.630
  Name = 
  12 active torsions:
  status: ('A' for Active; 'I' for Inactive)
    1  A    between atoms: C_1  and  O_19
    2  A    between atoms: C_1  and  C_26
    3  A    between atoms: C_5  and  C_6
    4  A    between atoms: C_5  and  C_28
    5  A    between atoms: C_8  and  C_16
    6  A    between atoms: C_12  and  C_40
    7  A    between atoms: C_15  and  C_29
    8  A    between atoms: C_15  and  C_37
    9  A    between atoms: C_16  and  C_24
   10  A    between atoms: C_18  and  C_29
   11  A    between atoms: O_19  and  C_41
   12  A    between atoms: C_30  and  C_40
                            x       y       z     vdW  Elec       q    Type
                         _______ _______ _______ _____ _____    ______ ____

>  <TORSDO>
F 12

$$$$
=
 OpenBabel11062421443D

 41 43  0  0  1  0  0  0  0  0999 V2000
  190.1550  173.8870  142.6310 C   0  0  0  0  0  0  0  0  0  0  0  0
  187.8970  175.0090  142.7080 C   0  0  0  0  0  2  0  0  0  0  0  0
  189.0900  177.6360  143.0950 C   0  0  0  0  0  2  0  0  0  0  0  0
  192.5770  173.3330  142.6890 C   0  0  1  0  0  3  0  0  0  0  0  0
  190.5840  177.9090  143.0970 C   0  0  0  0  0  2  0  0  0  0  0  0
  189.2040  174.5570  143.2850 C   0  0  0  0  0  3  0  0  0  0  0  0
  191.3360  173.6060  143.3300 O   0  0  0  0  0  0  0  0  0  0  0  0
  193.4110  174.6240  142.5990 C   0  0  2  0  0  3  0  0  0  0  0  0
  188.6530  177.3050  141.6750 C   0  0  2  0  0  3  0  0  0  0  0  0
  191.3050  176.8390  143.8970 C   0  0  1  0  0  3  0  0  0  0  0  0
  187.1540  177.1030  141.6220 C   0  0  2  0  0  3  0  0  0  0  0  0
  192.6140  175.7180  142.2410 O   0  0  0  0  0  0  0  0  0  0  0  0
  188.0640  175.9010  141.4740 C   0  0  2  0  0  3  0  0  0  0  0  0
  192.6970  176.5930  143.3280 C   0  0  0  0  0  2  0  0  0  0  0  0
  190.8560  174.1570  140.3590 O   0  0  0  0  0  1  0  0  0  0  0  0
  189.9660  173.4750  141.1940 C   0  0  1  0  0  3  0  0  0  0  0  0
  190.6020  171.4830  139.8380 O   0  0  0  0  0  0  0  0  0  0  0  0
  190.0820  171.9940  141.0190 C   0  0  0  0  0  0  0  0  0  0  0  0
  189.6900  171.2080  141.9170 O   0  0  0  0  0  1  0  0  0  0  0  0
  191.3370  177.2110  145.3800 C   0  0  2  0  0  3  0  0  0  0  0  0
  192.5800  176.9460  145.9590 O   0  0  0  0  0  1  0  0  0  0  0  0
  189.0410  177.2490  146.4260 C   0  0  0  0  0  3  0  0  0  0  0  0
  191.5310  174.5130  146.3140 O   0  0  0  0  0  1  0  0  0  0  0  0
  190.2340  176.5610  146.1620 C   0  0  0  0  0  0  0  0  0  0  0  0
  188.1380  175.2910  147.5330 C   0  0  0  0  0  3  0  0  0  0  0  0
  190.3670  175.2260  146.5800 C   0  0  0  0  0  0  0  0  0  0  0  0
  187.9970  176.6160  147.1110 C   0  0  0  0  0  3  0  0  0  0  0  0
  189.3210  174.5990  147.2640 C   0  0  0  0  0  3  0  0  0  0  0  0
  193.9910  172.8220  144.5630 O   0  0  0  0  0  1  0  0  0  0  0  0
  193.3320  172.2560  143.4690 C   0  0  1  0  0  3  0  0  0  0  0  0
  192.3690  171.1970  143.9700 C   0  0  0  0  0  2  0  0  0  0  0  0
  194.0230  169.8970  142.8670 O   0  0  0  0  0  1  0  0  0  0  0  0
  192.7380  169.8400  143.4040 C   0  0  0  0  0  2  0  0  0  0  0  0
  194.5590  174.4860  141.6090 C   0  0  0  0  0  2  0  0  0  0  0  0
  195.8040  174.4390  142.2930 O   0  0  0  0  0  0  0  0  0  0  0  0
  196.4370  176.7900  142.5610 N   0  0  0  0  0  1  0  0  0  0  0  0
  196.4400  175.2870  144.3260 O   0  0  0  0  0  0  0  0  0  0  0  0
  196.2360  175.4870  143.1010 C   0  0  0  0  0  0  0  0  0  0  0  0
  186.6400  177.5150  140.2600 C   0  0  0  0  0  2  0  0  0  0  0  0
  184.7830  177.9430  141.6750 O   0  0  0  0  0  1  0  0  0  0  0  0
  185.3030  178.2090  140.4100 C   0  0  0  0  0  2  0  0  0  0  0  0
  1  6  2  0  0  0  0
  1  7  1  0  0  0  0
  2  6  1  0  0  0  0
  3  5  1  0  0  0  0
  4  7  1  0  0  0  0
  4 30  1  1  0  0  0
  5 10  1  0  0  0  0
  8 34  1  6  0  0  0
  8  4  1  0  0  0  0
  9  3  1  1  0  0  0
 10 20  1  1  0  0  0
 11 39  1  6  0  0  0
 11  9  1  0  0  0  0
 12  8  1  0  0  0  0
 12 14  1  0  0  0  0
 13 11  1  0  0  0  0
 13  9  1  0  0  0  0
 13  2  1  1  0  0  0
 14 10  1  0  0  0  0
 16 15  1  6  0  0  0
 16  1  1  0  0  0  0
 17 18  2  0  0  0  0
 18 16  1  0  0  0  0
 18 19  1  0  0  0  0
 20 21  1  1  0  0  0
 20 24  1  0  0  0  0
 22 27  1  0  0  0  0
 23 26  1  0  0  0  0
 24 22  2  0  0  0  0
 24 26  1  0  0  0  0
 26 28  2  0  0  0  0
 27 25  2  0  0  0  0
 28 25  1  0  0  0  0
 30 31  1  0  0  0  0
 30 29  1  1  0  0  0
 32 33  1  0  0  0  0
 33 31  1  0  0  0  0
 34 35  1  0  0  0  0
 35 38  1  0  0  0  0
 36 38  1  0  0  0  0
 38 37  2  0  0  0  0
 39 41  1  0  0  0  0
 41 40  1  0  0  0  0
M  END
>  <MODEL>
6

>  <REMARK>
 VINA RESULT:      -6.2      2.424      6.477
  Name = 
  12 active torsions:
  status: ('A' for Active; 'I' for Inactive)
    1  A    between atoms: C_1  and  O_19
    2  A    between atoms: C_1  and  C_26
    3  A    between atoms: C_5  and  C_6
    4  A    between atoms: C_5  and  C_28
    5  A    between atoms: C_8  and  C_16
    6  A    between atoms: C_12  and  C_40
    7  A    between atoms: C_15  and  C_29
    8  A    between atoms: C_15  and  C_37
    9  A    between atoms: C_16  and  C_24
   10  A    between atoms: C_18  and  C_29
   11  A    between atoms: O_19  and  C_41
   12  A    between atoms: C_30  and  C_40
                            x       y       z     vdW  Elec       q    Type
                         _______ _______ _______ _____ _____    ______ ____

>  <TORSDO>
F 12

$$$$
=
 OpenBabel11062421443D

 41 43  0  0  1  0  0  0  0  0999 V2000
  190.6960  173.8490  143.3610 C   0  0  0  0  0  0  0  0  0  0  0  0
  189.2190  174.9200  145.1040 C   0  0  0  0  0  2  0  0  0  0  0  0
  190.8630  177.3200  145.1850 C   0  0  0  0  0  2  0  0  0  0  0  0
  192.4870  173.2840  141.7330 C   0  0  1  0  0  3  0  0  0  0  0  0
  192.0630  177.5710  144.2860 C   0  0  0  0  0  2  0  0  0  0  0  0
  190.4920  174.3130  144.5950 C   0  0  0  0  0  3  0  0  0  0  0  0
  191.9780  173.3730  143.0600 O   0  0  0  0  0  0  0  0  0  0  0  0
  193.3140  174.5420  141.4070 C   0  0  2  0  0  3  0  0  0  0  0  0
  189.5950  177.4080  144.3470 C   0  0  2  0  0  3  0  0  0  0  0  0
  192.9070  176.3120  144.1870 C   0  0  1  0  0  3  0  0  0  0  0  0
  188.3750  177.2410  145.2250 C   0  0  2  0  0  3  0  0  0  0  0  0
  192.6870  175.6980  141.8870 O   0  0  0  0  0  0  0  0  0  0  0  0
  188.7580  176.1240  144.2770 C   0  0  2  0  0  3  0  0  0  0  0  0
  193.5800  176.2280  142.8220 C   0  0  0  0  0  2  0  0  0  0  0  0
  190.1050  174.1000  141.0550 O   0  0  0  0  0  1  0  0  0  0  0  0
  189.5920  173.8630  142.3340 C   0  0  1  0  0  3  0  0  0  0  0  0
  187.4410  172.6460  142.0130 O   0  0  0  0  0  0  0  0  0  0  0  0
  188.7820  172.6070  142.3710 C   0  0  0  0  0  0  0  0  0  0  0  0
  189.2930  171.5220  142.7480 O   0  0  0  0  0  1  0  0  0  0  0  0
  193.9090  176.2490  145.3390 C   0  0  2  0  0  3  0  0  0  0  0  0
  194.5020  177.4900  145.5850 O   0  0  0  0  0  1  0  0  0  0  0  0
  196.2140  175.5140  144.6250 C   0  0  0  0  0  3  0  0  0  0  0  0
  193.4510  173.5200  146.0680 O   0  0  0  0  0  1  0  0  0  0  0  0
  194.9520  175.1890  145.1400 C   0  0  0  0  0  0  0  0  0  0  0  0
  196.9280  173.2110  144.8760 C   0  0  0  0  0  3  0  0  0  0  0  0
  194.6880  173.8670  145.5350 C   0  0  0  0  0  0  0  0  0  0  0  0
  197.1990  174.5270  144.4910 C   0  0  0  0  0  3  0  0  0  0  0  0
  195.6740  172.8850  145.4000 C   0  0  0  0  0  3  0  0  0  0  0  0
  194.6270  172.2540  142.0940 O   0  0  0  0  0  1  0  0  0  0  0  0
  193.3430  172.0250  141.5950 C   0  0  1  0  0  3  0  0  0  0  0  0
  192.7160  170.8760  142.3610 C   0  0  0  0  0  2  0  0  0  0  0  0
  193.1540  170.3880  144.6450 O   0  0  0  0  0  1  0  0  0  0  0  0
  193.7020  170.3120  143.3650 C   0  0  0  0  0  2  0  0  0  0  0  0
  193.5620  174.6820  139.9120 C   0  0  0  0  0  2  0  0  0  0  0  0
  194.7000  175.4990  139.6710 O   0  0  0  0  0  0  0  0  0  0  0  0
  196.7110  176.0430  140.9590 N   0  0  0  0  0  1  0  0  0  0  0  0
  196.4500  174.0280  139.8440 O   0  0  0  0  0  0  0  0  0  0  0  0
  195.9640  175.1500  140.1380 C   0  0  0  0  0  0  0  0  0  0  0  0
  187.2220  178.0250  144.6380 C   0  0  0  0  0  2  0  0  0  0  0  0
  185.4060  177.1660  143.3720 O   0  0  0  0  0  1  0  0  0  0  0  0
  185.9710  177.1720  144.6460 C   0  0  0  0  0  2  0  0  0  0  0  0
  1  6  2  0  0  0  0
  4 30  1  1  0  0  0
  4  7  1  0  0  0  0
  5  3  1  0  0  0  0
  6  2  1  0  0  0  0
  7  1  1  0  0  0  0
  8 34  1  6  0  0  0
  8  4  1  0  0  0  0
  8 12  1  0  0  0  0
  9  3  1  1  0  0  0
  9 11  1  0  0  0  0
 10  5  1  0  0  0  0
 10 20  1  1  0  0  0
 11 39  1  6  0  0  0
 12 14  1  0  0  0  0
 13  9  1  0  0  0  0
 13  2  1  1  0  0  0
 13 11  1  0  0  0  0
 14 10  1  0  0  0  0
 16 15  1  6  0  0  0
 16 18  1  0  0  0  0
 16  1  1  0  0  0  0
 17 18  2  0  0  0  0
 18 19  1  0  0  0  0
 20 21  1  6  0  0  0
 22 24  1  0  0  0  0
 24 20  1  0  0  0  0
 24 26  2  0  0  0  0
 25 28  2  0  0  0  0
 26 23  1  0  0  0  0
 27 22  2  0  0  0  0
 27 25  1  0  0  0  0
 28 26  1  0  0  0  0
 30 29  1  1  0  0  0
 30 31  1  0  0  0  0
 31 33  1  0  0  0  0
 33 32  1  0  0  0  0
 35 34  1  0  0  0  0
 35 38  1  0  0  0  0
 37 38  2  0  0  0  0
 38 36  1  0  0  0  0
 39 41  1  0  0  0  0
 40 41  1  0  0  0  0
M  END
>  <MODEL>
7

>  <REMARK>
 VINA RESULT:      -6.1      2.304      6.872
  Name = 
  12 active torsions:
  status: ('A' for Active; 'I' for Inactive)
    1  A    between atoms: C_1  and  O_19
    2  A    between atoms: C_1  and  C_26
    3  A    between atoms: C_5  and  C_6
    4  A    between atoms: C_5  and  C_28
    5  A    between atoms: C_8  and  C_16
    6  A    between atoms: C_12  and  C_40
    7  A    between atoms: C_15  and  C_29
    8  A    between atoms: C_15  and  C_37
    9  A    between atoms: C_16  and  C_24
   10  A    between atoms: C_18  and  C_29
   11  A    between atoms: O_19  and  C_41
   12  A    between atoms: C_30  and  C_40
                            x       y       z     vdW  Elec       q    Type
                         _______ _______ _______ _____ _____    ______ ____

>  <TORSDO>
F 12

$$$$
=
 OpenBabel11062421443D

 41 43  0  0  1  0  0  0  0  0999 V2000
  192.4480  176.0490  144.2490 C   0  0  0  0  0  0  0  0  0  0  0  0
  190.5190  177.6630  144.4470 C   0  0  0  0  0  2  0  0  0  0  0  0
  188.5900  175.6290  143.6640 C   0  0  0  0  0  2  0  0  0  0  0  0
  193.9220  174.0890  143.8460 C   0  0  1  0  0  3  0  0  0  0  0  0
  188.9350  174.1730  143.3990 C   0  0  0  0  0  2  0  0  0  0  0  0
  191.4600  176.7630  143.7050 C   0  0  0  0  0  3  0  0  0  0  0  0
  193.1830  175.2190  143.3930 O   0  0  0  0  0  0  0  0  0  0  0  0
  193.0710  172.8150  143.6960 C   0  0  2  0  0  3  0  0  0  0  0  0
  188.7060  175.8970  145.1580 C   0  0  2  0  0  3  0  0  0  0  0  0
  190.2120  174.0850  142.5810 C   0  0  1  0  0  3  0  0  0  0  0  0
  188.2930  177.3190  145.4680 C   0  0  2  0  0  3  0  0  0  0  0  0
  191.7460  173.0430  144.0890 O   0  0  0  0  0  0  0  0  0  0  0  0
  189.7560  176.9410  145.5630 C   0  0  2  0  0  3  0  0  0  0  0  0
  190.9870  172.8220  142.9370 C   0  0  0  0  0  2  0  0  0  0  0  0
  192.3560  174.9390  146.3680 O   0  0  0  0  0  1  0  0  0  0  0  0
  192.7370  176.1220  145.7260 C   0  0  1  0  0  3  0  0  0  0  0  0
  194.6620  177.7020  145.6570 O   0  0  0  0  0  0  0  0  0  0  0  0
  194.1710  176.4500  145.9980 C   0  0  0  0  0  0  0  0  0  0  0  0
  194.9410  175.5960  146.5050 O   0  0  0  0  0  1  0  0  0  0  0  0
  189.8970  174.1780  141.0880 C   0  0  2  0  0  3  0  0  0  0  0  0
  188.5230  174.1400  140.8410 O   0  0  0  0  0  1  0  0  0  0  0  0
  189.9580  171.9640  139.8800 C   0  0  0  0  0  3  0  0  0  0  0  0
  192.6030  174.5280  140.2280 O   0  0  0  0  0  1  0  0  0  0  0  0
  190.6140  173.1360  140.2800 C   0  0  0  0  0  0  0  0  0  0  0  0
  191.9370  171.2490  138.6770 C   0  0  0  0  0  3  0  0  0  0  0  0
  191.9350  173.3640  139.8630 C   0  0  0  0  0  0  0  0  0  0  0  0
  190.6190  171.0220  139.0820 C   0  0  0  0  0  3  0  0  0  0  0  0
  192.5910  172.4200  139.0660 C   0  0  0  0  0  3  0  0  0  0  0  0
  195.0090  173.1980  141.8970 O   0  0  0  0  0  1  0  0  0  0  0  0
  195.2180  173.9690  143.0430 C   0  0  1  0  0  3  0  0  0  0  0  0
  195.7090  175.3430  142.6280 C   0  0  0  0  0  2  0  0  0  0  0  0
  197.2840  177.0490  143.1310 O   0  0  0  0  0  1  0  0  0  0  0  0
  196.9020  175.7520  143.4690 C   0  0  0  0  0  2  0  0  0  0  0  0
  193.6460  171.6550  144.4950 C   0  0  0  0  0  2  0  0  0  0  0  0
  194.4130  172.1360  145.5900 O   0  0  0  0  0  0  0  0  0  0  0  0
  196.8140  172.4580  145.9490 N   0  0  0  0  0  1  0  0  0  0  0  0
  195.7930  170.3840  146.1230 O   0  0  0  0  0  0  0  0  0  0  0  0
  195.6680  171.6140  145.8890 C   0  0  0  0  0  0  0  0  0  0  0  0
  187.6980  177.3780  146.8580 C   0  0  0  0  0  2  0  0  0  0  0  0
  185.5090  176.8020  146.1440 O   0  0  0  0  0  1  0  0  0  0  0  0
  186.2470  177.8020  146.7720 C   0  0  0  0  0  2  0  0  0  0  0  0
  1 16  1  0  0  0  0
  4 30  1  6  0  0  0
  5  3  1  0  0  0  0
  6  1  2  0  0  0  0
  6  2  1  0  0  0  0
  7  4  1  0  0  0  0
  7  1  1  0  0  0  0
  8  4  1  0  0  0  0
  8 12  1  0  0  0  0
  8 34  1  1  0  0  0
  9  3  1  6  0  0  0
  9 11  1  0  0  0  0
  9 13  1  0  0  0  0
 10 20  1  6  0  0  0
 10 14  1  0  0  0  0
 10  5  1  0  0  0  0
 11 13  1  0  0  0  0
 11 39  1  1  0  0  0
 13  2  1  6  0  0  0
 14 12  1  0  0  0  0
 16 18  1  0  0  0  0
 16 15  1  1  0  0  0
 17 18  2  0  0  0  0
 18 19  1  0  0  0  0
 20 21  1  1  0  0  0
 22 24  1  0  0  0  0
 24 20  1  0  0  0  0
 25 28  2  0  0  0  0
 25 27  1  0  0  0  0
 26 23  1  0  0  0  0
 26 24  2  0  0  0  0
 27 22  2  0  0  0  0
 28 26  1  0  0  0  0
 30 29  1  6  0  0  0
 31 30  1  0  0  0  0
 31 33  1  0  0  0  0
 32 33  1  0  0  0  0
 34 35  1  0  0  0  0
 35 38  1  0  0  0  0
 38 36  1  0  0  0  0
 38 37  2  0  0  0  0
 40 41  1  0  0  0  0
 41 39  1  0  0  0  0
M  END
>  <MODEL>
8

>  <REMARK>
 VINA RESULT:      -6.1      2.544      7.047
  Name = 
  12 active torsions:
  status: ('A' for Active; 'I' for Inactive)
    1  A    between atoms: C_1  and  O_19
    2  A    between atoms: C_1  and  C_26
    3  A    between atoms: C_5  and  C_6
    4  A    between atoms: C_5  and  C_28
    5  A    between atoms: C_8  and  C_16
    6  A    between atoms: C_12  and  C_40
    7  A    between atoms: C_15  and  C_29
    8  A    between atoms: C_15  and  C_37
    9  A    between atoms: C_16  and  C_24
   10  A    between atoms: C_18  and  C_29
   11  A    between atoms: O_19  and  C_41
   12  A    between atoms: C_30  and  C_40
                            x       y       z     vdW  Elec       q    Type
                         _______ _______ _______ _____ _____    ______ ____

>  <TORSDO>
F 12

$$$$
=
 OpenBabel11062421443D

 41 43  0  0  1  0  0  0  0  0999 V2000
  191.1380  173.3820  143.4420 C   0  0  0  0  0  0  0  0  0  0  0  0
  189.6930  173.9770  145.4230 C   0  0  0  0  0  2  0  0  0  0  0  0
  191.3200  176.3070  146.0520 C   0  0  0  0  0  2  0  0  0  0  0  0
  192.8960  173.2540  141.6890 C   0  0  1  0  0  3  0  0  0  0  0  0
  192.4960  176.7850  145.2170 C   0  0  0  0  0  2  0  0  0  0  0  0
  190.9590  173.5290  144.7560 C   0  0  0  0  0  3  0  0  0  0  0  0
  192.4170  173.0100  143.0080 O   0  0  0  0  0  0  0  0  0  0  0  0
  193.7050  174.5630  141.6630 C   0  0  2  0  0  3  0  0  0  0  0  0
  190.0320  176.5800  145.2870 C   0  0  2  0  0  3  0  0  0  0  0  0
  193.3480  175.6000  144.7970 C   0  0  1  0  0  3  0  0  0  0  0  0
  188.8330  176.1870  146.1230 C   0  0  2  0  0  3  0  0  0  0  0  0
  193.0800  175.5600  142.4220 O   0  0  0  0  0  0  0  0  0  0  0  0
  189.2040  175.3400  144.9230 C   0  0  2  0  0  3  0  0  0  0  0  0
  193.9900  175.8590  143.4400 C   0  0  0  0  0  2  0  0  0  0  0  0
  190.2790  174.7450  141.6710 O   0  0  0  0  0  1  0  0  0  0  0  0
  190.0110  173.6310  142.4720 C   0  0  1  0  0  3  0  0  0  0  0  0
  189.6940  171.1700  142.2390 O   0  0  0  0  0  1  0  0  0  0  0  0
  189.7150  172.4220  141.6420 C   0  0  0  0  0  0  0  0  0  0  0  0
  189.5120  172.5250  140.4060 O   0  0  0  0  0  0  0  0  0  0  0  0
  194.3770  175.2710  145.8790 C   0  0  2  0  0  3  0  0  0  0  0  0
  194.9350  176.4240  146.4370 O   0  0  0  0  0  1  0  0  0  0  0  0
  196.7040  174.8320  145.0090 C   0  0  0  0  0  3  0  0  0  0  0  0
  193.9890  172.4380  145.7800 O   0  0  0  0  0  1  0  0  0  0  0  0
  195.4480  174.3400  145.3930 C   0  0  0  0  0  0  0  0  0  0  0  0
  197.4780  172.5730  144.5900 C   0  0  0  0  0  3  0  0  0  0  0  0
  195.2180  172.9550  145.3840 C   0  0  0  0  0  0  0  0  0  0  0  0
  197.7150  173.9510  144.6060 C   0  0  0  0  0  3  0  0  0  0  0  0
  196.2310  172.0790  144.9820 C   0  0  0  0  0  3  0  0  0  0  0  0
  195.0600  172.2110  141.7210 O   0  0  0  0  0  1  0  0  0  0  0  0
  193.7580  172.0770  141.2320 C   0  0  1  0  0  3  0  0  0  0  0  0
  193.1760  170.7700  141.7350 C   0  0  0  0  0  2  0  0  0  0  0  0
  193.5780  169.7260  143.8300 O   0  0  0  0  0  1  0  0  0  0  0  0
  194.1780  170.0510  142.6150 C   0  0  0  0  0  2  0  0  0  0  0  0
  193.9180  175.0660  140.2420 C   0  0  0  0  0  2  0  0  0  0  0  0
  195.2880  174.9690  139.8790 O   0  0  0  0  0  0  0  0  0  0  0  0
  197.3660  174.7660  141.1600 N   0  0  0  0  0  1  0  0  0  0  0  0
  196.2600  176.7840  140.8860 O   0  0  0  0  0  0  0  0  0  0  0  0
  196.2920  175.5490  140.6480 C   0  0  0  0  0  0  0  0  0  0  0  0
  187.6610  177.0760  145.7670 C   0  0  0  0  0  2  0  0  0  0  0  0
  187.0330  178.2890  143.8260 O   0  0  0  0  0  1  0  0  0  0  0  0
  187.4230  177.0290  144.2730 C   0  0  0  0  0  2  0  0  0  0  0  0
  1  6  2  0  0  0  0
  4 30  1  1  0  0  0
  4  7  1  0  0  0  0
  5  3  1  0  0  0  0
  6  2  1  0  0  0  0
  7  1  1  0  0  0  0
  8 34  1  6  0  0  0
  8  4  1  0  0  0  0
  8 12  1  0  0  0  0
  9  3  1  1  0  0  0
  9 11  1  0  0  0  0
 10  5  1  0  0  0  0
 10 20  1  1  0  0  0
 11 39  1  6  0  0  0
 12 14  1  0  0  0  0
 13  9  1  0  0  0  0
 13  2  1  1  0  0  0
 13 11  1  0  0  0  0
 14 10  1  0  0  0  0
 16 15  1  6  0  0  0
 16  1  1  0  0  0  0
 18 17  1  0  0  0  0
 18 16  1  0  0  0  0
 19 18  2  0  0  0  0
 20 21  1  6  0  0  0
 22 24  1  0  0  0  0
 24 20  1  0  0  0  0
 25 27  1  0  0  0  0
 25 28  2  0  0  0  0
 26 24  2  0  0  0  0
 26 23  1  0  0  0  0
 27 22  2  0  0  0  0
 28 26  1  0  0  0  0
 30 29  1  1  0  0  0
 30 31  1  0  0  0  0
 31 33  1  0  0  0  0
 33 32  1  0  0  0  0
 35 34  1  0  0  0  0
 35 38  1  0  0  0  0
 38 37  2  0  0  0  0
 38 36  1  0  0  0  0
 40 41  1  0  0  0  0
 41 39  1  0  0  0  0
M  END
>  <MODEL>
9

>  <REMARK>
 VINA RESULT:      -6.0      2.272      6.870
  Name = 
  12 active torsions:
  status: ('A' for Active; 'I' for Inactive)
    1  A    between atoms: C_1  and  O_19
    2  A    between atoms: C_1  and  C_26
    3  A    between atoms: C_5  and  C_6
    4  A    between atoms: C_5  and  C_28
    5  A    between atoms: C_8  and  C_16
    6  A    between atoms: C_12  and  C_40
    7  A    between atoms: C_15  and  C_29
    8  A    between atoms: C_15  and  C_37
    9  A    between atoms: C_16  and  C_24
   10  A    between atoms: C_18  and  C_29
   11  A    between atoms: O_19  and  C_41
   12  A    between atoms: C_30  and  C_40
                            x       y       z     vdW  Elec       q    Type
                         _______ _______ _______ _____ _____    ______ ____

>  <TORSDO>
F 12

$$$$
