=
 OpenBabel11072408283D

 34 37  0  0  1  0  0  0  0  0999 V2000
  190.1230  173.5690  144.0710 N   0  0  0  0  0  2  0  0  0  0  0  0
  190.5330  177.8550  143.8600 C   0  0  0  0  0  0  0  0  0  0  0  0
  191.1740  175.3360  145.1250 C   0  0  1  0  0  3  0  0  0  0  0  0
  189.1300  175.7360  143.8020 C   0  0  1  0  0  3  0  0  0  0  0  0
  189.8530  174.8060  144.7010 N   0  0  1  0  0  0  0  0  0  0  0  0
  193.3780  174.0610  145.5740 C   0  0  0  0  0  0  0  0  0  0  0  0
  194.0240  175.1320  146.1810 O   0  0  0  0  0  1  0  0  0  0  0  0
  191.5840  170.7960  143.4320 C   0  0  0  0  0  3  0  0  0  0  0  0
  193.3510  171.7360  144.5800 C   0  0  0  0  0  0  0  0  0  0  0  0
  194.0960  172.7740  145.3230 C   0  0  0  0  0  0  0  0  0  0  0  0
  191.0670  176.1400  146.4050 C   0  0  0  0  0  2  0  0  0  0  0  0
  189.3590  177.5470  147.2500 O   0  0  0  0  0  0  0  0  0  0  0  0
  191.4080  173.1290  144.4460 C   0  0  0  0  0  0  0  0  0  0  0  0
  191.3400  178.6620  143.3320 O   0  0  0  0  0  0  0  0  0  0  0  0
  190.0250  176.7070  143.0210 C   0  0  0  0  0  2  0  0  0  0  0  0
  190.0460  178.1360  145.1470 O   0  0  0  0  0  0  0  0  0  0  0  0
  192.0050  171.9780  144.1550 C   0  0  0  0  0  0  0  0  0  0  0  0
  195.3230  172.6010  145.6850 N   0  0  0  0  0  2  0  0  0  0  0  0
  193.7640  170.5780  144.1960 N   0  0  0  0  0  0  0  0  0  0  0  0
  190.0990  177.2850  146.2670 C   0  0  0  0  0  0  0  0  0  0  0  0
  192.0910  174.1640  145.1760 C   0  0  0  0  0  0  0  0  0  0  0  0
  192.6570  169.9920  143.4840 C   0  0  0  0  0  3  0  0  0  0  0  0
  188.2310  175.0320  142.8960 N   0  0  0  0  0  2  0  0  0  0  0  0
  187.3610  176.0300  142.2970 C   0  0  0  0  0  2  0  0  0  0  0  0
  186.1760  176.2870  143.2170 C   0  0  0  0  0  2  0  0  0  0  0  0
  186.7330  178.5510  142.4740 C   0  0  0  0  0  1  0  0  0  0  0  0
  185.9210  177.7750  143.5020 C   0  0  1  0  0  0  0  0  0  0  0  0
  184.4300  178.1480  143.3220 C   0  0  2  0  0  3  0  0  0  0  0  0
  183.9590  178.1370  141.8740 C   0  0  0  0  0  1  0  0  0  0  0  0
  184.1470  179.3920  143.8940 O   0  0  0  0  0  1  0  0  0  0  0  0
  186.4440  178.1310  144.9080 C   0  0  0  0  0  2  0  0  0  0  0  0
  186.6870  176.2350  146.3440 O   0  0  0  0  0  0  0  0  0  0  0  0
  185.9690  177.2050  145.9850 C   0  0  0  0  0  0  0  0  0  0  0  0
  184.7440  177.4220  146.6010 O   0  0  0  0  0  1  0  0  0  0  0  0
  1 13  1  0  0  0  0
  2 16  1  0  0  0  0
  3 21  1  0  0  0  0
  3 11  1  1  0  0  0
  4 23  1  6  0  0  0
  4  5  1  0  0  0  0
  5  1  1  6  0  0  0
  5  3  1  0  0  0  0
  6  7  1  0  0  0  0
  8 22  2  0  0  0  0
  8 17  1  0  0  0  0
  9 10  1  0  0  0  0
 10  6  1  0  0  0  0
 10 18  2  0  0  0  0
 13 21  1  0  0  0  0
 14  2  2  0  0  0  0
 15  4  1  0  0  0  0
 15  2  1  0  0  0  0
 16 20  1  0  0  0  0
 17 13  2  0  0  0  0
 17  9  1  0  0  0  0
 19  9  2  0  0  0  0
 20 11  1  0  0  0  0
 20 12  2  0  0  0  0
 21  6  2  0  0  0  0
 22 19  1  0  0  0  0
 24 23  1  0  0  0  0
 24 25  1  0  0  0  0
 25 27  1  0  0  0  0
 27 26  1  6  0  0  0
 27 31  1  0  0  0  0
 28 29  1  6  0  0  0
 28 27  1  0  0  0  0
 28 30  1  0  0  0  0
 31 33  1  0  0  0  0
 33 32  2  0  0  0  0
 33 34  1  0  0  0  0
M  END
>  <MODEL>
1

>  <REMARK>
 VINA RESULT:      -7.2      0.000      0.000
  Name = 
  7 active torsions:
  status: ('A' for Active; 'I' for Inactive)
    1  A    between atoms: C_2  and  C_11
    2  A    between atoms: C_3  and  C_21
    3  A    between atoms: C_7  and  N_9
    4  A    between atoms: N_9  and  C_14
    5  A    between atoms: C_11  and  C_21
    6  A    between atoms: C_14  and  C_32
    7  A    between atoms: C_21  and  C_32
                            x       y       z     vdW  Elec       q    Type
                         _______ _______ _______ _____ _____    ______ ____

>  <TORSDO>
F 7

$$$$
=
 OpenBabel11072408283D

 34 37  0  0  1  0  0  0  0  0999 V2000
  188.6480  175.0140  142.4800 N   0  0  0  0  0  2  0  0  0  0  0  0
  191.3310  176.2870  145.6040 C   0  0  0  0  0  0  0  0  0  0  0  0
  189.9250  174.1780  144.2140 C   0  0  1  0  0  3  0  0  0  0  0  0
  189.1920  176.5340  144.2550 C   0  0  1  0  0  3  0  0  0  0  0  0
  188.8480  175.1430  143.8740 N   0  0  1  0  0  0  0  0  0  0  0  0
  190.6730  172.0520  142.9480 C   0  0  0  0  0  0  0  0  0  0  0  0
  191.4670  171.5610  143.9780 O   0  0  0  0  0  1  0  0  0  0  0  0
  188.5020  173.6390  139.5950 C   0  0  0  0  0  3  0  0  0  0  0  0
  189.8230  172.0160  140.5660 C   0  0  0  0  0  0  0  0  0  0  0  0
  190.6160  171.3570  141.6260 C   0  0  0  0  0  0  0  0  0  0  0  0
  189.7420  173.6080  145.6060 C   0  0  0  0  0  2  0  0  0  0  0  0
  188.8880  174.5540  147.6030 O   0  0  0  0  0  0  0  0  0  0  0  0
  189.1990  173.7940  142.0430 C   0  0  0  0  0  0  0  0  0  0  0  0
  192.5760  176.4060  145.7350 O   0  0  0  0  0  0  0  0  0  0  0  0
  190.6940  176.8270  144.3460 C   0  0  0  0  0  2  0  0  0  0  0  0
  190.5870  175.7840  146.6840 O   0  0  0  0  0  0  0  0  0  0  0  0
  189.1420  173.2460  140.8330 C   0  0  1  0  0  3  0  0  0  0  0  0
  191.2730  170.2680  141.4040 N   0  0  0  0  0  1  0  0  0  0  0  0
  189.6660  171.6490  139.3420 N   0  0  0  0  0  0  0  0  0  0  0  0
  189.7020  174.6890  146.6530 C   0  0  0  0  0  0  0  0  0  0  0  0
  189.9490  173.1820  143.1080 C   0  0  0  0  0  0  0  0  0  0  0  0
  188.8380  172.6620  138.7400 C   0  0  0  0  0  3  0  0  0  0  0  0
  188.5320  177.5140  143.3990 N   0  0  0  0  0  2  0  0  0  0  0  0
  187.6130  178.2620  144.2370 C   0  0  0  0  0  2  0  0  0  0  0  0
  186.2890  177.5170  144.3300 C   0  0  0  0  0  2  0  0  0  0  0  0
  185.5860  179.8600  144.2890 C   0  0  0  0  0  1  0  0  0  0  0  0
  185.0600  178.4360  144.4030 C   0  0  1  0  0  0  0  0  0  0  0  0
  184.0850  178.1860  143.2270 C   0  0  2  0  0  3  0  0  0  0  0  0
  184.7310  178.2880  141.8530 C   0  0  0  0  0  1  0  0  0  0  0  0
  182.9850  179.0470  143.2900 O   0  0  0  0  0  1  0  0  0  0  0  0
  184.3720  178.2750  145.7730 C   0  0  0  0  0  2  0  0  0  0  0  0
  185.6830  179.3470  147.4620 O   0  0  0  0  0  1  0  0  0  0  0  0
  185.3220  178.2640  146.9320 C   0  0  0  0  0  0  0  0  0  0  0  0
  185.7940  177.0580  147.4340 O   0  0  0  0  0  0  0  0  0  0  0  0
  2 14  2  0  0  0  0
  2 16  1  0  0  0  0
  3 11  1  1  0  0  0
  4 23  1  6  0  0  0
  4 15  1  0  0  0  0
  5  1  1  6  0  0  0
  5  3  1  0  0  0  0
  5  4  1  0  0  0  0
  6 21  1  0  0  0  0
  6  7  1  0  0  0  0
  9 17  1  0  0  0  0
  9 10  1  0  0  0  0
 10  6  2  0  0  0  0
 11 20  1  0  0  0  0
 13  1  1  0  0  0  0
 13 21  2  0  0  0  0
 15  2  1  0  0  0  0
 17  8  1  6  0  0  0
 17 13  1  0  0  0  0
 18 10  1  0  0  0  0
 19  9  2  0  0  0  0
 20 16  1  0  0  0  0
 20 12  2  0  0  0  0
 21  3  1  0  0  0  0
 22 19  1  0  0  0  0
 22  8  2  0  0  0  0
 23 24  1  0  0  0  0
 24 25  1  0  0  0  0
 25 27  1  0  0  0  0
 27 26  1  6  0  0  0
 27 31  1  0  0  0  0
 28 29  1  6  0  0  0
 28 30  1  0  0  0  0
 28 27  1  0  0  0  0
 31 33  1  0  0  0  0
 33 34  2  0  0  0  0
 33 32  1  0  0  0  0
M  END
>  <MODEL>
2

>  <REMARK>
 VINA RESULT:      -7.1      2.508      3.499
  Name = 
  7 active torsions:
  status: ('A' for Active; 'I' for Inactive)
    1  A    between atoms: C_2  and  C_11
    2  A    between atoms: C_3  and  C_21
    3  A    between atoms: C_7  and  N_9
    4  A    between atoms: N_9  and  C_14
    5  A    between atoms: C_11  and  C_21
    6  A    between atoms: C_14  and  C_32
    7  A    between atoms: C_21  and  C_32
                            x       y       z     vdW  Elec       q    Type
                         _______ _______ _______ _____ _____    ______ ____

>  <TORSDO>
F 7

$$$$
=
 OpenBabel11072408283D

 34 37  0  0  1  0  0  0  0  0999 V2000
  188.2920  176.3360  146.1690 N   0  0  0  0  0  2  0  0  0  0  0  0
  191.2450  176.7780  143.0610 C   0  0  0  0  0  0  0  0  0  0  0  0
  188.5400  176.1700  143.8790 C   0  0  1  0  0  3  0  0  0  0  0  0
  190.5110  175.9440  145.3460 C   0  0  1  0  0  3  0  0  0  0  0  0
  189.0610  175.6810  145.1800 N   0  0  1  0  0  0  0  0  0  0  0  0
  186.2260  177.1770  143.3200 C   0  0  0  0  0  0  0  0  0  0  0  0
  186.3840  177.1060  141.9410 O   0  0  0  0  0  1  0  0  0  0  0  0
  185.7690  177.7290  147.5580 C   0  0  0  0  0  3  0  0  0  0  0  0
  184.9900  177.9280  145.3960 C   0  0  0  0  0  0  0  0  0  0  0  0
  185.0140  177.8120  143.9220 C   0  0  0  0  0  0  0  0  0  0  0  0
  188.6310  175.1030  142.8060 C   0  0  0  0  0  2  0  0  0  0  0  0
  190.2180  173.3880  142.4120 O   0  0  0  0  0  0  0  0  0  0  0  0
  187.1130  176.8370  145.5830 C   0  0  0  0  0  0  0  0  0  0  0  0
  191.6110  177.6970  142.2840 O   0  0  0  0  0  0  0  0  0  0  0  0
  191.0540  177.1150  144.5200 C   0  0  0  0  0  2  0  0  0  0  0  0
  191.1650  175.4680  142.5610 O   0  0  0  0  0  0  0  0  0  0  0  0
  186.0810  177.4290  146.1760 C   0  0  0  0  0  0  0  0  0  0  0  0
  184.0630  178.2880  143.1880 N   0  0  0  0  0  1  0  0  0  0  0  0
  184.0950  178.4790  146.1380 N   0  0  0  0  0  0  0  0  0  0  0  0
  190.0440  174.6170  142.6190 C   0  0  0  0  0  0  0  0  0  0  0  0
  187.1730  176.6920  144.1520 C   0  0  0  0  0  0  0  0  0  0  0  0
  184.5820  178.3490  147.4880 C   0  0  0  0  0  2  0  0  0  0  0  0
  190.8830  176.0930  146.7480 N   0  0  0  0  0  2  0  0  0  0  0  0
  192.3220  176.2840  146.7900 C   0  0  0  0  0  2  0  0  0  0  0  0
  193.0170  174.9390  146.6350 C   0  0  0  0  0  2  0  0  0  0  0  0
  195.4220  174.6220  146.3170 C   0  0  0  0  0  1  0  0  0  0  0  0
  194.1290  174.9310  145.5750 C   0  0  1  0  0  0  0  0  0  0  0  0
  193.9050  173.8260  144.5150 C   0  0  2  0  0  3  0  0  0  0  0  0
  192.6860  172.9530  144.7780 C   0  0  0  0  0  1  0  0  0  0  0  0
  195.0370  173.0180  144.3800 O   0  0  0  0  0  1  0  0  0  0  0  0
  194.2510  176.3310  144.9400 C   0  0  0  0  0  2  0  0  0  0  0  0
  194.5810  176.0940  142.5830 O   0  0  0  0  0  0  0  0  0  0  0  0
  195.0930  176.3640  143.7010 C   0  0  0  0  0  0  0  0  0  0  0  0
  196.4350  176.7090  143.7800 O   0  0  0  0  0  1  0  0  0  0  0  0
  2 15  1  0  0  0  0
  3 11  1  6  0  0  0
  3 21  1  0  0  0  0
  3  5  1  0  0  0  0
  4 23  1  1  0  0  0
  5  4  1  0  0  0  0
  5  1  1  1  0  0  0
  6 10  2  0  0  0  0
  6 21  1  0  0  0  0
  7  6  1  0  0  0  0
  9 19  2  0  0  0  0
  9 17  1  0  0  0  0
 10  9  1  0  0  0  0
 12 20  2  0  0  0  0
 13  1  1  0  0  0  0
 13 17  1  0  0  0  0
 14  2  2  0  0  0  0
 15  4  1  0  0  0  0
 16 20  1  0  0  0  0
 16  2  1  0  0  0  0
 17  8  2  0  0  0  0
 18 10  1  0  0  0  0
 19 22  1  0  0  0  0
 20 11  1  0  0  0  0
 21 13  2  0  0  0  0
 22  8  1  0  0  0  0
 23 24  1  0  0  0  0
 25 24  1  0  0  0  0
 27 26  1  1  0  0  0
 27 25  1  0  0  0  0
 28 29  1  1  0  0  0
 28 27  1  0  0  0  0
 30 28  1  0  0  0  0
 31 27  1  0  0  0  0
 32 33  2  0  0  0  0
 33 34  1  0  0  0  0
 33 31  1  0  0  0  0
M  END
>  <MODEL>
3

>  <REMARK>
 VINA RESULT:      -7.1      2.743      8.187
  Name = 
  7 active torsions:
  status: ('A' for Active; 'I' for Inactive)
    1  A    between atoms: C_2  and  C_11
    2  A    between atoms: C_3  and  C_21
    3  A    between atoms: C_7  and  N_9
    4  A    between atoms: N_9  and  C_14
    5  A    between atoms: C_11  and  C_21
    6  A    between atoms: C_14  and  C_32
    7  A    between atoms: C_21  and  C_32
                            x       y       z     vdW  Elec       q    Type
                         _______ _______ _______ _____ _____    ______ ____

>  <TORSDO>
F 7

$$$$
=
 OpenBabel11072408283D

 34 37  0  0  1  0  0  0  0  0999 V2000
  193.1720  175.9160  143.3970 N   0  0  0  0  0  2  0  0  0  0  0  0
  190.2560  174.9830  146.4300 C   0  0  0  0  0  0  0  0  0  0  0  0
  192.4100  174.1590  144.6880 C   0  0  1  0  0  3  0  0  0  0  0  0
  190.9340  176.0850  144.2430 C   0  0  1  0  0  3  0  0  0  0  0  0
  191.9950  175.1970  143.7110 N   0  0  1  0  0  0  0  0  0  0  0  0
  194.7490  173.1320  145.0860 C   0  0  0  0  0  0  0  0  0  0  0  0
  194.2980  172.0910  145.8890 O   0  0  0  0  0  1  0  0  0  0  0  0
  196.2770  176.4900  142.8810 C   0  0  0  0  0  3  0  0  0  0  0  0
  196.5900  174.5360  144.0680 C   0  0  0  0  0  0  0  0  0  0  0  0
  196.2100  173.3420  144.8520 C   0  0  0  0  0  0  0  0  0  0  0  0
  191.5870  172.8950  144.5410 C   0  0  0  0  0  2  0  0  0  0  0  0
  189.3190  172.5450  143.9520 O   0  0  0  0  0  0  0  0  0  0  0  0
  194.2950  175.1510  143.7670 C   0  0  0  0  0  0  0  0  0  0  0  0
  190.2410  174.9360  147.6870 O   0  0  0  0  0  0  0  0  0  0  0  0
  190.8830  176.1880  145.7720 C   0  0  0  0  0  2  0  0  0  0  0  0
  189.5750  173.9860  145.7130 O   0  0  0  0  0  0  0  0  0  0  0  0
  195.5810  175.4150  143.5580 C   0  0  0  0  0  0  0  0  0  0  0  0
  197.0990  172.5520  145.3580 N   0  0  0  0  0  2  0  0  0  0  0  0
  197.7710  174.9600  143.7810 N   0  0  0  0  0  0  0  0  0  0  0  0
  190.1140  173.1640  144.7050 C   0  0  0  0  0  0  0  0  0  0  0  0
  193.8800  173.9940  144.5150 C   0  0  0  0  0  0  0  0  0  0  0  0
  197.5720  176.1770  143.0360 C   0  0  0  0  0  3  0  0  0  0  0  0
  190.9810  177.4140  143.6440 N   0  0  0  0  0  2  0  0  0  0  0  0
  189.7400  178.0830  143.9930 C   0  0  0  0  0  2  0  0  0  0  0  0
  188.7300  177.8980  142.8700 C   0  0  0  0  0  2  0  0  0  0  0  0
  187.4300  177.2900  144.8510 C   0  0  0  0  0  1  0  0  0  0  0  0
  187.3890  177.3050  143.3300 C   0  0  1  0  0  0  0  0  0  0  0  0
  186.1920  178.1810  142.8870 C   0  0  2  0  0  3  0  0  0  0  0  0
  185.7900  179.2410  143.9030 C   0  0  0  0  0  1  0  0  0  0  0  0
  185.0810  177.3950  142.5690 O   0  0  0  0  0  1  0  0  0  0  0  0
  187.2640  175.8530  142.8290 C   0  0  0  0  0  2  0  0  0  0  0  0
  189.0400  174.8760  141.5600 O   0  0  0  0  0  1  0  0  0  0  0  0
  188.0000  175.5850  141.5510 C   0  0  0  0  0  0  0  0  0  0  0  0
  187.5290  176.1050  140.3530 O   0  0  0  0  0  0  0  0  0  0  0  0
  1 13  1  0  0  0  0
  2 14  2  0  0  0  0
  3 11  1  6  0  0  0
  4 23  1  6  0  0  0
  4 15  1  0  0  0  0
  5  1  1  1  0  0  0
  5  4  1  0  0  0  0
  5  3  1  0  0  0  0
  6  7  1  0  0  0  0
  8 22  2  0  0  0  0
  8 17  1  0  0  0  0
  9 10  1  0  0  0  0
 10  6  1  0  0  0  0
 10 18  2  0  0  0  0
 11 20  1  0  0  0  0
 12 20  2  0  0  0  0
 13 21  1  0  0  0  0
 15  2  1  0  0  0  0
 16  2  1  0  0  0  0
 17 13  2  0  0  0  0
 17  9  1  0  0  0  0
 19  9  2  0  0  0  0
 20 16  1  0  0  0  0
 21  3  1  0  0  0  0
 21  6  2  0  0  0  0
 22 19  1  0  0  0  0
 23 24  1  0  0  0  0
 25 27  1  0  0  0  0
 25 24  1  0  0  0  0
 27 26  1  1  0  0  0
 28 27  1  0  0  0  0
 28 29  1  1  0  0  0
 30 28  1  0  0  0  0
 31 27  1  0  0  0  0
 33 32  1  0  0  0  0
 33 31  1  0  0  0  0
 34 33  2  0  0  0  0
M  END
>  <MODEL>
4

>  <REMARK>
 VINA RESULT:      -7.0      2.798      4.152
  Name = 
  7 active torsions:
  status: ('A' for Active; 'I' for Inactive)
    1  A    between atoms: C_2  and  C_11
    2  A    between atoms: C_3  and  C_21
    3  A    between atoms: C_7  and  N_9
    4  A    between atoms: N_9  and  C_14
    5  A    between atoms: C_11  and  C_21
    6  A    between atoms: C_14  and  C_32
    7  A    between atoms: C_21  and  C_32
                            x       y       z     vdW  Elec       q    Type
                         _______ _______ _______ _____ _____    ______ ____

>  <TORSDO>
F 7

$$$$
=
 OpenBabel11072408283D

 34 37  0  0  1  0  0  0  0  0999 V2000
  188.9050  176.7470  143.1960 N   0  0  0  0  0  2  0  0  0  0  0  0
  189.3310  174.7950  147.0150 C   0  0  0  0  0  0  0  0  0  0  0  0
  188.4360  177.0460  145.4380 C   0  0  1  0  0  3  0  0  0  0  0  0
  190.2470  175.5150  144.7570 C   0  0  1  0  0  3  0  0  0  0  0  0
  189.5260  176.7770  144.4660 N   0  0  1  0  0  0  0  0  0  0  0  0
  186.1390  178.1660  145.0470 C   0  0  0  0  0  0  0  0  0  0  0  0
  185.8400  178.3200  146.3960 O   0  0  0  0  0  1  0  0  0  0  0  0
  186.8290  177.4500  140.8660 C   0  0  0  0  0  3  0  0  0  0  0  0
  185.5220  178.2390  142.5950 C   0  0  0  0  0  0  0  0  0  0  0  0
  185.1450  178.5370  143.9940 C   0  0  0  0  0  0  0  0  0  0  0  0
  188.9300  177.8590  146.6180 C   0  0  0  0  0  2  0  0  0  0  0  0
  191.0090  177.8940  147.7540 O   0  0  0  0  0  0  0  0  0  0  0  0
  187.6470  177.3750  143.2800 C   0  0  0  0  0  0  0  0  0  0  0  0
  188.6200  174.0450  147.7320 O   0  0  0  0  0  0  0  0  0  0  0  0
  189.4390  174.4760  145.5430 C   0  0  0  0  0  2  0  0  0  0  0  0
  190.0870  175.8010  147.6380 O   0  0  0  0  0  0  0  0  0  0  0  0
  186.7900  177.6440  142.3010 C   0  0  1  0  0  3  0  0  0  0  0  0
  183.9930  179.0370  144.2940 N   0  0  0  0  0  1  0  0  0  0  0  0
  184.8240  178.4110  141.5280 N   0  0  0  0  0  0  0  0  0  0  0  0
  190.0670  177.1750  147.3310 C   0  0  0  0  0  0  0  0  0  0  0  0
  187.3280  177.6580  144.6550 C   0  0  0  0  0  0  0  0  0  0  0  0
  185.6440  177.9210  140.4490 C   0  0  0  0  0  3  0  0  0  0  0  0
  190.8100  174.9170  143.5520 N   0  0  0  0  0  2  0  0  0  0  0  0
  191.7350  173.8830  143.9810 C   0  0  0  0  0  2  0  0  0  0  0  0
  193.1640  174.3700  143.7900 C   0  0  0  0  0  2  0  0  0  0  0  0
  193.9810  172.7900  145.4690 C   0  0  0  0  0  1  0  0  0  0  0  0
  194.0360  174.2520  145.0490 C   0  0  1  0  0  0  0  0  0  0  0  0
  195.5130  174.6160  144.7620 C   0  0  2  0  0  3  0  0  0  0  0  0
  196.0330  174.0930  143.4300 C   0  0  0  0  0  1  0  0  0  0  0  0
  196.3510  174.1820  145.7930 O   0  0  0  0  0  1  0  0  0  0  0  0
  193.4350  175.1100  146.1800 C   0  0  0  0  0  2  0  0  0  0  0  0
  194.4960  177.1320  146.8870 O   0  0  0  0  0  1  0  0  0  0  0  0
  193.7340  176.5730  146.0570 C   0  0  0  0  0  0  0  0  0  0  0  0
  193.1850  177.3110  145.0180 O   0  0  0  0  0  0  0  0  0  0  0  0
  1 13  1  0  0  0  0
  2 16  1  0  0  0  0
  2 14  2  0  0  0  0
  3 11  1  1  0  0  0
  4 23  1  6  0  0  0
  4 15  1  0  0  0  0
  5  1  1  6  0  0  0
  5  4  1  0  0  0  0
  5  3  1  0  0  0  0
  6  7  1  0  0  0  0
  9 10  1  0  0  0  0
 10 18  1  0  0  0  0
 10  6  2  0  0  0  0
 11 20  1  0  0  0  0
 13 21  2  0  0  0  0
 15  2  1  0  0  0  0
 17  8  1  1  0  0  0
 17  9  1  0  0  0  0
 17 13  1  0  0  0  0
 19  9  2  0  0  0  0
 20 16  1  0  0  0  0
 20 12  2  0  0  0  0
 21  6  1  0  0  0  0
 21  3  1  0  0  0  0
 22  8  2  0  0  0  0
 22 19  1  0  0  0  0
 23 24  1  0  0  0  0
 25 24  1  0  0  0  0
 25 27  1  0  0  0  0
 27 26  1  1  0  0  0
 27 31  1  0  0  0  0
 28 29  1  6  0  0  0
 28 27  1  0  0  0  0
 28 30  1  0  0  0  0
 33 31  1  0  0  0  0
 33 32  1  0  0  0  0
 34 33  2  0  0  0  0
M  END
>  <MODEL>
5

>  <REMARK>
 VINA RESULT:      -7.0      2.252      7.949
  Name = 
  7 active torsions:
  status: ('A' for Active; 'I' for Inactive)
    1  A    between atoms: C_2  and  C_11
    2  A    between atoms: C_3  and  C_21
    3  A    between atoms: C_7  and  N_9
    4  A    between atoms: N_9  and  C_14
    5  A    between atoms: C_11  and  C_21
    6  A    between atoms: C_14  and  C_32
    7  A    between atoms: C_21  and  C_32
                            x       y       z     vdW  Elec       q    Type
                         _______ _______ _______ _____ _____    ______ ____

>  <TORSDO>
F 7

$$$$
=
 OpenBabel11072408283D

 34 37  0  0  1  0  0  0  0  0999 V2000
  188.8660  177.1950  143.2120 N   0  0  0  0  0  2  0  0  0  0  0  0
  189.5420  174.8350  146.7550 C   0  0  0  0  0  0  0  0  0  0  0  0
  188.3610  177.1370  145.4660 C   0  0  1  0  0  3  0  0  0  0  0  0
  190.3570  175.9550  144.6250 C   0  0  1  0  0  3  0  0  0  0  0  0
  189.4770  177.1400  144.4860 N   0  0  1  0  0  0  0  0  0  0  0  0
  185.9370  177.9910  145.1830 C   0  0  0  0  0  0  0  0  0  0  0  0
  185.6200  177.9280  146.5350 O   0  0  0  0  0  1  0  0  0  0  0  0
  186.7160  177.9190  140.9570 C   0  0  0  0  0  3  0  0  0  0  0  0
  185.3160  178.3010  142.7510 C   0  0  0  0  0  0  0  0  0  0  0  0
  184.9040  178.3630  144.1690 C   0  0  0  0  0  0  0  0  0  0  0  0
  188.7440  177.8470  146.7490 C   0  0  0  0  0  2  0  0  0  0  0  0
  190.8000  178.0040  147.9160 O   0  0  0  0  0  0  0  0  0  0  0  0
  187.5360  177.6380  143.3550 C   0  0  0  0  0  0  0  0  0  0  0  0
  188.9350  173.9130  147.3580 O   0  0  0  0  0  0  0  0  0  0  0  0
  189.6920  174.7270  145.2570 C   0  0  0  0  0  2  0  0  0  0  0  0
  190.1600  175.8420  147.5160 O   0  0  0  0  0  0  0  0  0  0  0  0
  186.6510  177.9180  142.4040 C   0  0  1  0  0  3  0  0  0  0  0  0
  183.6960  178.6660  144.5120 N   0  0  0  0  0  1  0  0  0  0  0  0
  184.6020  178.5170  141.7020 N   0  0  0  0  0  0  0  0  0  0  0  0
  189.9600  177.2300  147.3880 C   0  0  0  0  0  0  0  0  0  0  0  0
  187.1820  177.6970  144.7490 C   0  0  0  0  0  0  0  0  0  0  0  0
  185.4800  178.2830  140.5840 C   0  0  0  0  0  3  0  0  0  0  0  0
  190.9930  175.5970  143.3630 N   0  0  0  0  0  2  0  0  0  0  0  0
  192.1730  176.4340  143.2280 C   0  0  0  0  0  2  0  0  0  0  0  0
  192.7150  176.7730  144.6080 C   0  0  0  0  0  2  0  0  0  0  0  0
  194.8610  177.2320  145.6890 C   0  0  0  0  0  1  0  0  0  0  0  0
  194.1010  176.1770  144.8970 C   0  0  1  0  0  0  0  0  0  0  0  0
  194.0080  174.8980  145.7630 C   0  0  2  0  0  3  0  0  0  0  0  0
  193.6980  173.6350  144.9710 C   0  0  0  0  0  1  0  0  0  0  0  0
  193.0690  175.0470  146.7880 O   0  0  0  0  0  1  0  0  0  0  0  0
  194.8460  175.9290  143.5700 C   0  0  0  0  0  2  0  0  0  0  0  0
  196.8690  177.1570  143.2290 O   0  0  0  0  0  0  0  0  0  0  0  0
  196.3310  176.1070  143.6650 C   0  0  0  0  0  0  0  0  0  0  0  0
  197.1150  175.1210  144.2500 O   0  0  0  0  0  1  0  0  0  0  0  0
  1 13  1  0  0  0  0
  2 14  2  0  0  0  0
  2 16  1  0  0  0  0
  3 11  1  1  0  0  0
  4 23  1  6  0  0  0
  4 15  1  0  0  0  0
  5  1  1  6  0  0  0
  5  4  1  0  0  0  0
  5  3  1  0  0  0  0
  6  7  1  0  0  0  0
  9 10  1  0  0  0  0
 10 18  1  0  0  0  0
 10  6  2  0  0  0  0
 11 20  1  0  0  0  0
 13 21  2  0  0  0  0
 15  2  1  0  0  0  0
 17  8  1  6  0  0  0
 17  9  1  0  0  0  0
 17 13  1  0  0  0  0
 19  9  2  0  0  0  0
 20 16  1  0  0  0  0
 20 12  2  0  0  0  0
 21  6  1  0  0  0  0
 21  3  1  0  0  0  0
 22  8  2  0  0  0  0
 22 19  1  0  0  0  0
 24 23  1  0  0  0  0
 24 25  1  0  0  0  0
 25 27  1  0  0  0  0
 27 26  1  1  0  0  0
 27 28  1  0  0  0  0
 28 29  1  6  0  0  0
 28 30  1  0  0  0  0
 31 33  1  0  0  0  0
 31 27  1  0  0  0  0
 32 33  2  0  0  0  0
 33 34  1  0  0  0  0
M  END
>  <MODEL>
6

>  <REMARK>
 VINA RESULT:      -7.0      2.515      8.080
  Name = 
  7 active torsions:
  status: ('A' for Active; 'I' for Inactive)
    1  A    between atoms: C_2  and  C_11
    2  A    between atoms: C_3  and  C_21
    3  A    between atoms: C_7  and  N_9
    4  A    between atoms: N_9  and  C_14
    5  A    between atoms: C_11  and  C_21
    6  A    between atoms: C_14  and  C_32
    7  A    between atoms: C_21  and  C_32
                            x       y       z     vdW  Elec       q    Type
                         _______ _______ _______ _____ _____    ______ ____

>  <TORSDO>
F 7

$$$$
=
 OpenBabel11072408283D

 34 37  0  0  1  0  0  0  0  0999 V2000
  188.3120  176.3710  146.2270 N   0  0  0  0  0  2  0  0  0  0  0  0
  191.2520  176.9630  143.1320 C   0  0  0  0  0  0  0  0  0  0  0  0
  188.5560  176.2940  143.9310 C   0  0  1  0  0  3  0  0  0  0  0  0
  190.5330  176.0340  145.3850 C   0  0  1  0  0  3  0  0  0  0  0  0
  189.0860  175.7620  145.2120 N   0  0  1  0  0  0  0  0  0  0  0  0
  186.2290  177.2970  143.4170 C   0  0  0  0  0  0  0  0  0  0  0  0
  186.3850  177.2800  142.0350 O   0  0  0  0  0  1  0  0  0  0  0  0
  185.7770  177.6820  147.6730 C   0  0  0  0  0  3  0  0  0  0  0  0
  184.9910  177.9540  145.5210 C   0  0  0  0  0  0  0  0  0  0  0  0
  185.0120  177.8950  144.0440 C   0  0  0  0  0  0  0  0  0  0  0  0
  188.6560  175.2700  142.8190 C   0  0  0  0  0  2  0  0  0  0  0  0
  190.2600  173.5890  142.3560 O   0  0  0  0  0  0  0  0  0  0  0  0
  187.1260  176.8800  145.6630 C   0  0  0  0  0  0  0  0  0  0  0  0
  191.6060  177.9150  142.3890 O   0  0  0  0  0  0  0  0  0  0  0  0
  191.0610  177.2420  144.6030 C   0  0  0  0  0  2  0  0  0  0  0  0
  191.1850  175.6720  142.5830 O   0  0  0  0  0  0  0  0  0  0  0  0
  186.0890  177.4380  146.2800 C   0  0  0  0  0  0  0  0  0  0  0  0
  184.0540  178.3880  143.3320 N   0  0  0  0  0  1  0  0  0  0  0  0
  184.0910  178.4670  146.2860 N   0  0  0  0  0  0  0  0  0  0  0  0
  190.0740  174.8070  142.6100 C   0  0  0  0  0  0  0  0  0  0  0  0
  187.1840  176.7910  144.2270 C   0  0  0  0  0  0  0  0  0  0  0  0
  184.5830  178.2910  147.6290 C   0  0  0  0  0  2  0  0  0  0  0  0
  190.9060  176.1340  146.7910 N   0  0  0  0  0  2  0  0  0  0  0  0
  192.3570  176.1840  146.8440 C   0  0  0  0  0  2  0  0  0  0  0  0
  192.9250  174.8210  146.4770 C   0  0  0  0  0  2  0  0  0  0  0  0
  194.1020  173.7430  144.6220 C   0  0  0  0  0  1  0  0  0  0  0  0
  194.1990  174.8870  145.6210 C   0  0  1  0  0  0  0  0  0  0  0  0
  194.2920  176.2140  144.8290 C   0  0  2  0  0  3  0  0  0  0  0  0
  194.7200  176.0410  143.3790 C   0  0  0  0  0  1  0  0  0  0  0  0
  195.1450  177.1220  145.4620 O   0  0  0  0  0  1  0  0  0  0  0  0
  195.4360  174.6550  146.5130 C   0  0  0  0  0  2  0  0  0  0  0  0
  196.6750  172.6470  146.1250 O   0  0  0  0  0  1  0  0  0  0  0  0
  196.5230  173.8660  145.8490 C   0  0  0  0  0  0  0  0  0  0  0  0
  197.3540  174.4720  144.9170 O   0  0  0  0  0  0  0  0  0  0  0  0
  2 15  1  0  0  0  0
  3 11  1  6  0  0  0
  3 21  1  0  0  0  0
  3  5  1  0  0  0  0
  4 23  1  1  0  0  0
  5  4  1  0  0  0  0
  5  1  1  1  0  0  0
  6 10  2  0  0  0  0
  6 21  1  0  0  0  0
  7  6  1  0  0  0  0
  9 17  1  0  0  0  0
  9 19  2  0  0  0  0
 10  9  1  0  0  0  0
 12 20  2  0  0  0  0
 13  1  1  0  0  0  0
 13 17  1  0  0  0  0
 14  2  2  0  0  0  0
 15  4  1  0  0  0  0
 16 20  1  0  0  0  0
 16  2  1  0  0  0  0
 17  8  2  0  0  0  0
 18 10  1  0  0  0  0
 19 22  1  0  0  0  0
 20 11  1  0  0  0  0
 21 13  2  0  0  0  0
 22  8  1  0  0  0  0
 23 24  1  0  0  0  0
 25 24  1  0  0  0  0
 27 26  1  6  0  0  0
 27 25  1  0  0  0  0
 27 31  1  0  0  0  0
 28 29  1  6  0  0  0
 28 30  1  0  0  0  0
 28 27  1  0  0  0  0
 33 32  1  0  0  0  0
 33 31  1  0  0  0  0
 34 33  2  0  0  0  0
M  END
>  <MODEL>
7

>  <REMARK>
 VINA RESULT:      -6.9      2.873      8.325
  Name = 
  7 active torsions:
  status: ('A' for Active; 'I' for Inactive)
    1  A    between atoms: C_2  and  C_11
    2  A    between atoms: C_3  and  C_21
    3  A    between atoms: C_7  and  N_9
    4  A    between atoms: N_9  and  C_14
    5  A    between atoms: C_11  and  C_21
    6  A    between atoms: C_14  and  C_32
    7  A    between atoms: C_21  and  C_32
                            x       y       z     vdW  Elec       q    Type
                         _______ _______ _______ _____ _____    ______ ____

>  <TORSDO>
F 7

$$$$
=
 OpenBabel11072408283D

 34 37  0  0  1  0  0  0  0  0999 V2000
  188.9790  175.0610  141.4970 N   0  0  0  0  0  2  0  0  0  0  0  0
  191.7210  175.9520  144.7010 C   0  0  0  0  0  0  0  0  0  0  0  0
  190.0760  174.0580  143.2650 C   0  0  1  0  0  3  0  0  0  0  0  0
  189.6770  176.4930  143.2910 C   0  0  1  0  0  3  0  0  0  0  0  0
  189.1550  175.1620  142.8970 N   0  0  1  0  0  0  0  0  0  0  0  0
  190.5580  171.8470  142.0140 C   0  0  0  0  0  0  0  0  0  0  0  0
  191.2450  171.2510  143.0660 O   0  0  0  0  0  1  0  0  0  0  0  0
  188.7270  173.7170  138.6050 C   0  0  0  0  0  3  0  0  0  0  0  0
  189.7800  171.9260  139.6090 C   0  0  0  0  0  0  0  0  0  0  0  0
  190.4430  171.1650  140.6890 C   0  0  0  0  0  0  0  0  0  0  0  0
  189.7750  173.5190  144.6490 C   0  0  0  0  0  2  0  0  0  0  0  0
  189.0040  174.5780  146.6240 O   0  0  0  0  0  0  0  0  0  0  0  0
  189.3670  173.7750  141.0730 C   0  0  0  0  0  0  0  0  0  0  0  0
  192.9670  175.8960  144.8680 O   0  0  0  0  0  0  0  0  0  0  0  0
  191.2020  176.5740  143.4270 C   0  0  0  0  0  2  0  0  0  0  0  0
  190.8830  175.5580  145.7570 O   0  0  0  0  0  0  0  0  0  0  0  0
  189.2700  173.2400  139.8600 C   0  0  1  0  0  3  0  0  0  0  0  0
  190.9480  169.9940  140.4830 N   0  0  0  0  0  1  0  0  0  0  0  0
  189.6100  171.5830  138.3800 N   0  0  0  0  0  0  0  0  0  0  0  0
  189.8560  174.5970  145.6980 C   0  0  0  0  0  0  0  0  0  0  0  0
  189.9940  173.0660  142.1570 C   0  0  0  0  0  0  0  0  0  0  0  0
  188.9480  172.7020  137.7570 C   0  0  0  0  0  3  0  0  0  0  0  0
  189.1860  177.5530  142.4200 N   0  0  0  0  0  2  0  0  0  0  0  0
  187.9590  178.0570  143.0110 C   0  0  0  0  0  2  0  0  0  0  0  0
  188.0320  177.9210  144.5250 C   0  0  0  0  0  2  0  0  0  0  0  0
  185.9660  176.6320  144.7630 C   0  0  0  0  0  1  0  0  0  0  0  0
  186.6600  177.9090  145.2160 C   0  0  1  0  0  0  0  0  0  0  0  0
  186.7930  177.8650  146.7580 C   0  0  2  0  0  3  0  0  0  0  0  0
  188.2310  177.8230  147.2550 C   0  0  0  0  0  1  0  0  0  0  0  0
  186.0830  176.7880  147.2970 O   0  0  0  0  0  1  0  0  0  0  0  0
  185.8270  179.1160  144.7390 C   0  0  0  0  0  2  0  0  0  0  0  0
  183.6920  178.8270  145.7750 O   0  0  0  0  0  1  0  0  0  0  0  0
  184.3520  178.8590  144.7040 C   0  0  0  0  0  0  0  0  0  0  0  0
  183.7060  178.6740  143.4890 O   0  0  0  0  0  0  0  0  0  0  0  0
  2 14  2  0  0  0  0
  2 16  1  0  0  0  0
  3 11  1  1  0  0  0
  4 23  1  6  0  0  0
  4 15  1  0  0  0  0
  5  1  1  6  0  0  0
  5  3  1  0  0  0  0
  5  4  1  0  0  0  0
  6 21  1  0  0  0  0
  6  7  1  0  0  0  0
  9 17  1  0  0  0  0
  9 10  1  0  0  0  0
 10  6  2  0  0  0  0
 11 20  1  0  0  0  0
 13  1  1  0  0  0  0
 13 21  2  0  0  0  0
 15  2  1  0  0  0  0
 17  8  1  6  0  0  0
 17 13  1  0  0  0  0
 18 10  1  0  0  0  0
 19  9  2  0  0  0  0
 20 16  1  0  0  0  0
 20 12  2  0  0  0  0
 21  3  1  0  0  0  0
 22 19  1  0  0  0  0
 22  8  2  0  0  0  0
 23 24  1  0  0  0  0
 24 25  1  0  0  0  0
 25 27  1  0  0  0  0
 27 26  1  6  0  0  0
 27 28  1  0  0  0  0
 28 29  1  6  0  0  0
 28 30  1  0  0  0  0
 31 27  1  0  0  0  0
 33 31  1  0  0  0  0
 33 32  1  0  0  0  0
 34 33  2  0  0  0  0
M  END
>  <MODEL>
8

>  <REMARK>
 VINA RESULT:      -6.9      2.854      4.286
  Name = 
  7 active torsions:
  status: ('A' for Active; 'I' for Inactive)
    1  A    between atoms: C_2  and  C_11
    2  A    between atoms: C_3  and  C_21
    3  A    between atoms: C_7  and  N_9
    4  A    between atoms: N_9  and  C_14
    5  A    between atoms: C_11  and  C_21
    6  A    between atoms: C_14  and  C_32
    7  A    between atoms: C_21  and  C_32
                            x       y       z     vdW  Elec       q    Type
                         _______ _______ _______ _____ _____    ______ ____

>  <TORSDO>
F 7

$$$$
=
 OpenBabel11072408283D

 34 37  0  0  1  0  0  0  0  0999 V2000
  190.9900  175.9430  142.8980 N   0  0  0  0  0  2  0  0  0  0  0  0
  187.9010  173.1480  141.7900 C   0  0  0  0  0  0  0  0  0  0  0  0
  190.6890  173.7390  142.2760 C   0  0  1  0  0  3  0  0  0  0  0  0
  189.0070  175.4320  141.6480 C   0  0  1  0  0  3  0  0  0  0  0  0
  190.4450  175.1450  141.8650 N   0  0  1  0  0  0  0  0  0  0  0  0
  192.4690  172.7950  143.8950 C   0  0  0  0  0  0  0  0  0  0  0  0
  192.2690  171.4650  143.5450 O   0  0  0  0  0  1  0  0  0  0  0  0
  192.9380  176.8390  145.2720 C   0  0  0  0  0  3  0  0  0  0  0  0
  193.4770  174.5980  145.3560 C   0  0  0  0  0  0  0  0  0  0  0  0
  193.4130  173.1660  144.9930 C   0  0  0  0  0  0  0  0  0  0  0  0
  190.9180  172.8410  141.0770 C   0  0  0  0  0  2  0  0  0  0  0  0
  190.0130  172.8650  138.8870 O   0  0  0  0  0  0  0  0  0  0  0  0
  191.8850  175.1670  143.6600 C   0  0  0  0  0  0  0  0  0  0  0  0
  187.1940  172.2970  142.3880 O   0  0  0  0  0  0  0  0  0  0  0  0
  188.0430  174.5170  142.4120 C   0  0  0  0  0  2  0  0  0  0  0  0
  188.4080  172.8290  140.5200 O   0  0  0  0  0  0  0  0  0  0  0  0
  192.6750  175.5550  144.6560 C   0  0  0  0  0  0  0  0  0  0  0  0
  194.0950  172.2730  145.6320 N   0  0  0  0  0  2  0  0  0  0  0  0
  194.1620  175.1540  146.2920 N   0  0  0  0  0  0  0  0  0  0  0  0
  189.7560  172.8790  140.1190 C   0  0  0  0  0  0  0  0  0  0  0  0
  191.7990  173.7850  143.2660 C   0  0  0  0  0  0  0  0  0  0  0  0
  193.8270  176.5540  146.2340 C   0  0  0  0  0  3  0  0  0  0  0  0
  188.6850  176.8320  141.8970 N   0  0  0  0  0  2  0  0  0  0  0  0
  187.5520  176.8550  142.8040 C   0  0  0  0  0  2  0  0  0  0  0  0
  187.7810  177.9110  143.8760 C   0  0  0  0  0  2  0  0  0  0  0  0
  186.0060  176.5420  144.8570 C   0  0  0  0  0  1  0  0  0  0  0  0
  186.9670  177.6830  145.1590 C   0  0  1  0  0  0  0  0  0  0  0  0
  187.8680  177.2550  146.3430 C   0  0  2  0  0  3  0  0  0  0  0  0
  189.3470  177.1640  145.9950 C   0  0  0  0  0  1  0  0  0  0  0  0
  187.4420  176.0410  146.8890 O   0  0  0  0  0  1  0  0  0  0  0  0
  186.1420  178.9450  145.4820 C   0  0  0  0  0  2  0  0  0  0  0  0
  185.1810  178.5300  147.6320 O   0  0  0  0  0  1  0  0  0  0  0  0
  184.9850  178.6960  146.4000 C   0  0  0  0  0  0  0  0  0  0  0  0
  183.6910  178.6640  145.8970 O   0  0  0  0  0  0  0  0  0  0  0  0
  1 13  1  0  0  0  0
  2 14  2  0  0  0  0
  2 15  1  0  0  0  0
  3 11  1  6  0  0  0
  3 21  1  0  0  0  0
  4  5  1  0  0  0  0
  4 23  1  1  0  0  0
  4 15  1  0  0  0  0
  5  3  1  0  0  0  0
  5  1  1  1  0  0  0
  6 10  1  0  0  0  0
  7  6  1  0  0  0  0
  8 22  2  0  0  0  0
  9 19  2  0  0  0  0
 10  9  1  0  0  0  0
 10 18  2  0  0  0  0
 12 20  2  0  0  0  0
 13 17  2  0  0  0  0
 16  2  1  0  0  0  0
 17  8  1  0  0  0  0
 17  9  1  0  0  0  0
 20 16  1  0  0  0  0
 20 11  1  0  0  0  0
 21 13  1  0  0  0  0
 21  6  2  0  0  0  0
 22 19  1  0  0  0  0
 23 24  1  0  0  0  0
 24 25  1  0  0  0  0
 25 27  1  0  0  0  0
 27 26  1  6  0  0  0
 27 31  1  0  0  0  0
 27 28  1  0  0  0  0
 28 29  1  6  0  0  0
 28 30  1  0  0  0  0
 31 33  1  0  0  0  0
 33 32  1  0  0  0  0
 34 33  2  0  0  0  0
M  END
>  <MODEL>
9

>  <REMARK>
 VINA RESULT:      -6.8      2.854      4.529
  Name = 
  7 active torsions:
  status: ('A' for Active; 'I' for Inactive)
    1  A    between atoms: C_2  and  C_11
    2  A    between atoms: C_3  and  C_21
    3  A    between atoms: C_7  and  N_9
    4  A    between atoms: N_9  and  C_14
    5  A    between atoms: C_11  and  C_21
    6  A    between atoms: C_14  and  C_32
    7  A    between atoms: C_21  and  C_32
                            x       y       z     vdW  Elec       q    Type
                         _______ _______ _______ _____ _____    ______ ____

>  <TORSDO>
F 7

$$$$
