=
 OpenBabel11062418273D

 48 57  0  0  1  0  0  0  0  0999 V2000
  193.3200  171.8450  142.6430 C   0  0  0  0  0  2  0  0  0  0  0  0
  195.5430  174.3230  140.7890 C   0  0  0  0  0  1  0  0  0  0  0  0
  192.9490  174.8400  144.5640 C   0  0  2  0  0  3  0  0  0  0  0  0
  192.7640  176.3130  144.1940 C   0  0  0  0  0  1  0  0  0  0  0  0
  194.3440  174.4190  144.4250 N   0  0  2  0  0  0  0  0  0  0  0  0
  196.2280  175.7780  142.6930 C   0  0  1  0  0  3  0  0  0  0  0  0
  195.7650  176.4140  143.9910 C   0  0  0  0  0  2  0  0  0  0  0  0
  191.9630  171.2140  142.5740 C   0  0  0  0  0  0  0  0  0  0  0  0
  190.7390  174.1670  143.2090 C   0  0  1  0  0  3  0  0  0  0  0  0
  195.0780  174.9850  142.0790 C   0  0  2  0  0  3  0  0  0  0  0  0
  192.2190  173.9580  143.5580 C   0  0  2  0  0  0  0  0  0  0  0  0
  196.6430  176.7820  141.8160 O   0  0  0  0  0  1  0  0  0  0  0  0
  190.9570  171.7500  143.2750 C   0  0  0  0  0  3  0  0  0  0  0  0
  195.3690  175.3160  144.9710 C   0  0  0  0  0  2  0  0  0  0  0  0
  194.5670  173.9090  143.0490 C   0  0  2  0  0  3  0  0  0  0  0  0
  191.1480  172.9940  144.0980 C   0  0  2  0  0  3  0  0  0  0  0  0
  193.2240  173.3660  142.5600 C   0  0  1  0  0  3  0  0  0  0  0  0
  189.4960  175.9400  144.7780 C   0  0  0  0  0  0  0  0  0  0  0  0
  190.0310  175.1180  144.0750 C   0  0  0  0  0  0  0  0  0  0  0  0
  189.3800  177.1650  146.8690 C   0  0  0  0  0  3  0  0  0  0  0  0
  188.9350  176.9860  145.6160 C   0  0  0  0  0  0  0  0  0  0  0  0
  186.2760  178.5450  147.1670 C   0  0  0  0  0  2  0  0  0  0  0  0
  186.5710  177.2170  144.8130 C   0  0  1  0  0  0  0  0  0  0  0  0
  187.8710  177.8750  145.0020 C   0  0  2  0  0  0  0  0  0  0  0  0
  184.0550  178.8900  146.2350 C   0  0  0  0  0  2  0  0  0  0  0  0
  184.8450  178.2000  147.3460 C   0  0  0  0  0  2  0  0  0  0  0  0
  187.5210  177.3420  143.7030 N   0  0  0  0  0  2  0  0  0  0  0  0
  186.8020  178.0950  146.0460 C   0  0  2  0  0  3  0  0  0  0  0  0
  185.2560  177.7250  144.1970 C   0  0  0  0  0  0  0  0  0  0  0  0
  184.2230  178.3480  144.8320 C   0  0  0  0  0  3  0  0  0  0  0  0
  185.0390  177.3520  142.8620 O   0  0  0  0  0  0  0  0  0  0  0  0
  184.2880  178.1390  141.9400 C   0  0  0  0  0  2  0  0  0  0  0  0
  185.0550  178.3000  140.6370 C   0  0  0  0  0  2  0  0  0  0  0  0
  187.3100  177.8710  139.9290 O   0  0  0  0  0  0  0  0  0  0  0  0
  186.1790  177.2770  140.5140 C   0  0  2  0  0  3  0  0  0  0  0  0
  186.5190  177.0670  139.0900 C   0  0  0  0  0  2  0  0  0  0  0  0
  190.3770  176.3230  147.4860 C   0  0  0  0  0  0  0  0  0  0  0  0
  191.1550  175.6350  147.9970 N   0  0  0  0  0  0  0  0  0  0  0  0
  191.7340  170.0820  141.6300 C   0  0  0  0  0  2  0  0  0  0  0  0
  191.7680  170.5610  140.1890 C   0  0  0  0  0  2  0  0  0  0  0  0
  191.6680  171.9290  137.6620 C   0  0  0  0  0  2  0  0  0  0  0  0
  190.3940  171.1290  139.8070 C   0  0  2  0  0  3  0  0  0  0  0  0
  190.3280  171.6870  138.3740 C   0  0  1  0  0  3  0  0  0  0  0  0
  191.6370  173.4410  139.5480 C   0  0  0  0  0  2  0  0  0  0  0  0
  190.3540  172.6320  139.5550 C   0  0  2  0  0  0  0  0  0  0  0  0
  192.2050  173.2560  138.1580 C   0  0  0  0  0  2  0  0  0  0  0  0
  188.2830  173.6830  138.2080 C   0  0  0  0  0  1  0  0  0  0  0  0
  188.7660  173.4470  139.9470 S   0  0  0  0  0  0  0  0  0  0  0  0
  3  4  1  6  0  0  0
  5  3  1  0  0  0  0
  5 14  1  6  0  0  0
  6 12  1  6  0  0  0
  6  7  1  0  0  0  0
  7 14  1  0  0  0  0
  8  1  1  0  0  0  0
  8 13  2  0  0  0  0
  9 11  1  0  0  0  0
  9 19  1  1  0  0  0
  9 16  1  0  0  0  0
 10  2  1  6  0  0  0
 10  6  1  0  0  0  0
 10 15  1  0  0  0  0
 11 16  1  0  0  0  0
 11  3  1  0  0  0  0
 13 16  1  0  0  0  0
 15  5  1  0  0  0  0
 17  1  1  0  0  0  0
 17 15  1  0  0  0  0
 17 11  1  0  0  0  0
 18 21  1  0  0  0  0
 19 18  3  0  0  0  0
 20 37  1  0  0  0  0
 21 20  2  0  0  0  0
 22 26  1  0  0  0  0
 23 24  1  0  0  0  0
 23 28  1  0  0  0  0
 24 21  1  0  0  0  0
 24 28  1  0  0  0  0
 25 26  1  0  0  0  0
 27 23  1  0  0  0  0
 27 24  1  0  0  0  0
 28 22  1  0  0  0  0
 29 23  1  0  0  0  0
 29 30  2  0  0  0  0
 30 25  1  0  0  0  0
 31 29  1  0  0  0  0
 32 31  1  0  0  0  0
 33 32  1  0  0  0  0
 34 35  1  0  0  0  0
 35 33  1  0  0  0  0
 36 34  1  0  0  0  0
 36 35  1  0  0  0  0
 37 38  3  0  0  0  0
 39  8  1  0  0  0  0
 40 39  1  0  0  0  0
 41 46  1  0  0  0  0
 41 43  1  0  0  0  0
 42 40  1  0  0  0  0
 43 45  1  0  0  0  0
 43 42  1  0  0  0  0
 44 45  1  0  0  0  0
 45 42  1  0  0  0  0
 45 48  1  0  0  0  0
 46 44  1  0  0  0  0
 47 48  1  0  0  0  0
M  END
>  <MODEL>
1

>  <REMARK>
 VINA RESULT:      -7.6      0.000      0.000
  Name = 
  12 active torsions:
  status: ('A' for Active; 'I' for Inactive)
    1  A    between atoms: C_3  and  C_44
    2  A    between atoms: C_4  and  C_5
    3  A    between atoms: C_10  and  C_18
    4  A    between atoms: C_10  and  C_25
    5  A    between atoms: C_15  and  C_20
    6  A    between atoms: C_19  and  C_44
    7  A    between atoms: C_22  and  C_33
    8  A    between atoms: C_25  and  C_30
    9  A    between atoms: C_31  and  C_33
   10  A    between atoms: C_31  and  O_41
   11  A    between atoms: C_40  and  O_41
   12  A    between atoms: S_43  and  C_46
                            x       y       z     vdW  Elec       q    Type
                         _______ _______ _______ _____ _____    ______ ____

>  <TORSDO>
F 12

$$$$
=
 OpenBabel11062418273D

 48 57  0  0  1  0  0  0  0  0999 V2000
  192.2080  171.1470  141.8980 C   0  0  0  0  0  2  0  0  0  0  0  0
  195.5930  172.8540  141.5170 C   0  0  0  0  0  1  0  0  0  0  0  0
  192.2350  173.4780  144.6110 C   0  0  2  0  0  3  0  0  0  0  0  0
  192.6720  174.9370  144.7420 C   0  0  0  0  0  1  0  0  0  0  0  0
  193.3800  172.5660  144.6280 N   0  0  2  0  0  0  0  0  0  0  0  0
  196.0590  173.4000  143.9030 C   0  0  1  0  0  3  0  0  0  0  0  0
  195.4340  173.8410  145.2140 C   0  0  0  0  0  2  0  0  0  0  0  0
  190.8200  171.1650  141.3350 C   0  0  0  0  0  0  0  0  0  0  0  0
  190.4940  174.1160  142.6800 C   0  0  1  0  0  3  0  0  0  0  0  0
  194.9780  173.3210  142.8290 C   0  0  2  0  0  3  0  0  0  0  0  0
  191.6240  173.2410  143.2340 C   0  0  2  0  0  0  0  0  0  0  0  0
  197.0400  174.3210  143.5330 O   0  0  0  0  0  1  0  0  0  0  0  0
  189.8750  171.8840  141.9520 C   0  0  0  0  0  3  0  0  0  0  0  0
  194.4060  172.8040  145.6510 C   0  0  0  0  0  2  0  0  0  0  0  0
  193.8580  172.3530  143.2390 C   0  0  2  0  0  3  0  0  0  0  0  0
  190.1840  172.7050  143.1750 C   0  0  2  0  0  3  0  0  0  0  0  0
  192.6470  172.5440  142.3260 C   0  0  1  0  0  3  0  0  0  0  0  0
  189.3660  175.8170  144.4090 C   0  0  0  0  0  0  0  0  0  0  0  0
  189.8950  175.0380  143.6530 C   0  0  0  0  0  0  0  0  0  0  0  0
  188.9160  176.8490  146.5580 C   0  0  0  0  0  3  0  0  0  0  0  0
  188.6820  176.7940  145.2380 C   0  0  0  0  0  0  0  0  0  0  0  0
  186.0030  178.5170  146.5660 C   0  0  0  0  0  2  0  0  0  0  0  0
  186.4220  177.1930  144.2280 C   0  0  1  0  0  0  0  0  0  0  0  0
  187.7410  177.7600  144.5440 C   0  0  2  0  0  0  0  0  0  0  0  0
  183.9050  179.0210  145.4430 C   0  0  0  0  0  2  0  0  0  0  0  0
  184.5420  178.2680  146.6090 C   0  0  0  0  0  2  0  0  0  0  0  0
  187.4760  177.2630  143.2110 N   0  0  0  0  0  2  0  0  0  0  0  0
  186.5990  178.0420  145.4900 C   0  0  2  0  0  3  0  0  0  0  0  0
  185.2060  177.7950  143.5040 C   0  0  0  0  0  0  0  0  0  0  0  0
  184.1630  178.4820  144.0520 C   0  0  0  0  0  3  0  0  0  0  0  0
  185.0870  177.4510  142.1490 O   0  0  0  0  0  0  0  0  0  0  0  0
  184.5870  178.3410  141.1540 C   0  0  0  0  0  2  0  0  0  0  0  0
  183.2750  177.8190  140.5900 C   0  0  0  0  0  2  0  0  0  0  0  0
  181.3540  178.5270  141.8480 O   0  0  0  0  0  0  0  0  0  0  0  0
  182.1530  178.8410  140.7360 C   0  0  2  0  0  3  0  0  0  0  0  0
  180.8400  178.1770  140.5870 C   0  0  0  0  0  2  0  0  0  0  0  0
  189.7900  175.9310  147.2480 C   0  0  0  0  0  0  0  0  0  0  0  0
  190.5100  175.1940  147.7780 N   0  0  0  0  0  0  0  0  0  0  0  0
  190.5530  170.4890  140.0330 C   0  0  0  0  0  2  0  0  0  0  0  0
  191.6770  170.7480  139.0450 C   0  0  0  0  0  2  0  0  0  0  0  0
  193.4600  172.6310  137.8040 C   0  0  0  0  0  2  0  0  0  0  0  0
  191.1150  171.4640  137.8090 C   0  0  2  0  0  3  0  0  0  0  0  0
  192.1520  172.3210  137.0600 C   0  0  1  0  0  3  0  0  0  0  0  0
  191.7050  173.7020  139.0750 C   0  0  0  0  0  2  0  0  0  0  0  0
  191.0790  172.9860  137.8940 C   0  0  2  0  0  0  0  0  0  0  0  0
  193.1780  173.7870  138.7420 C   0  0  0  0  0  2  0  0  0  0  0  0
  190.2480  173.1080  135.3430 C   0  0  0  0  0  1  0  0  0  0  0  0
  189.7350  173.7890  136.9520 S   0  0  0  0  0  0  0  0  0  0  0  0
  1 17  1  0  0  0  0
  3  5  1  0  0  0  0
  3  4  1  6  0  0  0
  5 14  1  1  0  0  0
  6 12  1  6  0  0  0
  6  7  1  0  0  0  0
  7 14  1  0  0  0  0
  8  1  1  0  0  0  0
  8 13  2  0  0  0  0
  9 16  1  0  0  0  0
  9 11  1  0  0  0  0
  9 19  1  1  0  0  0
 10  2  1  6  0  0  0
 10 15  1  0  0  0  0
 10  6  1  0  0  0  0
 11  3  1  0  0  0  0
 13 16  1  0  0  0  0
 15  5  1  0  0  0  0
 16 11  1  0  0  0  0
 17 11  1  0  0  0  0
 17 15  1  0  0  0  0
 18 21  1  0  0  0  0
 19 18  3  0  0  0  0
 20 37  1  0  0  0  0
 21 20  2  0  0  0  0
 22 26  1  0  0  0  0
 23 24  1  0  0  0  0
 23 28  1  0  0  0  0
 24 21  1  0  0  0  0
 24 28  1  0  0  0  0
 25 26  1  0  0  0  0
 27 23  1  0  0  0  0
 27 24  1  0  0  0  0
 28 22  1  0  0  0  0
 29 30  2  0  0  0  0
 29 23  1  0  0  0  0
 30 25  1  0  0  0  0
 31 29  1  0  0  0  0
 32 31  1  0  0  0  0
 33 35  1  0  0  0  0
 33 32  1  0  0  0  0
 35 34  1  0  0  0  0
 36 35  1  0  0  0  0
 36 34  1  0  0  0  0
 37 38  3  0  0  0  0
 39  8  1  0  0  0  0
 40 39  1  0  0  0  0
 41 46  1  0  0  0  0
 42 45  1  0  0  0  0
 42 40  1  0  0  0  0
 43 41  1  0  0  0  0
 43 42  1  0  0  0  0
 43 45  1  0  0  0  0
 45 44  1  0  0  0  0
 46 44  1  0  0  0  0
 47 48  1  0  0  0  0
 48 45  1  0  0  0  0
M  END
>  <MODEL>
2

>  <REMARK>
 VINA RESULT:      -7.0      1.550      2.114
  Name = 
  12 active torsions:
  status: ('A' for Active; 'I' for Inactive)
    1  A    between atoms: C_3  and  C_44
    2  A    between atoms: C_4  and  C_5
    3  A    between atoms: C_10  and  C_18
    4  A    between atoms: C_10  and  C_25
    5  A    between atoms: C_15  and  C_20
    6  A    between atoms: C_19  and  C_44
    7  A    between atoms: C_22  and  C_33
    8  A    between atoms: C_25  and  C_30
    9  A    between atoms: C_31  and  C_33
   10  A    between atoms: C_31  and  O_41
   11  A    between atoms: C_40  and  O_41
   12  A    between atoms: S_43  and  C_46
                            x       y       z     vdW  Elec       q    Type
                         _______ _______ _______ _____ _____    ______ ____

>  <TORSDO>
F 12

$$$$
=
 OpenBabel11062418273D

 48 57  0  0  1  0  0  0  0  0999 V2000
  190.8070  176.4500  145.2450 C   0  0  0  0  0  2  0  0  0  0  0  0
  194.4380  175.8910  146.2530 C   0  0  0  0  0  1  0  0  0  0  0  0
  192.1890  174.8210  142.3760 C   0  0  2  0  0  3  0  0  0  0  0  0
  193.1380  173.6350  142.1920 C   0  0  0  0  0  1  0  0  0  0  0  0
  192.9110  176.0390  142.7450 N   0  0  2  0  0  0  0  0  0  0  0  0
  195.5180  175.9950  144.0100 C   0  0  1  0  0  3  0  0  0  0  0  0
  195.3570  175.6360  142.5440 C   0  0  0  0  0  2  0  0  0  0  0  0
  189.4370  175.8750  145.4420 C   0  0  0  0  0  0  0  0  0  0  0  0
  190.4570  173.2940  143.7320 C   0  0  1  0  0  3  0  0  0  0  0  0
  194.2970  175.5120  144.7850 C   0  0  2  0  0  3  0  0  0  0  0  0
  191.2820  174.5780  143.5770 C   0  0  2  0  0  0  0  0  0  0  0  0
  196.6740  175.3880  144.5040 O   0  0  0  0  0  1  0  0  0  0  0  0
  188.9510  175.0220  144.5330 C   0  0  0  0  0  3  0  0  0  0  0  0
  194.1300  176.3470  141.9870 C   0  0  0  0  0  2  0  0  0  0  0  0
  193.0050  176.1250  144.2240 C   0  0  2  0  0  3  0  0  0  0  0  0
  189.7630  174.5970  143.3400 C   0  0  2  0  0  3  0  0  0  0  0  0
  191.7920  175.3800  144.7830 C   0  0  1  0  0  3  0  0  0  0  0  0
  190.4240  171.7740  141.5320 C   0  0  0  0  0  0  0  0  0  0  0  0
  190.4280  172.4330  142.5430 C   0  0  0  0  0  0  0  0  0  0  0  0
  190.8590  169.7940  140.1990 C   0  0  0  0  0  3  0  0  0  0  0  0
  190.4380  171.0660  140.2630 C   0  0  0  0  0  0  0  0  0  0  0  0
  190.0810  169.9120  137.0310 C   0  0  0  0  0  2  0  0  0  0  0  0
  190.9720  172.2420  138.1140 C   0  0  1  0  0  0  0  0  0  0  0  0
  189.9210  171.8090  139.0460 C   0  0  2  0  0  0  0  0  0  0  0  0
  190.4450  171.1850  134.9900 C   0  0  0  0  0  2  0  0  0  0  0  0
  190.9240  169.9910  135.8140 C   0  0  0  0  0  2  0  0  0  0  0  0
  190.4080  173.1710  139.0980 N   0  0  0  0  0  2  0  0  0  0  0  0
  190.2000  170.9490  137.8360 C   0  0  2  0  0  3  0  0  0  0  0  0
  190.8990  173.0450  136.8040 C   0  0  0  0  0  0  0  0  0  0  0  0
  190.7470  172.5640  135.5370 C   0  0  0  0  0  3  0  0  0  0  0  0
  191.1850  174.4130  136.9260 O   0  0  0  0  0  0  0  0  0  0  0  0
  191.4860  175.2540  135.8150 C   0  0  0  0  0  2  0  0  0  0  0  0
  192.7190  176.0930  136.1060 C   0  0  0  0  0  2  0  0  0  0  0  0
  194.4830  177.3800  135.1040 O   0  0  0  0  0  0  0  0  0  0  0  0
  193.2240  176.8080  134.8580 C   0  0  2  0  0  3  0  0  0  0  0  0
  193.3810  178.2530  135.1290 C   0  0  0  0  0  2  0  0  0  0  0  0
  191.3730  169.0690  141.3360 C   0  0  0  0  0  0  0  0  0  0  0  0
  191.7740  168.4630  142.2370 N   0  0  0  0  0  0  0  0  0  0  0  0
  188.7010  176.1650  146.7060 C   0  0  0  0  0  2  0  0  0  0  0  0
  188.0230  177.5220  146.6400 C   0  0  0  0  0  2  0  0  0  0  0  0
  185.6160  179.0810  146.4250 C   0  0  0  0  0  2  0  0  0  0  0  0
  187.5370  177.7820  145.2070 C   0  0  2  0  0  3  0  0  0  0  0  0
  186.3600  178.7700  145.1180 C   0  0  1  0  0  3  0  0  0  0  0  0
  185.2510  176.7300  145.9970 C   0  0  0  0  0  2  0  0  0  0  0  0
  186.1280  177.2920  144.8950 C   0  0  2  0  0  0  0  0  0  0  0  0
  184.6460  177.9430  146.6690 C   0  0  0  0  0  2  0  0  0  0  0  0
  187.2390  177.7490  142.4930 C   0  0  0  0  0  1  0  0  0  0  0  0
  185.8410  176.7930  143.1610 S   0  0  0  0  0  0  0  0  0  0  0  0
  1  8  1  0  0  0  0
  3  4  1  1  0  0  0
  3  5  1  0  0  0  0
  3 11  1  0  0  0  0
  5 14  1  6  0  0  0
  5 15  1  0  0  0  0
  6 12  1  1  0  0  0
  6 10  1  0  0  0  0
  7  6  1  0  0  0  0
  8 39  1  0  0  0  0
  9 19  1  6  0  0  0
 10  2  1  1  0  0  0
 11  9  1  0  0  0  0
 11 17  1  0  0  0  0
 13  8  2  0  0  0  0
 14  7  1  0  0  0  0
 15 17  1  0  0  0  0
 15 10  1  0  0  0  0
 16 11  1  0  0  0  0
 16  9  1  0  0  0  0
 16 13  1  0  0  0  0
 17  1  1  0  0  0  0
 18 19  3  0  0  0  0
 20 21  2  0  0  0  0
 20 37  1  0  0  0  0
 21 18  1  0  0  0  0
 22 28  1  0  0  0  0
 23 24  1  0  0  0  0
 23 27  1  0  0  0  0
 24 27  1  0  0  0  0
 24 21  1  0  0  0  0
 25 30  1  0  0  0  0
 25 26  1  0  0  0  0
 26 22  1  0  0  0  0
 28 23  1  0  0  0  0
 28 24  1  0  0  0  0
 29 31  1  0  0  0  0
 29 23  1  0  0  0  0
 30 29  2  0  0  0  0
 32 33  1  0  0  0  0
 32 31  1  0  0  0  0
 34 36  1  0  0  0  0
 35 34  1  0  0  0  0
 35 36  1  0  0  0  0
 35 33  1  0  0  0  0
 37 38  3  0  0  0  0
 40 39  1  0  0  0  0
 41 46  1  0  0  0  0
 42 40  1  0  0  0  0
 43 42  1  0  0  0  0
 43 41  1  0  0  0  0
 44 46  1  0  0  0  0
 45 43  1  0  0  0  0
 45 42  1  0  0  0  0
 45 44  1  0  0  0  0
 47 48  1  0  0  0  0
 48 45  1  0  0  0  0
M  END
>  <MODEL>
3

>  <REMARK>
 VINA RESULT:      -7.0      2.819      8.233
  Name = 
  12 active torsions:
  status: ('A' for Active; 'I' for Inactive)
    1  A    between atoms: C_3  and  C_44
    2  A    between atoms: C_4  and  C_5
    3  A    between atoms: C_10  and  C_18
    4  A    between atoms: C_10  and  C_25
    5  A    between atoms: C_15  and  C_20
    6  A    between atoms: C_19  and  C_44
    7  A    between atoms: C_22  and  C_33
    8  A    between atoms: C_25  and  C_30
    9  A    between atoms: C_31  and  C_33
   10  A    between atoms: C_31  and  O_41
   11  A    between atoms: C_40  and  O_41
   12  A    between atoms: S_43  and  C_46
                            x       y       z     vdW  Elec       q    Type
                         _______ _______ _______ _____ _____    ______ ____

>  <TORSDO>
F 12

$$$$
=
 OpenBabel11062418273D

 48 57  0  0  1  0  0  0  0  0999 V2000
  191.2020  177.3590  144.5020 C   0  0  0  0  0  2  0  0  0  0  0  0
  194.3310  175.9410  146.1480 C   0  0  0  0  0  1  0  0  0  0  0  0
  192.4470  175.0950  142.0280 C   0  0  2  0  0  3  0  0  0  0  0  0
  193.0270  173.6810  142.0900 C   0  0  0  0  0  1  0  0  0  0  0  0
  193.4310  176.1020  142.4300 N   0  0  2  0  0  0  0  0  0  0  0  0
  195.7040  175.4860  144.1190 C   0  0  1  0  0  3  0  0  0  0  0  0
  195.6580  175.0200  142.6750 C   0  0  0  0  0  2  0  0  0  0  0  0
  189.7110  177.2100  144.5020 C   0  0  0  0  0  0  0  0  0  0  0  0
  190.1710  174.2700  143.1720 C   0  0  1  0  0  3  0  0  0  0  0  0
  194.2970  175.4500  144.7070 C   0  0  2  0  0  3  0  0  0  0  0  0
  191.3470  175.2510  143.0710 C   0  0  2  0  0  0  0  0  0  0  0  0
  196.5510  174.6450  144.8420 O   0  0  0  0  0  1  0  0  0  0  0  0
  189.1330  176.4260  143.5850 C   0  0  0  0  0  3  0  0  0  0  0  0
  194.7830  175.9730  141.8710 C   0  0  0  0  0  2  0  0  0  0  0  0
  193.3330  176.3270  143.8940 C   0  0  2  0  0  3  0  0  0  0  0  0
  189.9490  175.6600  142.5790 C   0  0  2  0  0  3  0  0  0  0  0  0
  191.8890  176.0140  144.2880 C   0  0  1  0  0  3  0  0  0  0  0  0
  190.0350  172.5230  141.1530 C   0  0  0  0  0  0  0  0  0  0  0  0
  190.0640  173.3210  142.0570 C   0  0  0  0  0  0  0  0  0  0  0  0
  190.7840  170.4040  140.2370 C   0  0  0  0  0  3  0  0  0  0  0  0
  190.0980  171.5470  140.0780 C   0  0  0  0  0  0  0  0  0  0  0  0
  190.3700  170.0520  136.9800 C   0  0  0  0  0  2  0  0  0  0  0  0
  190.0950  172.6260  137.8150 C   0  0  1  0  0  0  0  0  0  0  0  0
  189.3300  171.8580  138.8090 C   0  0  2  0  0  0  0  0  0  0  0  0
  190.1680  171.1530  134.8200 C   0  0  0  0  0  2  0  0  0  0  0  0
  191.1140  170.3850  135.7410 C   0  0  0  0  0  2  0  0  0  0  0  0
  189.1520  173.2910  138.7200 N   0  0  0  0  0  2  0  0  0  0  0  0
  189.9920  171.1040  137.6800 C   0  0  2  0  0  3  0  0  0  0  0  0
  189.6970  173.1810  136.4380 C   0  0  0  0  0  0  0  0  0  0  0  0
  189.8060  172.5650  135.2260 C   0  0  0  0  0  3  0  0  0  0  0  0
  189.3350  174.5360  136.4220 O   0  0  0  0  0  0  0  0  0  0  0  0
  188.8420  175.2040  135.2620 C   0  0  0  0  0  2  0  0  0  0  0  0
  187.6020  176.0140  135.6070 C   0  0  0  0  0  2  0  0  0  0  0  0
  185.6470  176.0190  137.0030 O   0  0  0  0  0  0  0  0  0  0  0  0
  186.9660  175.5440  136.9100 C   0  0  2  0  0  3  0  0  0  0  0  0
  186.6160  176.7090  137.7520 C   0  0  0  0  0  2  0  0  0  0  0  0
  191.5400  170.0900  141.4260 C   0  0  0  0  0  0  0  0  0  0  0  0
  192.1240  169.8490  142.3970 N   0  0  0  0  0  0  0  0  0  0  0  0
  188.9170  177.8350  145.5990 C   0  0  0  0  0  2  0  0  0  0  0  0
  187.4820  177.3390  145.5820 C   0  0  0  0  0  2  0  0  0  0  0  0
  185.7900  179.1870  146.9920 C   0  0  0  0  0  2  0  0  0  0  0  0
  186.6340  178.2580  144.6930 C   0  0  2  0  0  3  0  0  0  0  0  0
  185.8840  179.3560  145.4680 C   0  0  1  0  0  3  0  0  0  0  0  0
  184.5640  177.3320  146.0410 C   0  0  0  0  0  2  0  0  0  0  0  0
  185.1280  178.1720  144.9100 C   0  0  2  0  0  0  0  0  0  0  0  0
  184.6580  178.2170  147.2650 C   0  0  0  0  0  2  0  0  0  0  0  0
  185.2260  177.6730  142.2740 C   0  0  0  0  0  1  0  0  0  0  0  0
  184.1050  178.5140  143.4350 S   0  0  0  0  0  0  0  0  0  0  0  0
  1  8  1  0  0  0  0
  3  4  1  1  0  0  0
  3  5  1  0  0  0  0
  3 11  1  0  0  0  0
  5 14  1  1  0  0  0
  5 15  1  0  0  0  0
  6 10  1  0  0  0  0
  6 12  1  1  0  0  0
  7  6  1  0  0  0  0
  8 39  1  0  0  0  0
  9 19  1  6  0  0  0
 10  2  1  1  0  0  0
 11  9  1  0  0  0  0
 11 17  1  0  0  0  0
 13  8  2  0  0  0  0
 14  7  1  0  0  0  0
 15 17  1  0  0  0  0
 15 10  1  0  0  0  0
 16 11  1  0  0  0  0
 16  9  1  0  0  0  0
 16 13  1  0  0  0  0
 17  1  1  0  0  0  0
 18 19  3  0  0  0  0
 20 37  1  0  0  0  0
 21 20  2  0  0  0  0
 21 18  1  0  0  0  0
 22 28  1  0  0  0  0
 23 27  1  0  0  0  0
 23 24  1  0  0  0  0
 24 21  1  0  0  0  0
 25 30  1  0  0  0  0
 25 26  1  0  0  0  0
 26 22  1  0  0  0  0
 27 24  1  0  0  0  0
 28 23  1  0  0  0  0
 28 24  1  0  0  0  0
 29 23  1  0  0  0  0
 30 29  2  0  0  0  0
 31 29  1  0  0  0  0
 32 33  1  0  0  0  0
 32 31  1  0  0  0  0
 33 35  1  0  0  0  0
 34 36  1  0  0  0  0
 35 34  1  0  0  0  0
 35 36  1  0  0  0  0
 37 38  3  0  0  0  0
 40 39  1  0  0  0  0
 41 46  1  0  0  0  0
 42 45  1  0  0  0  0
 42 43  1  0  0  0  0
 42 40  1  0  0  0  0
 43 41  1  0  0  0  0
 44 46  1  0  0  0  0
 45 43  1  0  0  0  0
 45 44  1  0  0  0  0
 47 48  1  0  0  0  0
 48 45  1  0  0  0  0
M  END
>  <MODEL>
4

>  <REMARK>
 VINA RESULT:      -6.9      2.546      7.975
  Name = 
  12 active torsions:
  status: ('A' for Active; 'I' for Inactive)
    1  A    between atoms: C_3  and  C_44
    2  A    between atoms: C_4  and  C_5
    3  A    between atoms: C_10  and  C_18
    4  A    between atoms: C_10  and  C_25
    5  A    between atoms: C_15  and  C_20
    6  A    between atoms: C_19  and  C_44
    7  A    between atoms: C_22  and  C_33
    8  A    between atoms: C_25  and  C_30
    9  A    between atoms: C_31  and  C_33
   10  A    between atoms: C_31  and  O_41
   11  A    between atoms: C_40  and  O_41
   12  A    between atoms: S_43  and  C_46
                            x       y       z     vdW  Elec       q    Type
                         _______ _______ _______ _____ _____    ______ ____

>  <TORSDO>
F 12

$$$$
=
 OpenBabel11062418273D

 48 57  0  0  1  0  0  0  0  0999 V2000
  193.3080  175.0530  144.1370 C   0  0  0  0  0  2  0  0  0  0  0  0
  192.2760  171.4280  143.5880 C   0  0  0  0  0  1  0  0  0  0  0  0
  189.8950  175.3450  143.1090 C   0  0  2  0  0  3  0  0  0  0  0  0
  188.6200  174.5730  143.4560 C   0  0  0  0  0  1  0  0  0  0  0  0
  190.7220  174.6170  142.1460 N   0  0  2  0  0  0  0  0  0  0  0  0
  190.5680  171.7440  141.8010 C   0  0  1  0  0  3  0  0  0  0  0  0
  189.4580  172.6490  141.2990 C   0  0  0  0  0  2  0  0  0  0  0  0
  193.5110  176.0580  145.2300 C   0  0  0  0  0  0  0  0  0  0  0  0
  190.2840  175.9650  145.6850 C   0  0  1  0  0  3  0  0  0  0  0  0
  191.1440  172.3170  143.0920 C   0  0  2  0  0  3  0  0  0  0  0  0
  190.7940  175.4390  144.3360 C   0  0  2  0  0  0  0  0  0  0  0  0
  190.0480  170.4690  142.0290 O   0  0  0  0  0  1  0  0  0  0  0  0
  192.5180  176.9040  145.5300 C   0  0  0  0  0  3  0  0  0  0  0  0
  190.0360  174.0240  140.9910 C   0  0  0  0  0  2  0  0  0  0  0  0
  191.6740  173.7430  142.8780 C   0  0  2  0  0  3  0  0  0  0  0  0
  191.1910  176.8430  144.8240 C   0  0  2  0  0  3  0  0  0  0  0  0
  191.9280  174.4100  144.2300 C   0  0  1  0  0  3  0  0  0  0  0  0
  187.8340  177.0300  145.5800 C   0  0  0  0  0  0  0  0  0  0  0  0
  188.9510  176.5780  145.6420 C   0  0  0  0  0  0  0  0  0  0  0  0
  185.9290  178.3050  146.3780 C   0  0  0  0  0  3  0  0  0  0  0  0
  186.4630  177.4930  145.4520 C   0  0  0  0  0  0  0  0  0  0  0  0
  187.5360  177.3720  142.1750 C   0  0  0  0  0  2  0  0  0  0  0  0
  185.2290  178.1660  143.3750 C   0  0  1  0  0  0  0  0  0  0  0  0
  185.6930  177.0570  144.2210 C   0  0  2  0  0  0  0  0  0  0  0  0
  186.2080  177.8670  140.1970 C   0  0  0  0  0  2  0  0  0  0  0  0
  187.4200  178.2970  141.0210 C   0  0  0  0  0  2  0  0  0  0  0  0
  184.3290  177.5270  144.3410 N   0  0  0  0  0  2  0  0  0  0  0  0
  186.5190  177.4270  143.0120 C   0  0  2  0  0  3  0  0  0  0  0  0
  184.3930  178.1780  142.0850 C   0  0  0  0  0  0  0  0  0  0  0  0
  184.8420  178.1190  140.7980 C   0  0  0  0  0  3  0  0  0  0  0  0
  183.0270  178.4440  142.2600 O   0  0  0  0  0  0  0  0  0  0  0  0
  182.0510  178.2510  141.2380 C   0  0  0  0  0  2  0  0  0  0  0  0
  180.7320  178.8890  141.6400 C   0  0  0  0  0  2  0  0  0  0  0  0
  178.3390  178.6900  141.5440 O   0  0  0  0  0  0  0  0  0  0  0  0
  179.5400  178.0700  141.1570 C   0  0  2  0  0  3  0  0  0  0  0  0
  178.7530  177.5880  142.3130 C   0  0  0  0  0  2  0  0  0  0  0  0
  186.6310  178.7210  147.5680 C   0  0  0  0  0  0  0  0  0  0  0  0
  187.1700  179.0670  148.5330 N   0  0  0  0  0  0  0  0  0  0  0  0
  194.7610  176.0110  146.0410 C   0  0  0  0  0  2  0  0  0  0  0  0
  195.8300  175.1870  145.3440 C   0  0  0  0  0  2  0  0  0  0  0  0
  197.9270  173.4960  144.3400 C   0  0  0  0  0  2  0  0  0  0  0  0
  195.9690  173.8300  146.0470 C   0  0  2  0  0  3  0  0  0  0  0  0
  197.2110  173.0290  145.6160 C   0  0  1  0  0  3  0  0  0  0  0  0
  195.7280  172.7760  143.6400 C   0  0  0  0  0  2  0  0  0  0  0  0
  195.8370  172.6090  145.1440 C   0  0  2  0  0  0  0  0  0  0  0  0
  197.1550  172.9360  143.1630 C   0  0  0  0  0  2  0  0  0  0  0  0
  195.7290  169.9710  144.6510 C   0  0  0  0  0  1  0  0  0  0  0  0
  195.1520  171.1160  145.9440 S   0  0  0  0  0  0  0  0  0  0  0  0
  1 17  1  0  0  0  0
  1  8  1  0  0  0  0
  3  4  1  1  0  0  0
  3 11  1  0  0  0  0
  5 14  1  6  0  0  0
  5 15  1  0  0  0  0
  5  3  1  0  0  0  0
  6 12  1  1  0  0  0
  6 10  1  0  0  0  0
  7  6  1  0  0  0  0
  8 13  2  0  0  0  0
  8 39  1  0  0  0  0
  9 19  1  6  0  0  0
 10  2  1  6  0  0  0
 11 16  1  0  0  0  0
 11  9  1  0  0  0  0
 14  7  1  0  0  0  0
 15 10  1  0  0  0  0
 15 17  1  0  0  0  0
 16 13  1  0  0  0  0
 16  9  1  0  0  0  0
 17 11  1  0  0  0  0
 18 19  3  0  0  0  0
 20 37  1  0  0  0  0
 21 18  1  0  0  0  0
 21 20  2  0  0  0  0
 22 28  1  0  0  0  0
 23 24  1  0  0  0  0
 23 27  1  0  0  0  0
 24 27  1  0  0  0  0
 24 21  1  0  0  0  0
 25 30  1  0  0  0  0
 25 26  1  0  0  0  0
 26 22  1  0  0  0  0
 28 23  1  0  0  0  0
 28 24  1  0  0  0  0
 29 31  1  0  0  0  0
 29 23  1  0  0  0  0
 30 29  2  0  0  0  0
 32 33  1  0  0  0  0
 32 31  1  0  0  0  0
 34 36  1  0  0  0  0
 35 34  1  0  0  0  0
 35 33  1  0  0  0  0
 35 36  1  0  0  0  0
 37 38  3  0  0  0  0
 40 39  1  0  0  0  0
 40 42  1  0  0  0  0
 41 43  1  0  0  0  0
 43 42  1  0  0  0  0
 44 45  1  0  0  0  0
 45 43  1  0  0  0  0
 45 48  1  0  0  0  0
 45 42  1  0  0  0  0
 46 44  1  0  0  0  0
 46 41  1  0  0  0  0
 47 48  1  0  0  0  0
M  END
>  <MODEL>
5

>  <REMARK>
 VINA RESULT:      -6.9      2.995      5.906
  Name = 
  12 active torsions:
  status: ('A' for Active; 'I' for Inactive)
    1  A    between atoms: C_3  and  C_44
    2  A    between atoms: C_4  and  C_5
    3  A    between atoms: C_10  and  C_18
    4  A    between atoms: C_10  and  C_25
    5  A    between atoms: C_15  and  C_20
    6  A    between atoms: C_19  and  C_44
    7  A    between atoms: C_22  and  C_33
    8  A    between atoms: C_25  and  C_30
    9  A    between atoms: C_31  and  C_33
   10  A    between atoms: C_31  and  O_41
   11  A    between atoms: C_40  and  O_41
   12  A    between atoms: S_43  and  C_46
                            x       y       z     vdW  Elec       q    Type
                         _______ _______ _______ _____ _____    ______ ____

>  <TORSDO>
F 12

$$$$
=
 OpenBabel11062418273D

 48 57  0  0  1  0  0  0  0  0999 V2000
  191.2770  176.5050  144.9550 C   0  0  0  0  0  2  0  0  0  0  0  0
  194.9540  177.4310  145.3280 C   0  0  0  0  0  1  0  0  0  0  0  0
  192.9080  174.1820  142.7780 C   0  0  2  0  0  3  0  0  0  0  0  0
  194.1760  173.3350  142.9000 C   0  0  0  0  0  1  0  0  0  0  0  0
  193.2180  175.5770  142.4620 N   0  0  2  0  0  0  0  0  0  0  0  0
  195.7790  176.7900  143.0660 C   0  0  1  0  0  3  0  0  0  0  0  0
  195.6420  175.7820  141.9400 C   0  0  0  0  0  2  0  0  0  0  0  0
  190.1870  175.7450  145.6480 C   0  0  0  0  0  0  0  0  0  0  0  0
  191.8690  173.0380  144.9650 C   0  0  1  0  0  3  0  0  0  0  0  0
  194.8400  176.4090  144.2050 C   0  0  2  0  0  3  0  0  0  0  0  0
  192.2170  174.2790  144.1330 C   0  0  2  0  0  0  0  0  0  0  0  0
  197.1020  176.7970  143.5130 O   0  0  0  0  0  1  0  0  0  0  0  0
  189.9420  174.4800  145.2860 C   0  0  0  0  0  3  0  0  0  0  0  0
  194.2140  175.8170  141.4100 C   0  0  0  0  0  2  0  0  0  0  0  0
  193.3830  176.3410  143.7240 C   0  0  2  0  0  3  0  0  0  0  0  0
  190.7620  173.7910  144.2290 C   0  0  2  0  0  3  0  0  0  0  0  0
  192.5210  175.6400  144.7750 C   0  0  1  0  0  3  0  0  0  0  0  0
  192.1670  170.7390  143.6310 C   0  0  0  0  0  0  0  0  0  0  0  0
  192.0380  171.7590  144.2620 C   0  0  0  0  0  0  0  0  0  0  0  0
  192.7590  168.4090  143.2970 C   0  0  0  0  0  3  0  0  0  0  0  0
  192.2930  169.5610  142.7900 C   0  0  0  0  0  0  0  0  0  0  0  0
  194.0280  170.8240  140.0880 C   0  0  0  0  0  2  0  0  0  0  0  0
  191.4590  171.0460  140.9500 C   0  0  1  0  0  0  0  0  0  0  0  0
  191.8390  169.6830  141.3480 C   0  0  2  0  0  0  0  0  0  0  0  0
  193.0990  172.1060  138.2410 C   0  0  0  0  0  2  0  0  0  0  0  0
  194.0680  172.1470  139.4210 C   0  0  0  0  0  2  0  0  0  0  0  0
  190.4420  170.0630  141.3380 N   0  0  0  0  0  2  0  0  0  0  0  0
  192.8590  170.5240  140.6190 C   0  0  2  0  0  3  0  0  0  0  0  0
  190.9110  171.6010  139.6240 C   0  0  0  0  0  0  0  0  0  0  0  0
  191.6200  172.0860  138.5650 C   0  0  0  0  0  3  0  0  0  0  0  0
  189.5190  171.7710  139.5780 O   0  0  0  0  0  0  0  0  0  0  0  0
  188.8840  173.0480  139.5870 C   0  0  0  0  0  2  0  0  0  0  0  0
  189.1220  173.7470  140.9150 C   0  0  0  0  0  2  0  0  0  0  0  0
  188.8490  175.8630  142.0200 O   0  0  0  0  0  0  0  0  0  0  0  0
  188.2990  175.0250  141.0350 C   0  0  2  0  0  3  0  0  0  0  0  0
  187.7110  175.1240  142.3890 C   0  0  0  0  0  2  0  0  0  0  0  0
  193.2160  168.2690  144.6590 C   0  0  0  0  0  0  0  0  0  0  0  0
  193.5970  168.1820  145.7490 N   0  0  0  0  0  0  0  0  0  0  0  0
  189.4870  176.3700  146.8060 C   0  0  0  0  0  2  0  0  0  0  0  0
  187.9800  176.3210  146.6220 C   0  0  0  0  0  2  0  0  0  0  0  0
  186.3280  178.5070  147.4930 C   0  0  0  0  0  2  0  0  0  0  0  0
  187.5680  177.3090  145.5210 C   0  0  2  0  0  3  0  0  0  0  0  0
  186.8460  178.5620  146.0470 C   0  0  1  0  0  3  0  0  0  0  0  0
  185.0890  176.8220  146.2810 C   0  0  0  0  0  2  0  0  0  0  0  0
  186.0660  177.4840  145.3280 C   0  0  2  0  0  0  0  0  0  0  0  0
  185.0130  177.7550  147.4690 C   0  0  0  0  0  2  0  0  0  0  0  0
  185.5660  179.6950  143.8900 C   0  0  0  0  0  1  0  0  0  0  0  0
  185.5400  177.8940  143.6270 S   0  0  0  0  0  0  0  0  0  0  0  0
  1  8  1  0  0  0  0
  3  4  1  1  0  0  0
  3 11  1  0  0  0  0
  5 14  1  1  0  0  0
  5  3  1  0  0  0  0
  5 15  1  0  0  0  0
  6 12  1  1  0  0  0
  6 10  1  0  0  0  0
  7  6  1  0  0  0  0
  8 39  1  0  0  0  0
  9 19  1  6  0  0  0
 10  2  1  1  0  0  0
 11 16  1  0  0  0  0
 11 17  1  0  0  0  0
 11  9  1  0  0  0  0
 13  8  2  0  0  0  0
 14  7  1  0  0  0  0
 15 10  1  0  0  0  0
 15 17  1  0  0  0  0
 16  9  1  0  0  0  0
 16 13  1  0  0  0  0
 17  1  1  0  0  0  0
 18 19  3  0  0  0  0
 20 37  1  0  0  0  0
 21 20  2  0  0  0  0
 21 18  1  0  0  0  0
 22 28  1  0  0  0  0
 23 27  1  0  0  0  0
 23 24  1  0  0  0  0
 24 21  1  0  0  0  0
 25 30  1  0  0  0  0
 25 26  1  0  0  0  0
 26 22  1  0  0  0  0
 27 24  1  0  0  0  0
 28 23  1  0  0  0  0
 28 24  1  0  0  0  0
 29 23  1  0  0  0  0
 30 29  2  0  0  0  0
 31 32  1  0  0  0  0
 31 29  1  0  0  0  0
 32 33  1  0  0  0  0
 33 35  1  0  0  0  0
 34 36  1  0  0  0  0
 35 34  1  0  0  0  0
 35 36  1  0  0  0  0
 37 38  3  0  0  0  0
 40 39  1  0  0  0  0
 42 43  1  0  0  0  0
 42 40  1  0  0  0  0
 43 41  1  0  0  0  0
 44 46  1  0  0  0  0
 45 42  1  0  0  0  0
 45 43  1  0  0  0  0
 45 44  1  0  0  0  0
 46 41  1  0  0  0  0
 48 47  1  0  0  0  0
 48 45  1  0  0  0  0
M  END
>  <MODEL>
6

>  <REMARK>
 VINA RESULT:      -6.8      2.466      7.719
  Name = 
  12 active torsions:
  status: ('A' for Active; 'I' for Inactive)
    1  A    between atoms: C_3  and  C_44
    2  A    between atoms: C_4  and  C_5
    3  A    between atoms: C_10  and  C_18
    4  A    between atoms: C_10  and  C_25
    5  A    between atoms: C_15  and  C_20
    6  A    between atoms: C_19  and  C_44
    7  A    between atoms: C_22  and  C_33
    8  A    between atoms: C_25  and  C_30
    9  A    between atoms: C_31  and  C_33
   10  A    between atoms: C_31  and  O_41
   11  A    between atoms: C_40  and  O_41
   12  A    between atoms: S_43  and  C_46
                            x       y       z     vdW  Elec       q    Type
                         _______ _______ _______ _____ _____    ______ ____

>  <TORSDO>
F 12

$$$$
=
 OpenBabel11062418273D

 48 57  0  0  1  0  0  0  0  0999 V2000
  191.7390  176.9530  144.2260 C   0  0  0  0  0  2  0  0  0  0  0  0
  194.7750  175.5090  146.0180 C   0  0  0  0  0  1  0  0  0  0  0  0
  193.2460  174.9010  141.7130 C   0  0  2  0  0  3  0  0  0  0  0  0
  193.8650  173.5030  141.7260 C   0  0  0  0  0  1  0  0  0  0  0  0
  194.1620  175.9030  142.2590 N   0  0  2  0  0  0  0  0  0  0  0  0
  196.3150  175.2340  144.0790 C   0  0  1  0  0  3  0  0  0  0  0  0
  196.3970  174.8680  142.6080 C   0  0  0  0  0  2  0  0  0  0  0  0
  190.2580  176.7640  144.0970 C   0  0  0  0  0  0  0  0  0  0  0  0
  190.9160  173.9370  142.6140 C   0  0  1  0  0  3  0  0  0  0  0  0
  194.8690  175.1190  144.5490 C   0  0  2  0  0  3  0  0  0  0  0  0
  192.0630  174.9540  142.6730 C   0  0  2  0  0  0  0  0  0  0  0  0
  197.1300  174.3670  144.8100 O   0  0  0  0  0  1  0  0  0  0  0  0
  189.7790  176.0300  143.0850 C   0  0  0  0  0  3  0  0  0  0  0  0
  195.5570  175.8510  141.8030 C   0  0  0  0  0  2  0  0  0  0  0  0
  193.9430  176.0230  143.7220 C   0  0  2  0  0  3  0  0  0  0  0  0
  190.6950  175.3580  142.0990 C   0  0  2  0  0  3  0  0  0  0  0  0
  192.4840  175.6450  143.9780 C   0  0  1  0  0  3  0  0  0  0  0  0
  190.9830  172.3160  140.4880 C   0  0  0  0  0  0  0  0  0  0  0  0
  190.9270  173.0650  141.4320 C   0  0  0  0  0  0  0  0  0  0  0  0
  191.1770  170.0540  139.6290 C   0  0  0  0  0  3  0  0  0  0  0  0
  191.1340  171.3740  139.3910 C   0  0  0  0  0  0  0  0  0  0  0  0
  193.4660  173.5320  138.0460 C   0  0  0  0  0  2  0  0  0  0  0  0
  190.7580  173.3440  137.8870 C   0  0  1  0  0  0  0  0  0  0  0  0
  191.1950  171.9440  137.9880 C   0  0  2  0  0  0  0  0  0  0  0  0
  193.0370  175.3090  136.4400 C   0  0  0  0  0  2  0  0  0  0  0  0
  193.5160  175.0020  137.8580 C   0  0  0  0  0  2  0  0  0  0  0  0
  189.8470  172.2440  137.5550 N   0  0  0  0  0  2  0  0  0  0  0  0
  192.2510  173.0230  137.9800 C   0  0  2  0  0  3  0  0  0  0  0  0
  190.6210  174.2790  136.6730 C   0  0  0  0  0  0  0  0  0  0  0  0
  191.5630  175.1170  136.1540 C   0  0  0  0  0  3  0  0  0  0  0  0
  189.3240  174.3940  136.1510 O   0  0  0  0  0  0  0  0  0  0  0  0
  188.9500  175.3750  135.1860 C   0  0  0  0  0  2  0  0  0  0  0  0
  187.8160  176.2350  135.7190 C   0  0  0  0  0  2  0  0  0  0  0  0
  185.7650  176.0400  136.9560 O   0  0  0  0  0  0  0  0  0  0  0  0
  187.0790  175.5490  136.8640 C   0  0  2  0  0  3  0  0  0  0  0  0
  186.6910  176.5450  137.8860 C   0  0  0  0  0  2  0  0  0  0  0  0
  191.1410  169.4850  140.9550 C   0  0  0  0  0  0  0  0  0  0  0  0
  191.1370  169.0140  142.0130 N   0  0  0  0  0  0  0  0  0  0  0  0
  189.3610  177.2890  145.1660 C   0  0  0  0  0  2  0  0  0  0  0  0
  188.1130  177.9150  144.5700 C   0  0  0  0  0  2  0  0  0  0  0  0
  185.8550  177.1850  142.9460 C   0  0  0  0  0  2  0  0  0  0  0  0
  186.8780  177.4320  145.3450 C   0  0  2  0  0  3  0  0  0  0  0  0
  185.7590  176.8740  144.4480 C   0  0  1  0  0  3  0  0  0  0  0  0
  185.5660  179.3180  144.0480 C   0  0  0  0  0  2  0  0  0  0  0  0
  185.6010  178.2280  145.1030 C   0  0  2  0  0  0  0  0  0  0  0  0
  185.3210  178.5890  142.7450 C   0  0  0  0  0  2  0  0  0  0  0  0
  185.7370  178.5440  147.7660 C   0  0  0  0  0  1  0  0  0  0  0  0
  184.4410  178.2910  146.5130 S   0  0  0  0  0  0  0  0  0  0  0  0
  3  4  1  1  0  0  0
  3  5  1  0  0  0  0
  3 11  1  0  0  0  0
  5 14  1  1  0  0  0
  5 15  1  0  0  0  0
  6 10  1  0  0  0  0
  6 12  1  1  0  0  0
  7  6  1  0  0  0  0
  8  1  1  0  0  0  0
  8 39  1  0  0  0  0
  9 19  1  6  0  0  0
  9 11  1  0  0  0  0
 10  2  1  1  0  0  0
 11 17  1  0  0  0  0
 13  8  2  0  0  0  0
 14  7  1  0  0  0  0
 15 17  1  0  0  0  0
 15 10  1  0  0  0  0
 16  9  1  0  0  0  0
 16 11  1  0  0  0  0
 16 13  1  0  0  0  0
 17  1  1  0  0  0  0
 18 19  3  0  0  0  0
 20 37  1  0  0  0  0
 21 20  2  0  0  0  0
 21 18  1  0  0  0  0
 23 28  1  0  0  0  0
 23 24  1  0  0  0  0
 24 21  1  0  0  0  0
 25 26  1  0  0  0  0
 26 22  1  0  0  0  0
 27 23  1  0  0  0  0
 27 24  1  0  0  0  0
 28 24  1  0  0  0  0
 28 22  1  0  0  0  0
 29 23  1  0  0  0  0
 30 25  1  0  0  0  0
 30 29  2  0  0  0  0
 31 29  1  0  0  0  0
 32 33  1  0  0  0  0
 32 31  1  0  0  0  0
 33 35  1  0  0  0  0
 34 36  1  0  0  0  0
 35 34  1  0  0  0  0
 35 36  1  0  0  0  0
 37 38  3  0  0  0  0
 40 39  1  0  0  0  0
 40 42  1  0  0  0  0
 41 43  1  0  0  0  0
 43 45  1  0  0  0  0
 43 42  1  0  0  0  0
 44 45  1  0  0  0  0
 45 42  1  0  0  0  0
 45 48  1  0  0  0  0
 46 41  1  0  0  0  0
 46 44  1  0  0  0  0
 48 47  1  0  0  0  0
M  END
>  <MODEL>
7

>  <REMARK>
 VINA RESULT:      -6.8      2.785      7.698
  Name = 
  12 active torsions:
  status: ('A' for Active; 'I' for Inactive)
    1  A    between atoms: C_3  and  C_44
    2  A    between atoms: C_4  and  C_5
    3  A    between atoms: C_10  and  C_18
    4  A    between atoms: C_10  and  C_25
    5  A    between atoms: C_15  and  C_20
    6  A    between atoms: C_19  and  C_44
    7  A    between atoms: C_22  and  C_33
    8  A    between atoms: C_25  and  C_30
    9  A    between atoms: C_31  and  C_33
   10  A    between atoms: C_31  and  O_41
   11  A    between atoms: C_40  and  O_41
   12  A    between atoms: S_43  and  C_46
                            x       y       z     vdW  Elec       q    Type
                         _______ _______ _______ _____ _____    ______ ____

>  <TORSDO>
F 12

$$$$
=
 OpenBabel11062418273D

 48 57  0  0  1  0  0  0  0  0999 V2000
  193.0180  175.4390  143.6200 C   0  0  0  0  0  2  0  0  0  0  0  0
  191.9270  171.7910  143.4970 C   0  0  0  0  0  1  0  0  0  0  0  0
  189.6370  175.6580  142.4750 C   0  0  2  0  0  3  0  0  0  0  0  0
  188.3390  174.9580  142.8810 C   0  0  0  0  0  1  0  0  0  0  0  0
  190.4720  174.8020  141.6310 N   0  0  2  0  0  0  0  0  0  0  0  0
  190.2690  171.9120  141.6400 C   0  0  1  0  0  3  0  0  0  0  0  0
  189.1890  172.7660  141.0010 C   0  0  0  0  0  2  0  0  0  0  0  0
  193.2140  176.5690  144.5850 C   0  0  0  0  0  0  0  0  0  0  0  0
  189.9770  176.5870  144.9630 C   0  0  1  0  0  3  0  0  0  0  0  0
  190.8250  172.6310  142.8650 C   0  0  2  0  0  3  0  0  0  0  0  0
  190.5080  175.8890  143.7040 C   0  0  2  0  0  0  0  0  0  0  0  0
  189.7180  170.6840  142.0110 O   0  0  0  0  0  1  0  0  0  0  0  0
  192.2320  177.4620  144.7520 C   0  0  0  0  0  3  0  0  0  0  0  0
  189.8030  174.0830  140.5410 C   0  0  0  0  0  2  0  0  0  0  0  0
  191.3880  174.0100  142.4900 C   0  0  2  0  0  3  0  0  0  0  0  0
  190.9210  177.3350  144.0240 C   0  0  2  0  0  3  0  0  0  0  0  0
  191.6230  174.8360  143.7560 C   0  0  1  0  0  3  0  0  0  0  0  0
  187.6010  177.7800  144.6680 C   0  0  0  0  0  0  0  0  0  0  0  0
  188.6570  177.2130  144.8100 C   0  0  0  0  0  0  0  0  0  0  0  0
  185.6230  178.8770  145.5460 C   0  0  0  0  0  3  0  0  0  0  0  0
  186.3820  178.5490  144.4890 C   0  0  0  0  0  0  0  0  0  0  0  0
  183.2680  179.0500  143.0910 C   0  0  0  0  0  2  0  0  0  0  0  0
  185.5710  177.9070  142.2060 C   0  0  1  0  0  0  0  0  0  0  0  0
  186.0390  178.9920  143.0800 C   0  0  2  0  0  0  0  0  0  0  0  0
  182.6150  178.5660  140.7980 C   0  0  0  0  0  2  0  0  0  0  0  0
  182.3670  178.2120  142.2630 C   0  0  0  0  0  2  0  0  0  0  0  0
  186.9640  178.3620  142.1630 N   0  0  0  0  0  2  0  0  0  0  0  0
  184.5500  178.8150  142.8970 C   0  0  2  0  0  3  0  0  0  0  0  0
  185.1660  177.9040  140.7220 C   0  0  0  0  0  0  0  0  0  0  0  0
  183.9270  178.1150  140.1930 C   0  0  0  0  0  3  0  0  0  0  0  0
  186.1620  177.4720  139.8330 O   0  0  0  0  0  0  0  0  0  0  0  0
  185.8830  176.7900  138.6120 C   0  0  0  0  0  2  0  0  0  0  0  0
  187.1140  176.7770  137.7210 C   0  0  0  0  0  2  0  0  0  0  0  0
  187.8430  175.7180  135.6910 O   0  0  0  0  0  0  0  0  0  0  0  0
  186.7670  176.3990  136.2850 C   0  0  2  0  0  3  0  0  0  0  0  0
  187.6900  177.0720  135.3460 C   0  0  0  0  0  2  0  0  0  0  0  0
  185.9150  178.4540  146.8950 C   0  0  0  0  0  0  0  0  0  0  0  0
  186.1330  178.0900  147.9730 N   0  0  0  0  0  0  0  0  0  0  0  0
  194.4440  176.6010  145.4290 C   0  0  0  0  0  2  0  0  0  0  0  0
  195.5780  175.8410  144.7640 C   0  0  0  0  0  2  0  0  0  0  0  0
  197.9410  174.4060  143.9730 C   0  0  0  0  0  2  0  0  0  0  0  0
  195.8460  174.5430  145.5390 C   0  0  2  0  0  3  0  0  0  0  0  0
  197.2080  173.8990  145.2240 C   0  0  1  0  0  3  0  0  0  0  0  0
  195.9060  173.3730  143.1760 C   0  0  0  0  0  2  0  0  0  0  0  0
  195.9350  173.2800  144.6890 C   0  0  2  0  0  0  0  0  0  0  0  0
  197.3280  173.7020  142.7790 C   0  0  0  0  0  2  0  0  0  0  0  0
  195.7550  170.6690  144.0900 C   0  0  0  0  0  1  0  0  0  0  0  0
  195.3990  171.7420  145.5170 S   0  0  0  0  0  0  0  0  0  0  0  0
  1 17  1  0  0  0  0
  1  8  1  0  0  0  0
  3  4  1  1  0  0  0
  3 11  1  0  0  0  0
  5 14  1  1  0  0  0
  5  3  1  0  0  0  0
  5 15  1  0  0  0  0
  6 12  1  1  0  0  0
  6 10  1  0  0  0  0
  7  6  1  0  0  0  0
  8 13  2  0  0  0  0
  8 39  1  0  0  0  0
  9 19  1  6  0  0  0
 10  2  1  6  0  0  0
 11 17  1  0  0  0  0
 11 16  1  0  0  0  0
 11  9  1  0  0  0  0
 14  7  1  0  0  0  0
 15 10  1  0  0  0  0
 15 17  1  0  0  0  0
 16 13  1  0  0  0  0
 16  9  1  0  0  0  0
 18 19  3  0  0  0  0
 20 37  1  0  0  0  0
 21 18  1  0  0  0  0
 21 20  2  0  0  0  0
 23 28  1  0  0  0  0
 23 24  1  0  0  0  0
 24 21  1  0  0  0  0
 25 26  1  0  0  0  0
 26 22  1  0  0  0  0
 27 23  1  0  0  0  0
 27 24  1  0  0  0  0
 28 24  1  0  0  0  0
 28 22  1  0  0  0  0
 29 23  1  0  0  0  0
 30 29  2  0  0  0  0
 30 25  1  0  0  0  0
 31 29  1  0  0  0  0
 32 31  1  0  0  0  0
 33 32  1  0  0  0  0
 34 35  1  0  0  0  0
 35 33  1  0  0  0  0
 36 34  1  0  0  0  0
 36 35  1  0  0  0  0
 37 38  3  0  0  0  0
 40 39  1  0  0  0  0
 40 42  1  0  0  0  0
 41 43  1  0  0  0  0
 43 42  1  0  0  0  0
 44 45  1  0  0  0  0
 45 43  1  0  0  0  0
 45 48  1  0  0  0  0
 45 42  1  0  0  0  0
 46 44  1  0  0  0  0
 46 41  1  0  0  0  0
 47 48  1  0  0  0  0
M  END
>  <MODEL>
8

>  <REMARK>
 VINA RESULT:      -6.7      2.761      5.703
  Name = 
  12 active torsions:
  status: ('A' for Active; 'I' for Inactive)
    1  A    between atoms: C_3  and  C_44
    2  A    between atoms: C_4  and  C_5
    3  A    between atoms: C_10  and  C_18
    4  A    between atoms: C_10  and  C_25
    5  A    between atoms: C_15  and  C_20
    6  A    between atoms: C_19  and  C_44
    7  A    between atoms: C_22  and  C_33
    8  A    between atoms: C_25  and  C_30
    9  A    between atoms: C_31  and  C_33
   10  A    between atoms: C_31  and  O_41
   11  A    between atoms: C_40  and  O_41
   12  A    between atoms: S_43  and  C_46
                            x       y       z     vdW  Elec       q    Type
                         _______ _______ _______ _____ _____    ______ ____

>  <TORSDO>
F 12

$$$$
=
 OpenBabel11062418273D

 48 57  0  0  1  0  0  0  0  0999 V2000
  196.5500  174.2740  143.2730 C   0  0  0  0  0  2  0  0  0  0  0  0
  197.0050  171.5920  140.6050 C   0  0  0  0  0  1  0  0  0  0  0  0
  193.9670  175.0430  140.9220 C   0  0  2  0  0  3  0  0  0  0  0  0
  192.9670  174.1910  140.1370 C   0  0  0  0  0  1  0  0  0  0  0  0
  195.2990  175.0080  140.3170 N   0  0  2  0  0  0  0  0  0  0  0  0
  196.1900  172.8430  138.6100 C   0  0  1  0  0  3  0  0  0  0  0  0
  195.1720  173.8550  138.1170 C   0  0  0  0  0  2  0  0  0  0  0  0
  195.9600  174.4790  144.6350 C   0  0  0  0  0  0  0  0  0  0  0  0
  193.0380  174.0900  143.2450 C   0  0  1  0  0  3  0  0  0  0  0  0
  195.9700  172.5870  140.0970 C   0  0  2  0  0  3  0  0  0  0  0  0
  194.1960  174.4350  142.3010 C   0  0  2  0  0  0  0  0  0  0  0  0
  196.0410  171.6570  137.8890 O   0  0  0  0  0  1  0  0  0  0  0  0
  194.7270  174.9860  144.7420 C   0  0  0  0  0  3  0  0  0  0  0  0
  195.3740  175.1690  138.8590 C   0  0  0  0  0  2  0  0  0  0  0  0
  196.0760  173.8890  140.9060 C   0  0  2  0  0  3  0  0  0  0  0  0
  193.9040  175.3160  143.5270 C   0  0  2  0  0  3  0  0  0  0  0  0
  195.5270  173.6700  142.3160 C   0  0  1  0  0  3  0  0  0  0  0  0
  190.6330  175.0180  142.5330 C   0  0  0  0  0  0  0  0  0  0  0  0
  191.7260  174.5960  142.8210 C   0  0  0  0  0  0  0  0  0  0  0  0
  188.5590  175.0240  141.2730 C   0  0  0  0  0  3  0  0  0  0  0  0
  189.2920  175.5180  142.2830 C   0  0  0  0  0  0  0  0  0  0  0  0
  190.8100  176.8860  145.0630 C   0  0  0  0  0  2  0  0  0  0  0  0
  188.2820  176.0480  144.5160 C   0  0  1  0  0  0  0  0  0  0  0  0
  188.7560  176.5750  143.2280 C   0  0  2  0  0  0  0  0  0  0  0  0
  189.7150  177.5450  147.1340 C   0  0  0  0  0  2  0  0  0  0  0  0
  190.7420  176.5980  146.5160 C   0  0  0  0  0  2  0  0  0  0  0  0
  187.3420  176.3380  143.4280 N   0  0  0  0  0  2  0  0  0  0  0  0
  189.6890  176.6420  144.4140 C   0  0  2  0  0  3  0  0  0  0  0  0
  187.6350  176.7470  145.7230 C   0  0  0  0  0  0  0  0  0  0  0  0
  188.2590  177.2900  146.8070 C   0  0  0  0  0  3  0  0  0  0  0  0
  186.2360  176.6670  145.7810 O   0  0  0  0  0  0  0  0  0  0  0  0
  185.4050  177.7410  146.2150 C   0  0  0  0  0  2  0  0  0  0  0  0
  185.6260  178.9660  145.3420 C   0  0  0  0  0  2  0  0  0  0  0  0
  184.2960  177.9570  143.6150 O   0  0  0  0  0  0  0  0  0  0  0  0
  184.5000  179.1490  144.3300 C   0  0  2  0  0  3  0  0  0  0  0  0
  185.0180  178.9680  142.9570 C   0  0  0  0  0  2  0  0  0  0  0  0
  189.0490  174.0320  140.3470 C   0  0  0  0  0  0  0  0  0  0  0  0
  189.4420  173.2560  139.5820 N   0  0  0  0  0  0  0  0  0  0  0  0
  196.7080  173.9980  145.8320 C   0  0  0  0  0  2  0  0  0  0  0  0
  196.9480  172.5000  145.7570 C   0  0  0  0  0  2  0  0  0  0  0  0
  197.0740  169.6660  146.2230 C   0  0  0  0  0  2  0  0  0  0  0  0
  195.6000  171.7680  145.7040 C   0  0  2  0  0  3  0  0  0  0  0  0
  195.6750  170.2930  146.1400 C   0  0  1  0  0  3  0  0  0  0  0  0
  196.7310  170.2180  143.8940 C   0  0  0  0  0  2  0  0  0  0  0  0
  195.5050  170.6440  144.6790 C   0  0  2  0  0  0  0  0  0  0  0  0
  197.4720  169.2720  144.8140 C   0  0  0  0  0  2  0  0  0  0  0  0
  194.1610  168.6250  143.5270 C   0  0  0  0  0  1  0  0  0  0  0  0
  193.8380  170.3560  143.9880 S   0  0  0  0  0  0  0  0  0  0  0  0
  1  8  1  0  0  0  0
  3  4  1  6  0  0  0
  3 11  1  0  0  0  0
  5 14  1  6  0  0  0
  5 15  1  0  0  0  0
  5  3  1  0  0  0  0
  6 12  1  6  0  0  0
  6 10  1  0  0  0  0
  7  6  1  0  0  0  0
  7 14  1  0  0  0  0
  8 13  2  0  0  0  0
  8 39  1  0  0  0  0
  9 19  1  6  0  0  0
  9 16  1  0  0  0  0
 10  2  1  1  0  0  0
 10 15  1  0  0  0  0
 11 17  1  0  0  0  0
 11  9  1  0  0  0  0
 11 16  1  0  0  0  0
 15 17  1  0  0  0  0
 16 13  1  0  0  0  0
 17  1  1  0  0  0  0
 18 19  3  0  0  0  0
 20 21  2  0  0  0  0
 21 18  1  0  0  0  0
 21 24  1  0  0  0  0
 22 26  1  0  0  0  0
 23 29  1  0  0  0  0
 24 27  1  0  0  0  0
 24 28  1  0  0  0  0
 24 23  1  0  0  0  0
 26 25  1  0  0  0  0
 27 23  1  0  0  0  0
 28 23  1  0  0  0  0
 28 22  1  0  0  0  0
 29 31  1  0  0  0  0
 29 30  2  0  0  0  0
 30 25  1  0  0  0  0
 31 32  1  0  0  0  0
 33 32  1  0  0  0  0
 34 35  1  0  0  0  0
 35 33  1  0  0  0  0
 36 34  1  0  0  0  0
 36 35  1  0  0  0  0
 37 20  1  0  0  0  0
 38 37  3  0  0  0  0
 40 39  1  0  0  0  0
 42 40  1  0  0  0  0
 42 43  1  0  0  0  0
 43 41  1  0  0  0  0
 44 45  1  0  0  0  0
 44 46  1  0  0  0  0
 45 42  1  0  0  0  0
 45 43  1  0  0  0  0
 46 41  1  0  0  0  0
 47 48  1  0  0  0  0
 48 45  1  0  0  0  0
M  END
>  <MODEL>
9

>  <REMARK>
 VINA RESULT:      -6.7      2.876      5.632
  Name = 
  12 active torsions:
  status: ('A' for Active; 'I' for Inactive)
    1  A    between atoms: C_3  and  C_44
    2  A    between atoms: C_4  and  C_5
    3  A    between atoms: C_10  and  C_18
    4  A    between atoms: C_10  and  C_25
    5  A    between atoms: C_15  and  C_20
    6  A    between atoms: C_19  and  C_44
    7  A    between atoms: C_22  and  C_33
    8  A    between atoms: C_25  and  C_30
    9  A    between atoms: C_31  and  C_33
   10  A    between atoms: C_31  and  O_41
   11  A    between atoms: C_40  and  O_41
   12  A    between atoms: S_43  and  C_46
                            x       y       z     vdW  Elec       q    Type
                         _______ _______ _______ _____ _____    ______ ____

>  <TORSDO>
F 12

$$$$
