=
 OpenBabel11062418523D

 37 43  0  0  1  0  0  0  0  0999 V2000
  190.3510  175.6160  145.5880 C   0  0  0  0  0  2  0  0  0  0  0  0
  188.9410  175.8280  144.9890 C   0  0  2  0  0  3  0  0  0  0  0  0
  191.8320  172.3870  141.2750 N   0  0  0  0  0  2  0  0  0  0  0  0
  189.7060  173.3460  141.7930 C   0  0  2  0  0  3  0  0  0  0  0  0
  192.6850  173.3190  143.4330 C   0  0  0  0  0  2  0  0  0  0  0  0
  188.4070  174.0840  141.4300 C   0  0  0  0  0  2  0  0  0  0  0  0
  190.7380  174.3620  142.0850 C   0  0  1  0  0  3  0  0  0  0  0  0
  188.0070  175.1130  142.5460 C   0  0  0  0  0  2  0  0  0  0  0  0
  189.1210  175.4370  143.5470 C   0  0  2  0  0  3  0  0  0  0  0  0
  190.3390  174.9630  143.3690 C   0  0  1  0  0  3  0  0  0  0  0  0
  192.4650  174.4670  144.4530 C   0  0  1  0  0  3  0  0  0  0  0  0
  192.0650  173.6200  142.0460 C   0  0  2  0  0  3  0  0  0  0  0  0
  190.9610  174.6000  144.6410 C   0  0  1  0  0  3  0  0  0  0  0  0
  190.4180  172.3960  140.8510 C   0  0  1  0  0  3  0  0  0  0  0  0
  187.2190  177.6670  144.3640 C   0  0  2  0  0  3  0  0  0  0  0  0
  186.0620  178.0790  145.2100 C   0  0  1  0  0  0  0  0  0  0  0  0
  186.1790  176.7690  144.7120 O   0  0  0  0  0  0  0  0  0  0  0  0
  186.2650  179.4500  147.1580 F   0  0  0  0  0  0  0  0  0  0  0  0
  188.5100  177.2960  145.1290 C   0  0  1  0  0  3  0  0  0  0  0  0
  187.4720  177.4170  147.2160 C   0  0  2  0  0  3  0  0  0  0  0  0
  187.2910  176.0430  147.2670 F   0  0  0  0  0  0  0  0  0  0  0  0
  186.2180  178.1340  146.7360 C   0  0  2  0  0  3  0  0  0  0  0  0
  188.6020  177.7880  146.4560 O   0  0  0  0  0  0  0  0  0  0  0  0
  183.8890  179.0410  145.4980 O   0  0  0  0  0  1  0  0  0  0  0  0
  184.9020  178.8600  144.5520 C   0  0  0  0  0  0  0  0  0  0  0  0
  185.3770  180.1100  144.1510 O   0  0  0  0  0  1  0  0  0  0  0  0
  184.8880  178.6660  142.0260 C   0  0  0  0  0  1  0  0  0  0  0  0
  184.3200  178.1320  143.3310 C   0  0  0  0  0  2  0  0  0  0  0  0
  191.1630  173.7900  137.3760 C   0  0  0  0  0  3  0  0  0  0  0  0
  190.2890  172.7730  139.4010 C   0  0  0  0  0  0  0  0  0  0  0  0
  189.9740  173.4880  136.7080 C   0  0  0  0  0  3  0  0  0  0  0  0
  189.0980  172.4770  138.7280 C   0  0  0  0  0  3  0  0  0  0  0  0
  188.9410  172.8310  137.3840 C   0  0  0  0  0  3  0  0  0  0  0  0
  191.3210  173.4370  138.7190 C   0  0  0  0  0  3  0  0  0  0  0  0
  193.8200  172.9440  145.7530 O   0  0  0  0  0  1  0  0  0  0  0  0
  194.1360  175.2770  146.1380 C   0  0  0  0  0  1  0  0  0  0  0  0
  193.1580  174.1740  145.7860 C   0  0  1  0  0  3  0  0  0  0  0  0
  2 19  1  0  0  0  0
  2  1  1  1  0  0  0
  3 12  1  0  0  0  0
  4  6  1  6  0  0  0
  4  7  1  0  0  0  0
  5 11  1  0  0  0  0
  6  8  1  0  0  0  0
  7 10  1  0  0  0  0
  8  9  1  0  0  0  0
  9  2  1  0  0  0  0
 10  9  1  0  0  0  0
 10 13  1  0  0  0  0
 11 13  1  0  0  0  0
 11 37  1  0  0  0  0
 12  7  1  0  0  0  0
 12  5  1  0  0  0  0
 13  1  1  0  0  0  0
 14  3  1  0  0  0  0
 14  4  1  0  0  0  0
 15 17  1  0  0  0  0
 15 19  1  0  0  0  0
 15 16  1  0  0  0  0
 16 22  1  0  0  0  0
 17 16  1  0  0  0  0
 19 23  1  0  0  0  0
 20 21  1  0  0  0  0
 22 18  1  0  0  0  0
 22 20  1  0  0  0  0
 23 20  1  0  0  0  0
 25 16  1  0  0  0  0
 25 24  1  0  0  0  0
 26 25  1  0  0  0  0
 27 28  1  0  0  0  0
 28 25  1  0  0  0  0
 29 34  1  0  0  0  0
 30 14  1  0  0  0  0
 31 29  2  0  0  0  0
 31 33  1  0  0  0  0
 32 30  1  0  0  0  0
 33 32  2  0  0  0  0
 34 30  2  0  0  0  0
 35 37  1  0  0  0  0
 37 36  1  0  0  0  0
M  END
>  <MODEL>
1

>  <REMARK>
 VINA RESULT:      -8.3      0.000      0.000
  Name = 
  5 active torsions:
  status: ('A' for Active; 'I' for Inactive)
    1  A    between atoms: C_4  and  C_22
    2  A    between atoms: C_13  and  C_14
    3  A    between atoms: C_13  and  C_31
    4  A    between atoms: C_20  and  C_35
    5  A    between atoms: C_27  and  C_36
                            x       y       z     vdW  Elec       q    Type
                         _______ _______ _______ _____ _____    ______ ____

>  <TORSDO>
F 5

$$$$
=
 OpenBabel11062418523D

 37 43  0  0  1  0  0  0  0  0999 V2000
  190.1420  174.5690  143.7280 C   0  0  0  0  0  2  0  0  0  0  0  0
  189.9210  174.4330  142.2030 C   0  0  2  0  0  3  0  0  0  0  0  0
  186.2360  178.5500  144.0620 N   0  0  0  0  0  2  0  0  0  0  0  0
  187.1330  177.4630  142.1340 C   0  0  2  0  0  3  0  0  0  0  0  0
  187.8790  177.2690  145.4460 C   0  0  0  0  0  2  0  0  0  0  0  0
  187.0120  176.7710  140.7660 C   0  0  0  0  0  2  0  0  0  0  0  0
  186.9480  176.4360  143.1800 C   0  0  1  0  0  3  0  0  0  0  0  0
  187.9930  175.5500  140.6580 C   0  0  0  0  0  2  0  0  0  0  0  0
  188.5780  175.0790  141.9940 C   0  0  2  0  0  3  0  0  0  0  0  0
  188.1630  175.6060  143.1300 C   0  0  1  0  0  3  0  0  0  0  0  0
  188.6980  175.9520  145.4830 C   0  0  1  0  0  3  0  0  0  0  0  0
  186.6820  177.2050  144.4640 C   0  0  2  0  0  3  0  0  0  0  0  0
  189.2610  175.7510  144.0830 C   0  0  1  0  0  3  0  0  0  0  0  0
  186.2180  178.5830  142.5870 C   0  0  1  0  0  3  0  0  0  0  0  0
  189.6550  172.7050  140.2850 C   0  0  2  0  0  3  0  0  0  0  0  0
  190.7820  172.0800  139.5330 C   0  0  1  0  0  0  0  0  0  0  0  0
  190.5640  173.4700  139.5100 O   0  0  0  0  0  0  0  0  0  0  0  0
  192.1590  170.3360  140.4150 F   0  0  0  0  0  0  0  0  0  0  0  0
  189.9090  172.9530  141.7880 C   0  0  1  0  0  3  0  0  0  0  0  0
  192.1610  172.3550  141.6480 C   0  0  2  0  0  3  0  0  0  0  0  0
  192.5650  173.6790  141.5710 F   0  0  0  0  0  0  0  0  0  0  0  0
  192.0750  171.7090  140.2720 C   0  0  2  0  0  3  0  0  0  0  0  0
  190.9580  172.1960  142.3690 O   0  0  0  0  0  0  0  0  0  0  0  0
  189.7560  172.3060  137.3820 O   0  0  0  0  0  1  0  0  0  0  0  0
  190.4870  171.4140  138.1710 C   0  0  0  0  0  0  0  0  0  0  0  0
  191.7000  171.1370  137.5380 O   0  0  0  0  0  1  0  0  0  0  0  0
  190.4080  168.9300  137.6750 C   0  0  0  0  0  1  0  0  0  0  0  0
  189.6900  170.1080  138.3140 C   0  0  0  0  0  2  0  0  0  0  0  0
  183.2410  178.1810  140.2300 C   0  0  0  0  0  3  0  0  0  0  0  0
  184.8150  178.4680  142.0580 C   0  0  0  0  0  0  0  0  0  0  0  0
  182.1760  178.3030  141.1260 C   0  0  0  0  0  3  0  0  0  0  0  0
  183.7430  178.5950  142.9500 C   0  0  0  0  0  3  0  0  0  0  0  0
  182.4270  178.5100  142.4860 C   0  0  0  0  0  3  0  0  0  0  0  0
  184.5580  178.2650  140.6930 C   0  0  0  0  0  3  0  0  0  0  0  0
  189.8120  177.2400  147.1990 O   0  0  0  0  0  1  0  0  0  0  0  0
  189.7100  174.8760  147.5090 C   0  0  0  0  0  1  0  0  0  0  0  0
  189.8220  176.0190  146.5190 C   0  0  1  0  0  3  0  0  0  0  0  0
  1 13  1  0  0  0  0
  2  1  1  1  0  0  0
  3 12  1  0  0  0  0
  4  6  1  6  0  0  0
  4 14  1  0  0  0  0
  4  7  1  0  0  0  0
  5 11  1  0  0  0  0
  7 12  1  0  0  0  0
  8  6  1  0  0  0  0
  8  9  1  0  0  0  0
  9  2  1  0  0  0  0
  9 10  1  0  0  0  0
 10  7  1  0  0  0  0
 10 13  1  0  0  0  0
 11 37  1  0  0  0  0
 12  5  1  0  0  0  0
 13 11  1  0  0  0  0
 14  3  1  0  0  0  0
 15 19  1  0  0  0  0
 16 22  1  0  0  0  0
 16 15  1  0  0  0  0
 17 16  1  0  0  0  0
 17 15  1  0  0  0  0
 19  2  1  0  0  0  0
 19 23  1  0  0  0  0
 20 23  1  0  0  0  0
 21 20  1  0  0  0  0
 22 18  1  0  0  0  0
 22 20  1  0  0  0  0
 24 25  1  0  0  0  0
 25 28  1  0  0  0  0
 25 16  1  0  0  0  0
 26 25  1  0  0  0  0
 27 28  1  0  0  0  0
 29 34  2  0  0  0  0
 29 31  1  0  0  0  0
 30 14  1  0  0  0  0
 30 32  2  0  0  0  0
 31 33  2  0  0  0  0
 33 32  1  0  0  0  0
 34 30  1  0  0  0  0
 37 35  1  0  0  0  0
 37 36  1  0  0  0  0
M  END
>  <MODEL>
2

>  <REMARK>
 VINA RESULT:      -7.9      3.904      7.932
  Name = 
  5 active torsions:
  status: ('A' for Active; 'I' for Inactive)
    1  A    between atoms: C_4  and  C_22
    2  A    between atoms: C_13  and  C_14
    3  A    between atoms: C_13  and  C_31
    4  A    between atoms: C_20  and  C_35
    5  A    between atoms: C_27  and  C_36
                            x       y       z     vdW  Elec       q    Type
                         _______ _______ _______ _____ _____    ______ ____

>  <TORSDO>
F 5

$$$$
=
 OpenBabel11062418523D

 37 43  0  0  1  0  0  0  0  0999 V2000
  192.6870  173.9800  142.9270 C   0  0  0  0  0  2  0  0  0  0  0  0
  191.5720  174.0240  141.8560 C   0  0  2  0  0  3  0  0  0  0  0  0
  189.8590  177.5260  146.1910 N   0  0  0  0  0  2  0  0  0  0  0  0
  189.3650  176.7800  143.9760 C   0  0  2  0  0  3  0  0  0  0  0  0
  191.9920  176.2260  146.0640 C   0  0  0  0  0  2  0  0  0  0  0  0
  188.4200  176.2630  142.8790 C   0  0  0  0  0  2  0  0  0  0  0  0
  189.8540  175.6150  144.7420 C   0  0  1  0  0  3  0  0  0  0  0  0
  189.1130  175.1570  142.0070 C   0  0  0  0  0  2  0  0  0  0  0  0
  190.3920  174.5700  142.6140 C   0  0  2  0  0  3  0  0  0  0  0  0
  190.7710  174.9090  143.8320 C   0  0  1  0  0  3  0  0  0  0  0  0
  192.6460  174.9930  145.3870 C   0  0  1  0  0  3  0  0  0  0  0  0
  190.4440  176.1850  146.0220 C   0  0  2  0  0  3  0  0  0  0  0  0
  192.2250  175.0250  143.9250 C   0  0  1  0  0  3  0  0  0  0  0  0
  188.9360  177.7470  145.0610 C   0  0  1  0  0  3  0  0  0  0  0  0
  190.2820  172.5630  140.1410 C   0  0  2  0  0  3  0  0  0  0  0  0
  190.8290  172.0920  138.8360 C   0  0  1  0  0  0  0  0  0  0  0  0
  190.6830  173.4610  139.1200 O   0  0  0  0  0  0  0  0  0  0  0  0
  192.3980  170.3010  138.6250 F   0  0  0  0  0  0  0  0  0  0  0  0
  191.2910  172.6150  141.3110 C   0  0  1  0  0  3  0  0  0  0  0  0
  193.1160  172.1320  139.9380 C   0  0  2  0  0  3  0  0  0  0  0  0
  193.4700  173.4690  139.8440 F   0  0  0  0  0  0  0  0  0  0  0  0
  192.3030  171.6760  138.7360 C   0  0  2  0  0  3  0  0  0  0  0  0
  192.4600  171.8280  141.1500 O   0  0  0  0  0  0  0  0  0  0  0  0
  189.3790  170.3350  138.1020 O   0  0  0  0  0  1  0  0  0  0  0  0
  189.8430  171.6050  137.7500 C   0  0  0  0  0  0  0  0  0  0  0  0
  188.7620  172.4870  137.7020 O   0  0  0  0  0  1  0  0  0  0  0  0
  189.4570  171.6200  135.2460 C   0  0  0  0  0  1  0  0  0  0  0  0
  190.4890  171.5320  136.3590 C   0  0  0  0  0  2  0  0  0  0  0  0
  185.1230  177.9210  145.1520 C   0  0  0  0  0  3  0  0  0  0  0  0
  187.5040  177.5780  145.4890 C   0  0  0  0  0  0  0  0  0  0  0  0
  184.8570  177.2700  146.3590 C   0  0  0  0  0  3  0  0  0  0  0  0
  187.2310  176.9320  146.7010 C   0  0  0  0  0  3  0  0  0  0  0  0
  185.9110  176.7760  147.1330 C   0  0  0  0  0  3  0  0  0  0  0  0
  186.4430  178.0780  144.7180 C   0  0  0  0  0  3  0  0  0  0  0  0
  194.5740  175.8790  146.5460 O   0  0  0  0  0  1  0  0  0  0  0  0
  194.7190  173.6320  145.7580 C   0  0  0  0  0  1  0  0  0  0  0  0
  194.1700  175.0240  145.5160 C   0  0  1  0  0  3  0  0  0  0  0  0
  1 13  1  0  0  0  0
  2  9  1  0  0  0  0
  2  1  1  1  0  0  0
  4  6  1  6  0  0  0
  4  7  1  0  0  0  0
  4 14  1  0  0  0  0
  7 12  1  0  0  0  0
  8  9  1  0  0  0  0
  8  6  1  0  0  0  0
  9 10  1  0  0  0  0
 10 13  1  0  0  0  0
 10  7  1  0  0  0  0
 11 37  1  0  0  0  0
 11  5  1  0  0  0  0
 12  5  1  0  0  0  0
 12  3  1  0  0  0  0
 13 11  1  0  0  0  0
 14 30  1  0  0  0  0
 14  3  1  0  0  0  0
 15 19  1  0  0  0  0
 16 17  1  0  0  0  0
 16 15  1  0  0  0  0
 17 15  1  0  0  0  0
 18 22  1  0  0  0  0
 19  2  1  0  0  0  0
 20 23  1  0  0  0  0
 21 20  1  0  0  0  0
 22 16  1  0  0  0  0
 22 20  1  0  0  0  0
 23 19  1  0  0  0  0
 25 24  1  0  0  0  0
 25 16  1  0  0  0  0
 26 25  1  0  0  0  0
 27 28  1  0  0  0  0
 28 25  1  0  0  0  0
 29 31  1  0  0  0  0
 30 32  2  0  0  0  0
 31 33  2  0  0  0  0
 32 33  1  0  0  0  0
 34 29  2  0  0  0  0
 34 30  1  0  0  0  0
 37 36  1  0  0  0  0
 37 35  1  0  0  0  0
M  END
>  <MODEL>
3

>  <REMARK>
 VINA RESULT:      -7.7      4.268      8.000
  Name = 
  5 active torsions:
  status: ('A' for Active; 'I' for Inactive)
    1  A    between atoms: C_4  and  C_22
    2  A    between atoms: C_13  and  C_14
    3  A    between atoms: C_13  and  C_31
    4  A    between atoms: C_20  and  C_35
    5  A    between atoms: C_27  and  C_36
                            x       y       z     vdW  Elec       q    Type
                         _______ _______ _______ _____ _____    ______ ____

>  <TORSDO>
F 5

$$$$
=
 OpenBabel11062418523D

 37 43  0  0  1  0  0  0  0  0999 V2000
  187.2400  175.7630  141.5060 C   0  0  0  0  0  2  0  0  0  0  0  0
  187.2780  176.8570  142.6000 C   0  0  2  0  0  3  0  0  0  0  0  0
  192.7440  174.9280  141.9780 N   0  0  0  0  0  2  0  0  0  0  0  0
  191.3650  176.5730  143.0250 C   0  0  2  0  0  3  0  0  0  0  0  0
  190.7290  174.1650  140.7090 C   0  0  0  0  0  2  0  0  0  0  0  0
  190.8890  177.4040  144.2290 C   0  0  0  0  0  2  0  0  0  0  0  0
  190.6220  175.2950  143.0340 C   0  0  1  0  0  3  0  0  0  0  0  0
  189.3270  177.5610  144.2300 C   0  0  0  0  0  2  0  0  0  0  0  0
  188.5860  176.5970  143.2970 C   0  0  2  0  0  3  0  0  0  0  0  0
  189.2420  175.6460  142.6600 C   0  0  1  0  0  3  0  0  0  0  0  0
  189.1810  174.0960  140.7790 C   0  0  1  0  0  3  0  0  0  0  0  0
  191.3850  174.3730  142.0970 C   0  0  2  0  0  3  0  0  0  0  0  0
  188.7090  175.4400  141.3140 C   0  0  1  0  0  3  0  0  0  0  0  0
  192.8010  176.1330  142.8290 C   0  0  1  0  0  3  0  0  0  0  0  0
  186.4020  177.0160  145.0380 C   0  0  2  0  0  3  0  0  0  0  0  0
  185.6920  178.1920  145.6180 C   0  0  1  0  0  0  0  0  0  0  0  0
  187.0130  178.2910  145.1430 O   0  0  0  0  0  0  0  0  0  0  0  0
  183.4080  178.7240  145.1540 F   0  0  0  0  0  0  0  0  0  0  0  0
  186.0860  176.7050  143.5580 C   0  0  1  0  0  3  0  0  0  0  0  0
  184.8390  178.6570  143.2720 C   0  0  2  0  0  3  0  0  0  0  0  0
  185.9080  179.3210  142.6910 F   0  0  0  0  0  0  0  0  0  0  0  0
  184.7050  178.9870  144.7510 C   0  0  2  0  0  3  0  0  0  0  0  0
  184.8830  177.2630  143.0550 O   0  0  0  0  0  0  0  0  0  0  0  0
  184.2620  178.2950  147.5340 O   0  0  0  0  0  1  0  0  0  0  0  0
  185.6060  178.3250  147.1550 C   0  0  0  0  0  0  0  0  0  0  0  0
  186.2650  177.2380  147.7340 O   0  0  0  0  0  1  0  0  0  0  0  0
  187.4270  179.3570  148.5840 C   0  0  0  0  0  1  0  0  0  0  0  0
  186.2410  179.6250  147.6700 C   0  0  0  0  0  2  0  0  0  0  0  0
  194.5640  176.5990  146.1830 C   0  0  0  0  0  3  0  0  0  0  0  0
  193.5290  175.8550  144.1150 C   0  0  0  0  0  0  0  0  0  0  0  0
  194.9240  175.2820  146.4790 C   0  0  0  0  0  3  0  0  0  0  0  0
  193.8980  174.5380  144.4150 C   0  0  0  0  0  3  0  0  0  0  0  0
  194.5910  174.2520  145.5940 C   0  0  0  0  0  3  0  0  0  0  0  0
  193.8700  176.8870  145.0040 C   0  0  0  0  0  3  0  0  0  0  0  0
  189.4450  174.1660  138.3770 O   0  0  0  0  0  1  0  0  0  0  0  0
  188.1910  172.3470  139.2790 C   0  0  0  0  0  1  0  0  0  0  0  0
  188.5690  173.8100  139.4060 C   0  0  1  0  0  3  0  0  0  0  0  0
  2  1  1  6  0  0  0
  2  9  1  0  0  0  0
  2 19  1  0  0  0  0
  3 12  1  0  0  0  0
  3 14  1  0  0  0  0
  4  7  1  0  0  0  0
  4  6  1  1  0  0  0
  5 11  1  0  0  0  0
  5 12  1  0  0  0  0
  6  8  1  0  0  0  0
  9  8  1  0  0  0  0
 10  7  1  0  0  0  0
 10  9  1  0  0  0  0
 11 13  1  0  0  0  0
 12  7  1  0  0  0  0
 13  1  1  0  0  0  0
 13 10  1  0  0  0  0
 14  4  1  0  0  0  0
 14 30  1  0  0  0  0
 15 17  1  0  0  0  0
 15 16  1  0  0  0  0
 16 25  1  0  0  0  0
 17 16  1  0  0  0  0
 19 15  1  0  0  0  0
 20 22  1  0  0  0  0
 21 20  1  0  0  0  0
 22 18  1  0  0  0  0
 22 16  1  0  0  0  0
 23 20  1  0  0  0  0
 23 19  1  0  0  0  0
 25 24  1  0  0  0  0
 25 28  1  0  0  0  0
 25 26  1  0  0  0  0
 28 27  1  0  0  0  0
 29 31  1  0  0  0  0
 30 32  2  0  0  0  0
 30 34  1  0  0  0  0
 32 33  1  0  0  0  0
 33 31  2  0  0  0  0
 34 29  2  0  0  0  0
 35 37  1  0  0  0  0
 36 37  1  0  0  0  0
 37 11  1  0  0  0  0
M  END
>  <MODEL>
4

>  <REMARK>
 VINA RESULT:      -7.7      2.428      5.483
  Name = 
  5 active torsions:
  status: ('A' for Active; 'I' for Inactive)
    1  A    between atoms: C_4  and  C_22
    2  A    between atoms: C_13  and  C_14
    3  A    between atoms: C_13  and  C_31
    4  A    between atoms: C_20  and  C_35
    5  A    between atoms: C_27  and  C_36
                            x       y       z     vdW  Elec       q    Type
                         _______ _______ _______ _____ _____    ______ ____

>  <TORSDO>
F 5

$$$$
=
 OpenBabel11062418523D

 37 43  0  0  1  0  0  0  0  0999 V2000
  190.6620  175.1580  145.2980 C   0  0  0  0  0  2  0  0  0  0  0  0
  189.2290  175.4210  144.7790 C   0  0  2  0  0  3  0  0  0  0  0  0
  192.0810  172.6840  140.4940 N   0  0  0  0  0  2  0  0  0  0  0  0
  189.9510  173.4900  141.2130 C   0  0  2  0  0  3  0  0  0  0  0  0
  192.9800  173.2920  142.7470 C   0  0  0  0  0  2  0  0  0  0  0  0
  188.6230  174.2380  141.0070 C   0  0  0  0  0  2  0  0  0  0  0  0
  190.9670  174.4770  141.6330 C   0  0  1  0  0  3  0  0  0  0  0  0
  188.2340  175.0690  142.2810 C   0  0  0  0  0  2  0  0  0  0  0  0
  189.3720  175.2650  143.2890 C   0  0  2  0  0  3  0  0  0  0  0  0
  190.5950  174.8590  143.0050 C   0  0  1  0  0  3  0  0  0  0  0  0
  192.7650  174.2600  143.9390 C   0  0  1  0  0  3  0  0  0  0  0  0
  192.3090  173.7870  141.4420 C   0  0  2  0  0  3  0  0  0  0  0  0
  191.2650  174.3200  144.1870 C   0  0  1  0  0  3  0  0  0  0  0  0
  190.6550  172.7190  140.1150 C   0  0  1  0  0  3  0  0  0  0  0  0
  187.3400  177.1990  144.6900 C   0  0  2  0  0  3  0  0  0  0  0  0
  186.3470  177.4490  145.7750 C   0  0  1  0  0  0  0  0  0  0  0  0
  186.4250  176.2060  145.1210 O   0  0  0  0  0  0  0  0  0  0  0  0
  186.8550  178.6250  147.7930 F   0  0  0  0  0  0  0  0  0  0  0  0
  188.7670  176.8370  145.1580 C   0  0  1  0  0  3  0  0  0  0  0  0
  188.1390  176.6780  147.4010 C   0  0  2  0  0  3  0  0  0  0  0  0
  188.0320  175.2970  147.3310 F   0  0  0  0  0  0  0  0  0  0  0  0
  186.7870  177.3580  147.2430 C   0  0  2  0  0  3  0  0  0  0  0  0
  189.0870  177.1960  146.4930 O   0  0  0  0  0  0  0  0  0  0  0  0
  184.5530  177.7390  144.2180 O   0  0  0  0  0  1  0  0  0  0  0  0
  185.0510  178.2160  145.4330 C   0  0  0  0  0  0  0  0  0  0  0  0
  184.1110  177.9720  146.4370 O   0  0  0  0  0  1  0  0  0  0  0  0
  185.5660  180.1580  143.8880 C   0  0  0  0  0  1  0  0  0  0  0  0
  185.2760  179.7310  145.3180 C   0  0  0  0  0  2  0  0  0  0  0  0
  189.0670  173.9530  136.8690 C   0  0  0  0  0  3  0  0  0  0  0  0
  190.4710  173.3130  138.7460 C   0  0  0  0  0  0  0  0  0  0  0  0
  190.1950  174.3920  136.1730 C   0  0  0  0  0  3  0  0  0  0  0  0
  191.5980  173.7510  138.0410 C   0  0  0  0  0  3  0  0  0  0  0  0
  191.4610  174.2910  136.7590 C   0  0  0  0  0  3  0  0  0  0  0  0
  189.2030  173.4120  138.1520 C   0  0  0  0  0  3  0  0  0  0  0  0
  194.4160  172.7670  144.8830 O   0  0  0  0  0  1  0  0  0  0  0  0
  194.2280  174.9360  145.8610 C   0  0  0  0  0  1  0  0  0  0  0  0
  193.5060  173.7830  145.1900 C   0  0  1  0  0  3  0  0  0  0  0  0
  2 19  1  0  0  0  0
  2  1  1  1  0  0  0
  3 12  1  0  0  0  0
  4  6  1  6  0  0  0
  4  7  1  0  0  0  0
  5 11  1  0  0  0  0
  6  8  1  0  0  0  0
  7 10  1  0  0  0  0
  8  9  1  0  0  0  0
  9  2  1  0  0  0  0
 10  9  1  0  0  0  0
 10 13  1  0  0  0  0
 11 13  1  0  0  0  0
 11 37  1  0  0  0  0
 12  7  1  0  0  0  0
 12  5  1  0  0  0  0
 13  1  1  0  0  0  0
 14  3  1  0  0  0  0
 14  4  1  0  0  0  0
 15 17  1  0  0  0  0
 15 19  1  0  0  0  0
 15 16  1  0  0  0  0
 16 22  1  0  0  0  0
 17 16  1  0  0  0  0
 19 23  1  0  0  0  0
 21 20  1  0  0  0  0
 22 20  1  0  0  0  0
 22 18  1  0  0  0  0
 23 20  1  0  0  0  0
 24 25  1  0  0  0  0
 25 16  1  0  0  0  0
 25 26  1  0  0  0  0
 27 28  1  0  0  0  0
 28 25  1  0  0  0  0
 29 34  1  0  0  0  0
 30 14  1  0  0  0  0
 31 33  1  0  0  0  0
 31 29  2  0  0  0  0
 32 30  1  0  0  0  0
 33 32  2  0  0  0  0
 34 30  2  0  0  0  0
 35 37  1  0  0  0  0
 37 36  1  0  0  0  0
M  END
>  <MODEL>
5

>  <REMARK>
 VINA RESULT:      -7.6      1.039      1.407
  Name = 
  5 active torsions:
  status: ('A' for Active; 'I' for Inactive)
    1  A    between atoms: C_4  and  C_22
    2  A    between atoms: C_13  and  C_14
    3  A    between atoms: C_13  and  C_31
    4  A    between atoms: C_20  and  C_35
    5  A    between atoms: C_27  and  C_36
                            x       y       z     vdW  Elec       q    Type
                         _______ _______ _______ _____ _____    ______ ____

>  <TORSDO>
F 5

$$$$
=
 OpenBabel11062418523D

 37 43  0  0  1  0  0  0  0  0999 V2000
  189.3780  174.5930  141.2600 C   0  0  0  0  0  2  0  0  0  0  0  0
  189.4910  175.4610  142.5360 C   0  0  2  0  0  3  0  0  0  0  0  0
  194.7620  173.1430  141.6210 N   0  0  0  0  0  2  0  0  0  0  0  0
  193.5180  174.7000  142.9390 C   0  0  2  0  0  3  0  0  0  0  0  0
  192.7180  172.8270  140.2160 C   0  0  0  0  0  2  0  0  0  0  0  0
  193.0930  175.3420  144.2700 C   0  0  0  0  0  2  0  0  0  0  0  0
  192.6570  173.5220  142.7070 C   0  0  1  0  0  3  0  0  0  0  0  0
  191.5530  175.6510  144.2850 C   0  0  0  0  0  2  0  0  0  0  0  0
  190.7490  174.9500  143.1850 C   0  0  2  0  0  3  0  0  0  0  0  0
  191.3270  174.0700  142.3910 C   0  0  1  0  0  3  0  0  0  0  0  0
  191.1690  172.9000  140.2580 C   0  0  1  0  0  3  0  0  0  0  0  0
  193.3530  172.7140  141.6240 C   0  0  2  0  0  3  0  0  0  0  0  0
  190.8140  174.1660  141.0260 C   0  0  1  0  0  3  0  0  0  0  0  0
  194.9110  174.1620  142.6780 C   0  0  1  0  0  3  0  0  0  0  0  0
  188.3000  176.0480  144.7660 C   0  0  2  0  0  3  0  0  0  0  0  0
  187.2470  177.0920  144.9250 C   0  0  1  0  0  0  0  0  0  0  0  0
  188.5480  177.4190  144.5030 O   0  0  0  0  0  0  0  0  0  0  0  0
  184.9810  176.8090  144.2180 F   0  0  0  0  0  0  0  0  0  0  0  0
  188.2640  175.2570  143.4390 C   0  0  1  0  0  3  0  0  0  0  0  0
  186.6090  176.6180  142.5130 C   0  0  2  0  0  3  0  0  0  0  0  0
  187.5400  177.3640  141.8060 F   0  0  0  0  0  0  0  0  0  0  0  0
  186.2090  177.3000  143.8130 C   0  0  2  0  0  3  0  0  0  0  0  0
  187.0340  175.2910  142.7350 O   0  0  0  0  0  0  0  0  0  0  0  0
  186.2690  176.6250  147.0590 O   0  0  0  0  0  1  0  0  0  0  0  0
  186.9350  177.6220  146.3420 C   0  0  0  0  0  0  0  0  0  0  0  0
  188.1400  177.9150  146.9840 O   0  0  0  0  0  1  0  0  0  0  0  0
  184.7210  178.6650  147.0000 C   0  0  0  0  0  1  0  0  0  0  0  0
  186.0620  178.8860  146.3190 C   0  0  0  0  0  2  0  0  0  0  0  0
  197.0290  173.7910  145.8330 C   0  0  0  0  0  3  0  0  0  0  0  0
  195.5740  173.5860  143.8990 C   0  0  0  0  0  0  0  0  0  0  0  0
  196.8160  172.4450  146.1380 C   0  0  0  0  0  3  0  0  0  0  0  0
  195.3690  172.2360  144.2070 C   0  0  0  0  0  3  0  0  0  0  0  0
  195.9860  171.6670  145.3250 C   0  0  0  0  0  3  0  0  0  0  0  0
  196.4120  174.3610  144.7150 C   0  0  0  0  0  3  0  0  0  0  0  0
  191.5530  172.7350  137.8770 O   0  0  0  0  0  1  0  0  0  0  0  0
  189.4850  171.8810  138.7050 C   0  0  0  0  0  1  0  0  0  0  0  0
  190.5690  172.9300  138.8500 C   0  0  1  0  0  3  0  0  0  0  0  0
  2  1  1  6  0  0  0
  2  9  1  0  0  0  0
  2 19  1  0  0  0  0
  3 12  1  0  0  0  0
  3 14  1  0  0  0  0
  4  6  1  1  0  0  0
  5 11  1  0  0  0  0
  5 12  1  0  0  0  0
  6  8  1  0  0  0  0
  7  4  1  0  0  0  0
  9  8  1  0  0  0  0
 10  7  1  0  0  0  0
 10  9  1  0  0  0  0
 11 13  1  0  0  0  0
 12  7  1  0  0  0  0
 13  1  1  0  0  0  0
 13 10  1  0  0  0  0
 14  4  1  0  0  0  0
 14 30  1  0  0  0  0
 15 16  1  0  0  0  0
 16 25  1  0  0  0  0
 17 15  1  0  0  0  0
 17 16  1  0  0  0  0
 19 15  1  0  0  0  0
 20 23  1  0  0  0  0
 20 22  1  0  0  0  0
 21 20  1  0  0  0  0
 22 18  1  0  0  0  0
 22 16  1  0  0  0  0
 23 19  1  0  0  0  0
 25 26  1  0  0  0  0
 25 24  1  0  0  0  0
 28 25  1  0  0  0  0
 28 27  1  0  0  0  0
 29 31  1  0  0  0  0
 30 32  2  0  0  0  0
 30 34  1  0  0  0  0
 32 33  1  0  0  0  0
 33 31  2  0  0  0  0
 34 29  2  0  0  0  0
 35 37  1  0  0  0  0
 36 37  1  0  0  0  0
 37 11  1  0  0  0  0
M  END
>  <MODEL>
6

>  <REMARK>
 VINA RESULT:      -7.4      2.568      5.554
  Name = 
  5 active torsions:
  status: ('A' for Active; 'I' for Inactive)
    1  A    between atoms: C_4  and  C_22
    2  A    between atoms: C_13  and  C_14
    3  A    between atoms: C_13  and  C_31
    4  A    between atoms: C_20  and  C_35
    5  A    between atoms: C_27  and  C_36
                            x       y       z     vdW  Elec       q    Type
                         _______ _______ _______ _____ _____    ______ ____

>  <TORSDO>
F 5

$$$$
=
 OpenBabel11062418523D

 37 43  0  0  1  0  0  0  0  0999 V2000
  188.4630  175.2490  141.0030 C   0  0  0  0  0  2  0  0  0  0  0  0
  188.6590  175.8080  142.4330 C   0  0  2  0  0  3  0  0  0  0  0  0
  193.2310  172.3550  141.3530 N   0  0  0  0  0  2  0  0  0  0  0  0
  192.2930  173.9250  142.8890 C   0  0  2  0  0  3  0  0  0  0  0  0
  191.3340  172.8640  139.8040 C   0  0  0  0  0  2  0  0  0  0  0  0
  191.9070  174.4070  144.2980 C   0  0  0  0  0  2  0  0  0  0  0  0
  191.1890  173.0870  142.3780 C   0  0  1  0  0  3  0  0  0  0  0  0
  190.5050  175.1120  144.2930 C   0  0  0  0  0  2  0  0  0  0  0  0
  189.6690  174.8670  143.0320 C   0  0  2  0  0  3  0  0  0  0  0  0
  190.0840  174.0220  142.1080 C   0  0  1  0  0  3  0  0  0  0  0  0
  189.8590  173.3450  139.7770 C   0  0  1  0  0  3  0  0  0  0  0  0
  191.7670  172.3300  141.1920 C   0  0  2  0  0  3  0  0  0  0  0  0
  189.7600  174.4980  140.7650 C   0  0  1  0  0  3  0  0  0  0  0  0
  193.5220  173.0870  142.6000 C   0  0  1  0  0  3  0  0  0  0  0  0
  187.4290  176.2740  144.6710 C   0  0  2  0  0  3  0  0  0  0  0  0
  186.6700  177.5180  144.9870 C   0  0  1  0  0  0  0  0  0  0  0  0
  188.0490  177.5490  144.7110 O   0  0  0  0  0  0  0  0  0  0  0  0
  184.4960  178.0020  144.1180 F   0  0  0  0  0  0  0  0  0  0  0  0
  187.3330  175.7830  143.2090 C   0  0  1  0  0  3  0  0  0  0  0  0
  186.1920  177.6920  142.4990 C   0  0  2  0  0  3  0  0  0  0  0  0
  187.3520  178.2730  142.0120 F   0  0  0  0  0  0  0  0  0  0  0  0
  185.8440  178.2040  143.8890 C   0  0  2  0  0  3  0  0  0  0  0  0
  186.2330  176.2820  142.4640 O   0  0  0  0  0  0  0  0  0  0  0  0
  185.3220  177.0080  146.8980 O   0  0  0  0  0  1  0  0  0  0  0  0
  186.3560  177.8410  146.4650 C   0  0  0  0  0  0  0  0  0  0  0  0
  187.4960  177.5850  147.2290 O   0  0  0  0  0  1  0  0  0  0  0  0
  186.3180  179.8180  148.0510 C   0  0  0  0  0  1  0  0  0  0  0  0
  185.9360  179.3040  146.6710 C   0  0  0  0  0  2  0  0  0  0  0  0
  195.0930  171.6090  145.7510 C   0  0  0  0  0  3  0  0  0  0  0  0
  193.8840  172.1410  143.7130 C   0  0  0  0  0  0  0  0  0  0  0  0
  194.5530  170.3210  145.7370 C   0  0  0  0  0  3  0  0  0  0  0  0
  193.3500  170.8470  143.7010 C   0  0  0  0  0  3  0  0  0  0  0  0
  193.6820  169.9400  144.7120 C   0  0  0  0  0  3  0  0  0  0  0  0
  194.7620  172.5180  144.7410 C   0  0  0  0  0  3  0  0  0  0  0  0
  190.5490  174.1520  137.6040 O   0  0  0  0  0  1  0  0  0  0  0  0
  188.6600  172.6960  137.6730 C   0  0  0  0  0  1  0  0  0  0  0  0
  189.4400  173.7900  138.3740 C   0  0  1  0  0  3  0  0  0  0  0  0
  2  1  1  6  0  0  0
  2  9  1  0  0  0  0
  2 19  1  0  0  0  0
  3 14  1  0  0  0  0
  4  6  1  1  0  0  0
  5 12  1  0  0  0  0
  7  4  1  0  0  0  0
  8  6  1  0  0  0  0
  9  8  1  0  0  0  0
 10  7  1  0  0  0  0
 10  9  1  0  0  0  0
 11  5  1  0  0  0  0
 11 13  1  0  0  0  0
 12  3  1  0  0  0  0
 12  7  1  0  0  0  0
 13  1  1  0  0  0  0
 13 10  1  0  0  0  0
 14  4  1  0  0  0  0
 14 30  1  0  0  0  0
 15 17  1  0  0  0  0
 15 16  1  0  0  0  0
 16 25  1  0  0  0  0
 17 16  1  0  0  0  0
 19 15  1  0  0  0  0
 20 22  1  0  0  0  0
 21 20  1  0  0  0  0
 22 18  1  0  0  0  0
 22 16  1  0  0  0  0
 23 20  1  0  0  0  0
 23 19  1  0  0  0  0
 25 28  1  0  0  0  0
 25 24  1  0  0  0  0
 25 26  1  0  0  0  0
 28 27  1  0  0  0  0
 30 34  1  0  0  0  0
 31 29  1  0  0  0  0
 32 30  2  0  0  0  0
 32 33  1  0  0  0  0
 33 31  2  0  0  0  0
 34 29  2  0  0  0  0
 35 37  1  0  0  0  0
 36 37  1  0  0  0  0
 37 11  1  0  0  0  0
M  END
>  <MODEL>
7

>  <REMARK>
 VINA RESULT:      -7.0      2.474      5.279
  Name = 
  5 active torsions:
  status: ('A' for Active; 'I' for Inactive)
    1  A    between atoms: C_4  and  C_22
    2  A    between atoms: C_13  and  C_14
    3  A    between atoms: C_13  and  C_31
    4  A    between atoms: C_20  and  C_35
    5  A    between atoms: C_27  and  C_36
                            x       y       z     vdW  Elec       q    Type
                         _______ _______ _______ _____ _____    ______ ____

>  <TORSDO>
F 5

$$$$
=
 OpenBabel11062418523D

 37 43  0  0  1  0  0  0  0  0999 V2000
  190.9490  174.7950  144.9760 C   0  0  0  0  0  2  0  0  0  0  0  0
  189.5720  174.9700  144.2930 C   0  0  2  0  0  3  0  0  0  0  0  0
  192.3680  170.7820  141.3570 N   0  0  0  0  0  2  0  0  0  0  0  0
  190.2870  171.9260  141.6140 C   0  0  2  0  0  3  0  0  0  0  0  0
  193.2090  172.0360  143.3500 C   0  0  0  0  0  2  0  0  0  0  0  0
  189.0430  172.6540  141.0760 C   0  0  0  0  0  2  0  0  0  0  0  0
  191.3670  172.9230  141.7640 C   0  0  1  0  0  3  0  0  0  0  0  0
  188.6700  173.8830  141.9790 C   0  0  0  0  0  2  0  0  0  0  0  0
  189.7720  174.3220  142.9500 C   0  0  2  0  0  3  0  0  0  0  0  0
  190.9650  173.7610  142.9060 C   0  0  1  0  0  3  0  0  0  0  0  0
  193.0260  173.3560  144.1440 C   0  0  1  0  0  3  0  0  0  0  0  0
  192.6490  172.1180  141.9080 C   0  0  2  0  0  3  0  0  0  0  0  0
  191.5260  173.5980  144.2450 C   0  0  1  0  0  3  0  0  0  0  0  0
  190.9710  170.7890  140.8820 C   0  0  1  0  0  3  0  0  0  0  0  0
  187.9870  176.7570  143.2750 C   0  0  2  0  0  3  0  0  0  0  0  0
  186.8230  177.3690  143.9780 C   0  0  1  0  0  0  0  0  0  0  0  0
  186.8820  175.9870  143.7200 O   0  0  0  0  0  0  0  0  0  0  0  0
  187.0260  179.0460  145.6690 F   0  0  0  0  0  0  0  0  0  0  0  0
  189.2220  176.4600  144.1560 C   0  0  1  0  0  3  0  0  0  0  0  0
  188.1080  176.9960  146.1370 C   0  0  2  0  0  3  0  0  0  0  0  0
  187.8450  175.6630  146.4140 F   0  0  0  0  0  0  0  0  0  0  0  0
  186.9190  177.6810  145.4780 C   0  0  2  0  0  3  0  0  0  0  0  0
  189.2880  177.1710  145.3820 O   0  0  0  0  0  0  0  0  0  0  0  0
  186.1680  179.3800  142.8590 O   0  0  0  0  0  1  0  0  0  0  0  0
  185.7390  178.0800  143.1390 C   0  0  0  0  0  0  0  0  0  0  0  0
  185.5780  177.3870  141.9380 O   0  0  0  0  0  1  0  0  0  0  0  0
  184.0300  179.5660  144.2770 C   0  0  0  0  0  1  0  0  0  0  0  0
  184.3840  178.1470  143.8610 C   0  0  0  0  0  2  0  0  0  0  0  0
  189.9190  170.3400  137.2390 C   0  0  0  0  0  3  0  0  0  0  0  0
  190.9070  170.9090  139.3840 C   0  0  0  0  0  0  0  0  0  0  0  0
  190.8630  171.1390  136.5900 C   0  0  0  0  0  3  0  0  0  0  0  0
  191.8540  171.7040  138.7270 C   0  0  0  0  0  3  0  0  0  0  0  0
  191.8310  171.8210  137.3350 C   0  0  0  0  0  3  0  0  0  0  0  0
  189.9400  170.2220  138.6320 C   0  0  0  0  0  3  0  0  0  0  0  0
  194.3440  172.0610  145.7030 O   0  0  0  0  0  1  0  0  0  0  0  0
  194.6020  174.4330  145.7690 C   0  0  0  0  0  1  0  0  0  0  0  0
  193.6600  173.2690  145.5330 C   0  0  1  0  0  3  0  0  0  0  0  0
  2  1  1  1  0  0  0
  3 12  1  0  0  0  0
  4  6  1  6  0  0  0
  4  7  1  0  0  0  0
  5 11  1  0  0  0  0
  6  8  1  0  0  0  0
  7 12  1  0  0  0  0
  7 10  1  0  0  0  0
  8  9  1  0  0  0  0
  9  2  1  0  0  0  0
 10  9  1  0  0  0  0
 10 13  1  0  0  0  0
 11 13  1  0  0  0  0
 11 37  1  0  0  0  0
 12  5  1  0  0  0  0
 13  1  1  0  0  0  0
 14  3  1  0  0  0  0
 14  4  1  0  0  0  0
 15 17  1  0  0  0  0
 15 16  1  0  0  0  0
 15 19  1  0  0  0  0
 16 22  1  0  0  0  0
 17 16  1  0  0  0  0
 19  2  1  0  0  0  0
 19 23  1  0  0  0  0
 20 21  1  0  0  0  0
 22 18  1  0  0  0  0
 22 20  1  0  0  0  0
 23 20  1  0  0  0  0
 24 25  1  0  0  0  0
 25 28  1  0  0  0  0
 25 16  1  0  0  0  0
 26 25  1  0  0  0  0
 28 27  1  0  0  0  0
 29 34  1  0  0  0  0
 30 14  1  0  0  0  0
 31 29  2  0  0  0  0
 31 33  1  0  0  0  0
 32 30  1  0  0  0  0
 33 32  2  0  0  0  0
 34 30  2  0  0  0  0
 37 35  1  0  0  0  0
 37 36  1  0  0  0  0
M  END
>  <MODEL>
8

>  <REMARK>
 VINA RESULT:      -7.0      1.510      1.955
  Name = 
  5 active torsions:
  status: ('A' for Active; 'I' for Inactive)
    1  A    between atoms: C_4  and  C_22
    2  A    between atoms: C_13  and  C_14
    3  A    between atoms: C_13  and  C_31
    4  A    between atoms: C_20  and  C_35
    5  A    between atoms: C_27  and  C_36
                            x       y       z     vdW  Elec       q    Type
                         _______ _______ _______ _____ _____    ______ ____

>  <TORSDO>
F 5

$$$$
=
 OpenBabel11062418523D

 37 43  0  0  1  0  0  0  0  0999 V2000
  189.0620  176.8410  145.6840 C   0  0  0  0  0  2  0  0  0  0  0  0
  188.5710  176.5760  144.2410 C   0  0  2  0  0  3  0  0  0  0  0  0
  193.9970  174.4710  144.5690 N   0  0  0  0  0  2  0  0  0  0  0  0
  192.0440  174.6220  143.2030 C   0  0  2  0  0  3  0  0  0  0  0  0
  192.6970  175.5640  146.4050 C   0  0  0  0  0  2  0  0  0  0  0  0
  191.3120  174.8800  141.8750 C   0  0  0  0  0  2  0  0  0  0  0  0
  192.2110  175.9200  143.8880 C   0  0  1  0  0  3  0  0  0  0  0  0
  189.9750  175.6690  142.1070 C   0  0  0  0  0  2  0  0  0  0  0  0
  189.8480  176.3220  143.4870 C   0  0  2  0  0  3  0  0  0  0  0  0
  190.8600  176.3020  144.3330 C   0  0  1  0  0  3  0  0  0  0  0  0
  191.5120  176.5300  146.6700 C   0  0  1  0  0  3  0  0  0  0  0  0
  193.2570  175.6810  144.9660 C   0  0  2  0  0  3  0  0  0  0  0  0
  190.4020  176.1310  145.7100 C   0  0  1  0  0  3  0  0  0  0  0  0
  193.4270  174.0080  143.2890 C   0  0  1  0  0  3  0  0  0  0  0  0
  187.2180  177.6100  142.2820 C   0  0  2  0  0  3  0  0  0  0  0  0
  185.7300  177.6640  142.2030 C   0  0  1  0  0  0  0  0  0  0  0  0
  186.4190  176.4390  142.2540 O   0  0  0  0  0  0  0  0  0  0  0  0
  184.3910  179.2020  143.4520 F   0  0  0  0  0  0  0  0  0  0  0  0
  187.8220  177.8010  143.6910 C   0  0  1  0  0  3  0  0  0  0  0  0
  185.7390  177.7480  144.7420 C   0  0  2  0  0  3  0  0  0  0  0  0
  185.8830  176.4120  145.0840 F   0  0  0  0  0  0  0  0  0  0  0  0
  184.9110  177.9210  143.4770 C   0  0  2  0  0  3  0  0  0  0  0  0
  186.9760  178.4200  144.6450 O   0  0  0  0  0  0  0  0  0  0  0  0
  185.1640  179.2710  140.5220 O   0  0  0  0  0  1  0  0  0  0  0  0
  185.0660  177.9120  140.8300 C   0  0  0  0  0  0  0  0  0  0  0  0
  185.7550  177.1760  139.8630 O   0  0  0  0  0  1  0  0  0  0  0  0
  182.6670  178.6950  140.6050 C   0  0  0  0  0  1  0  0  0  0  0  0
  183.5870  177.5010  140.8080 C   0  0  0  0  0  2  0  0  0  0  0  0
  195.2000  173.9540  139.9080 C   0  0  0  0  0  3  0  0  0  0  0  0
  194.3210  174.3680  142.1350 C   0  0  0  0  0  0  0  0  0  0  0  0
  196.0390  175.0630  140.0320 C   0  0  0  0  0  3  0  0  0  0  0  0
  195.1690  175.4750  142.2540 C   0  0  0  0  0  3  0  0  0  0  0  0
  196.0240  175.8240  141.2050 C   0  0  0  0  0  3  0  0  0  0  0  0
  194.3430  173.6040  140.9570 C   0  0  0  0  0  3  0  0  0  0  0  0
  191.3650  175.2160  148.6940 O   0  0  0  0  0  1  0  0  0  0  0  0
  191.6250  177.5740  148.9480 C   0  0  0  0  0  1  0  0  0  0  0  0
  191.0350  176.4470  148.1220 C   0  0  1  0  0  3  0  0  0  0  0  0
  1 13  1  0  0  0  0
  2  1  1  1  0  0  0
  3 12  1  0  0  0  0
  4  6  1  6  0  0  0
  4 14  1  0  0  0  0
  4  7  1  0  0  0  0
  5 11  1  0  0  0  0
  6  8  1  0  0  0  0
  7 10  1  0  0  0  0
  7 12  1  0  0  0  0
  8  9  1  0  0  0  0
  9  2  1  0  0  0  0
  9 10  1  0  0  0  0
 10 13  1  0  0  0  0
 11 37  1  0  0  0  0
 12  5  1  0  0  0  0
 13 11  1  0  0  0  0
 14  3  1  0  0  0  0
 15 19  1  0  0  0  0
 16 17  1  0  0  0  0
 16 15  1  0  0  0  0
 16 22  1  0  0  0  0
 17 15  1  0  0  0  0
 18 22  1  0  0  0  0
 19  2  1  0  0  0  0
 19 23  1  0  0  0  0
 20 21  1  0  0  0  0
 22 20  1  0  0  0  0
 23 20  1  0  0  0  0
 24 25  1  0  0  0  0
 25 16  1  0  0  0  0
 26 25  1  0  0  0  0
 27 28  1  0  0  0  0
 28 25  1  0  0  0  0
 29 31  2  0  0  0  0
 29 34  1  0  0  0  0
 30 32  1  0  0  0  0
 30 14  1  0  0  0  0
 31 33  1  0  0  0  0
 33 32  2  0  0  0  0
 34 30  2  0  0  0  0
 37 35  1  0  0  0  0
 37 36  1  0  0  0  0
M  END
>  <MODEL>
9

>  <REMARK>
 VINA RESULT:      -6.8      2.698      3.946
  Name = 
  5 active torsions:
  status: ('A' for Active; 'I' for Inactive)
    1  A    between atoms: C_4  and  C_22
    2  A    between atoms: C_13  and  C_14
    3  A    between atoms: C_13  and  C_31
    4  A    between atoms: C_20  and  C_35
    5  A    between atoms: C_27  and  C_36
                            x       y       z     vdW  Elec       q    Type
                         _______ _______ _______ _____ _____    ______ ____

>  <TORSDO>
F 5

$$$$
