=
 OpenBabel11062419293D

 40 45  0  0  1  0  0  0  0  0999 V2000
  193.4990  176.5870  145.6950 C   0  0  0  0  0  0  0  0  0  0  0  0
  190.2240  175.6050  145.8110 C   0  0  0  0  0  0  0  0  0  0  0  0
  190.0620  175.0020  147.1080 N   0  0  0  0  0  0  0  0  0  0  0  0
  191.0140  175.3560  147.8810 N   0  0  0  0  0  2  0  0  0  0  0  0
  191.8360  176.2400  147.1390 C   0  0  1  0  0  3  0  0  0  0  0  0
  193.1620  176.2370  147.0930 C   0  0  0  0  0  3  0  0  0  0  0  0
  191.2760  176.4190  145.8500 C   0  0  1  0  0  3  0  0  0  0  0  0
  192.3380  176.8800  143.4760 C   0  0  0  0  0  1  0  0  0  0  0  0
  192.3930  176.6340  144.9460 C   0  0  1  0  0  3  0  0  0  0  0  0
  188.2990  177.2570  144.5090 F   0  0  0  0  0  0  0  0  0  0  0  0
  188.1280  174.3320  142.2960 C   0  0  0  0  0  3  0  0  0  0  0  0
  187.8550  175.6060  142.8210 C   0  0  0  0  0  0  0  0  0  0  0  0
  189.4780  175.1790  144.6060 C   0  0  0  0  0  0  0  0  0  0  0  0
  188.5430  176.0310  143.9810 C   0  0  0  0  0  0  0  0  0  0  0  0
  189.7340  173.9180  144.0490 C   0  0  0  0  0  3  0  0  0  0  0  0
  189.3440  172.1540  142.3290 C   0  0  0  0  0  1  0  0  0  0  0  0
  189.0630  173.4950  142.9040 C   0  0  0  0  0  0  0  0  0  0  0  0
  185.6620  176.8760  142.8000 N   0  0  0  0  0  2  0  0  0  0  0  0
  186.8570  176.4590  142.1320 C   0  0  0  0  0  0  0  0  0  0  0  0
  187.0610  176.8210  140.9410 O   0  0  0  0  0  0  0  0  0  0  0  0
  184.6870  177.7730  142.1950 C   0  0  0  0  0  2  0  0  0  0  0  0
  183.9940  178.6190  143.2590 C   0  0  0  0  0  2  0  0  0  0  0  0
  184.1200  178.8210  145.7210 C   0  0  0  0  0  1  0  0  0  0  0  0
  184.9180  178.8860  144.4370 C   0  0  2  0  0  3  0  0  0  0  0  0
  185.4930  180.1500  144.3160 O   0  0  0  0  0  1  0  0  0  0  0  0
  194.8910  176.7540  145.1820 C   0  0  0  0  0  2  0  0  0  0  0  0
  195.4880  175.4230  144.8760 C   0  0  0  0  0  0  0  0  0  0  0  0
  196.2550  173.6590  143.8460 N   0  0  0  0  0  0  0  0  0  0  0  0
  197.4580  173.0120  144.4430 C   0  0  0  0  0  2  0  0  0  0  0  0
  196.3540  173.1790  145.2320 C   0  0  1  0  0  0  0  0  0  0  0  0
  195.8950  174.5200  145.8250 C   0  0  0  0  0  3  0  0  0  0  0  0
  195.6720  174.8680  143.5380 C   0  0  0  0  0  0  0  0  0  0  0  0
  195.2370  175.2480  142.4190 O   0  0  0  0  0  0  0  0  0  0  0  0
  195.4110  171.9970  145.3940 C   0  0  0  0  0  2  0  0  0  0  0  0
  196.1210  170.7720  145.2530 O   0  0  0  0  0  0  0  0  0  0  0  0
  196.6190  168.3070  147.8750 C   0  0  0  0  0  2  0  0  0  0  0  0
  195.9990  169.7160  146.1600 C   0  0  0  0  0  0  0  0  0  0  0  0
  196.9400  169.4040  146.9840 N   0  0  0  0  0  0  0  0  0  0  0  0
  194.5010  168.7640  146.2710 S   0  0  0  0  0  0  0  0  0  0  0  0
  195.1030  168.1660  147.8810 C   0  0  0  0  0  2  0  0  0  0  0  0
  1  6  2  0  0  0  0
  2  3  2  0  0  0  0
  3  4  1  0  0  0  0
  5  6  1  6  0  0  0
  5  4  1  0  0  0  0
  7  2  1  6  0  0  0
  7  5  1  0  0  0  0
  9  8  1  1  0  0  0
  9  1  1  0  0  0  0
  9  7  1  0  0  0  0
 11 12  2  0  0  0  0
 11 17  1  0  0  0  0
 12 14  1  0  0  0  0
 13  2  1  0  0  0  0
 14 10  1  0  0  0  0
 14 13  2  0  0  0  0
 15 13  1  0  0  0  0
 16 17  1  0  0  0  0
 17 15  2  0  0  0  0
 19 18  1  0  0  0  0
 19 12  1  0  0  0  0
 20 19  2  0  0  0  0
 21 18  1  0  0  0  0
 21 22  1  0  0  0  0
 22 24  1  0  0  0  0
 24 23  1  1  0  0  0
 25 24  1  0  0  0  0
 26  1  1  0  0  0  0
 27 26  1  0  0  0  0
 27 31  2  0  0  0  0
 28 29  1  0  0  0  0
 28 30  1  0  0  0  0
 29 30  1  0  0  0  0
 30 34  1  1  0  0  0
 30 31  1  0  0  0  0
 32 28  1  0  0  0  0
 32 27  1  0  0  0  0
 33 32  2  0  0  0  0
 35 34  1  0  0  0  0
 35 37  1  0  0  0  0
 36 40  1  0  0  0  0
 37 39  1  0  0  0  0
 37 38  2  0  0  0  0
 38 36  1  0  0  0  0
 39 40  1  0  0  0  0
M  END
>  <MODEL>
1

>  <REMARK>
 VINA RESULT:      -8.2      0.000      0.000
  Name = 
  10 active torsions:
  status: ('A' for Active; 'I' for Inactive)
    1  A    between atoms: C_1  and  C_17
    2  A    between atoms: C_2  and  C_17
    3  A    between atoms: C_6  and  C_15
    4  A    between atoms: C_7  and  C_18
    5  A    between atoms: C_11  and  C_15
    6  A    between atoms: C_11  and  N_22
    7  A    between atoms: O_14  and  C_21
    8  A    between atoms: O_14  and  C_35
    9  A    between atoms: C_16  and  C_36
   10  A    between atoms: C_19  and  C_35
                            x       y       z     vdW  Elec       q    Type
                         _______ _______ _______ _____ _____    ______ ____

>  <TORSDO>
F 10

$$$$
=
 OpenBabel11062419293D

 40 45  0  0  1  0  0  0  0  0999 V2000
  193.2730  176.8540  145.8550 C   0  0  0  0  0  0  0  0  0  0  0  0
  190.0850  175.6130  145.8790 C   0  0  0  0  0  0  0  0  0  0  0  0
  189.9680  174.9110  147.1310 N   0  0  0  0  0  0  0  0  0  0  0  0
  190.8880  175.2840  147.9330 N   0  0  0  0  0  2  0  0  0  0  0  0
  191.6390  176.2790  147.2600 C   0  0  1  0  0  3  0  0  0  0  0  0
  192.9620  176.3830  147.2240 C   0  0  0  0  0  3  0  0  0  0  0  0
  191.0700  176.5020  145.9820 C   0  0  1  0  0  3  0  0  0  0  0  0
  192.0970  177.2070  143.6530 C   0  0  0  0  0  1  0  0  0  0  0  0
  192.1680  176.8650  145.1030 C   0  0  1  0  0  3  0  0  0  0  0  0
  188.1670  177.2760  144.5800 F   0  0  0  0  0  0  0  0  0  0  0  0
  188.1010  174.4200  142.2730 C   0  0  0  0  0  3  0  0  0  0  0  0
  187.7940  175.6720  142.8300 C   0  0  0  0  0  0  0  0  0  0  0  0
  189.3770  175.2130  144.6420 C   0  0  0  0  0  0  0  0  0  0  0  0
  188.4440  176.0710  144.0200 C   0  0  0  0  0  0  0  0  0  0  0  0
  189.6680  173.9750  144.0540 C   0  0  0  0  0  3  0  0  0  0  0  0
  189.3510  172.2600  142.2700 C   0  0  0  0  0  1  0  0  0  0  0  0
  189.0330  173.5790  142.8780 C   0  0  0  0  0  0  0  0  0  0  0  0
  185.5730  176.8920  142.7830 N   0  0  0  0  0  2  0  0  0  0  0  0
  186.8000  176.5310  142.1420 C   0  0  0  0  0  0  0  0  0  0  0  0
  187.0370  176.9480  140.9750 O   0  0  0  0  0  0  0  0  0  0  0  0
  184.5990  177.7920  142.1820 C   0  0  0  0  0  2  0  0  0  0  0  0
  184.0120  178.7350  143.2290 C   0  0  0  0  0  2  0  0  0  0  0  0
  184.1340  178.7510  145.6990 C   0  0  0  0  0  1  0  0  0  0  0  0
  184.9400  178.8750  144.4240 C   0  0  2  0  0  3  0  0  0  0  0  0
  185.5690  180.1180  144.3960 O   0  0  0  0  0  1  0  0  0  0  0  0
  194.6480  177.1630  145.3650 C   0  0  0  0  0  2  0  0  0  0  0  0
  195.3780  175.9020  145.0510 C   0  0  0  0  0  0  0  0  0  0  0  0
  196.6360  174.3910  144.1060 N   0  0  0  0  0  0  0  0  0  0  0  0
  197.4060  173.5010  145.0190 C   0  0  0  0  0  2  0  0  0  0  0  0
  196.0490  173.5680  145.1730 C   0  0  1  0  0  0  0  0  0  0  0  0
  195.2950  174.7530  145.7950 C   0  0  0  0  0  3  0  0  0  0  0  0
  196.2310  175.6890  143.8850 C   0  0  0  0  0  0  0  0  0  0  0  0
  196.3990  176.3800  142.8470 O   0  0  0  0  0  0  0  0  0  0  0  0
  195.2070  172.4810  144.5270 C   0  0  0  0  0  2  0  0  0  0  0  0
  193.9690  173.0160  144.0720 O   0  0  0  0  0  0  0  0  0  0  0  0
  192.5750  174.0800  140.8910 C   0  0  0  0  0  2  0  0  0  0  0  0
  193.6830  173.2210  142.7200 C   0  0  0  0  0  0  0  0  0  0  0  0
  192.6930  173.9490  142.3290 N   0  0  0  0  0  0  0  0  0  0  0  0
  194.7090  172.5300  141.4440 S   0  0  0  0  0  0  0  0  0  0  0  0
  193.9250  173.7050  140.2960 C   0  0  0  0  0  2  0  0  0  0  0  0
  1  6  2  0  0  0  0
  2  3  2  0  0  0  0
  3  4  1  0  0  0  0
  5  6  1  6  0  0  0
  5  4  1  0  0  0  0
  7  2  1  6  0  0  0
  7  5  1  0  0  0  0
  9  8  1  1  0  0  0
  9  1  1  0  0  0  0
  9  7  1  0  0  0  0
 11 12  2  0  0  0  0
 11 17  1  0  0  0  0
 12 14  1  0  0  0  0
 13  2  1  0  0  0  0
 14 10  1  0  0  0  0
 14 13  2  0  0  0  0
 15 13  1  0  0  0  0
 16 17  1  0  0  0  0
 17 15  2  0  0  0  0
 19 18  1  0  0  0  0
 19 12  1  0  0  0  0
 20 19  2  0  0  0  0
 21 18  1  0  0  0  0
 21 22  1  0  0  0  0
 22 24  1  0  0  0  0
 24 23  1  1  0  0  0
 25 24  1  0  0  0  0
 26  1  1  0  0  0  0
 27 26  1  0  0  0  0
 27 31  2  0  0  0  0
 28 29  1  0  0  0  0
 28 30  1  0  0  0  0
 29 30  1  0  0  0  0
 30 34  1  6  0  0  0
 30 31  1  0  0  0  0
 32 28  1  0  0  0  0
 32 27  1  0  0  0  0
 33 32  2  0  0  0  0
 35 34  1  0  0  0  0
 36 38  1  0  0  0  0
 37 35  1  0  0  0  0
 38 37  2  0  0  0  0
 39 37  1  0  0  0  0
 40 36  1  0  0  0  0
 40 39  1  0  0  0  0
M  END
>  <MODEL>
2

>  <REMARK>
 VINA RESULT:      -7.9      2.010      2.893
  Name = 
  10 active torsions:
  status: ('A' for Active; 'I' for Inactive)
    1  A    between atoms: C_1  and  C_17
    2  A    between atoms: C_2  and  C_17
    3  A    between atoms: C_6  and  C_15
    4  A    between atoms: C_7  and  C_18
    5  A    between atoms: C_11  and  C_15
    6  A    between atoms: C_11  and  N_22
    7  A    between atoms: O_14  and  C_21
    8  A    between atoms: O_14  and  C_35
    9  A    between atoms: C_16  and  C_36
   10  A    between atoms: C_19  and  C_35
                            x       y       z     vdW  Elec       q    Type
                         _______ _______ _______ _____ _____    ______ ____

>  <TORSDO>
F 10

$$$$
=
 OpenBabel11062419293D

 40 45  0  0  1  0  0  0  0  0999 V2000
  193.7380  176.4580  145.3600 C   0  0  0  0  0  0  0  0  0  0  0  0
  190.4410  175.5900  145.6390 C   0  0  0  0  0  0  0  0  0  0  0  0
  190.3110  175.0460  146.9650 N   0  0  0  0  0  0  0  0  0  0  0  0
  191.3030  175.3980  147.6860 N   0  0  0  0  0  2  0  0  0  0  0  0
  192.1230  176.2240  146.8780 C   0  0  1  0  0  3  0  0  0  0  0  0
  193.4450  176.1760  146.7830 C   0  0  0  0  0  3  0  0  0  0  0  0
  191.5200  176.3700  145.6050 C   0  0  1  0  0  3  0  0  0  0  0  0
  192.5020  176.7000  143.1750 C   0  0  0  0  0  1  0  0  0  0  0  0
  192.6060  176.5110  144.6510 C   0  0  1  0  0  3  0  0  0  0  0  0
  188.5090  177.2470  144.3530 F   0  0  0  0  0  0  0  0  0  0  0  0
  188.1710  174.2490  142.2610 C   0  0  0  0  0  3  0  0  0  0  0  0
  187.9530  175.5480  142.7470 C   0  0  0  0  0  0  0  0  0  0  0  0
  189.6360  175.1410  144.4810 C   0  0  0  0  0  0  0  0  0  0  0  0
  188.6990  175.9960  143.8620 C   0  0  0  0  0  0  0  0  0  0  0  0
  189.8350  173.8540  143.9630 C   0  0  0  0  0  3  0  0  0  0  0  0
  189.3290  172.0390  142.3280 C   0  0  0  0  0  1  0  0  0  0  0  0
  189.1070  173.4090  142.8620 C   0  0  0  0  0  0  0  0  0  0  0  0
  185.8160  176.9090  142.7760 N   0  0  0  0  0  2  0  0  0  0  0  0
  186.9510  176.4020  142.0670 C   0  0  0  0  0  0  0  0  0  0  0  0
  187.0980  176.6860  140.8470 O   0  0  0  0  0  0  0  0  0  0  0  0
  184.8440  177.8120  142.1750 C   0  0  0  0  0  2  0  0  0  0  0  0
  184.0250  178.5210  143.2490 C   0  0  0  0  0  2  0  0  0  0  0  0
  183.9890  178.8130  145.7050 C   0  0  0  0  0  1  0  0  0  0  0  0
  184.8710  178.8240  144.4760 C   0  0  2  0  0  3  0  0  0  0  0  0
  185.4670  180.0770  144.3470 O   0  0  0  0  0  1  0  0  0  0  0  0
  195.1140  176.5580  144.7880 C   0  0  0  0  0  2  0  0  0  0  0  0
  195.7030  175.1980  144.6280 C   0  0  0  0  0  0  0  0  0  0  0  0
  196.3540  173.2800  143.8150 N   0  0  0  0  0  0  0  0  0  0  0  0
  197.6650  172.7640  144.3010 C   0  0  0  0  0  2  0  0  0  0  0  0
  196.7050  173.0640  145.2260 C   0  0  1  0  0  0  0  0  0  0  0  0
  196.3000  174.4880  145.6380 C   0  0  0  0  0  3  0  0  0  0  0  0
  195.6800  174.4080  143.4000 C   0  0  0  0  0  0  0  0  0  0  0  0
  195.0480  174.5720  142.3240 O   0  0  0  0  0  0  0  0  0  0  0  0
  195.8510  171.9260  145.7590 C   0  0  0  0  0  2  0  0  0  0  0  0
  194.5010  172.0760  145.3350 O   0  0  0  0  0  0  0  0  0  0  0  0
  192.1950  170.0880  143.3540 C   0  0  0  0  0  2  0  0  0  0  0  0
  193.7790  171.0470  144.7250 C   0  0  0  0  0  0  0  0  0  0  0  0
  192.7990  171.2770  143.9200 N   0  0  0  0  0  0  0  0  0  0  0  0
  194.2070  169.3400  144.9840 S   0  0  0  0  0  0  0  0  0  0  0  0
  193.1980  168.9550  143.5180 C   0  0  0  0  0  2  0  0  0  0  0  0
  1  6  2  0  0  0  0
  2  3  2  0  0  0  0
  3  4  1  0  0  0  0
  5  6  1  6  0  0  0
  5  4  1  0  0  0  0
  7  2  1  6  0  0  0
  7  5  1  0  0  0  0
  9  8  1  1  0  0  0
  9  1  1  0  0  0  0
  9  7  1  0  0  0  0
 11 12  2  0  0  0  0
 11 17  1  0  0  0  0
 12 14  1  0  0  0  0
 13  2  1  0  0  0  0
 14 10  1  0  0  0  0
 14 13  2  0  0  0  0
 15 13  1  0  0  0  0
 16 17  1  0  0  0  0
 17 15  2  0  0  0  0
 19 12  1  0  0  0  0
 19 18  1  0  0  0  0
 20 19  2  0  0  0  0
 21 18  1  0  0  0  0
 21 22  1  0  0  0  0
 22 24  1  0  0  0  0
 24 23  1  1  0  0  0
 25 24  1  0  0  0  0
 26  1  1  0  0  0  0
 27 26  1  0  0  0  0
 27 31  2  0  0  0  0
 28 29  1  0  0  0  0
 28 30  1  0  0  0  0
 29 30  1  0  0  0  0
 30 31  1  0  0  0  0
 30 34  1  1  0  0  0
 32 28  1  0  0  0  0
 32 27  1  0  0  0  0
 33 32  2  0  0  0  0
 35 34  1  0  0  0  0
 36 40  1  0  0  0  0
 36 38  1  0  0  0  0
 37 39  1  0  0  0  0
 37 35  1  0  0  0  0
 38 37  2  0  0  0  0
 40 39  1  0  0  0  0
M  END
>  <MODEL>
3

>  <REMARK>
 VINA RESULT:      -7.8      1.396      1.698
  Name = 
  10 active torsions:
  status: ('A' for Active; 'I' for Inactive)
    1  A    between atoms: C_1  and  C_17
    2  A    between atoms: C_2  and  C_17
    3  A    between atoms: C_6  and  C_15
    4  A    between atoms: C_7  and  C_18
    5  A    between atoms: C_11  and  C_15
    6  A    between atoms: C_11  and  N_22
    7  A    between atoms: O_14  and  C_21
    8  A    between atoms: O_14  and  C_35
    9  A    between atoms: C_16  and  C_36
   10  A    between atoms: C_19  and  C_35
                            x       y       z     vdW  Elec       q    Type
                         _______ _______ _______ _____ _____    ______ ____

>  <TORSDO>
F 10

$$$$
=
 OpenBabel11062419293D

 40 45  0  0  1  0  0  0  0  0999 V2000
  192.3300  176.1370  145.8200 C   0  0  0  0  0  0  0  0  0  0  0  0
  188.9220  176.4040  145.9440 C   0  0  0  0  0  0  0  0  0  0  0  0
  188.4960  175.3320  146.8050 N   0  0  0  0  0  0  0  0  0  0  0  0
  189.4780  174.9090  147.5010 N   0  0  0  0  0  2  0  0  0  0  0  0
  190.5980  175.7050  147.1550 C   0  0  1  0  0  3  0  0  0  0  0  0
  191.8310  175.2770  146.9160 C   0  0  0  0  0  3  0  0  0  0  0  0
  190.1970  176.6790  146.2070 C   0  0  1  0  0  3  0  0  0  0  0  0
  191.4510  177.8680  144.2100 C   0  0  0  0  0  1  0  0  0  0  0  0
  191.3510  176.9220  145.3590 C   0  0  1  0  0  3  0  0  0  0  0  0
  189.1270  175.3520  143.3020 F   0  0  0  0  0  0  0  0  0  0  0  0
  186.5450  177.8940  142.7040 C   0  0  0  0  0  3  0  0  0  0  0  0
  187.4540  176.8530  142.4520 C   0  0  0  0  0  0  0  0  0  0  0  0
  188.1220  176.9150  144.8080 C   0  0  0  0  0  0  0  0  0  0  0  0
  188.2410  176.3580  143.5170 C   0  0  0  0  0  0  0  0  0  0  0  0
  187.1980  177.9460  145.0260 C   0  0  0  0  0  3  0  0  0  0  0  0
  185.4430  179.5310  144.2310 C   0  0  0  0  0  1  0  0  0  0  0  0
  186.4160  178.4350  143.9820 C   0  0  0  0  0  0  0  0  0  0  0  0
  188.1930  175.0580  140.8230 N   0  0  0  0  0  2  0  0  0  0  0  0
  187.5470  176.3100  141.0760 C   0  0  0  0  0  0  0  0  0  0  0  0
  187.0530  176.9590  140.1140 O   0  0  0  0  0  0  0  0  0  0  0  0
  188.2460  174.4450  139.5030 C   0  0  0  0  0  2  0  0  0  0  0  0
  189.4890  173.5730  139.3590 C   0  0  0  0  0  2  0  0  0  0  0  0
  191.5460  173.7540  140.7200 C   0  0  0  0  0  1  0  0  0  0  0  0
  190.1110  173.2730  140.7130 C   0  0  2  0  0  3  0  0  0  0  0  0
  190.0840  171.9020  140.9590 O   0  0  0  0  0  1  0  0  0  0  0  0
  193.7050  176.0540  145.2450 C   0  0  0  0  0  2  0  0  0  0  0  0
  194.0620  174.6330  144.9690 C   0  0  0  0  0  0  0  0  0  0  0  0
  195.0330  172.6800  144.9720 N   0  0  0  0  0  0  0  0  0  0  0  0
  194.1390  171.4930  144.8650 C   0  0  0  0  0  2  0  0  0  0  0  0
  194.0610  172.4520  143.8940 C   0  0  1  0  0  0  0  0  0  0  0  0
  193.4040  173.8290  144.0740 C   0  0  0  0  0  3  0  0  0  0  0  0
  195.1870  173.9160  145.5610 C   0  0  0  0  0  0  0  0  0  0  0  0
  196.1650  174.3280  146.2390 O   0  0  0  0  0  0  0  0  0  0  0  0
  194.8280  172.2210  142.6030 C   0  0  0  0  0  2  0  0  0  0  0  0
  194.7440  173.3660  141.7620 O   0  0  0  0  0  0  0  0  0  0  0  0
  196.3880  176.6050  141.7080 C   0  0  0  0  0  2  0  0  0  0  0  0
  195.6550  174.4230  141.8280 C   0  0  0  0  0  0  0  0  0  0  0  0
  195.3220  175.6370  141.5460 N   0  0  0  0  0  0  0  0  0  0  0  0
  197.3310  174.1660  142.3620 S   0  0  0  0  0  0  0  0  0  0  0  0
  197.4380  175.9660  142.6060 C   0  0  0  0  0  2  0  0  0  0  0  0
  1  6  2  0  0  0  0
  2  3  2  0  0  0  0
  3  4  1  0  0  0  0
  5  6  1  6  0  0  0
  5  4  1  0  0  0  0
  7  2  1  6  0  0  0
  7  5  1  0  0  0  0
  9  8  1  1  0  0  0
  9  1  1  0  0  0  0
  9  7  1  0  0  0  0
 10 14  1  0  0  0  0
 11 17  1  0  0  0  0
 12 11  2  0  0  0  0
 12 14  1  0  0  0  0
 13 15  1  0  0  0  0
 13  2  1  0  0  0  0
 14 13  2  0  0  0  0
 17 16  1  0  0  0  0
 17 15  2  0  0  0  0
 18 19  1  0  0  0  0
 19 12  1  0  0  0  0
 20 19  2  0  0  0  0
 21 18  1  0  0  0  0
 22 21  1  0  0  0  0
 22 24  1  0  0  0  0
 24 23  1  6  0  0  0
 24 25  1  0  0  0  0
 26  1  1  0  0  0  0
 27 26  1  0  0  0  0
 27 32  1  0  0  0  0
 28 32  1  0  0  0  0
 29 28  1  0  0  0  0
 30 34  1  6  0  0  0
 30 31  1  0  0  0  0
 30 29  1  0  0  0  0
 30 28  1  0  0  0  0
 31 27  2  0  0  0  0
 32 33  2  0  0  0  0
 35 37  1  0  0  0  0
 35 34  1  0  0  0  0
 36 40  1  0  0  0  0
 37 39  1  0  0  0  0
 38 36  1  0  0  0  0
 38 37  2  0  0  0  0
 39 40  1  0  0  0  0
M  END
>  <MODEL>
4

>  <REMARK>
 VINA RESULT:      -7.5      2.612      5.070
  Name = 
  10 active torsions:
  status: ('A' for Active; 'I' for Inactive)
    1  A    between atoms: C_1  and  C_17
    2  A    between atoms: C_2  and  C_17
    3  A    between atoms: C_6  and  C_15
    4  A    between atoms: C_7  and  C_18
    5  A    between atoms: C_11  and  C_15
    6  A    between atoms: C_11  and  N_22
    7  A    between atoms: O_14  and  C_21
    8  A    between atoms: O_14  and  C_35
    9  A    between atoms: C_16  and  C_36
   10  A    between atoms: C_19  and  C_35
                            x       y       z     vdW  Elec       q    Type
                         _______ _______ _______ _____ _____    ______ ____

>  <TORSDO>
F 10

$$$$
=
 OpenBabel11062419293D

 40 45  0  0  1  0  0  0  0  0999 V2000
  193.6920  176.6070  145.2850 C   0  0  0  0  0  0  0  0  0  0  0  0
  190.4360  175.6300  145.6630 C   0  0  0  0  0  0  0  0  0  0  0  0
  190.3910  174.9730  146.9440 N   0  0  0  0  0  0  0  0  0  0  0  0
  191.4130  175.2910  147.6380 N   0  0  0  0  0  2  0  0  0  0  0  0
  192.1680  176.2040  146.8610 C   0  0  1  0  0  3  0  0  0  0  0  0
  193.4840  176.2000  146.6920 C   0  0  0  0  0  3  0  0  0  0  0  0
  191.4930  176.4390  145.6380 C   0  0  1  0  0  3  0  0  0  0  0  0
  192.3320  176.9960  143.1970 C   0  0  0  0  0  1  0  0  0  0  0  0
  192.5220  176.6880  144.6440 C   0  0  1  0  0  3  0  0  0  0  0  0
  188.4550  177.3680  144.5730 F   0  0  0  0  0  0  0  0  0  0  0  0
  188.0140  174.5100  142.3100 C   0  0  0  0  0  3  0  0  0  0  0  0
  187.8230  175.7760  142.8880 C   0  0  0  0  0  0  0  0  0  0  0  0
  189.5790  175.2570  144.5160 C   0  0  0  0  0  0  0  0  0  0  0  0
  188.6180  176.1510  143.9950 C   0  0  0  0  0  0  0  0  0  0  0  0
  189.7500  174.0060  143.9080 C   0  0  0  0  0  3  0  0  0  0  0  0
  189.1650  172.3000  142.1840 C   0  0  0  0  0  1  0  0  0  0  0  0
  188.9720  173.6320  142.8140 C   0  0  0  0  0  0  0  0  0  0  0  0
  185.5950  176.9750  143.0280 N   0  0  0  0  0  2  0  0  0  0  0  0
  186.7950  176.6730  142.3090 C   0  0  0  0  0  0  0  0  0  0  0  0
  186.9780  177.1770  141.1670 O   0  0  0  0  0  0  0  0  0  0  0  0
  184.5890  177.9080  142.5370 C   0  0  0  0  0  2  0  0  0  0  0  0
  184.0500  178.7720  143.6730 C   0  0  0  0  0  2  0  0  0  0  0  0
  184.0660  178.6700  146.1440 C   0  0  0  0  0  1  0  0  0  0  0  0
  184.9350  178.6750  144.9050 C   0  0  2  0  0  3  0  0  0  0  0  0
  185.8030  179.7640  144.9560 O   0  0  0  0  0  1  0  0  0  0  0  0
  195.0320  176.7910  144.6510 C   0  0  0  0  0  2  0  0  0  0  0  0
  195.5280  175.4930  144.1130 C   0  0  0  0  0  0  0  0  0  0  0  0
  196.3250  173.4700  143.9290 N   0  0  0  0  0  0  0  0  0  0  0  0
  195.7570  172.6290  142.8370 C   0  0  0  0  0  2  0  0  0  0  0  0
  196.3010  173.8390  142.5060 C   0  0  1  0  0  0  0  0  0  0  0  0
  195.6420  175.2000  142.7780 C   0  0  0  0  0  3  0  0  0  0  0  0
  196.0160  174.3770  144.9190 C   0  0  0  0  0  0  0  0  0  0  0  0
  196.2990  174.3040  146.1430 O   0  0  0  0  0  0  0  0  0  0  0  0
  197.7330  173.8590  141.9970 C   0  0  0  0  0  2  0  0  0  0  0  0
  197.8310  173.1540  140.7640 O   0  0  0  0  0  0  0  0  0  0  0  0
  196.9220  175.2620  137.9480 C   0  0  0  0  0  2  0  0  0  0  0  0
  197.3520  173.6680  139.5570 C   0  0  0  0  0  0  0  0  0  0  0  0
  197.4380  174.9200  139.2580 N   0  0  0  0  0  0  0  0  0  0  0  0
  196.6340  172.6080  138.3220 S   0  0  0  0  0  0  0  0  0  0  0  0
  196.8650  173.9730  137.1410 C   0  0  0  0  0  2  0  0  0  0  0  0
  1  6  2  0  0  0  0
  2  3  2  0  0  0  0
  3  4  1  0  0  0  0
  5  6  1  6  0  0  0
  5  4  1  0  0  0  0
  7  2  1  6  0  0  0
  7  5  1  0  0  0  0
  9  8  1  1  0  0  0
  9  1  1  0  0  0  0
  9  7  1  0  0  0  0
 11 17  2  0  0  0  0
 11 12  1  0  0  0  0
 12 14  2  0  0  0  0
 13  2  1  0  0  0  0
 14 13  1  0  0  0  0
 14 10  1  0  0  0  0
 15 13  2  0  0  0  0
 16 17  1  0  0  0  0
 17 15  1  0  0  0  0
 19 12  1  0  0  0  0
 19 18  1  0  0  0  0
 20 19  2  0  0  0  0
 21 18  1  0  0  0  0
 21 22  1  0  0  0  0
 22 24  1  0  0  0  0
 24 25  1  0  0  0  0
 24 23  1  1  0  0  0
 26  1  1  0  0  0  0
 27 26  1  0  0  0  0
 27 32  1  0  0  0  0
 28 32  1  0  0  0  0
 29 28  1  0  0  0  0
 30 34  1  6  0  0  0
 30 31  1  0  0  0  0
 30 29  1  0  0  0  0
 30 28  1  0  0  0  0
 31 27  2  0  0  0  0
 32 33  2  0  0  0  0
 35 34  1  0  0  0  0
 36 38  1  0  0  0  0
 37 35  1  0  0  0  0
 38 37  2  0  0  0  0
 39 37  1  0  0  0  0
 40 36  1  0  0  0  0
 40 39  1  0  0  0  0
M  END
>  <MODEL>
5

>  <REMARK>
 VINA RESULT:      -7.5      2.570      3.963
  Name = 
  10 active torsions:
  status: ('A' for Active; 'I' for Inactive)
    1  A    between atoms: C_1  and  C_17
    2  A    between atoms: C_2  and  C_17
    3  A    between atoms: C_6  and  C_15
    4  A    between atoms: C_7  and  C_18
    5  A    between atoms: C_11  and  C_15
    6  A    between atoms: C_11  and  N_22
    7  A    between atoms: O_14  and  C_21
    8  A    between atoms: O_14  and  C_35
    9  A    between atoms: C_16  and  C_36
   10  A    between atoms: C_19  and  C_35
                            x       y       z     vdW  Elec       q    Type
                         _______ _______ _______ _____ _____    ______ ____

>  <TORSDO>
F 10

$$$$
=
 OpenBabel11062419293D

 40 45  0  0  1  0  0  0  0  0999 V2000
  192.3950  176.4730  145.7860 C   0  0  0  0  0  0  0  0  0  0  0  0
  188.9770  176.4410  145.9120 C   0  0  0  0  0  0  0  0  0  0  0  0
  188.6460  175.2960  146.7190 N   0  0  0  0  0  0  0  0  0  0  0  0
  189.6610  174.9240  147.3950 N   0  0  0  0  0  2  0  0  0  0  0  0
  190.7080  175.8290  147.0930 C   0  0  1  0  0  3  0  0  0  0  0  0
  191.9730  175.5200  146.8360 C   0  0  0  0  0  3  0  0  0  0  0  0
  190.2250  176.8100  146.1930 C   0  0  1  0  0  3  0  0  0  0  0  0
  191.3700  178.2000  144.2600 C   0  0  0  0  0  1  0  0  0  0  0  0
  191.3530  177.1930  145.3610 C   0  0  1  0  0  3  0  0  0  0  0  0
  189.1890  175.4570  143.2450 F   0  0  0  0  0  0  0  0  0  0  0  0
  186.4790  177.8840  142.7430 C   0  0  0  0  0  3  0  0  0  0  0  0
  187.4320  176.8940  142.4540 C   0  0  0  0  0  0  0  0  0  0  0  0
  188.1350  176.9370  144.8010 C   0  0  0  0  0  0  0  0  0  0  0  0
  188.2600  176.4140  143.4950 C   0  0  0  0  0  0  0  0  0  0  0  0
  187.1670  177.9180  145.0560 C   0  0  0  0  0  3  0  0  0  0  0  0
  185.3250  179.4330  144.3230 C   0  0  0  0  0  1  0  0  0  0  0  0
  186.3450  178.3910  144.0350 C   0  0  0  0  0  0  0  0  0  0  0  0
  188.1420  175.1230  140.7870 N   0  0  0  0  0  2  0  0  0  0  0  0
  187.5290  176.3850  141.0650 C   0  0  0  0  0  0  0  0  0  0  0  0
  187.0670  177.0740  140.1150 O   0  0  0  0  0  0  0  0  0  0  0  0
  188.1960  174.5440  139.4510 C   0  0  0  0  0  2  0  0  0  0  0  0
  188.4330  173.0390  139.5200 C   0  0  0  0  0  2  0  0  0  0  0  0
  189.6790  171.1320  138.5570 C   0  0  0  0  0  1  0  0  0  0  0  0
  189.2070  172.5480  138.3080 C   0  0  2  0  0  3  0  0  0  0  0  0
  190.3100  173.3680  138.0810 O   0  0  0  0  0  1  0  0  0  0  0  0
  193.7720  176.5370  145.2120 C   0  0  0  0  0  2  0  0  0  0  0  0
  194.1440  175.2200  144.6210 C   0  0  0  0  0  0  0  0  0  0  0  0
  194.4670  173.5610  143.2410 N   0  0  0  0  0  0  0  0  0  0  0  0
  195.7020  172.7530  143.4510 C   0  0  0  0  0  2  0  0  0  0  0  0
  194.8330  172.8910  144.4970 C   0  0  1  0  0  0  0  0  0  0  0  0
  194.6630  174.1690  145.3330 C   0  0  0  0  0  3  0  0  0  0  0  0
  193.9560  174.8400  143.2230 C   0  0  0  0  0  0  0  0  0  0  0  0
  193.3170  175.3990  142.2940 O   0  0  0  0  0  0  0  0  0  0  0  0
  193.8370  171.7700  144.7450 C   0  0  0  0  0  2  0  0  0  0  0  0
  192.5440  172.3040  145.0130 O   0  0  0  0  0  0  0  0  0  0  0  0
  190.4090  171.6920  142.1380 C   0  0  0  0  0  2  0  0  0  0  0  0
  191.4750  172.1820  144.1220 C   0  0  0  0  0  0  0  0  0  0  0  0
  191.6360  171.7970  142.9020 N   0  0  0  0  0  0  0  0  0  0  0  0
  189.8040  172.5020  144.6370 S   0  0  0  0  0  0  0  0  0  0  0  0
  189.2650  171.6180  143.1390 C   0  0  0  0  0  2  0  0  0  0  0  0
  1  6  2  0  0  0  0
  2  3  2  0  0  0  0
  3  4  1  0  0  0  0
  5  6  1  6  0  0  0
  5  4  1  0  0  0  0
  7  2  1  6  0  0  0
  7  5  1  0  0  0  0
  9  8  1  1  0  0  0
  9  1  1  0  0  0  0
  9  7  1  0  0  0  0
 10 14  1  0  0  0  0
 11 17  1  0  0  0  0
 12 11  2  0  0  0  0
 12 14  1  0  0  0  0
 13 15  1  0  0  0  0
 13  2  1  0  0  0  0
 14 13  2  0  0  0  0
 17 16  1  0  0  0  0
 17 15  2  0  0  0  0
 18 19  1  0  0  0  0
 19 12  1  0  0  0  0
 20 19  2  0  0  0  0
 21 22  1  0  0  0  0
 21 18  1  0  0  0  0
 24 23  1  1  0  0  0
 24 22  1  0  0  0  0
 25 24  1  0  0  0  0
 26  1  1  0  0  0  0
 27 26  1  0  0  0  0
 27 31  2  0  0  0  0
 28 29  1  0  0  0  0
 28 30  1  0  0  0  0
 29 30  1  0  0  0  0
 30 34  1  1  0  0  0
 30 31  1  0  0  0  0
 32 28  1  0  0  0  0
 32 27  1  0  0  0  0
 33 32  2  0  0  0  0
 34 35  1  0  0  0  0
 36 38  1  0  0  0  0
 36 40  1  0  0  0  0
 37 39  1  0  0  0  0
 37 35  1  0  0  0  0
 38 37  2  0  0  0  0
 40 39  1  0  0  0  0
M  END
>  <MODEL>
6

>  <REMARK>
 VINA RESULT:      -7.3      2.624      4.857
  Name = 
  10 active torsions:
  status: ('A' for Active; 'I' for Inactive)
    1  A    between atoms: C_1  and  C_17
    2  A    between atoms: C_2  and  C_17
    3  A    between atoms: C_6  and  C_15
    4  A    between atoms: C_7  and  C_18
    5  A    between atoms: C_11  and  C_15
    6  A    between atoms: C_11  and  N_22
    7  A    between atoms: O_14  and  C_21
    8  A    between atoms: O_14  and  C_35
    9  A    between atoms: C_16  and  C_36
   10  A    between atoms: C_19  and  C_35
                            x       y       z     vdW  Elec       q    Type
                         _______ _______ _______ _____ _____    ______ ____

>  <TORSDO>
F 10

$$$$
=
 OpenBabel11062419293D

 40 45  0  0  1  0  0  0  0  0999 V2000
  190.4690  174.6980  142.1390 C   0  0  0  0  0  0  0  0  0  0  0  0
  189.2500  177.4940  143.6870 C   0  0  0  0  0  0  0  0  0  0  0  0
  190.3860  178.0760  144.3520 N   0  0  0  0  0  0  0  0  0  0  0  0
  191.4690  177.6120  143.8630 N   0  0  0  0  0  2  0  0  0  0  0  0
  191.1000  176.7230  142.8230 C   0  0  1  0  0  3  0  0  0  0  0  0
  191.6130  175.5220  142.5900 C   0  0  0  0  0  3  0  0  0  0  0  0
  189.6890  176.7140  142.7020 C   0  0  1  0  0  3  0  0  0  0  0  0
  187.9570  174.8550  141.9810 C   0  0  0  0  0  1  0  0  0  0  0  0
  189.3250  175.3780  142.2630 C   0  0  1  0  0  3  0  0  0  0  0  0
  187.0600  178.3870  142.0930 F   0  0  0  0  0  0  0  0  0  0  0  0
  185.2470  177.6790  145.2070 C   0  0  0  0  0  3  0  0  0  0  0  0
  185.4840  178.0720  143.8800 C   0  0  0  0  0  0  0  0  0  0  0  0
  187.8630  177.5800  144.1970 C   0  0  0  0  0  0  0  0  0  0  0  0
  186.8030  178.0140  143.3720 C   0  0  0  0  0  0  0  0  0  0  0  0
  187.5900  177.1860  145.5140 C   0  0  0  0  0  3  0  0  0  0  0  0
  186.0200  176.8180  147.4180 C   0  0  0  0  0  1  0  0  0  0  0  0
  186.2910  177.2370  146.0180 C   0  0  0  0  0  0  0  0  0  0  0  0
  184.0990  177.9770  141.7600 N   0  0  0  0  0  2  0  0  0  0  0  0
  184.3370  178.5280  143.0590 C   0  0  0  0  0  0  0  0  0  0  0  0
  183.5610  179.4150  143.5090 O   0  0  0  0  0  0  0  0  0  0  0  0
  182.9460  178.3360  140.9450 C   0  0  0  0  0  2  0  0  0  0  0  0
  181.6470  177.9270  141.6320 C   0  0  0  0  0  2  0  0  0  0  0  0
  179.3310  178.6890  142.0450 C   0  0  0  0  0  1  0  0  0  0  0  0
  180.4550  178.6550  141.0330 C   0  0  2  0  0  3  0  0  0  0  0  0
  180.0200  177.9960  139.8840 O   0  0  0  0  0  1  0  0  0  0  0  0
  190.5770  173.2710  141.7120 C   0  0  0  0  0  2  0  0  0  0  0  0
  191.4450  172.5160  142.6590 C   0  0  0  0  0  0  0  0  0  0  0  0
  192.2050  171.4340  144.3950 N   0  0  0  0  0  0  0  0  0  0  0  0
  193.1270  170.2970  144.1180 C   0  0  0  0  0  2  0  0  0  0  0  0
  193.4500  171.5290  143.6190 C   0  0  1  0  0  0  0  0  0  0  0  0
  192.7580  172.1970  142.4210 C   0  0  0  0  0  3  0  0  0  0  0  0
  191.0470  172.0610  143.9880 C   0  0  0  0  0  0  0  0  0  0  0  0
  190.0350  172.3320  144.6860 O   0  0  0  0  0  0  0  0  0  0  0  0
  194.4360  172.3770  144.4040 C   0  0  0  0  0  2  0  0  0  0  0  0
  193.8080  172.9320  145.5550 O   0  0  0  0  0  0  0  0  0  0  0  0
  192.8040  176.2500  146.6400 C   0  0  0  0  0  2  0  0  0  0  0  0
  193.6740  174.3080  145.7560 C   0  0  0  0  0  0  0  0  0  0  0  0
  192.7650  174.8070  146.5230 N   0  0  0  0  0  0  0  0  0  0  0  0
  194.7940  175.4650  145.0010 S   0  0  0  0  0  0  0  0  0  0  0  0
  194.1890  176.6970  146.1950 C   0  0  0  0  0  2  0  0  0  0  0  0
  1  9  1  0  0  0  0
  1  6  2  0  0  0  0
  2 13  1  0  0  0  0
  2  3  2  0  0  0  0
  4  3  1  0  0  0  0
  5  6  1  1  0  0  0
  5  4  1  0  0  0  0
  7  5  1  0  0  0  0
  7  2  1  1  0  0  0
  9  8  1  6  0  0  0
  9  7  1  0  0  0  0
 10 14  1  0  0  0  0
 11 17  1  0  0  0  0
 12 11  2  0  0  0  0
 13 15  1  0  0  0  0
 14 12  1  0  0  0  0
 14 13  2  0  0  0  0
 15 17  2  0  0  0  0
 17 16  1  0  0  0  0
 18 19  1  0  0  0  0
 19 20  2  0  0  0  0
 19 12  1  0  0  0  0
 21 22  1  0  0  0  0
 21 18  1  0  0  0  0
 24 22  1  0  0  0  0
 24 23  1  1  0  0  0
 25 24  1  0  0  0  0
 26  1  1  0  0  0  0
 26 27  1  0  0  0  0
 27 32  1  0  0  0  0
 29 28  1  0  0  0  0
 30 29  1  0  0  0  0
 30 28  1  0  0  0  0
 30 34  1  1  0  0  0
 31 27  2  0  0  0  0
 31 30  1  0  0  0  0
 32 28  1  0  0  0  0
 32 33  2  0  0  0  0
 34 35  1  0  0  0  0
 35 37  1  0  0  0  0
 37 38  2  0  0  0  0
 38 36  1  0  0  0  0
 39 37  1  0  0  0  0
 39 40  1  0  0  0  0
 40 36  1  0  0  0  0
M  END
>  <MODEL>
7

>  <REMARK>
 VINA RESULT:      -7.3      3.103      5.102
  Name = 
  10 active torsions:
  status: ('A' for Active; 'I' for Inactive)
    1  A    between atoms: C_1  and  C_17
    2  A    between atoms: C_2  and  C_17
    3  A    between atoms: C_6  and  C_15
    4  A    between atoms: C_7  and  C_18
    5  A    between atoms: C_11  and  C_15
    6  A    between atoms: C_11  and  N_22
    7  A    between atoms: O_14  and  C_21
    8  A    between atoms: O_14  and  C_35
    9  A    between atoms: C_16  and  C_36
   10  A    between atoms: C_19  and  C_35
                            x       y       z     vdW  Elec       q    Type
                         _______ _______ _______ _____ _____    ______ ____

>  <TORSDO>
F 10

$$$$
=
 OpenBabel11062419293D

 40 45  0  0  1  0  0  0  0  0999 V2000
  188.3050  176.0530  146.0820 C   0  0  0  0  0  0  0  0  0  0  0  0
  186.1290  178.4260  144.9270 C   0  0  0  0  0  0  0  0  0  0  0  0
  185.4990  178.9590  146.1060 N   0  0  0  0  0  0  0  0  0  0  0  0
  186.1870  178.6720  147.1420 N   0  0  0  0  0  2  0  0  0  0  0  0
  187.3270  177.9610  146.6910 C   0  0  1  0  0  3  0  0  0  0  0  0
  187.8390  176.8630  147.2300 C   0  0  0  0  0  3  0  0  0  0  0  0
  187.2870  177.8710  145.2780 C   0  0  1  0  0  3  0  0  0  0  0  0
  188.1440  176.0520  143.5660 C   0  0  0  0  0  1  0  0  0  0  0  0
  187.9260  176.6140  144.9300 C   0  0  1  0  0  3  0  0  0  0  0  0
  183.3400  178.8950  144.5640 F   0  0  0  0  0  0  0  0  0  0  0  0
  184.2470  178.1390  141.0870 C   0  0  0  0  0  3  0  0  0  0  0  0
  183.4610  178.4760  142.2010 C   0  0  0  0  0  0  0  0  0  0  0  0
  185.4570  178.3170  143.6120 C   0  0  0  0  0  0  0  0  0  0  0  0
  184.0750  178.5710  143.4710 C   0  0  0  0  0  0  0  0  0  0  0  0
  186.2140  177.9930  142.4780 C   0  0  0  0  0  3  0  0  0  0  0  0
  186.4310  177.5550  140.0320 C   0  0  0  0  0  1  0  0  0  0  0  0
  185.6140  177.9020  141.2240 C   0  0  0  0  0  0  0  0  0  0  0  0
  181.3300  178.1960  140.8580 N   0  0  0  0  0  2  0  0  0  0  0  0
  182.0130  178.7240  142.0000 C   0  0  0  0  0  0  0  0  0  0  0  0
  181.3740  179.4100  142.8430 O   0  0  0  0  0  0  0  0  0  0  0  0
  179.8950  178.3470  140.6530 C   0  0  0  0  0  2  0  0  0  0  0  0
  179.1110  177.5340  141.6780 C   0  0  0  0  0  2  0  0  0  0  0  0
  177.9440  179.7140  141.6270 C   0  0  0  0  0  1  0  0  0  0  0  0
  178.0090  178.3670  142.3130 C   0  0  2  0  0  3  0  0  0  0  0  0
  178.2710  178.5530  143.6690 O   0  0  0  0  0  1  0  0  0  0  0  0
  189.0020  174.7390  146.2080 C   0  0  0  0  0  2  0  0  0  0  0  0
  190.4780  174.9310  146.1250 C   0  0  0  0  0  0  0  0  0  0  0  0
  192.5620  175.3720  146.5980 N   0  0  0  0  0  0  0  0  0  0  0  0
  193.5870  174.4970  145.9630 C   0  0  0  0  0  2  0  0  0  0  0  0
  192.6970  175.1430  145.1520 C   0  0  1  0  0  0  0  0  0  0  0  0
  191.2200  174.7530  144.9850 C   0  0  0  0  0  3  0  0  0  0  0  0
  191.3320  175.3870  147.2180 C   0  0  0  0  0  0  0  0  0  0  0  0
  191.0450  175.8760  148.3420 O   0  0  0  0  0  0  0  0  0  0  0  0
  193.1410  176.4440  144.5040 C   0  0  0  0  0  2  0  0  0  0  0  0
  193.5870  176.2100  143.1730 O   0  0  0  0  0  0  0  0  0  0  0  0
  197.2180  176.1180  143.1580 C   0  0  0  0  0  2  0  0  0  0  0  0
  194.9390  176.1680  142.8230 C   0  0  0  0  0  0  0  0  0  0  0  0
  195.8800  176.2130  143.7040 N   0  0  0  0  0  0  0  0  0  0  0  0
  195.4490  175.9920  141.1290 S   0  0  0  0  0  0  0  0  0  0  0  0
  197.0900  175.5260  141.7620 C   0  0  0  0  0  2  0  0  0  0  0  0
  1 26  1  0  0  0  0
  1  6  2  0  0  0  0
  2  3  2  0  0  0  0
  3  4  1  0  0  0  0
  5  4  1  0  0  0  0
  5  6  1  1  0  0  0
  7  2  1  1  0  0  0
  7  5  1  0  0  0  0
  9  8  1  6  0  0  0
  9  7  1  0  0  0  0
  9  1  1  0  0  0  0
 11 17  2  0  0  0  0
 11 12  1  0  0  0  0
 12 14  2  0  0  0  0
 13  2  1  0  0  0  0
 14 13  1  0  0  0  0
 14 10  1  0  0  0  0
 15 13  2  0  0  0  0
 16 17  1  0  0  0  0
 17 15  1  0  0  0  0
 18 19  1  0  0  0  0
 19 12  1  0  0  0  0
 19 20  2  0  0  0  0
 21 18  1  0  0  0  0
 21 22  1  0  0  0  0
 22 24  1  0  0  0  0
 24 23  1  6  0  0  0
 24 25  1  0  0  0  0
 27 26  1  0  0  0  0
 27 32  1  0  0  0  0
 28 32  1  0  0  0  0
 29 28  1  0  0  0  0
 30 34  1  6  0  0  0
 30 29  1  0  0  0  0
 30 28  1  0  0  0  0
 31 30  1  0  0  0  0
 31 27  2  0  0  0  0
 32 33  2  0  0  0  0
 35 34  1  0  0  0  0
 36 38  1  0  0  0  0
 37 35  1  0  0  0  0
 37 38  2  0  0  0  0
 39 40  1  0  0  0  0
 39 37  1  0  0  0  0
 40 36  1  0  0  0  0
M  END
>  <MODEL>
8

>  <REMARK>
 VINA RESULT:      -7.3      3.662      6.057
  Name = 
  10 active torsions:
  status: ('A' for Active; 'I' for Inactive)
    1  A    between atoms: C_1  and  C_17
    2  A    between atoms: C_2  and  C_17
    3  A    between atoms: C_6  and  C_15
    4  A    between atoms: C_7  and  C_18
    5  A    between atoms: C_11  and  C_15
    6  A    between atoms: C_11  and  N_22
    7  A    between atoms: O_14  and  C_21
    8  A    between atoms: O_14  and  C_35
    9  A    between atoms: C_16  and  C_36
   10  A    between atoms: C_19  and  C_35
                            x       y       z     vdW  Elec       q    Type
                         _______ _______ _______ _____ _____    ______ ____

>  <TORSDO>
F 10

$$$$
=
 OpenBabel11062419293D

 40 45  0  0  1  0  0  0  0  0999 V2000
  192.6120  176.1230  146.5730 C   0  0  0  0  0  0  0  0  0  0  0  0
  189.3560  175.8210  145.5670 C   0  0  0  0  0  0  0  0  0  0  0  0
  188.7550  174.9250  146.5210 N   0  0  0  0  0  0  0  0  0  0  0  0
  189.4730  174.8530  147.5730 N   0  0  0  0  0  2  0  0  0  0  0  0
  190.5710  175.7260  147.3790 C   0  0  1  0  0  3  0  0  0  0  0  0
  191.8430  175.4730  147.6580 C   0  0  0  0  0  3  0  0  0  0  0  0
  190.4370  176.3650  146.1210 C   0  0  1  0  0  3  0  0  0  0  0  0
  192.1920  177.2470  144.3550 C   0  0  0  0  0  1  0  0  0  0  0  0
  191.7870  176.5960  145.6350 C   0  0  1  0  0  3  0  0  0  0  0  0
  190.1790  173.9230  143.6050 F   0  0  0  0  0  0  0  0  0  0  0  0
  188.1150  176.0880  141.4750 C   0  0  0  0  0  3  0  0  0  0  0  0
  188.9540  175.0290  141.8580 C   0  0  0  0  0  0  0  0  0  0  0  0
  188.9520  175.9040  144.1460 C   0  0  0  0  0  0  0  0  0  0  0  0
  189.3680  174.9360  143.2070 C   0  0  0  0  0  0  0  0  0  0  0  0
  188.1060  176.9410  143.7320 C   0  0  0  0  0  3  0  0  0  0  0  0
  186.7970  178.1450  141.9820 C   0  0  0  0  0  1  0  0  0  0  0  0
  187.6910  177.0350  142.4050 C   0  0  0  0  0  0  0  0  0  0  0  0
  188.3980  173.2910  140.1000 N   0  0  0  0  0  2  0  0  0  0  0  0
  189.3700  174.0450  140.8300 C   0  0  0  0  0  0  0  0  0  0  0  0
  190.5970  173.8670  140.5970 O   0  0  0  0  0  0  0  0  0  0  0  0
  188.7500  172.3680  139.0300 C   0  0  0  0  0  2  0  0  0  0  0  0
  188.7320  173.0720  137.6760 C   0  0  0  0  0  2  0  0  0  0  0  0
  189.5500  171.3950  136.0540 C   0  0  0  0  0  1  0  0  0  0  0  0
  189.9140  172.6470  136.8200 C   0  0  2  0  0  3  0  0  0  0  0  0
  191.0200  172.3890  137.6270 O   0  0  0  0  0  1  0  0  0  0  0  0
  194.1030  176.1450  146.4950 C   0  0  0  0  0  2  0  0  0  0  0  0
  194.5830  175.0970  145.5510 C   0  0  0  0  0  0  0  0  0  0  0  0
  195.6260  174.0350  143.9550 N   0  0  0  0  0  0  0  0  0  0  0  0
  196.0140  172.6250  144.2380 C   0  0  0  0  0  2  0  0  0  0  0  0
  194.6990  172.9730  144.3710 C   0  0  1  0  0  0  0  0  0  0  0  0
  194.1250  173.8040  145.5290 C   0  0  0  0  0  3  0  0  0  0  0  0
  195.5580  175.3060  144.4840 C   0  0  0  0  0  0  0  0  0  0  0  0
  196.0480  176.3630  144.0080 O   0  0  0  0  0  0  0  0  0  0  0  0
  193.7640  172.6760  143.2100 C   0  0  0  0  0  2  0  0  0  0  0  0
  192.5870  172.0240  143.6740 O   0  0  0  0  0  0  0  0  0  0  0  0
  190.7640  169.5740  141.7060 C   0  0  0  0  0  2  0  0  0  0  0  0
  192.0870  170.8580  143.0900 C   0  0  0  0  0  0  0  0  0  0  0  0
  191.1230  170.8750  142.2330 N   0  0  0  0  0  0  0  0  0  0  0  0
  192.7920  169.2670  143.4540 S   0  0  0  0  0  0  0  0  0  0  0  0
  191.9400  168.6450  141.9710 C   0  0  0  0  0  2  0  0  0  0  0  0
  1  6  2  0  0  0  0
  2  3  2  0  0  0  0
  3  4  1  0  0  0  0
  5  4  1  0  0  0  0
  5  6  1  6  0  0  0
  7  2  1  6  0  0  0
  7  5  1  0  0  0  0
  9  8  1  1  0  0  0
  9  7  1  0  0  0  0
  9  1  1  0  0  0  0
 11 12  2  0  0  0  0
 11 17  1  0  0  0  0
 12 14  1  0  0  0  0
 13  2  1  0  0  0  0
 14 10  1  0  0  0  0
 14 13  2  0  0  0  0
 15 13  1  0  0  0  0
 16 17  1  0  0  0  0
 17 15  2  0  0  0  0
 18 19  1  0  0  0  0
 19 12  1  0  0  0  0
 20 19  2  0  0  0  0
 21 18  1  0  0  0  0
 22 21  1  0  0  0  0
 24 23  1  1  0  0  0
 24 25  1  0  0  0  0
 24 22  1  0  0  0  0
 26  1  1  0  0  0  0
 27 26  1  0  0  0  0
 28 29  1  0  0  0  0
 28 30  1  0  0  0  0
 28 32  1  0  0  0  0
 29 30  1  0  0  0  0
 30 34  1  6  0  0  0
 30 31  1  0  0  0  0
 31 27  2  0  0  0  0
 32 27  1  0  0  0  0
 33 32  2  0  0  0  0
 34 35  1  0  0  0  0
 36 40  1  0  0  0  0
 36 38  1  0  0  0  0
 37 39  1  0  0  0  0
 37 35  1  0  0  0  0
 38 37  2  0  0  0  0
 40 39  1  0  0  0  0
M  END
>  <MODEL>
9

>  <REMARK>
 VINA RESULT:      -7.3      3.038      5.016
  Name = 
  10 active torsions:
  status: ('A' for Active; 'I' for Inactive)
    1  A    between atoms: C_1  and  C_17
    2  A    between atoms: C_2  and  C_17
    3  A    between atoms: C_6  and  C_15
    4  A    between atoms: C_7  and  C_18
    5  A    between atoms: C_11  and  C_15
    6  A    between atoms: C_11  and  N_22
    7  A    between atoms: O_14  and  C_21
    8  A    between atoms: O_14  and  C_35
    9  A    between atoms: C_16  and  C_36
   10  A    between atoms: C_19  and  C_35
                            x       y       z     vdW  Elec       q    Type
                         _______ _______ _______ _____ _____    ______ ____

>  <TORSDO>
F 10

$$$$
