=
 OpenBabel11062422013D

 35 41  0  0  1  0  0  0  0  0999 V2000
  188.0600  176.8900  143.9220 N   0  0  0  0  0  0  0  0  0  0  0  0
  190.3770  176.5870  143.5050 C   0  0  0  0  0  2  0  0  0  0  0  0
  187.6000  177.3990  146.7850 N   0  0  0  0  0  2  0  0  0  0  0  0
  181.8010  178.9550  141.5050 C   0  0  0  0  0  0  0  0  0  0  0  0
  182.3320  178.9280  142.9330 C   0  0  0  0  0  2  0  0  0  0  0  0
  189.3560  177.5260  144.1230 C   0  0  2  0  0  3  0  0  0  0  0  0
  185.7640  177.6990  143.5170 C   0  0  0  0  0  0  0  0  0  0  0  0
  183.7290  178.3990  142.9670 C   0  0  0  0  0  0  0  0  0  0  0  0
  185.7650  177.5460  142.1850 C   0  0  0  0  0  3  0  0  0  0  0  0
  184.5550  178.2110  143.9790 C   0  0  0  0  0  0  0  0  0  0  0  0
  189.5820  175.6270  142.6300 C   0  0  2  0  0  3  0  0  0  0  0  0
  184.4340  177.9940  141.7870 C   0  0  0  0  0  0  0  0  0  0  0  0
  184.3340  178.4690  145.3260 C   0  0  0  0  0  3  0  0  0  0  0  0
  188.9200  176.8400  146.5290 C   0  0  0  0  0  2  0  0  0  0  0  0
  186.8180  177.4250  144.4050 C   0  0  0  0  0  0  0  0  0  0  0  0
  189.6940  177.7580  145.5970 C   0  0  0  0  0  2  0  0  0  0  0  0
  186.6060  177.6750  145.7890 C   0  0  0  0  0  0  0  0  0  0  0  0
  188.1280  175.7140  143.0770 C   0  0  0  0  0  2  0  0  0  0  0  0
  183.8750  178.0650  140.5890 C   0  0  0  0  0  3  0  0  0  0  0  0
  185.3710  178.1940  146.2270 C   0  0  0  0  0  3  0  0  0  0  0  0
  182.5260  178.5600  140.4840 N   0  0  0  0  0  0  0  0  0  0  0  0
  189.2090  174.0330  140.3020 O   0  0  0  0  0  1  0  0  0  0  0  0
  190.2310  174.2260  142.5710 C   0  0  1  0  0  3  0  0  0  0  0  0
  189.9090  171.9110  141.4370 C   0  0  0  0  0  2  0  0  0  0  0  0
  191.9080  171.8490  139.8010 C   0  0  0  0  0  2  0  0  0  0  0  0
  189.9900  173.4320  141.2910 C   0  0  1  0  0  0  0  0  0  0  0  0
  192.9310  172.1920  140.8960 C   0  0  2  0  0  3  0  0  0  0  0  0
  192.4030  173.1180  142.0060 C   0  0  0  0  0  2  0  0  0  0  0  0
  190.6400  171.1580  140.3180 C   0  0  0  0  0  2  0  0  0  0  0  0
  191.3410  174.1090  141.5190 C   0  0  2  0  0  3  0  0  0  0  0  0
  194.8800  173.5730  141.1890 O   0  0  0  0  0  1  0  0  0  0  0  0
  194.2020  172.7590  140.2780 C   0  0  0  0  0  2  0  0  0  0  0  0
  179.3220  178.7880  141.8750 N   0  0  0  0  0  1  0  0  0  0  0  0
  180.4330  179.4410  141.2670 C   0  0  0  0  0  0  0  0  0  0  0  0
  180.2330  180.4370  140.5230 O   0  0  0  0  0  0  0  0  0  0  0  0
  1  6  1  0  0  0  0
  1 15  1  0  0  0  0
  4  5  1  0  0  0  0
  5  8  1  0  0  0  0
  6  2  1  1  0  0  0
  6 16  1  0  0  0  0
  7 10  1  0  0  0  0
  7 15  1  0  0  0  0
  8 10  2  0  0  0  0
  9  7  2  0  0  0  0
 10 13  1  0  0  0  0
 11 18  1  1  0  0  0
 11  2  1  0  0  0  0
 12  9  1  0  0  0  0
 12  8  1  0  0  0  0
 13 20  2  0  0  0  0
 14  3  1  0  0  0  0
 15 17  2  0  0  0  0
 16 14  1  0  0  0  0
 17 20  1  0  0  0  0
 17  3  1  0  0  0  0
 18  1  1  0  0  0  0
 19 12  2  0  0  0  0
 21 19  1  0  0  0  0
 21  4  2  0  0  0  0
 23 11  1  6  0  0  0
 25 29  1  0  0  0  0
 25 27  1  0  0  0  0
 26 22  1  6  0  0  0
 26 24  1  0  0  0  0
 26 30  1  0  0  0  0
 26 23  1  0  0  0  0
 27 32  1  6  0  0  0
 27 28  1  0  0  0  0
 29 24  1  0  0  0  0
 30 28  1  1  0  0  0
 30 23  1  0  0  0  0
 32 31  1  0  0  0  0
 34  4  1  0  0  0  0
 34 33  1  0  0  0  0
 35 34  2  0  0  0  0
M  END
>  <MODEL>
1

>  <REMARK>
 VINA RESULT:      -8.3      0.000      0.000
  Name = 
  3 active torsions:
  status: ('A' for Active; 'I' for Inactive)
    1  A    between atoms: C_6  and  C_18
    2  A    between atoms: C_7  and  C_15
    3  A    between atoms: C_20  and  C_24
                            x       y       z     vdW  Elec       q    Type
                         _______ _______ _______ _____ _____    ______ ____

>  <TORSDO>
F 3

$$$$
=
 OpenBabel11062422013D

 35 41  0  0  1  0  0  0  0  0999 V2000
  190.5160  173.2840  142.7780 N   0  0  0  0  0  0  0  0  0  0  0  0
  191.7350  171.2490  142.8240 C   0  0  0  0  0  2  0  0  0  0  0  0
  189.5860  173.8500  140.0420 N   0  0  0  0  0  2  0  0  0  0  0  0
  186.4300  177.8510  146.2040 C   0  0  0  0  0  0  0  0  0  0  0  0
  186.5200  177.5540  144.7120 C   0  0  0  0  0  3  0  0  0  0  0  0
  190.4170  171.8780  142.4100 C   0  0  2  0  0  3  0  0  0  0  0  0
  188.9220  174.9980  143.5610 C   0  0  0  0  0  0  0  0  0  0  0  0
  187.5450  176.5000  144.4430 C   0  0  0  0  0  0  0  0  0  0  0  0
  189.1950  174.8950  144.8700 C   0  0  0  0  0  3  0  0  0  0  0  0
  187.9370  175.9480  143.3110 C   0  0  0  0  0  0  0  0  0  0  0  0
  192.3930  172.2460  143.7690 C   0  0  2  0  0  3  0  0  0  0  0  0
  188.3060  175.8770  145.4840 C   0  0  2  0  0  3  0  0  0  0  0  0
  187.4810  176.2120  142.0250 C   0  0  0  0  0  3  0  0  0  0  0  0
  190.6370  172.8420  140.0710 C   0  0  0  0  0  2  0  0  0  0  0  0
  189.4950  174.2590  142.5120 C   0  0  0  0  0  0  0  0  0  0  0  0
  190.1890  171.6580  140.9130 C   0  0  0  0  0  2  0  0  0  0  0  0
  189.0450  174.5210  141.1890 C   0  0  0  0  0  0  0  0  0  0  0  0
  191.7030  173.5880  143.5520 C   0  0  0  0  0  2  0  0  0  0  0  0
  188.1430  176.2090  146.7550 C   0  0  0  0  0  3  0  0  0  0  0  0
  188.0470  175.4900  140.9660 C   0  0  0  0  0  3  0  0  0  0  0  0
  187.1760  177.2250  147.0850 N   0  0  0  0  0  0  0  0  0  0  0  0
  193.9360  173.4870  145.8120 O   0  0  0  0  0  1  0  0  0  0  0  0
  193.9340  172.2090  143.6680 C   0  0  1  0  0  3  0  0  0  0  0  0
  196.0290  173.5420  144.4340 C   0  0  0  0  0  2  0  0  0  0  0  0
  197.0620  171.9360  146.1730 C   0  0  0  0  0  2  0  0  0  0  0  0
  194.6930  172.8910  144.8020 C   0  0  1  0  0  0  0  0  0  0  0  0
  197.0470  170.7390  145.2100 C   0  0  2  0  0  3  0  0  0  0  0  0
  195.8760  170.7270  144.2120 C   0  0  0  0  0  2  0  0  0  0  0  0
  197.1260  173.3020  145.4790 C   0  0  0  0  0  2  0  0  0  0  0  0
  194.5980  171.3660  144.7640 C   0  0  2  0  0  3  0  0  0  0  0  0
  196.4090  169.5310  147.1910 O   0  0  0  0  0  1  0  0  0  0  0  0
  197.1100  169.4300  145.9870 C   0  0  0  0  0  2  0  0  0  0  0  0
  184.1890  178.9770  146.0690 N   0  0  0  0  0  1  0  0  0  0  0  0
  185.4780  178.8710  146.6680 C   0  0  0  0  0  0  0  0  0  0  0  0
  185.7930  179.6590  147.5980 O   0  0  0  0  0  0  0  0  0  0  0  0
  1 18  1  0  0  0  0
  3 14  1  0  0  0  0
  3 17  1  0  0  0  0
  4 34  1  0  0  0  0
  4 21  1  0  0  0  0
  5  4  2  0  0  0  0
  6 16  1  6  0  0  0
  6  1  1  0  0  0  0
  6  2  1  0  0  0  0
  7  9  2  0  0  0  0
  8  5  1  0  0  0  0
  8 12  1  0  0  0  0
 10  7  1  0  0  0  0
 10  8  2  0  0  0  0
 11  2  1  6  0  0  0
 12  9  1  1  0  0  0
 12 19  1  0  0  0  0
 13 10  1  0  0  0  0
 14 16  1  0  0  0  0
 15  1  1  0  0  0  0
 15  7  1  0  0  0  0
 17 15  2  0  0  0  0
 18 11  1  0  0  0  0
 19 21  2  0  0  0  0
 20 17  1  0  0  0  0
 20 13  2  0  0  0  0
 23 11  1  1  0  0  0
 23 30  1  0  0  0  0
 23 26  1  0  0  0  0
 24 26  1  0  0  0  0
 24 29  1  0  0  0  0
 26 22  1  1  0  0  0
 27 32  1  1  0  0  0
 27 25  1  0  0  0  0
 28 27  1  0  0  0  0
 29 25  1  0  0  0  0
 30 28  1  6  0  0  0
 30 26  1  0  0  0  0
 32 31  1  0  0  0  0
 33 34  1  0  0  0  0
 34 35  2  0  0  0  0
M  END
>  <MODEL>
2

>  <REMARK>
 VINA RESULT:      -8.2      3.762      6.349
  Name = 
  3 active torsions:
  status: ('A' for Active; 'I' for Inactive)
    1  A    between atoms: C_6  and  C_18
    2  A    between atoms: C_7  and  C_15
    3  A    between atoms: C_20  and  C_24
                            x       y       z     vdW  Elec       q    Type
                         _______ _______ _______ _____ _____    ______ ____

>  <TORSDO>
F 3

$$$$
=
 OpenBabel11062422013D

 35 41  0  0  1  0  0  0  0  0999 V2000
  191.3240  176.0990  144.7510 N   0  0  0  0  0  0  0  0  0  0  0  0
  193.6830  176.3400  144.6680 C   0  0  0  0  0  2  0  0  0  0  0  0
  190.4700  175.3870  147.4770 N   0  0  0  0  0  2  0  0  0  0  0  0
  185.0610  177.9520  142.1760 C   0  0  0  0  0  0  0  0  0  0  0  0
  185.4330  177.4580  143.5690 C   0  0  0  0  0  2  0  0  0  0  0  0
  192.4300  176.7990  145.3920 C   0  0  2  0  0  3  0  0  0  0  0  0
  188.9650  176.6400  144.2660 C   0  0  0  0  0  0  0  0  0  0  0  0
  186.8980  177.1770  143.6560 C   0  0  0  0  0  0  0  0  0  0  0  0
  189.1380  177.0150  142.9910 C   0  0  0  0  0  3  0  0  0  0  0  0
  187.6350  176.7430  144.6610 C   0  0  0  0  0  0  0  0  0  0  0  0
  193.2030  175.6830  143.3810 C   0  0  2  0  0  3  0  0  0  0  0  0
  187.7920  177.3730  142.5530 C   0  0  0  0  0  0  0  0  0  0  0  0
  187.2240  176.4230  145.9500 C   0  0  0  0  0  3  0  0  0  0  0  0
  191.8970  175.1800  147.2730 C   0  0  0  0  0  2  0  0  0  0  0  0
  189.9540  176.2090  145.1670 C   0  0  0  0  0  0  0  0  0  0  0  0
  192.5550  176.4940  146.8850 C   0  0  0  0  0  2  0  0  0  0  0  0
  189.5500  175.8710  146.4880 C   0  0  0  0  0  0  0  0  0  0  0  0
  191.7240  175.3660  143.5660 C   0  0  0  0  0  2  0  0  0  0  0  0
  187.3590  177.8140  141.3820 C   0  0  0  0  0  3  0  0  0  0  0  0
  188.1950  175.9840  146.8590 C   0  0  0  0  0  3  0  0  0  0  0  0
  185.9560  178.0980  141.2260 N   0  0  0  0  0  0  0  0  0  0  0  0
  192.8510  174.5470  140.7960 O   0  0  0  0  0  1  0  0  0  0  0  0
  194.1320  174.5310  142.9380 C   0  0  1  0  0  3  0  0  0  0  0  0
  194.1690  172.4850  141.3370 C   0  0  0  0  0  2  0  0  0  0  0  0
  195.8640  173.2560  139.5450 C   0  0  0  0  0  2  0  0  0  0  0  0
  193.8850  173.9750  141.5390 C   0  0  1  0  0  0  0  0  0  0  0  0
  196.9360  173.6180  140.5850 C   0  0  2  0  0  3  0  0  0  0  0  0
  196.3870  174.1400  141.9240 C   0  0  0  0  0  2  0  0  0  0  0  0
  194.8740  172.1800  140.0090 C   0  0  0  0  0  2  0  0  0  0  0  0
  195.0700  174.9090  141.7850 C   0  0  2  0  0  3  0  0  0  0  0  0
  197.3190  175.4730  139.1010 O   0  0  0  0  0  1  0  0  0  0  0  0
  197.9410  174.5970  139.9940 C   0  0  0  0  0  2  0  0  0  0  0  0
  183.1590  178.2190  140.5570 N   0  0  0  0  0  1  0  0  0  0  0  0
  183.6550  178.2760  141.8910 C   0  0  0  0  0  0  0  0  0  0  0  0
  182.8770  178.6080  142.8250 O   0  0  0  0  0  0  0  0  0  0  0  0
  1 15  1  0  0  0  0
  1  6  1  0  0  0  0
  4  5  1  0  0  0  0
  5  8  1  0  0  0  0
  6  2  1  6  0  0  0
  6 16  1  0  0  0  0
  7 10  1  0  0  0  0
  7 15  1  0  0  0  0
  8 10  2  0  0  0  0
  9  7  2  0  0  0  0
 10 13  1  0  0  0  0
 11 18  1  1  0  0  0
 11  2  1  0  0  0  0
 12  9  1  0  0  0  0
 12  8  1  0  0  0  0
 13 20  2  0  0  0  0
 14  3  1  0  0  0  0
 15 17  2  0  0  0  0
 16 14  1  0  0  0  0
 17 20  1  0  0  0  0
 17  3  1  0  0  0  0
 18  1  1  0  0  0  0
 19 12  2  0  0  0  0
 21 19  1  0  0  0  0
 21  4  2  0  0  0  0
 23 11  1  6  0  0  0
 24 26  1  0  0  0  0
 25 29  1  0  0  0  0
 25 27  1  0  0  0  0
 26 22  1  6  0  0  0
 26 30  1  0  0  0  0
 26 23  1  0  0  0  0
 27 32  1  6  0  0  0
 27 28  1  0  0  0  0
 29 24  1  0  0  0  0
 30 28  1  1  0  0  0
 30 23  1  0  0  0  0
 31 32  1  0  0  0  0
 33 34  1  0  0  0  0
 34  4  1  0  0  0  0
 34 35  2  0  0  0  0
M  END
>  <MODEL>
3

>  <REMARK>
 VINA RESULT:      -8.2      2.422      3.725
  Name = 
  3 active torsions:
  status: ('A' for Active; 'I' for Inactive)
    1  A    between atoms: C_6  and  C_18
    2  A    between atoms: C_7  and  C_15
    3  A    between atoms: C_20  and  C_24
                            x       y       z     vdW  Elec       q    Type
                         _______ _______ _______ _____ _____    ______ ____

>  <TORSDO>
F 3

$$$$
=
 OpenBabel11062422013D

 35 41  0  0  1  0  0  0  0  0999 V2000
  191.2750  175.7110  145.0540 N   0  0  0  0  0  0  0  0  0  0  0  0
  189.0050  175.7280  145.7480 C   0  0  0  0  0  2  0  0  0  0  0  0
  193.0310  176.4360  147.3020 N   0  0  0  0  0  2  0  0  0  0  0  0
  196.1610  173.0750  140.7560 C   0  0  0  0  0  0  0  0  0  0  0  0
  196.3090  173.6640  142.1540 C   0  0  0  0  0  2  0  0  0  0  0  0
  190.3790  175.1640  146.0650 C   0  0  2  0  0  3  0  0  0  0  0  0
  193.2870  174.8940  143.8820 C   0  0  0  0  0  0  0  0  0  0  0  0
  194.9840  174.1080  142.6840 C   0  0  0  0  0  0  0  0  0  0  0  0
  192.6750  174.4880  142.7600 C   0  0  0  0  0  3  0  0  0  0  0  0
  194.6590  174.6620  143.8360 C   0  0  0  0  0  0  0  0  0  0  0  0
  189.0970  176.2750  144.3300 C   0  0  2  0  0  3  0  0  0  0  0  0
  193.7670  173.9670  141.9430 C   0  0  0  0  0  0  0  0  0  0  0  0
  195.4940  174.9870  144.8980 C   0  0  0  0  0  3  0  0  0  0  0  0
  191.6410  176.7910  147.5510 C   0  0  0  0  0  2  0  0  0  0  0  0
  192.6900  175.4680  145.0170 C   0  0  0  0  0  0  0  0  0  0  0  0
  190.7760  175.5420  147.4930 C   0  0  0  0  0  2  0  0  0  0  0  0
  193.5310  175.8140  146.1100 C   0  0  0  0  0  0  0  0  0  0  0  0
  190.5790  176.4340  144.0080 C   0  0  0  0  0  2  0  0  0  0  0  0
  193.7520  173.4330  140.7320 C   0  0  0  0  0  3  0  0  0  0  0  0
  194.9160  175.5670  146.0350 C   0  0  0  0  0  3  0  0  0  0  0  0
  194.9960  172.9900  140.1560 N   0  0  0  0  0  0  0  0  0  0  0  0
  186.7910  176.0120  142.6850 O   0  0  0  0  0  1  0  0  0  0  0  0
  188.1840  177.5030  144.1230 C   0  0  1  0  0  3  0  0  0  0  0  0
  186.5010  178.4860  142.4050 C   0  0  0  0  0  2  0  0  0  0  0  0
  184.2610  178.2360  143.6670 C   0  0  0  0  0  2  0  0  0  0  0  0
  186.9650  177.2850  143.2320 C   0  0  1  0  0  0  0  0  0  0  0  0
  184.7890  178.9380  144.9280 C   0  0  2  0  0  3  0  0  0  0  0  0
  186.2840  178.7110  145.2160 C   0  0  0  0  0  2  0  0  0  0  0  0
  184.9750  178.6440  142.3730 C   0  0  0  0  0  2  0  0  0  0  0  0
  186.7930  177.3440  144.7490 C   0  0  2  0  0  3  0  0  0  0  0  0
  184.7080  178.5850  147.3070 O   0  0  0  0  0  1  0  0  0  0  0  0
  183.9420  178.5670  146.1380 C   0  0  0  0  0  2  0  0  0  0  0  0
  197.9410  173.3470  139.0060 N   0  0  0  0  0  1  0  0  0  0  0  0
  197.3610  172.5870  140.0620 C   0  0  0  0  0  0  0  0  0  0  0  0
  197.8870  171.4920  140.3940 O   0  0  0  0  0  0  0  0  0  0  0  0
  1  6  1  0  0  0  0
  3 14  1  0  0  0  0
  4  5  1  0  0  0  0
  5  8  1  0  0  0  0
  6  2  1  6  0  0  0
  6 16  1  0  0  0  0
  7 15  1  0  0  0  0
  8 10  2  0  0  0  0
  9  7  2  0  0  0  0
 10  7  1  0  0  0  0
 10 13  1  0  0  0  0
 11 18  1  1  0  0  0
 11  2  1  0  0  0  0
 12  8  1  0  0  0  0
 12  9  1  0  0  0  0
 13 20  2  0  0  0  0
 15  1  1  0  0  0  0
 15 17  2  0  0  0  0
 16 14  1  0  0  0  0
 17  3  1  0  0  0  0
 18  1  1  0  0  0  0
 19 12  2  0  0  0  0
 20 17  1  0  0  0  0
 21 19  1  0  0  0  0
 21  4  2  0  0  0  0
 23 11  1  1  0  0  0
 23 30  1  0  0  0  0
 24 26  1  0  0  0  0
 25 27  1  0  0  0  0
 26 22  1  6  0  0  0
 26 23  1  0  0  0  0
 26 30  1  0  0  0  0
 27 28  1  0  0  0  0
 27 32  1  1  0  0  0
 29 24  1  0  0  0  0
 29 25  1  0  0  0  0
 30 28  1  6  0  0  0
 32 31  1  0  0  0  0
 33 34  1  0  0  0  0
 34 35  2  0  0  0  0
 34  4  1  0  0  0  0
M  END
>  <MODEL>
4

>  <REMARK>
 VINA RESULT:      -8.1      3.877     10.273
  Name = 
  3 active torsions:
  status: ('A' for Active; 'I' for Inactive)
    1  A    between atoms: C_6  and  C_18
    2  A    between atoms: C_7  and  C_15
    3  A    between atoms: C_20  and  C_24
                            x       y       z     vdW  Elec       q    Type
                         _______ _______ _______ _____ _____    ______ ____

>  <TORSDO>
F 3

$$$$
=
 OpenBabel11062422013D

 35 41  0  0  1  0  0  0  0  0999 V2000
  191.0180  176.1930  144.8770 N   0  0  0  0  0  0  0  0  0  0  0  0
  193.3760  176.4600  144.8670 C   0  0  0  0  0  2  0  0  0  0  0  0
  190.0880  175.4660  147.5740 N   0  0  0  0  0  2  0  0  0  0  0  0
  184.8180  177.9820  142.1120 C   0  0  0  0  0  0  0  0  0  0  0  0
  185.1520  177.4880  143.5150 C   0  0  0  0  0  2  0  0  0  0  0  0
  192.0960  176.9040  145.5530 C   0  0  2  0  0  3  0  0  0  0  0  0
  188.6700  176.7090  144.3200 C   0  0  0  0  0  0  0  0  0  0  0  0
  186.6170  177.2240  143.6470 C   0  0  0  0  0  0  0  0  0  0  0  0
  188.8780  177.0880  143.0510 C   0  0  0  0  0  3  0  0  0  0  0  0
  187.3270  176.7960  144.6730 C   0  0  0  0  0  0  0  0  0  0  0  0
  192.9440  175.8010  143.5650 C   0  0  2  0  0  3  0  0  0  0  0  0
  187.5420  177.4320  142.5730 C   0  0  0  0  0  0  0  0  0  0  0  0
  186.8800  176.4680  145.9480 C   0  0  0  0  0  3  0  0  0  0  0  0
  191.5230  175.2740  147.4140 C   0  0  0  0  0  2  0  0  0  0  0  0
  189.6350  176.2870  145.2500 C   0  0  0  0  0  0  0  0  0  0  0  0
  192.1790  176.5970  147.0490 C   0  0  0  0  0  2  0  0  0  0  0  0
  189.1940  175.9410  146.5580 C   0  0  0  0  0  0  0  0  0  0  0  0
  191.4630  175.4670  143.7030 C   0  0  0  0  0  2  0  0  0  0  0  0
  187.1410  177.8710  141.3900 C   0  0  0  0  0  3  0  0  0  0  0  0
  187.8280  176.0390  146.8860 C   0  0  0  0  0  3  0  0  0  0  0  0
  185.7400  178.1390  141.1910 N   0  0  0  0  0  0  0  0  0  0  0  0
  195.6840  176.4040  143.0910 O   0  0  0  0  0  1  0  0  0  0  0  0
  193.8990  174.6590  143.1490 C   0  0  1  0  0  3  0  0  0  0  0  0
  196.1140  174.2700  141.8480 C   0  0  0  0  0  2  0  0  0  0  0  0
  197.7350  173.6360  143.7560 C   0  0  0  0  0  2  0  0  0  0  0  0
  195.3520  175.0590  142.9160 C   0  0  1  0  0  0  0  0  0  0  0  0
  196.8010  172.5490  144.3100 C   0  0  2  0  0  3  0  0  0  0  0  0
  195.3000  172.8440  144.1500 C   0  0  0  0  0  2  0  0  0  0  0  0
  197.5500  173.9240  142.2610 C   0  0  0  0  0  2  0  0  0  0  0  0
  194.9630  174.3370  144.2050 C   0  0  2  0  0  3  0  0  0  0  0  0
  197.1890  173.4190  146.5200 O   0  0  0  0  0  1  0  0  0  0  0  0
  197.1410  172.2450  145.7630 C   0  0  0  0  0  2  0  0  0  0  0  0
  182.8800  177.9340  140.5140 N   0  0  0  0  0  1  0  0  0  0  0  0
  183.4180  178.2910  141.7850 C   0  0  0  0  0  0  0  0  0  0  0  0
  182.6820  178.8730  142.6240 O   0  0  0  0  0  0  0  0  0  0  0  0
  1 15  1  0  0  0  0
  1  6  1  0  0  0  0
  4  5  1  0  0  0  0
  5  8  1  0  0  0  0
  6  2  1  6  0  0  0
  6 16  1  0  0  0  0
  7 10  1  0  0  0  0
  7 15  1  0  0  0  0
  8 10  2  0  0  0  0
  9  7  2  0  0  0  0
 10 13  1  0  0  0  0
 11 18  1  1  0  0  0
 11  2  1  0  0  0  0
 12  9  1  0  0  0  0
 12  8  1  0  0  0  0
 13 20  2  0  0  0  0
 14  3  1  0  0  0  0
 15 17  2  0  0  0  0
 16 14  1  0  0  0  0
 17 20  1  0  0  0  0
 17  3  1  0  0  0  0
 18  1  1  0  0  0  0
 19 12  2  0  0  0  0
 21 19  1  0  0  0  0
 21  4  2  0  0  0  0
 23 11  1  1  0  0  0
 23 30  1  0  0  0  0
 24 29  1  0  0  0  0
 24 26  1  0  0  0  0
 25 27  1  0  0  0  0
 26 22  1  1  0  0  0
 26 23  1  0  0  0  0
 26 30  1  0  0  0  0
 27 32  1  1  0  0  0
 28 27  1  0  0  0  0
 29 25  1  0  0  0  0
 30 28  1  6  0  0  0
 32 31  1  0  0  0  0
 33 34  1  0  0  0  0
 34  4  1  0  0  0  0
 34 35  2  0  0  0  0
M  END
>  <MODEL>
5

>  <REMARK>
 VINA RESULT:      -7.9      2.987      4.320
  Name = 
  3 active torsions:
  status: ('A' for Active; 'I' for Inactive)
    1  A    between atoms: C_6  and  C_18
    2  A    between atoms: C_7  and  C_15
    3  A    between atoms: C_20  and  C_24
                            x       y       z     vdW  Elec       q    Type
                         _______ _______ _______ _____ _____    ______ ____

>  <TORSDO>
F 3

$$$$
=
 OpenBabel11062422013D

 35 41  0  0  1  0  0  0  0  0999 V2000
  191.0020  174.8070  145.2220 N   0  0  0  0  0  0  0  0  0  0  0  0
  189.1350  175.7140  146.3720 C   0  0  0  0  0  2  0  0  0  0  0  0
  193.5000  175.5570  146.5860 N   0  0  0  0  0  2  0  0  0  0  0  0
  193.5670  169.7040  141.1390 C   0  0  0  0  0  0  0  0  0  0  0  0
  194.2790  170.5860  142.1580 C   0  0  0  0  0  2  0  0  0  0  0  0
  190.3840  174.8690  146.5400 C   0  0  2  0  0  3  0  0  0  0  0  0
  192.3080  173.1170  143.9850 C   0  0  0  0  0  0  0  0  0  0  0  0
  193.3210  171.5450  142.7870 C   0  0  0  0  0  0  0  0  0  0  0  0
  191.2960  172.6220  143.2580 C   0  0  0  0  0  3  0  0  0  0  0  0
  193.5090  172.4720  143.7070 C   0  0  0  0  0  0  0  0  0  0  0  0
  188.8790  175.7850  144.8730 C   0  0  2  0  0  3  0  0  0  0  0  0
  191.9290  171.5830  142.4510 C   0  0  0  0  0  0  0  0  0  0  0  0
  194.6910  172.8090  144.3560 C   0  0  0  0  0  3  0  0  0  0  0  0
  192.3730  176.3770  147.0080 C   0  0  0  0  0  2  0  0  0  0  0  0
  192.2440  174.1410  144.9450 C   0  0  0  0  0  0  0  0  0  0  0  0
  191.2900  175.4910  147.6040 C   0  0  0  0  0  2  0  0  0  0  0  0
  193.4450  174.5040  145.6140 C   0  0  0  0  0  0  0  0  0  0  0  0
  190.1760  175.3850  144.1790 C   0  0  0  0  0  2  0  0  0  0  0  0
  191.4120  170.7620  141.5500 C   0  0  0  0  0  3  0  0  0  0  0  0
  194.6460  173.8330  145.3110 C   0  0  0  0  0  3  0  0  0  0  0  0
  192.2810  169.8160  140.8980 N   0  0  0  0  0  0  0  0  0  0  0  0
  186.8290  175.7700  142.9000 O   0  0  0  0  0  1  0  0  0  0  0  0
  188.2310  177.1250  144.4590 C   0  0  1  0  0  3  0  0  0  0  0  0
  187.0120  178.2290  142.4470 C   0  0  0  0  0  2  0  0  0  0  0  0
  184.6020  178.4440  143.3510 C   0  0  0  0  0  2  0  0  0  0  0  0
  187.1370  177.0370  143.4000 C   0  0  1  0  0  0  0  0  0  0  0  0
  185.0520  179.1490  144.6400 C   0  0  2  0  0  3  0  0  0  0  0  0
  186.4270  178.7060  145.1720 C   0  0  0  0  0  2  0  0  0  0  0  0
  185.5580  178.6280  142.1660 C   0  0  0  0  0  2  0  0  0  0  0  0
  186.7560  177.2420  144.8660 C   0  0  2  0  0  3  0  0  0  0  0  0
  184.2360  177.9080  146.5340 O   0  0  0  0  0  1  0  0  0  0  0  0
  183.9860  179.0160  145.7200 C   0  0  0  0  0  2  0  0  0  0  0  0
  195.6350  168.3040  140.8730 N   0  0  0  0  0  1  0  0  0  0  0  0
  194.3480  168.6960  140.4060 C   0  0  0  0  0  0  0  0  0  0  0  0
  193.8850  168.1720  139.3580 O   0  0  0  0  0  0  0  0  0  0  0  0
  1  6  1  0  0  0  0
  3 14  1  0  0  0  0
  4  5  1  0  0  0  0
  5  8  1  0  0  0  0
  6  2  1  6  0  0  0
  6 16  1  0  0  0  0
  7 15  1  0  0  0  0
  8 10  2  0  0  0  0
  9  7  2  0  0  0  0
 10  7  1  0  0  0  0
 10 13  1  0  0  0  0
 11 18  1  6  0  0  0
 11  2  1  0  0  0  0
 12  8  1  0  0  0  0
 12  9  1  0  0  0  0
 13 20  2  0  0  0  0
 14 16  1  0  0  0  0
 15  1  1  0  0  0  0
 15 17  2  0  0  0  0
 17  3  1  0  0  0  0
 18  1  1  0  0  0  0
 19 12  2  0  0  0  0
 20 17  1  0  0  0  0
 21  4  2  0  0  0  0
 21 19  1  0  0  0  0
 23 30  1  0  0  0  0
 23 11  1  1  0  0  0
 24 26  1  0  0  0  0
 25 27  1  0  0  0  0
 26 22  1  6  0  0  0
 26 23  1  0  0  0  0
 26 30  1  0  0  0  0
 27 28  1  0  0  0  0
 27 32  1  1  0  0  0
 29 24  1  0  0  0  0
 29 25  1  0  0  0  0
 30 28  1  6  0  0  0
 32 31  1  0  0  0  0
 34 33  1  0  0  0  0
 34  4  1  0  0  0  0
 35 34  2  0  0  0  0
M  END
>  <MODEL>
6

>  <REMARK>
 VINA RESULT:      -7.7      3.876     10.070
  Name = 
  3 active torsions:
  status: ('A' for Active; 'I' for Inactive)
    1  A    between atoms: C_6  and  C_18
    2  A    between atoms: C_7  and  C_15
    3  A    between atoms: C_20  and  C_24
                            x       y       z     vdW  Elec       q    Type
                         _______ _______ _______ _____ _____    ______ ____

>  <TORSDO>
F 3

$$$$
=
 OpenBabel11062422013D

 35 41  0  0  1  0  0  0  0  0999 V2000
  191.2070  175.1010  143.9820 N   0  0  0  0  0  0  0  0  0  0  0  0
  189.8470  176.0350  145.6880 C   0  0  0  0  0  2  0  0  0  0  0  0
  193.9910  176.0040  144.2930 N   0  0  0  0  0  2  0  0  0  0  0  0
  192.3470  169.8060  139.5150 C   0  0  0  0  0  0  0  0  0  0  0  0
  193.3380  170.7720  140.1540 C   0  0  0  0  0  2  0  0  0  0  0  0
  191.1100  175.2340  145.4300 C   0  0  2  0  0  3  0  0  0  0  0  0
  192.0510  173.3670  142.4420 C   0  0  0  0  0  0  0  0  0  0  0  0
  192.6320  171.7460  141.0400 C   0  0  0  0  0  0  0  0  0  0  0  0
  190.8690  172.7990  142.1650 C   0  0  0  0  0  3  0  0  0  0  0  0
  193.0970  172.7360  141.7770 C   0  0  0  0  0  0  0  0  0  0  0  0
  189.0590  176.0000  144.3850 C   0  0  2  0  0  3  0  0  0  0  0  0
  191.2130  171.7260  141.2370 C   0  0  0  0  0  0  0  0  0  0  0  0
  194.4170  173.1460  141.9280 C   0  0  0  0  0  3  0  0  0  0  0  0
  193.0580  176.8210  145.0550 C   0  0  0  0  0  2  0  0  0  0  0  0
  192.2920  174.4500  143.3040 C   0  0  0  0  0  0  0  0  0  0  0  0
  192.3110  175.9490  146.0530 C   0  0  0  0  0  2  0  0  0  0  0  0
  193.6360  174.8870  143.4650 C   0  0  0  0  0  0  0  0  0  0  0  0
  190.0310  175.5880  143.2870 C   0  0  0  0  0  2  0  0  0  0  0  0
  190.4430  170.8340  140.6330 C   0  0  0  0  0  3  0  0  0  0  0  0
  194.6750  174.2290  142.7780 C   0  0  0  0  0  3  0  0  0  0  0  0
  191.0580  169.8690  139.7580 N   0  0  0  0  0  0  0  0  0  0  0  0
  186.7580  175.9090  142.7150 O   0  0  0  0  0  1  0  0  0  0  0  0
  188.2400  177.2930  144.1700 C   0  0  1  0  0  3  0  0  0  0  0  0
  186.6540  178.3980  142.4340 C   0  0  0  0  0  2  0  0  0  0  0  0
  184.3880  178.3130  143.6710 C   0  0  0  0  0  2  0  0  0  0  0  0
  187.0190  177.1650  143.2650 C   0  0  1  0  0  0  0  0  0  0  0  0
  184.9520  178.9740  144.9380 C   0  0  2  0  0  3  0  0  0  0  0  0
  186.4220  178.6370  145.2420 C   0  0  0  0  0  2  0  0  0  0  0  0
  185.1450  178.6670  142.3840 C   0  0  0  0  0  2  0  0  0  0  0  0
  186.8350  177.2360  144.7800 C   0  0  2  0  0  3  0  0  0  0  0  0
  184.8240  178.5920  147.3100 O   0  0  0  0  0  1  0  0  0  0  0  0
  184.0670  178.6660  146.1380 C   0  0  0  0  0  2  0  0  0  0  0  0
  192.0390  168.2910  137.5360 N   0  0  0  0  0  1  0  0  0  0  0  0
  192.8540  168.7730  138.6000 C   0  0  0  0  0  0  0  0  0  0  0  0
  194.0130  168.3030  138.7500 O   0  0  0  0  0  0  0  0  0  0  0  0
  1  6  1  0  0  0  0
  3 14  1  0  0  0  0
  4 21  2  0  0  0  0
  4  5  1  0  0  0  0
  5  8  1  0  0  0  0
  6  2  1  6  0  0  0
  6 16  1  0  0  0  0
  7 15  1  0  0  0  0
  8 12  1  0  0  0  0
  8 10  2  0  0  0  0
  9  7  2  0  0  0  0
 10 13  1  0  0  0  0
 10  7  1  0  0  0  0
 11 18  1  6  0  0  0
 11  2  1  0  0  0  0
 12  9  1  0  0  0  0
 13 20  2  0  0  0  0
 14 16  1  0  0  0  0
 15 17  2  0  0  0  0
 15  1  1  0  0  0  0
 17  3  1  0  0  0  0
 18  1  1  0  0  0  0
 19 12  2  0  0  0  0
 20 17  1  0  0  0  0
 21 19  1  0  0  0  0
 23 11  1  1  0  0  0
 23 30  1  0  0  0  0
 24 26  1  0  0  0  0
 25 27  1  0  0  0  0
 26 22  1  6  0  0  0
 26 23  1  0  0  0  0
 26 30  1  0  0  0  0
 27 28  1  0  0  0  0
 27 32  1  1  0  0  0
 29 24  1  0  0  0  0
 29 25  1  0  0  0  0
 30 28  1  6  0  0  0
 32 31  1  0  0  0  0
 33 34  1  0  0  0  0
 34 35  2  0  0  0  0
 34  4  1  0  0  0  0
M  END
>  <MODEL>
7

>  <REMARK>
 VINA RESULT:      -7.7      3.763      9.770
  Name = 
  3 active torsions:
  status: ('A' for Active; 'I' for Inactive)
    1  A    between atoms: C_6  and  C_18
    2  A    between atoms: C_7  and  C_15
    3  A    between atoms: C_20  and  C_24
                            x       y       z     vdW  Elec       q    Type
                         _______ _______ _______ _____ _____    ______ ____

>  <TORSDO>
F 3

$$$$
=
 OpenBabel11062422013D

 35 41  0  0  1  0  0  0  0  0999 V2000
  191.6110  174.5080  142.8290 N   0  0  0  0  0  0  0  0  0  0  0  0
  193.0190  174.2100  140.9410 C   0  0  0  0  0  2  0  0  0  0  0  0
  193.1490  174.1410  145.3120 N   0  0  0  0  0  2  0  0  0  0  0  0
  185.9360  177.5820  145.5910 C   0  0  0  0  0  0  0  0  0  0  0  0
  187.2050  177.0870  146.2750 C   0  0  0  0  0  2  0  0  0  0  0  0
  192.8620  174.9730  142.2440 C   0  0  2  0  0  3  0  0  0  0  0  0
  189.8370  175.5370  144.2020 C   0  0  0  0  0  0  0  0  0  0  0  0
  188.1450  176.4910  145.2770 C   0  0  0  0  0  0  0  0  0  0  0  0
  188.9830  175.7990  143.2030 C   0  0  0  0  0  3  0  0  0  0  0  0
  189.3400  175.9540  145.4330 C   0  0  0  0  0  0  0  0  0  0  0  0
  191.6500  173.6140  140.6420 C   0  0  2  0  0  3  0  0  0  0  0  0
  187.8500  176.4260  143.8770 C   0  0  0  0  0  0  0  0  0  0  0  0
  190.0640  175.7980  146.6080 C   0  0  0  0  0  3  0  0  0  0  0  0
  193.8450  173.6100  144.1480 C   0  0  0  0  0  2  0  0  0  0  0  0
  191.1060  174.9410  144.1010 C   0  0  0  0  0  0  0  0  0  0  0  0
  194.0780  174.7230  143.1390 C   0  0  0  0  0  2  0  0  0  0  0  0
  191.8580  174.7680  145.2960 C   0  0  0  0  0  0  0  0  0  0  0  0
  190.8550  173.6450  141.9420 C   0  0  0  0  0  2  0  0  0  0  0  0
  186.7120  176.8940  143.3870 C   0  0  0  0  0  3  0  0  0  0  0  0
  191.3280  175.2000  146.5270 C   0  0  0  0  0  3  0  0  0  0  0  0
  185.7560  177.4760  144.2950 N   0  0  0  0  0  0  0  0  0  0  0  0
  189.3170  172.5120  139.4430 O   0  0  0  0  0  1  0  0  0  0  0  0
  191.7580  172.2620  139.9010 C   0  0  1  0  0  3  0  0  0  0  0  0
  190.3010  170.2160  139.2360 C   0  0  0  0  0  2  0  0  0  0  0  0
  190.1250  170.5110  136.6760 C   0  0  0  0  0  2  0  0  0  0  0  0
  190.4670  171.7370  139.2810 C   0  0  1  0  0  0  0  0  0  0  0  0
  191.6450  170.6430  136.4960 C   0  0  2  0  0  3  0  0  0  0  0  0
  192.3780  171.3210  137.6660 C   0  0  0  0  0  2  0  0  0  0  0  0
  189.7040  169.7120  137.9160 C   0  0  0  0  0  2  0  0  0  0  0  0
  191.5310  172.3740  138.3880 C   0  0  2  0  0  3  0  0  0  0  0  0
  191.1620  172.4700  135.0050 O   0  0  0  0  0  1  0  0  0  0  0  0
  191.9660  171.3400  135.1800 C   0  0  0  0  0  2  0  0  0  0  0  0
  183.6920  178.6910  145.8040 N   0  0  0  0  0  1  0  0  0  0  0  0
  184.8830  178.1970  146.4120 C   0  0  0  0  0  0  0  0  0  0  0  0
  185.0240  178.2940  147.6600 O   0  0  0  0  0  0  0  0  0  0  0  0
  1 15  1  0  0  0  0
  4  5  1  0  0  0  0
  4 34  1  0  0  0  0
  6  2  1  6  0  0  0
  6  1  1  0  0  0  0
  6 16  1  0  0  0  0
  7 10  1  0  0  0  0
  8 10  2  0  0  0  0
  8  5  1  0  0  0  0
  9 12  1  0  0  0  0
  9  7  2  0  0  0  0
 10 13  1  0  0  0  0
 11  2  1  1  0  0  0
 11 18  1  0  0  0  0
 12  8  1  0  0  0  0
 14  3  1  0  0  0  0
 15  7  1  0  0  0  0
 15 17  2  0  0  0  0
 16 14  1  0  0  0  0
 17  3  1  0  0  0  0
 17 20  1  0  0  0  0
 18  1  1  0  0  0  0
 19 12  2  0  0  0  0
 19 21  1  0  0  0  0
 20 13  2  0  0  0  0
 21  4  2  0  0  0  0
 23 11  1  1  0  0  0
 24 26  1  0  0  0  0
 25 29  1  0  0  0  0
 26 22  1  1  0  0  0
 26 23  1  0  0  0  0
 27 32  1  6  0  0  0
 27 25  1  0  0  0  0
 27 28  1  0  0  0  0
 29 24  1  0  0  0  0
 30 28  1  6  0  0  0
 30 26  1  0  0  0  0
 30 23  1  0  0  0  0
 31 32  1  0  0  0  0
 33 34  1  0  0  0  0
 34 35  2  0  0  0  0
M  END
>  <MODEL>
8

>  <REMARK>
 VINA RESULT:      -7.5      3.261      5.190
  Name = 
  3 active torsions:
  status: ('A' for Active; 'I' for Inactive)
    1  A    between atoms: C_6  and  C_18
    2  A    between atoms: C_7  and  C_15
    3  A    between atoms: C_20  and  C_24
                            x       y       z     vdW  Elec       q    Type
                         _______ _______ _______ _____ _____    ______ ____

>  <TORSDO>
F 3

$$$$
=
 OpenBabel11062422013D

 35 41  0  0  1  0  0  0  0  0999 V2000
  189.9980  173.8190  142.9400 N   0  0  0  0  0  0  0  0  0  0  0  0
  188.9060  175.9180  142.7680 C   0  0  0  0  0  2  0  0  0  0  0  0
  189.2070  172.0750  140.7040 N   0  0  0  0  0  2  0  0  0  0  0  0
  195.5900  170.1850  145.1330 C   0  0  0  0  0  0  0  0  0  0  0  0
  194.6350  169.9000  143.9800 C   0  0  0  0  0  3  0  0  0  0  0  0
  189.7770  174.9260  142.0190 C   0  0  2  0  0  3  0  0  0  0  0  0
  191.8560  172.2510  143.3680 C   0  0  0  0  0  0  0  0  0  0  0  0
  193.5800  170.9550  143.8950 C   0  0  0  0  0  0  0  0  0  0  0  0
  192.3840  172.8990  144.4160 C   0  0  0  0  0  3  0  0  0  0  0  0
  192.5710  171.0990  143.0570 C   0  0  0  0  0  0  0  0  0  0  0  0
  188.9800  175.5130  144.2340 C   0  0  2  0  0  3  0  0  0  0  0  0
  193.5240  172.0690  144.7930 C   0  0  2  0  0  3  0  0  0  0  0  0
  192.2140  170.2770  141.9940 C   0  0  0  0  0  3  0  0  0  0  0  0
  188.3050  173.2070  140.8670 C   0  0  0  0  0  2  0  0  0  0  0  0
  190.7360  172.6320  142.6090 C   0  0  0  0  0  0  0  0  0  0  0  0
  189.0830  174.5050  140.7220 C   0  0  0  0  0  2  0  0  0  0  0  0
  190.3520  171.7990  141.5220 C   0  0  0  0  0  0  0  0  0  0  0  0
  189.5000  174.0810  144.2760 C   0  0  0  0  0  2  0  0  0  0  0  0
  194.4130  172.2220  145.7620 C   0  0  0  0  0  3  0  0  0  0  0  0
  191.0960  170.6380  141.2310 C   0  0  0  0  0  3  0  0  0  0  0  0
  195.4540  171.2370  145.9070 N   0  0  0  0  0  0  0  0  0  0  0  0
  188.9710  177.5670  146.2030 O   0  0  0  0  0  1  0  0  0  0  0  0
  187.6660  175.8210  144.9870 C   0  0  1  0  0  3  0  0  0  0  0  0
  186.8270  176.7910  147.2460 C   0  0  0  0  0  2  0  0  0  0  0  0
  185.8000  179.0400  146.4980 C   0  0  0  0  0  2  0  0  0  0  0  0
  187.7380  176.9360  146.0250 C   0  0  1  0  0  0  0  0  0  0  0  0
  184.9340  178.3860  145.4110 C   0  0  2  0  0  3  0  0  0  0  0  0
  185.5590  177.1490  144.7440 C   0  0  0  0  0  2  0  0  0  0  0  0
  186.1600  178.1090  147.6620 C   0  0  0  0  0  2  0  0  0  0  0  0
  187.0880  177.2050  144.6680 C   0  0  2  0  0  3  0  0  0  0  0  0
  185.5670  180.3120  144.1140 O   0  0  0  0  0  1  0  0  0  0  0  0
  184.5240  179.4160  144.3660 C   0  0  0  0  0  2  0  0  0  0  0  0
  197.0620  168.2860  144.3990 N   0  0  0  0  0  1  0  0  0  0  0  0
  196.6970  169.2500  145.3840 C   0  0  0  0  0  0  0  0  0  0  0  0
  197.3320  169.2920  146.4700 O   0  0  0  0  0  0  0  0  0  0  0  0
  1 18  1  0  0  0  0
  3 14  1  0  0  0  0
  3 17  1  0  0  0  0
  4 34  1  0  0  0  0
  4 21  1  0  0  0  0
  5  4  2  0  0  0  0
  6 16  1  6  0  0  0
  6  2  1  0  0  0  0
  6  1  1  0  0  0  0
  7  9  2  0  0  0  0
  8  5  1  0  0  0  0
  8 12  1  0  0  0  0
 10  7  1  0  0  0  0
 10  8  2  0  0  0  0
 11  2  1  6  0  0  0
 11 18  1  0  0  0  0
 12  9  1  6  0  0  0
 12 19  1  0  0  0  0
 13 10  1  0  0  0  0
 15  1  1  0  0  0  0
 15  7  1  0  0  0  0
 16 14  1  0  0  0  0
 17 15  2  0  0  0  0
 19 21  2  0  0  0  0
 20 17  1  0  0  0  0
 20 13  2  0  0  0  0
 23 11  1  6  0  0  0
 23 26  1  0  0  0  0
 24 29  1  0  0  0  0
 25 29  1  0  0  0  0
 26 22  1  1  0  0  0
 26 24  1  0  0  0  0
 27 32  1  6  0  0  0
 27 25  1  0  0  0  0
 28 27  1  0  0  0  0
 30 28  1  1  0  0  0
 30 23  1  0  0  0  0
 30 26  1  0  0  0  0
 31 32  1  0  0  0  0
 33 34  1  0  0  0  0
 34 35  2  0  0  0  0
M  END
>  <MODEL>
9

>  <REMARK>
 VINA RESULT:      -7.4      4.193     11.005
  Name = 
  3 active torsions:
  status: ('A' for Active; 'I' for Inactive)
    1  A    between atoms: C_6  and  C_18
    2  A    between atoms: C_7  and  C_15
    3  A    between atoms: C_20  and  C_24
                            x       y       z     vdW  Elec       q    Type
                         _______ _______ _______ _____ _____    ______ ____

>  <TORSDO>
F 3

$$$$
