=
 OpenBabel11062420573D

 31 35  0  0  1  0  0  0  0  0999 V2000
  188.5640  175.6010  141.7480 C   0  0  0  0  0  2  0  0  0  0  0  0
  189.8190  175.9590  142.4070 N   0  0  1  0  0  0  0  0  0  0  0  0
  189.7640  177.3830  142.7250 C   0  0  2  0  0  3  0  0  0  0  0  0
  189.7100  175.5610  143.8050 C   0  0  2  0  0  3  0  0  0  0  0  0
  189.6220  177.2310  144.5320 S   0  0  0  0  0  0  0  0  0  0  0  0
  187.6410  176.8020  141.7290 C   0  0  2  0  0  3  0  0  0  0  0  0
  188.4970  177.9730  142.1390 C   0  0  0  0  0  2  0  0  0  0  0  0
  192.2960  175.3940  144.4900 C   0  0  0  0  0  2  0  0  0  0  0  0
  190.9990  173.5230  144.4670 C   0  0  0  0  0  0  0  0  0  0  0  0
  192.2930  173.1580  144.8930 N   0  0  0  0  0  2  0  0  0  0  0  0
  190.9440  174.8120  144.2280 C   0  0  0  0  0  0  0  0  0  0  0  0
  193.1450  174.2740  144.9280 N   0  0  0  0  0  0  0  0  0  0  0  0
  189.6810  172.1380  143.0850 O   0  0  0  0  0  1  0  0  0  0  0  0
  189.8560  172.5680  144.3990 C   0  0  0  0  0  2  0  0  0  0  0  0
  194.1570  174.0680  143.9010 C   0  0  0  0  0  2  0  0  0  0  0  0
  195.5230  174.5370  144.3920 C   0  0  1  0  0  3  0  0  0  0  0  0
  195.3160  177.1010  145.0000 C   0  0  0  0  0  1  0  0  0  0  0  0
  196.8850  176.3660  143.1350 C   0  0  0  0  0  2  0  0  0  0  0  0
  195.7810  176.0150  144.0510 C   0  0  1  0  0  0  0  0  0  0  0  0
  195.5370  176.3520  142.7090 O   0  0  0  0  0  0  0  0  0  0  0  0
  197.0700  173.8120  146.1020 O   0  0  0  0  0  1  0  0  0  0  0  0
  195.7380  174.1610  145.8600 C   0  0  0  0  0  2  0  0  0  0  0  0
  186.3040  176.5550  142.9390 S   0  0  0  0  0  0  0  0  0  0  0  0
  185.2270  178.4230  141.4480 O   0  0  0  0  0  0  0  0  0  0  0  0
  185.5580  178.1460  142.5910 C   0  0  0  0  0  0  0  0  0  0  0  0
  184.0220  178.8190  145.7740 C   0  0  0  0  0  3  0  0  0  0  0  0
  183.9060  178.9940  144.2620 C   0  0  0  0  0  3  0  0  0  0  0  0
  185.3330  179.1180  143.7080 C   0  0  1  0  0  3  0  0  0  0  0  0
  186.2350  178.8410  144.8090 N   0  0  0  0  0  2  0  0  0  0  0  0
  185.4750  178.6840  145.9870 C   0  0  0  0  0  0  0  0  0  0  0  0
  186.1560  178.4090  147.4440 S   0  0  0  0  0  0  0  0  0  0  0  0
  2  1  1  6  0  0  0
  2  3  1  0  0  0  0
  2  4  1  0  0  0  0
  3  7  1  6  0  0  0
  3  5  1  0  0  0  0
  4 11  1  1  0  0  0
  4  5  1  0  0  0  0
  6  1  1  0  0  0  0
  6  7  1  0  0  0  0
  6 23  1  1  0  0  0
  8 12  1  0  0  0  0
  9 10  1  0  0  0  0
 10 12  1  0  0  0  0
 11  9  2  0  0  0  0
 11  8  1  0  0  0  0
 13 14  1  0  0  0  0
 14  9  1  0  0  0  0
 15 12  1  0  0  0  0
 16 15  1  1  0  0  0
 16 22  1  0  0  0  0
 18 19  1  0  0  0  0
 19 16  1  0  0  0  0
 19 17  1  1  0  0  0
 20 18  1  0  0  0  0
 20 19  1  0  0  0  0
 22 21  1  0  0  0  0
 24 25  2  0  0  0  0
 25 23  1  0  0  0  0
 26 30  1  0  0  0  0
 27 26  2  0  0  0  0
 28 25  1  6  0  0  0
 28 27  1  0  0  0  0
 28 29  1  0  0  0  0
 29 30  1  0  0  0  0
 30 31  2  0  0  0  0
M  END
>  <MODEL>
1

>  <REMARK>
 VINA RESULT:      -6.6      0.000      0.000
  Name = 
  9 active torsions:
  status: ('A' for Active; 'I' for Inactive)
    1  A    between atoms: S_1  and  C_17
    2  A    between atoms: S_1  and  C_24
    3  A    between atoms: C_3  and  C_29
    4  A    between atoms: C_8  and  C_17
    5  A    between atoms: C_12  and  C_14
    6  A    between atoms: C_14  and  C_21
    7  A    between atoms: C_14  and  C_28
    8  A    between atoms: C_18  and  C_20
    9  A    between atoms: N_22  and  C_28
                            x       y       z     vdW  Elec       q    Type
                         _______ _______ _______ _____ _____    ______ ____

>  <TORSDO>
F 9

$$$$
=
 OpenBabel11062420573D

 31 35  0  0  1  0  0  0  0  0999 V2000
  188.7120  175.6620  141.8500 C   0  0  0  0  0  2  0  0  0  0  0  0
  189.9310  176.1310  142.5060 N   0  0  1  0  0  0  0  0  0  0  0  0
  189.7910  177.5660  142.7340 C   0  0  2  0  0  3  0  0  0  0  0  0
  189.8180  175.8140  143.9240 C   0  0  2  0  0  3  0  0  0  0  0  0
  189.6220  177.5160  144.5440 S   0  0  0  0  0  0  0  0  0  0  0  0
  187.7240  176.8050  141.7410 C   0  0  2  0  0  3  0  0  0  0  0  0
  188.5050  178.0450  142.0910 C   0  0  0  0  0  2  0  0  0  0  0  0
  192.3920  175.8380  144.6700 C   0  0  0  0  0  2  0  0  0  0  0  0
  191.2080  173.8940  144.7230 C   0  0  0  0  0  0  0  0  0  0  0  0
  192.5100  173.6310  145.1950 N   0  0  0  0  0  2  0  0  0  0  0  0
  191.0830  175.1630  144.4120 C   0  0  0  0  0  0  0  0  0  0  0  0
  193.2940  174.7960  145.1870 N   0  0  0  0  0  0  0  0  0  0  0  0
  189.9650  172.4060  143.3800 O   0  0  0  0  0  1  0  0  0  0  0  0
  190.1240  172.8700  144.6840 C   0  0  0  0  0  2  0  0  0  0  0  0
  194.3400  174.5960  144.1940 C   0  0  0  0  0  2  0  0  0  0  0  0
  195.6660  175.1690  144.6880 C   0  0  1  0  0  3  0  0  0  0  0  0
  197.7860  173.8640  143.7980 C   0  0  0  0  0  1  0  0  0  0  0  0
  197.0690  173.6060  146.2280 C   0  0  0  0  0  2  0  0  0  0  0  0
  196.7340  174.0750  144.8680 C   0  0  1  0  0  0  0  0  0  0  0  0
  196.2380  172.8560  145.3630 O   0  0  0  0  0  0  0  0  0  0  0  0
  195.5170  176.3190  142.5690 O   0  0  0  0  0  1  0  0  0  0  0  0
  196.0980  176.3660  143.8390 C   0  0  0  0  0  2  0  0  0  0  0  0
  186.3800  176.5560  142.9410 S   0  0  0  0  0  0  0  0  0  0  0  0
  185.2750  178.3620  141.3960 O   0  0  0  0  0  0  0  0  0  0  0  0
  185.6020  178.1210  142.5470 C   0  0  0  0  0  0  0  0  0  0  0  0
  183.9890  178.8560  145.6790 C   0  0  0  0  0  3  0  0  0  0  0  0
  183.9080  178.9980  144.1610 C   0  0  0  0  0  3  0  0  0  0  0  0
  185.3470  179.1160  143.6380 C   0  0  1  0  0  3  0  0  0  0  0  0
  186.2240  178.8670  144.7660 N   0  0  0  0  0  2  0  0  0  0  0  0
  185.4370  178.7310  145.9290 C   0  0  0  0  0  0  0  0  0  0  0  0
  186.0850  178.4910  147.4070 S   0  0  0  0  0  0  0  0  0  0  0  0
  2  1  1  6  0  0  0
  2  3  1  0  0  0  0
  2  4  1  0  0  0  0
  3  7  1  6  0  0  0
  3  5  1  0  0  0  0
  4 11  1  1  0  0  0
  4  5  1  0  0  0  0
  6  1  1  0  0  0  0
  6  7  1  0  0  0  0
  6 23  1  1  0  0  0
  8 12  1  0  0  0  0
  9 10  1  0  0  0  0
 11  8  1  0  0  0  0
 11  9  2  0  0  0  0
 12 10  1  0  0  0  0
 13 14  1  0  0  0  0
 14  9  1  0  0  0  0
 15 16  1  0  0  0  0
 15 12  1  0  0  0  0
 16 22  1  6  0  0  0
 16 19  1  0  0  0  0
 19 17  1  6  0  0  0
 19 20  1  0  0  0  0
 19 18  1  0  0  0  0
 20 18  1  0  0  0  0
 21 22  1  0  0  0  0
 24 25  2  0  0  0  0
 25 23  1  0  0  0  0
 26 30  1  0  0  0  0
 27 26  2  0  0  0  0
 28 25  1  6  0  0  0
 28 27  1  0  0  0  0
 28 29  1  0  0  0  0
 29 30  1  0  0  0  0
 30 31  2  0  0  0  0
M  END
>  <MODEL>
2

>  <REMARK>
 VINA RESULT:      -6.6      0.710      1.739
  Name = 
  9 active torsions:
  status: ('A' for Active; 'I' for Inactive)
    1  A    between atoms: S_1  and  C_17
    2  A    between atoms: S_1  and  C_24
    3  A    between atoms: C_3  and  C_29
    4  A    between atoms: C_8  and  C_17
    5  A    between atoms: C_12  and  C_14
    6  A    between atoms: C_14  and  C_21
    7  A    between atoms: C_14  and  C_28
    8  A    between atoms: C_18  and  C_20
    9  A    between atoms: N_22  and  C_28
                            x       y       z     vdW  Elec       q    Type
                         _______ _______ _______ _____ _____    ______ ____

>  <TORSDO>
F 9

$$$$
=
 OpenBabel11062420573D

 31 35  0  0  1  0  0  0  0  0999 V2000
  189.0780  175.5720  142.3330 C   0  0  0  0  0  2  0  0  0  0  0  0
  190.2210  176.1990  142.9950 N   0  0  1  0  0  0  0  0  0  0  0  0
  190.0130  177.6440  142.9680 C   0  0  2  0  0  3  0  0  0  0  0  0
  189.9990  176.1130  144.4320 C   0  0  2  0  0  3  0  0  0  0  0  0
  189.6930  177.8830  144.7420 S   0  0  0  0  0  0  0  0  0  0  0  0
  188.0640  176.6330  141.9590 C   0  0  2  0  0  3  0  0  0  0  0  0
  188.7700  177.9500  142.1560 C   0  0  0  0  0  2  0  0  0  0  0  0
  192.5770  175.3830  144.4910 C   0  0  0  0  0  2  0  0  0  0  0  0
  191.3350  175.3370  146.3990 C   0  0  0  0  0  0  0  0  0  0  0  0
  192.6500  174.9420  146.7190 N   0  0  0  0  0  2  0  0  0  0  0  0
  191.2400  175.6120  145.1190 C   0  0  0  0  0  0  0  0  0  0  0  0
  193.4700  174.9490  145.5780 N   0  0  0  0  0  0  0  0  0  0  0  0
  189.3170  174.4770  147.2660 O   0  0  0  0  0  1  0  0  0  0  0  0
  190.2550  175.4970  147.4140 C   0  0  0  0  0  2  0  0  0  0  0  0
  193.8390  173.5660  145.3120 C   0  0  0  0  0  2  0  0  0  0  0  0
  195.0680  173.5020  144.4090 C   0  0  1  0  0  3  0  0  0  0  0  0
  196.5630  171.7660  145.7270 C   0  0  0  0  0  1  0  0  0  0  0  0
  197.5530  173.9990  145.0080 C   0  0  0  0  0  2  0  0  0  0  0  0
  196.3460  173.1700  145.1990 C   0  0  1  0  0  0  0  0  0  0  0  0
  196.7170  174.1460  146.1390 O   0  0  0  0  0  0  0  0  0  0  0  0
  193.8050  171.6790  143.4510 O   0  0  0  0  0  1  0  0  0  0  0  0
  194.8080  172.6160  143.1890 C   0  0  0  0  0  2  0  0  0  0  0  0
  186.6330  176.5210  143.0760 S   0  0  0  0  0  0  0  0  0  0  0  0
  185.7410  178.2190  141.2890 O   0  0  0  0  0  0  0  0  0  0  0  0
  185.9230  178.0560  142.4850 C   0  0  0  0  0  0  0  0  0  0  0  0
  184.0050  178.9800  145.3860 C   0  0  0  0  0  3  0  0  0  0  0  0
  184.0660  179.0060  143.8610 C   0  0  0  0  0  3  0  0  0  0  0  0
  185.5460  179.1230  143.4670 C   0  0  1  0  0  3  0  0  0  0  0  0
  186.3160  178.9830  144.6880 N   0  0  0  0  0  2  0  0  0  0  0  0
  185.4250  178.9140  145.7790 C   0  0  0  0  0  0  0  0  0  0  0  0
  185.9340  178.8030  147.3260 S   0  0  0  0  0  0  0  0  0  0  0  0
  2  1  1  6  0  0  0
  2  4  1  0  0  0  0
  3  7  1  6  0  0  0
  3  2  1  0  0  0  0
  3  5  1  0  0  0  0
  4  5  1  0  0  0  0
  4 11  1  1  0  0  0
  6  7  1  0  0  0  0
  6  1  1  0  0  0  0
  6 23  1  1  0  0  0
  8 11  1  0  0  0  0
  8 12  1  0  0  0  0
  9 10  1  0  0  0  0
  9 14  1  0  0  0  0
 11  9  2  0  0  0  0
 12 10  1  0  0  0  0
 13 14  1  0  0  0  0
 15 12  1  0  0  0  0
 16 22  1  6  0  0  0
 16 19  1  0  0  0  0
 16 15  1  0  0  0  0
 18 19  1  0  0  0  0
 18 20  1  0  0  0  0
 19 17  1  1  0  0  0
 19 20  1  0  0  0  0
 22 21  1  0  0  0  0
 24 25  2  0  0  0  0
 25 23  1  0  0  0  0
 26 30  1  0  0  0  0
 27 26  2  0  0  0  0
 28 25  1  6  0  0  0
 28 27  1  0  0  0  0
 28 29  1  0  0  0  0
 29 30  1  0  0  0  0
 30 31  2  0  0  0  0
M  END
>  <MODEL>
3

>  <REMARK>
 VINA RESULT:      -6.3      1.759      2.313
  Name = 
  9 active torsions:
  status: ('A' for Active; 'I' for Inactive)
    1  A    between atoms: S_1  and  C_17
    2  A    between atoms: S_1  and  C_24
    3  A    between atoms: C_3  and  C_29
    4  A    between atoms: C_8  and  C_17
    5  A    between atoms: C_12  and  C_14
    6  A    between atoms: C_14  and  C_21
    7  A    between atoms: C_14  and  C_28
    8  A    between atoms: C_18  and  C_20
    9  A    between atoms: N_22  and  C_28
                            x       y       z     vdW  Elec       q    Type
                         _______ _______ _______ _____ _____    ______ ____

>  <TORSDO>
F 9

$$$$
=
 OpenBabel11062420573D

 31 35  0  0  1  0  0  0  0  0999 V2000
  193.3430  176.4580  143.1780 C   0  0  0  0  0  2  0  0  0  0  0  0
  192.2010  175.6480  143.5970 N   0  0  1  0  0  0  0  0  0  0  0  0
  192.6590  174.2690  143.7350 C   0  0  2  0  0  3  0  0  0  0  0  0
  192.0420  175.8230  145.0350 C   0  0  2  0  0  3  0  0  0  0  0  0
  192.5670  174.1550  145.5480 S   0  0  0  0  0  0  0  0  0  0  0  0
  194.5880  175.5960  143.1400 C   0  0  2  0  0  3  0  0  0  0  0  0
  194.0980  174.1770  143.2680 C   0  0  0  0  0  2  0  0  0  0  0  0
  189.4250  175.9120  144.4650 C   0  0  0  0  0  2  0  0  0  0  0  0
  190.1630  176.5240  146.5290 C   0  0  0  0  0  0  0  0  0  0  0  0
  188.7570  176.6320  146.5130 N   0  0  0  0  0  2  0  0  0  0  0  0
  190.6010  176.1020  145.3670 C   0  0  0  0  0  0  0  0  0  0  0  0
  188.2380  176.2660  145.2610 N   0  0  0  0  0  0  0  0  0  0  0  0
  191.1880  175.5800  148.4330 O   0  0  0  0  0  1  0  0  0  0  0  0
  190.9930  176.7750  147.7430 C   0  0  0  0  0  2  0  0  0  0  0  0
  187.6630  177.4680  144.6720 C   0  0  0  0  0  2  0  0  0  0  0  0
  186.1530  177.3180  144.5130 C   0  0  1  0  0  3  0  0  0  0  0  0
  185.3660  179.7900  144.0050 C   0  0  0  0  0  1  0  0  0  0  0  0
  184.3160  178.4990  145.9320 C   0  0  0  0  0  2  0  0  0  0  0  0
  185.4000  178.5930  144.9340 C   0  0  1  0  0  0  0  0  0  0  0  0
  185.6050  178.9730  146.2710 O   0  0  0  0  0  0  0  0  0  0  0  0
  186.7900  177.0950  142.1930 O   0  0  0  0  0  1  0  0  0  0  0  0
  185.7970  176.7810  143.1240 C   0  0  0  0  0  2  0  0  0  0  0  0
  195.6560  176.0160  144.5510 S   0  0  0  0  0  0  0  0  0  0  0  0
  197.4630  175.4450  142.7400 O   0  0  0  0  0  0  0  0  0  0  0  0
  197.0730  175.1630  143.8620 C   0  0  0  0  0  0  0  0  0  0  0  0
  196.8120  172.2320  145.9330 C   0  0  0  0  0  3  0  0  0  0  0  0
  196.9560  173.7520  145.9210 C   0  0  0  0  0  3  0  0  0  0  0  0
  197.7770  174.1210  144.6760 C   0  0  1  0  0  3  0  0  0  0  0  0
  197.9400  172.9020  143.9060 N   0  0  0  0  0  2  0  0  0  0  0  0
  197.3950  171.8280  144.6400 C   0  0  0  0  0  0  0  0  0  0  0  0
  197.4410  170.2860  144.1090 S   0  0  0  0  0  0  0  0  0  0  0  0
  2  1  1  1  0  0  0
  2  3  1  0  0  0  0
  2  4  1  0  0  0  0
  3  7  1  1  0  0  0
  3  5  1  0  0  0  0
  4 11  1  6  0  0  0
  4  5  1  0  0  0  0
  6  1  1  0  0  0  0
  6  7  1  0  0  0  0
  6 23  1  1  0  0  0
  8 12  1  0  0  0  0
  8 11  1  0  0  0  0
  9 14  1  0  0  0  0
 10  9  1  0  0  0  0
 11  9  2  0  0  0  0
 12 10  1  0  0  0  0
 14 13  1  0  0  0  0
 15 12  1  0  0  0  0
 16 22  1  6  0  0  0
 16 15  1  0  0  0  0
 16 19  1  0  0  0  0
 18 20  1  0  0  0  0
 19 17  1  6  0  0  0
 19 18  1  0  0  0  0
 19 20  1  0  0  0  0
 21 22  1  0  0  0  0
 24 25  2  0  0  0  0
 25 23  1  0  0  0  0
 27 26  2  0  0  0  0
 28 25  1  6  0  0  0
 28 27  1  0  0  0  0
 29 30  1  0  0  0  0
 29 28  1  0  0  0  0
 30 26  1  0  0  0  0
 31 30  2  0  0  0  0
M  END
>  <MODEL>
4

>  <REMARK>
 VINA RESULT:      -6.3      3.468      9.482
  Name = 
  9 active torsions:
  status: ('A' for Active; 'I' for Inactive)
    1  A    between atoms: S_1  and  C_17
    2  A    between atoms: S_1  and  C_24
    3  A    between atoms: C_3  and  C_29
    4  A    between atoms: C_8  and  C_17
    5  A    between atoms: C_12  and  C_14
    6  A    between atoms: C_14  and  C_21
    7  A    between atoms: C_14  and  C_28
    8  A    between atoms: C_18  and  C_20
    9  A    between atoms: N_22  and  C_28
                            x       y       z     vdW  Elec       q    Type
                         _______ _______ _______ _____ _____    ______ ____

>  <TORSDO>
F 9

$$$$
=
 OpenBabel11062420573D

 31 35  0  0  1  0  0  0  0  0999 V2000
  189.5380  177.6150  144.6680 C   0  0  0  0  0  2  0  0  0  0  0  0
  190.3270  176.9700  145.7170 N   0  0  1  0  0  0  0  0  0  0  0  0
  189.4650  176.8020  146.8830 C   0  0  2  0  0  3  0  0  0  0  0  0
  190.3530  175.5410  145.4310 C   0  0  2  0  0  3  0  0  0  0  0  0
  189.2960  174.9930  146.8110 S   0  0  0  0  0  0  0  0  0  0  0  0
  188.1080  177.7770  145.1380 C   0  0  2  0  0  3  0  0  0  0  0  0
  188.1330  177.4730  146.6140 C   0  0  0  0  0  2  0  0  0  0  0  0
  192.8160  175.4840  146.4870 C   0  0  0  0  0  2  0  0  0  0  0  0
  192.2540  174.0330  144.8250 C   0  0  0  0  0  0  0  0  0  0  0  0
  193.5820  173.7640  145.2160 N   0  0  0  0  0  2  0  0  0  0  0  0
  191.7600  175.0170  145.5380 C   0  0  0  0  0  0  0  0  0  0  0  0
  193.9910  174.6300  146.2430 N   0  0  0  0  0  0  0  0  0  0  0  0
  190.8310  172.1920  144.4340 O   0  0  0  0  0  1  0  0  0  0  0  0
  191.5180  173.2300  143.8060 C   0  0  0  0  0  2  0  0  0  0  0  0
  195.0370  175.4790  145.6910 C   0  0  0  0  0  2  0  0  0  0  0  0
  195.7560  174.7700  144.5470 C   0  0  1  0  0  3  0  0  0  0  0  0
  196.8330  176.7290  143.1370 C   0  0  0  0  0  1  0  0  0  0  0  0
  195.2330  175.0950  142.0170 C   0  0  0  0  0  2  0  0  0  0  0  0
  195.7980  175.6300  143.2720 C   0  0  1  0  0  0  0  0  0  0  0  0
  194.5360  176.0390  142.8070 O   0  0  0  0  0  0  0  0  0  0  0  0
  197.7250  173.4860  143.9890 O   0  0  0  0  0  1  0  0  0  0  0  0
  197.1090  174.2200  145.0050 C   0  0  0  0  0  2  0  0  0  0  0  0
  187.0490  176.5780  144.2730 S   0  0  0  0  0  0  0  0  0  0  0  0
  184.8710  177.5390  145.3700 O   0  0  0  0  0  0  0  0  0  0  0  0
  185.5970  177.6210  144.3910 C   0  0  0  0  0  0  0  0  0  0  0  0
  185.1230  178.1830  140.8690 C   0  0  0  0  0  3  0  0  0  0  0  0
  186.1070  178.2690  142.0330 C   0  0  0  0  0  3  0  0  0  0  0  0
  185.2930  178.5940  143.2940 C   0  0  1  0  0  3  0  0  0  0  0  0
  183.8940  178.5140  142.9190 N   0  0  0  0  0  2  0  0  0  0  0  0
  183.8090  178.2910  141.5300 C   0  0  0  0  0  0  0  0  0  0  0  0
  182.3860  178.1950  140.7380 S   0  0  0  0  0  0  0  0  0  0  0  0
  1  6  1  0  0  0  0
  2  1  1  6  0  0  0
  2  3  1  0  0  0  0
  3  7  1  6  0  0  0
  4 11  1  1  0  0  0
  4  2  1  0  0  0  0
  4  5  1  0  0  0  0
  5  3  1  0  0  0  0
  6 23  1  6  0  0  0
  6  7  1  0  0  0  0
  9 10  1  0  0  0  0
  9 11  2  0  0  0  0
 10 12  1  0  0  0  0
 11  8  1  0  0  0  0
 12  8  1  0  0  0  0
 14 13  1  0  0  0  0
 14  9  1  0  0  0  0
 15 12  1  0  0  0  0
 16 22  1  1  0  0  0
 16 15  1  0  0  0  0
 18 20  1  0  0  0  0
 18 19  1  0  0  0  0
 19 17  1  6  0  0  0
 19 16  1  0  0  0  0
 20 19  1  0  0  0  0
 21 22  1  0  0  0  0
 23 25  1  0  0  0  0
 25 24  2  0  0  0  0
 26 30  1  0  0  0  0
 26 27  2  0  0  0  0
 27 28  1  0  0  0  0
 28 25  1  1  0  0  0
 29 28  1  0  0  0  0
 30 29  1  0  0  0  0
 31 30  2  0  0  0  0
M  END
>  <MODEL>
5

>  <REMARK>
 VINA RESULT:      -6.3      2.208      3.043
  Name = 
  9 active torsions:
  status: ('A' for Active; 'I' for Inactive)
    1  A    between atoms: S_1  and  C_17
    2  A    between atoms: S_1  and  C_24
    3  A    between atoms: C_3  and  C_29
    4  A    between atoms: C_8  and  C_17
    5  A    between atoms: C_12  and  C_14
    6  A    between atoms: C_14  and  C_21
    7  A    between atoms: C_14  and  C_28
    8  A    between atoms: C_18  and  C_20
    9  A    between atoms: N_22  and  C_28
                            x       y       z     vdW  Elec       q    Type
                         _______ _______ _______ _____ _____    ______ ____

>  <TORSDO>
F 9

$$$$
=
 OpenBabel11062420573D

 31 35  0  0  1  0  0  0  0  0999 V2000
  188.5300  177.2490  144.4520 C   0  0  0  0  0  2  0  0  0  0  0  0
  189.5980  176.5840  145.1970 N   0  0  1  0  0  0  0  0  0  0  0  0
  189.3320  176.7720  146.6200 C   0  0  2  0  0  3  0  0  0  0  0  0
  189.2830  175.1630  145.2450 C   0  0  2  0  0  3  0  0  0  0  0  0
  188.8830  175.0560  147.0190 S   0  0  0  0  0  0  0  0  0  0  0  0
  187.5000  177.7930  145.4200 C   0  0  2  0  0  3  0  0  0  0  0  0
  188.1350  177.6880  146.7830 C   0  0  0  0  0  2  0  0  0  0  0  0
  191.8570  174.4560  145.4820 C   0  0  0  0  0  2  0  0  0  0  0  0
  190.5170  173.3920  143.9800 C   0  0  0  0  0  0  0  0  0  0  0  0
  191.7980  172.8050  143.9220 N   0  0  0  0  0  2  0  0  0  0  0  0
  190.4950  174.3510  144.8760 C   0  0  0  0  0  0  0  0  0  0  0  0
  192.6760  173.4200  144.8290 N   0  0  0  0  0  0  0  0  0  0  0  0
  189.3740  173.4830  141.9180 O   0  0  0  0  0  1  0  0  0  0  0  0
  189.3520  172.9050  143.1870 C   0  0  0  0  0  2  0  0  0  0  0  0
  193.6920  174.1030  144.0400 C   0  0  0  0  0  2  0  0  0  0  0  0
  193.5180  175.6160  144.1350 C   0  0  1  0  0  3  0  0  0  0  0  0
  195.9920  176.5020  143.8540 C   0  0  0  0  0  1  0  0  0  0  0  0
  194.6180  177.2070  145.8780 C   0  0  0  0  0  2  0  0  0  0  0  0
  194.7650  176.3030  144.7200 C   0  0  1  0  0  0  0  0  0  0  0  0
  195.1010  175.8860  146.0190 O   0  0  0  0  0  0  0  0  0  0  0  0
  193.2970  175.3350  141.7450 O   0  0  0  0  0  1  0  0  0  0  0  0
  193.0170  176.1960  142.8100 C   0  0  0  0  0  2  0  0  0  0  0  0
  186.0020  176.7630  145.3500 S   0  0  0  0  0  0  0  0  0  0  0  0
  186.2730  175.8270  142.9160 O   0  0  0  0  0  0  0  0  0  0  0  0
  185.9320  176.8070  143.5600 C   0  0  0  0  0  0  0  0  0  0  0  0
  184.8330  178.3480  140.5000 C   0  0  0  0  0  3  0  0  0  0  0  0
  186.0120  178.1370  141.4460 C   0  0  0  0  0  3  0  0  0  0  0  0
  185.4420  178.0430  142.8690 C   0  0  1  0  0  3  0  0  0  0  0  0
  183.9970  178.0120  142.7400 N   0  0  0  0  0  2  0  0  0  0  0  0
  183.6610  178.1980  141.3830 C   0  0  0  0  0  0  0  0  0  0  0  0
  182.1170  178.2720  140.8600 S   0  0  0  0  0  0  0  0  0  0  0  0
  1  6  1  0  0  0  0
  2  1  1  6  0  0  0
  2  4  1  0  0  0  0
  2  3  1  0  0  0  0
  3  7  1  6  0  0  0
  3  5  1  0  0  0  0
  4 11  1  1  0  0  0
  4  5  1  0  0  0  0
  6 23  1  1  0  0  0
  6  7  1  0  0  0  0
  9 11  2  0  0  0  0
 10  9  1  0  0  0  0
 10 12  1  0  0  0  0
 11  8  1  0  0  0  0
 12  8  1  0  0  0  0
 13 14  1  0  0  0  0
 14  9  1  0  0  0  0
 15 16  1  0  0  0  0
 15 12  1  0  0  0  0
 16 22  1  6  0  0  0
 16 19  1  0  0  0  0
 18 20  1  0  0  0  0
 19 17  1  6  0  0  0
 19 18  1  0  0  0  0
 19 20  1  0  0  0  0
 21 22  1  0  0  0  0
 24 25  2  0  0  0  0
 25 23  1  0  0  0  0
 26 30  1  0  0  0  0
 26 27  2  0  0  0  0
 27 28  1  0  0  0  0
 28 25  1  6  0  0  0
 29 28  1  0  0  0  0
 30 29  1  0  0  0  0
 31 30  2  0  0  0  0
M  END
>  <MODEL>
6

>  <REMARK>
 VINA RESULT:      -6.3      2.192      3.322
  Name = 
  9 active torsions:
  status: ('A' for Active; 'I' for Inactive)
    1  A    between atoms: S_1  and  C_17
    2  A    between atoms: S_1  and  C_24
    3  A    between atoms: C_3  and  C_29
    4  A    between atoms: C_8  and  C_17
    5  A    between atoms: C_12  and  C_14
    6  A    between atoms: C_14  and  C_21
    7  A    between atoms: C_14  and  C_28
    8  A    between atoms: C_18  and  C_20
    9  A    between atoms: N_22  and  C_28
                            x       y       z     vdW  Elec       q    Type
                         _______ _______ _______ _____ _____    ______ ____

>  <TORSDO>
F 9

$$$$
=
 OpenBabel11062420573D

 31 35  0  0  1  0  0  0  0  0999 V2000
  191.6030  174.1510  145.0630 C   0  0  0  0  0  2  0  0  0  0  0  0
  190.6490  175.2590  145.0490 N   0  0  1  0  0  0  0  0  0  0  0  0
  191.3050  176.4190  145.6460 C   0  0  2  0  0  3  0  0  0  0  0  0
  190.6660  175.8380  143.7120 C   0  0  2  0  0  3  0  0  0  0  0  0
  191.4780  177.4140  144.1340 S   0  0  0  0  0  0  0  0  0  0  0  0
  192.9360  174.6380  145.5920 C   0  0  2  0  0  3  0  0  0  0  0  0
  192.6650  176.0030  146.1690 C   0  0  0  0  0  2  0  0  0  0  0  0
  188.3340  177.1490  143.5570 C   0  0  0  0  0  2  0  0  0  0  0  0
  188.6510  175.2420  142.3550 C   0  0  0  0  0  0  0  0  0  0  0  0
  187.3640  175.7380  142.0630 N   0  0  0  0  0  2  0  0  0  0  0  0
  189.2600  176.0270  143.2110 C   0  0  0  0  0  0  0  0  0  0  0  0
  187.1060  176.9190  142.7770 N   0  0  0  0  0  0  0  0  0  0  0  0
  189.0760  172.9260  142.5180 O   0  0  0  0  0  1  0  0  0  0  0  0
  189.2390  174.0400  141.6950 C   0  0  0  0  0  2  0  0  0  0  0  0
  186.0400  176.6190  143.7230 C   0  0  0  0  0  2  0  0  0  0  0  0
  184.8960  177.6190  143.5770 C   0  0  1  0  0  3  0  0  0  0  0  0
  185.5520  180.0970  144.2220 C   0  0  0  0  0  1  0  0  0  0  0  0
  184.0840  178.7290  145.7880 C   0  0  0  0  0  2  0  0  0  0  0  0
  184.9840  178.7490  144.6180 C   0  0  1  0  0  0  0  0  0  0  0  0
  185.4390  178.3400  145.8830 O   0  0  0  0  0  0  0  0  0  0  0  0
  183.4090  178.2530  141.7820 O   0  0  0  0  0  1  0  0  0  0  0  0
  184.7520  178.0810  142.1250 C   0  0  0  0  0  2  0  0  0  0  0  0
  194.1210  174.7670  144.2180 S   0  0  0  0  0  0  0  0  0  0  0  0
  195.8920  174.5820  146.1410 O   0  0  0  0  0  0  0  0  0  0  0  0
  195.4480  174.0130  145.1560 C   0  0  0  0  0  0  0  0  0  0  0  0
  196.2770  170.6330  146.0720 C   0  0  0  0  0  3  0  0  0  0  0  0
  196.8170  172.0450  145.8590 C   0  0  0  0  0  3  0  0  0  0  0  0
  195.9920  172.6830  144.7320 C   0  0  1  0  0  3  0  0  0  0  0  0
  194.9090  171.7650  144.4350 N   0  0  0  0  0  2  0  0  0  0  0  0
  195.0890  170.5920  145.1980 C   0  0  0  0  0  0  0  0  0  0  0  0
  194.0870  169.3080  145.0900 S   0  0  0  0  0  0  0  0  0  0  0  0
  1  6  1  0  0  0  0
  2  1  1  6  0  0  0
  2  3  1  0  0  0  0
  3  7  1  6  0  0  0
  4 11  1  1  0  0  0
  4  5  1  0  0  0  0
  4  2  1  0  0  0  0
  5  3  1  0  0  0  0
  6 23  1  6  0  0  0
  6  7  1  0  0  0  0
  9 11  2  0  0  0  0
 10  9  1  0  0  0  0
 10 12  1  0  0  0  0
 11  8  1  0  0  0  0
 12  8  1  0  0  0  0
 12 15  1  0  0  0  0
 14  9  1  0  0  0  0
 14 13  1  0  0  0  0
 16 22  1  6  0  0  0
 16 15  1  0  0  0  0
 16 19  1  0  0  0  0
 18 20  1  0  0  0  0
 19 17  1  6  0  0  0
 19 18  1  0  0  0  0
 19 20  1  0  0  0  0
 21 22  1  0  0  0  0
 23 25  1  0  0  0  0
 25 24  2  0  0  0  0
 27 26  2  0  0  0  0
 28 25  1  1  0  0  0
 28 27  1  0  0  0  0
 29 28  1  0  0  0  0
 29 30  1  0  0  0  0
 30 26  1  0  0  0  0
 31 30  2  0  0  0  0
M  END
>  <MODEL>
7

>  <REMARK>
 VINA RESULT:      -6.2      2.742      9.375
  Name = 
  9 active torsions:
  status: ('A' for Active; 'I' for Inactive)
    1  A    between atoms: S_1  and  C_17
    2  A    between atoms: S_1  and  C_24
    3  A    between atoms: C_3  and  C_29
    4  A    between atoms: C_8  and  C_17
    5  A    between atoms: C_12  and  C_14
    6  A    between atoms: C_14  and  C_21
    7  A    between atoms: C_14  and  C_28
    8  A    between atoms: C_18  and  C_20
    9  A    between atoms: N_22  and  C_28
                            x       y       z     vdW  Elec       q    Type
                         _______ _______ _______ _____ _____    ______ ____

>  <TORSDO>
F 9

$$$$
=
 OpenBabel11062420573D

 31 35  0  0  1  0  0  0  0  0999 V2000
  191.9370  174.6440  144.6540 C   0  0  0  0  0  2  0  0  0  0  0  0
  190.9010  175.6750  144.6210 N   0  0  1  0  0  0  0  0  0  0  0  0
  191.5540  176.9680  144.7990 C   0  0  2  0  0  3  0  0  0  0  0  0
  190.5850  175.9370  143.2230 C   0  0  2  0  0  3  0  0  0  0  0  0
  191.3150  177.6040  143.1130 S   0  0  0  0  0  0  0  0  0  0  0  0
  193.2990  175.2980  144.7570 C   0  0  2  0  0  3  0  0  0  0  0  0
  193.0260  176.7440  145.0810 C   0  0  0  0  0  2  0  0  0  0  0  0
  188.1510  177.0490  143.3750 C   0  0  0  0  0  2  0  0  0  0  0  0
  188.4040  174.9800  142.4600 C   0  0  0  0  0  0  0  0  0  0  0  0
  187.0410  175.3330  142.3820 N   0  0  0  0  0  2  0  0  0  0  0  0
  189.0940  175.9440  143.0210 C   0  0  0  0  0  0  0  0  0  0  0  0
  186.8190  176.6060  142.9330 N   0  0  0  0  0  0  0  0  0  0  0  0
  189.0720  172.7600  142.8980 O   0  0  0  0  0  1  0  0  0  0  0  0
  188.9610  173.7180  141.8920 C   0  0  0  0  0  2  0  0  0  0  0  0
  186.0060  176.4150  144.1260 C   0  0  0  0  0  2  0  0  0  0  0  0
  186.2300  177.5570  145.1150 C   0  0  1  0  0  3  0  0  0  0  0  0
  184.0630  178.6670  146.1450 C   0  0  0  0  0  1  0  0  0  0  0  0
  185.3090  179.8370  144.2580 C   0  0  0  0  0  2  0  0  0  0  0  0
  185.1050  178.6060  145.0460 C   0  0  1  0  0  0  0  0  0  0  0  0
  184.5330  178.7600  143.7720 O   0  0  0  0  0  0  0  0  0  0  0  0
  187.8640  177.2580  146.8690 O   0  0  0  0  0  1  0  0  0  0  0  0
  186.5330  177.0200  146.5150 C   0  0  0  0  0  2  0  0  0  0  0  0
  194.1550  175.1680  143.1580 S   0  0  0  0  0  0  0  0  0  0  0  0
  196.2610  176.2550  144.2780 O   0  0  0  0  0  0  0  0  0  0  0  0
  195.7810  175.1940  143.9100 C   0  0  0  0  0  0  0  0  0  0  0  0
  196.8130  172.5650  146.1380 C   0  0  0  0  0  3  0  0  0  0  0  0
  197.2220  173.8720  145.4640 C   0  0  0  0  0  3  0  0  0  0  0  0
  196.5320  173.9120  144.0920 C   0  0  1  0  0  3  0  0  0  0  0  0
  195.6230  172.7820  144.0490 N   0  0  0  0  0  2  0  0  0  0  0  0
  195.8010  172.0130  145.2180 C   0  0  0  0  0  0  0  0  0  0  0  0
  194.9810  170.6300  145.4960 S   0  0  0  0  0  0  0  0  0  0  0  0
  1  6  1  0  0  0  0
  2  1  1  6  0  0  0
  2  3  1  0  0  0  0
  3  7  1  6  0  0  0
  4 11  1  1  0  0  0
  4  2  1  0  0  0  0
  5  4  1  0  0  0  0
  5  3  1  0  0  0  0
  6 23  1  6  0  0  0
  6  7  1  0  0  0  0
  9 11  2  0  0  0  0
 10  9  1  0  0  0  0
 10 12  1  0  0  0  0
 11  8  1  0  0  0  0
 12  8  1  0  0  0  0
 12 15  1  0  0  0  0
 14  9  1  0  0  0  0
 14 13  1  0  0  0  0
 16 15  1  6  0  0  0
 16 22  1  0  0  0  0
 18 19  1  0  0  0  0
 19 16  1  0  0  0  0
 19 17  1  1  0  0  0
 20 18  1  0  0  0  0
 20 19  1  0  0  0  0
 22 21  1  0  0  0  0
 23 25  1  0  0  0  0
 25 24  2  0  0  0  0
 27 26  2  0  0  0  0
 28 25  1  1  0  0  0
 28 27  1  0  0  0  0
 29 28  1  0  0  0  0
 29 30  1  0  0  0  0
 30 31  2  0  0  0  0
 30 26  1  0  0  0  0
M  END
>  <MODEL>
8

>  <REMARK>
 VINA RESULT:      -6.2      2.721      8.856
  Name = 
  9 active torsions:
  status: ('A' for Active; 'I' for Inactive)
    1  A    between atoms: S_1  and  C_17
    2  A    between atoms: S_1  and  C_24
    3  A    between atoms: C_3  and  C_29
    4  A    between atoms: C_8  and  C_17
    5  A    between atoms: C_12  and  C_14
    6  A    between atoms: C_14  and  C_21
    7  A    between atoms: C_14  and  C_28
    8  A    between atoms: C_18  and  C_20
    9  A    between atoms: N_22  and  C_28
                            x       y       z     vdW  Elec       q    Type
                         _______ _______ _______ _____ _____    ______ ____

>  <TORSDO>
F 9

$$$$
=
 OpenBabel11062420573D

 31 35  0  0  1  0  0  0  0  0999 V2000
  185.9640  176.5180  143.2550 C   0  0  0  0  0  2  0  0  0  0  0  0
  187.2120  175.9900  142.7050 N   0  0  1  0  0  0  0  0  0  0  0  0
  187.6370  176.8810  141.6310 C   0  0  2  0  0  3  0  0  0  0  0  0
  188.2930  176.4080  143.5880 C   0  0  2  0  0  3  0  0  0  0  0  0
  189.0800  177.6080  142.4650 S   0  0  0  0  0  0  0  0  0  0  0  0
  185.6310  177.8340  142.5820 C   0  0  2  0  0  3  0  0  0  0  0  0
  186.5680  177.9300  141.4050 C   0  0  0  0  0  2  0  0  0  0  0  0
  189.8920  174.3640  142.9180 C   0  0  0  0  0  2  0  0  0  0  0  0
  189.5080  174.8390  145.1110 C   0  0  0  0  0  0  0  0  0  0  0  0
  190.4020  173.7510  145.0450 N   0  0  0  0  0  2  0  0  0  0  0  0
  189.1860  175.2390  143.9040 C   0  0  0  0  0  0  0  0  0  0  0  0
  190.6800  173.4070  143.7120 N   0  0  0  0  0  0  0  0  0  0  0  0
  188.9440  174.5040  147.3780 O   0  0  0  0  0  1  0  0  0  0  0  0
  189.0820  175.4780  146.3900 C   0  0  0  0  0  2  0  0  0  0  0  0
  190.1130  172.0850  143.4880 C   0  0  0  0  0  2  0  0  0  0  0  0
  191.1690  171.1370  142.9250 C   0  0  1  0  0  3  0  0  0  0  0  0
  192.4920  172.1760  140.8860 C   0  0  0  0  0  1  0  0  0  0  0  0
  190.8130  170.3040  140.4840 C   0  0  0  0  0  2  0  0  0  0  0  0
  191.3560  171.3190  141.4080 C   0  0  1  0  0  0  0  0  0  0  0  0
  190.1630  171.5410  140.6990 O   0  0  0  0  0  0  0  0  0  0  0  0
  192.7840  169.9370  144.2630 O   0  0  0  0  0  1  0  0  0  0  0  0
  192.4550  171.1950  143.7510 C   0  0  0  0  0  2  0  0  0  0  0  0
  185.9440  179.2010  143.7410 S   0  0  0  0  0  0  0  0  0  0  0  0
  183.3400  179.0410  143.9910 O   0  0  0  0  0  0  0  0  0  0  0  0
  184.3930  178.9590  144.6040 C   0  0  0  0  0  0  0  0  0  0  0  0
  185.8800  177.1120  147.3100 C   0  0  0  0  0  3  0  0  0  0  0  0
  184.7280  177.1640  146.3090 C   0  0  0  0  0  3  0  0  0  0  0  0
  184.4020  178.6460  146.0680 C   0  0  1  0  0  3  0  0  0  0  0  0
  185.4280  179.4160  146.7450 N   0  0  0  0  0  2  0  0  0  0  0  0
  186.2600  178.5290  147.4600 C   0  0  0  0  0  0  0  0  0  0  0  0
  187.5010  179.0410  148.3870 S   0  0  0  0  0  0  0  0  0  0  0  0
  2  1  1  1  0  0  0
  2  4  1  0  0  0  0
  3  7  1  1  0  0  0
  3  5  1  0  0  0  0
  3  2  1  0  0  0  0
  4 11  1  6  0  0  0
  5  4  1  0  0  0  0
  6  1  1  0  0  0  0
  6 23  1  1  0  0  0
  7  6  1  0  0  0  0
  8 12  1  0  0  0  0
  8 11  1  0  0  0  0
  9 14  1  0  0  0  0
 10  9  1  0  0  0  0
 11  9  2  0  0  0  0
 12 10  1  0  0  0  0
 14 13  1  0  0  0  0
 15 12  1  0  0  0  0
 16 15  1  1  0  0  0
 16 22  1  0  0  0  0
 18 20  1  0  0  0  0
 18 19  1  0  0  0  0
 19 17  1  6  0  0  0
 19 16  1  0  0  0  0
 20 19  1  0  0  0  0
 22 21  1  0  0  0  0
 23 25  1  0  0  0  0
 24 25  2  0  0  0  0
 26 30  1  0  0  0  0
 27 26  2  0  0  0  0
 28 25  1  6  0  0  0
 28 27  1  0  0  0  0
 28 29  1  0  0  0  0
 29 30  1  0  0  0  0
 30 31  2  0  0  0  0
M  END
>  <MODEL>
9

>  <REMARK>
 VINA RESULT:      -6.1      3.330      4.072
  Name = 
  9 active torsions:
  status: ('A' for Active; 'I' for Inactive)
    1  A    between atoms: S_1  and  C_17
    2  A    between atoms: S_1  and  C_24
    3  A    between atoms: C_3  and  C_29
    4  A    between atoms: C_8  and  C_17
    5  A    between atoms: C_12  and  C_14
    6  A    between atoms: C_14  and  C_21
    7  A    between atoms: C_14  and  C_28
    8  A    between atoms: C_18  and  C_20
    9  A    between atoms: N_22  and  C_28
                            x       y       z     vdW  Elec       q    Type
                         _______ _______ _______ _____ _____    ______ ____

>  <TORSDO>
F 9

$$$$
