=
 OpenBabel11062422483D

 67 72  0  0  1  0  0  0  0  0999 V2000
  186.0090  176.8650  144.0590 C   0  0  1  0  0  3  0  0  0  0  0  0
  186.6570  178.9470  142.9610 F   0  0  0  0  0  0  0  0  0  0  0  0
  185.9750  178.4050  144.0420 C   0  0  1  0  0  3  0  0  0  0  0  0
  184.5620  178.9740  144.1530 C   0  0  0  0  0  0  0  0  0  0  0  0
  183.8190  178.6020  143.0460 F   0  0  0  0  0  0  0  0  0  0  0  0
  184.5930  180.3540  144.2380 F   0  0  0  0  0  0  0  0  0  0  0  0
  183.9560  178.4740  145.2890 F   0  0  0  0  0  0  0  0  0  0  0  0
  186.3850  176.2670  142.7070 C   0  0  0  0  0  2  0  0  0  0  0  0
  187.4930  175.3400  142.8330 N   0  0  0  0  0  2  0  0  0  0  0  0
  187.6390  174.7050  141.5330 C   0  0  0  0  0  2  0  0  0  0  0  0
  189.0440  174.6490  141.1600 N   0  0  0  0  0  2  0  0  0  0  0  0
  189.3040  173.3870  140.4660 C   0  0  1  0  0  3  0  0  0  0  0  0
  189.5340  173.6020  138.9990 C   0  0  0  0  0  0  0  0  0  0  0  0
  190.0280  174.0060  136.2610 C   0  0  0  0  0  0  0  0  0  0  0  0
  190.8040  173.3550  138.4690 C   0  0  0  0  0  3  0  0  0  0  0  0
  190.1910  174.2450  134.5250 Cl  0  0  0  0  0  0  0  0  0  0  0  0
  188.5120  174.0560  138.1590 C   0  0  0  0  0  3  0  0  0  0  0  0
  188.7600  174.2500  136.8000 C   0  0  0  0  0  3  0  0  0  0  0  0
  191.0760  173.5540  137.1100 C   0  0  0  0  0  0  0  0  0  0  0  0
  193.1600  174.0500  135.9920 C   0  0  0  0  0  0  0  0  0  0  0  0
  193.8910  174.8030  135.3330 O   0  0  0  0  0  0  0  0  0  0  0  0
  192.4170  173.2730  136.6740 N   0  0  0  0  0  0  0  0  0  0  0  0
  191.1060  173.4320  142.0790 O   0  0  0  0  0  1  0  0  0  0  0  0
  190.4850  172.6460  141.1010 C   0  0  1  0  0  3  0  0  0  0  0  0
  190.0510  171.2970  141.6660 C   0  0  2  0  0  3  0  0  0  0  0  0
  189.8630  171.3730  143.0490 O   0  0  0  0  0  1  0  0  0  0  0  0
  190.5620  168.7120  140.9640 O   0  0  0  0  0  1  0  0  0  0  0  0
  191.2800  170.0060  141.2760 P   0  0  1  0  0  0  0  0  0  0  0  0
  192.1680  170.4790  139.9160 O   0  0  0  0  0  0  0  0  0  0  0  0
  192.3770  169.7410  142.6240 N   0  0  0  0  0  0  0  0  0  0  0  0
  193.2820  168.6640  142.2560 C   0  0  0  0  0  1  0  0  0  0  0  0
  193.1880  170.9420  142.7800 C   0  0  0  0  0  2  0  0  0  0  0  0
  194.9580  170.9730  144.3170 C   0  0  0  0  0  1  0  0  0  0  0  0
  194.5840  170.5780  142.9660 N   0  0  0  0  0  2  0  0  0  0  0  0
  186.9510  176.4420  145.0000 O   0  0  0  0  0  0  0  0  0  0  0  0
  188.2570  178.4980  147.8270 C   0  0  0  0  0  1  0  0  0  0  0  0
  186.7190  176.5260  147.3720 C   0  0  0  0  0  2  0  0  0  0  0  0
  186.8340  177.3270  146.0790 C   0  0  1  0  0  3  0  0  0  0  0  0
  188.0190  177.2240  147.0350 C   0  0  1  0  0  0  0  0  0  0  0  0
  190.3050  176.5740  147.5220 F   0  0  0  0  0  0  0  0  0  0  0  0
  188.8400  174.9880  146.8390 O   0  0  0  0  0  1  0  0  0  0  0  0
  189.2280  176.3230  146.6850 C   0  0  1  0  0  0  0  0  0  0  0  0
  191.5710  177.7880  143.0300 C   0  0  0  0  0  1  0  0  0  0  0  0
  192.4720  176.5530  145.0440 C   0  0  2  0  0  0  0  0  0  0  0  0
  191.6580  177.7500  144.5490 C   0  0  2  0  0  3  0  0  0  0  0  0
  190.3440  175.3400  144.5700 C   0  0  0  0  0  2  0  0  0  0  0  0
  190.3660  177.8220  145.1300 O   0  0  0  0  0  0  0  0  0  0  0  0
  191.8010  175.1740  144.9860 C   0  0  2  0  0  3  0  0  0  0  0  0
  191.8750  174.4990  146.2080 O   0  0  0  0  0  1  0  0  0  0  0  0
  189.6750  176.5740  145.2320 C   0  0  2  0  0  3  0  0  0  0  0  0
  193.3220  176.8630  146.2610 C   0  0  0  0  0  2  0  0  0  0  0  0
  193.9910  176.6690  144.9040 C   0  0  1  0  0  3  0  0  0  0  0  0
  194.6960  175.3180  144.9000 C   0  0  0  0  0  2  0  0  0  0  0  0
  197.2360  173.9170  141.6720 O   0  0  0  0  0  1  0  0  0  0  0  0
  195.8190  173.2960  138.7360 O   0  0  0  0  0  1  0  0  0  0  0  0
  195.9600  174.4310  141.3850 C   0  0  1  0  0  0  0  0  0  0  0  0
  194.3270  175.3190  139.0450 O   0  0  0  0  0  1  0  0  0  0  0  0
  196.0630  176.5010  143.3050 O   0  0  0  0  0  0  0  0  0  0  0  0
  196.8230  176.4480  142.1020 C   0  0  0  0  0  2  0  0  0  0  0  0
  194.9920  174.3350  142.5600 C   0  0  1  0  0  3  0  0  0  0  0  0
  195.6310  175.1950  143.7090 C   0  0  2  0  0  3  0  0  0  0  0  0
  193.7070  174.7880  142.2280 O   0  0  0  0  0  1  0  0  0  0  0  0
  195.8910  175.8790  141.0500 C   0  0  1  0  0  3  0  0  0  0  0  0
  195.8270  174.7550  139.5910 P   0  0  0  0  0  0  0  0  0  0  0  0
  197.1890  175.4340  138.8340 O   0  0  0  0  0  0  0  0  0  0  0  0
  197.8960  174.3370  136.9660 O   0  0  0  0  0  1  0  0  0  0  0  0
  197.9400  174.3570  138.3580 C   0  0  0  0  0  2  0  0  0  0  0  0
  1  8  1  6  0  0  0
  1 35  1  0  0  0  0
  3  2  1  6  0  0  0
  3  1  1  0  0  0  0
  3  4  1  0  0  0  0
  4  6  1  0  0  0  0
  4  7  1  0  0  0  0
  5  4  1  0  0  0  0
  8  9  1  0  0  0  0
 10  9  1  0  0  0  0
 11 10  1  0  0  0  0
 12 24  1  0  0  0  0
 12 11  1  1  0  0  0
 13 12  1  0  0  0  0
 14 18  2  0  0  0  0
 14 19  1  0  0  0  0
 15 13  1  0  0  0  0
 16 14  1  0  0  0  0
 17 13  2  0  0  0  0
 18 17  1  0  0  0  0
 19 15  2  0  0  0  0
 20 22  2  0  0  0  0
 21 20  2  0  0  0  0
 22 19  1  0  0  0  0
 24 25  1  0  0  0  0
 24 23  1  1  0  0  0
 25 26  1  1  0  0  0
 27 28  1  0  0  0  0
 28 29  2  6  0  0  0
 28 25  1  0  0  0  0
 28 30  1  0  0  0  0
 30 32  1  0  0  0  0
 31 30  1  0  0  0  0
 32 34  1  0  0  0  0
 34 33  1  0  0  0  0
 38 35  1  6  0  0  0
 38 39  1  0  0  0  0
 38 37  1  0  0  0  0
 39 37  1  0  0  0  0
 39 36  1  1  0  0  0
 42 41  1  1  0  0  0
 42 39  1  0  0  0  0
 42 40  1  0  0  0  0
 44 51  1  1  0  0  0
 45 43  1  6  0  0  0
 45 44  1  0  0  0  0
 45 47  1  0  0  0  0
 46 48  1  0  0  0  0
 46 50  1  0  0  0  0
 47 50  1  0  0  0  0
 48 44  1  0  0  0  0
 48 49  1  1  0  0  0
 50 42  1  1  0  0  0
 52 53  1  1  0  0  0
 52 44  1  0  0  0  0
 52 51  1  0  0  0  0
 55 64  1  0  0  0  0
 56 54  1  1  0  0  0
 56 60  1  0  0  0  0
 57 64  1  0  0  0  0
 58 61  1  0  0  0  0
 59 58  1  0  0  0  0
 60 62  1  6  0  0  0
 60 61  1  0  0  0  0
 61 53  1  1  0  0  0
 63 56  1  0  0  0  0
 63 59  1  6  0  0  0
 64 63  1  0  0  0  0
 64 56  1  0  0  0  0
 65 64  1  0  0  0  0
 66 67  1  0  0  0  0
 67 65  1  0  0  0  0
M  END
>  <MODEL>
1

>  <REMARK>
 VINA RESULT:      -6.5      0.000      0.000
  Name = 
  23 active torsions:
  status: ('A' for Active; 'I' for Inactive)
    1  A    between atoms: C_4  and  P_37
    2  A    between atoms: C_4  and  C_57
    3  A    between atoms: C_8  and  C_21
    4  A    between atoms: O_10  and  C_49
    5  A    between atoms: O_10  and  P_58
    6  A    between atoms: N_11  and  C_19
    7  A    between atoms: C_19  and  N_43
    8  A    between atoms: C_20  and  C_28
    9  A    between atoms: C_20  and  C_55
   10  A    between atoms: C_21  and  C_57
   11  A    between atoms: C_21  and  N_59
   12  A    between atoms: C_29  and  C_45
   13  A    between atoms: O_34  and  C_40
   14  A    between atoms: O_34  and  C_55
   15  A    between atoms: P_37  and  N_43
   16  A    between atoms: C_41  and  C_61
   17  A    between atoms: C_45  and  C_60
   18  A    between atoms: N_46  and  C_67
   19  A    between atoms: N_47  and  C_50
   20  A    between atoms: N_47  and  C_54
   21  A    between atoms: C_50  and  C_55
   22  A    between atoms: C_54  and  N_59
   23  A    between atoms: C_61  and  C_66
                            x       y       z     vdW  Elec       q    Type
                         _______ _______ _______ _____ _____    ______ ____

>  <TORSDO>
F 23

$$$$
=
 OpenBabel11062422483D

 67 72  0  0  1  0  0  0  0  0999 V2000
  186.7340  176.6160  143.6610 C   0  0  1  0  0  3  0  0  0  0  0  0
  187.6440  178.8490  143.2800 F   0  0  0  0  0  0  0  0  0  0  0  0
  186.6000  178.1390  143.8550 C   0  0  1  0  0  3  0  0  0  0  0  0
  185.2430  178.6820  143.4110 C   0  0  0  0  0  0  0  0  0  0  0  0
  185.2950  179.0310  142.0720 F   0  0  0  0  0  0  0  0  0  0  0  0
  184.8890  179.7910  144.1570 F   0  0  0  0  0  0  0  0  0  0  0  0
  184.2810  177.7060  143.5830 F   0  0  0  0  0  0  0  0  0  0  0  0
  187.5370  176.2480  142.4170 C   0  0  0  0  0  2  0  0  0  0  0  0
  187.8100  174.8240  142.3720 N   0  0  0  0  0  2  0  0  0  0  0  0
  188.4580  174.5770  141.0940 C   0  0  0  0  0  2  0  0  0  0  0  0
  189.7670  173.9770  141.3060 N   0  0  0  0  0  2  0  0  0  0  0  0
  189.8300  172.7040  140.5880 C   0  0  1  0  0  3  0  0  0  0  0  0
  190.0000  172.9110  139.1110 C   0  0  0  0  0  0  0  0  0  0  0  0
  190.3530  173.3500  136.3570 C   0  0  0  0  0  0  0  0  0  0  0  0
  191.0460  173.7180  138.6560 C   0  0  0  0  0  3  0  0  0  0  0  0
  190.4970  173.5000  134.6090 Cl  0  0  0  0  0  0  0  0  0  0  0  0
  189.1270  172.3270  138.1880 C   0  0  0  0  0  3  0  0  0  0  0  0
  189.3090  172.5430  136.8220 C   0  0  0  0  0  3  0  0  0  0  0  0
  191.2390  173.9570  137.2900 C   0  0  0  0  0  0  0  0  0  0  0  0
  192.3620  175.6480  135.9800 C   0  0  0  0  0  0  0  0  0  0  0  0
  192.3850  176.4740  135.0560 O   0  0  0  0  0  0  0  0  0  0  0  0
  192.3440  174.8070  136.9340 N   0  0  0  0  0  0  0  0  0  0  0  0
  190.6580  171.4030  142.4520 O   0  0  0  0  0  1  0  0  0  0  0  0
  190.9470  171.8150  141.1450 C   0  0  1  0  0  3  0  0  0  0  0  0
  191.2120  170.6210  140.2320 C   0  0  2  0  0  3  0  0  0  0  0  0
  190.8540  169.4250  140.8600 O   0  0  0  0  0  1  0  0  0  0  0  0
  193.7160  171.6840  140.4210 O   0  0  0  0  0  1  0  0  0  0  0  0
  192.9660  170.5630  139.7360 P   0  0  1  0  0  0  0  0  0  0  0  0
  193.6310  169.0850  140.2210 O   0  0  0  0  0  0  0  0  0  0  0  0
  193.1430  170.7370  137.9960 N   0  0  0  0  0  0  0  0  0  0  0  0
  194.2910  169.9460  137.5830 C   0  0  0  0  0  1  0  0  0  0  0  0
  191.9710  170.1430  137.3680 C   0  0  0  0  0  2  0  0  0  0  0  0
  191.7140  168.1830  136.1070 C   0  0  0  0  0  1  0  0  0  0  0  0
  192.3490  169.4930  136.1220 N   0  0  0  0  0  2  0  0  0  0  0  0
  187.3790  176.0710  144.7730 O   0  0  0  0  0  0  0  0  0  0  0  0
  188.4430  178.2620  147.6010 C   0  0  0  0  0  1  0  0  0  0  0  0
  187.0190  176.2110  147.1270 C   0  0  0  0  0  2  0  0  0  0  0  0
  187.1660  176.9800  145.8180 C   0  0  1  0  0  3  0  0  0  0  0  0
  188.3030  176.9570  146.8370 C   0  0  1  0  0  0  0  0  0  0  0  0
  190.6160  176.4870  147.3990 F   0  0  0  0  0  0  0  0  0  0  0  0
  189.2550  174.7660  146.8420 O   0  0  0  0  0  1  0  0  0  0  0  0
  189.5670  176.1030  146.5760 C   0  0  1  0  0  0  0  0  0  0  0  0
  191.9180  177.3230  142.8380 C   0  0  0  0  0  1  0  0  0  0  0  0
  192.8170  176.2370  144.9370 C   0  0  2  0  0  0  0  0  0  0  0  0
  191.9990  177.3920  144.3560 C   0  0  2  0  0  3  0  0  0  0  0  0
  190.6980  174.9810  144.5400 C   0  0  0  0  0  2  0  0  0  0  0  0
  190.7030  177.4960  144.9250 O   0  0  0  0  0  0  0  0  0  0  0  0
  192.1540  174.8530  144.9720 C   0  0  2  0  0  3  0  0  0  0  0  0
  192.2260  174.2650  146.2390 O   0  0  0  0  0  1  0  0  0  0  0  0
  190.0190  176.2540  145.1110 C   0  0  2  0  0  3  0  0  0  0  0  0
  193.6600  176.6360  146.1320 C   0  0  0  0  0  2  0  0  0  0  0  0
  194.3360  176.3520  144.7950 C   0  0  1  0  0  3  0  0  0  0  0  0
  195.0480  175.0080  144.8880 C   0  0  0  0  0  2  0  0  0  0  0  0
  197.7390  173.4890  141.8420 O   0  0  0  0  0  1  0  0  0  0  0  0
  196.4810  172.8320  138.8420 O   0  0  0  0  0  1  0  0  0  0  0  0
  196.4930  174.0220  141.4710 C   0  0  1  0  0  0  0  0  0  0  0  0
  195.0160  174.8900  139.0230 O   0  0  0  0  0  1  0  0  0  0  0  0
  196.5280  176.1290  143.3510 O   0  0  0  0  0  0  0  0  0  0  0  0
  197.3550  176.0360  142.1960 C   0  0  0  0  0  2  0  0  0  0  0  0
  195.4580  173.9700  142.5900 C   0  0  1  0  0  3  0  0  0  0  0  0
  196.0480  174.8420  143.7550 C   0  0  2  0  0  3  0  0  0  0  0  0
  194.2030  174.4400  142.1740 O   0  0  0  0  0  1  0  0  0  0  0  0
  196.4730  175.4630  141.1030 C   0  0  1  0  0  3  0  0  0  0  0  0
  196.4700  174.3100  139.6660 P   0  0  0  0  0  0  0  0  0  0  0  0
  197.8870  174.9450  138.9750 O   0  0  0  0  0  0  0  0  0  0  0  0
  197.5430  173.9760  136.9420 O   0  0  0  0  0  1  0  0  0  0  0  0
  197.5850  175.1850  137.6320 C   0  0  0  0  0  2  0  0  0  0  0  0
  1  8  1  6  0  0  0
  1  3  1  0  0  0  0
  1 35  1  0  0  0  0
  3  2  1  6  0  0  0
  4  7  1  0  0  0  0
  4  3  1  0  0  0  0
  4  6  1  0  0  0  0
  5  4  1  0  0  0  0
  9  8  1  0  0  0  0
 10 11  1  0  0  0  0
 10  9  1  0  0  0  0
 12 24  1  0  0  0  0
 12 11  1  1  0  0  0
 13 12  1  0  0  0  0
 14 18  2  0  0  0  0
 14 19  1  0  0  0  0
 15 13  1  0  0  0  0
 16 14  1  0  0  0  0
 17 13  2  0  0  0  0
 18 17  1  0  0  0  0
 19 15  2  0  0  0  0
 20 22  2  0  0  0  0
 21 20  2  0  0  0  0
 22 19  1  0  0  0  0
 24 23  1  1  0  0  0
 25 26  1  1  0  0  0
 25 24  1  0  0  0  0
 28 29  2  1  0  0  0
 28 25  1  0  0  0  0
 28 27  1  0  0  0  0
 30 28  1  0  0  0  0
 31 30  1  0  0  0  0
 32 30  1  0  0  0  0
 33 34  1  0  0  0  0
 34 32  1  0  0  0  0
 38 35  1  6  0  0  0
 38 39  1  0  0  0  0
 38 37  1  0  0  0  0
 39 37  1  0  0  0  0
 39 36  1  1  0  0  0
 42 39  1  0  0  0  0
 42 41  1  1  0  0  0
 42 40  1  0  0  0  0
 44 48  1  0  0  0  0
 44 51  1  1  0  0  0
 45 43  1  6  0  0  0
 45 47  1  0  0  0  0
 45 44  1  0  0  0  0
 46 48  1  0  0  0  0
 46 50  1  0  0  0  0
 47 50  1  0  0  0  0
 48 49  1  1  0  0  0
 50 42  1  1  0  0  0
 52 53  1  1  0  0  0
 52 44  1  0  0  0  0
 52 51  1  0  0  0  0
 55 64  1  0  0  0  0
 56 54  1  1  0  0  0
 56 60  1  0  0  0  0
 57 64  1  0  0  0  0
 58 61  1  0  0  0  0
 59 58  1  0  0  0  0
 60 62  1  6  0  0  0
 60 61  1  0  0  0  0
 61 53  1  1  0  0  0
 63 56  1  0  0  0  0
 63 59  1  6  0  0  0
 64 63  1  0  0  0  0
 64 56  1  0  0  0  0
 65 64  1  0  0  0  0
 66 67  1  0  0  0  0
 67 65  1  0  0  0  0
M  END
>  <MODEL>
2

>  <REMARK>
 VINA RESULT:      -5.9      1.495      2.159
  Name = 
  23 active torsions:
  status: ('A' for Active; 'I' for Inactive)
    1  A    between atoms: C_4  and  P_37
    2  A    between atoms: C_4  and  C_57
    3  A    between atoms: C_8  and  C_21
    4  A    between atoms: O_10  and  C_49
    5  A    between atoms: O_10  and  P_58
    6  A    between atoms: N_11  and  C_19
    7  A    between atoms: C_19  and  N_43
    8  A    between atoms: C_20  and  C_28
    9  A    between atoms: C_20  and  C_55
   10  A    between atoms: C_21  and  C_57
   11  A    between atoms: C_21  and  N_59
   12  A    between atoms: C_29  and  C_45
   13  A    between atoms: O_34  and  C_40
   14  A    between atoms: O_34  and  C_55
   15  A    between atoms: P_37  and  N_43
   16  A    between atoms: C_41  and  C_61
   17  A    between atoms: C_45  and  C_60
   18  A    between atoms: N_46  and  C_67
   19  A    between atoms: N_47  and  C_50
   20  A    between atoms: N_47  and  C_54
   21  A    between atoms: C_50  and  C_55
   22  A    between atoms: C_54  and  N_59
   23  A    between atoms: C_61  and  C_66
                            x       y       z     vdW  Elec       q    Type
                         _______ _______ _______ _____ _____    ______ ____

>  <TORSDO>
F 23

$$$$
=
 OpenBabel11062422483D

 67 72  0  0  1  0  0  0  0  0999 V2000
  190.8260  172.5320  136.6470 C   0  0  1  0  0  3  0  0  0  0  0  0
  191.6740  171.0610  138.4010 F   0  0  0  0  0  0  0  0  0  0  0  0
  191.3260  171.1340  137.0600 C   0  0  1  0  0  3  0  0  0  0  0  0
  190.3630  170.0150  136.6710 C   0  0  0  0  0  0  0  0  0  0  0  0
  190.9830  169.1520  135.7830 F   0  0  0  0  0  0  0  0  0  0  0  0
  189.2210  170.5290  136.0840 F   0  0  0  0  0  0  0  0  0  0  0  0
  190.0010  169.3100  137.8020 F   0  0  0  0  0  0  0  0  0  0  0  0
  189.7930  173.1000  137.6140 C   0  0  0  0  0  2  0  0  0  0  0  0
  190.4100  173.9890  138.5790 N   0  0  0  0  0  2  0  0  0  0  0  0
  190.1370  173.4180  139.8880 C   0  0  0  0  0  2  0  0  0  0  0  0
  188.7590  173.6860  140.2720 N   0  0  0  0  0  2  0  0  0  0  0  0
  188.6380  173.5710  141.7250 C   0  0  1  0  0  3  0  0  0  0  0  0
  189.6710  172.6440  142.2940 C   0  0  0  0  0  0  0  0  0  0  0  0
  191.5780  170.8580  143.3320 C   0  0  0  0  0  0  0  0  0  0  0  0
  189.8030  171.3630  141.7520 C   0  0  0  0  0  3  0  0  0  0  0  0
  192.8450  169.8590  144.0350 Cl  0  0  0  0  0  0  0  0  0  0  0  0
  190.4910  173.0310  143.3580 C   0  0  0  0  0  3  0  0  0  0  0  0
  191.4390  172.1440  143.8680 C   0  0  0  0  0  3  0  0  0  0  0  0
  190.7410  170.4530  142.2560 C   0  0  0  0  0  0  0  0  0  0  0  0
  191.6480  168.7780  140.7700 C   0  0  0  0  0  0  0  0  0  0  0  0
  192.4850  168.3960  139.9400 O   0  0  0  0  0  0  0  0  0  0  0  0
  190.7880  169.1610  141.6260 N   0  0  0  0  0  0  0  0  0  0  0  0
  189.7620  175.7100  141.8530 O   0  0  0  0  0  1  0  0  0  0  0  0
  188.7160  174.9490  142.3910 C   0  0  1  0  0  3  0  0  0  0  0  0
  187.3840  175.6880  142.2920 C   0  0  2  0  0  3  0  0  0  0  0  0
  187.3180  176.4410  141.1170 O   0  0  0  0  0  1  0  0  0  0  0  0
  187.2120  178.2150  143.3010 O   0  0  0  0  0  0  0  0  0  0  0  0
  187.1360  176.7700  143.7390 P   0  0  1  0  0  0  0  0  0  0  0  0
  185.6030  176.4780  144.3930 O   0  0  0  0  0  1  0  0  0  0  0  0
  188.3580  176.4800  144.9700 N   0  0  0  0  0  0  0  0  0  0  0  0
  189.2240  177.6470  145.0200 C   0  0  0  0  0  1  0  0  0  0  0  0
  187.6820  176.3970  146.2570 C   0  0  0  0  0  2  0  0  0  0  0  0
  186.5950  178.1590  147.3590 C   0  0  0  0  0  1  0  0  0  0  0  0
  187.9030  177.6200  147.0150 N   0  0  0  0  0  2  0  0  0  0  0  0
  191.9130  173.4090  136.6060 O   0  0  0  0  0  0  0  0  0  0  0  0
  195.1090  172.5670  134.8730 C   0  0  0  0  0  1  0  0  0  0  0  0
  193.1920  174.2330  134.7690 C   0  0  0  0  0  2  0  0  0  0  0  0
  192.6890  173.0000  135.5140 C   0  0  1  0  0  3  0  0  0  0  0  0
  194.1430  173.4470  135.6460 C   0  0  1  0  0  0  0  0  0  0  0  0
  196.0160  174.1210  137.0330 F   0  0  0  0  0  0  0  0  0  0  0  0
  194.1990  175.4670  136.9220 O   0  0  0  0  0  1  0  0  0  0  0  0
  194.6320  174.1370  136.9430 C   0  0  1  0  0  0  0  0  0  0  0  0
  194.2220  171.4520  140.6320 C   0  0  0  0  0  1  0  0  0  0  0  0
  196.0070  173.1850  140.1790 C   0  0  2  0  0  0  0  0  0  0  0  0
  195.2710  171.9530  139.6490 C   0  0  2  0  0  3  0  0  0  0  0  0
  193.9260  174.3360  139.4220 C   0  0  0  0  0  2  0  0  0  0  0  0
  194.7020  172.1550  138.3650 O   0  0  0  0  0  0  0  0  0  0  0  0
  195.2520  174.5220  140.1510 C   0  0  2  0  0  3  0  0  0  0  0  0
  195.9950  175.5350  139.5400 O   0  0  0  0  0  1  0  0  0  0  0  0
  194.0570  173.4180  138.1780 C   0  0  2  0  0  3  0  0  0  0  0  0
  197.4790  173.2090  139.8180 C   0  0  0  0  0  2  0  0  0  0  0  0
  197.0600  172.9260  141.2570 C   0  0  1  0  0  3  0  0  0  0  0  0
  197.3660  174.1570  142.1020 C   0  0  0  0  0  2  0  0  0  0  0  0
  196.0810  174.6220  146.2210 O   0  0  0  0  0  1  0  0  0  0  0  0
  194.1720  177.2310  146.9690 O   0  0  0  0  0  1  0  0  0  0  0  0
  195.4210  175.3260  145.1990 C   0  0  1  0  0  0  0  0  0  0  0  0
  192.9490  176.9470  144.7690 O   0  0  0  0  0  1  0  0  0  0  0  0
  195.5080  173.2190  143.3190 O   0  0  0  0  0  0  0  0  0  0  0  0
  194.7060  173.2480  144.4940 C   0  0  0  0  0  2  0  0  0  0  0  0
  196.2830  175.5390  143.9590 C   0  0  1  0  0  3  0  0  0  0  0  0
  196.6320  174.1010  143.4310 C   0  0  2  0  0  3  0  0  0  0  0  0
  195.6300  176.3040  142.9820 O   0  0  0  0  0  1  0  0  0  0  0  0
  194.2130  174.6760  144.6230 C   0  0  1  0  0  3  0  0  0  0  0  0
  193.8530  176.0060  145.8470 P   0  0  0  0  0  0  0  0  0  0  0  0
  192.9540  175.0020  146.8820 O   0  0  0  0  0  0  0  0  0  0  0  0
  190.7100  174.7070  146.6280 O   0  0  0  0  0  1  0  0  0  0  0  0
  191.7020  175.6060  147.0110 C   0  0  0  0  0  2  0  0  0  0  0  0
  1  3  1  0  0  0  0
  1  8  1  1  0  0  0
  3  2  1  1  0  0  0
  4  3  1  0  0  0  0
  4  7  1  0  0  0  0
  5  4  1  0  0  0  0
  6  4  1  0  0  0  0
  8  9  1  0  0  0  0
  9 10  1  0  0  0  0
 10 11  1  0  0  0  0
 12 11  1  6  0  0  0
 12 13  1  0  0  0  0
 12 24  1  0  0  0  0
 13 17  1  0  0  0  0
 14 18  1  0  0  0  0
 14 16  1  0  0  0  0
 15 19  1  0  0  0  0
 15 13  2  0  0  0  0
 17 18  2  0  0  0  0
 19 14  2  0  0  0  0
 20 22  2  0  0  0  0
 21 20  2  0  0  0  0
 22 19  1  0  0  0  0
 24 23  1  6  0  0  0
 25 26  1  6  0  0  0
 25 24  1  0  0  0  0
 25 28  1  0  0  0  0
 28 27  2  6  0  0  0
 28 29  1  0  0  0  0
 28 30  1  0  0  0  0
 30 31  1  0  0  0  0
 30 32  1  0  0  0  0
 32 34  1  0  0  0  0
 34 33  1  0  0  0  0
 35  1  1  0  0  0  0
 37 38  1  0  0  0  0
 37 39  1  0  0  0  0
 38 39  1  0  0  0  0
 38 35  1  1  0  0  0
 39 36  1  6  0  0  0
 39 42  1  0  0  0  0
 42 41  1  1  0  0  0
 42 40  1  0  0  0  0
 44 51  1  6  0  0  0
 44 52  1  0  0  0  0
 45 44  1  0  0  0  0
 45 43  1  1  0  0  0
 46 48  1  0  0  0  0
 47 45  1  0  0  0  0
 48 49  1  6  0  0  0
 48 44  1  0  0  0  0
 50 42  1  6  0  0  0
 50 47  1  0  0  0  0
 50 46  1  0  0  0  0
 51 52  1  0  0  0  0
 52 53  1  1  0  0  0
 56 64  1  0  0  0  0
 56 54  1  1  0  0  0
 57 64  1  0  0  0  0
 58 61  1  0  0  0  0
 58 59  1  0  0  0  0
 60 62  1  6  0  0  0
 60 56  1  0  0  0  0
 61 53  1  6  0  0  0
 61 60  1  0  0  0  0
 63 59  1  1  0  0  0
 63 56  1  0  0  0  0
 63 64  1  0  0  0  0
 64 65  1  0  0  0  0
 64 55  1  0  0  0  0
 65 67  1  0  0  0  0
 66 67  1  0  0  0  0
M  END
>  <MODEL>
3

>  <REMARK>
 VINA RESULT:      -5.9      4.205      8.657
  Name = 
  23 active torsions:
  status: ('A' for Active; 'I' for Inactive)
    1  A    between atoms: C_4  and  P_37
    2  A    between atoms: C_4  and  C_57
    3  A    between atoms: C_8  and  C_21
    4  A    between atoms: O_10  and  C_49
    5  A    between atoms: O_10  and  P_58
    6  A    between atoms: N_11  and  C_19
    7  A    between atoms: C_19  and  N_43
    8  A    between atoms: C_20  and  C_28
    9  A    between atoms: C_20  and  C_55
   10  A    between atoms: C_21  and  C_57
   11  A    between atoms: C_21  and  N_59
   12  A    between atoms: C_29  and  C_45
   13  A    between atoms: O_34  and  C_40
   14  A    between atoms: O_34  and  C_55
   15  A    between atoms: P_37  and  N_43
   16  A    between atoms: C_41  and  C_61
   17  A    between atoms: C_45  and  C_60
   18  A    between atoms: N_46  and  C_67
   19  A    between atoms: N_47  and  C_50
   20  A    between atoms: N_47  and  C_54
   21  A    between atoms: C_50  and  C_55
   22  A    between atoms: C_54  and  N_59
   23  A    between atoms: C_61  and  C_66
                            x       y       z     vdW  Elec       q    Type
                         _______ _______ _______ _____ _____    ______ ____

>  <TORSDO>
F 23

$$$$
=
 OpenBabel11062422483D

 67 72  0  0  1  0  0  0  0  0999 V2000
  187.8970  176.7480  146.2970 C   0  0  1  0  0  3  0  0  0  0  0  0
  186.2460  176.2080  148.0120 F   0  0  0  0  0  0  0  0  0  0  0  0
  186.4830  176.9590  146.8700 C   0  0  1  0  0  3  0  0  0  0  0  0
  186.1390  178.4310  147.0890 C   0  0  0  0  0  0  0  0  0  0  0  0
  184.8590  178.5410  147.6030 F   0  0  0  0  0  0  0  0  0  0  0  0
  186.2150  179.1360  145.9020 F   0  0  0  0  0  0  0  0  0  0  0  0
  187.0330  178.9800  147.9880 F   0  0  0  0  0  0  0  0  0  0  0  0
  188.6940  175.6970  147.0620 C   0  0  0  0  0  2  0  0  0  0  0  0
  189.4560  174.8550  146.1600 N   0  0  0  0  0  2  0  0  0  0  0  0
  190.8560  175.0940  146.4690 C   0  0  0  0  0  2  0  0  0  0  0  0
  191.7040  174.4200  145.4970 N   0  0  0  0  0  2  0  0  0  0  0  0
  193.0640  174.9480  145.6030 C   0  0  1  0  0  3  0  0  0  0  0  0
  194.0860  173.8490  145.5910 C   0  0  0  0  0  0  0  0  0  0  0  0
  195.9530  171.7480  145.5710 C   0  0  0  0  0  0  0  0  0  0  0  0
  193.6850  172.5560  145.2430 C   0  0  0  0  0  3  0  0  0  0  0  0
  197.2280  170.5350  145.5430 Cl  0  0  0  0  0  0  0  0  0  0  0  0
  195.4200  174.0900  145.9330 C   0  0  0  0  0  3  0  0  0  0  0  0
  196.3440  173.0460  145.9170 C   0  0  0  0  0  3  0  0  0  0  0  0
  194.5960  171.4920  145.2320 C   0  0  0  0  0  0  0  0  0  0  0  0
  193.7460  169.8380  143.6890 C   0  0  0  0  0  0  0  0  0  0  0  0
  193.4300  169.4730  142.5480 O   0  0  0  0  0  0  0  0  0  0  0  0
  194.0740  170.2030  144.8630 N   0  0  0  0  0  0  0  0  0  0  0  0
  192.8430  177.2290  144.8270 O   0  0  0  0  0  1  0  0  0  0  0  0
  193.3450  175.9650  144.4920 C   0  0  1  0  0  3  0  0  0  0  0  0
  194.8340  176.0290  144.1630 C   0  0  2  0  0  3  0  0  0  0  0  0
  195.3890  177.2350  144.5970 O   0  0  0  0  0  1  0  0  0  0  0  0
  193.8310  176.1470  141.6300 O   0  0  0  0  0  0  0  0  0  0  0  0
  195.1090  175.8260  142.3710 P   0  0  1  0  0  0  0  0  0  0  0  0
  196.3150  176.9000  141.8700 O   0  0  0  0  0  1  0  0  0  0  0  0
  195.5960  174.1820  141.9830 N   0  0  0  0  0  0  0  0  0  0  0  0
  194.3900  173.3960  141.7800 C   0  0  0  0  0  1  0  0  0  0  0  0
  196.3000  174.2160  140.7080 C   0  0  0  0  0  2  0  0  0  0  0  0
  197.9360  173.5090  142.2320 C   0  0  0  0  0  1  0  0  0  0  0  0
  197.5700  173.5160  140.8220 N   0  0  0  0  0  2  0  0  0  0  0  0
  187.7900  176.3310  144.9670 O   0  0  0  0  0  0  0  0  0  0  0  0
  188.3030  178.1960  141.7750 C   0  0  0  0  0  1  0  0  0  0  0  0
  189.6220  177.1670  143.6890 C   0  0  0  0  0  2  0  0  0  0  0  0
  188.2050  177.4220  144.1930 C   0  0  1  0  0  3  0  0  0  0  0  0
  188.4520  177.0310  142.7380 C   0  0  1  0  0  0  0  0  0  0  0  0
  187.0060  175.0900  142.9080 F   0  0  0  0  0  0  0  0  0  0  0  0
  187.8280  175.6680  140.8780 O   0  0  0  0  0  1  0  0  0  0  0  0
  188.1120  175.6030  142.2460 C   0  0  1  0  0  0  0  0  0  0  0  0
  190.6960  171.8350  142.5850 C   0  0  0  0  0  1  0  0  0  0  0  0
  189.3170  172.5840  140.6020 C   0  0  2  0  0  0  0  0  0  0  0  0
  189.3240  172.2850  142.1020 C   0  0  2  0  0  3  0  0  0  0  0  0
  190.3730  174.7120  141.3660 C   0  0  0  0  0  2  0  0  0  0  0  0
  188.8430  173.3640  142.8870 O   0  0  0  0  0  0  0  0  0  0  0  0
  189.9760  173.8920  140.1430 C   0  0  2  0  0  3  0  0  0  0  0  0
  189.1370  174.6440  139.3150 O   0  0  0  0  0  1  0  0  0  0  0  0
  189.3050  174.6580  142.4890 C   0  0  2  0  0  3  0  0  0  0  0  0
  188.0320  172.1720  139.9110 C   0  0  0  0  0  2  0  0  0  0  0  0
  189.3060  171.3680  139.6750 C   0  0  1  0  0  3  0  0  0  0  0  0
  189.8230  171.6800  138.2750 C   0  0  0  0  0  2  0  0  0  0  0  0
  193.1160  169.5660  136.3990 O   0  0  0  0  0  1  0  0  0  0  0  0
  195.7720  171.3300  135.4770 O   0  0  0  0  0  1  0  0  0  0  0  0
  193.3190  170.8550  136.9210 C   0  0  1  0  0  0  0  0  0  0  0  0
  195.5520  172.7300  137.5760 O   0  0  0  0  0  1  0  0  0  0  0  0
  191.6980  170.4830  139.2040 O   0  0  0  0  0  0  0  0  0  0  0  0
  192.9620  169.8690  138.9770 C   0  0  0  0  0  2  0  0  0  0  0  0
  192.0400  171.6810  137.0050 C   0  0  1  0  0  3  0  0  0  0  0  0
  191.0880  170.8930  137.9740 C   0  0  2  0  0  3  0  0  0  0  0  0
  192.2780  172.9860  137.4600 O   0  0  0  0  0  1  0  0  0  0  0  0
  193.8230  170.9300  138.3190 C   0  0  1  0  0  3  0  0  0  0  0  0
  195.1130  171.1890  137.0290 P   0  0  0  0  0  0  0  0  0  0  0  0
  196.0990  169.9110  137.5590 O   0  0  0  0  0  0  0  0  0  0  0  0
  197.9410  171.0630  138.2430 O   0  0  0  0  0  1  0  0  0  0  0  0
  197.4070  170.2710  137.2300 C   0  0  0  0  0  2  0  0  0  0  0  0
  1  3  1  0  0  0  0
  1  8  1  1  0  0  0
  3  4  1  0  0  0  0
  3  2  1  1  0  0  0
  4  5  1  0  0  0  0
  4  7  1  0  0  0  0
  6  4  1  0  0  0  0
  9 10  1  0  0  0  0
  9  8  1  0  0  0  0
 11 10  1  0  0  0  0
 12 11  1  6  0  0  0
 13 12  1  0  0  0  0
 13 17  1  0  0  0  0
 14 18  1  0  0  0  0
 15 13  2  0  0  0  0
 16 14  1  0  0  0  0
 18 17  2  0  0  0  0
 19 15  1  0  0  0  0
 19 14  2  0  0  0  0
 20 22  2  0  0  0  0
 21 20  2  0  0  0  0
 22 19  1  0  0  0  0
 24 23  1  1  0  0  0
 24 12  1  0  0  0  0
 25 24  1  0  0  0  0
 25 26  1  6  0  0  0
 28 27  2  6  0  0  0
 28 25  1  0  0  0  0
 29 28  1  0  0  0  0
 30 28  1  0  0  0  0
 31 30  1  0  0  0  0
 32 34  1  0  0  0  0
 32 30  1  0  0  0  0
 34 33  1  0  0  0  0
 35  1  1  0  0  0  0
 37 38  1  0  0  0  0
 38 35  1  1  0  0  0
 39 36  1  6  0  0  0
 39 37  1  0  0  0  0
 39 38  1  0  0  0  0
 42 41  1  6  0  0  0
 42 39  1  0  0  0  0
 42 40  1  0  0  0  0
 44 51  1  6  0  0  0
 44 45  1  0  0  0  0
 45 43  1  1  0  0  0
 45 47  1  0  0  0  0
 46 50  1  0  0  0  0
 48 49  1  6  0  0  0
 48 44  1  0  0  0  0
 48 46  1  0  0  0  0
 50 42  1  6  0  0  0
 50 47  1  0  0  0  0
 52 53  1  6  0  0  0
 52 51  1  0  0  0  0
 52 44  1  0  0  0  0
 55 64  1  0  0  0  0
 56 54  1  6  0  0  0
 56 60  1  0  0  0  0
 56 64  1  0  0  0  0
 56 63  1  0  0  0  0
 59 58  1  0  0  0  0
 60 62  1  1  0  0  0
 60 61  1  0  0  0  0
 61 53  1  1  0  0  0
 61 58  1  0  0  0  0
 63 59  1  6  0  0  0
 64 65  1  0  0  0  0
 64 57  1  0  0  0  0
 64 63  1  0  0  0  0
 67 65  1  0  0  0  0
 67 66  1  0  0  0  0
M  END
>  <MODEL>
4

>  <REMARK>
 VINA RESULT:      -5.6      3.089      6.628
  Name = 
  23 active torsions:
  status: ('A' for Active; 'I' for Inactive)
    1  A    between atoms: C_4  and  P_37
    2  A    between atoms: C_4  and  C_57
    3  A    between atoms: C_8  and  C_21
    4  A    between atoms: O_10  and  C_49
    5  A    between atoms: O_10  and  P_58
    6  A    between atoms: N_11  and  C_19
    7  A    between atoms: C_19  and  N_43
    8  A    between atoms: C_20  and  C_28
    9  A    between atoms: C_20  and  C_55
   10  A    between atoms: C_21  and  C_57
   11  A    between atoms: C_21  and  N_59
   12  A    between atoms: C_29  and  C_45
   13  A    between atoms: O_34  and  C_40
   14  A    between atoms: O_34  and  C_55
   15  A    between atoms: P_37  and  N_43
   16  A    between atoms: C_41  and  C_61
   17  A    between atoms: C_45  and  C_60
   18  A    between atoms: N_46  and  C_67
   19  A    between atoms: N_47  and  C_50
   20  A    between atoms: N_47  and  C_54
   21  A    between atoms: C_50  and  C_55
   22  A    between atoms: C_54  and  N_59
   23  A    between atoms: C_61  and  C_66
                            x       y       z     vdW  Elec       q    Type
                         _______ _______ _______ _____ _____    ______ ____

>  <TORSDO>
F 23

$$$$
=
 OpenBabel11062422483D

 67 72  0  0  1  0  0  0  0  0999 V2000
  190.2030  175.3800  146.6940 C   0  0  1  0  0  3  0  0  0  0  0  0
  187.8720  175.3090  147.4160 F   0  0  0  0  0  0  0  0  0  0  0  0
  188.7700  175.9270  146.5580 C   0  0  1  0  0  3  0  0  0  0  0  0
  188.6960  177.4480  146.6740 C   0  0  0  0  0  0  0  0  0  0  0  0
  187.4370  177.8240  147.1100 F   0  0  0  0  0  0  0  0  0  0  0  0
  188.9540  178.0490  145.4550 F   0  0  0  0  0  0  0  0  0  0  0  0
  189.6350  177.8820  147.5890 F   0  0  0  0  0  0  0  0  0  0  0  0
  190.3100  173.9040  146.3200 C   0  0  0  0  0  2  0  0  0  0  0  0
  189.3430  173.5510  145.2980 N   0  0  0  0  0  2  0  0  0  0  0  0
  190.1060  173.3110  144.0840 C   0  0  0  0  0  2  0  0  0  0  0  0
  190.0340  174.4740  143.2120 N   0  0  0  0  0  2  0  0  0  0  0  0
  189.1090  174.1880  142.1140 C   0  0  1  0  0  3  0  0  0  0  0  0
  188.0540  175.2480  141.9910 C   0  0  0  0  0  0  0  0  0  0  0  0
  186.1030  177.2520  141.7060 C   0  0  0  0  0  0  0  0  0  0  0  0
  187.8130  175.8220  140.7400 C   0  0  0  0  0  3  0  0  0  0  0  0
  184.8190  178.4540  141.6530 Cl  0  0  0  0  0  0  0  0  0  0  0  0
  187.3220  175.6800  143.1010 C   0  0  0  0  0  3  0  0  0  0  0  0
  186.3510  176.6700  142.9550 C   0  0  0  0  0  3  0  0  0  0  0  0
  186.8500  176.8260  140.5740 C   0  0  0  0  0  0  0  0  0  0  0  0
  186.3660  176.6770  138.2120 C   0  0  0  0  0  0  0  0  0  0  0  0
  186.0480  176.0310  137.2030 O   0  0  0  0  0  0  0  0  0  0  0  0
  186.6880  177.3480  139.2440 N   0  0  0  0  0  0  0  0  0  0  0  0
  191.2130  174.3720  140.9330 O   0  0  0  0  0  1  0  0  0  0  0  0
  189.8660  174.0160  140.7920 C   0  0  1  0  0  3  0  0  0  0  0  0
  189.7200  172.5960  140.2530 C   0  0  2  0  0  3  0  0  0  0  0  0
  190.8320  171.8190  140.5880 O   0  0  0  0  0  1  0  0  0  0  0  0
  188.0320  172.8170  138.1230 O   0  0  0  0  0  1  0  0  0  0  0  0
  189.4950  172.6130  138.4420 P   0  0  1  0  0  0  0  0  0  0  0  0
  190.3810  173.8950  137.7850 O   0  0  0  0  0  0  0  0  0  0  0  0
  190.0330  171.1030  137.7190 N   0  0  0  0  0  0  0  0  0  0  0  0
  190.4510  171.3870  136.3560 C   0  0  0  0  0  1  0  0  0  0  0  0
  191.2170  170.6600  138.4430 C   0  0  0  0  0  2  0  0  0  0  0  0
  190.6710  168.7900  139.7480 C   0  0  0  0  0  1  0  0  0  0  0  0
  191.2600  169.2060  138.4830 N   0  0  0  0  0  2  0  0  0  0  0  0
  191.0490  176.1050  145.8510 O   0  0  0  0  0  0  0  0  0  0  0  0
  194.5780  177.2210  146.3260 C   0  0  0  0  0  1  0  0  0  0  0  0
  193.1250  175.1460  146.5280 C   0  0  0  0  0  2  0  0  0  0  0  0
  192.2040  176.3600  146.6010 C   0  0  1  0  0  3  0  0  0  0  0  0
  193.4570  176.3880  145.7290 C   0  0  1  0  0  0  0  0  0  0  0  0
  192.7010  175.1110  143.8100 F   0  0  0  0  0  0  0  0  0  0  0  0
  192.5900  177.3720  143.7320 O   0  0  0  0  0  1  0  0  0  0  0  0
  193.3400  176.2830  144.1890 C   0  0  1  0  0  0  0  0  0  0  0  0
  197.6760  175.2400  143.1400 C   0  0  0  0  0  1  0  0  0  0  0  0
  195.6770  173.6910  143.1480 C   0  0  2  0  0  0  0  0  0  0  0  0
  196.4960  174.7090  143.9430 C   0  0  2  0  0  3  0  0  0  0  0  0
  194.7590  175.7580  142.0940 C   0  0  0  0  0  2  0  0  0  0  0  0
  195.7130  175.7770  144.4530 O   0  0  0  0  0  0  0  0  0  0  0  0
  194.7600  174.2340  142.0420 C   0  0  2  0  0  3  0  0  0  0  0  0
  193.4540  173.7520  142.1550 O   0  0  0  0  0  1  0  0  0  0  0  0
  194.7390  176.3030  143.5460 C   0  0  2  0  0  3  0  0  0  0  0  0
  195.1460  172.5510  143.9940 C   0  0  0  0  0  2  0  0  0  0  0  0
  196.2870  172.2950  143.0150 C   0  0  1  0  0  3  0  0  0  0  0  0
  195.7390  171.5140  141.8270 C   0  0  0  0  0  2  0  0  0  0  0  0
  197.8940  171.1420  138.0780 O   0  0  0  0  0  1  0  0  0  0  0  0
  196.2670  171.8440  135.2720 O   0  0  0  0  0  1  0  0  0  0  0  0
  196.6950  171.8730  138.1260 C   0  0  1  0  0  0  0  0  0  0  0  0
  195.1020  173.7620  136.4460 O   0  0  0  0  0  1  0  0  0  0  0  0
  197.1880  173.0400  140.6510 O   0  0  0  0  0  0  0  0  0  0  0  0
  197.8760  173.3540  139.4440 C   0  0  0  0  0  2  0  0  0  0  0  0
  195.7790  171.4570  139.2720 C   0  0  1  0  0  3  0  0  0  0  0  0
  196.5900  171.7390  140.5880 C   0  0  2  0  0  3  0  0  0  0  0  0
  194.5600  172.1490  139.2560 O   0  0  0  0  0  1  0  0  0  0  0  0
  196.8230  173.3380  138.3530 C   0  0  1  0  0  3  0  0  0  0  0  0
  196.5280  172.8620  136.5970 P   0  0  0  0  0  0  0  0  0  0  0  0
  197.9370  173.6100  136.0130 O   0  0  0  0  0  0  0  0  0  0  0  0
  197.3500  175.8100  136.0790 O   0  0  0  0  0  1  0  0  0  0  0  0
  197.5070  174.7000  135.2530 C   0  0  0  0  0  2  0  0  0  0  0  0
  1  8  1  6  0  0  0
  3  4  1  0  0  0  0
  3  1  1  0  0  0  0
  3  2  1  1  0  0  0
  4  5  1  0  0  0  0
  4  7  1  0  0  0  0
  6  4  1  0  0  0  0
  9  8  1  0  0  0  0
 10  9  1  0  0  0  0
 11 10  1  0  0  0  0
 12 11  1  1  0  0  0
 13 12  1  0  0  0  0
 13 17  1  0  0  0  0
 14 18  1  0  0  0  0
 15 13  2  0  0  0  0
 16 14  1  0  0  0  0
 18 17  2  0  0  0  0
 19 15  1  0  0  0  0
 19 14  2  0  0  0  0
 20 22  2  0  0  0  0
 21 20  2  0  0  0  0
 22 19  1  0  0  0  0
 24 23  1  1  0  0  0
 24 12  1  0  0  0  0
 25 26  1  6  0  0  0
 25 24  1  0  0  0  0
 27 28  1  0  0  0  0
 28 29  2  6  0  0  0
 28 25  1  0  0  0  0
 30 28  1  0  0  0  0
 30 32  1  0  0  0  0
 31 30  1  0  0  0  0
 32 34  1  0  0  0  0
 34 33  1  0  0  0  0
 35  1  1  0  0  0  0
 37 38  1  0  0  0  0
 38 35  1  6  0  0  0
 39 36  1  1  0  0  0
 39 37  1  0  0  0  0
 39 38  1  0  0  0  0
 40 42  1  0  0  0  0
 42 41  1  6  0  0  0
 42 39  1  0  0  0  0
 44 45  1  0  0  0  0
 44 51  1  1  0  0  0
 45 43  1  6  0  0  0
 45 47  1  0  0  0  0
 46 50  1  0  0  0  0
 48 46  1  0  0  0  0
 48 49  1  1  0  0  0
 48 44  1  0  0  0  0
 50 42  1  1  0  0  0
 50 47  1  0  0  0  0
 52 53  1  6  0  0  0
 52 44  1  0  0  0  0
 52 51  1  0  0  0  0
 55 64  1  0  0  0  0
 56 54  1  1  0  0  0
 56 63  1  0  0  0  0
 56 60  1  0  0  0  0
 57 64  1  0  0  0  0
 59 58  1  0  0  0  0
 60 62  1  1  0  0  0
 60 61  1  0  0  0  0
 61 58  1  0  0  0  0
 61 53  1  1  0  0  0
 63 59  1  6  0  0  0
 64 56  1  0  0  0  0
 64 63  1  0  0  0  0
 65 64  1  0  0  0  0
 67 65  1  0  0  0  0
 67 66  1  0  0  0  0
M  END
>  <MODEL>
5

>  <REMARK>
 VINA RESULT:      -4.6      2.833      5.156
  Name = 
  23 active torsions:
  status: ('A' for Active; 'I' for Inactive)
    1  A    between atoms: C_4  and  P_37
    2  A    between atoms: C_4  and  C_57
    3  A    between atoms: C_8  and  C_21
    4  A    between atoms: O_10  and  C_49
    5  A    between atoms: O_10  and  P_58
    6  A    between atoms: N_11  and  C_19
    7  A    between atoms: C_19  and  N_43
    8  A    between atoms: C_20  and  C_28
    9  A    between atoms: C_20  and  C_55
   10  A    between atoms: C_21  and  C_57
   11  A    between atoms: C_21  and  N_59
   12  A    between atoms: C_29  and  C_45
   13  A    between atoms: O_34  and  C_40
   14  A    between atoms: O_34  and  C_55
   15  A    between atoms: P_37  and  N_43
   16  A    between atoms: C_41  and  C_61
   17  A    between atoms: C_45  and  C_60
   18  A    between atoms: N_46  and  C_67
   19  A    between atoms: N_47  and  C_50
   20  A    between atoms: N_47  and  C_54
   21  A    between atoms: C_50  and  C_55
   22  A    between atoms: C_54  and  N_59
   23  A    between atoms: C_61  and  C_66
                            x       y       z     vdW  Elec       q    Type
                         _______ _______ _______ _____ _____    ______ ____

>  <TORSDO>
F 23

$$$$
=
 OpenBabel11062422483D

 67 72  0  0  1  0  0  0  0  0999 V2000
  191.0710  171.8960  139.0930 C   0  0  1  0  0  3  0  0  0  0  0  0
  192.8870  171.8880  140.7240 F   0  0  0  0  0  0  0  0  0  0  0  0
  191.9560  171.0960  140.0670 C   0  0  1  0  0  3  0  0  0  0  0  0
  191.1520  170.2480  141.0500 C   0  0  0  0  0  0  0  0  0  0  0  0
  190.5550  169.1950  140.3800 F   0  0  0  0  0  0  0  0  0  0  0  0
  190.1750  171.0060  141.6690 F   0  0  0  0  0  0  0  0  0  0  0  0
  191.9990  169.7430  142.0170 F   0  0  0  0  0  0  0  0  0  0  0  0
  190.9830  173.3760  139.4540 C   0  0  0  0  0  2  0  0  0  0  0  0
  189.6270  173.7500  139.8090 N   0  0  0  0  0  2  0  0  0  0  0  0
  189.7290  174.5250  141.0350 C   0  0  0  0  0  2  0  0  0  0  0  0
  188.4050  174.7470  141.5970 N   0  0  0  0  0  2  0  0  0  0  0  0
  188.5150  175.6730  142.7250 C   0  0  1  0  0  3  0  0  0  0  0  0
  187.2400  176.4340  142.9390 C   0  0  0  0  0  0  0  0  0  0  0  0
  184.8580  177.8880  143.2850 C   0  0  0  0  0  0  0  0  0  0  0  0
  186.5940  176.9990  141.8360 C   0  0  0  0  0  3  0  0  0  0  0  0
  183.3490  178.7240  143.6300 Cl  0  0  0  0  0  0  0  0  0  0  0  0
  186.6960  176.6000  144.2170 C   0  0  0  0  0  3  0  0  0  0  0  0
  185.5120  177.3180  144.3840 C   0  0  0  0  0  3  0  0  0  0  0  0
  185.4100  177.7320  141.9830 C   0  0  0  0  0  0  0  0  0  0  0  0
  183.5970  178.2750  140.4820 C   0  0  0  0  0  0  0  0  0  0  0  0
  182.3940  178.2870  140.1850 O   0  0  0  0  0  0  0  0  0  0  0  0
  184.8340  178.2730  140.7820 N   0  0  0  0  0  0  0  0  0  0  0  0
  189.2920  173.6100  143.7220 O   0  0  0  0  0  1  0  0  0  0  0  0
  188.9310  174.9350  144.0010 C   0  0  1  0  0  3  0  0  0  0  0  0
  190.0510  175.6740  144.7280 C   0  0  2  0  0  3  0  0  0  0  0  0
  191.2820  175.4480  144.1060 O   0  0  0  0  0  1  0  0  0  0  0  0
  189.3800  173.8650  146.6540 O   0  0  0  0  0  0  0  0  0  0  0  0
  190.1340  175.1640  146.4770 P   0  0  1  0  0  0  0  0  0  0  0  0
  191.7510  174.9200  146.9080 O   0  0  0  0  0  1  0  0  0  0  0  0
  189.4280  176.3820  147.5310 N   0  0  0  0  0  0  0  0  0  0  0  0
  190.0920  177.6460  147.2560 C   0  0  0  0  0  1  0  0  0  0  0  0
  188.0320  176.5440  147.1500 C   0  0  0  0  0  2  0  0  0  0  0  0
  186.6400  178.2330  147.9940 C   0  0  0  0  0  1  0  0  0  0  0  0
  187.7070  177.9590  147.0410 N   0  0  0  0  0  2  0  0  0  0  0  0
  191.6030  171.7930  137.8050 O   0  0  0  0  0  0  0  0  0  0  0  0
  194.0000  169.1520  136.7060 C   0  0  0  0  0  1  0  0  0  0  0  0
  191.5910  169.8890  136.3690 C   0  0  0  0  0  2  0  0  0  0  0  0
  192.0700  170.4770  137.6920 C   0  0  1  0  0  3  0  0  0  0  0  0
  193.0360  170.3110  136.5220 C   0  0  1  0  0  0  0  0  0  0  0  0
  192.8010  171.6510  134.5130 F   0  0  0  0  0  0  0  0  0  0  0  0
  193.2500  172.6910  136.4740 O   0  0  0  0  0  1  0  0  0  0  0  0
  193.4960  171.5460  135.7090 C   0  0  1  0  0  0  0  0  0  0  0  0
  197.8720  172.6400  134.9090 C   0  0  0  0  0  1  0  0  0  0  0  0
  196.4560  173.3080  136.8940 C   0  0  2  0  0  0  0  0  0  0  0  0
  196.5650  173.2690  135.3690 C   0  0  2  0  0  3  0  0  0  0  0  0
  195.8470  170.9090  136.5730 C   0  0  0  0  0  2  0  0  0  0  0  0
  195.4560  172.6380  134.7480 O   0  0  0  0  0  0  0  0  0  0  0  0
  196.1440  171.9860  137.6110 C   0  0  2  0  0  3  0  0  0  0  0  0
  195.0690  172.1060  138.4960 O   0  0  0  0  0  1  0  0  0  0  0  0
  194.9990  171.4430  135.3890 C   0  0  2  0  0  3  0  0  0  0  0  0
  195.7810  174.5600  137.4190 C   0  0  0  0  0  2  0  0  0  0  0  0
  197.2850  174.3820  137.6000 C   0  0  1  0  0  3  0  0  0  0  0  0
  197.5610  174.0570  139.0630 C   0  0  0  0  0  2  0  0  0  0  0  0
  194.1020  175.0370  141.4930 O   0  0  0  0  0  1  0  0  0  0  0  0
  194.1220  174.1020  144.6770 O   0  0  0  0  0  1  0  0  0  0  0  0
  195.3110  174.6760  142.1110 C   0  0  1  0  0  0  0  0  0  0  0  0
  196.5840  174.6780  144.8140 O   0  0  0  0  0  1  0  0  0  0  0  0
  196.9700  176.0500  140.2840 O   0  0  0  0  0  0  0  0  0  0  0  0
  196.1190  176.6590  141.2490 C   0  0  0  0  0  2  0  0  0  0  0  0
  196.2140  173.8280  141.2220 C   0  0  1  0  0  3  0  0  0  0  0  0
  196.5380  174.7200  139.9710 C   0  0  2  0  0  3  0  0  0  0  0  0
  197.3810  173.4210  141.8850 O   0  0  0  0  0  1  0  0  0  0  0  0
  196.2180  175.7930  142.4910 C   0  0  1  0  0  3  0  0  0  0  0  0
  195.2330  175.1030  143.8870 P   0  0  0  0  0  0  0  0  0  0  0  0
  194.5020  176.5840  144.2870 O   0  0  0  0  0  0  0  0  0  0  0  0
  194.9320  177.9340  146.0710 O   0  0  0  0  0  1  0  0  0  0  0  0
  194.5260  176.6600  145.6810 C   0  0  0  0  0  2  0  0  0  0  0  0
  1  8  1  1  0  0  0
  1  3  1  0  0  0  0
  3  2  1  1  0  0  0
  3  4  1  0  0  0  0
  4  6  1  0  0  0  0
  4  7  1  0  0  0  0
  5  4  1  0  0  0  0
  8  9  1  0  0  0  0
  9 10  1  0  0  0  0
 10 11  1  0  0  0  0
 12 11  1  6  0  0  0
 12 13  1  0  0  0  0
 12 24  1  0  0  0  0
 13 17  1  0  0  0  0
 14 16  1  0  0  0  0
 14 18  1  0  0  0  0
 15 19  1  0  0  0  0
 15 13  2  0  0  0  0
 17 18  2  0  0  0  0
 19 14  2  0  0  0  0
 20 22  2  0  0  0  0
 21 20  2  0  0  0  0
 22 19  1  0  0  0  0
 24 23  1  6  0  0  0
 24 25  1  0  0  0  0
 25 26  1  6  0  0  0
 25 28  1  0  0  0  0
 28 27  2  1  0  0  0
 28 29  1  0  0  0  0
 28 30  1  0  0  0  0
 31 30  1  0  0  0  0
 32 30  1  0  0  0  0
 34 32  1  0  0  0  0
 34 33  1  0  0  0  0
 35  1  1  0  0  0  0
 37 39  1  0  0  0  0
 37 38  1  0  0  0  0
 38 35  1  6  0  0  0
 39 36  1  1  0  0  0
 39 38  1  0  0  0  0
 42 40  1  6  0  0  0
 42 41  1  0  0  0  0
 42 39  1  0  0  0  0
 44 51  1  1  0  0  0
 44 52  1  0  0  0  0
 44 48  1  0  0  0  0
 45 43  1  1  0  0  0
 45 44  1  0  0  0  0
 46 48  1  0  0  0  0
 47 45  1  0  0  0  0
 47 50  1  0  0  0  0
 48 49  1  1  0  0  0
 50 42  1  1  0  0  0
 50 46  1  0  0  0  0
 51 52  1  0  0  0  0
 52 53  1  1  0  0  0
 56 54  1  6  0  0  0
 56 63  1  0  0  0  0
 56 64  1  0  0  0  0
 58 59  1  0  0  0  0
 60 62  1  1  0  0  0
 60 56  1  0  0  0  0
 61 53  1  1  0  0  0
 61 58  1  0  0  0  0
 61 60  1  0  0  0  0
 63 59  1  6  0  0  0
 63 64  1  0  0  0  0
 64 65  1  0  0  0  0
 64 55  1  0  0  0  0
 64 57  1  0  0  0  0
 65 67  1  0  0  0  0
 67 66  1  0  0  0  0
M  END
>  <MODEL>
6

>  <REMARK>
 VINA RESULT:      -4.5      4.058      9.009
  Name = 
  23 active torsions:
  status: ('A' for Active; 'I' for Inactive)
    1  A    between atoms: C_4  and  P_37
    2  A    between atoms: C_4  and  C_57
    3  A    between atoms: C_8  and  C_21
    4  A    between atoms: O_10  and  C_49
    5  A    between atoms: O_10  and  P_58
    6  A    between atoms: N_11  and  C_19
    7  A    between atoms: C_19  and  N_43
    8  A    between atoms: C_20  and  C_28
    9  A    between atoms: C_20  and  C_55
   10  A    between atoms: C_21  and  C_57
   11  A    between atoms: C_21  and  N_59
   12  A    between atoms: C_29  and  C_45
   13  A    between atoms: O_34  and  C_40
   14  A    between atoms: O_34  and  C_55
   15  A    between atoms: P_37  and  N_43
   16  A    between atoms: C_41  and  C_61
   17  A    between atoms: C_45  and  C_60
   18  A    between atoms: N_46  and  C_67
   19  A    between atoms: N_47  and  C_50
   20  A    between atoms: N_47  and  C_54
   21  A    between atoms: C_50  and  C_55
   22  A    between atoms: C_54  and  N_59
   23  A    between atoms: C_61  and  C_66
                            x       y       z     vdW  Elec       q    Type
                         _______ _______ _______ _____ _____    ______ ____

>  <TORSDO>
F 23

$$$$
=
 OpenBabel11062422483D

 67 72  0  0  1  0  0  0  0  0999 V2000
  186.2070  177.1250  144.0310 C   0  0  1  0  0  3  0  0  0  0  0  0
  186.2670  179.5050  143.4920 F   0  0  0  0  0  0  0  0  0  0  0  0
  185.8440  178.5690  144.4250 C   0  0  1  0  0  3  0  0  0  0  0  0
  184.3650  178.7450  144.7620 C   0  0  0  0  0  0  0  0  0  0  0  0
  184.1440  180.0240  145.2460 F   0  0  0  0  0  0  0  0  0  0  0  0
  183.9630  177.8240  145.7110 F   0  0  0  0  0  0  0  0  0  0  0  0
  183.6110  178.5620  143.6190 F   0  0  0  0  0  0  0  0  0  0  0  0
  187.0740  177.0540  142.7780 C   0  0  0  0  0  2  0  0  0  0  0  0
  187.4280  175.6830  142.4620 N   0  0  0  0  0  2  0  0  0  0  0  0
  188.1490  175.7330  141.2000 C   0  0  0  0  0  2  0  0  0  0  0  0
  189.3330  174.8880  141.2680 N   0  0  0  0  0  2  0  0  0  0  0  0
  188.9350  173.4940  141.0660 C   0  0  1  0  0  3  0  0  0  0  0  0
  189.0870  173.0800  139.6320 C   0  0  0  0  0  0  0  0  0  0  0  0
  189.3350  172.3510  136.9280 C   0  0  0  0  0  0  0  0  0  0  0  0
  188.7600  173.9920  138.6250 C   0  0  0  0  0  3  0  0  0  0  0  0
  189.5860  171.7900  135.2790 Cl  0  0  0  0  0  0  0  0  0  0  0  0
  189.5350  171.8010  139.2860 C   0  0  0  0  0  3  0  0  0  0  0  0
  189.6610  171.4450  137.9440 C   0  0  0  0  0  3  0  0  0  0  0  0
  188.8690  173.6500  137.2710 C   0  0  0  0  0  0  0  0  0  0  0  0
  187.7860  175.6890  136.5590 C   0  0  0  0  0  0  0  0  0  0  0  0
  187.0950  176.6920  136.7860 O   0  0  0  0  0  0  0  0  0  0  0  0
  188.5020  174.6640  136.3200 N   0  0  0  0  0  0  0  0  0  0  0  0
  189.5350  171.2200  141.6330 O   0  0  0  0  0  1  0  0  0  0  0  0
  189.7240  172.5610  141.9900 C   0  0  1  0  0  3  0  0  0  0  0  0
  191.2060  172.9260  142.0110 C   0  0  2  0  0  3  0  0  0  0  0  0
  191.6310  173.3590  140.7520 O   0  0  0  0  0  1  0  0  0  0  0  0
  193.0750  171.9230  143.7240 O   0  0  0  0  0  1  0  0  0  0  0  0
  192.2140  171.5060  142.5530 P   0  0  1  0  0  0  0  0  0  0  0  0
  191.1900  170.2540  143.0470 O   0  0  0  0  0  0  0  0  0  0  0  0
  193.2530  170.9290  141.2570 N   0  0  0  0  0  0  0  0  0  0  0  0
  193.5720  172.0630  140.4040 C   0  0  0  0  0  1  0  0  0  0  0  0
  194.5040  170.4840  141.8550 C   0  0  0  0  0  2  0  0  0  0  0  0
  196.4700  169.2690  141.4530 C   0  0  0  0  0  1  0  0  0  0  0  0
  195.4330  170.0680  140.8150 N   0  0  0  0  0  2  0  0  0  0  0  0
  186.9100  176.5300  145.0820 O   0  0  0  0  0  0  0  0  0  0  0  0
  188.3770  178.5400  147.8630 C   0  0  0  0  0  1  0  0  0  0  0  0
  186.6780  176.6950  147.4500 C   0  0  0  0  0  2  0  0  0  0  0  0
  186.8650  177.4500  146.1370 C   0  0  1  0  0  3  0  0  0  0  0  0
  188.0340  177.2710  147.1030 C   0  0  1  0  0  0  0  0  0  0  0  0
  190.2590  176.4490  147.6110 F   0  0  0  0  0  0  0  0  0  0  0  0
  188.6650  174.9700  146.9810 O   0  0  0  0  0  1  0  0  0  0  0  0
  189.1630  176.2610  146.7820 C   0  0  1  0  0  0  0  0  0  0  0  0
  191.5130  177.5500  143.0670 C   0  0  0  0  0  1  0  0  0  0  0  0
  192.4230  176.4930  145.1750 C   0  0  2  0  0  0  0  0  0  0  0  0
  191.5760  177.6220  144.5860 C   0  0  2  0  0  3  0  0  0  0  0  0
  190.3470  175.1740  144.7580 C   0  0  0  0  0  2  0  0  0  0  0  0
  190.2730  177.6880  145.1420 O   0  0  0  0  0  0  0  0  0  0  0  0
  191.8020  175.0890  145.2060 C   0  0  2  0  0  3  0  0  0  0  0  0
  191.8790  174.5050  146.4730 O   0  0  0  0  0  1  0  0  0  0  0  0
  189.6240  176.4250  145.3220 C   0  0  2  0  0  3  0  0  0  0  0  0
  193.2420  176.9180  146.3790 C   0  0  0  0  0  2  0  0  0  0  0  0
  193.9390  176.6540  145.0490 C   0  0  1  0  0  3  0  0  0  0  0  0
  194.6910  175.3320  145.1500 C   0  0  0  0  0  2  0  0  0  0  0  0
  197.4410  173.9190  142.1050 O   0  0  0  0  0  1  0  0  0  0  0  0
  196.2610  173.4540  139.0380 O   0  0  0  0  0  1  0  0  0  0  0  0
  196.2180  174.4990  141.7280 C   0  0  1  0  0  0  0  0  0  0  0  0
  194.8340  175.5320  139.2890 O   0  0  0  0  0  1  0  0  0  0  0  0
  196.2400  176.5010  143.7210 O   0  0  0  0  0  0  0  0  0  0  0  0
  197.1000  176.4510  142.5870 C   0  0  0  0  0  2  0  0  0  0  0  0
  195.1480  174.4100  142.8110 C   0  0  1  0  0  3  0  0  0  0  0  0
  195.7200  175.2040  144.0400 C   0  0  2  0  0  3  0  0  0  0  0  0
  193.9170  174.9300  142.3860 O   0  0  0  0  0  1  0  0  0  0  0  0
  196.2390  175.9590  141.4390 C   0  0  1  0  0  3  0  0  0  0  0  0
  196.2560  174.8850  139.9410 P   0  0  0  0  0  0  0  0  0  0  0  0
  197.7060  175.5240  139.3280 O   0  0  0  0  0  0  0  0  0  0  0  0
  197.5040  175.6520  137.0620 O   0  0  0  0  0  1  0  0  0  0  0  0
  197.9390  174.8600  138.1220 C   0  0  0  0  0  2  0  0  0  0  0  0
  1  8  1  6  0  0  0
  1  3  1  0  0  0  0
  1 35  1  0  0  0  0
  3  2  1  6  0  0  0
  3  4  1  0  0  0  0
  4  5  1  0  0  0  0
  4  6  1  0  0  0  0
  7  4  1  0  0  0  0
  9  8  1  0  0  0  0
 10 11  1  0  0  0  0
 10  9  1  0  0  0  0
 12 11  1  6  0  0  0
 12 24  1  0  0  0  0
 13 12  1  0  0  0  0
 14 19  2  0  0  0  0
 14 18  1  0  0  0  0
 15 13  2  0  0  0  0
 16 14  1  0  0  0  0
 17 13  1  0  0  0  0
 18 17  2  0  0  0  0
 19 15  1  0  0  0  0
 20 21  2  0  0  0  0
 22 20  2  0  0  0  0
 22 19  1  0  0  0  0
 24 23  1  6  0  0  0
 24 25  1  0  0  0  0
 25 26  1  6  0  0  0
 25 28  1  0  0  0  0
 28 29  2  1  0  0  0
 28 27  1  0  0  0  0
 30 32  1  0  0  0  0
 30 28  1  0  0  0  0
 31 30  1  0  0  0  0
 34 33  1  0  0  0  0
 34 32  1  0  0  0  0
 38 35  1  6  0  0  0
 38 39  1  0  0  0  0
 38 37  1  0  0  0  0
 39 37  1  0  0  0  0
 39 36  1  1  0  0  0
 42 41  1  1  0  0  0
 42 39  1  0  0  0  0
 42 40  1  0  0  0  0
 44 48  1  0  0  0  0
 44 51  1  1  0  0  0
 45 43  1  6  0  0  0
 45 47  1  0  0  0  0
 45 44  1  0  0  0  0
 46 48  1  0  0  0  0
 46 50  1  0  0  0  0
 47 50  1  0  0  0  0
 48 49  1  1  0  0  0
 50 42  1  1  0  0  0
 52 53  1  1  0  0  0
 52 44  1  0  0  0  0
 52 51  1  0  0  0  0
 55 64  1  0  0  0  0
 56 54  1  1  0  0  0
 56 60  1  0  0  0  0
 57 64  1  0  0  0  0
 58 61  1  0  0  0  0
 59 58  1  0  0  0  0
 60 62  1  6  0  0  0
 60 61  1  0  0  0  0
 61 53  1  1  0  0  0
 63 56  1  0  0  0  0
 63 59  1  1  0  0  0
 64 63  1  0  0  0  0
 64 56  1  0  0  0  0
 65 64  1  0  0  0  0
 66 67  1  0  0  0  0
 67 65  1  0  0  0  0
M  END
>  <MODEL>
7

>  <REMARK>
 VINA RESULT:      -4.4      1.549      2.027
  Name = 
  23 active torsions:
  status: ('A' for Active; 'I' for Inactive)
    1  A    between atoms: C_4  and  P_37
    2  A    between atoms: C_4  and  C_57
    3  A    between atoms: C_8  and  C_21
    4  A    between atoms: O_10  and  C_49
    5  A    between atoms: O_10  and  P_58
    6  A    between atoms: N_11  and  C_19
    7  A    between atoms: C_19  and  N_43
    8  A    between atoms: C_20  and  C_28
    9  A    between atoms: C_20  and  C_55
   10  A    between atoms: C_21  and  C_57
   11  A    between atoms: C_21  and  N_59
   12  A    between atoms: C_29  and  C_45
   13  A    between atoms: O_34  and  C_40
   14  A    between atoms: O_34  and  C_55
   15  A    between atoms: P_37  and  N_43
   16  A    between atoms: C_41  and  C_61
   17  A    between atoms: C_45  and  C_60
   18  A    between atoms: N_46  and  C_67
   19  A    between atoms: N_47  and  C_50
   20  A    between atoms: N_47  and  C_54
   21  A    between atoms: C_50  and  C_55
   22  A    between atoms: C_54  and  N_59
   23  A    between atoms: C_61  and  C_66
                            x       y       z     vdW  Elec       q    Type
                         _______ _______ _______ _____ _____    ______ ____

>  <TORSDO>
F 23

$$$$
=
 OpenBabel11062422483D

 67 72  0  0  1  0  0  0  0  0999 V2000
  190.3730  175.0650  146.5890 C   0  0  1  0  0  3  0  0  0  0  0  0
  188.3040  175.4320  147.8320 F   0  0  0  0  0  0  0  0  0  0  0  0
  189.0130  175.7810  146.6910 C   0  0  1  0  0  3  0  0  0  0  0  0
  189.1210  177.2970  146.5420 C   0  0  0  0  0  0  0  0  0  0  0  0
  190.1440  177.7740  147.3430 F   0  0  0  0  0  0  0  0  0  0  0  0
  187.9360  177.9130  146.9020 F   0  0  0  0  0  0  0  0  0  0  0  0
  189.4000  177.6080  145.2260 F   0  0  0  0  0  0  0  0  0  0  0  0
  190.2690  173.6850  145.9480 C   0  0  0  0  0  2  0  0  0  0  0  0
  189.3260  173.6880  144.8460 N   0  0  0  0  0  2  0  0  0  0  0  0
  190.0920  173.3430  143.6590 C   0  0  0  0  0  2  0  0  0  0  0  0
  189.9840  174.4050  142.6690 N   0  0  0  0  0  2  0  0  0  0  0  0
  188.5960  174.4910  142.2130 C   0  0  1  0  0  3  0  0  0  0  0  0
  187.9870  175.8210  142.5460 C   0  0  0  0  0  0  0  0  0  0  0  0
  186.7930  178.2840  143.1900 C   0  0  0  0  0  0  0  0  0  0  0  0
  186.8650  175.8630  143.3790 C   0  0  0  0  0  3  0  0  0  0  0  0
  186.1760  179.8900  143.5590 Cl  0  0  0  0  0  0  0  0  0  0  0  0
  188.5100  177.0120  142.0330 C   0  0  0  0  0  3  0  0  0  0  0  0
  187.9180  178.2320  142.3580 C   0  0  0  0  0  3  0  0  0  0  0  0
  186.2490  177.0770  143.7080 C   0  0  0  0  0  0  0  0  0  0  0  0
  184.6470  177.9430  145.2960 C   0  0  0  0  0  0  0  0  0  0  0  0
  184.1990  178.8560  146.0040 O   0  0  0  0  0  0  0  0  0  0  0  0
  185.0980  177.0020  144.5680 N   0  0  0  0  0  0  0  0  0  0  0  0
  188.1560  175.3650  140.0000 O   0  0  0  0  0  1  0  0  0  0  0  0
  188.4950  174.2070  140.7100 C   0  0  1  0  0  3  0  0  0  0  0  0
  189.7830  173.5860  140.1770 C   0  0  2  0  0  3  0  0  0  0  0  0
  190.7930  174.5470  140.0700 O   0  0  0  0  0  1  0  0  0  0  0  0
  188.1350  172.1460  138.5510 O   0  0  0  0  0  1  0  0  0  0  0  0
  189.4990  172.7990  138.5570 P   0  0  1  0  0  0  0  0  0  0  0  0
  189.5430  173.9830  137.3490 O   0  0  0  0  0  0  0  0  0  0  0  0
  190.7190  171.5780  138.2180 N   0  0  0  0  0  0  0  0  0  0  0  0
  190.2790  170.3300  138.8210 C   0  0  0  0  0  1  0  0  0  0  0  0
  190.7480  171.3660  136.7780 C   0  0  0  0  0  2  0  0  0  0  0  0
  192.8820  171.1880  135.8230 C   0  0  0  0  0  1  0  0  0  0  0  0
  191.8030  170.4240  136.4350 N   0  0  0  0  0  2  0  0  0  0  0  0
  191.2380  175.8420  145.8130 O   0  0  0  0  0  0  0  0  0  0  0  0
  194.6160  177.2440  146.5550 C   0  0  0  0  0  1  0  0  0  0  0  0
  193.4360  175.0160  146.2300 C   0  0  0  0  0  2  0  0  0  0  0  0
  192.3760  176.0470  146.6040 C   0  0  1  0  0  3  0  0  0  0  0  0
  193.5880  176.4490  145.7680 C   0  0  1  0  0  0  0  0  0  0  0  0
  192.6770  175.7310  143.6370 F   0  0  0  0  0  0  0  0  0  0  0  0
  192.7920  177.9470  144.0850 O   0  0  0  0  0  1  0  0  0  0  0  0
  193.4360  176.7170  144.2510 C   0  0  1  0  0  0  0  0  0  0  0  0
  197.7110  175.6470  142.9970 C   0  0  0  0  0  1  0  0  0  0  0  0
  195.6640  174.1640  142.9140 C   0  0  2  0  0  0  0  0  0  0  0  0
  196.5340  175.0790  143.7780 C   0  0  2  0  0  3  0  0  0  0  0  0
  194.7890  176.3470  142.0790 C   0  0  0  0  0  2  0  0  0  0  0  0
  195.7970  176.1180  144.4050 O   0  0  0  0  0  0  0  0  0  0  0  0
  194.7400  174.8350  141.8880 C   0  0  2  0  0  3  0  0  0  0  0  0
  193.4210  174.3830  141.9900 O   0  0  0  0  0  1  0  0  0  0  0  0
  194.8200  176.7550  143.5760 C   0  0  2  0  0  3  0  0  0  0  0  0
  195.1170  172.9670  143.6660 C   0  0  0  0  0  2  0  0  0  0  0  0
  196.2260  172.7680  142.6380 C   0  0  1  0  0  3  0  0  0  0  0  0
  195.6250  172.1180  141.3970 C   0  0  0  0  0  2  0  0  0  0  0  0
  197.6260  172.0500  137.5470 O   0  0  0  0  0  1  0  0  0  0  0  0
  195.9910  173.2580  134.9230 O   0  0  0  0  0  1  0  0  0  0  0  0
  196.5030  172.8730  137.7370 C   0  0  1  0  0  0  0  0  0  0  0  0
  195.0470  175.1020  136.3800 O   0  0  0  0  0  1  0  0  0  0  0  0
  197.1770  173.6490  140.3680 O   0  0  0  0  0  0  0  0  0  0  0  0
  197.8560  174.0560  139.1850 C   0  0  0  0  0  2  0  0  0  0  0  0
  195.5860  172.3940  138.8570 C   0  0  1  0  0  3  0  0  0  0  0  0
  196.4570  172.4270  140.1640 C   0  0  2  0  0  3  0  0  0  0  0  0
  194.4370  173.1890  138.9800 O   0  0  0  0  0  1  0  0  0  0  0  0
  196.7750  174.2780  138.1450 C   0  0  1  0  0  3  0  0  0  0  0  0
  196.3850  174.0660  136.3560 P   0  0  0  0  0  0  0  0  0  0  0  0
  197.8410  174.7540  135.8140 O   0  0  0  0  0  0  0  0  0  0  0  0
  197.0990  176.6430  134.7790 O   0  0  0  0  0  1  0  0  0  0  0  0
  197.5530  175.3410  134.5810 C   0  0  0  0  0  2  0  0  0  0  0  0
  1  8  1  6  0  0  0
  1  3  1  0  0  0  0
  3  2  1  1  0  0  0
  4  3  1  0  0  0  0
  4  6  1  0  0  0  0
  4  5  1  0  0  0  0
  7  4  1  0  0  0  0
  9  8  1  0  0  0  0
 10  9  1  0  0  0  0
 11 10  1  0  0  0  0
 12 13  1  0  0  0  0
 12 11  1  6  0  0  0
 13 15  1  0  0  0  0
 14 16  1  0  0  0  0
 14 19  1  0  0  0  0
 15 19  2  0  0  0  0
 17 18  1  0  0  0  0
 17 13  2  0  0  0  0
 18 14  2  0  0  0  0
 19 22  1  0  0  0  0
 20 21  2  0  0  0  0
 22 20  2  0  0  0  0
 24 23  1  6  0  0  0
 24 12  1  0  0  0  0
 25 26  1  6  0  0  0
 25 24  1  0  0  0  0
 27 28  1  0  0  0  0
 28 29  2  6  0  0  0
 28 25  1  0  0  0  0
 30 28  1  0  0  0  0
 30 31  1  0  0  0  0
 32 30  1  0  0  0  0
 33 34  1  0  0  0  0
 34 32  1  0  0  0  0
 35  1  1  0  0  0  0
 37 38  1  0  0  0  0
 38 35  1  6  0  0  0
 39 37  1  0  0  0  0
 39 36  1  1  0  0  0
 39 38  1  0  0  0  0
 41 42  1  0  0  0  0
 42 40  1  6  0  0  0
 42 39  1  0  0  0  0
 44 51  1  1  0  0  0
 44 45  1  0  0  0  0
 45 43  1  6  0  0  0
 45 47  1  0  0  0  0
 46 50  1  0  0  0  0
 48 49  1  1  0  0  0
 48 46  1  0  0  0  0
 48 44  1  0  0  0  0
 50 42  1  1  0  0  0
 50 47  1  0  0  0  0
 52 53  1  6  0  0  0
 52 44  1  0  0  0  0
 52 51  1  0  0  0  0
 55 64  1  0  0  0  0
 56 54  1  6  0  0  0
 56 63  1  0  0  0  0
 56 60  1  0  0  0  0
 59 58  1  0  0  0  0
 60 62  1  1  0  0  0
 60 61  1  0  0  0  0
 61 58  1  0  0  0  0
 61 53  1  1  0  0  0
 63 59  1  6  0  0  0
 64 57  1  0  0  0  0
 64 56  1  0  0  0  0
 64 63  1  0  0  0  0
 65 64  1  0  0  0  0
 67 66  1  0  0  0  0
 67 65  1  0  0  0  0
M  END
>  <MODEL>
8

>  <REMARK>
 VINA RESULT:      -4.3      2.960      5.907
  Name = 
  23 active torsions:
  status: ('A' for Active; 'I' for Inactive)
    1  A    between atoms: C_4  and  P_37
    2  A    between atoms: C_4  and  C_57
    3  A    between atoms: C_8  and  C_21
    4  A    between atoms: O_10  and  C_49
    5  A    between atoms: O_10  and  P_58
    6  A    between atoms: N_11  and  C_19
    7  A    between atoms: C_19  and  N_43
    8  A    between atoms: C_20  and  C_28
    9  A    between atoms: C_20  and  C_55
   10  A    between atoms: C_21  and  C_57
   11  A    between atoms: C_21  and  N_59
   12  A    between atoms: C_29  and  C_45
   13  A    between atoms: O_34  and  C_40
   14  A    between atoms: O_34  and  C_55
   15  A    between atoms: P_37  and  N_43
   16  A    between atoms: C_41  and  C_61
   17  A    between atoms: C_45  and  C_60
   18  A    between atoms: N_46  and  C_67
   19  A    between atoms: N_47  and  C_50
   20  A    between atoms: N_47  and  C_54
   21  A    between atoms: C_50  and  C_55
   22  A    between atoms: C_54  and  N_59
   23  A    between atoms: C_61  and  C_66
                            x       y       z     vdW  Elec       q    Type
                         _______ _______ _______ _____ _____    ______ ____

>  <TORSDO>
F 23

$$$$
=
 OpenBabel11062422483D

 67 72  0  0  1  0  0  0  0  0999 V2000
  188.2390  177.5910  145.1820 C   0  0  1  0  0  3  0  0  0  0  0  0
  188.7250  177.3800  147.5650 F   0  0  0  0  0  0  0  0  0  0  0  0
  187.7880  177.1160  146.5770 C   0  0  1  0  0  3  0  0  0  0  0  0
  186.4050  177.6320  146.9670 C   0  0  0  0  0  0  0  0  0  0  0  0
  186.2170  178.9030  146.4520 F   0  0  0  0  0  0  0  0  0  0  0  0
  186.2640  177.6730  148.3420 F   0  0  0  0  0  0  0  0  0  0  0  0
  185.4400  176.7910  146.4480 F   0  0  0  0  0  0  0  0  0  0  0  0
  189.7550  177.7070  145.0590 C   0  0  0  0  0  2  0  0  0  0  0  0
  190.3310  176.4970  144.5050 N   0  0  0  0  0  2  0  0  0  0  0  0
  191.4970  176.1950  145.3190 C   0  0  0  0  0  2  0  0  0  0  0  0
  192.6850  176.1240  144.4810 N   0  0  0  0  0  2  0  0  0  0  0  0
  192.6850  174.8500  143.7610 C   0  0  1  0  0  3  0  0  0  0  0  0
  193.4520  174.9430  142.4750 C   0  0  0  0  0  0  0  0  0  0  0  0
  194.9250  175.1630  140.0900 C   0  0  0  0  0  0  0  0  0  0  0  0
  194.7040  175.5640  142.4770 C   0  0  0  0  0  3  0  0  0  0  0  0
  195.7670  175.1860  138.5450 Cl  0  0  0  0  0  0  0  0  0  0  0  0
  192.9350  174.4350  141.2800 C   0  0  0  0  0  3  0  0  0  0  0  0
  193.6700  174.5420  140.0990 C   0  0  0  0  0  3  0  0  0  0  0  0
  195.4540  175.6910  141.3000 C   0  0  0  0  0  0  0  0  0  0  0  0
  197.2020  176.8750  142.4740 C   0  0  0  0  0  0  0  0  0  0  0  0
  197.6750  177.3830  143.5010 O   0  0  0  0  0  0  0  0  0  0  0  0
  196.7260  176.3510  141.4160 N   0  0  0  0  0  0  0  0  0  0  0  0
  192.6710  173.7670  145.9250 O   0  0  0  0  0  1  0  0  0  0  0  0
  193.2340  173.7230  144.6430 C   0  0  1  0  0  3  0  0  0  0  0  0
  193.0240  172.3590  143.9920 C   0  0  2  0  0  3  0  0  0  0  0  0
  191.7150  171.9100  144.1860 O   0  0  0  0  0  1  0  0  0  0  0  0
  194.5910  171.5290  146.0620 O   0  0  0  0  0  1  0  0  0  0  0  0
  194.2060  171.1380  144.6530 P   0  0  1  0  0  0  0  0  0  0  0  0
  193.4690  169.6160  144.6910 O   0  0  0  0  0  0  0  0  0  0  0  0
  195.6580  171.0560  143.6650 N   0  0  0  0  0  0  0  0  0  0  0  0
  195.4560  171.9090  142.5050 C   0  0  0  0  0  1  0  0  0  0  0  0
  196.7520  171.6360  144.4330 C   0  0  0  0  0  2  0  0  0  0  0  0
  197.2140  173.8310  145.1180 C   0  0  0  0  0  1  0  0  0  0  0  0
  197.0420  172.9770  143.9500 N   0  0  0  0  0  2  0  0  0  0  0  0
  187.7930  176.6760  144.2250 O   0  0  0  0  0  0  0  0  0  0  0  0
  185.1750  177.1800  141.6130 C   0  0  0  0  0  1  0  0  0  0  0  0
  186.9270  178.4760  142.9200 C   0  0  0  0  0  2  0  0  0  0  0  0
  186.6040  177.2130  143.7130 C   0  0  1  0  0  3  0  0  0  0  0  0
  186.5810  177.1980  142.1860 C   0  0  1  0  0  0  0  0  0  0  0  0
  187.2990  176.1260  140.1320 F   0  0  0  0  0  0  0  0  0  0  0  0
  188.7700  177.4290  141.2570 O   0  0  0  0  0  1  0  0  0  0  0  0
  187.7220  176.5140  141.3950 C   0  0  1  0  0  0  0  0  0  0  0  0
  188.3680  172.1610  142.6700 C   0  0  0  0  0  1  0  0  0  0  0  0
  188.6510  173.1470  140.3590 C   0  0  2  0  0  0  0  0  0  0  0  0
  187.7220  172.9820  141.5630 C   0  0  2  0  0  3  0  0  0  0  0  0
  189.6830  174.8850  141.8230 C   0  0  0  0  0  2  0  0  0  0  0  0
  187.2400  174.2170  142.0680 O   0  0  0  0  0  0  0  0  0  0  0  0
  189.8150  174.1380  140.5000 C   0  0  2  0  0  3  0  0  0  0  0  0
  189.8640  175.0490  139.4400 O   0  0  0  0  0  1  0  0  0  0  0  0
  188.2140  175.2620  142.1470 C   0  0  2  0  0  3  0  0  0  0  0  0
  187.9260  173.1100  139.0280 C   0  0  0  0  0  2  0  0  0  0  0  0
  188.7930  171.9280  139.4470 C   0  0  1  0  0  3  0  0  0  0  0  0
  190.0720  171.9470  138.6180 C   0  0  0  0  0  2  0  0  0  0  0  0
  192.4410  168.3290  138.9780 O   0  0  0  0  0  1  0  0  0  0  0  0
  195.4120  168.2610  137.5010 O   0  0  0  0  0  1  0  0  0  0  0  0
  193.0530  169.5280  138.5770 C   0  0  1  0  0  0  0  0  0  0  0  0
  195.7820  170.6760  138.1690 O   0  0  0  0  0  1  0  0  0  0  0  0
  191.5850  171.1830  140.3330 O   0  0  0  0  0  0  0  0  0  0  0  0
  192.5920  170.2540  140.7190 C   0  0  0  0  0  2  0  0  0  0  0  0
  192.0820  170.5200  137.9450 C   0  0  1  0  0  3  0  0  0  0  0  0
  191.0230  170.8460  139.0590 C   0  0  2  0  0  3  0  0  0  0  0  0
  192.7280  171.6780  137.4880 O   0  0  0  0  0  1  0  0  0  0  0  0
  193.6690  170.3490  139.6550 C   0  0  1  0  0  3  0  0  0  0  0  0
  194.8690  169.3450  138.6810 P   0  0  0  0  0  0  0  0  0  0  0  0
  195.4780  168.5090  140.0290 O   0  0  0  0  0  0  0  0  0  0  0  0
  197.7490  168.5670  139.8610 O   0  0  0  0  0  1  0  0  0  0  0  0
  196.6340  169.1910  140.4150 C   0  0  0  0  0  2  0  0  0  0  0  0
  1  8  1  1  0  0  0
  1  3  1  0  0  0  0
  3  4  1  0  0  0  0
  3  2  1  1  0  0  0
  4  6  1  0  0  0  0
  5  4  1  0  0  0  0
  7  4  1  0  0  0  0
  9  8  1  0  0  0  0
  9 10  1  0  0  0  0
 11 10  1  0  0  0  0
 12 11  1  1  0  0  0
 12 24  1  0  0  0  0
 13 15  1  0  0  0  0
 13 12  1  0  0  0  0
 14 18  2  0  0  0  0
 14 19  1  0  0  0  0
 16 14  1  0  0  0  0
 17 13  2  0  0  0  0
 18 17  1  0  0  0  0
 19 22  1  0  0  0  0
 19 15  2  0  0  0  0
 20 21  2  0  0  0  0
 22 20  2  0  0  0  0
 24 23  1  1  0  0  0
 25 26  1  1  0  0  0
 25 24  1  0  0  0  0
 25 28  1  0  0  0  0
 28 29  2  1  0  0  0
 28 27  1  0  0  0  0
 30 32  1  0  0  0  0
 30 28  1  0  0  0  0
 31 30  1  0  0  0  0
 34 32  1  0  0  0  0
 34 33  1  0  0  0  0
 35  1  1  0  0  0  0
 37 38  1  0  0  0  0
 38 35  1  6  0  0  0
 39 36  1  6  0  0  0
 39 37  1  0  0  0  0
 39 38  1  0  0  0  0
 41 42  1  0  0  0  0
 42 40  1  6  0  0  0
 42 39  1  0  0  0  0
 44 51  1  6  0  0  0
 44 48  1  0  0  0  0
 44 45  1  0  0  0  0
 45 47  1  0  0  0  0
 45 43  1  1  0  0  0
 46 50  1  0  0  0  0
 47 50  1  0  0  0  0
 48 49  1  6  0  0  0
 48 46  1  0  0  0  0
 50 42  1  6  0  0  0
 51 52  1  0  0  0  0
 52 53  1  6  0  0  0
 52 44  1  0  0  0  0
 55 64  1  0  0  0  0
 56 64  1  0  0  0  0
 56 54  1  1  0  0  0
 56 63  1  0  0  0  0
 57 64  1  0  0  0  0
 58 59  1  0  0  0  0
 60 62  1  1  0  0  0
 60 56  1  0  0  0  0
 60 61  1  0  0  0  0
 61 53  1  6  0  0  0
 61 58  1  0  0  0  0
 63 59  1  1  0  0  0
 64 63  1  0  0  0  0
 64 65  1  0  0  0  0
 65 67  1  0  0  0  0
 66 67  1  0  0  0  0
M  END
>  <MODEL>
9

>  <REMARK>
 VINA RESULT:      -4.3      2.863      5.818
  Name = 
  23 active torsions:
  status: ('A' for Active; 'I' for Inactive)
    1  A    between atoms: C_4  and  P_37
    2  A    between atoms: C_4  and  C_57
    3  A    between atoms: C_8  and  C_21
    4  A    between atoms: O_10  and  C_49
    5  A    between atoms: O_10  and  P_58
    6  A    between atoms: N_11  and  C_19
    7  A    between atoms: C_19  and  N_43
    8  A    between atoms: C_20  and  C_28
    9  A    between atoms: C_20  and  C_55
   10  A    between atoms: C_21  and  C_57
   11  A    between atoms: C_21  and  N_59
   12  A    between atoms: C_29  and  C_45
   13  A    between atoms: O_34  and  C_40
   14  A    between atoms: O_34  and  C_55
   15  A    between atoms: P_37  and  N_43
   16  A    between atoms: C_41  and  C_61
   17  A    between atoms: C_45  and  C_60
   18  A    between atoms: N_46  and  C_67
   19  A    between atoms: N_47  and  C_50
   20  A    between atoms: N_47  and  C_54
   21  A    between atoms: C_50  and  C_55
   22  A    between atoms: C_54  and  N_59
   23  A    between atoms: C_61  and  C_66
                            x       y       z     vdW  Elec       q    Type
                         _______ _______ _______ _____ _____    ______ ____

>  <TORSDO>
F 23

$$$$
