=
 OpenBabel11062419153D

 50 53  0  0  1  0  0  0  0  0999 V2000
  187.7330  176.6090  145.7660 C   0  0  1  0  0  3  0  0  0  0  0  0
  185.2720  179.4260  144.8360 C   0  0  0  0  0  2  0  0  0  0  0  0
  184.3720  178.2920  146.7180 C   0  0  0  0  0  2  0  0  0  0  0  0
  184.0670  178.8020  145.3830 N   0  0  0  0  0  2  0  0  0  0  0  0
  186.3600  178.3750  144.6350 C   0  0  0  0  0  2  0  0  0  0  0  0
  186.6860  177.7100  145.9690 C   0  0  0  0  0  3  0  0  0  0  0  0
  185.4070  177.1760  146.6240 C   0  0  0  0  0  2  0  0  0  0  0  0
  189.1970  177.5260  144.1310 O   0  0  0  0  0  0  0  0  0  0  0  0
  187.9680  175.6750  143.4030 N   0  0  0  0  0  2  0  0  0  0  0  0
  188.3590  176.6260  144.4030 C   0  0  0  0  0  0  0  0  0  0  0  0
  188.4180  175.6990  142.0120 C   0  0  1  0  0  3  0  0  0  0  0  0
  189.7570  173.7100  139.6250 C   0  0  0  0  0  0  0  0  0  0  0  0
  190.1650  173.6130  138.3680 C   0  0  0  0  0  2  0  0  0  0  0  0
  188.6000  174.3860  139.9860 O   0  0  0  0  0  0  0  0  0  0  0  0
  190.4510  173.0890  140.7840 C   0  0  2  0  0  3  0  0  0  0  0  0
  189.5760  173.0310  143.0110 O   0  0  0  0  0  0  0  0  0  0  0  0
  189.4850  173.4460  141.8670 C   0  0  0  0  0  0  0  0  0  0  0  0
  188.3530  174.3030  141.3830 C   0  0  1  0  0  3  0  0  0  0  0  0
  191.7910  173.7800  141.0190 C   0  0  0  0  0  2  0  0  0  0  0  0
  193.1530  172.0320  142.5780 S   0  0  0  0  0  0  0  0  0  0  0  0
  192.9030  172.7900  141.1770 C   0  0  0  0  0  2  0  0  0  0  0  0
  194.6060  171.0260  142.2340 C   0  0  0  0  0  2  0  0  0  0  0  0
  194.7280  169.9800  145.5760 C   0  0  0  0  0  2  0  0  0  0  0  0
  194.8650  170.0640  143.3780 C   0  0  0  0  0  3  0  0  0  0  0  0
  194.0010  170.3440  144.4470 O   0  0  0  0  0  0  0  0  0  0  0  0
  196.1640  169.8880  145.1510 C   0  0  0  0  0  2  0  0  0  0  0  0
  196.1990  170.1760  143.7910 O   0  0  0  0  0  0  0  0  0  0  0  0
  186.9970  177.4720  140.6020 C   0  0  0  0  0  3  0  0  0  0  0  0
  187.6380  176.6730  141.2370 C   0  0  0  0  0  0  0  0  0  0  0  0
  188.7190  176.6520  146.7570 O   0  0  0  0  0  0  0  0  0  0  0  0
  189.1590  175.3340  146.8760 C   0  0  0  0  0  2  0  0  0  0  0  0
  190.6220  175.3170  147.3200 C   0  0  0  0  0  2  0  0  0  0  0  0
  191.8930  175.6270  144.0640 C   0  0  0  0  0  1  0  0  0  0  0  0
  192.5630  176.7310  147.1940 C   0  0  0  0  0  2  0  0  0  0  0  0
  192.1600  175.1420  145.4860 C   0  0  2  0  0  3  0  0  0  0  0  0
  191.5110  176.0620  146.4230 N   0  0  0  0  0  0  0  0  0  0  0  0
  193.6460  175.1120  145.8480 C   0  0  2  0  0  3  0  0  0  0  0  0
  193.8900  176.4230  146.5370 C   0  0  0  0  0  2  0  0  0  0  0  0
  195.5870  173.9990  144.6660 C   0  0  0  0  0  0  0  0  0  0  0  0
  194.5230  174.9550  144.6950 N   0  0  0  0  0  2  0  0  0  0  0  0
  196.2470  174.5580  142.2720 C   0  0  0  0  0  0  0  0  0  0  0  0
  196.3870  173.8220  143.4930 N   0  0  0  0  0  2  0  0  0  0  0  0
  195.8240  173.2920  145.6810 O   0  0  0  0  0  0  0  0  0  0  0  0
  195.3950  175.4800  142.1580 O   0  0  0  0  0  0  0  0  0  0  0  0
  197.1280  174.2250  141.1160 C   0  0  0  0  0  2  0  0  0  0  0  0
  196.3470  173.5300  140.0030 C   0  0  0  0  0  2  0  0  0  0  0  0
  197.3440  175.2940  138.6960 O   0  0  0  0  0  1  0  0  0  0  0  0
  196.6420  174.0890  138.6110 C   0  0  2  0  0  3  0  0  0  0  0  0
  194.3190  174.9930  138.6360 C   0  0  0  0  0  1  0  0  0  0  0  0
  195.3630  174.2710  137.8060 C   0  0  0  0  0  2  0  0  0  0  0  0
  1 10  1  6  0  0  0
  1  6  1  0  0  0  0
  1 30  1  0  0  0  0
  2  4  1  0  0  0  0
  4  3  1  0  0  0  0
  5  2  1  0  0  0  0
  5  6  1  0  0  0  0
  6  7  1  0  0  0  0
  7  3  1  0  0  0  0
  8 10  2  0  0  0  0
  9 10  1  0  0  0  0
 11 29  1  6  0  0  0
 11  9  1  0  0  0  0
 12 14  1  0  0  0  0
 12 15  1  0  0  0  0
 13 12  2  0  0  0  0
 14 18  1  0  0  0  0
 15 19  1  1  0  0  0
 15 17  1  0  0  0  0
 17 16  2  0  0  0  0
 18 17  1  0  0  0  0
 18 11  1  1  0  0  0
 19 21  1  0  0  0  0
 21 20  1  0  0  0  0
 22 20  1  0  0  0  0
 22 24  1  0  0  0  0
 24 27  1  0  0  0  0
 24 25  1  0  0  0  0
 25 23  1  0  0  0  0
 26 23  1  0  0  0  0
 27 26  1  0  0  0  0
 28 29  3  0  0  0  0
 30 31  1  0  0  0  0
 31 32  1  0  0  0  0
 35 33  1  6  0  0  0
 35 37  1  0  0  0  0
 35 36  1  0  0  0  0
 36 34  1  0  0  0  0
 36 32  1  0  0  0  0
 37 40  1  6  0  0  0
 37 38  1  0  0  0  0
 38 34  1  0  0  0  0
 39 40  1  0  0  0  0
 39 43  2  0  0  0  0
 41 42  1  0  0  0  0
 42 39  1  0  0  0  0
 44 41  2  0  0  0  0
 45 41  1  0  0  0  0
 46 45  1  0  0  0  0
 48 47  1  1  0  0  0
 48 46  1  0  0  0  0
 50 48  1  0  0  0  0
 50 49  1  0  0  0  0
M  END
>  <MODEL>
1

>  <REMARK>
 VINA RESULT:      -6.2      0.000      0.000
  Name = 
  18 active torsions:
  status: ('A' for Active; 'I' for Inactive)
    1  A    between atoms: C_2  and  C_22
    2  A    between atoms: C_2  and  C_44
    3  A    between atoms: N_7  and  C_23
    4  A    between atoms: C_11  and  C_12
    5  A    between atoms: C_11  and  O_32
    6  A    between atoms: C_12  and  N_18
    7  A    between atoms: C_16  and  C_22
    8  A    between atoms: C_20  and  C_47
    9  A    between atoms: C_25  and  C_28
   10  A    between atoms: S_27  and  C_48
   11  A    between atoms: C_28  and  O_32
   12  A    between atoms: C_28  and  C_33
   13  A    between atoms: N_29  and  C_38
   14  A    between atoms: C_30  and  C_48
   15  A    between atoms: C_34  and  C_47
   16  A    between atoms: C_38  and  C_46
   17  A    between atoms: C_38  and  C_50
   18  A    between atoms: C_40  and  C_44
                            x       y       z     vdW  Elec       q    Type
                         _______ _______ _______ _____ _____    ______ ____

>  <TORSDO>
F 18

$$$$
=
 OpenBabel11062419153D

 50 53  0  0  1  0  0  0  0  0999 V2000
  193.5890  174.2920  139.3600 C   0  0  1  0  0  3  0  0  0  0  0  0
  191.4360  174.1860  136.1650 C   0  0  0  0  0  2  0  0  0  0  0  0
  193.3130  175.5660  135.7090 C   0  0  0  0  0  2  0  0  0  0  0  0
  191.8570  175.4760  135.6190 N   0  0  0  0  0  2  0  0  0  0  0  0
  191.7610  174.1170  137.6550 C   0  0  0  0  0  2  0  0  0  0  0  0
  193.2620  174.2970  137.8630 C   0  0  0  0  0  3  0  0  0  0  0  0
  193.7450  175.5770  137.1710 C   0  0  0  0  0  2  0  0  0  0  0  0
  194.4090  172.2270  140.2090 O   0  0  0  0  0  0  0  0  0  0  0  0
  192.0870  172.4750  140.3350 N   0  0  0  0  0  2  0  0  0  0  0  0
  193.3980  172.9520  140.0070 C   0  0  0  0  0  0  0  0  0  0  0  0
  191.7920  171.1340  140.8380 C   0  0  1  0  0  3  0  0  0  0  0  0
  189.8410  172.3010  143.3440 C   0  0  0  0  0  0  0  0  0  0  0  0
  189.7500  172.5780  144.6360 C   0  0  0  0  0  2  0  0  0  0  0  0
  190.4680  171.1590  142.8650 O   0  0  0  0  0  0  0  0  0  0  0  0
  189.2640  173.1410  142.2620 C   0  0  2  0  0  3  0  0  0  0  0  0
  189.1890  172.5110  139.9530 O   0  0  0  0  0  0  0  0  0  0  0  0
  189.5880  172.2810  141.0840 C   0  0  0  0  0  0  0  0  0  0  0  0
  190.3890  171.0660  141.4490 C   0  0  1  0  0  3  0  0  0  0  0  0
  190.0160  174.4670  142.1740 C   0  0  0  0  0  2  0  0  0  0  0  0
  187.4960  175.4290  142.4270 S   0  0  0  0  0  0  0  0  0  0  0  0
  189.0840  175.6360  142.2440 C   0  0  0  0  0  2  0  0  0  0  0  0
  186.8670  177.1160  142.3950 C   0  0  0  0  0  2  0  0  0  0  0  0
  184.1820  178.4750  140.6000 C   0  0  0  0  0  2  0  0  0  0  0  0
  185.4740  177.1490  141.7950 C   0  0  0  0  0  3  0  0  0  0  0  0
  185.4670  177.9420  140.6380 O   0  0  0  0  0  0  0  0  0  0  0  0
  183.6050  178.3050  141.9730 C   0  0  0  0  0  2  0  0  0  0  0  0
  184.5700  177.6580  142.7370 O   0  0  0  0  0  0  0  0  0  0  0  0
  192.0990  169.3210  138.8960 C   0  0  0  0  0  3  0  0  0  0  0  0
  191.9610  170.1380  139.7710 C   0  0  0  0  0  0  0  0  0  0  0  0
  194.8800  174.7730  139.6020 O   0  0  0  0  0  0  0  0  0  0  0  0
  194.7460  175.6050  140.7140 C   0  0  0  0  0  2  0  0  0  0  0  0
  195.8450  175.2900  141.7290 C   0  0  0  0  0  2  0  0  0  0  0  0
  193.2630  173.9090  143.6630 C   0  0  0  0  0  1  0  0  0  0  0  0
  195.9000  176.0010  144.0250 C   0  0  0  0  0  2  0  0  0  0  0  0
  193.8790  175.1870  143.1010 C   0  0  2  0  0  3  0  0  0  0  0  0
  195.3340  175.0340  143.0800 N   0  0  0  0  0  0  0  0  0  0  0  0
  193.5730  176.4280  143.9410 C   0  0  2  0  0  3  0  0  0  0  0  0
  194.7640  176.5720  144.8440 C   0  0  0  0  0  2  0  0  0  0  0  0
  191.2620  177.2480  144.5690 C   0  0  0  0  0  0  0  0  0  0  0  0
  192.3410  176.3200  144.7140 N   0  0  0  0  0  2  0  0  0  0  0  0
  189.7630  176.0180  146.2190 C   0  0  0  0  0  0  0  0  0  0  0  0
  190.0390  177.0740  145.2910 N   0  0  0  0  0  2  0  0  0  0  0  0
  191.3790  178.2300  143.7890 O   0  0  0  0  0  0  0  0  0  0  0  0
  190.6360  175.1540  146.5030 O   0  0  0  0  0  0  0  0  0  0  0  0
  188.4190  175.9440  146.8590 C   0  0  0  0  0  2  0  0  0  0  0  0
  187.3760  176.7150  146.0540 C   0  0  0  0  0  2  0  0  0  0  0  0
  186.2330  176.7230  148.1770 O   0  0  0  0  0  1  0  0  0  0  0  0
  186.2660  177.3200  146.9140 C   0  0  2  0  0  3  0  0  0  0  0  0
  184.2810  178.5730  146.0750 C   0  0  0  0  0  1  0  0  0  0  0  0
  184.9110  177.2020  146.2320 C   0  0  0  0  0  2  0  0  0  0  0  0
  1 30  1  6  0  0  0
  1 10  1  0  0  0  0
  2  5  1  0  0  0  0
  3  7  1  0  0  0  0
  4  3  1  0  0  0  0
  4  2  1  0  0  0  0
  5  6  1  0  0  0  0
  6  1  1  0  0  0  0
  7  6  1  0  0  0  0
  9 11  1  0  0  0  0
 10  8  2  0  0  0  0
 10  9  1  0  0  0  0
 11 29  1  6  0  0  0
 12 13  2  0  0  0  0
 14 12  1  0  0  0  0
 15 19  1  6  0  0  0
 15 12  1  0  0  0  0
 16 17  2  0  0  0  0
 17 18  1  0  0  0  0
 17 15  1  0  0  0  0
 18 11  1  6  0  0  0
 18 14  1  0  0  0  0
 19 21  1  0  0  0  0
 21 20  1  0  0  0  0
 22 20  1  0  0  0  0
 23 25  1  0  0  0  0
 23 26  1  0  0  0  0
 24 22  1  0  0  0  0
 24 27  1  0  0  0  0
 25 24  1  0  0  0  0
 26 27  1  0  0  0  0
 28 29  3  0  0  0  0
 30 31  1  0  0  0  0
 31 32  1  0  0  0  0
 32 36  1  0  0  0  0
 34 38  1  0  0  0  0
 35 33  1  1  0  0  0
 35 37  1  0  0  0  0
 36 35  1  0  0  0  0
 36 34  1  0  0  0  0
 37 40  1  1  0  0  0
 37 38  1  0  0  0  0
 39 40  1  0  0  0  0
 39 42  1  0  0  0  0
 41 44  2  0  0  0  0
 41 45  1  0  0  0  0
 42 41  1  0  0  0  0
 43 39  2  0  0  0  0
 46 45  1  0  0  0  0
 46 48  1  0  0  0  0
 48 47  1  1  0  0  0
 49 50  1  0  0  0  0
 50 48  1  0  0  0  0
M  END
>  <MODEL>
2

>  <REMARK>
 VINA RESULT:      -5.9      2.827      9.018
  Name = 
  18 active torsions:
  status: ('A' for Active; 'I' for Inactive)
    1  A    between atoms: C_2  and  C_22
    2  A    between atoms: C_2  and  C_44
    3  A    between atoms: N_7  and  C_23
    4  A    between atoms: C_11  and  C_12
    5  A    between atoms: C_11  and  O_32
    6  A    between atoms: C_12  and  N_18
    7  A    between atoms: C_16  and  C_22
    8  A    between atoms: C_20  and  C_47
    9  A    between atoms: C_25  and  C_28
   10  A    between atoms: S_27  and  C_48
   11  A    between atoms: C_28  and  O_32
   12  A    between atoms: C_28  and  C_33
   13  A    between atoms: N_29  and  C_38
   14  A    between atoms: C_30  and  C_48
   15  A    between atoms: C_34  and  C_47
   16  A    between atoms: C_38  and  C_46
   17  A    between atoms: C_38  and  C_50
   18  A    between atoms: C_40  and  C_44
                            x       y       z     vdW  Elec       q    Type
                         _______ _______ _______ _____ _____    ______ ____

>  <TORSDO>
F 18

$$$$
=
 OpenBabel11062419153D

 50 53  0  0  1  0  0  0  0  0999 V2000
  188.5480  176.6950  145.9290 C   0  0  1  0  0  3  0  0  0  0  0  0
  185.0550  177.8030  144.7350 C   0  0  0  0  0  2  0  0  0  0  0  0
  185.4200  178.7830  146.8660 C   0  0  0  0  0  2  0  0  0  0  0  0
  184.4710  178.0190  146.0590 N   0  0  0  0  0  2  0  0  0  0  0  0
  186.2980  176.9250  144.8490 C   0  0  0  0  0  2  0  0  0  0  0  0
  187.3220  177.5980  145.7580 C   0  0  0  0  0  3  0  0  0  0  0  0
  186.6820  177.9610  147.1030 C   0  0  0  0  0  2  0  0  0  0  0  0
  189.7500  176.9840  143.8960 O   0  0  0  0  0  0  0  0  0  0  0  0
  188.8480  174.8470  144.1940 N   0  0  0  0  0  2  0  0  0  0  0  0
  189.1020  176.1890  144.6290 C   0  0  0  0  0  0  0  0  0  0  0  0
  189.2260  174.3110  142.8880 C   0  0  1  0  0  3  0  0  0  0  0  0
  190.1510  171.4460  141.3440 C   0  0  0  0  0  0  0  0  0  0  0  0
  190.4540  170.8560  140.1970 C   0  0  0  0  0  2  0  0  0  0  0  0
  189.1080  172.3540  141.4670 O   0  0  0  0  0  0  0  0  0  0  0  0
  190.8490  171.1880  142.6310 C   0  0  2  0  0  3  0  0  0  0  0  0
  190.1340  172.0390  144.7520 O   0  0  0  0  0  0  0  0  0  0  0  0
  190.0110  172.0310  143.5370 C   0  0  0  0  0  0  0  0  0  0  0  0
  188.9540  172.8050  142.8060 C   0  0  1  0  0  3  0  0  0  0  0  0
  192.2740  171.7300  142.5690 C   0  0  0  0  0  2  0  0  0  0  0  0
  192.8530  169.1510  143.1590 S   0  0  0  0  0  0  0  0  0  0  0  0
  193.2880  170.6390  142.7180 C   0  0  0  0  0  2  0  0  0  0  0  0
  194.4280  168.2820  143.2340 C   0  0  0  0  0  2  0  0  0  0  0  0
  194.8180  169.6940  146.4180 C   0  0  0  0  0  2  0  0  0  0  0  0
  195.0980  168.5170  144.5750 C   0  0  0  0  0  3  0  0  0  0  0  0
  194.1370  168.8560  145.5400 O   0  0  0  0  0  0  0  0  0  0  0  0
  196.0530  170.1540  145.7020 C   0  0  0  0  0  2  0  0  0  0  0  0
  196.0450  169.5430  144.4520 O   0  0  0  0  0  0  0  0  0  0  0  0
  187.9700  175.6370  140.9350 C   0  0  0  0  0  3  0  0  0  0  0  0
  188.5350  175.0390  141.8150 C   0  0  0  0  0  0  0  0  0  0  0  0
  189.5490  177.3270  146.6740 O   0  0  0  0  0  0  0  0  0  0  0  0
  190.3130  176.2840  147.1980 C   0  0  0  0  0  2  0  0  0  0  0  0
  191.7400  176.7680  147.4540 C   0  0  0  0  0  2  0  0  0  0  0  0
  194.8260  176.6050  145.7920 C   0  0  0  0  0  1  0  0  0  0  0  0
  192.1770  174.6130  146.4810 C   0  0  0  0  0  2  0  0  0  0  0  0
  193.3090  176.5200  145.6550 C   0  0  2  0  0  3  0  0  0  0  0  0
  192.7650  175.9000  146.8640 N   0  0  0  0  0  0  0  0  0  0  0  0
  192.8540  175.6660  144.4710 C   0  0  2  0  0  3  0  0  0  0  0  0
  192.6060  174.3080  145.0620 C   0  0  0  0  0  2  0  0  0  0  0  0
  193.4580  175.3460  142.0340 C   0  0  0  0  0  0  0  0  0  0  0  0
  193.8320  175.5950  143.3920 N   0  0  0  0  0  2  0  0  0  0  0  0
  195.8390  175.5730  141.1630 C   0  0  0  0  0  0  0  0  0  0  0  0
  194.4350  175.3520  140.9890 N   0  0  0  0  0  2  0  0  0  0  0  0
  192.2520  175.1260  141.7450 O   0  0  0  0  0  0  0  0  0  0  0  0
  196.3360  175.7470  142.3080 O   0  0  0  0  0  0  0  0  0  0  0  0
  196.7260  175.5970  139.9650 C   0  0  0  0  0  2  0  0  0  0  0  0
  196.2790  174.5780  138.9200 C   0  0  0  0  0  2  0  0  0  0  0  0
  194.2940  174.8730  137.5830 O   0  0  0  0  0  1  0  0  0  0  0  0
  195.6450  175.2120  137.6810 C   0  0  2  0  0  3  0  0  0  0  0  0
  197.5720  175.7370  136.1890 C   0  0  0  0  0  1  0  0  0  0  0  0
  196.3890  174.8150  136.4150 C   0  0  0  0  0  2  0  0  0  0  0  0
  1 10  1  6  0  0  0
  1 30  1  0  0  0  0
  2  5  1  0  0  0  0
  2  4  1  0  0  0  0
  3  7  1  0  0  0  0
  4  3  1  0  0  0  0
  5  6  1  0  0  0  0
  6  1  1  0  0  0  0
  6  7  1  0  0  0  0
  8 10  2  0  0  0  0
  9 10  1  0  0  0  0
 11 29  1  6  0  0  0
 11  9  1  0  0  0  0
 12 14  1  0  0  0  0
 12 15  1  0  0  0  0
 13 12  2  0  0  0  0
 14 18  1  0  0  0  0
 15 19  1  6  0  0  0
 15 17  1  0  0  0  0
 17 16  2  0  0  0  0
 18 11  1  6  0  0  0
 18 17  1  0  0  0  0
 19 21  1  0  0  0  0
 20 22  1  0  0  0  0
 21 20  1  0  0  0  0
 22 24  1  0  0  0  0
 24 25  1  0  0  0  0
 25 23  1  0  0  0  0
 26 23  1  0  0  0  0
 27 24  1  0  0  0  0
 27 26  1  0  0  0  0
 28 29  3  0  0  0  0
 30 31  1  0  0  0  0
 31 32  1  0  0  0  0
 34 36  1  0  0  0  0
 35 33  1  1  0  0  0
 35 36  1  0  0  0  0
 36 32  1  0  0  0  0
 37 40  1  6  0  0  0
 37 38  1  0  0  0  0
 37 35  1  0  0  0  0
 38 34  1  0  0  0  0
 39 40  1  0  0  0  0
 41 44  2  0  0  0  0
 42 41  1  0  0  0  0
 42 39  1  0  0  0  0
 43 39  2  0  0  0  0
 45 41  1  0  0  0  0
 46 45  1  0  0  0  0
 48 47  1  6  0  0  0
 48 46  1  0  0  0  0
 49 50  1  0  0  0  0
 50 48  1  0  0  0  0
M  END
>  <MODEL>
3

>  <REMARK>
 VINA RESULT:      -5.7      1.773      2.271
  Name = 
  18 active torsions:
  status: ('A' for Active; 'I' for Inactive)
    1  A    between atoms: C_2  and  C_22
    2  A    between atoms: C_2  and  C_44
    3  A    between atoms: N_7  and  C_23
    4  A    between atoms: C_11  and  C_12
    5  A    between atoms: C_11  and  O_32
    6  A    between atoms: C_12  and  N_18
    7  A    between atoms: C_16  and  C_22
    8  A    between atoms: C_20  and  C_47
    9  A    between atoms: C_25  and  C_28
   10  A    between atoms: S_27  and  C_48
   11  A    between atoms: C_28  and  O_32
   12  A    between atoms: C_28  and  C_33
   13  A    between atoms: N_29  and  C_38
   14  A    between atoms: C_30  and  C_48
   15  A    between atoms: C_34  and  C_47
   16  A    between atoms: C_38  and  C_46
   17  A    between atoms: C_38  and  C_50
   18  A    between atoms: C_40  and  C_44
                            x       y       z     vdW  Elec       q    Type
                         _______ _______ _______ _____ _____    ______ ____

>  <TORSDO>
F 18

$$$$
=
 OpenBabel11062419153D

 50 53  0  0  1  0  0  0  0  0999 V2000
  188.2940  176.4230  146.0040 C   0  0  1  0  0  3  0  0  0  0  0  0
  185.0520  178.1960  144.9110 C   0  0  0  0  0  2  0  0  0  0  0  0
  185.1880  178.3650  147.2750 C   0  0  0  0  0  2  0  0  0  0  0  0
  184.3130  178.0100  146.1600 N   0  0  0  0  0  2  0  0  0  0  0  0
  186.2200  177.2160  144.8430 C   0  0  0  0  0  2  0  0  0  0  0  0
  187.1520  177.4430  146.0290 C   0  0  0  0  0  3  0  0  0  0  0  0
  186.3630  177.3940  147.3430 C   0  0  0  0  0  2  0  0  0  0  0  0
  189.4480  177.0560  144.0230 O   0  0  0  0  0  0  0  0  0  0  0  0
  188.5520  174.8960  143.9760 N   0  0  0  0  0  2  0  0  0  0  0  0
  188.8170  176.1470  144.6260 C   0  0  0  0  0  0  0  0  0  0  0  0
  188.9000  174.5890  142.5900 C   0  0  1  0  0  3  0  0  0  0  0  0
  190.0620  171.8870  140.9180 C   0  0  0  0  0  0  0  0  0  0  0  0
  190.5910  171.4260  139.7940 C   0  0  0  0  0  2  0  0  0  0  0  0
  189.0420  172.8290  140.9340 O   0  0  0  0  0  0  0  0  0  0  0  0
  190.4570  171.4380  142.2790 C   0  0  2  0  0  3  0  0  0  0  0  0
  189.3220  172.0630  144.2920 O   0  0  0  0  0  0  0  0  0  0  0  0
  189.4650  172.2090  143.0880 C   0  0  0  0  0  0  0  0  0  0  0  0
  188.6130  173.1220  142.2560 C   0  0  1  0  0  3  0  0  0  0  0  0
  191.8760  171.9070  142.5910 C   0  0  0  0  0  2  0  0  0  0  0  0
  192.9100  169.9320  144.1290 S   0  0  0  0  0  0  0  0  0  0  0  0
  192.8170  170.7540  142.7450 C   0  0  0  0  0  2  0  0  0  0  0  0
  194.2000  168.7230  143.7890 C   0  0  0  0  0  2  0  0  0  0  0  0
  194.5500  168.4340  147.2640 C   0  0  0  0  0  2  0  0  0  0  0  0
  194.7570  168.1660  145.0860 C   0  0  0  0  0  3  0  0  0  0  0  0
  193.7970  168.2700  146.1050 O   0  0  0  0  0  0  0  0  0  0  0  0
  195.9260  168.8410  146.8290 C   0  0  0  0  0  2  0  0  0  0  0  0
  195.9160  168.8690  145.4390 O   0  0  0  0  0  0  0  0  0  0  0  0
  187.6160  176.2370  140.9200 C   0  0  0  0  0  3  0  0  0  0  0  0
  188.1950  175.4950  141.6720 C   0  0  0  0  0  0  0  0  0  0  0  0
  189.3370  176.8020  146.8560 O   0  0  0  0  0  0  0  0  0  0  0  0
  189.9710  175.6060  147.1950 C   0  0  0  0  0  2  0  0  0  0  0  0
  191.4270  175.8820  147.5690 C   0  0  0  0  0  2  0  0  0  0  0  0
  192.2140  175.1710  144.2240 C   0  0  0  0  0  1  0  0  0  0  0  0
  193.5200  176.8350  146.8670 C   0  0  0  0  0  2  0  0  0  0  0  0
  192.6180  174.9940  145.6850 C   0  0  2  0  0  3  0  0  0  0  0  0
  192.2720  176.2140  146.4160 N   0  0  0  0  0  0  0  0  0  0  0  0
  194.1190  174.7700  145.8760 C   0  0  2  0  0  3  0  0  0  0  0  0
  194.6670  176.1370  146.1700 C   0  0  0  0  0  2  0  0  0  0  0  0
  195.2660  172.8410  144.7070 C   0  0  0  0  0  0  0  0  0  0  0  0
  194.7740  174.1840  144.7130 N   0  0  0  0  0  2  0  0  0  0  0  0
  196.0110  172.9490  142.2750 C   0  0  0  0  0  0  0  0  0  0  0  0
  195.8420  172.2730  143.5260 N   0  0  0  0  0  2  0  0  0  0  0  0
  195.1870  172.1380  145.7490 O   0  0  0  0  0  0  0  0  0  0  0  0
  195.6830  174.1580  142.1360 O   0  0  0  0  0  0  0  0  0  0  0  0
  196.5860  172.2050  141.1180 C   0  0  0  0  0  2  0  0  0  0  0  0
  195.6590  171.0810  140.6620 C   0  0  0  0  0  2  0  0  0  0  0  0
  194.2290  172.2110  139.0840 O   0  0  0  0  0  1  0  0  0  0  0  0
  195.2030  171.2170  139.2090 C   0  0  2  0  0  3  0  0  0  0  0  0
  193.8830  169.1670  139.7250 C   0  0  0  0  0  1  0  0  0  0  0  0
  194.6880  169.8930  138.6650 C   0  0  0  0  0  2  0  0  0  0  0  0
  1 10  1  6  0  0  0
  1  6  1  0  0  0  0
  1 30  1  0  0  0  0
  2  4  1  0  0  0  0
  3  7  1  0  0  0  0
  4  3  1  0  0  0  0
  5  2  1  0  0  0  0
  5  6  1  0  0  0  0
  6  7  1  0  0  0  0
  8 10  2  0  0  0  0
  9 10  1  0  0  0  0
 11 29  1  6  0  0  0
 11  9  1  0  0  0  0
 12 14  1  0  0  0  0
 12 15  1  0  0  0  0
 13 12  2  0  0  0  0
 14 18  1  0  0  0  0
 15 19  1  1  0  0  0
 15 17  1  0  0  0  0
 17 16  2  0  0  0  0
 18 11  1  1  0  0  0
 18 17  1  0  0  0  0
 19 21  1  0  0  0  0
 21 20  1  0  0  0  0
 22 20  1  0  0  0  0
 22 24  1  0  0  0  0
 24 27  1  0  0  0  0
 24 25  1  0  0  0  0
 25 23  1  0  0  0  0
 26 23  1  0  0  0  0
 27 26  1  0  0  0  0
 28 29  3  0  0  0  0
 30 31  1  0  0  0  0
 31 32  1  0  0  0  0
 35 33  1  6  0  0  0
 35 37  1  0  0  0  0
 35 36  1  0  0  0  0
 36 34  1  0  0  0  0
 36 32  1  0  0  0  0
 37 40  1  6  0  0  0
 37 38  1  0  0  0  0
 38 34  1  0  0  0  0
 39 40  1  0  0  0  0
 39 43  2  0  0  0  0
 41 42  1  0  0  0  0
 42 39  1  0  0  0  0
 44 41  2  0  0  0  0
 45 41  1  0  0  0  0
 46 45  1  0  0  0  0
 48 47  1  1  0  0  0
 48 46  1  0  0  0  0
 50 48  1  0  0  0  0
 50 49  1  0  0  0  0
M  END
>  <MODEL>
4

>  <REMARK>
 VINA RESULT:      -5.7      1.737      2.059
  Name = 
  18 active torsions:
  status: ('A' for Active; 'I' for Inactive)
    1  A    between atoms: C_2  and  C_22
    2  A    between atoms: C_2  and  C_44
    3  A    between atoms: N_7  and  C_23
    4  A    between atoms: C_11  and  C_12
    5  A    between atoms: C_11  and  O_32
    6  A    between atoms: C_12  and  N_18
    7  A    between atoms: C_16  and  C_22
    8  A    between atoms: C_20  and  C_47
    9  A    between atoms: C_25  and  C_28
   10  A    between atoms: S_27  and  C_48
   11  A    between atoms: C_28  and  O_32
   12  A    between atoms: C_28  and  C_33
   13  A    between atoms: N_29  and  C_38
   14  A    between atoms: C_30  and  C_48
   15  A    between atoms: C_34  and  C_47
   16  A    between atoms: C_38  and  C_46
   17  A    between atoms: C_38  and  C_50
   18  A    between atoms: C_40  and  C_44
                            x       y       z     vdW  Elec       q    Type
                         _______ _______ _______ _____ _____    ______ ____

>  <TORSDO>
F 18

$$$$
=
 OpenBabel11062419153D

 50 53  0  0  1  0  0  0  0  0999 V2000
  195.7200  172.2860  142.6650 C   0  0  1  0  0  3  0  0  0  0  0  0
  197.3490  170.3560  145.5760 C   0  0  0  0  0  2  0  0  0  0  0  0
  195.0090  169.9760  145.6960 C   0  0  0  0  0  2  0  0  0  0  0  0
  196.1890  170.3590  146.4670 N   0  0  0  0  0  2  0  0  0  0  0  0
  197.1900  171.4330  144.5070 C   0  0  0  0  0  2  0  0  0  0  0  0
  195.9210  171.1750  143.7000 C   0  0  0  0  0  3  0  0  0  0  0  0
  194.7150  171.0320  144.6350 C   0  0  0  0  0  2  0  0  0  0  0  0
  196.9510  171.2770  140.8980 O   0  0  0  0  0  0  0  0  0  0  0  0
  194.8220  172.0300  140.2910 N   0  0  0  0  0  2  0  0  0  0  0  0
  195.8670  171.8160  141.2480 C   0  0  0  0  0  0  0  0  0  0  0  0
  194.9290  171.7330  138.8630 C   0  0  1  0  0  3  0  0  0  0  0  0
  191.7430  170.6040  139.0150 C   0  0  0  0  0  0  0  0  0  0  0  0
  190.9470  169.5610  139.1980 C   0  0  0  0  0  2  0  0  0  0  0  0
  192.9120  170.5330  138.2690 O   0  0  0  0  0  0  0  0  0  0  0  0
  191.4740  171.9680  139.5410 C   0  0  2  0  0  3  0  0  0  0  0  0
  192.7610  173.9100  138.9870 O   0  0  0  0  0  0  0  0  0  0  0  0
  192.6270  172.6970  138.9310 C   0  0  0  0  0  0  0  0  0  0  0  0
  193.5600  171.7950  138.1790 C   0  0  1  0  0  3  0  0  0  0  0  0
  191.5890  171.9720  141.0630 C   0  0  0  0  0  2  0  0  0  0  0  0
  189.4070  173.5660  140.8890 S   0  0  0  0  0  0  0  0  0  0  0  0
  190.3820  172.5770  141.7070 C   0  0  0  0  0  2  0  0  0  0  0  0
  188.1820  174.0300  142.1250 C   0  0  0  0  0  2  0  0  0  0  0  0
  186.2510  176.9540  142.0720 C   0  0  0  0  0  2  0  0  0  0  0  0
  187.9290  175.5260  142.0820 C   0  0  0  0  0  3  0  0  0  0  0  0
  186.7280  175.8300  142.7390 O   0  0  0  0  0  0  0  0  0  0  0  0
  186.9860  177.0240  140.7670 C   0  0  0  0  0  2  0  0  0  0  0  0
  187.8740  175.9530  140.7480 O   0  0  0  0  0  0  0  0  0  0  0  0
  196.6780  173.3840  137.6950 C   0  0  0  0  0  3  0  0  0  0  0  0
  195.8900  172.6400  138.2210 C   0  0  0  0  0  0  0  0  0  0  0  0
  194.4920  172.9320  142.8410 O   0  0  0  0  0  0  0  0  0  0  0  0
  194.7970  174.2930  142.7990 C   0  0  0  0  0  2  0  0  0  0  0  0
  195.3330  174.7430  144.1570 C   0  0  0  0  0  2  0  0  0  0  0  0
  192.0790  173.7880  145.0600 C   0  0  0  0  0  1  0  0  0  0  0  0
  194.6250  175.6680  146.2610 C   0  0  0  0  0  2  0  0  0  0  0  0
  193.0040  174.9460  144.6960 C   0  0  2  0  0  3  0  0  0  0  0  0
  194.3370  174.6660  145.2310 N   0  0  0  0  0  0  0  0  0  0  0  0
  192.5580  176.2850  145.2850 C   0  0  2  0  0  3  0  0  0  0  0  0
  193.3430  176.4130  146.5590 C   0  0  0  0  0  2  0  0  0  0  0  0
  190.2700  177.2790  144.8570 C   0  0  0  0  0  0  0  0  0  0  0  0
  191.1260  176.3610  145.5440 N   0  0  0  0  0  2  0  0  0  0  0  0
  188.1600  176.4250  145.9970 C   0  0  0  0  0  0  0  0  0  0  0  0
  188.8580  177.2800  145.0840 N   0  0  0  0  0  2  0  0  0  0  0  0
  190.7590  178.0950  144.0310 O   0  0  0  0  0  0  0  0  0  0  0  0
  188.7800  175.6020  146.7230 O   0  0  0  0  0  0  0  0  0  0  0  0
  186.6750  176.5130  146.0870 C   0  0  0  0  0  2  0  0  0  0  0  0
  186.2400  177.4430  147.2170 C   0  0  0  0  0  2  0  0  0  0  0  0
  185.8760  179.7240  147.9090 O   0  0  0  0  0  1  0  0  0  0  0  0
  186.2650  178.9230  146.8330 C   0  0  2  0  0  3  0  0  0  0  0  0
  183.9640  178.7500  145.8910 C   0  0  0  0  0  1  0  0  0  0  0  0
  185.3880  179.1950  145.6200 C   0  0  0  0  0  2  0  0  0  0  0  0
  1 10  1  6  0  0  0
  1 30  1  0  0  0  0
  1  6  1  0  0  0  0
  2  4  1  0  0  0  0
  3  4  1  0  0  0  0
  5  2  1  0  0  0  0
  6  5  1  0  0  0  0
  6  7  1  0  0  0  0
  7  3  1  0  0  0  0
  8 10  2  0  0  0  0
  9 10  1  0  0  0  0
 11 29  1  6  0  0  0
 11  9  1  0  0  0  0
 12 13  2  0  0  0  0
 12 15  1  0  0  0  0
 14 12  1  0  0  0  0
 15 19  1  1  0  0  0
 17 16  2  0  0  0  0
 17 15  1  0  0  0  0
 18 14  1  0  0  0  0
 18 11  1  1  0  0  0
 18 17  1  0  0  0  0
 19 21  1  0  0  0  0
 20 21  1  0  0  0  0
 20 22  1  0  0  0  0
 23 25  1  0  0  0  0
 24 22  1  0  0  0  0
 24 25  1  0  0  0  0
 26 23  1  0  0  0  0
 27 26  1  0  0  0  0
 27 24  1  0  0  0  0
 28 29  3  0  0  0  0
 31 30  1  0  0  0  0
 31 32  1  0  0  0  0
 32 36  1  0  0  0  0
 34 38  1  0  0  0  0
 35 33  1  1  0  0  0
 35 36  1  0  0  0  0
 35 37  1  0  0  0  0
 36 34  1  0  0  0  0
 37 40  1  1  0  0  0
 37 38  1  0  0  0  0
 39 42  1  0  0  0  0
 39 40  1  0  0  0  0
 41 45  1  0  0  0  0
 41 44  2  0  0  0  0
 42 41  1  0  0  0  0
 43 39  2  0  0  0  0
 45 46  1  0  0  0  0
 48 46  1  0  0  0  0
 48 47  1  1  0  0  0
 50 49  1  0  0  0  0
 50 48  1  0  0  0  0
M  END
>  <MODEL>
5

>  <REMARK>
 VINA RESULT:      -5.3      2.339      9.058
  Name = 
  18 active torsions:
  status: ('A' for Active; 'I' for Inactive)
    1  A    between atoms: C_2  and  C_22
    2  A    between atoms: C_2  and  C_44
    3  A    between atoms: N_7  and  C_23
    4  A    between atoms: C_11  and  C_12
    5  A    between atoms: C_11  and  O_32
    6  A    between atoms: C_12  and  N_18
    7  A    between atoms: C_16  and  C_22
    8  A    between atoms: C_20  and  C_47
    9  A    between atoms: C_25  and  C_28
   10  A    between atoms: S_27  and  C_48
   11  A    between atoms: C_28  and  O_32
   12  A    between atoms: C_28  and  C_33
   13  A    between atoms: N_29  and  C_38
   14  A    between atoms: C_30  and  C_48
   15  A    between atoms: C_34  and  C_47
   16  A    between atoms: C_38  and  C_46
   17  A    between atoms: C_38  and  C_50
   18  A    between atoms: C_40  and  C_44
                            x       y       z     vdW  Elec       q    Type
                         _______ _______ _______ _____ _____    ______ ____

>  <TORSDO>
F 18

$$$$
=
 OpenBabel11062419153D

 50 53  0  0  1  0  0  0  0  0999 V2000
  191.4210  172.3120  143.1200 C   0  0  1  0  0  3  0  0  0  0  0  0
  190.8710  168.9060  141.4020 C   0  0  0  0  0  2  0  0  0  0  0  0
  192.6550  168.6410  142.9450 C   0  0  0  0  0  2  0  0  0  0  0  0
  192.2320  168.3970  141.5680 N   0  0  0  0  0  2  0  0  0  0  0  0
  190.8550  170.4220  141.5740 C   0  0  0  0  0  2  0  0  0  0  0  0
  191.3750  170.7890  142.9610 C   0  0  0  0  0  3  0  0  0  0  0  0
  192.7430  170.1410  143.2050 C   0  0  0  0  0  2  0  0  0  0  0  0
  193.2280  173.0270  141.7490 O   0  0  0  0  0  0  0  0  0  0  0  0
  193.6170  173.2250  144.0460 N   0  0  0  0  0  2  0  0  0  0  0  0
  192.7910  172.8900  142.9220 C   0  0  0  0  0  0  0  0  0  0  0  0
  195.0090  173.6620  143.9540 C   0  0  1  0  0  3  0  0  0  0  0  0
  193.3250  176.5650  144.3800 C   0  0  0  0  0  0  0  0  0  0  0  0
  192.4260  177.4050  143.8870 C   0  0  0  0  0  2  0  0  0  0  0  0
  194.2810  175.9420  143.5900 O   0  0  0  0  0  0  0  0  0  0  0  0
  193.4470  176.2170  145.8200 C   0  0  2  0  0  3  0  0  0  0  0  0
  195.2310  174.9190  146.7510 O   0  0  0  0  0  0  0  0  0  0  0  0
  194.6630  175.3510  145.7600 C   0  0  0  0  0  0  0  0  0  0  0  0
  195.1580  175.1310  144.3610 C   0  0  1  0  0  3  0  0  0  0  0  0
  192.2350  175.4010  146.2630 C   0  0  0  0  0  2  0  0  0  0  0  0
  189.6950  176.3310  146.1380 S   0  0  0  0  0  0  0  0  0  0  0  0
  191.1540  176.2740  146.8190 C   0  0  0  0  0  2  0  0  0  0  0  0
  188.8300  177.5440  147.1490 C   0  0  0  0  0  2  0  0  0  0  0  0
  185.8130  178.6510  145.7500 C   0  0  0  0  0  2  0  0  0  0  0  0
  187.3410  177.5110  146.8560 C   0  0  0  0  0  3  0  0  0  0  0  0
  187.0830  178.0990  145.6090 O   0  0  0  0  0  0  0  0  0  0  0  0
  185.5390  178.7270  147.2220 C   0  0  0  0  0  2  0  0  0  0  0  0
  186.6500  178.1930  147.8670 O   0  0  0  0  0  0  0  0  0  0  0  0
  196.5830  172.0790  145.4250 C   0  0  0  0  0  3  0  0  0  0  0  0
  195.8740  172.7920  144.7620 C   0  0  0  0  0  0  0  0  0  0  0  0
  190.4980  172.9420  142.2780 O   0  0  0  0  0  0  0  0  0  0  0  0
  190.3970  174.2420  142.7750 C   0  0  0  0  0  2  0  0  0  0  0  0
  189.4510  175.0570  141.8930 C   0  0  0  0  0  2  0  0  0  0  0  0
  186.3350  175.7180  143.3650 C   0  0  0  0  0  1  0  0  0  0  0  0
  189.1360  177.3780  142.4400 C   0  0  0  0  0  2  0  0  0  0  0  0
  187.2500  175.9730  142.1720 C   0  0  2  0  0  3  0  0  0  0  0  0
  188.6350  176.0160  142.6450 N   0  0  0  0  0  0  0  0  0  0  0  0
  186.9770  177.3050  141.4720 C   0  0  2  0  0  3  0  0  0  0  0  0
  187.9590  178.2600  142.0860 C   0  0  0  0  0  2  0  0  0  0  0  0
  184.6940  177.8850  140.5450 C   0  0  0  0  0  0  0  0  0  0  0  0
  185.6100  177.7820  141.6400 N   0  0  0  0  0  2  0  0  0  0  0  0
  182.7620  178.6500  142.0160 C   0  0  0  0  0  0  0  0  0  0  0  0
  183.3380  178.2900  140.7550 N   0  0  0  0  0  2  0  0  0  0  0  0
  185.0770  177.6060  139.3780 O   0  0  0  0  0  0  0  0  0  0  0  0
  183.4560  178.6690  143.0680 O   0  0  0  0  0  0  0  0  0  0  0  0
  181.3170  179.0060  142.0810 C   0  0  0  0  0  2  0  0  0  0  0  0
  180.4500  177.9430  141.4100 C   0  0  0  0  0  2  0  0  0  0  0  0
  178.2150  177.2600  140.8170 O   0  0  0  0  0  1  0  0  0  0  0  0
  178.9510  178.2310  141.5010 C   0  0  2  0  0  3  0  0  0  0  0  0
  178.4110  179.5770  139.4740 C   0  0  0  0  0  1  0  0  0  0  0  0
  178.6220  179.6200  140.9750 C   0  0  0  0  0  2  0  0  0  0  0  0
  1 30  1  6  0  0  0
  2  4  1  0  0  0  0
  2  5  1  0  0  0  0
  3  7  1  0  0  0  0
  4  3  1  0  0  0  0
  5  6  1  0  0  0  0
  6  1  1  0  0  0  0
  6  7  1  0  0  0  0
  8 10  2  0  0  0  0
 10  1  1  0  0  0  0
 10  9  1  0  0  0  0
 11  9  1  0  0  0  0
 11 29  1  1  0  0  0
 12 15  1  0  0  0  0
 13 12  2  0  0  0  0
 14 18  1  0  0  0  0
 14 12  1  0  0  0  0
 15 19  1  6  0  0  0
 17 15  1  0  0  0  0
 17 16  2  0  0  0  0
 18 11  1  6  0  0  0
 18 17  1  0  0  0  0
 19 21  1  0  0  0  0
 20 21  1  0  0  0  0
 20 22  1  0  0  0  0
 23 26  1  0  0  0  0
 24 22  1  0  0  0  0
 24 27  1  0  0  0  0
 25 23  1  0  0  0  0
 25 24  1  0  0  0  0
 26 27  1  0  0  0  0
 29 28  3  0  0  0  0
 30 31  1  0  0  0  0
 32 36  1  0  0  0  0
 32 31  1  0  0  0  0
 34 36  1  0  0  0  0
 35 36  1  0  0  0  0
 35 33  1  1  0  0  0
 37 40  1  1  0  0  0
 37 38  1  0  0  0  0
 37 35  1  0  0  0  0
 38 34  1  0  0  0  0
 39 42  1  0  0  0  0
 39 40  1  0  0  0  0
 41 45  1  0  0  0  0
 41 44  2  0  0  0  0
 42 41  1  0  0  0  0
 43 39  2  0  0  0  0
 46 48  1  0  0  0  0
 46 45  1  0  0  0  0
 48 47  1  6  0  0  0
 49 50  1  0  0  0  0
 50 48  1  0  0  0  0
M  END
>  <MODEL>
6

>  <REMARK>
 VINA RESULT:      -5.2      3.783     10.704
  Name = 
  18 active torsions:
  status: ('A' for Active; 'I' for Inactive)
    1  A    between atoms: C_2  and  C_22
    2  A    between atoms: C_2  and  C_44
    3  A    between atoms: N_7  and  C_23
    4  A    between atoms: C_11  and  C_12
    5  A    between atoms: C_11  and  O_32
    6  A    between atoms: C_12  and  N_18
    7  A    between atoms: C_16  and  C_22
    8  A    between atoms: C_20  and  C_47
    9  A    between atoms: C_25  and  C_28
   10  A    between atoms: S_27  and  C_48
   11  A    between atoms: C_28  and  O_32
   12  A    between atoms: C_28  and  C_33
   13  A    between atoms: N_29  and  C_38
   14  A    between atoms: C_30  and  C_48
   15  A    between atoms: C_34  and  C_47
   16  A    between atoms: C_38  and  C_46
   17  A    between atoms: C_38  and  C_50
   18  A    between atoms: C_40  and  C_44
                            x       y       z     vdW  Elec       q    Type
                         _______ _______ _______ _____ _____    ______ ____

>  <TORSDO>
F 18

$$$$
=
 OpenBabel11062419153D

 50 53  0  0  1  0  0  0  0  0999 V2000
  196.0150  172.0490  143.6470 C   0  0  1  0  0  3  0  0  0  0  0  0
  197.1000  169.4370  146.2650 C   0  0  0  0  0  2  0  0  0  0  0  0
  194.7290  169.3860  146.1530 C   0  0  0  0  0  2  0  0  0  0  0  0
  195.8720  169.4570  147.0610 N   0  0  0  0  0  2  0  0  0  0  0  0
  197.1840  170.6910  145.4000 C   0  0  0  0  0  2  0  0  0  0  0  0
  195.9720  170.7600  144.4740 C   0  0  0  0  0  3  0  0  0  0  0  0
  194.6760  170.6370  145.2840 C   0  0  0  0  0  2  0  0  0  0  0  0
  196.8000  171.7660  141.4190 O   0  0  0  0  0  0  0  0  0  0  0  0
  194.4720  171.7340  141.6390 N   0  0  0  0  0  2  0  0  0  0  0  0
  195.7970  171.8220  142.1800 C   0  0  0  0  0  0  0  0  0  0  0  0
  194.1610  171.6530  140.2130 C   0  0  1  0  0  3  0  0  0  0  0  0
  193.8590  173.3870  137.3230 C   0  0  0  0  0  0  0  0  0  0  0  0
  193.8320  173.3340  135.9990 C   0  0  0  0  0  2  0  0  0  0  0  0
  194.7520  172.6450  138.0850 O   0  0  0  0  0  0  0  0  0  0  0  0
  192.9820  174.2590  138.1470 C   0  0  2  0  0  3  0  0  0  0  0  0
  193.2100  174.5630  140.5110 O   0  0  0  0  0  0  0  0  0  0  0  0
  193.5440  173.9650  139.4990 C   0  0  0  0  0  0  0  0  0  0  0  0
  194.6160  172.9160  139.4730 C   0  0  1  0  0  3  0  0  0  0  0  0
  191.5360  173.7770  138.0570 C   0  0  0  0  0  2  0  0  0  0  0  0
  189.4420  173.2220  139.6830 S   0  0  0  0  0  0  0  0  0  0  0  0
  191.0240  173.3130  139.3840 C   0  0  0  0  0  2  0  0  0  0  0  0
  189.3920  172.6740  141.3970 C   0  0  0  0  0  2  0  0  0  0  0  0
  187.5220  175.5040  142.2800 C   0  0  0  0  0  2  0  0  0  0  0  0
  188.9220  173.8010  142.2980 C   0  0  0  0  0  3  0  0  0  0  0  0
  187.5980  174.1450  141.9870 O   0  0  0  0  0  0  0  0  0  0  0  0
  188.9340  176.0050  142.3610 C   0  0  0  0  0  2  0  0  0  0  0  0
  189.7620  174.9110  142.1360 O   0  0  0  0  0  0  0  0  0  0  0  0
  195.2420  169.4540  139.1440 C   0  0  0  0  0  3  0  0  0  0  0  0
  194.7550  170.4450  139.6250 C   0  0  0  0  0  0  0  0  0  0  0  0
  195.1130  173.0000  144.1340 O   0  0  0  0  0  0  0  0  0  0  0  0
  195.8280  174.1980  144.1370 C   0  0  0  0  0  2  0  0  0  0  0  0
  195.6320  174.9110  145.4750 C   0  0  0  0  0  2  0  0  0  0  0  0
  192.9820  176.5350  147.1040 C   0  0  0  0  0  1  0  0  0  0  0  0
  194.3810  176.3650  144.0260 C   0  0  0  0  0  2  0  0  0  0  0  0
  193.3820  175.5490  146.0100 C   0  0  2  0  0  3  0  0  0  0  0  0
  194.6450  175.9940  145.4180 N   0  0  0  0  0  0  0  0  0  0  0  0
  192.3630  175.4610  144.8720 C   0  0  2  0  0  3  0  0  0  0  0  0
  192.8810  176.4100  143.8310 C   0  0  0  0  0  2  0  0  0  0  0  0
  190.0330  174.8300  145.6330 C   0  0  0  0  0  0  0  0  0  0  0  0
  191.0070  175.8150  145.2740 N   0  0  0  0  0  2  0  0  0  0  0  0
  188.2580  176.5600  146.2170 C   0  0  0  0  0  0  0  0  0  0  0  0
  188.7330  175.2140  146.0900 N   0  0  0  0  0  2  0  0  0  0  0  0
  190.3200  173.6060  145.5570 O   0  0  0  0  0  0  0  0  0  0  0  0
  188.9770  177.5400  145.8820 O   0  0  0  0  0  0  0  0  0  0  0  0
  186.8890  176.8010  146.7550 C   0  0  0  0  0  2  0  0  0  0  0  0
  185.9290  177.2480  145.6560 C   0  0  0  0  0  2  0  0  0  0  0  0
  184.0020  178.5820  146.2190 O   0  0  0  0  0  1  0  0  0  0  0  0
  185.3550  178.6470  145.8780 C   0  0  2  0  0  3  0  0  0  0  0  0
  186.3000  178.7660  143.5750 C   0  0  0  0  0  1  0  0  0  0  0  0
  185.5560  179.5280  144.6540 C   0  0  0  0  0  2  0  0  0  0  0  0
  1 10  1  6  0  0  0
  1 30  1  0  0  0  0
  1  6  1  0  0  0  0
  2  4  1  0  0  0  0
  3  4  1  0  0  0  0
  5  2  1  0  0  0  0
  6  7  1  0  0  0  0
  6  5  1  0  0  0  0
  7  3  1  0  0  0  0
  8 10  2  0  0  0  0
  9 10  1  0  0  0  0
 11 29  1  6  0  0  0
 11  9  1  0  0  0  0
 12 14  1  0  0  0  0
 12 15  1  0  0  0  0
 13 12  2  0  0  0  0
 14 18  1  0  0  0  0
 15 19  1  1  0  0  0
 15 17  1  0  0  0  0
 17 16  2  0  0  0  0
 18 17  1  0  0  0  0
 18 11  1  1  0  0  0
 19 21  1  0  0  0  0
 20 22  1  0  0  0  0
 21 20  1  0  0  0  0
 22 24  1  0  0  0  0
 23 26  1  0  0  0  0
 25 23  1  0  0  0  0
 25 24  1  0  0  0  0
 27 24  1  0  0  0  0
 27 26  1  0  0  0  0
 28 29  3  0  0  0  0
 30 31  1  0  0  0  0
 31 32  1  0  0  0  0
 34 36  1  0  0  0  0
 35 33  1  1  0  0  0
 36 32  1  0  0  0  0
 36 35  1  0  0  0  0
 37 40  1  1  0  0  0
 37 35  1  0  0  0  0
 38 34  1  0  0  0  0
 38 37  1  0  0  0  0
 39 42  1  0  0  0  0
 40 39  1  0  0  0  0
 41 45  1  0  0  0  0
 42 41  1  0  0  0  0
 43 39  2  0  0  0  0
 44 41  2  0  0  0  0
 46 48  1  0  0  0  0
 46 45  1  0  0  0  0
 48 47  1  6  0  0  0
 49 50  1  0  0  0  0
 50 48  1  0  0  0  0
M  END
>  <MODEL>
7

>  <REMARK>
 VINA RESULT:      -5.2      2.179      8.766
  Name = 
  18 active torsions:
  status: ('A' for Active; 'I' for Inactive)
    1  A    between atoms: C_2  and  C_22
    2  A    between atoms: C_2  and  C_44
    3  A    between atoms: N_7  and  C_23
    4  A    between atoms: C_11  and  C_12
    5  A    between atoms: C_11  and  O_32
    6  A    between atoms: C_12  and  N_18
    7  A    between atoms: C_16  and  C_22
    8  A    between atoms: C_20  and  C_47
    9  A    between atoms: C_25  and  C_28
   10  A    between atoms: S_27  and  C_48
   11  A    between atoms: C_28  and  O_32
   12  A    between atoms: C_28  and  C_33
   13  A    between atoms: N_29  and  C_38
   14  A    between atoms: C_30  and  C_48
   15  A    between atoms: C_34  and  C_47
   16  A    between atoms: C_38  and  C_46
   17  A    between atoms: C_38  and  C_50
   18  A    between atoms: C_40  and  C_44
                            x       y       z     vdW  Elec       q    Type
                         _______ _______ _______ _____ _____    ______ ____

>  <TORSDO>
F 18

$$$$
=
 OpenBabel11062419153D

 50 53  0  0  1  0  0  0  0  0999 V2000
  189.1550  175.7880  143.6730 C   0  0  1  0  0  3  0  0  0  0  0  0
  185.8730  177.7620  144.1020 C   0  0  0  0  0  2  0  0  0  0  0  0
  186.6800  178.1970  141.9130 C   0  0  0  0  0  2  0  0  0  0  0  0
  186.1670  178.8170  143.1330 N   0  0  0  0  0  2  0  0  0  0  0  0
  187.1610  177.0530  144.5120 C   0  0  0  0  0  2  0  0  0  0  0  0
  187.8290  176.4480  143.2810 C   0  0  0  0  0  3  0  0  0  0  0  0
  188.0140  177.5150  142.1960 C   0  0  0  0  0  2  0  0  0  0  0  0
  190.9140  175.4950  142.0980 O   0  0  0  0  0  0  0  0  0  0  0  0
  189.1870  173.9270  141.9280 N   0  0  0  0  0  2  0  0  0  0  0  0
  189.8170  175.0600  142.5410 C   0  0  0  0  0  0  0  0  0  0  0  0
  189.6860  173.2420  140.7360 C   0  0  1  0  0  3  0  0  0  0  0  0
  190.8110  170.2200  139.7140 C   0  0  0  0  0  0  0  0  0  0  0  0
  191.2670  169.4930  138.7040 C   0  0  0  0  0  2  0  0  0  0  0  0
  189.7620  171.1180  139.5780 O   0  0  0  0  0  0  0  0  0  0  0  0
  191.3290  170.1410  141.1050 C   0  0  2  0  0  3  0  0  0  0  0  0
  190.3350  171.2450  142.9830 O   0  0  0  0  0  0  0  0  0  0  0  0
  190.3770  171.0790  141.7740 C   0  0  0  0  0  0  0  0  0  0  0  0
  189.4280  171.7340  140.8140 C   0  0  1  0  0  3  0  0  0  0  0  0
  192.7500  170.6960  141.1650 C   0  0  0  0  0  2  0  0  0  0  0  0
  193.5360  173.2870  141.0740 S   0  0  0  0  0  0  0  0  0  0  0  0
  192.8750  171.9790  140.4030 C   0  0  0  0  0  2  0  0  0  0  0  0
  193.3870  174.5210  139.7720 C   0  0  0  0  0  2  0  0  0  0  0  0
  196.8730  174.3280  139.4660 C   0  0  0  0  0  2  0  0  0  0  0  0
  194.7610  174.9240  139.2680 C   0  0  0  0  0  3  0  0  0  0  0  0
  195.6060  173.8050  139.2270 O   0  0  0  0  0  0  0  0  0  0  0  0
  196.6710  175.6920  140.0570 C   0  0  0  0  0  2  0  0  0  0  0  0
  195.2980  175.9080  140.1100 O   0  0  0  0  0  0  0  0  0  0  0  0
  188.6110  174.3030  138.5300 C   0  0  0  0  0  3  0  0  0  0  0  0
  189.0960  173.8250  139.5240 C   0  0  0  0  0  0  0  0  0  0  0  0
  190.0380  176.7130  144.2420 O   0  0  0  0  0  0  0  0  0  0  0  0
  190.2480  176.2490  145.5410 C   0  0  0  0  0  2  0  0  0  0  0  0
  191.7480  176.1720  145.8230 C   0  0  0  0  0  2  0  0  0  0  0  0
  192.5850  172.9420  144.7360 C   0  0  0  0  0  1  0  0  0  0  0  0
  193.5950  176.1410  144.2830 C   0  0  0  0  0  2  0  0  0  0  0  0
  193.0490  174.1820  145.4940 C   0  0  2  0  0  3  0  0  0  0  0  0
  192.4850  175.3660  144.8430 N   0  0  0  0  0  0  0  0  0  0  0  0
  194.5680  174.3570  145.4970 C   0  0  2  0  0  3  0  0  0  0  0  0
  194.8410  175.2860  144.3500 C   0  0  0  0  0  2  0  0  0  0  0  0
  196.5670  172.8770  145.9650 C   0  0  0  0  0  0  0  0  0  0  0  0
  195.3000  173.1060  145.3420 N   0  0  0  0  0  2  0  0  0  0  0  0
  196.7400  170.4830  145.1140 C   0  0  0  0  0  0  0  0  0  0  0  0
  197.2270  171.6120  145.8490 N   0  0  0  0  0  2  0  0  0  0  0  0
  197.1130  173.7930  146.6350 O   0  0  0  0  0  0  0  0  0  0  0  0
  195.6650  170.5450  144.4580 O   0  0  0  0  0  0  0  0  0  0  0  0
  197.5200  169.2140  145.1270 C   0  0  0  0  0  2  0  0  0  0  0  0
  196.8670  168.1670  146.0270 C   0  0  0  0  0  2  0  0  0  0  0  0
  197.5670  168.3320  148.3280 O   0  0  0  0  0  1  0  0  0  0  0  0
  196.5540  168.6810  147.4320 C   0  0  2  0  0  3  0  0  0  0  0  0
  194.1640  168.3090  146.8310 C   0  0  0  0  0  1  0  0  0  0  0  0
  195.2080  168.1670  147.9220 C   0  0  0  0  0  2  0  0  0  0  0  0
  1 10  1  6  0  0  0
  1 30  1  0  0  0  0
  2  5  1  0  0  0  0
  3  7  1  0  0  0  0
  3  4  1  0  0  0  0
  4  2  1  0  0  0  0
  6  1  1  0  0  0  0
  6  5  1  0  0  0  0
  7  6  1  0  0  0  0
  8 10  2  0  0  0  0
  9 10  1  0  0  0  0
 11 29  1  6  0  0  0
 11  9  1  0  0  0  0
 12 15  1  0  0  0  0
 13 12  2  0  0  0  0
 14 12  1  0  0  0  0
 14 18  1  0  0  0  0
 15 19  1  6  0  0  0
 15 17  1  0  0  0  0
 17 16  2  0  0  0  0
 18 11  1  6  0  0  0
 18 17  1  0  0  0  0
 21 20  1  0  0  0  0
 21 19  1  0  0  0  0
 22 20  1  0  0  0  0
 23 26  1  0  0  0  0
 24 22  1  0  0  0  0
 24 27  1  0  0  0  0
 25 24  1  0  0  0  0
 25 23  1  0  0  0  0
 26 27  1  0  0  0  0
 28 29  3  0  0  0  0
 30 31  1  0  0  0  0
 31 32  1  0  0  0  0
 34 38  1  0  0  0  0
 34 36  1  0  0  0  0
 35 33  1  6  0  0  0
 35 37  1  0  0  0  0
 36 35  1  0  0  0  0
 36 32  1  0  0  0  0
 37 40  1  6  0  0  0
 38 37  1  0  0  0  0
 39 43  2  0  0  0  0
 40 39  1  0  0  0  0
 41 45  1  0  0  0  0
 41 42  1  0  0  0  0
 42 39  1  0  0  0  0
 44 41  2  0  0  0  0
 45 46  1  0  0  0  0
 46 48  1  0  0  0  0
 48 50  1  0  0  0  0
 48 47  1  1  0  0  0
 49 50  1  0  0  0  0
M  END
>  <MODEL>
8

>  <REMARK>
 VINA RESULT:      -5.1      2.147      4.984
  Name = 
  18 active torsions:
  status: ('A' for Active; 'I' for Inactive)
    1  A    between atoms: C_2  and  C_22
    2  A    between atoms: C_2  and  C_44
    3  A    between atoms: N_7  and  C_23
    4  A    between atoms: C_11  and  C_12
    5  A    between atoms: C_11  and  O_32
    6  A    between atoms: C_12  and  N_18
    7  A    between atoms: C_16  and  C_22
    8  A    between atoms: C_20  and  C_47
    9  A    between atoms: C_25  and  C_28
   10  A    between atoms: S_27  and  C_48
   11  A    between atoms: C_28  and  O_32
   12  A    between atoms: C_28  and  C_33
   13  A    between atoms: N_29  and  C_38
   14  A    between atoms: C_30  and  C_48
   15  A    between atoms: C_34  and  C_47
   16  A    between atoms: C_38  and  C_46
   17  A    between atoms: C_38  and  C_50
   18  A    between atoms: C_40  and  C_44
                            x       y       z     vdW  Elec       q    Type
                         _______ _______ _______ _____ _____    ______ ____

>  <TORSDO>
F 18

$$$$
=
 OpenBabel11062419153D

 50 53  0  0  1  0  0  0  0  0999 V2000
  195.5340  171.1540  143.1450 C   0  0  1  0  0  3  0  0  0  0  0  0
  197.9400  168.6810  144.8630 C   0  0  0  0  0  2  0  0  0  0  0  0
  196.1160  169.0360  146.3400 C   0  0  0  0  0  2  0  0  0  0  0  0
  197.5730  169.0000  146.2430 N   0  0  0  0  0  2  0  0  0  0  0  0
  197.4940  169.8040  143.9300 C   0  0  0  0  0  2  0  0  0  0  0  0
  195.9830  169.9870  144.0310 C   0  0  0  0  0  3  0  0  0  0  0  0
  195.5660  170.1800  145.4930 C   0  0  0  0  0  2  0  0  0  0  0  0
  194.6480  170.3300  141.0970 O   0  0  0  0  0  0  0  0  0  0  0  0
  193.0380  171.0700  142.6220 N   0  0  0  0  0  2  0  0  0  0  0  0
  194.3930  170.8070  142.2350 C   0  0  0  0  0  0  0  0  0  0  0  0
  191.8760  170.8950  141.7520 C   0  0  1  0  0  3  0  0  0  0  0  0
  190.5310  171.3220  138.6770 C   0  0  0  0  0  0  0  0  0  0  0  0
  189.8450  170.7740  137.6850 C   0  0  0  0  0  2  0  0  0  0  0  0
  191.5190  170.6370  139.3720 O   0  0  0  0  0  0  0  0  0  0  0  0
  190.3630  172.7240  139.1410 C   0  0  2  0  0  3  0  0  0  0  0  0
  191.7830  173.7980  140.7420 O   0  0  0  0  0  0  0  0  0  0  0  0
  191.4510  172.7750  140.1650 C   0  0  0  0  0  0  0  0  0  0  0  0
  192.1420  171.4560  140.3520 C   0  0  1  0  0  3  0  0  0  0  0  0
  189.0000  172.8930  139.8060 C   0  0  0  0  0  2  0  0  0  0  0  0
  188.4920  174.1460  142.1530 S   0  0  0  0  0  0  0  0  0  0  0  0
  188.9250  174.1590  140.6000 C   0  0  0  0  0  2  0  0  0  0  0  0
  188.5170  175.8930  142.5890 C   0  0  0  0  0  2  0  0  0  0  0  0
  186.3410  178.5700  141.9740 C   0  0  0  0  0  2  0  0  0  0  0  0
  187.3660  176.6200  141.9180 C   0  0  0  0  0  3  0  0  0  0  0  0
  187.6090  178.0020  141.9110 O   0  0  0  0  0  0  0  0  0  0  0  0
  185.4090  177.4910  142.4400 C   0  0  0  0  0  2  0  0  0  0  0  0
  186.1740  176.3410  142.6010 O   0  0  0  0  0  0  0  0  0  0  0  0
  191.1650  168.3190  141.6510 C   0  0  0  0  0  3  0  0  0  0  0  0
  191.4850  169.4800  141.6970 C   0  0  0  0  0  0  0  0  0  0  0  0
  195.2250  172.2850  143.9080 O   0  0  0  0  0  0  0  0  0  0  0  0
  196.1250  173.2600  143.4760 C   0  0  0  0  0  2  0  0  0  0  0  0
  196.4510  174.2070  144.6310 C   0  0  0  0  0  2  0  0  0  0  0  0
  194.2000  176.1620  146.4810 C   0  0  0  0  0  1  0  0  0  0  0  0
  195.2650  175.8110  143.2870 C   0  0  0  0  0  2  0  0  0  0  0  0
  194.3630  175.1320  145.3670 C   0  0  2  0  0  3  0  0  0  0  0  0
  195.6100  175.4090  144.6530 N   0  0  0  0  0  0  0  0  0  0  0  0
  193.2370  175.1760  144.3320 C   0  0  2  0  0  3  0  0  0  0  0  0
  193.7720  176.0490  143.2350 C   0  0  0  0  0  2  0  0  0  0  0  0
  190.9220  174.8530  145.3010 C   0  0  0  0  0  0  0  0  0  0  0  0
  191.9830  175.7030  144.8560 N   0  0  0  0  0  2  0  0  0  0  0  0
  189.4550  176.7970  146.0450 C   0  0  0  0  0  0  0  0  0  0  0  0
  189.7310  175.4020  145.8750 N   0  0  0  0  0  2  0  0  0  0  0  0
  191.0330  173.6030  145.1990 O   0  0  0  0  0  0  0  0  0  0  0  0
  190.2660  177.6760  145.6470 O   0  0  0  0  0  0  0  0  0  0  0  0
  188.1850  177.2130  146.7060 C   0  0  0  0  0  2  0  0  0  0  0  0
  187.1860  177.7670  145.6930 C   0  0  0  0  0  2  0  0  0  0  0  0
  186.2610  178.8060  147.6630 O   0  0  0  0  0  1  0  0  0  0  0  0
  186.2760  178.8540  146.2670 C   0  0  2  0  0  3  0  0  0  0  0  0
  183.9550  178.0700  146.7240 C   0  0  0  0  0  1  0  0  0  0  0  0
  184.8640  178.7420  145.7130 C   0  0  0  0  0  2  0  0  0  0  0  0
  1 10  1  1  0  0  0
  1 30  1  0  0  0  0
  1  6  1  0  0  0  0
  2  4  1  0  0  0  0
  4  3  1  0  0  0  0
  5  6  1  0  0  0  0
  5  2  1  0  0  0  0
  6  7  1  0  0  0  0
  7  3  1  0  0  0  0
  8 10  2  0  0  0  0
 10  9  1  0  0  0  0
 11 29  1  6  0  0  0
 11  9  1  0  0  0  0
 12 15  1  0  0  0  0
 12 14  1  0  0  0  0
 13 12  2  0  0  0  0
 14 18  1  0  0  0  0
 15 19  1  1  0  0  0
 15 17  1  0  0  0  0
 17 18  1  0  0  0  0
 17 16  2  0  0  0  0
 18 11  1  1  0  0  0
 19 21  1  0  0  0  0
 20 22  1  0  0  0  0
 21 20  1  0  0  0  0
 23 26  1  0  0  0  0
 24 22  1  0  0  0  0
 24 27  1  0  0  0  0
 25 24  1  0  0  0  0
 25 23  1  0  0  0  0
 26 27  1  0  0  0  0
 28 29  3  0  0  0  0
 31 30  1  0  0  0  0
 31 32  1  0  0  0  0
 32 36  1  0  0  0  0
 34 36  1  0  0  0  0
 35 33  1  1  0  0  0
 36 35  1  0  0  0  0
 37 40  1  1  0  0  0
 37 35  1  0  0  0  0
 38 34  1  0  0  0  0
 38 37  1  0  0  0  0
 39 42  1  0  0  0  0
 40 39  1  0  0  0  0
 41 45  1  0  0  0  0
 42 41  1  0  0  0  0
 43 39  2  0  0  0  0
 44 41  2  0  0  0  0
 46 48  1  0  0  0  0
 46 45  1  0  0  0  0
 48 47  1  1  0  0  0
 50 48  1  0  0  0  0
 50 49  1  0  0  0  0
M  END
>  <MODEL>
9

>  <REMARK>
 VINA RESULT:      -5.1      2.508      9.139
  Name = 
  18 active torsions:
  status: ('A' for Active; 'I' for Inactive)
    1  A    between atoms: C_2  and  C_22
    2  A    between atoms: C_2  and  C_44
    3  A    between atoms: N_7  and  C_23
    4  A    between atoms: C_11  and  C_12
    5  A    between atoms: C_11  and  O_32
    6  A    between atoms: C_12  and  N_18
    7  A    between atoms: C_16  and  C_22
    8  A    between atoms: C_20  and  C_47
    9  A    between atoms: C_25  and  C_28
   10  A    between atoms: S_27  and  C_48
   11  A    between atoms: C_28  and  O_32
   12  A    between atoms: C_28  and  C_33
   13  A    between atoms: N_29  and  C_38
   14  A    between atoms: C_30  and  C_48
   15  A    between atoms: C_34  and  C_47
   16  A    between atoms: C_38  and  C_46
   17  A    between atoms: C_38  and  C_50
   18  A    between atoms: C_40  and  C_44
                            x       y       z     vdW  Elec       q    Type
                         _______ _______ _______ _____ _____    ______ ____

>  <TORSDO>
F 18

$$$$
