=
 OpenBabel11062422063D

 34 37  0  0  1  0  0  0  0  0999 V2000
  191.4850  174.2320  144.7510 S   0  0  0  0  0  0  0  0  0  0  0  0
  189.6930  171.9480  143.1370 C   0  0  0  0  0  1  0  0  0  0  0  0
  188.8830  177.3840  141.7080 F   0  0  0  0  0  0  0  0  0  0  0  0
  188.6370  173.7240  141.7160 C   0  0  0  0  0  0  0  0  0  0  0  0
  188.9290  176.0980  142.1040 C   0  0  0  0  0  0  0  0  0  0  0  0
  189.9480  174.3790  143.7850 C   0  0  2  0  0  3  0  0  0  0  0  0
  189.7050  173.3320  142.6490 C   0  0  1  0  0  3  0  0  0  0  0  0
  189.5790  175.8270  143.4890 C   0  0  2  0  0  3  0  0  0  0  0  0
  188.4790  175.1630  141.3200 C   0  0  0  0  0  3  0  0  0  0  0  0
  188.0170  172.8520  141.1660 O   0  0  0  0  0  0  0  0  0  0  0  0
  189.3060  176.8210  144.6560 C   0  0  0  0  0  2  0  0  0  0  0  0
  187.2250  178.1810  144.4330 C   0  0  0  0  0  3  0  0  0  0  0  0
  187.8450  177.0760  145.0200 C   0  0  0  0  0  0  0  0  0  0  0  0
  185.8950  176.8960  146.4360 C   0  0  0  0  0  3  0  0  0  0  0  0
  185.3680  178.0450  145.8790 C   0  0  0  0  0  0  0  0  0  0  0  0
  183.7820  178.7290  146.4630 Cl  0  0  0  0  0  0  0  0  0  0  0  0
  185.9660  178.6790  144.8360 C   0  0  0  0  0  3  0  0  0  0  0  0
  187.1200  176.4550  146.0520 C   0  0  0  0  0  3  0  0  0  0  0  0
  192.9200  176.6770  143.5230 O   0  0  0  0  0  0  0  0  0  0  0  0
  192.5260  175.3520  143.7330 C   0  0  1  0  0  3  0  0  0  0  0  0
  193.8620  175.5560  143.3520 N   0  0  2  0  0  0  0  0  0  0  0  0
  196.1940  174.9510  144.4830 C   0  0  1  0  0  3  0  0  0  0  0  0
  194.8180  175.8550  144.4210 C   0  0  1  0  0  0  0  0  0  0  0  0
  196.1940  176.2890  143.6890 C   0  0  2  0  0  3  0  0  0  0  0  0
  196.1720  174.4850  145.8850 O   0  0  0  0  0  1  0  0  0  0  0  0
  194.8950  177.9280  145.6620 O   0  0  0  0  0  0  0  0  0  0  0  0
  194.3660  176.7120  145.5130 C   0  0  0  0  0  0  0  0  0  0  0  0
  193.8570  175.9310  146.6040 O   0  0  0  0  0  0  0  0  0  0  0  0
  192.9370  176.7080  147.1800 C   0  0  0  0  0  1  0  0  0  0  0  0
  196.1530  177.0970  141.4040 O   0  0  0  0  0  1  0  0  0  0  0  0
  196.0330  175.8850  142.0890 C   0  0  1  0  0  3  0  0  0  0  0  0
  197.9410  175.4490  140.5680 O   0  0  0  0  0  0  0  0  0  0  0  0
  196.6130  173.6610  141.2950 O   0  0  0  0  0  1  0  0  0  0  0  0
  196.9580  174.9340  141.3860 C   0  0  0  0  0  0  0  0  0  0  0  0
  3  5  1  0  0  0  0
  4  7  1  0  0  0  0
  5  8  1  0  0  0  0
  6  1  1  6  0  0  0
  7  2  1  1  0  0  0
  7  6  1  0  0  0  0
  8  6  1  0  0  0  0
  8 11  1  1  0  0  0
  9  4  1  0  0  0  0
  9  5  2  0  0  0  0
 10  4  2  0  0  0  0
 11 13  1  0  0  0  0
 12 17  2  0  0  0  0
 12 13  1  0  0  0  0
 13 18  2  0  0  0  0
 15 14  2  0  0  0  0
 15 16  1  0  0  0  0
 17 15  1  0  0  0  0
 18 14  1  0  0  0  0
 19 20  1  0  0  0  0
 20  1  1  1  0  0  0
 21 19  1  6  0  0  0
 21 20  1  0  0  0  0
 21 23  1  0  0  0  0
 22 25  1  1  0  0  0
 23 22  1  0  0  0  0
 23 27  1  1  0  0  0
 24 31  1  6  0  0  0
 24 23  1  0  0  0  0
 24 22  1  0  0  0  0
 27 26  2  0  0  0  0
 27 28  1  0  0  0  0
 28 29  1  0  0  0  0
 31 30  1  6  0  0  0
 32 34  2  0  0  0  0
 33 34  1  0  0  0  0
 34 31  1  0  0  0  0
M  END
>  <MODEL>
1

>  <REMARK>
 VINA RESULT:      -7.0      0.000      0.000
  Name = 
  9 active torsions:
  status: ('A' for Active; 'I' for Inactive)
    1  A    between atoms: C_3  and  C_34
    2  A    between atoms: S_6  and  C_11
    3  A    between atoms: S_6  and  C_20
    4  A    between atoms: O_12  and  C_14
    5  A    between atoms: C_14  and  C_28
    6  A    between atoms: N_21  and  C_28
    7  A    between atoms: C_24  and  C_34
    8  A    between atoms: C_26  and  C_29
    9  A    between atoms: C_29  and  C_31
                            x       y       z     vdW  Elec       q    Type
                         _______ _______ _______ _____ _____    ______ ____

>  <TORSDO>
F 9

$$$$
=
 OpenBabel11062422063D

 34 37  0  0  1  0  0  0  0  0999 V2000
  189.4220  175.0340  146.1180 S   0  0  0  0  0  0  0  0  0  0  0  0
  191.5390  176.6860  148.0740 C   0  0  0  0  0  1  0  0  0  0  0  0
  193.5630  174.6500  143.1730 F   0  0  0  0  0  0  0  0  0  0  0  0
  193.3720  176.4170  146.3830 C   0  0  0  0  0  0  0  0  0  0  0  0
  193.1760  175.0280  144.4060 C   0  0  0  0  0  0  0  0  0  0  0  0
  191.2440  175.0580  146.1620 C   0  0  2  0  0  3  0  0  0  0  0  0
  191.9380  176.3510  146.7010 C   0  0  1  0  0  3  0  0  0  0  0  0
  191.8660  174.3890  144.9430 C   0  0  2  0  0  3  0  0  0  0  0  0
  193.8700  175.9140  145.0590 C   0  0  0  0  0  3  0  0  0  0  0  0
  194.0910  177.0240  147.1320 O   0  0  0  0  0  0  0  0  0  0  0  0
  191.5840  172.8870  144.6430 C   0  0  0  0  0  2  0  0  0  0  0  0
  191.3330  172.5450  142.1830 C   0  0  0  0  0  3  0  0  0  0  0  0
  190.7070  172.5780  143.4310 C   0  0  0  0  0  0  0  0  0  0  0  0
  188.6080  172.4680  142.2390 C   0  0  0  0  0  3  0  0  0  0  0  0
  189.2760  172.5250  141.0310 C   0  0  0  0  0  0  0  0  0  0  0  0
  188.3630  172.5520  139.4530 Cl  0  0  0  0  0  0  0  0  0  0  0  0
  190.6330  172.4990  140.9560 C   0  0  0  0  0  3  0  0  0  0  0  0
  189.3020  172.5430  143.4030 C   0  0  0  0  0  3  0  0  0  0  0  0
  189.6400  177.8420  144.8470 O   0  0  0  0  0  0  0  0  0  0  0  0
  189.1630  176.7860  145.6300 C   0  0  1  0  0  3  0  0  0  0  0  0
  188.1970  177.6300  145.0610 N   0  0  2  0  0  0  0  0  0  0  0  0
  186.2630  176.6970  143.4870 C   0  0  1  0  0  3  0  0  0  0  0  0
  187.7720  177.3240  143.6920 C   0  0  1  0  0  0  0  0  0  0  0  0
  186.4680  178.2370  143.4090 C   0  0  2  0  0  3  0  0  0  0  0  0
  186.5580  175.4890  142.6880 O   0  0  0  0  0  1  0  0  0  0  0  0
  188.8380  178.3040  141.7570 O   0  0  0  0  0  0  0  0  0  0  0  0
  188.7970  177.3170  142.6530 C   0  0  0  0  0  0  0  0  0  0  0  0
  189.2440  175.9800  142.3790 O   0  0  0  0  0  0  0  0  0  0  0  0
  190.5640  176.0880  142.2120 C   0  0  0  0  0  1  0  0  0  0  0  0
  185.6120  180.1690  144.5970 O   0  0  0  0  0  1  0  0  0  0  0  0
  185.9850  178.8500  144.8720 C   0  0  1  0  0  3  0  0  0  0  0  0
  183.6070  178.8560  145.5730 O   0  0  0  0  0  0  0  0  0  0  0  0
  185.1320  177.4580  146.6740 O   0  0  0  0  0  1  0  0  0  0  0  0
  184.8520  178.2720  145.6700 C   0  0  0  0  0  0  0  0  0  0  0  0
  3  5  1  0  0  0  0
  4  7  1  0  0  0  0
  4 10  2  0  0  0  0
  5  8  1  0  0  0  0
  5  9  2  0  0  0  0
  6  1  1  6  0  0  0
  6  7  1  0  0  0  0
  7  2  1  1  0  0  0
  8 11  1  1  0  0  0
  8  6  1  0  0  0  0
  9  4  1  0  0  0  0
 12 13  1  0  0  0  0
 13 11  1  0  0  0  0
 14 18  1  0  0  0  0
 15 14  2  0  0  0  0
 16 15  1  0  0  0  0
 17 15  1  0  0  0  0
 17 12  2  0  0  0  0
 18 13  2  0  0  0  0
 19 20  1  0  0  0  0
 20  1  1  6  0  0  0
 21 19  1  6  0  0  0
 21 20  1  0  0  0  0
 22 25  1  6  0  0  0
 22 23  1  0  0  0  0
 23 27  1  6  0  0  0
 23 21  1  0  0  0  0
 24 22  1  0  0  0  0
 24 23  1  0  0  0  0
 24 31  1  1  0  0  0
 26 27  2  0  0  0  0
 28 27  1  0  0  0  0
 29 28  1  0  0  0  0
 31 30  1  6  0  0  0
 31 34  1  0  0  0  0
 32 34  2  0  0  0  0
 34 33  1  0  0  0  0
M  END
>  <MODEL>
2

>  <REMARK>
 VINA RESULT:      -7.0      3.830      8.054
  Name = 
  9 active torsions:
  status: ('A' for Active; 'I' for Inactive)
    1  A    between atoms: C_3  and  C_34
    2  A    between atoms: S_6  and  C_11
    3  A    between atoms: S_6  and  C_20
    4  A    between atoms: O_12  and  C_14
    5  A    between atoms: C_14  and  C_28
    6  A    between atoms: N_21  and  C_28
    7  A    between atoms: C_24  and  C_34
    8  A    between atoms: C_26  and  C_29
    9  A    between atoms: C_29  and  C_31
                            x       y       z     vdW  Elec       q    Type
                         _______ _______ _______ _____ _____    ______ ____

>  <TORSDO>
F 9

$$$$
=
 OpenBabel11062422063D

 34 37  0  0  1  0  0  0  0  0999 V2000
  191.4380  174.2050  144.9390 S   0  0  0  0  0  0  0  0  0  0  0  0
  189.4200  171.9580  143.5570 C   0  0  0  0  0  1  0  0  0  0  0  0
  189.0000  177.3170  141.7240 F   0  0  0  0  0  0  0  0  0  0  0  0
  188.4640  173.7000  142.0270 C   0  0  0  0  0  0  0  0  0  0  0  0
  188.9560  176.0650  142.2190 C   0  0  0  0  0  0  0  0  0  0  0  0
  189.8870  174.4030  144.0040 C   0  0  2  0  0  3  0  0  0  0  0  0
  189.5260  173.2950  142.9600 C   0  0  1  0  0  3  0  0  0  0  0  0
  189.6250  175.8490  143.6040 C   0  0  2  0  0  3  0  0  0  0  0  0
  188.4080  175.1130  141.5220 C   0  0  0  0  0  3  0  0  0  0  0  0
  187.7600  172.8420  141.5630 O   0  0  0  0  0  0  0  0  0  0  0  0
  189.4700  176.9490  144.6950 C   0  0  0  0  0  2  0  0  0  0  0  0
  187.2350  178.0610  144.7150 C   0  0  0  0  0  3  0  0  0  0  0  0
  188.0820  177.1220  145.3090 C   0  0  0  0  0  0  0  0  0  0  0  0
  186.4650  176.9870  147.1000 C   0  0  0  0  0  3  0  0  0  0  0  0
  185.7090  177.9820  146.5110 C   0  0  0  0  0  0  0  0  0  0  0  0
  184.1890  178.6010  147.3050 Cl  0  0  0  0  0  0  0  0  0  0  0  0
  186.0220  178.4980  145.2930 C   0  0  0  0  0  3  0  0  0  0  0  0
  187.6410  176.6060  146.5400 C   0  0  0  0  0  3  0  0  0  0  0  0
  193.3020  175.7390  143.0120 O   0  0  0  0  0  0  0  0  0  0  0  0
  192.5990  174.6830  143.5990 C   0  0  1  0  0  3  0  0  0  0  0  0
  193.8790  174.3860  143.1070 N   0  0  2  0  0  0  0  0  0  0  0  0
  194.9720  173.9620  145.4960 C   0  0  1  0  0  3  0  0  0  0  0  0
  195.0110  174.6480  143.9990 C   0  0  1  0  0  0  0  0  0  0  0  0
  195.6710  173.2080  144.3290 C   0  0  2  0  0  3  0  0  0  0  0  0
  195.2000  175.1380  146.3600 O   0  0  0  0  0  1  0  0  0  0  0  0
  195.7510  176.9470  144.0990 O   0  0  0  0  0  0  0  0  0  0  0  0
  195.9360  175.7140  143.6240 C   0  0  0  0  0  0  0  0  0  0  0  0
  196.5560  175.4370  142.3600 O   0  0  0  0  0  0  0  0  0  0  0  0
  196.4240  176.5660  141.6600 C   0  0  0  0  0  1  0  0  0  0  0  0
  195.3590  171.2050  143.0000 O   0  0  0  0  0  1  0  0  0  0  0  0
  194.5980  172.0580  143.8030 C   0  0  1  0  0  3  0  0  0  0  0  0
  194.5230  170.5160  145.7420 O   0  0  0  0  0  1  0  0  0  0  0  0
  192.6320  170.7470  144.3770 O   0  0  0  0  0  0  0  0  0  0  0  0
  193.8380  171.1590  144.7340 C   0  0  0  0  0  0  0  0  0  0  0  0
  3  5  1  0  0  0  0
  4  7  1  0  0  0  0
  5  8  1  0  0  0  0
  6  1  1  6  0  0  0
  7  2  1  1  0  0  0
  7  6  1  0  0  0  0
  8  6  1  0  0  0  0
  8 11  1  1  0  0  0
  9  4  1  0  0  0  0
  9  5  2  0  0  0  0
 10  4  2  0  0  0  0
 11 13  1  0  0  0  0
 12 17  2  0  0  0  0
 12 13  1  0  0  0  0
 13 18  2  0  0  0  0
 15 14  2  0  0  0  0
 15 16  1  0  0  0  0
 17 15  1  0  0  0  0
 18 14  1  0  0  0  0
 19 20  1  0  0  0  0
 20  1  1  1  0  0  0
 21 19  1  6  0  0  0
 21 20  1  0  0  0  0
 21 23  1  0  0  0  0
 22 25  1  1  0  0  0
 23 27  1  6  0  0  0
 23 24  1  0  0  0  0
 23 22  1  0  0  0  0
 24 31  1  6  0  0  0
 24 22  1  0  0  0  0
 27 26  2  0  0  0  0
 28 27  1  0  0  0  0
 29 28  1  0  0  0  0
 31 30  1  6  0  0  0
 31 34  1  0  0  0  0
 33 34  2  0  0  0  0
 34 32  1  0  0  0  0
M  END
>  <MODEL>
3

>  <REMARK>
 VINA RESULT:      -6.7      1.845      2.936
  Name = 
  9 active torsions:
  status: ('A' for Active; 'I' for Inactive)
    1  A    between atoms: C_3  and  C_34
    2  A    between atoms: S_6  and  C_11
    3  A    between atoms: S_6  and  C_20
    4  A    between atoms: O_12  and  C_14
    5  A    between atoms: C_14  and  C_28
    6  A    between atoms: N_21  and  C_28
    7  A    between atoms: C_24  and  C_34
    8  A    between atoms: C_26  and  C_29
    9  A    between atoms: C_29  and  C_31
                            x       y       z     vdW  Elec       q    Type
                         _______ _______ _______ _____ _____    ______ ____

>  <TORSDO>
F 9

$$$$
=
 OpenBabel11062422063D

 34 37  0  0  1  0  0  0  0  0999 V2000
  192.1230  174.7960  146.4980 S   0  0  0  0  0  0  0  0  0  0  0  0
  191.0080  172.3900  144.4970 C   0  0  0  0  0  1  0  0  0  0  0  0
  190.9730  177.6940  142.4670 F   0  0  0  0  0  0  0  0  0  0  0  0
  190.6270  174.0460  142.6530 C   0  0  0  0  0  0  0  0  0  0  0  0
  190.8240  176.4440  142.9450 C   0  0  0  0  0  0  0  0  0  0  0  0
  191.0730  174.8650  145.0100 C   0  0  2  0  0  3  0  0  0  0  0  0
  191.2480  173.7310  143.9480 C   0  0  1  0  0  3  0  0  0  0  0  0
  190.8900  176.2850  144.4890 C   0  0  2  0  0  3  0  0  0  0  0  0
  190.6770  175.4490  142.1200 C   0  0  0  0  0  3  0  0  0  0  0  0
  190.2360  173.1330  141.9750 O   0  0  0  0  0  0  0  0  0  0  0  0
  190.2260  177.3700  145.3870 C   0  0  0  0  0  2  0  0  0  0  0  0
  187.8710  177.9010  144.7530 C   0  0  0  0  0  3  0  0  0  0  0  0
  188.7250  177.2380  145.6360 C   0  0  0  0  0  0  0  0  0  0  0  0
  186.7780  176.8250  147.0070 C   0  0  0  0  0  3  0  0  0  0  0  0
  185.9950  177.5650  146.1420 C   0  0  0  0  0  0  0  0  0  0  0  0
  184.2260  177.8420  146.4810 Cl  0  0  0  0  0  0  0  0  0  0  0  0
  186.4850  178.0630  144.9760 C   0  0  0  0  0  3  0  0  0  0  0  0
  188.1120  176.7080  146.7860 C   0  0  0  0  0  3  0  0  0  0  0  0
  194.9960  175.7930  145.9540 O   0  0  0  0  0  0  0  0  0  0  0  0
  193.6300  175.5570  145.7740 C   0  0  1  0  0  3  0  0  0  0  0  0
  194.4310  175.5110  144.6220 N   0  0  2  0  0  0  0  0  0  0  0  0
  195.1800  173.7820  142.7430 C   0  0  1  0  0  3  0  0  0  0  0  0
  195.0910  174.2380  144.3230 C   0  0  1  0  0  0  0  0  0  0  0  0
  196.3480  174.5930  143.3700 C   0  0  2  0  0  3  0  0  0  0  0  0
  194.6080  172.4200  142.8020 O   0  0  0  0  0  1  0  0  0  0  0  0
  196.6170  173.0260  145.7520 O   0  0  0  0  0  0  0  0  0  0  0  0
  195.3580  173.3360  145.4390 C   0  0  0  0  0  0  0  0  0  0  0  0
  194.2450  172.4600  145.6720 O   0  0  0  0  0  0  0  0  0  0  0  0
  194.7940  171.2730  145.9400 C   0  0  0  0  0  1  0  0  0  0  0  0
  197.3460  176.7980  143.2150 O   0  0  0  0  0  1  0  0  0  0  0  0
  196.1470  176.1640  142.8770 C   0  0  1  0  0  3  0  0  0  0  0  0
  194.5950  176.8870  141.0840 O   0  0  0  0  0  1  0  0  0  0  0  0
  196.7770  176.2370  140.5290 O   0  0  0  0  0  0  0  0  0  0  0  0
  195.8800  176.5480  141.4500 C   0  0  0  0  0  0  0  0  0  0  0  0
  3  5  1  0  0  0  0
  4  7  1  0  0  0  0
  5  8  1  0  0  0  0
  6  1  1  1  0  0  0
  7  2  1  1  0  0  0
  7  6  1  0  0  0  0
  8  6  1  0  0  0  0
  8 11  1  1  0  0  0
  9  4  1  0  0  0  0
  9  5  2  0  0  0  0
 10  4  2  0  0  0  0
 11 13  1  0  0  0  0
 12 17  2  0  0  0  0
 12 13  1  0  0  0  0
 13 18  2  0  0  0  0
 15 16  1  0  0  0  0
 15 14  2  0  0  0  0
 17 15  1  0  0  0  0
 18 14  1  0  0  0  0
 20 19  1  0  0  0  0
 20  1  1  1  0  0  0
 21 20  1  0  0  0  0
 21 19  1  1  0  0  0
 22 25  1  1  0  0  0
 22 24  1  0  0  0  0
 22 23  1  0  0  0  0
 23 21  1  0  0  0  0
 23 27  1  1  0  0  0
 24 31  1  6  0  0  0
 24 23  1  0  0  0  0
 27 28  1  0  0  0  0
 27 26  2  0  0  0  0
 28 29  1  0  0  0  0
 31 30  1  6  0  0  0
 32 34  1  0  0  0  0
 33 34  2  0  0  0  0
 34 31  1  0  0  0  0
M  END
>  <MODEL>
4

>  <REMARK>
 VINA RESULT:      -6.6      1.768      2.512
  Name = 
  9 active torsions:
  status: ('A' for Active; 'I' for Inactive)
    1  A    between atoms: C_3  and  C_34
    2  A    between atoms: S_6  and  C_11
    3  A    between atoms: S_6  and  C_20
    4  A    between atoms: O_12  and  C_14
    5  A    between atoms: C_14  and  C_28
    6  A    between atoms: N_21  and  C_28
    7  A    between atoms: C_24  and  C_34
    8  A    between atoms: C_26  and  C_29
    9  A    between atoms: C_29  and  C_31
                            x       y       z     vdW  Elec       q    Type
                         _______ _______ _______ _____ _____    ______ ____

>  <TORSDO>
F 9

$$$$
=
 OpenBabel11062422063D

 34 37  0  0  1  0  0  0  0  0999 V2000
  193.5630  173.3280  143.6600 S   0  0  0  0  0  0  0  0  0  0  0  0
  195.3120  176.1420  143.4290 C   0  0  0  0  0  1  0  0  0  0  0  0
  191.9540  175.5220  147.9680 F   0  0  0  0  0  0  0  0  0  0  0  0
  194.4150  176.9260  145.6370 C   0  0  0  0  0  0  0  0  0  0  0  0
  192.6530  175.7840  146.8470 C   0  0  0  0  0  0  0  0  0  0  0  0
  193.3460  174.9430  144.4750 C   0  0  2  0  0  3  0  0  0  0  0  0
  194.6210  175.8230  144.6850 C   0  0  1  0  0  3  0  0  0  0  0  0
  192.3380  174.8910  145.6150 C   0  0  2  0  0  3  0  0  0  0  0  0
  193.5600  176.7160  146.8530 C   0  0  0  0  0  3  0  0  0  0  0  0
  195.0730  177.9240  145.4990 O   0  0  0  0  0  0  0  0  0  0  0  0
  190.8610  174.4840  145.3390 C   0  0  0  0  0  2  0  0  0  0  0  0
  188.8920  175.3530  146.6030 C   0  0  0  0  0  3  0  0  0  0  0  0
  189.7950  175.5560  145.5580 C   0  0  0  0  0  0  0  0  0  0  0  0
  188.3820  177.3890  144.8630 C   0  0  0  0  0  3  0  0  0  0  0  0
  187.4780  177.0890  145.8640 C   0  0  0  0  0  0  0  0  0  0  0  0
  185.9310  178.0370  146.0480 Cl  0  0  0  0  0  0  0  0  0  0  0  0
  187.7240  176.1260  146.7920 C   0  0  0  0  0  3  0  0  0  0  0  0
  189.4810  176.6140  144.6860 C   0  0  0  0  0  3  0  0  0  0  0  0
  192.1620  173.2150  140.9080 O   0  0  0  0  0  0  0  0  0  0  0  0
  192.4990  173.6430  142.1960 C   0  0  1  0  0  3  0  0  0  0  0  0
  191.1480  173.7540  141.8320 N   0  0  2  0  0  0  0  0  0  0  0  0
  188.8800  172.7660  142.8140 C   0  0  1  0  0  3  0  0  0  0  0  0
  190.3100  172.5680  142.0200 C   0  0  1  0  0  0  0  0  0  0  0  0
  188.9140  172.8750  141.2630 C   0  0  2  0  0  3  0  0  0  0  0  0
  188.9860  171.7310  143.8630 O   0  0  0  0  0  1  0  0  0  0  0  0
  190.4980  170.5350  140.7250 O   0  0  0  0  0  0  0  0  0  0  0  0
  190.9150  171.2650  141.7610 C   0  0  0  0  0  0  0  0  0  0  0  0
  191.4480  170.6950  142.9670 O   0  0  0  0  0  0  0  0  0  0  0  0
  192.3930  169.8470  142.5560 C   0  0  0  0  0  1  0  0  0  0  0  0
  188.6810  174.5520  139.5280 O   0  0  0  0  0  1  0  0  0  0  0  0
  188.9090  174.4940  140.9050 C   0  0  1  0  0  3  0  0  0  0  0  0
  188.1960  176.8150  141.4040 O   0  0  0  0  0  0  0  0  0  0  0  0
  187.0660  175.0200  142.4020 O   0  0  0  0  0  1  0  0  0  0  0  0
  187.9390  175.4650  141.5120 C   0  0  0  0  0  0  0  0  0  0  0  0
  4  9  1  0  0  0  0
  5  9  2  0  0  0  0
  5  3  1  0  0  0  0
  6  1  1  1  0  0  0
  6  7  1  0  0  0  0
  6  8  1  0  0  0  0
  7  2  1  6  0  0  0
  7  4  1  0  0  0  0
  8 11  1  6  0  0  0
  8  5  1  0  0  0  0
 10  4  2  0  0  0  0
 11 13  1  0  0  0  0
 12 17  1  0  0  0  0
 13 12  2  0  0  0  0
 14 15  1  0  0  0  0
 15 16  1  0  0  0  0
 15 17  2  0  0  0  0
 18 14  2  0  0  0  0
 18 13  1  0  0  0  0
 19 20  1  0  0  0  0
 20  1  1  1  0  0  0
 21 19  1  6  0  0  0
 21 23  1  0  0  0  0
 21 20  1  0  0  0  0
 22 25  1  6  0  0  0
 23 27  1  6  0  0  0
 23 22  1  0  0  0  0
 24 31  1  1  0  0  0
 24 23  1  0  0  0  0
 24 22  1  0  0  0  0
 26 27  2  0  0  0  0
 27 28  1  0  0  0  0
 29 28  1  0  0  0  0
 31 30  1  6  0  0  0
 31 34  1  0  0  0  0
 32 34  2  0  0  0  0
 34 33  1  0  0  0  0
M  END
>  <MODEL>
5

>  <REMARK>
 VINA RESULT:      -6.6      2.629      6.460
  Name = 
  9 active torsions:
  status: ('A' for Active; 'I' for Inactive)
    1  A    between atoms: C_3  and  C_34
    2  A    between atoms: S_6  and  C_11
    3  A    between atoms: S_6  and  C_20
    4  A    between atoms: O_12  and  C_14
    5  A    between atoms: C_14  and  C_28
    6  A    between atoms: N_21  and  C_28
    7  A    between atoms: C_24  and  C_34
    8  A    between atoms: C_26  and  C_29
    9  A    between atoms: C_29  and  C_31
                            x       y       z     vdW  Elec       q    Type
                         _______ _______ _______ _____ _____    ______ ____

>  <TORSDO>
F 9

$$$$
=
 OpenBabel11062422063D

 34 37  0  0  1  0  0  0  0  0999 V2000
  190.9860  173.4580  143.7170 S   0  0  0  0  0  0  0  0  0  0  0  0
  193.1050  175.9290  143.0590 C   0  0  0  0  0  1  0  0  0  0  0  0
  191.2890  175.4070  148.4150 F   0  0  0  0  0  0  0  0  0  0  0  0
  193.1250  176.6070  145.4730 C   0  0  0  0  0  0  0  0  0  0  0  0
  191.6390  175.6650  147.1400 C   0  0  0  0  0  0  0  0  0  0  0  0
  191.3670  174.9850  144.6340 C   0  0  2  0  0  3  0  0  0  0  0  0
  192.7940  175.5980  144.4550 C   0  0  1  0  0  3  0  0  0  0  0  0
  190.7800  174.9850  146.0390 C   0  0  2  0  0  3  0  0  0  0  0  0
  192.6720  176.4170  146.8920 C   0  0  0  0  0  3  0  0  0  0  0  0
  193.8940  177.4830  145.1740 O   0  0  0  0  0  0  0  0  0  0  0  0
  189.2400  174.8770  146.2460 C   0  0  0  0  0  2  0  0  0  0  0  0
  187.3780  176.4120  146.8830 C   0  0  0  0  0  3  0  0  0  0  0  0
  188.4180  176.1390  145.9930 C   0  0  0  0  0  0  0  0  0  0  0  0
  187.5320  177.9150  144.6140 C   0  0  0  0  0  3  0  0  0  0  0  0
  186.4750  178.0840  145.4870 C   0  0  0  0  0  0  0  0  0  0  0  0
  185.1630  179.3040  145.1490 Cl  0  0  0  0  0  0  0  0  0  0  0  0
  186.3940  177.4020  146.6600 C   0  0  0  0  0  3  0  0  0  0  0  0
  188.4470  176.9380  144.8350 C   0  0  0  0  0  3  0  0  0  0  0  0
  192.7130  171.0620  144.6240 O   0  0  0  0  0  0  0  0  0  0  0  0
  192.2370  172.3720  144.5100 C   0  0  1  0  0  3  0  0  0  0  0  0
  193.6260  172.2200  144.6380 N   0  0  2  0  0  0  0  0  0  0  0  0
  195.4970  173.0970  142.9610 C   0  0  1  0  0  3  0  0  0  0  0  0
  194.3830  171.9700  143.4090 C   0  0  1  0  0  0  0  0  0  0  0  0
  195.9390  171.8950  143.8430 C   0  0  2  0  0  3  0  0  0  0  0  0
  195.0900  173.3680  141.5660 O   0  0  0  0  0  1  0  0  0  0  0  0
  194.6110  169.7880  142.3940 O   0  0  0  0  0  0  0  0  0  0  0  0
  193.9040  170.9120  142.5240 C   0  0  0  0  0  0  0  0  0  0  0  0
  193.0690  171.4470  141.4860 O   0  0  0  0  0  0  0  0  0  0  0  0
  192.1740  170.4870  141.2390 C   0  0  0  0  0  1  0  0  0  0  0  0
  196.8050  171.5150  146.0750 O   0  0  0  0  0  1  0  0  0  0  0  0
  196.0310  172.4620  145.3980 C   0  0  1  0  0  3  0  0  0  0  0  0
  195.7870  174.8140  146.1420 O   0  0  0  0  0  1  0  0  0  0  0  0
  197.8660  174.0570  145.3700 O   0  0  0  0  0  0  0  0  0  0  0  0
  196.6280  173.7930  145.7520 C   0  0  0  0  0  0  0  0  0  0  0  0
  4  9  1  0  0  0  0
  5  3  1  0  0  0  0
  6  1  1  1  0  0  0
  6  8  1  0  0  0  0
  7  2  1  6  0  0  0
  7  6  1  0  0  0  0
  7  4  1  0  0  0  0
  8 11  1  6  0  0  0
  8  5  1  0  0  0  0
  9  5  2  0  0  0  0
 10  4  2  0  0  0  0
 13 11  1  0  0  0  0
 13 12  2  0  0  0  0
 14 18  2  0  0  0  0
 14 15  1  0  0  0  0
 15 17  2  0  0  0  0
 16 15  1  0  0  0  0
 17 12  1  0  0  0  0
 18 13  1  0  0  0  0
 20  1  1  6  0  0  0
 20 19  1  0  0  0  0
 20 21  1  0  0  0  0
 21 19  1  1  0  0  0
 22 25  1  6  0  0  0
 22 23  1  0  0  0  0
 22 24  1  0  0  0  0
 23 27  1  6  0  0  0
 23 24  1  0  0  0  0
 23 21  1  0  0  0  0
 24 31  1  1  0  0  0
 26 27  2  0  0  0  0
 28 27  1  0  0  0  0
 29 28  1  0  0  0  0
 31 34  1  0  0  0  0
 31 30  1  1  0  0  0
 33 34  2  0  0  0  0
 34 32  1  0  0  0  0
M  END
>  <MODEL>
6

>  <REMARK>
 VINA RESULT:      -6.4      2.756      5.031
  Name = 
  9 active torsions:
  status: ('A' for Active; 'I' for Inactive)
    1  A    between atoms: C_3  and  C_34
    2  A    between atoms: S_6  and  C_11
    3  A    between atoms: S_6  and  C_20
    4  A    between atoms: O_12  and  C_14
    5  A    between atoms: C_14  and  C_28
    6  A    between atoms: N_21  and  C_28
    7  A    between atoms: C_24  and  C_34
    8  A    between atoms: C_26  and  C_29
    9  A    between atoms: C_29  and  C_31
                            x       y       z     vdW  Elec       q    Type
                         _______ _______ _______ _____ _____    ______ ____

>  <TORSDO>
F 9

$$$$
=
 OpenBabel11062422063D

 34 37  0  0  1  0  0  0  0  0999 V2000
  189.5210  175.4420  142.8960 S   0  0  0  0  0  0  0  0  0  0  0  0
  186.2880  176.1960  142.9890 C   0  0  0  0  0  1  0  0  0  0  0  0
  189.4100  177.5370  147.5390 F   0  0  0  0  0  0  0  0  0  0  0  0
  186.5580  177.2470  145.2500 C   0  0  0  0  0  0  0  0  0  0  0  0
  188.5970  177.1140  146.5520 C   0  0  0  0  0  0  0  0  0  0  0  0
  188.4170  175.8110  144.2970 C   0  0  2  0  0  3  0  0  0  0  0  0
  187.1830  176.7310  144.0220 C   0  0  1  0  0  3  0  0  0  0  0  0
  189.1780  176.0350  145.5970 C   0  0  2  0  0  3  0  0  0  0  0  0
  187.4140  177.6380  146.4190 C   0  0  0  0  0  3  0  0  0  0  0  0
  185.3810  177.4950  145.2250 O   0  0  0  0  0  0  0  0  0  0  0  0
  190.0650  174.9020  146.1930 C   0  0  0  0  0  2  0  0  0  0  0  0
  192.1980  173.9790  145.2850 C   0  0  0  0  0  3  0  0  0  0  0  0
  191.5720  175.0180  145.9770 C   0  0  0  0  0  0  0  0  0  0  0  0
  193.7860  175.8330  146.4980 C   0  0  0  0  0  3  0  0  0  0  0  0
  194.3510  174.7380  145.8740 C   0  0  0  0  0  0  0  0  0  0  0  0
  196.1590  174.5030  145.8450 Cl  0  0  0  0  0  0  0  0  0  0  0  0
  193.6010  173.8250  145.2020 C   0  0  0  0  0  3  0  0  0  0  0  0
  192.4370  175.9420  146.5900 C   0  0  0  0  0  3  0  0  0  0  0  0
  188.0460  172.8780  142.0040 O   0  0  0  0  0  0  0  0  0  0  0  0
  188.9940  173.7050  142.6140 C   0  0  1  0  0  3  0  0  0  0  0  0
  189.4660  172.4920  142.0910 N   0  0  2  0  0  0  0  0  0  0  0  0
  191.4180  172.3680  140.2860 C   0  0  1  0  0  3  0  0  0  0  0  0
  189.8200  172.4740  140.6690 C   0  0  1  0  0  0  0  0  0  0  0  0
  190.5740  171.0680  140.4070 C   0  0  2  0  0  3  0  0  0  0  0  0
  191.5730  173.5170  139.3700 O   0  0  0  0  0  1  0  0  0  0  0  0
  188.3620  171.9490  138.8150 O   0  0  0  0  0  0  0  0  0  0  0  0
  188.7830  172.8430  139.7110 C   0  0  0  0  0  0  0  0  0  0  0  0
  188.7750  174.2600  139.4790 O   0  0  0  0  0  0  0  0  0  0  0  0
  188.1330  174.4140  138.3190 C   0  0  0  0  0  1  0  0  0  0  0  0
  190.5840  169.0700  141.7810 O   0  0  0  0  0  1  0  0  0  0  0  0
  190.9160  170.4230  141.8960 C   0  0  1  0  0  3  0  0  0  0  0  0
  193.3190  169.8160  141.8440 O   0  0  0  0  0  0  0  0  0  0  0  0
  192.4100  170.7680  143.7830 O   0  0  0  0  0  1  0  0  0  0  0  0
  192.2880  170.4480  142.5050 C   0  0  0  0  0  0  0  0  0  0  0  0
  4  9  1  0  0  0  0
  5  3  1  0  0  0  0
  6  1  1  6  0  0  0
  6  8  1  0  0  0  0
  7  2  1  1  0  0  0
  7  6  1  0  0  0  0
  7  4  1  0  0  0  0
  8 11  1  1  0  0  0
  8  5  1  0  0  0  0
  9  5  2  0  0  0  0
 10  4  2  0  0  0  0
 12 13  1  0  0  0  0
 13 11  1  0  0  0  0
 13 18  2  0  0  0  0
 14 18  1  0  0  0  0
 15 14  2  0  0  0  0
 16 15  1  0  0  0  0
 17 12  2  0  0  0  0
 17 15  1  0  0  0  0
 19 20  1  0  0  0  0
 20  1  1  6  0  0  0
 21 19  1  6  0  0  0
 21 20  1  0  0  0  0
 22 25  1  6  0  0  0
 22 24  1  0  0  0  0
 22 23  1  0  0  0  0
 23 27  1  6  0  0  0
 23 21  1  0  0  0  0
 24 23  1  0  0  0  0
 24 31  1  1  0  0  0
 26 27  2  0  0  0  0
 28 27  1  0  0  0  0
 29 28  1  0  0  0  0
 31 30  1  6  0  0  0
 31 34  1  0  0  0  0
 32 34  2  0  0  0  0
 34 33  1  0  0  0  0
M  END
>  <MODEL>
7

>  <REMARK>
 VINA RESULT:      -6.4      4.270      7.130
  Name = 
  9 active torsions:
  status: ('A' for Active; 'I' for Inactive)
    1  A    between atoms: C_3  and  C_34
    2  A    between atoms: S_6  and  C_11
    3  A    between atoms: S_6  and  C_20
    4  A    between atoms: O_12  and  C_14
    5  A    between atoms: C_14  and  C_28
    6  A    between atoms: N_21  and  C_28
    7  A    between atoms: C_24  and  C_34
    8  A    between atoms: C_26  and  C_29
    9  A    between atoms: C_29  and  C_31
                            x       y       z     vdW  Elec       q    Type
                         _______ _______ _______ _____ _____    ______ ____

>  <TORSDO>
F 9

$$$$
=
 OpenBabel11062422063D

 34 37  0  0  1  0  0  0  0  0999 V2000
  188.5020  174.7510  142.9510 S   0  0  0  0  0  0  0  0  0  0  0  0
  188.0230  174.9280  139.6690 C   0  0  0  0  0  1  0  0  0  0  0  0
  185.8380  179.0940  142.8510 F   0  0  0  0  0  0  0  0  0  0  0  0
  186.8230  177.1160  139.9230 C   0  0  0  0  0  0  0  0  0  0  0  0
  186.2080  178.0640  142.0660 C   0  0  0  0  0  0  0  0  0  0  0  0
  187.2910  175.6900  141.9660 C   0  0  2  0  0  3  0  0  0  0  0  0
  187.6960  176.0870  140.5090 C   0  0  1  0  0  3  0  0  0  0  0  0
  186.5490  176.7330  142.7920 C   0  0  2  0  0  3  0  0  0  0  0  0
  186.3000  178.2320  140.7800 C   0  0  0  0  0  3  0  0  0  0  0  0
  186.6830  177.1250  138.7280 O   0  0  0  0  0  0  0  0  0  0  0  0
  185.6840  176.2980  144.0120 C   0  0  0  0  0  2  0  0  0  0  0  0
  185.1130  177.5520  146.0930 C   0  0  0  0  0  3  0  0  0  0  0  0
  186.0860  176.8520  145.3770 C   0  0  0  0  0  0  0  0  0  0  0  0
  187.6730  177.6280  147.0250 C   0  0  0  0  0  3  0  0  0  0  0  0
  186.6870  178.3710  147.6450 C   0  0  0  0  0  0  0  0  0  0  0  0
  187.0670  179.4160  149.0900 Cl  0  0  0  0  0  0  0  0  0  0  0  0
  185.3870  178.3110  147.2530 C   0  0  0  0  0  3  0  0  0  0  0  0
  187.3900  176.9300  145.8970 C   0  0  0  0  0  3  0  0  0  0  0  0
  190.3130  177.0660  143.9030 O   0  0  0  0  0  0  0  0  0  0  0  0
  189.7810  176.0620  143.0880 C   0  0  1  0  0  3  0  0  0  0  0  0
  191.1720  176.2400  143.0350 N   0  0  2  0  0  0  0  0  0  0  0  0
  192.1190  173.9090  143.9020 C   0  0  1  0  0  3  0  0  0  0  0  0
  191.9700  175.5420  144.0470 C   0  0  1  0  0  0  0  0  0  0  0  0
  193.1880  174.8340  143.2540 C   0  0  2  0  0  3  0  0  0  0  0  0
  191.6980  173.4580  145.2450 O   0  0  0  0  0  1  0  0  0  0  0  0
  191.4020  176.4970  146.1940 O   0  0  0  0  0  0  0  0  0  0  0  0
  192.3250  176.2800  145.2550 C   0  0  0  0  0  0  0  0  0  0  0  0
  193.4310  177.1640  145.0130 O   0  0  0  0  0  0  0  0  0  0  0  0
  194.2200  177.0250  146.0810 C   0  0  0  0  0  1  0  0  0  0  0  0
  194.0070  175.3310  141.0270 O   0  0  0  0  0  1  0  0  0  0  0  0
  192.8200  174.9170  141.6390 C   0  0  1  0  0  3  0  0  0  0  0  0
  193.2890  172.9330  140.2280 O   0  0  0  0  0  0  0  0  0  0  0  0
  191.0810  173.6800  140.4740 O   0  0  0  0  0  1  0  0  0  0  0  0
  192.3510  173.7340  140.8420 C   0  0  0  0  0  0  0  0  0  0  0  0
  4  7  1  0  0  0  0
  4  9  1  0  0  0  0
  5  8  1  0  0  0  0
  5  3  1  0  0  0  0
  6  8  1  0  0  0  0
  6  1  1  1  0  0  0
  7  2  1  6  0  0  0
  7  6  1  0  0  0  0
  8 11  1  6  0  0  0
  9  5  2  0  0  0  0
 10  4  2  0  0  0  0
 11 13  1  0  0  0  0
 12 17  1  0  0  0  0
 13 18  1  0  0  0  0
 13 12  2  0  0  0  0
 14 15  1  0  0  0  0
 15 16  1  0  0  0  0
 17 15  2  0  0  0  0
 18 14  2  0  0  0  0
 20  1  1  1  0  0  0
 20 19  1  0  0  0  0
 21 20  1  0  0  0  0
 21 19  1  1  0  0  0
 21 23  1  0  0  0  0
 22 23  1  0  0  0  0
 22 25  1  1  0  0  0
 23 27  1  1  0  0  0
 24 31  1  6  0  0  0
 24 22  1  0  0  0  0
 24 23  1  0  0  0  0
 27 26  2  0  0  0  0
 28 27  1  0  0  0  0
 28 29  1  0  0  0  0
 31 30  1  6  0  0  0
 32 34  2  0  0  0  0
 33 34  1  0  0  0  0
 34 31  1  0  0  0  0
M  END
>  <MODEL>
8

>  <REMARK>
 VINA RESULT:      -6.4      2.558      3.544
  Name = 
  9 active torsions:
  status: ('A' for Active; 'I' for Inactive)
    1  A    between atoms: C_3  and  C_34
    2  A    between atoms: S_6  and  C_11
    3  A    between atoms: S_6  and  C_20
    4  A    between atoms: O_12  and  C_14
    5  A    between atoms: C_14  and  C_28
    6  A    between atoms: N_21  and  C_28
    7  A    between atoms: C_24  and  C_34
    8  A    between atoms: C_26  and  C_29
    9  A    between atoms: C_29  and  C_31
                            x       y       z     vdW  Elec       q    Type
                         _______ _______ _______ _____ _____    ______ ____

>  <TORSDO>
F 9

$$$$
=
 OpenBabel11062422063D

 34 37  0  0  1  0  0  0  0  0999 V2000
  192.0180  176.4950  142.4950 S   0  0  0  0  0  0  0  0  0  0  0  0
  195.2640  175.8990  142.8720 C   0  0  0  0  0  1  0  0  0  0  0  0
  191.9060  174.9850  147.3600 F   0  0  0  0  0  0  0  0  0  0  0  0
  194.8870  175.1190  145.2260 C   0  0  0  0  0  0  0  0  0  0  0  0
  192.7650  175.3200  146.3780 C   0  0  0  0  0  0  0  0  0  0  0  0
  193.0430  176.3470  143.9940 C   0  0  2  0  0  3  0  0  0  0  0  0
  194.3240  175.4550  143.9090 C   0  0  1  0  0  3  0  0  0  0  0  0
  192.2090  176.2500  145.2650 C   0  0  2  0  0  3  0  0  0  0  0  0
  193.9720  174.8360  146.3810 C   0  0  0  0  0  3  0  0  0  0  0  0
  196.0710  174.9210  145.3010 O   0  0  0  0  0  0  0  0  0  0  0  0
  191.2460  177.4070  145.6620 C   0  0  0  0  0  2  0  0  0  0  0  0
  188.9490  177.5340  144.6950 C   0  0  0  0  0  3  0  0  0  0  0  0
  189.7570  177.0730  145.7360 C   0  0  0  0  0  0  0  0  0  0  0  0
  187.7170  176.4830  146.8880 C   0  0  0  0  0  3  0  0  0  0  0  0
  186.9650  177.0310  145.8660 C   0  0  0  0  0  0  0  0  0  0  0  0
  185.1450  177.0690  145.9560 Cl  0  0  0  0  0  0  0  0  0  0  0  0
  187.5360  177.5070  144.7280 C   0  0  0  0  0  3  0  0  0  0  0  0
  189.0710  176.5480  146.8450 C   0  0  0  0  0  3  0  0  0  0  0  0
  191.8710  173.4110  142.5980 O   0  0  0  0  0  0  0  0  0  0  0  0
  191.9260  174.7080  142.0790 C   0  0  1  0  0  3  0  0  0  0  0  0
  191.1260  173.7890  141.3830 N   0  0  2  0  0  0  0  0  0  0  0  0
  188.5570  174.3870  141.0250 C   0  0  1  0  0  3  0  0  0  0  0  0
  189.7510  173.6140  141.8570 C   0  0  1  0  0  0  0  0  0  0  0  0
  188.9370  172.9290  140.6390 C   0  0  2  0  0  3  0  0  0  0  0  0
  187.8670  175.1100  142.1130 O   0  0  0  0  0  1  0  0  0  0  0  0
  188.9420  171.8470  143.2930 O   0  0  0  0  0  0  0  0  0  0  0  0
  189.5600  173.0230  143.1780 C   0  0  0  0  0  0  0  0  0  0  0  0
  189.5350  174.0340  144.1960 O   0  0  0  0  0  0  0  0  0  0  0  0
  189.6920  173.3690  145.3430 C   0  0  0  0  0  1  0  0  0  0  0  0
  190.0820  171.7120  138.8830 O   0  0  0  0  0  1  0  0  0  0  0  0
  189.9040  173.0350  139.2960 C   0  0  1  0  0  3  0  0  0  0  0  0
  188.1910  173.7780  137.6660 O   0  0  0  0  0  1  0  0  0  0  0  0
  190.4580  174.1590  137.2120 O   0  0  0  0  0  0  0  0  0  0  0  0
  189.5120  173.7910  138.0600 C   0  0  0  0  0  0  0  0  0  0  0  0
  4 10  2  0  0  0  0
  4  9  1  0  0  0  0
  5  9  2  0  0  0  0
  5  3  1  0  0  0  0
  6  1  1  6  0  0  0
  6  8  1  0  0  0  0
  7  2  1  6  0  0  0
  7  6  1  0  0  0  0
  7  4  1  0  0  0  0
  8 11  1  1  0  0  0
  8  5  1  0  0  0  0
 11 13  1  0  0  0  0
 12 17  2  0  0  0  0
 12 13  1  0  0  0  0
 13 18  2  0  0  0  0
 15 16  1  0  0  0  0
 15 14  2  0  0  0  0
 17 15  1  0  0  0  0
 18 14  1  0  0  0  0
 20  1  1  1  0  0  0
 20 19  1  0  0  0  0
 21 23  1  0  0  0  0
 21 20  1  0  0  0  0
 21 19  1  1  0  0  0
 22 23  1  0  0  0  0
 22 25  1  1  0  0  0
 23 27  1  1  0  0  0
 24 31  1  6  0  0  0
 24 22  1  0  0  0  0
 24 23  1  0  0  0  0
 27 26  2  0  0  0  0
 27 28  1  0  0  0  0
 28 29  1  0  0  0  0
 31 30  1  6  0  0  0
 32 34  1  0  0  0  0
 33 34  2  0  0  0  0
 34 31  1  0  0  0  0
M  END
>  <MODEL>
9

>  <REMARK>
 VINA RESULT:      -6.3      2.559      6.041
  Name = 
  9 active torsions:
  status: ('A' for Active; 'I' for Inactive)
    1  A    between atoms: C_3  and  C_34
    2  A    between atoms: S_6  and  C_11
    3  A    between atoms: S_6  and  C_20
    4  A    between atoms: O_12  and  C_14
    5  A    between atoms: C_14  and  C_28
    6  A    between atoms: N_21  and  C_28
    7  A    between atoms: C_24  and  C_34
    8  A    between atoms: C_26  and  C_29
    9  A    between atoms: C_29  and  C_31
                            x       y       z     vdW  Elec       q    Type
                         _______ _______ _______ _____ _____    ______ ____

>  <TORSDO>
F 9

$$$$
