=
 OpenBabel11062422533D

 46 49  0  0  1  0  0  0  0  0999 V2000
  192.5500  175.3450  146.3140 C   0  0  0  0  0  0  0  0  0  0  0  0
  192.9200  174.0770  145.6080 C   0  0  0  0  0  2  0  0  0  0  0  0
  193.2110  176.4780  146.0470 C   0  0  0  0  0  3  0  0  0  0  0  0
  194.3130  173.6740  145.9530 C   0  0  0  0  0  3  0  0  0  0  0  0
  195.3000  175.6840  144.8640 C   0  0  0  0  0  0  0  0  0  0  0  0
  194.3470  176.5990  145.1110 C   0  0  0  0  0  3  0  0  0  0  0  0
  195.3840  174.3920  145.6090 C   0  0  0  0  0  0  0  0  0  0  0  0
  188.9650  176.0290  145.4760 N   0  0  0  0  0  0  0  0  0  0  0  0
  190.4940  177.8920  146.6580 S   0  0  0  0  0  0  0  0  0  0  0  0
  189.4860  173.8120  144.9320 O   0  0  0  0  0  0  0  0  0  0  0  0
  191.0760  176.7250  147.9290 C   0  0  0  0  0  2  0  0  0  0  0  0
  190.2240  174.4690  147.0880 C   0  0  0  0  0  2  0  0  0  0  0  0
  188.8850  177.0690  146.4920 C   0  0  0  0  0  2  0  0  0  0  0  0
  191.4510  175.3520  147.3610 C   0  0  1  0  0  3  0  0  0  0  0  0
  189.5460  174.7450  145.7770 C   0  0  0  0  0  0  0  0  0  0  0  0
  188.4260  176.3530  144.1540 C   0  0  2  0  0  3  0  0  0  0  0  0
  188.7610  177.7870  143.7720 C   0  0  0  0  0  2  0  0  0  0  0  0
  188.7740  177.9210  142.3830 O   0  0  0  0  0  1  0  0  0  0  0  0
  186.9170  176.1100  144.0850 C   0  0  0  0  0  2  0  0  0  0  0  0
  185.1430  177.8200  143.7120 C   0  0  0  0  0  2  0  0  0  0  0  0
  184.4480  177.8280  146.4840 C   0  0  0  0  0  3  0  0  0  0  0  0
  185.3730  176.7660  145.9490 C   0  0  0  0  0  2  0  0  0  0  0  0
  186.1360  177.2520  144.7170 C   0  0  1  0  0  3  0  0  0  0  0  0
  184.4760  179.0610  144.3050 C   0  0  0  0  0  2  0  0  0  0  0  0
  184.0060  178.8420  145.7240 C   0  0  0  0  0  3  0  0  0  0  0  0
  196.7100  177.1680  143.6740 O   0  0  0  0  0  0  0  0  0  0  0  0
  196.3230  175.9790  143.8240 C   0  0  0  0  0  0  0  0  0  0  0  0
  196.9260  174.9920  143.0330 O   0  0  0  0  0  0  0  0  0  0  0  0
  196.2260  174.1870  142.0940 C   0  0  0  0  0  2  0  0  0  0  0  0
  195.0430  174.9440  141.4910 C   0  0  2  0  0  3  0  0  0  0  0  0
  193.1620  173.1860  141.2370 C   0  0  0  0  0  0  0  0  0  0  0  0
  193.9590  172.3130  140.8000 O   0  0  0  0  0  0  0  0  0  0  0  0
  191.3060  175.0120  142.4330 C   0  0  0  0  0  2  0  0  0  0  0  0
  192.6740  175.5350  142.0250 C   0  0  0  0  0  2  0  0  0  0  0  0
  191.7420  172.9660  141.1420 N   0  0  0  0  0  0  0  0  0  0  0  0
  190.8020  174.0680  141.3510 C   0  0  0  0  0  2  0  0  0  0  0  0
  193.6920  174.3990  141.9800 C   0  0  2  0  0  3  0  0  0  0  0  0
  191.2420  171.6560  140.7280 C   0  0  2  0  0  3  0  0  0  0  0  0
  189.3110  171.8640  139.3850 O   0  0  0  0  0  0  0  0  0  0  0  0
  190.5270  171.7590  139.4170 C   0  0  0  0  0  3  0  0  0  0  0  0
  190.3590  171.1110  141.7480 N   0  0  0  0  0  2  0  0  0  0  0  0
  190.5280  169.7680  141.7360 O   0  0  0  0  0  1  0  0  0  0  0  0
  195.1400  175.1150  139.9780 C   0  0  0  0  0  2  0  0  0  0  0  0
  196.3990  174.5740  139.4950 N   0  0  0  0  0  1  0  0  0  0  0  0
  196.7930  172.3690  145.7370 C   0  0  0  0  0  1  0  0  0  0  0  0
  196.7200  173.8600  146.0100 C   0  0  0  0  0  2  0  0  0  0  0  0
  2  4  1  0  0  0  0
  2  1  1  0  0  0  0
  3  1  2  0  0  0  0
  5  6  2  0  0  0  0
  5  7  1  0  0  0  0
  6  3  1  0  0  0  0
  7  4  2  0  0  0  0
  7 46  1  0  0  0  0
  8 15  1  0  0  0  0
  8 13  1  0  0  0  0
  9 11  1  0  0  0  0
 10 15  2  0  0  0  0
 12 14  1  0  0  0  0
 13  9  1  0  0  0  0
 14  1  1  6  0  0  0
 14 11  1  0  0  0  0
 15 12  1  0  0  0  0
 16 17  1  1  0  0  0
 16  8  1  0  0  0  0
 18 17  1  0  0  0  0
 19 16  1  0  0  0  0
 20 24  1  0  0  0  0
 20 23  1  0  0  0  0
 22 21  1  0  0  0  0
 23 19  1  6  0  0  0
 23 22  1  0  0  0  0
 24 25  1  0  0  0  0
 25 21  2  0  0  0  0
 26 27  2  0  0  0  0
 27  5  1  0  0  0  0
 28 27  1  0  0  0  0
 29 28  1  0  0  0  0
 30 43  1  6  0  0  0
 30 29  1  0  0  0  0
 31 37  1  0  0  0  0
 32 31  2  0  0  0  0
 34 33  1  0  0  0  0
 35 31  1  0  0  0  0
 35 36  1  0  0  0  0
 36 33  1  0  0  0  0
 37 30  1  6  0  0  0
 37 34  1  0  0  0  0
 38 40  1  6  0  0  0
 38 35  1  0  0  0  0
 38 41  1  0  0  0  0
 39 40  2  0  0  0  0
 42 41  1  0  0  0  0
 44 43  1  0  0  0  0
 45 46  1  0  0  0  0
M  END
>  <MODEL>
1

>  <REMARK>
 VINA RESULT:      -6.8      0.000      0.000
  Name = 
  15 active torsions:
  status: ('A' for Active; 'I' for Inactive)
    1  A    between atoms: N_2  and  C_7
    2  A    between atoms: N_4  and  C_15
    3  A    between atoms: C_6  and  C_23
    4  A    between atoms: C_7  and  N_30
    5  A    between atoms: C_7  and  C_34
    6  A    between atoms: C_8  and  C_35
    7  A    between atoms: C_15  and  C_22
    8  A    between atoms: C_15  and  C_24
    9  A    between atoms: C_22  and  C_32
   10  A    between atoms: C_23  and  C_43
   11  A    between atoms: C_23  and  C_45
   12  A    between atoms: C_27  and  C_33
   13  A    between atoms: O_29  and  C_33
   14  A    between atoms: O_29  and  C_45
   15  A    between atoms: C_37  and  C_41
                            x       y       z     vdW  Elec       q    Type
                         _______ _______ _______ _____ _____    ______ ____

>  <TORSDO>
F 15

$$$$
=
 OpenBabel11062422533D

 46 49  0  0  1  0  0  0  0  0999 V2000
  189.5920  172.6870  143.0290 C   0  0  0  0  0  0  0  0  0  0  0  0
  188.8830  173.9820  142.7740 C   0  0  0  0  0  2  0  0  0  0  0  0
  189.9300  172.3420  144.2780 C   0  0  0  0  0  3  0  0  0  0  0  0
  189.7470  175.1340  143.1560 C   0  0  0  0  0  3  0  0  0  0  0  0
  189.7360  174.5090  145.5660 C   0  0  0  0  0  0  0  0  0  0  0  0
  189.6980  173.1680  145.4790 C   0  0  0  0  0  3  0  0  0  0  0  0
  190.1220  175.3780  144.4140 C   0  0  0  0  0  0  0  0  0  0  0  0
  193.1400  171.8210  142.1990 N   0  0  0  0  0  0  0  0  0  0  0  0
  191.7610  173.5900  140.7240 S   0  0  0  0  0  0  0  0  0  0  0  0
  192.4180  170.5170  144.0060 O   0  0  0  0  0  0  0  0  0  0  0  0
  190.3360  172.4680  140.5630 C   0  0  0  0  0  2  0  0  0  0  0  0
  190.8830  170.5840  142.1990 C   0  0  0  0  0  2  0  0  0  0  0  0
  192.9560  172.2270  140.8140 C   0  0  0  0  0  2  0  0  0  0  0  0
  189.9640  171.7720  141.8760 C   0  0  1  0  0  3  0  0  0  0  0  0
  192.1790  170.9690  142.8540 C   0  0  0  0  0  0  0  0  0  0  0  0
  194.3390  172.3140  142.8800 C   0  0  2  0  0  3  0  0  0  0  0  0
  195.5360  171.4280  142.5700 C   0  0  0  0  0  2  0  0  0  0  0  0
  195.1760  170.0850  142.6800 O   0  0  0  0  0  1  0  0  0  0  0  0
  194.1230  172.4280  144.3900 C   0  0  0  0  0  2  0  0  0  0  0  0
  194.4180  174.8270  143.7790 C   0  0  0  0  0  2  0  0  0  0  0  0
  193.8000  175.6690  146.4390 C   0  0  0  0  0  3  0  0  0  0  0  0
  193.5640  174.2370  146.0360 C   0  0  0  0  0  2  0  0  0  0  0  0
  194.5020  173.8070  144.9080 C   0  0  1  0  0  3  0  0  0  0  0  0
  194.9480  176.1730  144.2720 C   0  0  0  0  0  2  0  0  0  0  0  0
  194.3860  176.5570  145.6200 C   0  0  0  0  0  3  0  0  0  0  0  0
  190.2840  175.2040  147.7630 O   0  0  0  0  0  0  0  0  0  0  0  0
  189.4010  175.1520  146.8660 C   0  0  0  0  0  0  0  0  0  0  0  0
  188.1650  175.7570  147.1320 O   0  0  0  0  0  0  0  0  0  0  0  0
  187.7300  176.9700  146.5360 C   0  0  0  0  0  2  0  0  0  0  0  0
  186.2230  177.1570  146.6990 C   0  0  2  0  0  3  0  0  0  0  0  0
  186.0410  177.1670  144.1180 C   0  0  0  0  0  0  0  0  0  0  0  0
  186.3480  175.9480  144.0350 O   0  0  0  0  0  0  0  0  0  0  0  0
  185.1120  179.8760  144.2040 C   0  0  0  0  0  2  0  0  0  0  0  0
  185.6840  179.2680  145.4730 C   0  0  0  0  0  2  0  0  0  0  0  0
  186.0170  177.9790  142.9290 N   0  0  0  0  0  0  0  0  0  0  0  0
  185.9700  179.4390  143.0250 C   0  0  0  0  0  2  0  0  0  0  0  0
  185.5690  177.7460  145.4400 C   0  0  2  0  0  3  0  0  0  0  0  0
  186.1500  177.3430  141.6200 C   0  0  2  0  0  3  0  0  0  0  0  0
  188.4930  177.6330  141.5770 O   0  0  0  0  0  0  0  0  0  0  0  0
  187.4380  177.7420  140.9720 C   0  0  0  0  0  3  0  0  0  0  0  0
  185.0220  177.6990  140.7720 N   0  0  0  0  0  2  0  0  0  0  0  0
  185.4370  177.5630  139.4910 O   0  0  0  0  0  1  0  0  0  0  0  0
  185.8350  177.8620  147.9970 C   0  0  0  0  0  2  0  0  0  0  0  0
  186.9000  178.7570  148.4150 N   0  0  0  0  0  1  0  0  0  0  0  0
  191.3770  177.2050  143.3280 C   0  0  0  0  0  1  0  0  0  0  0  0
  190.9800  176.5770  144.6510 C   0  0  0  0  0  2  0  0  0  0  0  0
  1  3  2  0  0  0  0
  2  1  1  0  0  0  0
  2  4  1  0  0  0  0
  3  6  1  0  0  0  0
  4  7  2  0  0  0  0
  5 27  1  0  0  0  0
  6  5  2  0  0  0  0
  7 46  1  0  0  0  0
  7  5  1  0  0  0  0
  8 15  1  0  0  0  0
  8 16  1  0  0  0  0
  9 13  1  0  0  0  0
 11  9  1  0  0  0  0
 11 14  1  0  0  0  0
 12 15  1  0  0  0  0
 13  8  1  0  0  0  0
 14 12  1  0  0  0  0
 14  1  1  1  0  0  0
 15 10  2  0  0  0  0
 16 17  1  1  0  0  0
 16 19  1  0  0  0  0
 17 18  1  0  0  0  0
 20 24  1  0  0  0  0
 20 23  1  0  0  0  0
 22 21  1  0  0  0  0
 23 19  1  6  0  0  0
 23 22  1  0  0  0  0
 24 25  1  0  0  0  0
 25 21  2  0  0  0  0
 27 28  1  0  0  0  0
 27 26  2  0  0  0  0
 29 28  1  0  0  0  0
 30 29  1  6  0  0  0
 30 43  1  0  0  0  0
 31 37  1  0  0  0  0
 32 31  2  0  0  0  0
 33 34  1  0  0  0  0
 35 36  1  0  0  0  0
 35 31  1  0  0  0  0
 36 33  1  0  0  0  0
 37 34  1  0  0  0  0
 37 30  1  1  0  0  0
 38 40  1  6  0  0  0
 38 35  1  0  0  0  0
 40 39  2  0  0  0  0
 41 38  1  0  0  0  0
 42 41  1  0  0  0  0
 43 44  1  0  0  0  0
 45 46  1  0  0  0  0
M  END
>  <MODEL>
2

>  <REMARK>
 VINA RESULT:      -6.7      2.809      8.280
  Name = 
  15 active torsions:
  status: ('A' for Active; 'I' for Inactive)
    1  A    between atoms: N_2  and  C_7
    2  A    between atoms: N_4  and  C_15
    3  A    between atoms: C_6  and  C_23
    4  A    between atoms: C_7  and  N_30
    5  A    between atoms: C_7  and  C_34
    6  A    between atoms: C_8  and  C_35
    7  A    between atoms: C_15  and  C_22
    8  A    between atoms: C_15  and  C_24
    9  A    between atoms: C_22  and  C_32
   10  A    between atoms: C_23  and  C_43
   11  A    between atoms: C_23  and  C_45
   12  A    between atoms: C_27  and  C_33
   13  A    between atoms: O_29  and  C_33
   14  A    between atoms: O_29  and  C_45
   15  A    between atoms: C_37  and  C_41
                            x       y       z     vdW  Elec       q    Type
                         _______ _______ _______ _____ _____    ______ ____

>  <TORSDO>
F 15

$$$$
=
 OpenBabel11062422533D

 46 49  0  0  1  0  0  0  0  0999 V2000
  192.1740  174.8610  145.8120 C   0  0  0  0  0  0  0  0  0  0  0  0
  192.7080  173.7650  144.9410 C   0  0  0  0  0  2  0  0  0  0  0  0
  192.8210  176.0300  145.8910 C   0  0  0  0  0  3  0  0  0  0  0  0
  194.0410  173.3120  145.4300 C   0  0  0  0  0  3  0  0  0  0  0  0
  195.1080  175.5100  144.9470 C   0  0  0  0  0  0  0  0  0  0  0  0
  194.0900  176.3480  145.2040 C   0  0  0  0  0  3  0  0  0  0  0  0
  195.1240  174.0940  145.4230 C   0  0  0  0  0  0  0  0  0  0  0  0
  188.8440  176.2630  144.8260 N   0  0  0  0  0  0  0  0  0  0  0  0
  190.2910  177.3740  146.7950 S   0  0  0  0  0  0  0  0  0  0  0  0
  189.2790  174.3280  143.5800 O   0  0  0  0  0  0  0  0  0  0  0  0
  190.5590  175.7700  147.6140 C   0  0  0  0  0  2  0  0  0  0  0  0
  189.6910  174.0850  145.9030 C   0  0  0  0  0  2  0  0  0  0  0  0
  188.6750  176.8820  146.1320 C   0  0  0  0  0  2  0  0  0  0  0  0
  190.9180  174.6460  146.6370 C   0  0  1  0  0  3  0  0  0  0  0  0
  189.2670  174.8900  144.7080 C   0  0  0  0  0  0  0  0  0  0  0  0
  188.5620  177.0970  143.6560 C   0  0  2  0  0  3  0  0  0  0  0  0
  189.7890  177.9060  143.2640 C   0  0  0  0  0  2  0  0  0  0  0  0
  190.8810  177.0570  143.0780 O   0  0  0  0  0  1  0  0  0  0  0  0
  187.3600  178.0130  143.8940 C   0  0  0  0  0  2  0  0  0  0  0  0
  185.0080  178.5480  143.2630 C   0  0  0  0  0  2  0  0  0  0  0  0
  185.5670  178.1340  140.4920 C   0  0  0  0  0  3  0  0  0  0  0  0
  186.7020  178.1960  141.4810 C   0  0  0  0  0  2  0  0  0  0  0  0
  186.2560  177.7640  142.8780 C   0  0  1  0  0  3  0  0  0  0  0  0
  183.8630  178.1710  142.3250 C   0  0  0  0  0  2  0  0  0  0  0  0
  184.2800  178.1690  140.8740 C   0  0  0  0  0  3  0  0  0  0  0  0
  196.3440  177.2500  143.9210 O   0  0  0  0  0  0  0  0  0  0  0  0
  196.2750  176.0180  144.1750 C   0  0  0  0  0  0  0  0  0  0  0  0
  197.3390  175.2060  143.7600 O   0  0  0  0  0  0  0  0  0  0  0  0
  197.4430  174.6330  142.4640 C   0  0  0  0  0  2  0  0  0  0  0  0
  196.1930  174.9140  141.6330 C   0  0  2  0  0  3  0  0  0  0  0  0
  193.9500  173.6370  141.4630 C   0  0  0  0  0  0  0  0  0  0  0  0
  193.2930  174.6990  141.2970 O   0  0  0  0  0  0  0  0  0  0  0  0
  195.3660  171.1500  141.6020 C   0  0  0  0  0  2  0  0  0  0  0  0
  196.1230  172.4310  141.9110 C   0  0  0  0  0  2  0  0  0  0  0  0
  193.2570  172.4050  141.7390 N   0  0  0  0  0  0  0  0  0  0  0  0
  193.9850  171.2350  142.2340 C   0  0  0  0  0  2  0  0  0  0  0  0
  195.4520  173.6270  141.2410 C   0  0  2  0  0  3  0  0  0  0  0  0
  191.8010  172.3570  141.6240 C   0  0  2  0  0  3  0  0  0  0  0  0
  190.5850  171.4240  143.4200 O   0  0  0  0  0  0  0  0  0  0  0  0
  191.2500  171.2140  142.4180 C   0  0  0  0  0  3  0  0  0  0  0  0
  191.4110  172.2390  140.2270 N   0  0  0  0  0  2  0  0  0  0  0  0
  190.5180  173.2280  139.9850 O   0  0  0  0  0  1  0  0  0  0  0  0
  196.4400  175.8750  140.4730 C   0  0  0  0  0  2  0  0  0  0  0  0
  196.3950  175.1550  139.2120 N   0  0  0  0  0  1  0  0  0  0  0  0
  196.4270  172.0100  145.6540 C   0  0  0  0  0  1  0  0  0  0  0  0
  196.3960  173.5020  145.9320 C   0  0  0  0  0  2  0  0  0  0  0  0
  1  3  2  0  0  0  0
  2  4  1  0  0  0  0
  2  1  1  0  0  0  0
  5  6  2  0  0  0  0
  5  7  1  0  0  0  0
  6  3  1  0  0  0  0
  7  4  2  0  0  0  0
  7 46  1  0  0  0  0
  8 13  1  0  0  0  0
  9 11  1  0  0  0  0
 10 15  2  0  0  0  0
 12 14  1  0  0  0  0
 13  9  1  0  0  0  0
 14  1  1  6  0  0  0
 14 11  1  0  0  0  0
 15  8  1  0  0  0  0
 15 12  1  0  0  0  0
 16 17  1  1  0  0  0
 16 19  1  0  0  0  0
 16  8  1  0  0  0  0
 18 17  1  0  0  0  0
 21 25  2  0  0  0  0
 21 22  1  0  0  0  0
 22 23  1  0  0  0  0
 23 20  1  0  0  0  0
 23 19  1  1  0  0  0
 24 20  1  0  0  0  0
 25 24  1  0  0  0  0
 26 27  2  0  0  0  0
 27  5  1  0  0  0  0
 28 27  1  0  0  0  0
 29 28  1  0  0  0  0
 30 43  1  6  0  0  0
 30 29  1  0  0  0  0
 31 35  1  0  0  0  0
 32 31  2  0  0  0  0
 33 34  1  0  0  0  0
 33 36  1  0  0  0  0
 35 36  1  0  0  0  0
 37 31  1  0  0  0  0
 37 30  1  1  0  0  0
 37 34  1  0  0  0  0
 38 35  1  0  0  0  0
 38 40  1  1  0  0  0
 40 39  2  0  0  0  0
 41 38  1  0  0  0  0
 42 41  1  0  0  0  0
 44 43  1  0  0  0  0
 45 46  1  0  0  0  0
M  END
>  <MODEL>
3

>  <REMARK>
 VINA RESULT:      -6.6      1.542      2.384
  Name = 
  15 active torsions:
  status: ('A' for Active; 'I' for Inactive)
    1  A    between atoms: N_2  and  C_7
    2  A    between atoms: N_4  and  C_15
    3  A    between atoms: C_6  and  C_23
    4  A    between atoms: C_7  and  N_30
    5  A    between atoms: C_7  and  C_34
    6  A    between atoms: C_8  and  C_35
    7  A    between atoms: C_15  and  C_22
    8  A    between atoms: C_15  and  C_24
    9  A    between atoms: C_22  and  C_32
   10  A    between atoms: C_23  and  C_43
   11  A    between atoms: C_23  and  C_45
   12  A    between atoms: C_27  and  C_33
   13  A    between atoms: O_29  and  C_33
   14  A    between atoms: O_29  and  C_45
   15  A    between atoms: C_37  and  C_41
                            x       y       z     vdW  Elec       q    Type
                         _______ _______ _______ _____ _____    ______ ____

>  <TORSDO>
F 15

$$$$
=
 OpenBabel11062422533D

 46 49  0  0  1  0  0  0  0  0999 V2000
  192.9110  174.5570  144.8330 C   0  0  0  0  0  0  0  0  0  0  0  0
  192.4970  174.4780  143.3950 C   0  0  0  0  0  2  0  0  0  0  0  0
  193.2600  173.4460  145.4920 C   0  0  0  0  0  3  0  0  0  0  0  0
  191.2540  173.6690  143.2540 C   0  0  0  0  0  3  0  0  0  0  0  0
  192.3680  171.5840  144.0340 C   0  0  0  0  0  0  0  0  0  0  0  0
  193.2380  172.0810  144.9290 C   0  0  0  0  0  3  0  0  0  0  0  0
  191.1980  172.3640  143.5310 C   0  0  0  0  0  0  0  0  0  0  0  0
  189.8520  176.6990  145.1120 N   0  0  0  0  0  0  0  0  0  0  0  0
  191.8300  177.3190  143.4070 S   0  0  0  0  0  0  0  0  0  0  0  0
  189.7390  174.9650  146.6820 O   0  0  0  0  0  0  0  0  0  0  0  0
  193.1070  177.1310  144.6920 C   0  0  0  0  0  2  0  0  0  0  0  0
  191.8290  176.0860  146.6410 C   0  0  0  0  0  2  0  0  0  0  0  0
  190.5670  177.8560  144.5950 C   0  0  0  0  0  2  0  0  0  0  0  0
  192.9060  175.8870  145.5640 C   0  0  1  0  0  3  0  0  0  0  0  0
  190.4240  175.8800  146.1510 C   0  0  0  0  0  0  0  0  0  0  0  0
  188.5370  176.4200  144.5310 C   0  0  2  0  0  3  0  0  0  0  0  0
  188.6570  175.4370  143.3760 C   0  0  0  0  0  2  0  0  0  0  0  0
  187.4460  175.3620  142.6860 O   0  0  0  0  0  1  0  0  0  0  0  0
  187.8350  177.7030  144.0830 C   0  0  0  0  0  2  0  0  0  0  0  0
  185.5170  178.6080  144.2410 C   0  0  0  0  0  2  0  0  0  0  0  0
  185.0380  177.1880  146.6750 C   0  0  0  0  0  3  0  0  0  0  0  0
  186.2690  176.8820  145.8620 C   0  0  0  0  0  2  0  0  0  0  0  0
  186.7110  178.0880  145.0330 C   0  0  1  0  0  3  0  0  0  0  0  0
  184.4580  179.1330  145.2090 C   0  0  0  0  0  2  0  0  0  0  0  0
  184.1930  178.1800  146.3500 C   0  0  0  0  0  3  0  0  0  0  0  0
  192.8950  169.2980  144.3620 O   0  0  0  0  0  0  0  0  0  0  0  0
  192.5660  170.1930  143.5390 C   0  0  0  0  0  0  0  0  0  0  0  0
  192.3510  169.8090  142.2090 O   0  0  0  0  0  0  0  0  0  0  0  0
  193.2830  170.0230  141.1590 C   0  0  0  0  0  2  0  0  0  0  0  0
  193.2230  171.4630  140.6510 C   0  0  2  0  0  3  0  0  0  0  0  0
  191.5420  172.6970  139.1190 C   0  0  0  0  0  0  0  0  0  0  0  0
  191.7320  173.7980  139.7030 O   0  0  0  0  0  0  0  0  0  0  0  0
  191.2050  170.3060  137.5780 C   0  0  0  0  0  2  0  0  0  0  0  0
  191.9480  170.2140  138.9000 C   0  0  0  0  0  2  0  0  0  0  0  0
  190.4400  172.5570  138.2040 N   0  0  0  0  0  0  0  0  0  0  0  0
  190.0100  171.2320  137.7530 C   0  0  0  0  0  2  0  0  0  0  0  0
  192.5450  171.5680  139.2760 C   0  0  2  0  0  3  0  0  0  0  0  0
  189.6780  173.7390  137.8070 C   0  0  2  0  0  3  0  0  0  0  0  0
  188.3870  174.4210  139.6630 O   0  0  0  0  0  0  0  0  0  0  0  0
  188.4080  173.8320  138.5930 C   0  0  0  0  0  3  0  0  0  0  0  0
  189.3910  173.6950  136.3810 N   0  0  0  0  0  2  0  0  0  0  0  0
  189.0200  174.9450  136.0170 O   0  0  0  0  0  1  0  0  0  0  0  0
  194.5580  172.1980  140.7510 C   0  0  0  0  0  2  0  0  0  0  0  0
  195.0750  172.4740  139.4220 N   0  0  0  0  0  1  0  0  0  0  0  0
  189.4350  171.8270  141.8900 C   0  0  0  0  0  1  0  0  0  0  0  0
  189.8870  171.6790  143.3310 C   0  0  0  0  0  2  0  0  0  0  0  0
  1  3  2  0  0  0  0
  2  1  1  0  0  0  0
  4  2  1  0  0  0  0
  4  7  2  0  0  0  0
  5  6  2  0  0  0  0
  6  3  1  0  0  0  0
  7  5  1  0  0  0  0
  8 15  1  0  0  0  0
  9 13  1  0  0  0  0
  9 11  1  0  0  0  0
 11 14  1  0  0  0  0
 13  8  1  0  0  0  0
 14  1  1  6  0  0  0
 14 12  1  0  0  0  0
 15 12  1  0  0  0  0
 15 10  2  0  0  0  0
 16 17  1  6  0  0  0
 16  8  1  0  0  0  0
 18 17  1  0  0  0  0
 19 16  1  0  0  0  0
 20 23  1  0  0  0  0
 20 24  1  0  0  0  0
 22 21  1  0  0  0  0
 23 19  1  6  0  0  0
 23 22  1  0  0  0  0
 24 25  1  0  0  0  0
 25 21  2  0  0  0  0
 27  5  1  0  0  0  0
 27 26  2  0  0  0  0
 28 27  1  0  0  0  0
 29 28  1  0  0  0  0
 30 43  1  6  0  0  0
 30 29  1  0  0  0  0
 31 37  1  0  0  0  0
 31 32  2  0  0  0  0
 33 36  1  0  0  0  0
 33 34  1  0  0  0  0
 34 37  1  0  0  0  0
 35 31  1  0  0  0  0
 36 35  1  0  0  0  0
 37 30  1  1  0  0  0
 38 35  1  0  0  0  0
 38 40  1  1  0  0  0
 40 39  2  0  0  0  0
 41 38  1  0  0  0  0
 42 41  1  0  0  0  0
 44 43  1  0  0  0  0
 45 46  1  0  0  0  0
 46  7  1  0  0  0  0
M  END
>  <MODEL>
4

>  <REMARK>
 VINA RESULT:      -6.5      2.528      4.231
  Name = 
  15 active torsions:
  status: ('A' for Active; 'I' for Inactive)
    1  A    between atoms: N_2  and  C_7
    2  A    between atoms: N_4  and  C_15
    3  A    between atoms: C_6  and  C_23
    4  A    between atoms: C_7  and  N_30
    5  A    between atoms: C_7  and  C_34
    6  A    between atoms: C_8  and  C_35
    7  A    between atoms: C_15  and  C_22
    8  A    between atoms: C_15  and  C_24
    9  A    between atoms: C_22  and  C_32
   10  A    between atoms: C_23  and  C_43
   11  A    between atoms: C_23  and  C_45
   12  A    between atoms: C_27  and  C_33
   13  A    between atoms: O_29  and  C_33
   14  A    between atoms: O_29  and  C_45
   15  A    between atoms: C_37  and  C_41
                            x       y       z     vdW  Elec       q    Type
                         _______ _______ _______ _____ _____    ______ ____

>  <TORSDO>
F 15

$$$$
=
 OpenBabel11062422533D

 46 49  0  0  1  0  0  0  0  0999 V2000
  192.5310  174.7670  145.1920 C   0  0  0  0  0  0  0  0  0  0  0  0
  192.8300  173.9150  143.9970 C   0  0  0  0  0  2  0  0  0  0  0  0
  193.1900  175.9170  145.3770 C   0  0  0  0  0  3  0  0  0  0  0  0
  194.2360  173.4230  144.0440 C   0  0  0  0  0  3  0  0  0  0  0  0
  195.1800  175.7170  143.8300 C   0  0  0  0  0  0  0  0  0  0  0  0
  194.2610  176.4330  144.5010 C   0  0  0  0  0  3  0  0  0  0  0  0
  195.2940  174.2330  143.9590 C   0  0  0  0  0  0  0  0  0  0  0  0
  188.9470  175.8470  145.0710 N   0  0  0  0  0  0  0  0  0  0  0  0
  190.6630  176.9240  146.8320 S   0  0  0  0  0  0  0  0  0  0  0  0
  189.2930  174.1130  143.5360 O   0  0  0  0  0  0  0  0  0  0  0  0
  191.2540  175.2910  147.3780 C   0  0  0  0  0  2  0  0  0  0  0  0
  190.2110  173.6910  145.6820 C   0  0  0  0  0  2  0  0  0  0  0  0
  188.9990  176.3080  146.4500 C   0  0  0  0  0  2  0  0  0  0  0  0
  191.5060  174.3210  146.2190 C   0  0  1  0  0  3  0  0  0  0  0  0
  189.4670  174.5540  144.7030 C   0  0  0  0  0  0  0  0  0  0  0  0
  188.3430  176.7530  144.0920 C   0  0  2  0  0  3  0  0  0  0  0  0
  189.3110  177.0400  142.9550 C   0  0  0  0  0  2  0  0  0  0  0  0
  188.6050  177.3860  141.8020 O   0  0  0  0  0  1  0  0  0  0  0  0
  187.8700  178.0540  144.7450 C   0  0  0  0  0  2  0  0  0  0  0  0
  185.9630  178.3230  146.3280 C   0  0  0  0  0  2  0  0  0  0  0  0
  184.3010  179.4120  144.2740 C   0  0  0  0  0  3  0  0  0  0  0  0
  185.7750  179.2280  144.0220 C   0  0  0  0  0  2  0  0  0  0  0  0
  186.3550  178.0980  144.8730 C   0  0  1  0  0  3  0  0  0  0  0  0
  184.4450  178.2120  146.4660 C   0  0  0  0  0  2  0  0  0  0  0  0
  183.7090  178.9920  145.4030 C   0  0  0  0  0  3  0  0  0  0  0  0
  197.0220  177.1600  143.4610 O   0  0  0  0  0  0  0  0  0  0  0  0
  196.1350  176.4340  142.9400 C   0  0  0  0  0  0  0  0  0  0  0  0
  196.1370  176.3000  141.5450 O   0  0  0  0  0  0  0  0  0  0  0  0
  197.0930  175.5390  140.8210 C   0  0  0  0  0  2  0  0  0  0  0  0
  196.6300  175.2880  139.3880 C   0  0  2  0  0  3  0  0  0  0  0  0
  194.2470  174.3490  139.0210 C   0  0  0  0  0  0  0  0  0  0  0  0
  193.9120  175.3260  138.2990 O   0  0  0  0  0  0  0  0  0  0  0  0
  194.9710  171.9770  140.4550 C   0  0  0  0  0  2  0  0  0  0  0  0
  195.9180  173.1650  140.4980 C   0  0  0  0  0  2  0  0  0  0  0  0
  193.2400  173.4360  139.4960 N   0  0  0  0  0  0  0  0  0  0  0  0
  193.5420  172.4870  140.5700 C   0  0  0  0  0  2  0  0  0  0  0  0
  195.7150  174.0590  139.2780 C   0  0  2  0  0  3  0  0  0  0  0  0
  191.8780  173.5300  138.9760 C   0  0  2  0  0  3  0  0  0  0  0  0
  189.8840  173.7490  140.2220 O   0  0  0  0  0  0  0  0  0  0  0  0
  190.8900  173.0910  140.0110 C   0  0  0  0  0  3  0  0  0  0  0  0
  191.7440  172.7260  137.7710 N   0  0  0  0  0  2  0  0  0  0  0  0
  191.4520  173.5790  136.7610 O   0  0  0  0  0  1  0  0  0  0  0  0
  197.7650  175.3190  138.3680 C   0  0  0  0  0  2  0  0  0  0  0  0
  197.2440  175.0730  137.0340 N   0  0  0  0  0  1  0  0  0  0  0  0
  197.3430  173.9610  145.3080 C   0  0  0  0  0  1  0  0  0  0  0  0
  196.6450  173.6000  144.0090 C   0  0  0  0  0  2  0  0  0  0  0  0
  1  3  2  0  0  0  0
  2  4  1  0  0  0  0
  2  1  1  0  0  0  0
  5  7  1  0  0  0  0
  5  6  2  0  0  0  0
  6  3  1  0  0  0  0
  7 46  1  0  0  0  0
  7  4  2  0  0  0  0
  8 13  1  0  0  0  0
  9 11  1  0  0  0  0
 10 15  2  0  0  0  0
 12 14  1  0  0  0  0
 13  9  1  0  0  0  0
 14  1  1  6  0  0  0
 14 11  1  0  0  0  0
 15  8  1  0  0  0  0
 15 12  1  0  0  0  0
 16 17  1  6  0  0  0
 16 19  1  0  0  0  0
 16  8  1  0  0  0  0
 18 17  1  0  0  0  0
 20 24  1  0  0  0  0
 21 25  2  0  0  0  0
 22 21  1  0  0  0  0
 22 23  1  0  0  0  0
 23 19  1  1  0  0  0
 23 20  1  0  0  0  0
 25 24  1  0  0  0  0
 27 26  2  0  0  0  0
 27  5  1  0  0  0  0
 28 27  1  0  0  0  0
 29 28  1  0  0  0  0
 30 43  1  6  0  0  0
 30 29  1  0  0  0  0
 31 37  1  0  0  0  0
 31 35  1  0  0  0  0
 32 31  2  0  0  0  0
 33 34  1  0  0  0  0
 33 36  1  0  0  0  0
 35 36  1  0  0  0  0
 37 30  1  1  0  0  0
 37 34  1  0  0  0  0
 38 35  1  0  0  0  0
 38 40  1  1  0  0  0
 40 39  2  0  0  0  0
 41 38  1  0  0  0  0
 42 41  1  0  0  0  0
 44 43  1  0  0  0  0
 46 45  1  0  0  0  0
M  END
>  <MODEL>
5

>  <REMARK>
 VINA RESULT:      -6.3      1.792      2.442
  Name = 
  15 active torsions:
  status: ('A' for Active; 'I' for Inactive)
    1  A    between atoms: N_2  and  C_7
    2  A    between atoms: N_4  and  C_15
    3  A    between atoms: C_6  and  C_23
    4  A    between atoms: C_7  and  N_30
    5  A    between atoms: C_7  and  C_34
    6  A    between atoms: C_8  and  C_35
    7  A    between atoms: C_15  and  C_22
    8  A    between atoms: C_15  and  C_24
    9  A    between atoms: C_22  and  C_32
   10  A    between atoms: C_23  and  C_43
   11  A    between atoms: C_23  and  C_45
   12  A    between atoms: C_27  and  C_33
   13  A    between atoms: O_29  and  C_33
   14  A    between atoms: O_29  and  C_45
   15  A    between atoms: C_37  and  C_41
                            x       y       z     vdW  Elec       q    Type
                         _______ _______ _______ _____ _____    ______ ____

>  <TORSDO>
F 15

$$$$
=
 OpenBabel11062422533D

 46 49  0  0  1  0  0  0  0  0999 V2000
  193.0880  174.5770  144.9040 C   0  0  0  0  0  0  0  0  0  0  0  0
  192.6800  173.2070  145.3520 C   0  0  0  0  0  2  0  0  0  0  0  0
  193.6280  174.7530  143.6920 C   0  0  0  0  0  3  0  0  0  0  0  0
  193.8690  172.3130  145.4460 C   0  0  0  0  0  3  0  0  0  0  0  0
  194.3020  172.4180  142.9960 C   0  0  0  0  0  0  0  0  0  0  0  0
  193.9130  173.6750  142.7240 C   0  0  0  0  0  3  0  0  0  0  0  0
  194.5930  171.9500  144.3840 C   0  0  0  0  0  0  0  0  0  0  0  0
  189.8800  176.4890  145.1880 N   0  0  0  0  0  0  0  0  0  0  0  0
  191.9680  177.4750  143.8190 S   0  0  0  0  0  0  0  0  0  0  0  0
  189.7320  174.5210  146.4480 O   0  0  0  0  0  0  0  0  0  0  0  0
  193.1240  177.1470  145.1860 C   0  0  0  0  0  2  0  0  0  0  0  0
  191.7370  175.7380  146.8030 C   0  0  0  0  0  2  0  0  0  0  0  0
  190.5640  177.7490  144.9350 C   0  0  0  0  0  2  0  0  0  0  0  0
  192.9240  175.7700  145.8280 C   0  0  1  0  0  3  0  0  0  0  0  0
  190.4020  175.5430  146.1410 C   0  0  0  0  0  0  0  0  0  0  0  0
  188.6490  176.2420  144.4350 C   0  0  2  0  0  3  0  0  0  0  0  0
  188.9270  175.3690  143.2210 C   0  0  0  0  0  2  0  0  0  0  0  0
  187.7480  175.1590  142.5040 O   0  0  0  0  0  1  0  0  0  0  0  0
  187.9690  177.5490  144.0210 C   0  0  0  0  0  2  0  0  0  0  0  0
  185.7590  178.6790  144.2510 C   0  0  0  0  0  2  0  0  0  0  0  0
  185.0550  177.0370  146.4810 C   0  0  0  0  0  3  0  0  0  0  0  0
  186.2700  176.6970  145.6580 C   0  0  0  0  0  2  0  0  0  0  0  0
  186.8650  177.9370  144.9920 C   0  0  1  0  0  3  0  0  0  0  0  0
  184.7330  179.1970  145.2590 C   0  0  0  0  0  2  0  0  0  0  0  0
  184.3330  178.1480  146.2680 C   0  0  0  0  0  3  0  0  0  0  0  0
  193.6820  170.4810  141.7820 O   0  0  0  0  0  0  0  0  0  0  0  0
  194.4690  171.4610  141.8680 C   0  0  0  0  0  0  0  0  0  0  0  0
  195.4250  171.6210  140.8550 O   0  0  0  0  0  0  0  0  0  0  0  0
  195.1340  171.5390  139.4670 C   0  0  0  0  0  2  0  0  0  0  0  0
  194.3070  172.7370  139.0050 C   0  0  2  0  0  3  0  0  0  0  0  0
  191.8120  172.8350  139.6830 C   0  0  0  0  0  0  0  0  0  0  0  0
  191.9540  173.9460  140.2600 O   0  0  0  0  0  0  0  0  0  0  0  0
  191.3250  170.4280  138.2070 C   0  0  0  0  0  2  0  0  0  0  0  0
  192.7650  170.8490  138.4490 C   0  0  0  0  0  2  0  0  0  0  0  0
  190.5990  172.0830  139.8740 N   0  0  0  0  0  0  0  0  0  0  0  0
  190.5250  170.6760  139.4780 C   0  0  0  0  0  2  0  0  0  0  0  0
  192.8530  172.3540  138.6880 C   0  0  2  0  0  3  0  0  0  0  0  0
  189.4690  172.7010  140.5650 C   0  0  2  0  0  3  0  0  0  0  0  0
  190.0130  172.0410  142.7660 O   0  0  0  0  0  0  0  0  0  0  0  0
  189.1980  171.9980  141.8580 C   0  0  0  0  0  3  0  0  0  0  0  0
  188.2870  172.6780  139.7160 N   0  0  0  0  0  2  0  0  0  0  0  0
  188.2320  173.8770  139.0900 O   0  0  0  0  0  1  0  0  0  0  0  0
  194.9890  173.5620  137.9170 C   0  0  0  0  0  2  0  0  0  0  0  0
  196.1110  172.8240  137.3620 N   0  0  0  0  0  1  0  0  0  0  0  0
  196.5620  171.5290  145.8120 C   0  0  0  0  0  1  0  0  0  0  0  0
  195.7510  171.0390  144.6260 C   0  0  0  0  0  2  0  0  0  0  0  0
  1  2  1  0  0  0  0
  2  4  1  0  0  0  0
  3  1  2  0  0  0  0
  5  7  1  0  0  0  0
  6  5  2  0  0  0  0
  6  3  1  0  0  0  0
  7 46  1  0  0  0  0
  7  4  2  0  0  0  0
  8 15  1  0  0  0  0
  9 13  1  0  0  0  0
  9 11  1  0  0  0  0
 11 14  1  0  0  0  0
 13  8  1  0  0  0  0
 14  1  1  6  0  0  0
 14 12  1  0  0  0  0
 15 10  2  0  0  0  0
 15 12  1  0  0  0  0
 16 17  1  6  0  0  0
 16  8  1  0  0  0  0
 18 17  1  0  0  0  0
 19 16  1  0  0  0  0
 20 23  1  0  0  0  0
 20 24  1  0  0  0  0
 22 21  1  0  0  0  0
 23 19  1  6  0  0  0
 23 22  1  0  0  0  0
 24 25  1  0  0  0  0
 25 21  2  0  0  0  0
 26 27  2  0  0  0  0
 27  5  1  0  0  0  0
 28 27  1  0  0  0  0
 29 28  1  0  0  0  0
 30 43  1  6  0  0  0
 30 29  1  0  0  0  0
 31 35  1  0  0  0  0
 31 32  2  0  0  0  0
 33 34  1  0  0  0  0
 33 36  1  0  0  0  0
 34 37  1  0  0  0  0
 35 38  1  0  0  0  0
 36 35  1  0  0  0  0
 37 30  1  1  0  0  0
 37 31  1  0  0  0  0
 38 40  1  1  0  0  0
 40 39  2  0  0  0  0
 41 38  1  0  0  0  0
 42 41  1  0  0  0  0
 44 43  1  0  0  0  0
 46 45  1  0  0  0  0
M  END
>  <MODEL>
6

>  <REMARK>
 VINA RESULT:      -6.3      2.110      3.158
  Name = 
  15 active torsions:
  status: ('A' for Active; 'I' for Inactive)
    1  A    between atoms: N_2  and  C_7
    2  A    between atoms: N_4  and  C_15
    3  A    between atoms: C_6  and  C_23
    4  A    between atoms: C_7  and  N_30
    5  A    between atoms: C_7  and  C_34
    6  A    between atoms: C_8  and  C_35
    7  A    between atoms: C_15  and  C_22
    8  A    between atoms: C_15  and  C_24
    9  A    between atoms: C_22  and  C_32
   10  A    between atoms: C_23  and  C_43
   11  A    between atoms: C_23  and  C_45
   12  A    between atoms: C_27  and  C_33
   13  A    between atoms: O_29  and  C_33
   14  A    between atoms: O_29  and  C_45
   15  A    between atoms: C_37  and  C_41
                            x       y       z     vdW  Elec       q    Type
                         _______ _______ _______ _____ _____    ______ ____

>  <TORSDO>
F 15

$$$$
=
 OpenBabel11062422533D

 46 49  0  0  1  0  0  0  0  0999 V2000
  192.6880  174.2190  144.2060 C   0  0  0  0  0  0  0  0  0  0  0  0
  193.3050  173.1660  143.3370 C   0  0  0  0  0  2  0  0  0  0  0  0
  192.9580  175.5120  143.9860 C   0  0  0  0  0  3  0  0  0  0  0  0
  194.7880  173.1700  143.4850 C   0  0  0  0  0  3  0  0  0  0  0  0
  195.0080  175.4490  142.5090 C   0  0  0  0  0  0  0  0  0  0  0  0
  193.8770  176.0240  142.9500 C   0  0  0  0  0  3  0  0  0  0  0  0
  195.5550  174.1930  143.1020 C   0  0  0  0  0  0  0  0  0  0  0  0
  189.2800  175.6950  144.6850 N   0  0  0  0  0  0  0  0  0  0  0  0
  191.3550  176.4730  146.1990 S   0  0  0  0  0  0  0  0  0  0  0  0
  189.1860  174.0230  143.0480 O   0  0  0  0  0  0  0  0  0  0  0  0
  191.8240  174.7560  146.5830 C   0  0  0  0  0  2  0  0  0  0  0  0
  190.3580  173.3810  145.0080 C   0  0  0  0  0  2  0  0  0  0  0  0
  189.5920  176.0680  146.0570 C   0  0  0  0  0  2  0  0  0  0  0  0
  191.7830  173.8320  145.3610 C   0  0  1  0  0  3  0  0  0  0  0  0
  189.5820  174.3750  144.1910 C   0  0  0  0  0  0  0  0  0  0  0  0
  188.6470  176.7170  143.8480 C   0  0  2  0  0  3  0  0  0  0  0  0
  189.5880  177.1600  142.7370 C   0  0  0  0  0  2  0  0  0  0  0  0
  189.0120  178.2040  142.0130 O   0  0  0  0  0  1  0  0  0  0  0  0
  188.1820  177.9150  144.6780 C   0  0  0  0  0  2  0  0  0  0  0  0
  186.3410  177.9170  146.3590 C   0  0  0  0  0  2  0  0  0  0  0  0
  184.5770  179.2540  144.5520 C   0  0  0  0  0  3  0  0  0  0  0  0
  186.0410  179.1370  144.2160 C   0  0  0  0  0  2  0  0  0  0  0  0
  186.6730  177.9100  144.8720 C   0  0  1  0  0  3  0  0  0  0  0  0
  184.8330  177.7570  146.5420 C   0  0  0  0  0  2  0  0  0  0  0  0
  184.0400  178.6650  145.6330 C   0  0  0  0  0  3  0  0  0  0  0  0
  196.4020  177.1570  141.6400 O   0  0  0  0  0  0  0  0  0  0  0  0
  195.7560  176.1020  141.3990 C   0  0  0  0  0  0  0  0  0  0  0  0
  195.8300  175.5740  140.1030 O   0  0  0  0  0  0  0  0  0  0  0  0
  194.7000  175.1660  139.3450 C   0  0  0  0  0  2  0  0  0  0  0  0
  194.7570  173.6730  139.0270 C   0  0  2  0  0  3  0  0  0  0  0  0
  192.8310  172.0880  138.3390 C   0  0  0  0  0  0  0  0  0  0  0  0
  193.5580  171.4710  137.5150 O   0  0  0  0  0  0  0  0  0  0  0  0
  191.1560  173.2680  140.3420 C   0  0  0  0  0  2  0  0  0  0  0  0
  192.4750  173.9470  140.0110 C   0  0  0  0  0  2  0  0  0  0  0  0
  191.4060  171.8790  138.3290 N   0  0  0  0  0  0  0  0  0  0  0  0
  190.5140  172.7910  139.0470 C   0  0  0  0  0  2  0  0  0  0  0  0
  193.4630  172.9440  139.4220 C   0  0  2  0  0  3  0  0  0  0  0  0
  190.8410  170.8100  137.5080 C   0  0  2  0  0  3  0  0  0  0  0  0
  189.2970  171.7500  135.9890 O   0  0  0  0  0  0  0  0  0  0  0  0
  190.4320  171.3380  136.1690 C   0  0  0  0  0  3  0  0  0  0  0  0
  189.7020  170.2060  138.1850 N   0  0  0  0  0  2  0  0  0  0  0  0
  190.0620  168.9400  138.5030 O   0  0  0  0  0  1  0  0  0  0  0  0
  196.0340  172.9960  139.5180 C   0  0  0  0  0  2  0  0  0  0  0  0
  195.7040  171.8680  140.3710 N   0  0  0  0  0  1  0  0  0  0  0  0
  197.3700  174.1560  144.7740 C   0  0  0  0  0  1  0  0  0  0  0  0
  197.0280  174.0520  143.2990 C   0  0  0  0  0  2  0  0  0  0  0  0
  2  4  1  0  0  0  0
  2  1  1  0  0  0  0
  3  1  2  0  0  0  0
  5  6  2  0  0  0  0
  5  7  1  0  0  0  0
  6  3  1  0  0  0  0
  7 46  1  0  0  0  0
  7  4  2  0  0  0  0
  8 13  1  0  0  0  0
  9 11  1  0  0  0  0
 10 15  2  0  0  0  0
 12 14  1  0  0  0  0
 13  9  1  0  0  0  0
 14  1  1  6  0  0  0
 14 11  1  0  0  0  0
 15  8  1  0  0  0  0
 15 12  1  0  0  0  0
 16 17  1  6  0  0  0
 16 19  1  0  0  0  0
 16  8  1  0  0  0  0
 18 17  1  0  0  0  0
 20 24  1  0  0  0  0
 21 25  2  0  0  0  0
 22 21  1  0  0  0  0
 22 23  1  0  0  0  0
 23 19  1  1  0  0  0
 23 20  1  0  0  0  0
 25 24  1  0  0  0  0
 27 26  2  0  0  0  0
 27  5  1  0  0  0  0
 28 27  1  0  0  0  0
 29 28  1  0  0  0  0
 30 29  1  1  0  0  0
 30 43  1  0  0  0  0
 31 37  1  0  0  0  0
 32 31  2  0  0  0  0
 34 33  1  0  0  0  0
 35 31  1  0  0  0  0
 35 36  1  0  0  0  0
 36 33  1  0  0  0  0
 37 30  1  6  0  0  0
 37 34  1  0  0  0  0
 38 40  1  6  0  0  0
 38 41  1  0  0  0  0
 38 35  1  0  0  0  0
 39 40  2  0  0  0  0
 41 42  1  0  0  0  0
 43 44  1  0  0  0  0
 46 45  1  0  0  0  0
M  END
>  <MODEL>
7

>  <REMARK>
 VINA RESULT:      -6.3      1.935      2.529
  Name = 
  15 active torsions:
  status: ('A' for Active; 'I' for Inactive)
    1  A    between atoms: N_2  and  C_7
    2  A    between atoms: N_4  and  C_15
    3  A    between atoms: C_6  and  C_23
    4  A    between atoms: C_7  and  N_30
    5  A    between atoms: C_7  and  C_34
    6  A    between atoms: C_8  and  C_35
    7  A    between atoms: C_15  and  C_22
    8  A    between atoms: C_15  and  C_24
    9  A    between atoms: C_22  and  C_32
   10  A    between atoms: C_23  and  C_43
   11  A    between atoms: C_23  and  C_45
   12  A    between atoms: C_27  and  C_33
   13  A    between atoms: O_29  and  C_33
   14  A    between atoms: O_29  and  C_45
   15  A    between atoms: C_37  and  C_41
                            x       y       z     vdW  Elec       q    Type
                         _______ _______ _______ _____ _____    ______ ____

>  <TORSDO>
F 15

$$$$
=
 OpenBabel11062422533D

 46 49  0  0  1  0  0  0  0  0999 V2000
  194.7140  173.7630  144.8910 C   0  0  0  0  0  0  0  0  0  0  0  0
  194.2450  175.1850  144.8570 C   0  0  0  0  0  2  0  0  0  0  0  0
  193.8260  172.7630  144.8450 C   0  0  0  0  0  3  0  0  0  0  0  0
  193.4200  175.4910  146.0610 C   0  0  0  0  0  3  0  0  0  0  0  0
  191.6320  173.8890  145.4000 C   0  0  0  0  0  0  0  0  0  0  0  0
  192.3590  172.9300  144.8040 C   0  0  0  0  0  3  0  0  0  0  0  0
  192.2390  174.9160  146.2990 C   0  0  0  0  0  0  0  0  0  0  0  0
  197.1130  174.1980  142.0480 N   0  0  0  0  0  0  0  0  0  0  0  0
  196.2370  171.7640  142.7650 S   0  0  0  0  0  0  0  0  0  0  0  0
  196.6990  176.2750  143.0470 O   0  0  0  0  0  0  0  0  0  0  0  0
  196.6190  172.0540  144.5220 C   0  0  0  0  0  2  0  0  0  0  0  0
  197.1800  174.5450  144.5970 C   0  0  0  0  0  2  0  0  0  0  0  0
  197.5880  172.8290  142.1890 C   0  0  0  0  0  2  0  0  0  0  0  0
  196.1930  173.4430  145.0110 C   0  0  1  0  0  3  0  0  0  0  0  0
  196.9810  175.0560  143.1980 C   0  0  0  0  0  0  0  0  0  0  0  0
  196.7870  174.6490  140.6940 C   0  0  2  0  0  3  0  0  0  0  0  0
  197.8060  175.6680  140.2070 C   0  0  0  0  0  2  0  0  0  0  0  0
  197.8590  175.6610  138.8120 O   0  0  0  0  0  1  0  0  0  0  0  0
  195.3690  175.2180  140.6160 C   0  0  0  0  0  2  0  0  0  0  0  0
  193.3440  173.9910  141.3960 C   0  0  0  0  0  2  0  0  0  0  0  0
  192.4700  173.5530  138.7110 C   0  0  0  0  0  3  0  0  0  0  0  0
  193.6070  174.5040  138.9800 C   0  0  0  0  0  2  0  0  0  0  0  0
  194.3520  174.1430  140.2650 C   0  0  1  0  0  3  0  0  0  0  0  0
  192.4240  172.8080  141.1000 C   0  0  0  0  0  2  0  0  0  0  0  0
  191.9050  172.8190  139.6830 C   0  0  0  0  0  3  0  0  0  0  0  0
  189.3910  173.8760  146.1690 O   0  0  0  0  0  0  0  0  0  0  0  0
  190.1610  173.9180  145.1720 C   0  0  0  0  0  0  0  0  0  0  0  0
  189.5790  174.0460  143.9040 O   0  0  0  0  0  0  0  0  0  0  0  0
  190.0490  174.9340  142.9000 C   0  0  0  0  0  2  0  0  0  0  0  0
  190.1510  176.3630  143.4290 C   0  0  2  0  0  3  0  0  0  0  0  0
  188.0550  177.6360  144.2550 C   0  0  0  0  0  0  0  0  0  0  0  0
  188.5910  177.9150  145.3610 O   0  0  0  0  0  0  0  0  0  0  0  0
  186.8270  177.2560  141.6950 C   0  0  0  0  0  2  0  0  0  0  0  0
  188.0980  176.4840  142.0080 C   0  0  0  0  0  2  0  0  0  0  0  0
  186.6430  177.8490  144.0740 N   0  0  0  0  0  0  0  0  0  0  0  0
  185.9410  177.2590  142.9330 C   0  0  0  0  0  2  0  0  0  0  0  0
  188.9130  177.2030  143.0790 C   0  0  2  0  0  3  0  0  0  0  0  0
  185.8860  178.5710  145.0940 C   0  0  2  0  0  3  0  0  0  0  0  0
  184.2290  178.0320  146.6870 O   0  0  0  0  0  0  0  0  0  0  0  0
  184.8170  177.6980  145.6710 C   0  0  0  0  0  3  0  0  0  0  0  0
  185.3060  179.7800  144.5270 N   0  0  0  0  0  2  0  0  0  0  0  0
  184.1440  179.4150  143.9350 O   0  0  0  0  0  1  0  0  0  0  0  0
  191.4810  177.0380  143.1020 C   0  0  0  0  0  2  0  0  0  0  0  0
  191.5890  178.2980  143.8160 N   0  0  0  0  0  1  0  0  0  0  0  0
  191.1190  176.7900  147.4500 C   0  0  0  0  0  1  0  0  0  0  0  0
  191.5170  175.3280  147.5390 C   0  0  0  0  0  2  0  0  0  0  0  0
  2  1  1  0  0  0  0
  2  4  1  0  0  0  0
  3  1  2  0  0  0  0
  4  7  2  0  0  0  0
  5  7  1  0  0  0  0
  6  3  1  0  0  0  0
  6  5  2  0  0  0  0
  7 46  1  0  0  0  0
  8 13  1  0  0  0  0
  8 15  1  0  0  0  0
  9 11  1  0  0  0  0
 10 15  2  0  0  0  0
 11 14  1  0  0  0  0
 12 14  1  0  0  0  0
 13  9  1  0  0  0  0
 14  1  1  6  0  0  0
 15 12  1  0  0  0  0
 16 17  1  1  0  0  0
 16  8  1  0  0  0  0
 18 17  1  0  0  0  0
 19 16  1  0  0  0  0
 21 22  1  0  0  0  0
 21 25  2  0  0  0  0
 22 23  1  0  0  0  0
 23 19  1  1  0  0  0
 23 20  1  0  0  0  0
 24 20  1  0  0  0  0
 25 24  1  0  0  0  0
 27  5  1  0  0  0  0
 27 26  2  0  0  0  0
 28 27  1  0  0  0  0
 29 28  1  0  0  0  0
 30 29  1  6  0  0  0
 31 32  2  0  0  0  0
 33 34  1  0  0  0  0
 33 36  1  0  0  0  0
 34 37  1  0  0  0  0
 35 31  1  0  0  0  0
 35 38  1  0  0  0  0
 36 35  1  0  0  0  0
 37 30  1  1  0  0  0
 37 31  1  0  0  0  0
 38 40  1  6  0  0  0
 40 39  2  0  0  0  0
 41 38  1  0  0  0  0
 42 41  1  0  0  0  0
 43 30  1  0  0  0  0
 43 44  1  0  0  0  0
 45 46  1  0  0  0  0
M  END
>  <MODEL>
8

>  <REMARK>
 VINA RESULT:      -6.3      2.722      8.050
  Name = 
  15 active torsions:
  status: ('A' for Active; 'I' for Inactive)
    1  A    between atoms: N_2  and  C_7
    2  A    between atoms: N_4  and  C_15
    3  A    between atoms: C_6  and  C_23
    4  A    between atoms: C_7  and  N_30
    5  A    between atoms: C_7  and  C_34
    6  A    between atoms: C_8  and  C_35
    7  A    between atoms: C_15  and  C_22
    8  A    between atoms: C_15  and  C_24
    9  A    between atoms: C_22  and  C_32
   10  A    between atoms: C_23  and  C_43
   11  A    between atoms: C_23  and  C_45
   12  A    between atoms: C_27  and  C_33
   13  A    between atoms: O_29  and  C_33
   14  A    between atoms: O_29  and  C_45
   15  A    between atoms: C_37  and  C_41
                            x       y       z     vdW  Elec       q    Type
                         _______ _______ _______ _____ _____    ______ ____

>  <TORSDO>
F 15

$$$$
=
 OpenBabel11062422533D

 46 49  0  0  1  0  0  0  0  0999 V2000
  190.4310  173.4510  140.8080 C   0  0  0  0  0  0  0  0  0  0  0  0
  189.9070  173.7790  139.4430 C   0  0  0  0  0  2  0  0  0  0  0  0
  191.7160  173.6800  141.1050 C   0  0  0  0  0  3  0  0  0  0  0  0
  190.5830  172.9460  138.4100 C   0  0  0  0  0  3  0  0  0  0  0  0
  192.8050  173.9820  138.8430 C   0  0  0  0  0  0  0  0  0  0  0  0
  192.7240  174.2100  140.1650 C   0  0  0  0  0  3  0  0  0  0  0  0
  191.8850  173.0440  138.1320 C   0  0  0  0  0  0  0  0  0  0  0  0
  188.7100  175.4660  143.4540 N   0  0  0  0  0  0  0  0  0  0  0  0
  190.8690  173.9770  144.0270 S   0  0  0  0  0  0  0  0  0  0  0  0
  187.5350  175.6560  141.4380 O   0  0  0  0  0  0  0  0  0  0  0  0
  190.1760  172.5090  143.2020 C   0  0  0  0  0  2  0  0  0  0  0  0
  188.1170  173.4270  142.0010 C   0  0  0  0  0  2  0  0  0  0  0  0
  189.2350  174.6060  144.5050 C   0  0  0  0  0  2  0  0  0  0  0  0
  189.5240  172.8270  141.8520 C   0  0  1  0  0  3  0  0  0  0  0  0
  188.1050  174.9040  142.2730 C   0  0  0  0  0  0  0  0  0  0  0  0
  188.8260  176.9110  143.6620 C   0  0  2  0  0  3  0  0  0  0  0  0
  190.0940  177.4480  143.0150 C   0  0  0  0  0  2  0  0  0  0  0  0
  190.7620  178.2910  143.9030 O   0  0  0  0  0  1  0  0  0  0  0  0
  188.7770  177.2720  145.1480 C   0  0  0  0  0  2  0  0  0  0  0  0
  186.6770  178.3030  144.2870 C   0  0  0  0  0  2  0  0  0  0  0  0
  185.1870  177.3430  146.5280 C   0  0  0  0  0  3  0  0  0  0  0  0
  186.5890  176.8440  146.2960 C   0  0  0  0  0  2  0  0  0  0  0  0
  187.4330  177.8670  145.5360 C   0  0  1  0  0  3  0  0  0  0  0  0
  185.4010  179.0360  144.6970 C   0  0  0  0  0  2  0  0  0  0  0  0
  184.6340  178.3050  145.7730 C   0  0  0  0  0  3  0  0  0  0  0  0
  193.5430  175.6540  137.3360 O   0  0  0  0  0  0  0  0  0  0  0  0
  193.8650  174.6760  138.0610 C   0  0  0  0  0  0  0  0  0  0  0  0
  195.2230  174.3340  138.1300 O   0  0  0  0  0  0  0  0  0  0  0  0
  196.1470  174.9270  139.0310 C   0  0  0  0  0  2  0  0  0  0  0  0
  196.6300  173.9170  140.0710 C   0  0  2  0  0  3  0  0  0  0  0  0
  195.7050  174.0720  142.4830 C   0  0  0  0  0  0  0  0  0  0  0  0
  195.2810  172.8860  142.4570 O   0  0  0  0  0  0  0  0  0  0  0  0
  196.8290  176.6960  142.7340 C   0  0  0  0  0  2  0  0  0  0  0  0
  196.7920  176.0540  141.3570 C   0  0  0  0  0  2  0  0  0  0  0  0
  195.3000  174.9520  143.5480 N   0  0  0  0  0  0  0  0  0  0  0  0
  195.5180  176.3960  143.4460 C   0  0  0  0  0  2  0  0  0  0  0  0
  196.7420  174.5330  141.4740 C   0  0  2  0  0  3  0  0  0  0  0  0
  194.5690  174.4090  144.6910 C   0  0  2  0  0  3  0  0  0  0  0  0
  193.2980  175.2610  146.4890 O   0  0  0  0  0  0  0  0  0  0  0  0
  194.0010  175.5150  145.5240 C   0  0  0  0  0  3  0  0  0  0  0  0
  195.4450  173.5670  145.4930 N   0  0  0  0  0  2  0  0  0  0  0  0
  194.7570  172.4330  145.7650 O   0  0  0  0  0  1  0  0  0  0  0  0
  197.8630  173.1330  139.6290 C   0  0  0  0  0  2  0  0  0  0  0  0
  197.4700  171.8270  139.1290 N   0  0  0  0  0  1  0  0  0  0  0  0
  192.8460  170.8220  137.6550 C   0  0  0  0  0  1  0  0  0  0  0  0
  192.4250  172.1540  137.0620 C   0  0  0  0  0  2  0  0  0  0  0  0
  1  3  2  0  0  0  0
  2  1  1  0  0  0  0
  4  2  1  0  0  0  0
  5  6  2  0  0  0  0
  6  3  1  0  0  0  0
  7  4  2  0  0  0  0
  7  5  1  0  0  0  0
  8 16  1  0  0  0  0
  8 13  1  0  0  0  0
  9 13  1  0  0  0  0
 10 15  2  0  0  0  0
 11  9  1  0  0  0  0
 12 15  1  0  0  0  0
 14  1  1  1  0  0  0
 14 12  1  0  0  0  0
 14 11  1  0  0  0  0
 15  8  1  0  0  0  0
 16 17  1  1  0  0  0
 16 19  1  0  0  0  0
 17 18  1  0  0  0  0
 20 24  1  0  0  0  0
 20 23  1  0  0  0  0
 22 21  1  0  0  0  0
 23 19  1  6  0  0  0
 23 22  1  0  0  0  0
 24 25  1  0  0  0  0
 25 21  2  0  0  0  0
 26 27  2  0  0  0  0
 27 28  1  0  0  0  0
 27  5  1  0  0  0  0
 28 29  1  0  0  0  0
 30 29  1  6  0  0  0
 31 35  1  0  0  0  0
 32 31  2  0  0  0  0
 33 36  1  0  0  0  0
 34 37  1  0  0  0  0
 34 33  1  0  0  0  0
 35 38  1  0  0  0  0
 36 35  1  0  0  0  0
 37 30  1  6  0  0  0
 37 31  1  0  0  0  0
 38 41  1  0  0  0  0
 38 40  1  1  0  0  0
 40 39  2  0  0  0  0
 41 42  1  0  0  0  0
 43 30  1  0  0  0  0
 44 43  1  0  0  0  0
 46 45  1  0  0  0  0
 46  7  1  0  0  0  0
M  END
>  <MODEL>
9

>  <REMARK>
 VINA RESULT:      -6.2      2.567      5.278
  Name = 
  15 active torsions:
  status: ('A' for Active; 'I' for Inactive)
    1  A    between atoms: N_2  and  C_7
    2  A    between atoms: N_4  and  C_15
    3  A    between atoms: C_6  and  C_23
    4  A    between atoms: C_7  and  N_30
    5  A    between atoms: C_7  and  C_34
    6  A    between atoms: C_8  and  C_35
    7  A    between atoms: C_15  and  C_22
    8  A    between atoms: C_15  and  C_24
    9  A    between atoms: C_22  and  C_32
   10  A    between atoms: C_23  and  C_43
   11  A    between atoms: C_23  and  C_45
   12  A    between atoms: C_27  and  C_33
   13  A    between atoms: O_29  and  C_33
   14  A    between atoms: O_29  and  C_45
   15  A    between atoms: C_37  and  C_41
                            x       y       z     vdW  Elec       q    Type
                         _______ _______ _______ _____ _____    ______ ____

>  <TORSDO>
F 15

$$$$
