=
 OpenBabel11062419473D

 46 52  0  0  1  0  0  0  0  0999 V2000
  192.6430  170.4240  142.5710 N   0  0  0  0  0  0  0  0  0  0  0  0
  185.4350  178.1440  140.5790 C   0  0  0  0  0  3  0  0  0  0  0  0
  193.8370  176.2910  146.9280 C   0  0  0  0  0  2  0  0  0  0  0  0
  185.7990  177.2520  145.3410 C   0  0  0  0  0  3  0  0  0  0  0  0
  187.3500  177.2650  141.4620 C   0  0  2  0  0  3  0  0  0  0  0  0
  188.2170  174.3550  141.5020 C   0  0  0  0  0  2  0  0  0  0  0  0
  195.0630  176.7220  144.4750 S   0  0  0  0  0  0  0  0  0  0  0  0
  194.6870  175.3010  143.4280 C   0  0  0  0  0  2  0  0  0  0  0  0
  190.1920  177.4750  146.5590 C   0  0  0  0  0  2  0  0  0  0  0  0
  194.9560  174.0600  144.2530 C   0  0  2  0  0  3  0  0  0  0  0  0
  197.9410  171.5980  144.5980 O   0  0  0  0  0  0  0  0  0  0  0  0
  187.3310  176.1610  147.4040 C   0  0  0  0  0  3  0  0  0  0  0  0
  187.9440  176.4940  146.1910 C   0  0  0  0  0  0  0  0  0  0  0  0
  188.7230  171.9220  141.7860 N   0  0  0  0  0  0  0  0  0  0  0  0
  186.1840  177.0450  140.5540 C   0  0  0  0  0  3  0  0  0  0  0  0
  196.6980  172.4230  146.5370 O   0  0  0  0  0  0  0  0  0  0  0  0
  185.9040  179.0780  141.5500 N   0  0  0  0  0  0  0  0  0  0  0  0
  195.6710  169.7010  145.1500 N   0  0  0  0  0  0  0  0  0  0  0  0
  192.3240  171.6930  141.9830 C   0  0  0  0  0  0  0  0  0  0  0  0
  187.3490  178.6860  143.3680 O   0  0  0  0  0  0  0  0  0  0  0  0
  196.6330  172.1910  145.0530 S   0  0  0  0  0  0  0  0  0  0  0  0
  193.2260  172.5270  141.6960 O   0  0  0  0  0  0  0  0  0  0  0  0
  185.1950  176.9110  146.5530 C   0  0  0  0  0  3  0  0  0  0  0  0
  194.4890  174.3210  145.6090 N   0  0  0  0  0  2  0  0  0  0  0  0
  195.3080  171.0380  144.7160 C   0  0  1  0  0  3  0  0  0  0  0  0
  188.5100  175.3380  142.6160 C   0  0  0  0  0  2  0  0  0  0  0  0
  189.8470  171.1930  141.9090 C   0  0  0  0  0  3  0  0  0  0  0  0
  191.2040  176.2410  148.3520 O   0  0  0  0  0  1  0  0  0  0  0  0
  190.4880  173.3210  141.5940 N   0  0  0  0  0  2  0  0  0  0  0  0
  194.9300  171.0230  143.2430 C   0  0  0  0  0  2  0  0  0  0  0  0
  196.3830  173.7200  144.2480 N   0  0  0  0  0  0  0  0  0  0  0  0
  187.1770  177.0590  145.1510 C   0  0  0  0  0  0  0  0  0  0  0  0
  195.0320  168.6530  144.7460 C   0  0  0  0  0  3  0  0  0  0  0  0
  191.4840  177.0720  147.2630 C   0  0  1  0  0  3  0  0  0  0  0  0
  193.8720  168.7390  143.7780 C   0  0  0  0  0  2  0  0  0  0  0  0
  196.7630  173.5420  142.9580 O   0  0  0  0  0  1  0  0  0  0  0  0
  185.9620  176.3680  147.5850 C   0  0  0  0  0  3  0  0  0  0  0  0
  187.4340  176.4060  142.7230 C   0  0  1  0  0  3  0  0  0  0  0  0
  194.8560  175.6900  145.9640 C   0  0  2  0  0  3  0  0  0  0  0  0
  187.8120  177.4220  143.8360 C   0  0  1  0  0  3  0  0  0  0  0  0
  189.1490  173.1920  141.6000 C   0  0  0  0  0  0  0  0  0  0  0  0
  189.4150  176.2610  146.0500 C   0  0  0  0  0  2  0  0  0  0  0  0
  190.9190  172.0590  141.7770 C   0  0  0  0  0  0  0  0  0  0  0  0
  193.7760  170.0760  143.1080 C   0  0  0  0  0  0  0  0  0  0  0  0
  186.9410  178.5250  142.0630 C   0  0  0  0  0  0  0  0  0  0  0  0
  192.4510  176.3850  146.3030 C   0  0  0  0  0  2  0  0  0  0  0  0
  1 44  2  0  0  0  0
  2 17  1  0  0  0  0
  4 23  1  0  0  0  0
  5 15  1  6  0  0  0
  5 45  1  0  0  0  0
  5 38  1  0  0  0  0
  6 41  1  0  0  0  0
  6 26  1  0  0  0  0
  7 39  1  0  0  0  0
  8  7  1  0  0  0  0
  9 34  1  0  0  0  0
 10  8  1  6  0  0  0
 10 24  1  0  0  0  0
 11 21  2  0  0  0  0
 12 37  1  0  0  0  0
 13 12  2  0  0  0  0
 14 27  1  0  0  0  0
 15  2  2  0  0  0  0
 17 45  2  0  0  0  0
 19  1  1  0  0  0  0
 21 16  2  0  0  0  0
 22 19  2  0  0  0  0
 23 37  2  0  0  0  0
 24 39  1  0  0  0  0
 25 30  1  6  0  0  0
 25 21  1  0  0  0  0
 25 18  1  0  0  0  0
 29 41  1  0  0  0  0
 29 43  1  0  0  0  0
 31 10  1  0  0  0  0
 31 21  1  0  0  0  0
 32  4  2  0  0  0  0
 32 13  1  0  0  0  0
 33 18  2  0  0  0  0
 34 28  1  1  0  0  0
 35 33  1  0  0  0  0
 36 31  1  0  0  0  0
 38 26  1  6  0  0  0
 38 40  1  0  0  0  0
 39  3  1  1  0  0  0
 40 20  1  6  0  0  0
 40 32  1  0  0  0  0
 41 14  2  0  0  0  0
 42 13  1  0  0  0  0
 42  9  1  0  0  0  0
 43 27  2  0  0  0  0
 43 19  1  0  0  0  0
 44 30  1  0  0  0  0
 44 35  1  0  0  0  0
 45 20  1  0  0  0  0
 46  3  1  0  0  0  0
 46 34  1  0  0  0  0
M  END
>  <MODEL>
1

>  <REMARK>
 VINA RESULT:     -10.2      0.000      0.000
  Name = 
  0 active torsions:
  status: ('A' for Active; 'I' for Inactive)
                            x       y       z     vdW  Elec       q    Type
                         _______ _______ _______ _____ _____    ______ ____

>  <TORSDO>
F 0

$$$$
=
 OpenBabel11062419473D

 46 52  0  0  1  0  0  0  0  0999 V2000
  196.3890  174.4720  138.5930 N   0  0  0  0  0  0  0  0  0  0  0  0
  191.2500  175.6810  147.9550 C   0  0  0  0  0  3  0  0  0  0  0  0
  189.6960  171.3160  138.3180 C   0  0  0  0  0  2  0  0  0  0  0  0
  188.4230  176.9460  144.2120 C   0  0  0  0  0  3  0  0  0  0  0  0
  191.6020  174.8060  145.8750 C   0  0  2  0  0  3  0  0  0  0  0  0
  193.6410  175.6870  143.8050 C   0  0  0  0  0  2  0  0  0  0  0  0
  191.4900  169.5350  139.4660 S   0  0  0  0  0  0  0  0  0  0  0  0
  193.0850  170.3710  139.5740 C   0  0  0  0  0  2  0  0  0  0  0  0
  188.3810  173.5440  141.1700 C   0  0  0  0  0  2  0  0  0  0  0  0
  193.3410  171.0120  138.2270 C   0  0  2  0  0  3  0  0  0  0  0  0
  195.3460  170.0050  135.0560 O   0  0  0  0  0  0  0  0  0  0  0  0
  187.9630  176.7630  141.4640 C   0  0  0  0  0  3  0  0  0  0  0  0
  188.7740  175.8120  142.0930 C   0  0  0  0  0  0  0  0  0  0  0  0
  195.1140  176.6590  142.0310 N   0  0  0  0  0  0  0  0  0  0  0  0
  192.1450  175.6630  146.9710 C   0  0  0  0  0  3  0  0  0  0  0  0
  193.1170  171.0040  134.9270 O   0  0  0  0  0  0  0  0  0  0  0  0
  190.0440  175.0160  147.5820 N   0  0  0  0  0  0  0  0  0  0  0  0
  195.6510  172.9950  134.9030 N   0  0  0  0  0  0  0  0  0  0  0  0
  195.9300  173.9110  139.8310 C   0  0  0  0  0  0  0  0  0  0  0  0
  189.2940  174.4690  145.4170 O   0  0  0  0  0  0  0  0  0  0  0  0
  194.3370  170.8460  135.7930 S   0  0  0  0  0  0  0  0  0  0  0  0
  195.8070  172.6630  139.9790 O   0  0  0  0  0  0  0  0  0  0  0  0
  187.6200  177.8950  143.5730 C   0  0  0  0  0  3  0  0  0  0  0  0
  192.0750  171.5560  137.7480 N   0  0  0  0  0  2  0  0  0  0  0  0
  195.0260  172.4670  136.1020 C   0  0  1  0  0  3  0  0  0  0  0  0
  192.2600  175.1700  143.4620 C   0  0  0  0  0  2  0  0  0  0  0  0
  195.7460  176.1710  140.9490 C   0  0  0  0  0  3  0  0  0  0  0  0
  188.0920  173.7980  138.8000 O   0  0  0  0  0  1  0  0  0  0  0  0
  194.7520  174.4280  141.9570 N   0  0  0  0  0  2  0  0  0  0  0  0
  196.0280  172.4480  137.2470 C   0  0  0  0  0  2  0  0  0  0  0  0
  193.8860  170.0390  137.2720 N   0  0  0  0  0  0  0  0  0  0  0  0
  188.9970  175.8920  143.4830 C   0  0  0  0  0  0  0  0  0  0  0  0
  196.4780  173.9880  134.9420 C   0  0  0  0  0  3  0  0  0  0  0  0
  188.4170  172.8750  139.7990 C   0  0  1  0  0  3  0  0  0  0  0  0
  196.8680  174.6620  136.2390 C   0  0  0  0  0  2  0  0  0  0  0  0
  195.0290  169.5360  137.8000 O   0  0  0  0  0  1  0  0  0  0  0  0
  187.3880  177.8010  142.2010 C   0  0  0  0  0  3  0  0  0  0  0  0
  191.2520  175.4880  144.5530 C   0  0  1  0  0  3  0  0  0  0  0  0
  191.0170  170.5980  138.0620 C   0  0  2  0  0  3  0  0  0  0  0  0
  189.8690  174.8840  144.1820 C   0  0  1  0  0  3  0  0  0  0  0  0
  194.5290  175.5840  142.6070 C   0  0  0  0  0  0  0  0  0  0  0  0
  189.3590  174.7150  141.2610 C   0  0  0  0  0  2  0  0  0  0  0  0
  195.5280  174.8040  140.9220 C   0  0  0  0  0  0  0  0  0  0  0  0
  196.4760  173.8650  137.4460 C   0  0  0  0  0  0  0  0  0  0  0  0
  190.2590  174.5920  146.3910 C   0  0  0  0  0  0  0  0  0  0  0  0
  189.7800  172.2460  139.5220 C   0  0  0  0  0  2  0  0  0  0  0  0
  1 19  1  0  0  0  0
  3 46  1  0  0  0  0
  5 45  1  0  0  0  0
  5 15  1  1  0  0  0
  7  8  1  0  0  0  0
  9 42  1  0  0  0  0
 10  8  1  1  0  0  0
 11 21  2  0  0  0  0
 12 13  2  0  0  0  0
 12 37  1  0  0  0  0
 13 32  1  0  0  0  0
 14 41  2  0  0  0  0
 15  2  2  0  0  0  0
 16 21  2  0  0  0  0
 17  2  1  0  0  0  0
 18 33  2  0  0  0  0
 18 25  1  0  0  0  0
 19 22  2  0  0  0  0
 19 43  1  0  0  0  0
 20 45  1  0  0  0  0
 21 25  1  0  0  0  0
 21 31  1  0  0  0  0
 23  4  1  0  0  0  0
 24 39  1  0  0  0  0
 24 10  1  0  0  0  0
 25 30  1  1  0  0  0
 26  6  1  0  0  0  0
 27 14  1  0  0  0  0
 29 41  1  0  0  0  0
 30 44  1  0  0  0  0
 31 36  1  0  0  0  0
 31 10  1  0  0  0  0
 32  4  2  0  0  0  0
 33 35  1  0  0  0  0
 34 28  1  6  0  0  0
 34  9  1  0  0  0  0
 35 44  1  0  0  0  0
 37 23  2  0  0  0  0
 38 26  1  6  0  0  0
 38  5  1  0  0  0  0
 39  3  1  1  0  0  0
 39  7  1  0  0  0  0
 40 32  1  1  0  0  0
 40 38  1  0  0  0  0
 40 20  1  0  0  0  0
 41  6  1  0  0  0  0
 42 13  1  0  0  0  0
 43 27  2  0  0  0  0
 43 29  1  0  0  0  0
 44  1  2  0  0  0  0
 45 17  2  0  0  0  0
 46 34  1  0  0  0  0
M  END
>  <MODEL>
2

>  <REMARK>
 VINA RESULT:      -9.0      4.495      7.547
  Name = 
  0 active torsions:
  status: ('A' for Active; 'I' for Inactive)
                            x       y       z     vdW  Elec       q    Type
                         _______ _______ _______ _____ _____    ______ ____

>  <TORSDO>
F 0

$$$$
=
 OpenBabel11062419473D

 46 52  0  0  1  0  0  0  0  0999 V2000
  192.2090  170.7830  138.6850 N   0  0  0  0  0  0  0  0  0  0  0  0
  185.5500  178.4780  142.1460 C   0  0  0  0  0  3  0  0  0  0  0  0
  195.6770  175.2920  143.4250 C   0  0  0  0  0  2  0  0  0  0  0  0
  187.8630  176.3450  145.8490 C   0  0  0  0  0  3  0  0  0  0  0  0
  187.5740  177.4650  141.8350 C   0  0  2  0  0  3  0  0  0  0  0  0
  188.1170  174.6880  140.7330 C   0  0  0  0  0  2  0  0  0  0  0  0
  195.7510  176.4170  140.8880 S   0  0  0  0  0  0  0  0  0  0  0  0
  194.8370  175.3190  139.7860 C   0  0  0  0  0  2  0  0  0  0  0  0
  192.3510  176.3940  145.0200 C   0  0  0  0  0  2  0  0  0  0  0  0
  195.3280  173.9120  140.0550 C   0  0  2  0  0  3  0  0  0  0  0  0
  197.9410  171.5630  138.4000 O   0  0  0  0  0  0  0  0  0  0  0  0
  190.0360  174.7950  146.6650 C   0  0  0  0  0  3  0  0  0  0  0  0
  190.0890  175.4660  145.4390 C   0  0  0  0  0  0  0  0  0  0  0  0
  188.4820  172.2890  140.1250 N   0  0  0  0  0  0  0  0  0  0  0  0
  186.1160  177.4560  141.5100 C   0  0  0  0  0  3  0  0  0  0  0  0
  197.7380  171.7840  140.8270 O   0  0  0  0  0  0  0  0  0  0  0  0
  186.4730  179.1310  143.0170 N   0  0  0  0  0  0  0  0  0  0  0  0
  195.9800  169.5030  139.3830 N   0  0  0  0  0  0  0  0  0  0  0  0
  191.7780  172.1510  138.6490 C   0  0  0  0  0  0  0  0  0  0  0  0
  188.5230  178.3160  143.8420 O   0  0  0  0  0  0  0  0  0  0  0  0
  197.0160  171.9610  139.5200 S   0  0  0  0  0  0  0  0  0  0  0  0
  192.5360  173.0650  138.2210 O   0  0  0  0  0  0  0  0  0  0  0  0
  187.8160  175.6650  147.0680 C   0  0  0  0  0  3  0  0  0  0  0  0
  195.5190  173.7790  141.4940 N   0  0  0  0  0  2  0  0  0  0  0  0
  195.5820  170.8930  139.5150 C   0  0  1  0  0  3  0  0  0  0  0  0
  188.9470  175.3430  141.8170 C   0  0  0  0  0  2  0  0  0  0  0  0
  189.4800  171.5970  139.5470 C   0  0  0  0  0  3  0  0  0  0  0  0
  193.9280  174.7600  145.7960 O   0  0  0  0  0  1  0  0  0  0  0  0
  190.1040  173.7540  139.5440 N   0  0  0  0  0  2  0  0  0  0  0  0
  194.6030  171.2630  138.4110 C   0  0  0  0  0  2  0  0  0  0  0  0
  196.5770  173.6390  139.3340 N   0  0  0  0  0  0  0  0  0  0  0  0
  188.9990  176.2620  145.0290 C   0  0  0  0  0  0  0  0  0  0  0  0
  195.1390  168.5800  139.0440 C   0  0  0  0  0  3  0  0  0  0  0  0
  193.7790  175.8650  144.9520 C   0  0  1  0  0  3  0  0  0  0  0  0
  193.6880  168.8810  138.7450 C   0  0  0  0  0  2  0  0  0  0  0  0
  196.3430  173.8320  138.0120 O   0  0  0  0  0  1  0  0  0  0  0  0
  188.9040  174.8930  147.4780 C   0  0  0  0  0  3  0  0  0  0  0  0
  188.1210  176.3000  142.6590 C   0  0  1  0  0  3  0  0  0  0  0  0
  196.1210  175.0130  141.9930 C   0  0  2  0  0  3  0  0  0  0  0  0
  189.0310  176.9910  143.7130 C   0  0  1  0  0  3  0  0  0  0  0  0
  188.8940  173.5770  140.1060 C   0  0  0  0  0  0  0  0  0  0  0  0
  191.3270  175.3350  144.6100 C   0  0  0  0  0  2  0  0  0  0  0  0
  190.4600  172.5060  139.1860 C   0  0  0  0  0  0  0  0  0  0  0  0
  193.4270  170.3450  138.5580 C   0  0  0  0  0  0  0  0  0  0  0  0
  187.5770  178.4990  142.8580 C   0  0  0  0  0  0  0  0  0  0  0  0
  194.1710  175.5000  143.5220 C   0  0  0  0  0  2  0  0  0  0  0  0
  2 17  1  0  0  0  0
  3 46  1  0  0  0  0
  4 23  1  0  0  0  0
  5 15  1  1  0  0  0
  5 38  1  0  0  0  0
  5 45  1  0  0  0  0
  6 26  1  0  0  0  0
  7 39  1  0  0  0  0
  8  7  1  0  0  0  0
 10  8  1  1  0  0  0
 10 24  1  0  0  0  0
 11 21  2  0  0  0  0
 12 37  1  0  0  0  0
 13 12  2  0  0  0  0
 15  2  2  0  0  0  0
 18 25  1  0  0  0  0
 19  1  1  0  0  0  0
 19 43  1  0  0  0  0
 21 16  2  0  0  0  0
 22 19  2  0  0  0  0
 23 37  2  0  0  0  0
 24 39  1  0  0  0  0
 25 30  1  6  0  0  0
 25 21  1  0  0  0  0
 27 14  1  0  0  0  0
 29 41  1  0  0  0  0
 30 44  1  0  0  0  0
 31 21  1  0  0  0  0
 31 10  1  0  0  0  0
 32 13  1  0  0  0  0
 32  4  2  0  0  0  0
 33 18  2  0  0  0  0
 34  9  1  0  0  0  0
 34 28  1  1  0  0  0
 35 33  1  0  0  0  0
 36 31  1  0  0  0  0
 38 26  1  6  0  0  0
 38 40  1  0  0  0  0
 39  3  1  1  0  0  0
 40 20  1  1  0  0  0
 40 32  1  0  0  0  0
 41 14  2  0  0  0  0
 41  6  1  0  0  0  0
 42  9  1  0  0  0  0
 42 13  1  0  0  0  0
 43 29  1  0  0  0  0
 43 27  2  0  0  0  0
 44  1  2  0  0  0  0
 44 35  1  0  0  0  0
 45 17  2  0  0  0  0
 45 20  1  0  0  0  0
 46 34  1  0  0  0  0
M  END
>  <MODEL>
3

>  <REMARK>
 VINA RESULT:      -8.9      2.897      3.573
  Name = 
  0 active torsions:
  status: ('A' for Active; 'I' for Inactive)
                            x       y       z     vdW  Elec       q    Type
                         _______ _______ _______ _____ _____    ______ ____

>  <TORSDO>
F 0

$$$$
=
 OpenBabel11062419473D

 46 52  0  0  1  0  0  0  0  0999 V2000
  188.1900  174.9720  140.3740 N   0  0  0  0  0  0  0  0  0  0  0  0
  195.6950  168.1670  136.7850 C   0  0  0  0  0  3  0  0  0  0  0  0
  194.5920  176.0410  143.9370 C   0  0  0  0  0  2  0  0  0  0  0  0
  197.3590  172.7300  136.9050 C   0  0  0  0  0  3  0  0  0  0  0  0
  194.7950  169.7040  138.2160 C   0  0  2  0  0  3  0  0  0  0  0  0
  192.2500  171.3210  137.8530 C   0  0  0  0  0  2  0  0  0  0  0  0
  193.2120  173.9650  145.1590 S   0  0  0  0  0  0  0  0  0  0  0  0
  191.6970  173.6980  144.2170 C   0  0  0  0  0  2  0  0  0  0  0  0
  196.6100  174.4730  141.0570 C   0  0  0  0  0  2  0  0  0  0  0  0
  191.0690  175.0570  143.9930 C   0  0  2  0  0  3  0  0  0  0  0  0
  188.2810  177.1070  145.7580 O   0  0  0  0  0  0  0  0  0  0  0  0
  197.0460  175.3060  137.9360 C   0  0  0  0  0  3  0  0  0  0  0  0
  196.4540  174.2220  138.5950 C   0  0  0  0  0  0  0  0  0  0  0  0
  190.3310  172.8460  137.3550 N   0  0  0  0  0  0  0  0  0  0  0  0
  194.5630  168.8210  137.0340 C   0  0  0  0  0  3  0  0  0  0  0  0
  190.3730  178.1270  145.0050 O   0  0  0  0  0  0  0  0  0  0  0  0
  196.7600  168.6250  137.6170 N   0  0  0  0  0  0  0  0  0  0  0  0
  187.9020  178.0850  142.9380 N   0  0  0  0  0  0  0  0  0  0  0  0
  188.9800  173.7920  140.5700 C   0  0  0  0  0  0  0  0  0  0  0  0
  196.8920  170.6340  138.8390 O   0  0  0  0  0  0  0  0  0  0  0  0
  189.4420  176.9630  144.8090 S   0  0  0  0  0  0  0  0  0  0  0  0
  189.1580  173.3060  141.7210 O   0  0  0  0  0  0  0  0  0  0  0  0
  197.9400  173.8190  136.2510 C   0  0  0  0  0  3  0  0  0  0  0  0
  192.1450  175.9990  143.7100 N   0  0  0  0  0  2  0  0  0  0  0  0
  188.8410  176.9950  143.1260 C   0  0  1  0  0  3  0  0  0  0  0  0
  193.4910  171.8440  138.5460 C   0  0  0  0  0  2  0  0  0  0  0  0
  189.4320  173.5160  138.0980 C   0  0  0  0  0  3  0  0  0  0  0  0
  196.2300  176.7920  141.5460 O   0  0  0  0  0  1  0  0  0  0  0  0
  190.6910  172.3240  139.5250 N   0  0  0  0  0  2  0  0  0  0  0  0
  188.1940  175.6760  142.7290 C   0  0  0  0  0  2  0  0  0  0  0  0
  190.2960  175.4840  145.1660 N   0  0  0  0  0  0  0  0  0  0  0  0
  196.6220  172.9180  138.0850 C   0  0  0  0  0  0  0  0  0  0  0  0
  187.1030  178.1350  141.9220 C   0  0  0  0  0  3  0  0  0  0  0  0
  196.2070  175.5090  142.1010 C   0  0  1  0  0  3  0  0  0  0  0  0
  187.0760  177.0530  140.8650 C   0  0  0  0  0  2  0  0  0  0  0  0
  189.3510  174.5410  145.4050 O   0  0  0  0  0  1  0  0  0  0  0  0
  197.7860  175.1060  136.7680 C   0  0  0  0  0  3  0  0  0  0  0  0
  194.7560  171.2140  137.9880 C   0  0  1  0  0  3  0  0  0  0  0  0
  193.2620  175.7010  144.6020 C   0  0  2  0  0  3  0  0  0  0  0  0
  195.9920  171.7360  138.7730 C   0  0  1  0  0  3  0  0  0  0  0  0
  191.0690  172.1450  138.2460 C   0  0  0  0  0  0  0  0  0  0  0  0
  195.6790  174.4880  139.8450 C   0  0  0  0  0  2  0  0  0  0  0  0
  189.6550  173.1780  139.4220 C   0  0  0  0  0  0  0  0  0  0  0  0
  187.7980  175.8100  141.2900 C   0  0  0  0  0  0  0  0  0  0  0  0
  196.2310  169.5250  138.3610 C   0  0  0  0  0  0  0  0  0  0  0  0
  194.8300  175.2050  142.6850 C   0  0  0  0  0  2  0  0  0  0  0  0
  1 19  1  0  0  0  0
  1 44  2  0  0  0  0
  2 15  2  0  0  0  0
  2 17  1  0  0  0  0
  4 32  1  0  0  0  0
  5 15  1  6  0  0  0
  5 45  1  0  0  0  0
  6 41  1  0  0  0  0
  6 26  1  0  0  0  0
  8  7  1  0  0  0  0
  9 34  1  0  0  0  0
 10  8  1  1  0  0  0
 10 31  1  0  0  0  0
 12 13  1  0  0  0  0
 13 42  1  0  0  0  0
 14 27  1  0  0  0  0
 14 41  2  0  0  0  0
 17 45  2  0  0  0  0
 18 25  1  0  0  0  0
 19 22  2  0  0  0  0
 21 16  2  0  0  0  0
 21 31  1  0  0  0  0
 21 11  2  0  0  0  0
 23 37  1  0  0  0  0
 23  4  2  0  0  0  0
 24 10  1  0  0  0  0
 24 39  1  0  0  0  0
 25 30  1  1  0  0  0
 25 21  1  0  0  0  0
 27 43  2  0  0  0  0
 31 36  1  0  0  0  0
 32 13  2  0  0  0  0
 33 18  2  0  0  0  0
 34 28  1  6  0  0  0
 34 46  1  0  0  0  0
 35 44  1  0  0  0  0
 35 33  1  0  0  0  0
 37 12  2  0  0  0  0
 38  5  1  0  0  0  0
 38 26  1  1  0  0  0
 38 40  1  0  0  0  0
 39  3  1  6  0  0  0
 39  7  1  0  0  0  0
 40 32  1  6  0  0  0
 40 20  1  0  0  0  0
 41 29  1  0  0  0  0
 42  9  1  0  0  0  0
 43 29  1  0  0  0  0
 43 19  1  0  0  0  0
 44 30  1  0  0  0  0
 45 20  1  0  0  0  0
 46  3  1  0  0  0  0
M  END
>  <MODEL>
4

>  <REMARK>
 VINA RESULT:      -8.8      4.199      9.545
  Name = 
  0 active torsions:
  status: ('A' for Active; 'I' for Inactive)
                            x       y       z     vdW  Elec       q    Type
                         _______ _______ _______ _____ _____    ______ ____

>  <TORSDO>
F 0

$$$$
=
 OpenBabel11062419473D

 46 52  0  0  1  0  0  0  0  0999 V2000
  187.8160  175.2260  141.3010 N   0  0  0  0  0  0  0  0  0  0  0  0
  193.8020  168.6820  135.2280 C   0  0  0  0  0  3  0  0  0  0  0  0
  194.7790  174.9880  143.8090 C   0  0  0  0  0  2  0  0  0  0  0  0
  195.9960  172.9640  135.9050 C   0  0  0  0  0  3  0  0  0  0  0  0
  193.3270  169.9650  137.0580 C   0  0  2  0  0  3  0  0  0  0  0  0
  190.9680  171.8340  137.4610 C   0  0  0  0  0  2  0  0  0  0  0  0
  193.3700  172.8320  144.8450 S   0  0  0  0  0  0  0  0  0  0  0  0
  191.7050  172.8950  144.1540 C   0  0  0  0  0  2  0  0  0  0  0  0
  196.1200  173.8760  140.3750 C   0  0  0  0  0  2  0  0  0  0  0  0
  191.2160  174.3200  144.3030 C   0  0  2  0  0  3  0  0  0  0  0  0
  189.0040  176.1960  146.8870 O   0  0  0  0  0  0  0  0  0  0  0  0
  196.1570  175.2910  137.4390 C   0  0  0  0  0  3  0  0  0  0  0  0
  195.5510  174.1500  137.9770 C   0  0  0  0  0  0  0  0  0  0  0  0
  189.1900  173.5880  137.6050 N   0  0  0  0  0  0  0  0  0  0  0  0
  192.8090  169.3670  135.7910 C   0  0  0  0  0  3  0  0  0  0  0  0
  191.0590  177.1660  145.9800 O   0  0  0  0  0  0  0  0  0  0  0  0
  195.0310  168.8670  135.9290 N   0  0  0  0  0  0  0  0  0  0  0  0
  188.3070  177.7610  144.4120 N   0  0  0  0  0  0  0  0  0  0  0  0
  188.4820  173.9670  141.1290 C   0  0  0  0  0  0  0  0  0  0  0  0
  195.5910  170.5640  137.4630 O   0  0  0  0  0  0  0  0  0  0  0  0
  189.9760  176.1500  145.7370 S   0  0  0  0  0  0  0  0  0  0  0  0
  188.7780  173.2430  142.1180 O   0  0  0  0  0  0  0  0  0  0  0  0
  196.5930  174.1100  135.3740 C   0  0  0  0  0  3  0  0  0  0  0  0
  192.3390  175.2040  144.0150 N   0  0  0  0  0  2  0  0  0  0  0  0
  189.1270  176.5780  144.2230 C   0  0  1  0  0  3  0  0  0  0  0  0
  192.3550  172.0950  138.0090 C   0  0  0  0  0  2  0  0  0  0  0  0
  188.5040  174.1660  138.6080 C   0  0  0  0  0  3  0  0  0  0  0  0
  196.1000  176.0700  141.3490 O   0  0  0  0  0  1  0  0  0  0  0  0
  189.8200  172.6040  139.5400 N   0  0  0  0  0  2  0  0  0  0  0  0
  188.2740  175.4290  143.7070 C   0  0  0  0  0  2  0  0  0  0  0  0
  190.6930  174.5620  145.6530 N   0  0  0  0  0  0  0  0  0  0  0  0
  195.4800  172.9680  137.2110 C   0  0  0  0  0  0  0  0  0  0  0  0
  187.3710  178.0850  143.5810 C   0  0  0  0  0  3  0  0  0  0  0  0
  196.0120  174.7070  141.6500 C   0  0  1  0  0  3  0  0  0  0  0  0
  187.0500  177.2500  142.3620 C   0  0  0  0  0  2  0  0  0  0  0  0
  189.6910  173.6750  145.8750 O   0  0  0  0  0  1  0  0  0  0  0  0
  196.6770  175.2720  136.1420 C   0  0  0  0  0  3  0  0  0  0  0  0
  193.4330  171.4880  137.1280 C   0  0  1  0  0  3  0  0  0  0  0  0
  193.5390  174.6350  144.6240 C   0  0  2  0  0  3  0  0  0  0  0  0
  194.8300  171.7300  137.7650 C   0  0  1  0  0  3  0  0  0  0  0  0
  189.9690  172.6590  138.2050 C   0  0  0  0  0  0  0  0  0  0  0  0
  195.0180  174.2200  139.3720 C   0  0  0  0  0  2  0  0  0  0  0  0
  188.8900  173.5460  139.7840 C   0  0  0  0  0  0  0  0  0  0  0  0
  187.6760  175.8890  142.4110 C   0  0  0  0  0  0  0  0  0  0  0  0
  194.7360  169.6370  136.9100 C   0  0  0  0  0  0  0  0  0  0  0  0
  194.7170  174.4090  142.4010 C   0  0  0  0  0  2  0  0  0  0  0  0
  1 44  2  0  0  0  0
  2 15  2  0  0  0  0
  2 17  1  0  0  0  0
  4 32  1  0  0  0  0
  5 15  1  6  0  0  0
  5 38  1  0  0  0  0
  6 26  1  0  0  0  0
  6 41  1  0  0  0  0
  8  7  1  0  0  0  0
  9 34  1  0  0  0  0
 10  8  1  1  0  0  0
 10 31  1  0  0  0  0
 12 13  1  0  0  0  0
 13 42  1  0  0  0  0
 14 41  2  0  0  0  0
 14 27  1  0  0  0  0
 17 45  2  0  0  0  0
 19  1  1  0  0  0  0
 19 22  2  0  0  0  0
 20 40  1  0  0  0  0
 21 16  2  0  0  0  0
 21 11  2  0  0  0  0
 23  4  2  0  0  0  0
 23 37  1  0  0  0  0
 24 10  1  0  0  0  0
 24 39  1  0  0  0  0
 25 30  1  1  0  0  0
 25 18  1  0  0  0  0
 25 21  1  0  0  0  0
 27 43  2  0  0  0  0
 29 43  1  0  0  0  0
 31 21  1  0  0  0  0
 31 36  1  0  0  0  0
 32 13  2  0  0  0  0
 33 18  2  0  0  0  0
 34 28  1  6  0  0  0
 34 46  1  0  0  0  0
 35 44  1  0  0  0  0
 35 33  1  0  0  0  0
 37 12  2  0  0  0  0
 38 40  1  0  0  0  0
 38 26  1  1  0  0  0
 39  3  1  6  0  0  0
 39  7  1  0  0  0  0
 40 32  1  6  0  0  0
 41 29  1  0  0  0  0
 42  9  1  0  0  0  0
 43 19  1  0  0  0  0
 44 30  1  0  0  0  0
 45  5  1  0  0  0  0
 45 20  1  0  0  0  0
 46  3  1  0  0  0  0
M  END
>  <MODEL>
5

>  <REMARK>
 VINA RESULT:      -8.3      4.339      9.212
  Name = 
  0 active torsions:
  status: ('A' for Active; 'I' for Inactive)
                            x       y       z     vdW  Elec       q    Type
                         _______ _______ _______ _____ _____    ______ ____

>  <TORSDO>
F 0

$$$$
=
 OpenBabel11062419473D

 46 52  0  0  1  0  0  0  0  0999 V2000
  195.5490  175.1350  143.6030 N   0  0  0  0  0  0  0  0  0  0  0  0
  185.9860  177.9400  147.6270 C   0  0  0  0  0  3  0  0  0  0  0  0
  190.1220  171.3030  140.3340 C   0  0  0  0  0  2  0  0  0  0  0  0
  185.9410  177.9840  142.7690 C   0  0  0  0  0  3  0  0  0  0  0  0
  187.4400  176.6460  146.4310 C   0  0  2  0  0  3  0  0  0  0  0  0
  190.3450  177.2320  145.7710 C   0  0  0  0  0  2  0  0  0  0  0  0
  190.8160  170.0420  142.7080 S   0  0  0  0  0  0  0  0  0  0  0  0
  192.0890  171.0470  143.4990 C   0  0  0  0  0  2  0  0  0  0  0  0
  187.5070  173.9810  141.2350 C   0  0  0  0  0  2  0  0  0  0  0  0
  193.1150  171.3790  142.4360 C   0  0  2  0  0  3  0  0  0  0  0  0
  196.5390  169.8800  141.3770 O   0  0  0  0  0  0  0  0  0  0  0  0
  187.1600  177.1160  140.4120 C   0  0  0  0  0  3  0  0  0  0  0  0
  187.4030  176.4300  141.6080 C   0  0  0  0  0  0  0  0  0  0  0  0
  192.6230  177.9150  144.9930 N   0  0  0  0  0  0  0  0  0  0  0  0
  187.2850  177.7890  147.3800 C   0  0  0  0  0  3  0  0  0  0  0  0
  194.8570  170.5760  139.7420 O   0  0  0  0  0  0  0  0  0  0  0  0
  185.1930  177.0800  146.8100 N   0  0  0  0  0  0  0  0  0  0  0  0
  197.0270  172.7660  140.6790 N   0  0  0  0  0  0  0  0  0  0  0  0
  194.4280  174.8330  144.4430 C   0  0  0  0  0  0  0  0  0  0  0  0
  185.8180  175.9660  144.8320 O   0  0  0  0  0  0  0  0  0  0  0  0
  195.3340  170.7560  141.1570 S   0  0  0  0  0  0  0  0  0  0  0  0
  194.1780  173.6490  144.8020 O   0  0  0  0  0  0  0  0  0  0  0  0
  185.7100  178.6660  141.5710 C   0  0  0  0  0  3  0  0  0  0  0  0
  192.3960  171.6570  141.1990 N   0  0  0  0  0  2  0  0  0  0  0  0
  195.7950  172.4690  141.3860 C   0  0  1  0  0  3  0  0  0  0  0  0
  189.3990  176.5050  144.8400 C   0  0  0  0  0  2  0  0  0  0  0  0
  193.7420  177.2580  144.6380 C   0  0  0  0  0  3  0  0  0  0  0  0
  188.6660  173.6420  139.1610 O   0  0  0  0  0  1  0  0  0  0  0  0
  192.2600  175.7040  145.2900 N   0  0  0  0  0  2  0  0  0  0  0  0
  195.9390  172.8260  142.8580 C   0  0  0  0  0  2  0  0  0  0  0  0
  194.0640  170.2740  142.2520 N   0  0  0  0  0  0  0  0  0  0  0  0
  186.7770  176.8570  142.7980 C   0  0  0  0  0  0  0  0  0  0  0  0
  197.7250  173.8240  140.9340 C   0  0  0  0  0  3  0  0  0  0  0  0
  188.3010  173.0180  140.3580 C   0  0  1  0  0  3  0  0  0  0  0  0
  197.3200  174.8200  141.9980 C   0  0  0  0  0  2  0  0  0  0  0  0
  194.6580  170.0340  143.4480 O   0  0  0  0  0  1  0  0  0  0  0  0
  186.3170  178.2300  140.3930 C   0  0  0  0  0  3  0  0  0  0  0  0
  187.9620  176.9590  145.0290 C   0  0  1  0  0  3  0  0  0  0  0  0
  191.3060  170.6910  141.0760 C   0  0  2  0  0  3  0  0  0  0  0  0
  187.0250  176.1400  144.0970 C   0  0  1  0  0  3  0  0  0  0  0  0
  191.7580  176.9490  145.3760 C   0  0  0  0  0  0  0  0  0  0  0  0
  188.3060  175.2390  141.5740 C   0  0  0  0  0  2  0  0  0  0  0  0
  193.5110  175.9080  144.8360 C   0  0  0  0  0  0  0  0  0  0  0  0
  196.2580  174.2890  142.9130 C   0  0  0  0  0  0  0  0  0  0  0  0
  186.0390  176.4160  146.1140 C   0  0  0  0  0  0  0  0  0  0  0  0
  189.5360  172.4920  141.0840 C   0  0  0  0  0  2  0  0  0  0  0  0
  1 19  1  0  0  0  0
  3 46  1  0  0  0  0
  4 32  1  0  0  0  0
  5 15  1  1  0  0  0
  7  8  1  0  0  0  0
  9 42  1  0  0  0  0
 10  8  1  1  0  0  0
 12 13  1  0  0  0  0
 13 32  2  0  0  0  0
 14 41  2  0  0  0  0
 15  2  2  0  0  0  0
 16 21  2  0  0  0  0
 17  2  1  0  0  0  0
 18 33  2  0  0  0  0
 18 25  1  0  0  0  0
 19 22  2  0  0  0  0
 19 43  1  0  0  0  0
 20 45  1  0  0  0  0
 21 11  2  0  0  0  0
 21 25  1  0  0  0  0
 21 31  1  0  0  0  0
 23  4  2  0  0  0  0
 24 10  1  0  0  0  0
 25 30  1  1  0  0  0
 26  6  1  0  0  0  0
 27 43  2  0  0  0  0
 27 14  1  0  0  0  0
 29 41  1  0  0  0  0
 30 44  1  0  0  0  0
 31 10  1  0  0  0  0
 31 36  1  0  0  0  0
 33 35  1  0  0  0  0
 34 28  1  6  0  0  0
 34 46  1  0  0  0  0
 34  9  1  0  0  0  0
 35 44  1  0  0  0  0
 37 12  2  0  0  0  0
 37 23  1  0  0  0  0
 38 26  1  1  0  0  0
 38  5  1  0  0  0  0
 39  3  1  1  0  0  0
 39 24  1  0  0  0  0
 39  7  1  0  0  0  0
 40 32  1  6  0  0  0
 40 20  1  0  0  0  0
 40 38  1  0  0  0  0
 41  6  1  0  0  0  0
 42 13  1  0  0  0  0
 43 29  1  0  0  0  0
 44  1  2  0  0  0  0
 45  5  1  0  0  0  0
 45 17  2  0  0  0  0
M  END
>  <MODEL>
6

>  <REMARK>
 VINA RESULT:      -7.8      2.605      5.800
  Name = 
  0 active torsions:
  status: ('A' for Active; 'I' for Inactive)
                            x       y       z     vdW  Elec       q    Type
                         _______ _______ _______ _____ _____    ______ ____

>  <TORSDO>
F 0

$$$$
=
 OpenBabel11062419473D

 46 52  0  0  1  0  0  0  0  0999 V2000
  189.8030  174.6050  142.0590 N   0  0  0  0  0  0  0  0  0  0  0  0
  195.1140  168.2550  135.2030 C   0  0  0  0  0  3  0  0  0  0  0  0
  197.1000  175.0140  143.2480 C   0  0  0  0  0  2  0  0  0  0  0  0
  197.0300  172.7170  135.3250 C   0  0  0  0  0  3  0  0  0  0  0  0
  194.8730  169.5820  137.0470 C   0  0  2  0  0  3  0  0  0  0  0  0
  192.4790  171.2840  137.8160 C   0  0  0  0  0  2  0  0  0  0  0  0
  196.0860  172.8080  144.5960 S   0  0  0  0  0  0  0  0  0  0  0  0
  194.3240  172.7120  144.2210 C   0  0  0  0  0  2  0  0  0  0  0  0
  197.8850  173.8460  139.6640 C   0  0  0  0  0  2  0  0  0  0  0  0
  193.7540  174.1010  144.4110 C   0  0  2  0  0  3  0  0  0  0  0  0
  191.8970  175.9240  147.2960 O   0  0  0  0  0  0  0  0  0  0  0  0
  197.2730  175.1200  136.7260 C   0  0  0  0  0  3  0  0  0  0  0  0
  196.8710  173.9630  137.4040 C   0  0  0  0  0  0  0  0  0  0  0  0
  190.6170  172.9030  138.2280 N   0  0  0  0  0  0  0  0  0  0  0  0
  194.1860  168.8870  135.9170 C   0  0  0  0  0  3  0  0  0  0  0  0
  193.6660  177.0030  145.9950 O   0  0  0  0  0  0  0  0  0  0  0  0
  196.4300  168.5650  135.6590 N   0  0  0  0  0  0  0  0  0  0  0  0
  190.6360  177.3130  144.9430 N   0  0  0  0  0  0  0  0  0  0  0  0
  190.5290  173.3930  141.8080 C   0  0  0  0  0  0  0  0  0  0  0  0
  197.1150  170.3700  137.0080 O   0  0  0  0  0  0  0  0  0  0  0  0
  192.6460  175.8980  145.9890 S   0  0  0  0  0  0  0  0  0  0  0  0
  191.0590  172.7400  142.7490 O   0  0  0  0  0  0  0  0  0  0  0  0
  197.4250  173.8790  134.6560 C   0  0  0  0  0  3  0  0  0  0  0  0
  194.7290  175.0540  143.8930 N   0  0  0  0  0  2  0  0  0  0  0  0
  191.5040  176.1880  144.6440 C   0  0  1  0  0  3  0  0  0  0  0  0
  193.9150  171.6750  138.0900 C   0  0  0  0  0  2  0  0  0  0  0  0
  190.0780  173.4730  139.3220 C   0  0  0  0  0  3  0  0  0  0  0  0
  197.8600  176.0760  140.5530 O   0  0  0  0  0  1  0  0  0  0  0  0
  191.6670  172.0620  140.0450 N   0  0  0  0  0  2  0  0  0  0  0  0
  190.6700  174.9550  144.3310 C   0  0  0  0  0  2  0  0  0  0  0  0
  193.4660  174.3660  145.8260 N   0  0  0  0  0  0  0  0  0  0  0  0
  196.7610  172.7440  136.7020 C   0  0  0  0  0  0  0  0  0  0  0  0
  189.5420  177.5260  144.2880 C   0  0  0  0  0  3  0  0  0  0  0  0
  197.9410  174.7260  140.9090 C   0  0  1  0  0  3  0  0  0  0  0  0
  189.0760  176.6120  143.1770 C   0  0  0  0  0  2  0  0  0  0  0  0
  192.5980  173.4180  146.2570 O   0  0  0  0  0  1  0  0  0  0  0  0
  197.5480  175.0790  135.3570 C   0  0  0  0  0  3  0  0  0  0  0  0
  194.8630  171.1100  137.0460 C   0  0  1  0  0  3  0  0  0  0  0  0
  196.0620  174.6060  144.2880 C   0  0  2  0  0  3  0  0  0  0  0  0
  196.3270  171.4870  137.4070 C   0  0  1  0  0  3  0  0  0  0  0  0
  191.5660  172.0650  138.7040 C   0  0  0  0  0  0  0  0  0  0  0  0
  196.5960  174.0570  138.8700 C   0  0  0  0  0  2  0  0  0  0  0  0
  190.7210  172.9410  140.4260 C   0  0  0  0  0  0  0  0  0  0  0  0
  189.8120  175.3070  143.1540 C   0  0  0  0  0  0  0  0  0  0  0  0
  196.2550  169.3560  136.6530 C   0  0  0  0  0  0  0  0  0  0  0  0
  196.8330  174.3660  141.8950 C   0  0  0  0  0  2  0  0  0  0  0  0
  1 44  2  0  0  0  0
  2 17  1  0  0  0  0
  2 15  2  0  0  0  0
  4 32  1  0  0  0  0
  5 15  1  6  0  0  0
  6 26  1  0  0  0  0
  6 41  1  0  0  0  0
  8  7  1  0  0  0  0
  9 34  1  0  0  0  0
 10  8  1  1  0  0  0
 10 31  1  0  0  0  0
 12 13  1  0  0  0  0
 13 42  1  0  0  0  0
 14 41  2  0  0  0  0
 14 27  1  0  0  0  0
 17 45  2  0  0  0  0
 19  1  1  0  0  0  0
 19 22  2  0  0  0  0
 20 40  1  0  0  0  0
 21 16  2  0  0  0  0
 21 11  2  0  0  0  0
 23  4  2  0  0  0  0
 23 37  1  0  0  0  0
 24 39  1  0  0  0  0
 24 10  1  0  0  0  0
 25 30  1  1  0  0  0
 25 18  1  0  0  0  0
 25 21  1  0  0  0  0
 27 43  2  0  0  0  0
 29 43  1  0  0  0  0
 31 21  1  0  0  0  0
 31 36  1  0  0  0  0
 32 13  2  0  0  0  0
 33 18  2  0  0  0  0
 34 28  1  6  0  0  0
 34 46  1  0  0  0  0
 35 33  1  0  0  0  0
 37 12  2  0  0  0  0
 38  5  1  0  0  0  0
 38 40  1  0  0  0  0
 38 26  1  1  0  0  0
 39  3  1  6  0  0  0
 39  7  1  0  0  0  0
 40 32  1  6  0  0  0
 41 29  1  0  0  0  0
 42  9  1  0  0  0  0
 43 19  1  0  0  0  0
 44 35  1  0  0  0  0
 44 30  1  0  0  0  0
 45 20  1  0  0  0  0
 45  5  1  0  0  0  0
 46  3  1  0  0  0  0
M  END
>  <MODEL>
7

>  <REMARK>
 VINA RESULT:      -7.3      4.680      9.444
  Name = 
  0 active torsions:
  status: ('A' for Active; 'I' for Inactive)
                            x       y       z     vdW  Elec       q    Type
                         _______ _______ _______ _____ _____    ______ ____

>  <TORSDO>
F 0

$$$$
