=
 OpenBabel11062419163D

 50 55  0  0  1  0  0  0  0  0999 V2000
  194.1640  174.0200  145.0360 C   0  0  1  0  0  3  0  0  0  0  0  0
  192.2450  177.2460  144.6020 C   0  0  0  0  0  3  0  0  0  0  0  0
  193.1880  176.3300  144.8480 C   0  0  0  0  0  3  0  0  0  0  0  0
  191.8080  174.4310  145.9600 C   0  0  0  0  0  2  0  0  0  0  0  0
  190.1590  176.3870  145.7630 C   0  0  1  0  0  3  0  0  0  0  0  0
  192.8790  174.8540  144.9300 C   0  0  2  0  0  3  0  0  0  0  0  0
  190.8060  176.8480  144.4350 C   0  0  1  0  0  3  0  0  0  0  0  0
  191.0920  175.5760  146.6780 C   0  0  0  0  0  2  0  0  0  0  0  0
  189.4960  177.5220  146.5480 C   0  0  0  0  0  2  0  0  0  0  0  0
  188.0150  177.2700  146.7880 C   0  0  0  0  0  2  0  0  0  0  0  0
  187.4120  176.5970  145.5710 C   0  0  0  0  0  2  0  0  0  0  0  0
  186.0360  177.1820  145.2840 C   0  0  2  0  0  3  0  0  0  0  0  0
  185.4670  179.3150  144.2490 C   0  0  0  0  0  2  0  0  0  0  0  0
  185.7000  177.0330  143.8390 C   0  0  0  0  0  3  0  0  0  0  0  0
  186.0560  178.6920  145.5100 C   0  0  1  0  0  3  0  0  0  0  0  0
  185.3930  178.1910  143.2780 C   0  0  0  0  0  3  0  0  0  0  0  0
  184.5380  178.0270  147.2660 O   0  0  0  0  0  1  0  0  0  0  0  0
  186.1330  179.5950  147.7290 O   0  0  0  0  0  1  0  0  0  0  0  0
  185.2640  179.1040  146.7510 C   0  0  0  0  0  3  0  0  0  0  0  0
  190.0820  177.8860  143.8390 O   0  0  0  0  0  0  0  0  0  0  0  0
  189.9920  177.5360  142.4910 C   0  0  1  0  0  3  0  0  0  0  0  0
  188.8240  176.7780  142.2930 O   0  0  0  0  0  0  0  0  0  0  0  0
  188.7700  178.1270  141.9060 C   0  0  0  0  0  2  0  0  0  0  0  0
  196.4040  174.5180  145.1420 C   0  0  0  0  0  1  0  0  0  0  0  0
  195.1790  174.6160  145.8200 O   0  0  0  0  0  0  0  0  0  0  0  0
  193.9130  172.6870  145.4020 O   0  0  0  0  0  0  0  0  0  0  0  0
  192.7350  170.9870  144.4350 O   0  0  0  0  0  1  0  0  0  0  0  0
  193.6310  172.0310  144.2020 C   0  0  2  0  0  3  0  0  0  0  0  0
  194.9150  171.4840  143.6060 C   0  0  0  0  0  2  0  0  0  0  0  0
  194.8980  171.6470  142.0920 C   0  0  0  0  0  2  0  0  0  0  0  0
  196.8580  174.6710  141.0080 C   0  0  1  0  0  3  0  0  0  0  0  0
  195.8950  172.6810  141.6610 C   0  0  0  0  0  0  0  0  0  0  0  0
  194.2750  174.5610  141.1400 C   0  0  2  0  0  3  0  0  0  0  0  0
  194.4460  175.9480  140.8960 O   0  0  0  0  0  0  0  0  0  0  0  0
  196.7350  176.0230  141.7370 C   0  0  0  0  0  2  0  0  0  0  0  0
  197.3610  172.5420  141.8460 C   0  0  0  0  0  3  0  0  0  0  0  0
  197.9410  173.8640  141.5750 N   0  0  0  0  0  0  0  0  0  0  0  0
  195.6190  173.8780  141.1770 C   0  0  0  0  0  0  0  0  0  0  0  0
  195.2650  176.4630  141.9280 C   0  0  0  0  0  2  0  0  0  0  0  0
  193.3690  174.6970  138.9010 O   0  0  0  0  0  1  0  0  0  0  0  0
  193.3840  173.9290  140.0670 C   0  0  2  0  0  3  0  0  0  0  0  0
  190.9330  172.9250  139.7880 C   0  0  1  0  0  3  0  0  0  0  0  0
  188.5840  173.2860  140.3390 O   0  0  0  0  0  1  0  0  0  0  0  0
  191.6220  173.9960  141.7790 C   0  0  0  0  0  3  0  0  0  0  0  0
  191.9910  173.6750  140.5500 C   0  0  0  0  0  0  0  0  0  0  0  0
  189.7910  172.7580  140.8100 C   0  0  2  0  0  3  0  0  0  0  0  0
  190.2640  173.5390  141.9850 C   0  0  0  0  0  0  0  0  0  0  0  0
  189.7000  173.4710  143.1860 C   0  0  0  0  0  2  0  0  0  0  0  0
  190.5220  173.6700  138.6780 O   0  0  0  0  0  0  0  0  0  0  0  0
  190.6660  172.8050  137.5920 C   0  0  0  0  0  1  0  0  0  0  0  0
  1 26  1  1  0  0  0
  1 25  1  0  0  0  0
  2  3  2  0  0  0  0
  3  6  1  0  0  0  0
  4  8  1  0  0  0  0
  5  9  1  1  0  0  0
  5  8  1  0  0  0  0
  6  1  1  1  0  0  0
  6  4  1  0  0  0  0
  7 20  1  1  0  0  0
  7  2  1  0  0  0  0
  7  5  1  0  0  0  0
  9 10  1  0  0  0  0
 11 10  1  0  0  0  0
 12 15  1  0  0  0  0
 12 11  1  6  0  0  0
 13 15  1  0  0  0  0
 14 12  1  0  0  0  0
 15 19  1  1  0  0  0
 16 14  2  0  0  0  0
 16 13  1  0  0  0  0
 19 17  1  0  0  0  0
 19 18  1  0  0  0  0
 21 20  1  1  0  0  0
 22 21  1  0  0  0  0
 23 22  1  0  0  0  0
 23 21  1  0  0  0  0
 24 25  1  0  0  0  0
 28 27  1  1  0  0  0
 28 26  1  0  0  0  0
 29 28  1  0  0  0  0
 30 29  1  0  0  0  0
 31 38  1  0  0  0  0
 31 37  1  0  0  0  0
 31 35  1  1  0  0  0
 32 36  1  0  0  0  0
 32 30  1  0  0  0  0
 33 41  1  6  0  0  0
 33 38  1  0  0  0  0
 34 33  1  0  0  0  0
 34 39  1  0  0  0  0
 35 39  1  0  0  0  0
 37 36  2  0  0  0  0
 38 32  2  0  0  0  0
 41 40  1  6  0  0  0
 41 45  1  0  0  0  0
 42 49  1  6  0  0  0
 42 45  1  0  0  0  0
 42 46  1  0  0  0  0
 44 47  1  0  0  0  0
 45 44  2  0  0  0  0
 46 43  1  6  0  0  0
 46 47  1  0  0  0  0
 47 48  2  0  0  0  0
 50 49  1  0  0  0  0
M  END
>  <MODEL>
1

>  <REMARK>
 VINA RESULT:      -6.6      0.000      0.000
  Name = 
  17 active torsions:
  status: ('A' for Active; 'I' for Inactive)
    1  A    between atoms: C_2  and  C_12
    2  A    between atoms: C_2  and  C_42
    3  A    between atoms: C_3  and  C_12
    4  A    between atoms: C_4  and  C_35
    5  A    between atoms: C_7  and  C_32
    6  A    between atoms: C_7  and  O_39
    7  A    between atoms: C_7  and  O_45
    8  A    between atoms: C_8  and  O_49
    9  A    between atoms: C_9  and  O_31
   10  A    between atoms: C_11  and  C_21
   11  A    between atoms: C_11  and  C_48
   12  A    between atoms: C_16  and  C_30
   13  A    between atoms: C_16  and  C_48
   14  A    between atoms: C_33  and  C_35
   15  A    between atoms: O_39  and  C_42
   16  A    between atoms: C_40  and  O_49
   17  A    between atoms: C_43  and  C_44
                            x       y       z     vdW  Elec       q    Type
                         _______ _______ _______ _____ _____    ______ ____

>  <TORSDO>
F 17

$$$$
=
 OpenBabel11062419163D

 50 55  0  0  1  0  0  0  0  0999 V2000
  192.5080  170.3540  142.0610 C   0  0  1  0  0  3  0  0  0  0  0  0
  190.9190  173.4840  140.6630 C   0  0  0  0  0  3  0  0  0  0  0  0
  191.7410  172.6070  141.2500 C   0  0  0  0  0  3  0  0  0  0  0  0
  190.0660  171.0280  142.4520 C   0  0  0  0  0  2  0  0  0  0  0  0
  188.6140  172.9560  141.5820 C   0  0  1  0  0  3  0  0  0  0  0  0
  191.3200  171.1910  141.5650 C   0  0  2  0  0  3  0  0  0  0  0  0
  189.5030  173.1100  140.3250 C   0  0  1  0  0  3  0  0  0  0  0  0
  189.3220  172.3210  142.7910 C   0  0  0  0  0  2  0  0  0  0  0  0
  187.9100  174.2520  141.9970 C   0  0  0  0  0  2  0  0  0  0  0  0
  188.7040  175.0330  143.0330 C   0  0  0  0  0  2  0  0  0  0  0  0
  189.0440  176.4040  142.4840 C   0  0  0  0  0  2  0  0  0  0  0  0
  188.2520  177.4710  143.2260 C   0  0  2  0  0  3  0  0  0  0  0  0
  186.6340  177.1960  145.0300 C   0  0  0  0  0  2  0  0  0  0  0  0
  188.8550  177.7280  144.5650 C   0  0  0  0  0  3  0  0  0  0  0  0
  186.8500  176.9520  143.5400 C   0  0  1  0  0  3  0  0  0  0  0  0
  187.9770  177.5770  145.5430 C   0  0  0  0  0  3  0  0  0  0  0  0
  185.8800  179.0360  142.8010 O   0  0  0  0  0  1  0  0  0  0  0  0
  185.8850  177.2590  141.3680 O   0  0  0  0  0  1  0  0  0  0  0  0
  185.7730  177.6460  142.7050 C   0  0  0  0  0  3  0  0  0  0  0  0
  188.9630  174.0260  139.4170 O   0  0  0  0  0  0  0  0  0  0  0  0
  189.6000  173.7520  138.2060 C   0  0  1  0  0  3  0  0  0  0  0  0
  188.7740  172.9160  137.4340 O   0  0  0  0  0  0  0  0  0  0  0  0
  188.7880  174.2780  137.0880 C   0  0  0  0  0  2  0  0  0  0  0  0
  194.2900  170.2040  140.6200 C   0  0  0  0  0  1  0  0  0  0  0  0
  193.7740  170.8900  141.7300 O   0  0  0  0  0  0  0  0  0  0  0  0
  192.4020  170.0220  143.4230 O   0  0  0  0  0  0  0  0  0  0  0  0
  194.1570  169.5360  144.8000 O   0  0  0  0  0  1  0  0  0  0  0  0
  193.5680  170.5220  144.0070 C   0  0  2  0  0  3  0  0  0  0  0  0
  193.2350  171.7340  144.8560 C   0  0  0  0  0  2  0  0  0  0  0  0
  194.5160  172.3990  145.3410 C   0  0  0  0  0  2  0  0  0  0  0  0
  196.3400  174.1810  142.5750 C   0  0  1  0  0  3  0  0  0  0  0  0
  195.3450  172.8600  144.1800 C   0  0  0  0  0  0  0  0  0  0  0  0
  194.4800  175.2390  144.0310 C   0  0  2  0  0  3  0  0  0  0  0  0
  194.9290  176.3910  143.3370 O   0  0  0  0  0  0  0  0  0  0  0  0
  197.1330  175.4780  142.8280 C   0  0  0  0  0  2  0  0  0  0  0  0
  196.4860  172.0910  143.6230 C   0  0  0  0  0  3  0  0  0  0  0  0
  197.1990  173.0030  142.7190 N   0  0  0  0  0  0  0  0  0  0  0  0
  195.2610  174.0310  143.5770 C   0  0  0  0  0  0  0  0  0  0  0  0
  196.3110  176.5350  143.6010 C   0  0  0  0  0  2  0  0  0  0  0  0
  192.4970  175.8400  142.7810 O   0  0  0  0  0  1  0  0  0  0  0  0
  192.9810  175.0210  143.8040 C   0  0  2  0  0  3  0  0  0  0  0  0
  192.3790  176.2990  146.0620 C   0  0  1  0  0  3  0  0  0  0  0  0
  191.5580  175.9920  148.3380 O   0  0  0  0  0  1  0  0  0  0  0  0
  191.1120  174.4570  145.2970 C   0  0  0  0  0  3  0  0  0  0  0  0
  192.1770  175.2020  145.0520 C   0  0  0  0  0  0  0  0  0  0  0  0
  191.1680  176.1600  147.0050 C   0  0  2  0  0  3  0  0  0  0  0  0
  190.4890  174.9300  146.5140 C   0  0  0  0  0  0  0  0  0  0  0  0
  189.2660  174.5700  146.8860 C   0  0  0  0  0  2  0  0  0  0  0  0
  193.5850  176.1060  146.7440 O   0  0  0  0  0  0  0  0  0  0  0  0
  194.2200  177.3490  146.7090 C   0  0  0  0  0  1  0  0  0  0  0  0
  1 25  1  1  0  0  0
  1 26  1  0  0  0  0
  2  3  2  0  0  0  0
  3  6  1  0  0  0  0
  4  8  1  0  0  0  0
  5  9  1  1  0  0  0
  5  8  1  0  0  0  0
  6  1  1  1  0  0  0
  6  4  1  0  0  0  0
  7 20  1  6  0  0  0
  7  2  1  0  0  0  0
  7  5  1  0  0  0  0
  9 10  1  0  0  0  0
 11 10  1  0  0  0  0
 12 11  1  1  0  0  0
 12 15  1  0  0  0  0
 12 14  1  0  0  0  0
 13 16  1  0  0  0  0
 14 16  2  0  0  0  0
 15 19  1  6  0  0  0
 15 13  1  0  0  0  0
 18 19  1  0  0  0  0
 19 17  1  0  0  0  0
 21 20  1  1  0  0  0
 22 21  1  0  0  0  0
 23 22  1  0  0  0  0
 23 21  1  0  0  0  0
 24 25  1  0  0  0  0
 26 28  1  0  0  0  0
 28 27  1  1  0  0  0
 28 29  1  0  0  0  0
 29 30  1  0  0  0  0
 31 37  1  0  0  0  0
 31 35  1  1  0  0  0
 31 38  1  0  0  0  0
 32 30  1  0  0  0  0
 33 41  1  6  0  0  0
 34 39  1  0  0  0  0
 34 33  1  0  0  0  0
 35 39  1  0  0  0  0
 36 32  1  0  0  0  0
 37 36  2  0  0  0  0
 38 33  1  0  0  0  0
 38 32  2  0  0  0  0
 41 40  1  6  0  0  0
 41 45  1  0  0  0  0
 42 49  1  1  0  0  0
 42 46  1  0  0  0  0
 44 47  1  0  0  0  0
 45 44  2  0  0  0  0
 45 42  1  0  0  0  0
 46 43  1  1  0  0  0
 47 48  2  0  0  0  0
 47 46  1  0  0  0  0
 50 49  1  0  0  0  0
M  END
>  <MODEL>
2

>  <REMARK>
 VINA RESULT:      -6.6      2.086      4.938
  Name = 
  17 active torsions:
  status: ('A' for Active; 'I' for Inactive)
    1  A    between atoms: C_2  and  C_12
    2  A    between atoms: C_2  and  C_42
    3  A    between atoms: C_3  and  C_12
    4  A    between atoms: C_4  and  C_35
    5  A    between atoms: C_7  and  C_32
    6  A    between atoms: C_7  and  O_39
    7  A    between atoms: C_7  and  O_45
    8  A    between atoms: C_8  and  O_49
    9  A    between atoms: C_9  and  O_31
   10  A    between atoms: C_11  and  C_21
   11  A    between atoms: C_11  and  C_48
   12  A    between atoms: C_16  and  C_30
   13  A    between atoms: C_16  and  C_48
   14  A    between atoms: C_33  and  C_35
   15  A    between atoms: O_39  and  C_42
   16  A    between atoms: C_40  and  O_49
   17  A    between atoms: C_43  and  C_44
                            x       y       z     vdW  Elec       q    Type
                         _______ _______ _______ _____ _____    ______ ____

>  <TORSDO>
F 17

$$$$
=
 OpenBabel11062419163D

 50 55  0  0  1  0  0  0  0  0999 V2000
  189.9900  171.7770  140.5670 C   0  0  1  0  0  3  0  0  0  0  0  0
  188.2300  175.1190  140.4470 C   0  0  0  0  0  3  0  0  0  0  0  0
  188.9580  174.0340  140.1600 C   0  0  0  0  0  3  0  0  0  0  0  0
  190.0630  173.5130  142.4520 C   0  0  0  0  0  2  0  0  0  0  0  0
  188.9180  175.7830  142.7970 C   0  0  1  0  0  3  0  0  0  0  0  0
  189.3130  173.0000  141.2020 C   0  0  2  0  0  3  0  0  0  0  0  0
  187.7610  175.3860  141.8490 C   0  0  1  0  0  3  0  0  0  0  0  0
  190.2350  175.0300  142.5450 C   0  0  0  0  0  2  0  0  0  0  0  0
  189.1690  177.2920  142.8580 C   0  0  0  0  0  2  0  0  0  0  0  0
  189.1530  177.8220  144.2840 C   0  0  0  0  0  2  0  0  0  0  0  0
  188.2040  176.9910  145.1240 C   0  0  0  0  0  2  0  0  0  0  0  0
  187.1110  177.8770  145.7030 C   0  0  2  0  0  3  0  0  0  0  0  0
  184.8780  177.2530  146.4610 C   0  0  0  0  0  2  0  0  0  0  0  0
  187.0440  177.7170  147.1850 C   0  0  0  0  0  3  0  0  0  0  0  0
  185.7440  177.4030  145.2140 C   0  0  1  0  0  3  0  0  0  0  0  0
  185.8330  177.3770  147.5940 C   0  0  0  0  0  3  0  0  0  0  0  0
  183.9130  178.8940  144.7090 O   0  0  0  0  0  1  0  0  0  0  0  0
  186.0000  179.4230  143.9500 O   0  0  0  0  0  1  0  0  0  0  0  0
  185.1140  178.3770  144.2180 C   0  0  0  0  0  3  0  0  0  0  0  0
  186.7420  176.3440  141.8450 O   0  0  0  0  0  0  0  0  0  0  0  0
  186.9290  177.0660  140.6660 C   0  0  1  0  0  3  0  0  0  0  0  0
  185.7160  177.1040  139.9560 O   0  0  0  0  0  0  0  0  0  0  0  0
  186.0600  178.2620  140.6730 C   0  0  0  0  0  2  0  0  0  0  0  0
  190.8150  172.1160  138.4500 C   0  0  0  0  0  1  0  0  0  0  0  0
  189.7270  171.6210  139.1860 O   0  0  0  0  0  0  0  0  0  0  0  0
  191.3610  171.7030  140.8670 O   0  0  0  0  0  0  0  0  0  0  0  0
  190.5900  169.9490  142.1090 O   0  0  0  0  0  1  0  0  0  0  0  0
  191.5800  170.3700  141.2190 C   0  0  2  0  0  3  0  0  0  0  0  0
  192.9460  170.2310  141.8660 C   0  0  0  0  0  2  0  0  0  0  0  0
  193.1760  171.3710  142.8490 C   0  0  0  0  0  2  0  0  0  0  0  0
  196.6300  172.7390  143.4430 C   0  0  1  0  0  3  0  0  0  0  0  0
  194.6180  171.7820  142.8540 C   0  0  0  0  0  0  0  0  0  0  0  0
  194.5190  173.4450  144.7660 C   0  0  2  0  0  3  0  0  0  0  0  0
  195.5170  174.0940  145.5370 O   0  0  0  0  0  0  0  0  0  0  0  0
  197.3240  172.6240  144.8140 C   0  0  0  0  0  2  0  0  0  0  0  0
  195.6780  171.0830  142.0870 C   0  0  0  0  0  3  0  0  0  0  0  0
  196.9590  171.5960  142.5880 N   0  0  0  0  0  0  0  0  0  0  0  0
  195.1580  172.7220  143.6070 C   0  0  0  0  0  0  0  0  0  0  0  0
  196.4260  173.1040  145.9770 C   0  0  0  0  0  2  0  0  0  0  0  0
  194.0910  175.4920  143.5490 O   0  0  0  0  0  1  0  0  0  0  0  0
  193.4840  174.4540  144.2610 C   0  0  2  0  0  3  0  0  0  0  0  0
  192.7300  176.3820  145.9350 C   0  0  1  0  0  3  0  0  0  0  0  0
  191.8430  176.8170  148.1660 O   0  0  0  0  0  1  0  0  0  0  0  0
  191.5950  174.3130  145.8260 C   0  0  0  0  0  3  0  0  0  0  0  0
  192.6250  174.9970  145.3580 C   0  0  0  0  0  0  0  0  0  0  0  0
  191.4940  176.4960  146.8490 C   0  0  2  0  0  3  0  0  0  0  0  0
  190.9020  175.1310  146.7970 C   0  0  0  0  0  0  0  0  0  0  0  0
  189.6870  174.8420  147.2500 C   0  0  0  0  0  2  0  0  0  0  0  0
  193.9190  176.5110  146.6620 O   0  0  0  0  0  0  0  0  0  0  0  0
  194.6120  177.5470  146.0340 C   0  0  0  0  0  1  0  0  0  0  0  0
  1 25  1  6  0  0  0
  1 26  1  0  0  0  0
  2  7  1  0  0  0  0
  3  2  2  0  0  0  0
  3  6  1  0  0  0  0
  4  8  1  0  0  0  0
  5  9  1  6  0  0  0
  6  1  1  6  0  0  0
  6  4  1  0  0  0  0
  7 20  1  6  0  0  0
  7  5  1  0  0  0  0
  8  5  1  0  0  0  0
  9 10  1  0  0  0  0
 10 11  1  0  0  0  0
 12 11  1  6  0  0  0
 12 14  1  0  0  0  0
 13 16  1  0  0  0  0
 14 16  2  0  0  0  0
 15 19  1  6  0  0  0
 15 12  1  0  0  0  0
 15 13  1  0  0  0  0
 18 19  1  0  0  0  0
 19 17  1  0  0  0  0
 21 23  1  0  0  0  0
 21 20  1  1  0  0  0
 22 21  1  0  0  0  0
 22 23  1  0  0  0  0
 24 25  1  0  0  0  0
 26 28  1  0  0  0  0
 28 29  1  0  0  0  0
 28 27  1  1  0  0  0
 29 30  1  0  0  0  0
 30 32  1  0  0  0  0
 31 38  1  0  0  0  0
 31 35  1  1  0  0  0
 32 38  2  0  0  0  0
 33 41  1  6  0  0  0
 33 34  1  0  0  0  0
 34 39  1  0  0  0  0
 35 39  1  0  0  0  0
 36 37  2  0  0  0  0
 36 32  1  0  0  0  0
 37 31  1  0  0  0  0
 38 33  1  0  0  0  0
 41 40  1  1  0  0  0
 41 45  1  0  0  0  0
 42 49  1  1  0  0  0
 42 46  1  0  0  0  0
 44 47  1  0  0  0  0
 45 44  2  0  0  0  0
 45 42  1  0  0  0  0
 46 43  1  1  0  0  0
 47 46  1  0  0  0  0
 47 48  2  0  0  0  0
 50 49  1  0  0  0  0
M  END
>  <MODEL>
3

>  <REMARK>
 VINA RESULT:      -6.4      2.131      4.974
  Name = 
  17 active torsions:
  status: ('A' for Active; 'I' for Inactive)
    1  A    between atoms: C_2  and  C_12
    2  A    between atoms: C_2  and  C_42
    3  A    between atoms: C_3  and  C_12
    4  A    between atoms: C_4  and  C_35
    5  A    between atoms: C_7  and  C_32
    6  A    between atoms: C_7  and  O_39
    7  A    between atoms: C_7  and  O_45
    8  A    between atoms: C_8  and  O_49
    9  A    between atoms: C_9  and  O_31
   10  A    between atoms: C_11  and  C_21
   11  A    between atoms: C_11  and  C_48
   12  A    between atoms: C_16  and  C_30
   13  A    between atoms: C_16  and  C_48
   14  A    between atoms: C_33  and  C_35
   15  A    between atoms: O_39  and  C_42
   16  A    between atoms: C_40  and  O_49
   17  A    between atoms: C_43  and  C_44
                            x       y       z     vdW  Elec       q    Type
                         _______ _______ _______ _____ _____    ______ ____

>  <TORSDO>
F 17

$$$$
=
 OpenBabel11062419163D

 50 55  0  0  1  0  0  0  0  0999 V2000
  189.6990  173.5920  139.8110 C   0  0  1  0  0  3  0  0  0  0  0  0
  190.7970  170.8960  142.2210 C   0  0  0  0  0  3  0  0  0  0  0  0
  190.0830  171.7580  141.4890 C   0  0  0  0  0  3  0  0  0  0  0  0
  191.6090  173.8600  141.5000 C   0  0  0  0  0  2  0  0  0  0  0  0
  192.7170  172.2570  143.1690 C   0  0  1  0  0  3  0  0  0  0  0  0
  190.7250  172.8760  140.7020 C   0  0  2  0  0  3  0  0  0  0  0  0
  192.2890  171.0270  142.3320 C   0  0  1  0  0  3  0  0  0  0  0  0
  191.8370  173.5020  142.9700 C   0  0  0  0  0  2  0  0  0  0  0  0
  192.8820  171.9530  144.6620 C   0  0  0  0  0  2  0  0  0  0  0  0
  194.2980  172.2180  145.1510 C   0  0  0  0  0  2  0  0  0  0  0  0
  195.1650  172.6530  143.9860 C   0  0  0  0  0  2  0  0  0  0  0  0
  195.8830  173.9500  144.3300 C   0  0  2  0  0  3  0  0  0  0  0  0
  195.0230  176.2320  144.2840 C   0  0  0  0  0  2  0  0  0  0  0  0
  195.4760  174.4240  145.6840 C   0  0  0  0  0  3  0  0  0  0  0  0
  195.4230  175.0630  143.3900 C   0  0  1  0  0  3  0  0  0  0  0  0
  195.0090  175.6620  145.6570 C   0  0  0  0  0  3  0  0  0  0  0  0
  196.3260  176.7850  141.9580 O   0  0  0  0  0  1  0  0  0  0  0  0
  197.7700  175.3550  142.9980 O   0  0  0  0  0  1  0  0  0  0  0  0
  196.5140  175.4730  142.3990 C   0  0  0  0  0  3  0  0  0  0  0  0
  192.8450  169.8440  142.8270 O   0  0  0  0  0  0  0  0  0  0  0  0
  193.5190  169.2790  141.7440 C   0  0  1  0  0  3  0  0  0  0  0  0
  194.6370  170.0740  141.4360 O   0  0  0  0  0  0  0  0  0  0  0  0
  194.8850  168.8930  142.1560 C   0  0  0  0  0  2  0  0  0  0  0  0
  188.9090  173.9820  137.6900 C   0  0  0  0  0  1  0  0  0  0  0  0
  189.6070  173.0720  138.4990 O   0  0  0  0  0  0  0  0  0  0  0  0
  188.4440  173.7200  140.4310 O   0  0  0  0  0  0  0  0  0  0  0  0
  188.2070  174.5430  142.5470 O   0  0  0  0  0  1  0  0  0  0  0  0
  188.5540  174.8590  141.2330 C   0  0  2  0  0  3  0  0  0  0  0  0
  187.6360  175.9450  140.7050 C   0  0  0  0  0  2  0  0  0  0  0  0
  187.6240  177.1280  141.6640 C   0  0  0  0  0  2  0  0  0  0  0  0
  184.3870  178.2050  143.2510 C   0  0  1  0  0  3  0  0  0  0  0  0
  186.2190  177.4730  142.0600 C   0  0  0  0  0  0  0  0  0  0  0  0
  186.6540  178.0500  144.4910 C   0  0  2  0  0  3  0  0  0  0  0  0
  185.8750  178.6920  145.4880 O   0  0  0  0  0  0  0  0  0  0  0  0
  184.2300  179.5830  143.9230 C   0  0  0  0  0  2  0  0  0  0  0  0
  185.1080  177.6490  141.0920 C   0  0  0  0  0  3  0  0  0  0  0  0
  184.0010  178.2620  141.8390 N   0  0  0  0  0  0  0  0  0  0  0  0
  185.8030  177.7760  143.2760 C   0  0  0  0  0  0  0  0  0  0  0  0
  185.3660  179.8860  144.9280 C   0  0  0  0  0  2  0  0  0  0  0  0
  186.7190  176.4160  146.2740 O   0  0  0  0  0  1  0  0  0  0  0  0
  187.2540  176.7480  145.0270 C   0  0  2  0  0  3  0  0  0  0  0  0
  189.6130  175.7590  145.7690 C   0  0  1  0  0  3  0  0  0  0  0  0
  191.8780  176.3660  146.4420 O   0  0  0  0  0  1  0  0  0  0  0  0
  189.4410  177.6840  144.4100 C   0  0  0  0  0  3  0  0  0  0  0  0
  188.7480  176.7830  145.0870 C   0  0  0  0  0  0  0  0  0  0  0  0
  191.0440  176.1400  145.3410 C   0  0  2  0  0  3  0  0  0  0  0  0
  190.8500  177.4040  144.5810 C   0  0  0  0  0  0  0  0  0  0  0  0
  191.7930  177.9570  143.8260 C   0  0  0  0  0  2  0  0  0  0  0  0
  189.4540  175.8430  147.1570 O   0  0  0  0  0  0  0  0  0  0  0  0
  189.1830  174.5360  147.5660 C   0  0  0  0  0  1  0  0  0  0  0  0
  1 25  1  6  0  0  0
  1 26  1  0  0  0  0
  2  7  1  0  0  0  0
  3  2  2  0  0  0  0
  4  8  1  0  0  0  0
  5  9  1  1  0  0  0
  6  1  1  1  0  0  0
  6  3  1  0  0  0  0
  6  4  1  0  0  0  0
  7 20  1  1  0  0  0
  7  5  1  0  0  0  0
  8  5  1  0  0  0  0
  9 10  1  0  0  0  0
 11 10  1  0  0  0  0
 12 11  1  6  0  0  0
 12 14  1  0  0  0  0
 13 16  1  0  0  0  0
 15 19  1  6  0  0  0
 15 13  1  0  0  0  0
 15 12  1  0  0  0  0
 16 14  2  0  0  0  0
 17 19  1  0  0  0  0
 19 18  1  0  0  0  0
 21 23  1  0  0  0  0
 21 20  1  1  0  0  0
 22 21  1  0  0  0  0
 22 23  1  0  0  0  0
 24 25  1  0  0  0  0
 26 28  1  0  0  0  0
 28 27  1  1  0  0  0
 29 28  1  0  0  0  0
 29 30  1  0  0  0  0
 30 32  1  0  0  0  0
 31 38  1  0  0  0  0
 31 35  1  6  0  0  0
 32 38  2  0  0  0  0
 33 41  1  1  0  0  0
 33 34  1  0  0  0  0
 35 39  1  0  0  0  0
 36 37  2  0  0  0  0
 36 32  1  0  0  0  0
 37 31  1  0  0  0  0
 38 33  1  0  0  0  0
 39 34  1  0  0  0  0
 41 45  1  0  0  0  0
 41 40  1  1  0  0  0
 42 49  1  1  0  0  0
 44 47  1  0  0  0  0
 44 45  2  0  0  0  0
 45 42  1  0  0  0  0
 46 42  1  0  0  0  0
 46 43  1  1  0  0  0
 47 46  1  0  0  0  0
 48 47  2  0  0  0  0
 49 50  1  0  0  0  0
M  END
>  <MODEL>
4

>  <REMARK>
 VINA RESULT:      -6.2      2.842      9.192
  Name = 
  17 active torsions:
  status: ('A' for Active; 'I' for Inactive)
    1  A    between atoms: C_2  and  C_12
    2  A    between atoms: C_2  and  C_42
    3  A    between atoms: C_3  and  C_12
    4  A    between atoms: C_4  and  C_35
    5  A    between atoms: C_7  and  C_32
    6  A    between atoms: C_7  and  O_39
    7  A    between atoms: C_7  and  O_45
    8  A    between atoms: C_8  and  O_49
    9  A    between atoms: C_9  and  O_31
   10  A    between atoms: C_11  and  C_21
   11  A    between atoms: C_11  and  C_48
   12  A    between atoms: C_16  and  C_30
   13  A    between atoms: C_16  and  C_48
   14  A    between atoms: C_33  and  C_35
   15  A    between atoms: O_39  and  C_42
   16  A    between atoms: C_40  and  O_49
   17  A    between atoms: C_43  and  C_44
                            x       y       z     vdW  Elec       q    Type
                         _______ _______ _______ _____ _____    ______ ____

>  <TORSDO>
F 17

$$$$
=
 OpenBabel11062419163D

 50 55  0  0  1  0  0  0  0  0999 V2000
  190.6980  172.9670  141.1300 C   0  0  1  0  0  3  0  0  0  0  0  0
  194.3790  173.7090  140.7100 C   0  0  0  0  0  3  0  0  0  0  0  0
  193.2020  173.1310  140.9750 C   0  0  0  0  0  3  0  0  0  0  0  0
  191.8340  175.1200  141.9340 C   0  0  0  0  0  2  0  0  0  0  0  0
  194.2220  176.0320  141.7180 C   0  0  1  0  0  3  0  0  0  0  0  0
  191.9050  173.9040  140.9830 C   0  0  2  0  0  3  0  0  0  0  0  0
  194.4720  175.1860  140.4480 C   0  0  1  0  0  3  0  0  0  0  0  0
  193.1360  175.4730  142.6540 C   0  0  0  0  0  2  0  0  0  0  0  0
  195.4980  176.3440  142.5080 C   0  0  0  0  0  2  0  0  0  0  0  0
  195.6000  175.5240  143.7850 C   0  0  0  0  0  2  0  0  0  0  0  0
  196.6590  174.4530  143.6170 C   0  0  0  0  0  2  0  0  0  0  0  0
  196.1160  173.1080  144.0810 C   0  0  2  0  0  3  0  0  0  0  0  0
  197.3380  171.1780  144.9340 C   0  0  0  0  0  2  0  0  0  0  0  0
  196.0940  173.0440  145.5710 C   0  0  0  0  0  3  0  0  0  0  0  0
  197.0750  171.9920  143.6710 C   0  0  1  0  0  3  0  0  0  0  0  0
  196.7590  171.9970  146.0320 C   0  0  0  0  0  3  0  0  0  0  0  0
  197.2490  169.9430  142.4060 O   0  0  0  0  0  1  0  0  0  0  0  0
  195.1740  170.7910  142.8420 O   0  0  0  0  0  1  0  0  0  0  0  0
  196.5030  171.1150  142.5580 C   0  0  0  0  0  3  0  0  0  0  0  0
  195.6990  175.4950  139.8520 O   0  0  0  0  0  0  0  0  0  0  0  0
  195.8110  174.6150  138.7750 C   0  0  1  0  0  3  0  0  0  0  0  0
  195.3650  175.2600  137.6080 O   0  0  0  0  0  0  0  0  0  0  0  0
  196.7560  175.1640  137.7800 C   0  0  0  0  0  2  0  0  0  0  0  0
  189.5400  173.5750  139.2420 C   0  0  0  0  0  1  0  0  0  0  0  0
  190.1660  172.5080  139.9030 O   0  0  0  0  0  0  0  0  0  0  0  0
  190.9340  171.9230  142.0410 O   0  0  0  0  0  0  0  0  0  0  0  0
  188.9920  173.0030  142.5660 O   0  0  0  0  0  1  0  0  0  0  0  0
  189.8350  171.9410  142.9020 C   0  0  2  0  0  3  0  0  0  0  0  0
  190.3110  172.0960  144.3340 C   0  0  0  0  0  2  0  0  0  0  0  0
  189.8370  173.4280  144.9000 C   0  0  0  0  0  2  0  0  0  0  0  0
  192.2810  175.9550  146.2410 C   0  0  1  0  0  3  0  0  0  0  0  0
  191.0020  174.2480  145.3680 C   0  0  0  0  0  0  0  0  0  0  0  0
  189.7640  176.4110  145.8380 C   0  0  2  0  0  3  0  0  0  0  0  0
  190.1190  177.6000  146.5250 O   0  0  0  0  0  0  0  0  0  0  0  0
  192.0780  176.6340  147.6100 C   0  0  0  0  0  2  0  0  0  0  0  0
  192.3400  173.6830  145.6750 C   0  0  0  0  0  3  0  0  0  0  0  0
  193.0860  174.7390  146.3710 N   0  0  0  0  0  0  0  0  0  0  0  0
  190.9790  175.5310  145.6780 C   0  0  0  0  0  0  0  0  0  0  0  0
  190.6590  177.2230  147.7770 C   0  0  0  0  0  2  0  0  0  0  0  0
  189.8420  177.7820  143.8450 O   0  0  0  0  0  1  0  0  0  0  0  0
  189.1570  176.7360  144.4700 C   0  0  2  0  0  3  0  0  0  0  0  0
  186.7550  177.0690  143.3700 C   0  0  1  0  0  3  0  0  0  0  0  0
  184.6630  178.3110  143.5500 O   0  0  0  0  0  1  0  0  0  0  0  0
  187.0790  177.1690  145.7090 C   0  0  0  0  0  3  0  0  0  0  0  0
  187.6930  177.0340  144.5450 C   0  0  0  0  0  0  0  0  0  0  0  0
  185.3600  177.1900  144.0160 C   0  0  2  0  0  3  0  0  0  0  0  0
  185.6640  177.3470  145.4640 C   0  0  0  0  0  0  0  0  0  0  0  0
  184.7480  177.2450  146.4210 C   0  0  0  0  0  2  0  0  0  0  0  0
  187.0420  178.1710  142.5580 O   0  0  0  0  0  0  0  0  0  0  0  0
  187.3240  177.6280  141.3040 C   0  0  0  0  0  1  0  0  0  0  0  0
  1 25  1  6  0  0  0
  1 26  1  0  0  0  0
  2  3  2  0  0  0  0
  3  6  1  0  0  0  0
  4  8  1  0  0  0  0
  5  9  1  1  0  0  0
  5  8  1  0  0  0  0
  6  1  1  1  0  0  0
  6  4  1  0  0  0  0
  7 20  1  1  0  0  0
  7  2  1  0  0  0  0
  7  5  1  0  0  0  0
  9 10  1  0  0  0  0
 11 10  1  0  0  0  0
 12 11  1  1  0  0  0
 12 14  1  0  0  0  0
 13 16  1  0  0  0  0
 14 16  2  0  0  0  0
 15 19  1  6  0  0  0
 15 12  1  0  0  0  0
 15 13  1  0  0  0  0
 17 19  1  0  0  0  0
 19 18  1  0  0  0  0
 21 20  1  1  0  0  0
 22 23  1  0  0  0  0
 22 21  1  0  0  0  0
 23 21  1  0  0  0  0
 24 25  1  0  0  0  0
 26 28  1  0  0  0  0
 28 27  1  6  0  0  0
 28 29  1  0  0  0  0
 29 30  1  0  0  0  0
 30 32  1  0  0  0  0
 31 37  1  0  0  0  0
 31 35  1  1  0  0  0
 32 36  1  0  0  0  0
 32 38  2  0  0  0  0
 33 41  1  6  0  0  0
 33 34  1  0  0  0  0
 34 39  1  0  0  0  0
 35 39  1  0  0  0  0
 36 37  2  0  0  0  0
 38 33  1  0  0  0  0
 38 31  1  0  0  0  0
 41 40  1  1  0  0  0
 41 45  1  0  0  0  0
 42 49  1  6  0  0  0
 42 46  1  0  0  0  0
 42 45  1  0  0  0  0
 45 44  2  0  0  0  0
 46 43  1  6  0  0  0
 46 47  1  0  0  0  0
 47 44  1  0  0  0  0
 47 48  2  0  0  0  0
 50 49  1  0  0  0  0
M  END
>  <MODEL>
5

>  <REMARK>
 VINA RESULT:      -6.1      2.174      8.188
  Name = 
  17 active torsions:
  status: ('A' for Active; 'I' for Inactive)
    1  A    between atoms: C_2  and  C_12
    2  A    between atoms: C_2  and  C_42
    3  A    between atoms: C_3  and  C_12
    4  A    between atoms: C_4  and  C_35
    5  A    between atoms: C_7  and  C_32
    6  A    between atoms: C_7  and  O_39
    7  A    between atoms: C_7  and  O_45
    8  A    between atoms: C_8  and  O_49
    9  A    between atoms: C_9  and  O_31
   10  A    between atoms: C_11  and  C_21
   11  A    between atoms: C_11  and  C_48
   12  A    between atoms: C_16  and  C_30
   13  A    between atoms: C_16  and  C_48
   14  A    between atoms: C_33  and  C_35
   15  A    between atoms: O_39  and  C_42
   16  A    between atoms: C_40  and  O_49
   17  A    between atoms: C_43  and  C_44
                            x       y       z     vdW  Elec       q    Type
                         _______ _______ _______ _____ _____    ______ ____

>  <TORSDO>
F 17

$$$$
=
 OpenBabel11062419163D

 50 55  0  0  1  0  0  0  0  0999 V2000
  190.3430  173.1080  141.5980 C   0  0  1  0  0  3  0  0  0  0  0  0
  191.2020  174.7300  144.9010 C   0  0  0  0  0  3  0  0  0  0  0  0
  190.8300  173.8730  143.9430 C   0  0  0  0  0  3  0  0  0  0  0  0
  189.5100  175.4200  142.3280 C   0  0  0  0  0  2  0  0  0  0  0  0
  189.9720  176.8870  144.3810 C   0  0  1  0  0  3  0  0  0  0  0  0
  190.5700  174.3130  142.5220 C   0  0  2  0  0  3  0  0  0  0  0  0
  191.3380  176.1980  144.6140 C   0  0  1  0  0  3  0  0  0  0  0  0
  188.9500  176.0320  143.6120 C   0  0  0  0  0  2  0  0  0  0  0  0
  189.3430  177.4480  145.6610 C   0  0  0  0  0  2  0  0  0  0  0  0
  188.7790  176.3530  146.5540 C   0  0  0  0  0  2  0  0  0  0  0  0
  187.2660  176.3650  146.4780 C   0  0  0  0  0  2  0  0  0  0  0  0
  186.7620  177.7990  146.4010 C   0  0  2  0  0  3  0  0  0  0  0  0
  184.4970  178.6030  145.9850 C   0  0  0  0  0  2  0  0  0  0  0  0
  186.0560  178.1700  147.6620 C   0  0  0  0  0  3  0  0  0  0  0  0
  185.6850  177.9140  145.3230 C   0  0  1  0  0  3  0  0  0  0  0  0
  184.8270  178.6040  147.4350 C   0  0  0  0  0  3  0  0  0  0  0  0
  185.8730  178.0170  142.9180 O   0  0  0  0  0  1  0  0  0  0  0  0
  185.5700  179.9590  144.0790 O   0  0  0  0  0  1  0  0  0  0  0  0
  186.1680  178.6970  144.1020 C   0  0  0  0  0  3  0  0  0  0  0  0
  192.0680  176.8250  145.6280 O   0  0  0  0  0  0  0  0  0  0  0  0
  193.3240  176.2160  145.6000 C   0  0  1  0  0  3  0  0  0  0  0  0
  194.2760  177.1520  145.1610 O   0  0  0  0  0  0  0  0  0  0  0  0
  194.2300  176.9040  146.5430 C   0  0  0  0  0  2  0  0  0  0  0  0
  190.7580  173.4440  139.3640 C   0  0  0  0  0  1  0  0  0  0  0  0
  189.7600  173.4340  140.3510 O   0  0  0  0  0  0  0  0  0  0  0  0
  191.4900  172.3070  141.4650 O   0  0  0  0  0  0  0  0  0  0  0  0
  189.7990  171.0570  142.3550 O   0  0  0  0  0  1  0  0  0  0  0  0
  191.0600  171.0110  141.7570 C   0  0  2  0  0  3  0  0  0  0  0  0
  192.0490  170.3430  142.6930 C   0  0  0  0  0  2  0  0  0  0  0  0
  193.3130  171.1860  142.8030 C   0  0  0  0  0  2  0  0  0  0  0  0
  196.1680  170.1240  145.0110 C   0  0  1  0  0  3  0  0  0  0  0  0
  194.3110  170.5260  143.7080 C   0  0  0  0  0  0  0  0  0  0  0  0
  196.1470  172.2690  143.5620 C   0  0  2  0  0  3  0  0  0  0  0  0
  197.3300  172.4950  144.3120 O   0  0  0  0  0  0  0  0  0  0  0  0
  196.6930  171.0220  146.1480 C   0  0  0  0  0  2  0  0  0  0  0  0
  194.0000  169.3580  144.5680 C   0  0  0  0  0  3  0  0  0  0  0  0
  195.1290  169.2140  145.4960 N   0  0  0  0  0  0  0  0  0  0  0  0
  195.5380  170.9460  143.9530 C   0  0  0  0  0  0  0  0  0  0  0  0
  196.9770  172.4680  145.6810 C   0  0  0  0  0  2  0  0  0  0  0  0
  197.8140  172.1770  141.8100 O   0  0  0  0  0  1  0  0  0  0  0  0
  196.4440  172.2970  142.0600 C   0  0  2  0  0  3  0  0  0  0  0  0
  196.3560  174.9210  141.6140 C   0  0  1  0  0  3  0  0  0  0  0  0
  194.8670  176.7750  141.0680 O   0  0  0  0  0  1  0  0  0  0  0  0
  195.0000  173.4050  140.4100 C   0  0  0  0  0  3  0  0  0  0  0  0
  195.8880  173.5090  141.3840 C   0  0  0  0  0  0  0  0  0  0  0  0
  195.6270  175.7320  140.5240 C   0  0  2  0  0  3  0  0  0  0  0  0
  194.7310  174.7280  139.8890 C   0  0  0  0  0  0  0  0  0  0  0  0
  194.0930  174.9360  138.7430 C   0  0  0  0  0  2  0  0  0  0  0  0
  195.9940  175.3440  142.8970 O   0  0  0  0  0  0  0  0  0  0  0  0
  197.1620  175.8850  143.4380 C   0  0  0  0  0  1  0  0  0  0  0  0
  1 25  1  6  0  0  0
  3  2  2  0  0  0  0
  4  6  1  0  0  0  0
  4  8  1  0  0  0  0
  5  7  1  0  0  0  0
  5  9  1  1  0  0  0
  6  1  1  6  0  0  0
  6  3  1  0  0  0  0
  7  2  1  0  0  0  0
  7 20  1  1  0  0  0
  8  5  1  0  0  0  0
  9 10  1  0  0  0  0
 11 10  1  0  0  0  0
 12 11  1  1  0  0  0
 12 14  1  0  0  0  0
 13 16  1  0  0  0  0
 15 19  1  6  0  0  0
 15 13  1  0  0  0  0
 15 12  1  0  0  0  0
 16 14  2  0  0  0  0
 17 19  1  0  0  0  0
 18 19  1  0  0  0  0
 21 20  1  1  0  0  0
 21 23  1  0  0  0  0
 22 21  1  0  0  0  0
 22 23  1  0  0  0  0
 24 25  1  0  0  0  0
 26  1  1  0  0  0  0
 26 28  1  0  0  0  0
 28 27  1  1  0  0  0
 28 29  1  0  0  0  0
 29 30  1  0  0  0  0
 30 32  1  0  0  0  0
 31 37  1  0  0  0  0
 31 35  1  1  0  0  0
 32 38  2  0  0  0  0
 32 36  1  0  0  0  0
 33 41  1  6  0  0  0
 33 38  1  0  0  0  0
 33 34  1  0  0  0  0
 34 39  1  0  0  0  0
 36 37  2  0  0  0  0
 38 31  1  0  0  0  0
 39 35  1  0  0  0  0
 41 40  1  1  0  0  0
 42 49  1  1  0  0  0
 44 45  2  0  0  0  0
 45 42  1  0  0  0  0
 45 41  1  0  0  0  0
 46 43  1  1  0  0  0
 46 42  1  0  0  0  0
 47 44  1  0  0  0  0
 47 46  1  0  0  0  0
 48 47  2  0  0  0  0
 49 50  1  0  0  0  0
M  END
>  <MODEL>
6

>  <REMARK>
 VINA RESULT:      -6.1      2.215      4.838
  Name = 
  17 active torsions:
  status: ('A' for Active; 'I' for Inactive)
    1  A    between atoms: C_2  and  C_12
    2  A    between atoms: C_2  and  C_42
    3  A    between atoms: C_3  and  C_12
    4  A    between atoms: C_4  and  C_35
    5  A    between atoms: C_7  and  C_32
    6  A    between atoms: C_7  and  O_39
    7  A    between atoms: C_7  and  O_45
    8  A    between atoms: C_8  and  O_49
    9  A    between atoms: C_9  and  O_31
   10  A    between atoms: C_11  and  C_21
   11  A    between atoms: C_11  and  C_48
   12  A    between atoms: C_16  and  C_30
   13  A    between atoms: C_16  and  C_48
   14  A    between atoms: C_33  and  C_35
   15  A    between atoms: O_39  and  C_42
   16  A    between atoms: C_40  and  O_49
   17  A    between atoms: C_43  and  C_44
                            x       y       z     vdW  Elec       q    Type
                         _______ _______ _______ _____ _____    ______ ____

>  <TORSDO>
F 17

$$$$
=
 OpenBabel11062419163D

 50 55  0  0  1  0  0  0  0  0999 V2000
  194.0390  173.5700  143.9250 C   0  0  1  0  0  3  0  0  0  0  0  0
  191.0970  175.1080  145.7310 C   0  0  0  0  0  3  0  0  0  0  0  0
  191.9190  174.2800  145.0760 C   0  0  0  0  0  3  0  0  0  0  0  0
  193.0890  175.8950  143.4120 C   0  0  0  0  0  2  0  0  0  0  0  0
  191.2370  177.3120  144.4820 C   0  0  1  0  0  3  0  0  0  0  0  0
  193.2070  174.7510  144.4440 C   0  0  2  0  0  3  0  0  0  0  0  0
  191.4010  176.5760  145.8330 C   0  0  1  0  0  3  0  0  0  0  0  0
  191.6950  176.5040  143.2550 C   0  0  0  0  0  2  0  0  0  0  0  0
  189.8290  177.8710  144.2560 C   0  0  0  0  0  2  0  0  0  0  0  0
  188.8840  176.8350  143.6680 C   0  0  0  0  0  2  0  0  0  0  0  0
  187.9080  176.3750  144.7320 C   0  0  0  0  0  2  0  0  0  0  0  0
  187.1130  177.5630  145.2550 C   0  0  2  0  0  3  0  0  0  0  0  0
  184.7950  177.6370  146.0120 C   0  0  0  0  0  2  0  0  0  0  0  0
  187.0050  177.5010  146.7420 C   0  0  0  0  0  3  0  0  0  0  0  0
  185.6670  177.4730  144.7710 C   0  0  1  0  0  3  0  0  0  0  0  0
  185.7480  177.5400  147.1510 C   0  0  0  0  0  3  0  0  0  0  0  0
  183.9670  178.5800  143.4610 O   0  0  0  0  0  1  0  0  0  0  0  0
  185.7730  179.7880  144.1610 O   0  0  0  0  0  1  0  0  0  0  0  0
  185.3390  178.5350  143.7220 C   0  0  0  0  0  3  0  0  0  0  0  0
  190.6270  177.1620  146.8390 O   0  0  0  0  0  0  0  0  0  0  0  0
  191.1200  176.6290  148.0310 C   0  0  1  0  0  3  0  0  0  0  0  0
  192.3710  177.2080  148.3080 O   0  0  0  0  0  0  0  0  0  0  0  0
  191.2740  177.7070  149.0300 C   0  0  0  0  0  2  0  0  0  0  0  0
  194.5090  171.7760  145.2810 C   0  0  0  0  0  1  0  0  0  0  0  0
  193.5860  172.3040  144.3650 O   0  0  0  0  0  0  0  0  0  0  0  0
  194.2360  173.6190  142.5340 O   0  0  0  0  0  0  0  0  0  0  0  0
  196.3190  174.3730  143.0860 O   0  0  0  0  0  1  0  0  0  0  0  0
  195.6070  173.4180  142.3580 C   0  0  2  0  0  3  0  0  0  0  0  0
  195.9540  173.5300  140.8850 C   0  0  0  0  0  2  0  0  0  0  0  0
  195.2980  174.7680  140.2880 C   0  0  0  0  0  2  0  0  0  0  0  0
  195.4760  175.1420  136.5480 C   0  0  1  0  0  3  0  0  0  0  0  0
  195.6420  174.8990  138.8340 C   0  0  0  0  0  0  0  0  0  0  0  0
  193.2930  174.7650  137.8880 C   0  0  2  0  0  3  0  0  0  0  0  0
  192.7480  175.0410  136.6070 O   0  0  0  0  0  0  0  0  0  0  0  0
  194.7070  176.2520  135.8050 C   0  0  0  0  0  2  0  0  0  0  0  0
  196.9850  175.2850  138.3340 C   0  0  0  0  0  3  0  0  0  0  0  0
  196.8250  175.5860  136.9060 N   0  0  0  0  0  0  0  0  0  0  0  0
  194.7990  174.8090  137.8220 C   0  0  0  0  0  0  0  0  0  0  0  0
  193.2160  176.3150  136.2100 C   0  0  0  0  0  2  0  0  0  0  0  0
  192.7230  172.4750  137.3540 O   0  0  0  0  0  1  0  0  0  0  0  0
  192.8200  173.4010  138.3960 C   0  0  2  0  0  3  0  0  0  0  0  0
  190.1720  173.1830  138.5820 C   0  0  1  0  0  3  0  0  0  0  0  0
  188.1930  174.1070  139.6680 O   0  0  0  0  0  1  0  0  0  0  0  0
  191.5140  173.7090  140.4540 C   0  0  0  0  0  3  0  0  0  0  0  0
  191.5320  173.4820  139.1520 C   0  0  0  0  0  0  0  0  0  0  0  0
  189.2450  173.1950  139.8140 C   0  0  2  0  0  3  0  0  0  0  0  0
  190.1450  173.6290  140.9170 C   0  0  0  0  0  0  0  0  0  0  0  0
  189.8210  173.5470  142.2020 C   0  0  0  0  0  2  0  0  0  0  0  0
  189.8110  174.1690  137.6580 O   0  0  0  0  0  0  0  0  0  0  0  0
  189.5000  173.4700  136.4910 C   0  0  0  0  0  1  0  0  0  0  0  0
  1 26  1  6  0  0  0
  1 25  1  0  0  0  0
  2  7  1  0  0  0  0
  3  2  2  0  0  0  0
  4  6  1  0  0  0  0
  5  9  1  6  0  0  0
  5  7  1  0  0  0  0
  6  1  1  6  0  0  0
  6  3  1  0  0  0  0
  7 20  1  1  0  0  0
  8  4  1  0  0  0  0
  8  5  1  0  0  0  0
 10  9  1  0  0  0  0
 10 11  1  0  0  0  0
 12 11  1  6  0  0  0
 12 14  1  0  0  0  0
 13 16  1  0  0  0  0
 14 16  2  0  0  0  0
 15 19  1  6  0  0  0
 15 12  1  0  0  0  0
 15 13  1  0  0  0  0
 17 19  1  0  0  0  0
 19 18  1  0  0  0  0
 21 20  1  6  0  0  0
 21 22  1  0  0  0  0
 21 23  1  0  0  0  0
 22 23  1  0  0  0  0
 25 24  1  0  0  0  0
 28 26  1  0  0  0  0
 28 27  1  1  0  0  0
 29 28  1  0  0  0  0
 30 29  1  0  0  0  0
 31 35  1  1  0  0  0
 31 37  1  0  0  0  0
 31 38  1  0  0  0  0
 32 30  1  0  0  0  0
 33 41  1  6  0  0  0
 34 33  1  0  0  0  0
 35 39  1  0  0  0  0
 36 32  1  0  0  0  0
 37 36  2  0  0  0  0
 38 33  1  0  0  0  0
 38 32  2  0  0  0  0
 39 34  1  0  0  0  0
 41 40  1  6  0  0  0
 41 45  1  0  0  0  0
 42 49  1  6  0  0  0
 42 45  1  0  0  0  0
 42 46  1  0  0  0  0
 44 47  1  0  0  0  0
 45 44  2  0  0  0  0
 46 43  1  6  0  0  0
 46 47  1  0  0  0  0
 47 48  2  0  0  0  0
 50 49  1  0  0  0  0
M  END
>  <MODEL>
7

>  <REMARK>
 VINA RESULT:      -6.1      2.299      3.480
  Name = 
  17 active torsions:
  status: ('A' for Active; 'I' for Inactive)
    1  A    between atoms: C_2  and  C_12
    2  A    between atoms: C_2  and  C_42
    3  A    between atoms: C_3  and  C_12
    4  A    between atoms: C_4  and  C_35
    5  A    between atoms: C_7  and  C_32
    6  A    between atoms: C_7  and  O_39
    7  A    between atoms: C_7  and  O_45
    8  A    between atoms: C_8  and  O_49
    9  A    between atoms: C_9  and  O_31
   10  A    between atoms: C_11  and  C_21
   11  A    between atoms: C_11  and  C_48
   12  A    between atoms: C_16  and  C_30
   13  A    between atoms: C_16  and  C_48
   14  A    between atoms: C_33  and  C_35
   15  A    between atoms: O_39  and  C_42
   16  A    between atoms: C_40  and  O_49
   17  A    between atoms: C_43  and  C_44
                            x       y       z     vdW  Elec       q    Type
                         _______ _______ _______ _____ _____    ______ ____

>  <TORSDO>
F 17

$$$$
=
 OpenBabel11062419163D

 50 55  0  0  1  0  0  0  0  0999 V2000
  190.5040  173.3180  139.2040 C   0  0  1  0  0  3  0  0  0  0  0  0
  194.0360  173.5510  137.8800 C   0  0  0  0  0  3  0  0  0  0  0  0
  192.7880  173.1610  138.1630 C   0  0  0  0  0  3  0  0  0  0  0  0
  192.5450  173.9050  140.6400 C   0  0  0  0  0  2  0  0  0  0  0  0
  195.0240  174.2880  140.0980 C   0  0  1  0  0  3  0  0  0  0  0  0
  191.9470  173.8430  139.2170 C   0  0  2  0  0  3  0  0  0  0  0  0
  194.6850  174.6740  138.6380 C   0  0  1  0  0  3  0  0  0  0  0  0
  193.9780  173.3890  140.7790 C   0  0  0  0  0  2  0  0  0  0  0  0
  196.4270  173.6950  140.2640 C   0  0  0  0  0  2  0  0  0  0  0  0
  197.2120  174.3760  141.3760 C   0  0  0  0  0  2  0  0  0  0  0  0
  197.0940  173.5650  142.6500 C   0  0  0  0  0  2  0  0  0  0  0  0
  197.1270  174.4900  143.8590 C   0  0  2  0  0  3  0  0  0  0  0  0
  195.6010  174.5750  145.7600 C   0  0  0  0  0  2  0  0  0  0  0  0
  197.6700  173.7710  145.0470 C   0  0  0  0  0  3  0  0  0  0  0  0
  195.7020  174.8620  144.2660 C   0  0  1  0  0  3  0  0  0  0  0  0
  196.8410  173.8170  146.0780 C   0  0  0  0  0  3  0  0  0  0  0  0
  194.7280  176.9320  145.0410 O   0  0  0  0  0  1  0  0  0  0  0  0
  196.5480  177.0230  143.6660 O   0  0  0  0  0  1  0  0  0  0  0  0
  195.3750  176.3250  143.9620 C   0  0  0  0  0  3  0  0  0  0  0  0
  195.8100  175.1370  137.9500 O   0  0  0  0  0  0  0  0  0  0  0  0
  195.5040  174.9670  136.5990 C   0  0  1  0  0  3  0  0  0  0  0  0
  195.4890  176.2250  135.9710 O   0  0  0  0  0  0  0  0  0  0  0  0
  196.6340  175.4360  135.7700 C   0  0  0  0  0  2  0  0  0  0  0  0
  189.1800  173.6980  137.3660 C   0  0  0  0  0  1  0  0  0  0  0  0
  190.0850  172.8020  137.9560 O   0  0  0  0  0  0  0  0  0  0  0  0
  190.2420  172.4380  140.2680 O   0  0  0  0  0  0  0  0  0  0  0  0
  188.9870  174.2990  140.6890 O   0  0  0  0  0  1  0  0  0  0  0  0
  189.0620  172.9140  140.8460 C   0  0  2  0  0  3  0  0  0  0  0  0
  189.0380  172.5600  142.3210 C   0  0  0  0  0  2  0  0  0  0  0  0
  188.9810  173.8300  143.1600 C   0  0  0  0  0  2  0  0  0  0  0  0
  191.9090  174.8850  145.2740 C   0  0  1  0  0  3  0  0  0  0  0  0
  190.2870  174.0590  143.8610 C   0  0  0  0  0  0  0  0  0  0  0  0
  189.6400  176.1270  145.1780 C   0  0  2  0  0  3  0  0  0  0  0  0
  190.2490  176.8190  146.2570 O   0  0  0  0  0  0  0  0  0  0  0  0
  191.8000  175.0170  146.8060 C   0  0  0  0  0  2  0  0  0  0  0  0
  191.4010  173.0780  143.8730 C   0  0  0  0  0  3  0  0  0  0  0  0
  192.3510  173.5420  144.8920 N   0  0  0  0  0  0  0  0  0  0  0  0
  190.5840  175.0800  144.6430 C   0  0  0  0  0  0  0  0  0  0  0  0
  190.5800  175.8610  147.2430 C   0  0  0  0  0  2  0  0  0  0  0  0
  190.0580  178.2330  144.0630 O   0  0  0  0  0  1  0  0  0  0  0  0
  189.2390  177.1020  144.0670 C   0  0  2  0  0  3  0  0  0  0  0  0
  186.8160  177.3950  143.0010 C   0  0  1  0  0  3  0  0  0  0  0  0
  184.8020  178.7710  143.0390 O   0  0  0  0  0  1  0  0  0  0  0  0
  187.2380  177.8500  145.2810 C   0  0  0  0  0  3  0  0  0  0  0  0
  187.7970  177.4940  144.1370 C   0  0  0  0  0  0  0  0  0  0  0  0
  185.4560  177.7010  143.6610 C   0  0  2  0  0  3  0  0  0  0  0  0
  185.8260  178.0700  145.0540 C   0  0  0  0  0  0  0  0  0  0  0  0
  184.9440  178.1780  146.0420 C   0  0  0  0  0  2  0  0  0  0  0  0
  187.1290  178.3330  142.0120 O   0  0  0  0  0  0  0  0  0  0  0  0
  187.4340  177.5730  140.8810 C   0  0  0  0  0  1  0  0  0  0  0  0
  1 25  1  6  0  0  0
  1 26  1  0  0  0  0
  2  3  2  0  0  0  0
  2  7  1  0  0  0  0
  3  6  1  0  0  0  0
  4  8  1  0  0  0  0
  5  9  1  6  0  0  0
  5  8  1  0  0  0  0
  6  1  1  1  0  0  0
  6  4  1  0  0  0  0
  7 20  1  6  0  0  0
  7  5  1  0  0  0  0
  9 10  1  0  0  0  0
 10 11  1  0  0  0  0
 12 11  1  6  0  0  0
 12 15  1  0  0  0  0
 12 14  1  0  0  0  0
 13 16  1  0  0  0  0
 14 16  2  0  0  0  0
 15 19  1  1  0  0  0
 15 13  1  0  0  0  0
 18 19  1  0  0  0  0
 19 17  1  0  0  0  0
 21 20  1  1  0  0  0
 22 21  1  0  0  0  0
 23 22  1  0  0  0  0
 23 21  1  0  0  0  0
 24 25  1  0  0  0  0
 26 28  1  0  0  0  0
 28 27  1  1  0  0  0
 28 29  1  0  0  0  0
 29 30  1  0  0  0  0
 30 32  1  0  0  0  0
 31 35  1  1  0  0  0
 32 36  1  0  0  0  0
 32 38  2  0  0  0  0
 33 41  1  6  0  0  0
 33 34  1  0  0  0  0
 34 39  1  0  0  0  0
 35 39  1  0  0  0  0
 36 37  2  0  0  0  0
 37 31  1  0  0  0  0
 38 33  1  0  0  0  0
 38 31  1  0  0  0  0
 41 40  1  1  0  0  0
 41 45  1  0  0  0  0
 42 49  1  6  0  0  0
 42 46  1  0  0  0  0
 42 45  1  0  0  0  0
 45 44  2  0  0  0  0
 46 43  1  6  0  0  0
 46 47  1  0  0  0  0
 47 44  1  0  0  0  0
 47 48  2  0  0  0  0
 50 49  1  0  0  0  0
M  END
>  <MODEL>
8

>  <REMARK>
 VINA RESULT:      -6.0      2.244      8.267
  Name = 
  17 active torsions:
  status: ('A' for Active; 'I' for Inactive)
    1  A    between atoms: C_2  and  C_12
    2  A    between atoms: C_2  and  C_42
    3  A    between atoms: C_3  and  C_12
    4  A    between atoms: C_4  and  C_35
    5  A    between atoms: C_7  and  C_32
    6  A    between atoms: C_7  and  O_39
    7  A    between atoms: C_7  and  O_45
    8  A    between atoms: C_8  and  O_49
    9  A    between atoms: C_9  and  O_31
   10  A    between atoms: C_11  and  C_21
   11  A    between atoms: C_11  and  C_48
   12  A    between atoms: C_16  and  C_30
   13  A    between atoms: C_16  and  C_48
   14  A    between atoms: C_33  and  C_35
   15  A    between atoms: O_39  and  C_42
   16  A    between atoms: C_40  and  O_49
   17  A    between atoms: C_43  and  C_44
                            x       y       z     vdW  Elec       q    Type
                         _______ _______ _______ _____ _____    ______ ____

>  <TORSDO>
F 17

$$$$
=
 OpenBabel11062419163D

 50 55  0  0  1  0  0  0  0  0999 V2000
  194.8270  175.5700  145.0770 C   0  0  1  0  0  3  0  0  0  0  0  0
  191.2480  175.5060  143.8650 C   0  0  0  0  0  3  0  0  0  0  0  0
  192.5220  175.8350  144.1060 C   0  0  0  0  0  3  0  0  0  0  0  0
  192.8050  175.0990  146.5810 C   0  0  0  0  0  2  0  0  0  0  0  0
  190.2940  174.8390  146.1200 C   0  0  1  0  0  3  0  0  0  0  0  0
  193.3600  175.1190  145.1390 C   0  0  2  0  0  3  0  0  0  0  0  0
  190.5670  174.4240  144.6540 C   0  0  1  0  0  3  0  0  0  0  0  0
  191.4050  175.6890  146.7590 C   0  0  0  0  0  2  0  0  0  0  0  0
  188.9290  175.5040  146.3240 C   0  0  0  0  0  2  0  0  0  0  0  0
  189.0280  177.0210  146.3720 C   0  0  0  0  0  2  0  0  0  0  0  0
  188.7500  177.5920  144.9970 C   0  0  0  0  0  2  0  0  0  0  0  0
  187.2620  177.5020  144.6890 C   0  0  2  0  0  3  0  0  0  0  0  0
  185.6700  179.3090  144.2970 C   0  0  0  0  0  2  0  0  0  0  0  0
  187.0180  177.7310  143.2350 C   0  0  0  0  0  3  0  0  0  0  0  0
  186.5190  178.6460  145.3770 C   0  0  1  0  0  3  0  0  0  0  0  0
  186.1550  178.7120  143.0250 C   0  0  0  0  0  3  0  0  0  0  0  0
  185.7160  179.0450  147.6190 O   0  0  0  0  0  1  0  0  0  0  0  0
  184.3280  178.0230  146.1220 O   0  0  0  0  0  1  0  0  0  0  0  0
  185.6540  178.1600  146.5400 C   0  0  0  0  0  3  0  0  0  0  0  0
  189.3980  174.0140  144.0050 O   0  0  0  0  0  0  0  0  0  0  0  0
  189.7770  173.7940  142.6800 C   0  0  1  0  0  3  0  0  0  0  0  0
  188.9090  172.8480  142.1070 O   0  0  0  0  0  0  0  0  0  0  0  0
  188.6790  174.1950  141.7770 C   0  0  0  0  0  2  0  0  0  0  0  0
  196.0780  177.3180  144.2670 C   0  0  0  0  0  1  0  0  0  0  0  0
  195.0050  176.9730  145.1030 O   0  0  0  0  0  0  0  0  0  0  0  0
  195.6350  174.9060  146.0160 O   0  0  0  0  0  0  0  0  0  0  0  0
  196.1230  172.6810  146.1660 O   0  0  0  0  0  1  0  0  0  0  0  0
  196.1460  173.8010  145.3330 C   0  0  2  0  0  3  0  0  0  0  0  0
  197.5700  174.0860  144.8940 C   0  0  0  0  0  2  0  0  0  0  0  0
  197.9400  173.1980  143.7140 C   0  0  0  0  0  2  0  0  0  0  0  0
  195.6530  173.8680  140.8030 C   0  0  1  0  0  3  0  0  0  0  0  0
  197.2240  173.6420  142.4730 C   0  0  0  0  0  0  0  0  0  0  0  0
  195.3280  171.9580  142.5210 C   0  0  2  0  0  3  0  0  0  0  0  0
  194.1000  171.8620  141.8180 O   0  0  0  0  0  0  0  0  0  0  0  0
  194.1520  174.1600  141.0000 C   0  0  0  0  0  2  0  0  0  0  0  0
  197.5300  174.9000  141.7490 C   0  0  0  0  0  3  0  0  0  0  0  0
  196.4330  175.1070  140.7950 N   0  0  0  0  0  0  0  0  0  0  0  0
  196.1730  173.0590  141.9290 C   0  0  0  0  0  0  0  0  0  0  0  0
  193.4580  173.1190  141.9090 C   0  0  0  0  0  2  0  0  0  0  0  0
  195.5840  169.7910  141.4750 O   0  0  0  0  0  1  0  0  0  0  0  0
  196.0820  170.6260  142.4790 C   0  0  2  0  0  3  0  0  0  0  0  0
  194.9350  169.1230  144.3550 C   0  0  1  0  0  3  0  0  0  0  0  0
  194.8040  168.7380  146.7610 O   0  0  0  0  0  1  0  0  0  0  0  0
  197.1760  169.8480  144.5370 C   0  0  0  0  0  3  0  0  0  0  0  0
  196.0820  169.9220  143.7990 C   0  0  0  0  0  0  0  0  0  0  0  0
  195.5320  168.4400  145.6020 C   0  0  2  0  0  3  0  0  0  0  0  0
  196.8970  169.0260  145.6950 C   0  0  0  0  0  0  0  0  0  0  0  0
  197.8490  168.5440  146.4850 C   0  0  0  0  0  2  0  0  0  0  0  0
  193.8760  169.9730  144.6930 O   0  0  0  0  0  0  0  0  0  0  0  0
  192.8010  169.5290  143.9210 C   0  0  0  0  0  1  0  0  0  0  0  0
  1 25  1  1  0  0  0
  1 26  1  0  0  0  0
  2  3  2  0  0  0  0
  2  7  1  0  0  0  0
  3  6  1  0  0  0  0
  4  8  1  0  0  0  0
  5  9  1  6  0  0  0
  5  8  1  0  0  0  0
  6  1  1  1  0  0  0
  6  4  1  0  0  0  0
  7 20  1  6  0  0  0
  7  5  1  0  0  0  0
  9 10  1  0  0  0  0
 11 10  1  0  0  0  0
 12 11  1  6  0  0  0
 12 15  1  0  0  0  0
 13 15  1  0  0  0  0
 14 12  1  0  0  0  0
 15 19  1  1  0  0  0
 16 14  2  0  0  0  0
 16 13  1  0  0  0  0
 18 19  1  0  0  0  0
 19 17  1  0  0  0  0
 21 20  1  1  0  0  0
 22 21  1  0  0  0  0
 23 22  1  0  0  0  0
 23 21  1  0  0  0  0
 24 25  1  0  0  0  0
 28 26  1  0  0  0  0
 28 27  1  1  0  0  0
 29 28  1  0  0  0  0
 30 29  1  0  0  0  0
 31 35  1  1  0  0  0
 31 38  1  0  0  0  0
 32 30  1  0  0  0  0
 33 41  1  6  0  0  0
 34 39  1  0  0  0  0
 34 33  1  0  0  0  0
 35 39  1  0  0  0  0
 36 32  1  0  0  0  0
 37 31  1  0  0  0  0
 37 36  2  0  0  0  0
 38 32  2  0  0  0  0
 38 33  1  0  0  0  0
 41 40  1  6  0  0  0
 41 45  1  0  0  0  0
 42 49  1  1  0  0  0
 42 46  1  0  0  0  0
 44 47  1  0  0  0  0
 45 42  1  0  0  0  0
 45 44  2  0  0  0  0
 46 47  1  0  0  0  0
 46 43  1  1  0  0  0
 47 48  2  0  0  0  0
 50 49  1  0  0  0  0
M  END
>  <MODEL>
9

>  <REMARK>
 VINA RESULT:      -6.0      2.041      4.327
  Name = 
  17 active torsions:
  status: ('A' for Active; 'I' for Inactive)
    1  A    between atoms: C_2  and  C_12
    2  A    between atoms: C_2  and  C_42
    3  A    between atoms: C_3  and  C_12
    4  A    between atoms: C_4  and  C_35
    5  A    between atoms: C_7  and  C_32
    6  A    between atoms: C_7  and  O_39
    7  A    between atoms: C_7  and  O_45
    8  A    between atoms: C_8  and  O_49
    9  A    between atoms: C_9  and  O_31
   10  A    between atoms: C_11  and  C_21
   11  A    between atoms: C_11  and  C_48
   12  A    between atoms: C_16  and  C_30
   13  A    between atoms: C_16  and  C_48
   14  A    between atoms: C_33  and  C_35
   15  A    between atoms: O_39  and  C_42
   16  A    between atoms: C_40  and  O_49
   17  A    between atoms: C_43  and  C_44
                            x       y       z     vdW  Elec       q    Type
                         _______ _______ _______ _____ _____    ______ ____

>  <TORSDO>
F 17

$$$$
