=
 OpenBabel11062420203D

 53 56  0  0  1  0  0  0  0  0999 V2000
  191.6300  173.1140  144.4660 C   0  0  0  0  0  2  0  0  0  0  0  0
  191.9140  172.1670  143.3080 C   0  0  1  0  0  3  0  0  0  0  0  0
  195.5310  170.7810  143.4600 C   0  0  2  0  0  3  0  0  0  0  0  0
  194.3360  171.6720  143.3240 C   0  0  0  0  0  3  0  0  0  0  0  0
  193.5200  169.0360  144.6840 C   0  0  0  0  0  3  0  0  0  0  0  0
  192.8160  169.8200  143.8630 C   0  0  0  0  0  3  0  0  0  0  0  0
  193.0870  171.2520  143.5840 C   0  0  0  0  0  0  0  0  0  0  0  0
  197.1660  170.2510  145.4580 C   0  0  1  0  0  3  0  0  0  0  0  0
  196.2500  171.3660  145.9560 C   0  0  2  0  0  3  0  0  0  0  0  0
  197.3430  169.2010  146.5520 C   0  0  0  0  0  1  0  0  0  0  0  0
  194.6340  169.4930  145.5860 C   0  0  0  0  0  2  0  0  0  0  0  0
  195.7320  170.3500  144.9330 C   0  0  1  0  0  0  0  0  0  0  0  0
  197.7160  170.4960  142.4890 O   0  0  0  0  0  1  0  0  0  0  0  0
  196.7410  171.2610  142.7070 C   0  0  0  0  0  0  0  0  0  0  0  0
  196.7820  172.5690  142.2420 O   0  0  0  0  0  0  0  0  0  0  0  0
  197.1230  173.6220  146.5100 C   0  0  0  0  0  1  0  0  0  0  0  0
  196.7080  172.6990  145.3840 C   0  0  0  0  0  2  0  0  0  0  0  0
  190.7590  171.4270  143.0220 O   0  0  0  0  0  0  0  0  0  0  0  0
  190.1950  172.0420  141.9030 C   0  0  0  0  0  2  0  0  0  0  0  0
  191.2690  172.2480  140.8550 C   0  0  0  0  0  2  0  0  0  0  0  0
  189.8210  173.5920  139.5720 O   0  0  0  0  0  0  0  0  0  0  0  0
  190.6720  172.7170  139.5720 C   0  0  0  0  0  0  0  0  0  0  0  0
  191.0770  172.0570  138.2910 C   0  0  0  0  0  2  0  0  0  0  0  0
  189.6320  170.2370  138.0790 C   0  0  0  0  0  1  0  0  0  0  0  0
  190.9970  170.6120  138.4250 N   0  0  0  0  0  0  0  0  0  0  0  0
  191.8600  170.0550  137.3920 C   0  0  0  0  0  2  0  0  0  0  0  0
  191.7390  168.5420  137.3900 C   0  0  0  0  0  1  0  0  0  0  0  0
  191.8530  174.5660  144.0540 C   0  0  0  0  0  2  0  0  0  0  0  0
  193.4670  174.4230  145.9700 C   0  0  0  0  0  1  0  0  0  0  0  0
  192.7610  175.3770  145.0040 C   0  0  1  0  0  0  0  0  0  0  0  0
  195.2060  175.8830  142.4870 C   0  0  2  0  0  3  0  0  0  0  0  0
  193.8530  175.8960  142.8650 O   0  0  0  0  0  0  0  0  0  0  0  0
  195.2020  176.1930  144.8080 C   0  0  0  0  0  2  0  0  0  0  0  0
  193.8060  176.2220  144.2350 C   0  0  2  0  0  3  0  0  0  0  0  0
  197.2380  175.7430  143.6950 O   0  0  0  0  0  1  0  0  0  0  0  0
  196.0400  176.4460  143.6060 C   0  0  1  0  0  3  0  0  0  0  0  0
  195.3860  176.6320  141.3240 O   0  0  0  0  0  0  0  0  0  0  0  0
  195.9800  175.7560  140.4250 C   0  0  0  0  0  1  0  0  0  0  0  0
  191.8440  176.3000  145.8460 C   0  0  2  0  0  3  0  0  0  0  0  0
  191.4620  175.7130  147.2030 C   0  0  0  0  0  2  0  0  0  0  0  0
  191.3740  176.8130  148.2370 C   0  0  0  0  0  1  0  0  0  0  0  0
  190.6440  176.7980  145.1020 C   0  0  0  0  0  0  0  0  0  0  0  0
  190.7840  177.7580  144.2960 O   0  0  0  0  0  0  0  0  0  0  0  0
  189.4100  176.1710  145.2510 O   0  0  0  0  0  0  0  0  0  0  0  0
  188.2210  176.7330  144.7040 C   0  0  0  0  0  2  0  0  0  0  0  0
  187.5130  177.0780  146.9420 C   0  0  0  0  0  2  0  0  0  0  0  0
  187.6030  177.7010  145.6200 N   0  0  0  0  0  0  0  0  0  0  0  0
  186.2270  178.0830  145.2590 C   0  0  2  0  0  3  0  0  0  0  0  0
  184.1180  177.9490  146.3670 O   0  0  0  0  0  1  0  0  0  0  0  0
  186.0430  176.9580  147.3330 C   0  0  0  0  0  2  0  0  0  0  0  0
  185.2750  177.2280  146.0670 C   0  0  2  0  0  3  0  0  0  0  0  0
  185.9000  179.3440  143.2420 O   0  0  0  0  0  1  0  0  0  0  0  0
  185.9030  178.0460  143.7600 C   0  0  0  0  0  2  0  0  0  0  0  0
  2  7  1  0  0  0  0
  2  1  1  1  0  0  0
  3 14  1  1  0  0  0
  3 12  1  0  0  0  0
  4  3  1  0  0  0  0
  4  7  2  0  0  0  0
  5 11  1  0  0  0  0
  6  5  2  0  0  0  0
  7  6  1  0  0  0  0
  8  9  1  0  0  0  0
  8 10  1  1  0  0  0
  9 17  1  6  0  0  0
 12  8  1  0  0  0  0
 12 11  1  1  0  0  0
 12  9  1  0  0  0  0
 13 14  1  0  0  0  0
 15 14  2  0  0  0  0
 17 16  1  0  0  0  0
 18  2  1  0  0  0  0
 19 18  1  0  0  0  0
 20 19  1  0  0  0  0
 21 22  2  0  0  0  0
 22 20  1  0  0  0  0
 23 25  1  0  0  0  0
 23 22  1  0  0  0  0
 24 25  1  0  0  0  0
 26 25  1  0  0  0  0
 27 26  1  0  0  0  0
 28  1  1  0  0  0  0
 28 30  1  0  0  0  0
 30 39  1  0  0  0  0
 30 29  1  1  0  0  0
 31 37  1  6  0  0  0
 31 32  1  0  0  0  0
 31 36  1  0  0  0  0
 32 34  1  0  0  0  0
 34 33  1  0  0  0  0
 34 30  1  1  0  0  0
 36 35  1  1  0  0  0
 36 33  1  0  0  0  0
 38 37  1  0  0  0  0
 39 40  1  1  0  0  0
 40 41  1  0  0  0  0
 42 44  1  0  0  0  0
 42 39  1  0  0  0  0
 43 42  2  0  0  0  0
 45 44  1  0  0  0  0
 45 47  1  0  0  0  0
 46 50  1  0  0  0  0
 47 46  1  0  0  0  0
 48 53  1  6  0  0  0
 48 47  1  0  0  0  0
 48 51  1  0  0  0  0
 51 49  1  1  0  0  0
 51 50  1  0  0  0  0
 52 53  1  0  0  0  0
M  END
>  <MODEL>
1

>  <REMARK>
 VINA RESULT:      -6.2      0.000      0.000
  Name = 
  22 active torsions:
  status: ('A' for Active; 'I' for Inactive)
    1  A    between atoms: C_3  and  C_18
    2  A    between atoms: C_3  and  C_25
    3  A    between atoms: C_4  and  C_18
    4  A    between atoms: C_4  and  N_51
    5  A    between atoms: C_5  and  C_16
    6  A    between atoms: C_5  and  C_24
    7  A    between atoms: C_6  and  C_13
    8  A    between atoms: N_7  and  C_21
    9  A    between atoms: C_9  and  O_35
   10  A    between atoms: C_9  and  C_48
   11  A    between atoms: C_10  and  O_29
   12  A    between atoms: C_16  and  C_31
   13  A    between atoms: C_16  and  O_45
   14  A    between atoms: C_17  and  C_39
   15  A    between atoms: C_20  and  N_51
   16  A    between atoms: C_21  and  O_35
   17  A    between atoms: C_22  and  C_48
   18  A    between atoms: C_24  and  C_34
   19  A    between atoms: C_25  and  O_45
   20  A    between atoms: C_28  and  C_34
   21  A    between atoms: C_33  and  C_41
   22  A    between atoms: C_34  and  C_48
                            x       y       z     vdW  Elec       q    Type
                         _______ _______ _______ _____ _____    ______ ____

>  <TORSDO>
F 22

$$$$
=
 OpenBabel11062420203D

 53 56  0  0  1  0  0  0  0  0999 V2000
  192.8720  176.1070  142.8090 C   0  0  0  0  0  2  0  0  0  0  0  0
  194.1660  175.3140  142.6850 C   0  0  1  0  0  3  0  0  0  0  0  0
  194.5700  172.5210  140.0290 C   0  0  2  0  0  3  0  0  0  0  0  0
  194.3300  173.2730  141.2990 C   0  0  0  0  0  3  0  0  0  0  0  0
  194.2350  175.2080  138.9100 C   0  0  0  0  0  3  0  0  0  0  0  0
  194.6530  175.4240  140.1590 C   0  0  0  0  0  3  0  0  0  0  0  0
  194.2900  174.6150  141.3490 C   0  0  0  0  0  0  0  0  0  0  0  0
  192.9670  171.5740  138.1630 C   0  0  1  0  0  3  0  0  0  0  0  0
  192.0530  172.1060  139.2640 C   0  0  2  0  0  3  0  0  0  0  0  0
  192.4230  171.9850  136.7980 C   0  0  0  0  0  1  0  0  0  0  0  0
  193.2080  174.1880  138.4960 C   0  0  0  0  0  2  0  0  0  0  0  0
  193.4190  172.7580  139.0210 C   0  0  1  0  0  0  0  0  0  0  0  0
  194.9000  170.5340  141.3490 O   0  0  0  0  0  1  0  0  0  0  0  0
  195.0300  171.1040  140.2350 C   0  0  0  0  0  0  0  0  0  0  0  0
  195.6050  170.4120  139.1770 O   0  0  0  0  0  0  0  0  0  0  0  0
  190.9860  170.0250  140.0930 C   0  0  0  0  0  1  0  0  0  0  0  0
  191.9970  171.1080  140.4100 C   0  0  0  0  0  2  0  0  0  0  0  0
  195.2540  176.1690  142.9060 O   0  0  0  0  0  0  0  0  0  0  0  0
  195.6480  175.9320  144.2250 C   0  0  0  0  0  2  0  0  0  0  0  0
  196.4600  174.6540  144.2780 C   0  0  0  0  0  2  0  0  0  0  0  0
  197.0120  173.7080  146.3630 O   0  0  0  0  0  0  0  0  0  0  0  0
  196.1510  173.8840  145.5170 C   0  0  0  0  0  0  0  0  0  0  0  0
  194.7960  173.2700  145.6780 C   0  0  0  0  0  2  0  0  0  0  0  0
  195.0800  170.9850  145.2960 C   0  0  0  0  0  1  0  0  0  0  0  0
  194.5990  172.2200  144.6910 N   0  0  0  0  0  0  0  0  0  0  0  0
  193.1600  172.0760  144.5260 C   0  0  0  0  0  2  0  0  0  0  0  0
  192.8310  170.6390  144.1660 C   0  0  0  0  0  1  0  0  0  0  0  0
  191.9780  175.5320  143.9030 C   0  0  0  0  0  2  0  0  0  0  0  0
  190.5770  177.5190  143.2890 C   0  0  0  0  0  1  0  0  0  0  0  0
  190.5700  176.1580  143.9870 C   0  0  1  0  0  0  0  0  0  0  0  0
  189.4490  173.5730  141.8360 C   0  0  2  0  0  3  0  0  0  0  0  0
  189.9710  173.9520  143.0830 O   0  0  0  0  0  0  0  0  0  0  0  0
  188.8090  175.8050  142.1330 C   0  0  0  0  0  2  0  0  0  0  0  0
  189.4860  175.2470  143.3610 C   0  0  2  0  0  3  0  0  0  0  0  0
  188.4910  174.7710  140.0310 O   0  0  0  0  0  1  0  0  0  0  0  0
  188.4080  174.5710  141.4070 C   0  0  1  0  0  3  0  0  0  0  0  0
  188.8920  172.2960  141.9180 O   0  0  0  0  0  0  0  0  0  0  0  0
  189.4280  171.7480  143.0750 C   0  0  0  0  0  1  0  0  0  0  0  0
  190.2600  176.4030  145.4850 C   0  0  2  0  0  3  0  0  0  0  0  0
  191.5000  176.4090  146.3760 C   0  0  0  0  0  2  0  0  0  0  0  0
  191.1300  176.8360  147.7780 C   0  0  0  0  0  1  0  0  0  0  0  0
  189.1910  175.5090  146.0340 C   0  0  0  0  0  0  0  0  0  0  0  0
  189.4780  174.3080  146.2920 O   0  0  0  0  0  0  0  0  0  0  0  0
  187.9230  176.0120  146.3130 O   0  0  0  0  0  0  0  0  0  0  0  0
  187.5260  177.3070  145.8760 C   0  0  0  0  0  2  0  0  0  0  0  0
  186.9890  178.2410  143.7620 C   0  0  0  0  0  2  0  0  0  0  0  0
  186.5840  177.2380  144.7510 N   0  0  0  0  0  0  0  0  0  0  0  0
  185.1920  177.5620  145.1060 C   0  0  2  0  0  3  0  0  0  0  0  0
  183.6250  179.2060  144.3720 O   0  0  0  0  0  1  0  0  0  0  0  0
  185.8710  179.2680  143.6120 C   0  0  0  0  0  2  0  0  0  0  0  0
  184.9490  179.0190  144.7760 C   0  0  2  0  0  3  0  0  0  0  0  0
  184.5780  178.3970  147.2720 O   0  0  0  0  0  1  0  0  0  0  0  0
  184.7810  177.2210  146.5440 C   0  0  0  0  0  2  0  0  0  0  0  0
  1 28  1  0  0  0  0
  2  1  1  6  0  0  0
  2 18  1  0  0  0  0
  3 14  1  1  0  0  0
  3  4  1  0  0  0  0
  4  7  2  0  0  0  0
  5  6  2  0  0  0  0
  6  7  1  0  0  0  0
  7  2  1  0  0  0  0
  8 10  1  6  0  0  0
  8 12  1  0  0  0  0
  8  9  1  0  0  0  0
  9 17  1  1  0  0  0
 11  5  1  0  0  0  0
 12 11  1  6  0  0  0
 12  9  1  0  0  0  0
 12  3  1  0  0  0  0
 14 13  1  0  0  0  0
 15 14  2  0  0  0  0
 16 17  1  0  0  0  0
 18 19  1  0  0  0  0
 19 20  1  0  0  0  0
 20 22  1  0  0  0  0
 22 23  1  0  0  0  0
 22 21  2  0  0  0  0
 25 24  1  0  0  0  0
 25 23  1  0  0  0  0
 26 25  1  0  0  0  0
 27 26  1  0  0  0  0
 28 30  1  0  0  0  0
 30 29  1  6  0  0  0
 30 39  1  0  0  0  0
 31 37  1  1  0  0  0
 31 32  1  0  0  0  0
 32 34  1  0  0  0  0
 33 34  1  0  0  0  0
 34 30  1  6  0  0  0
 36 35  1  6  0  0  0
 36 31  1  0  0  0  0
 36 33  1  0  0  0  0
 37 38  1  0  0  0  0
 39 42  1  0  0  0  0
 39 40  1  1  0  0  0
 40 41  1  0  0  0  0
 42 43  2  0  0  0  0
 42 44  1  0  0  0  0
 45 44  1  0  0  0  0
 46 47  1  0  0  0  0
 47 48  1  0  0  0  0
 47 45  1  0  0  0  0
 48 53  1  1  0  0  0
 50 46  1  0  0  0  0
 50 51  1  0  0  0  0
 51 49  1  6  0  0  0
 51 48  1  0  0  0  0
 53 52  1  0  0  0  0
M  END
>  <MODEL>
2

>  <REMARK>
 VINA RESULT:      -5.8      2.223      6.009
  Name = 
  22 active torsions:
  status: ('A' for Active; 'I' for Inactive)
    1  A    between atoms: C_3  and  C_18
    2  A    between atoms: C_3  and  C_25
    3  A    between atoms: C_4  and  C_18
    4  A    between atoms: C_4  and  N_51
    5  A    between atoms: C_5  and  C_16
    6  A    between atoms: C_5  and  C_24
    7  A    between atoms: C_6  and  C_13
    8  A    between atoms: N_7  and  C_21
    9  A    between atoms: C_9  and  O_35
   10  A    between atoms: C_9  and  C_48
   11  A    between atoms: C_10  and  O_29
   12  A    between atoms: C_16  and  C_31
   13  A    between atoms: C_16  and  O_45
   14  A    between atoms: C_17  and  C_39
   15  A    between atoms: C_20  and  N_51
   16  A    between atoms: C_21  and  O_35
   17  A    between atoms: C_22  and  C_48
   18  A    between atoms: C_24  and  C_34
   19  A    between atoms: C_25  and  O_45
   20  A    between atoms: C_28  and  C_34
   21  A    between atoms: C_33  and  C_41
   22  A    between atoms: C_34  and  C_48
                            x       y       z     vdW  Elec       q    Type
                         _______ _______ _______ _____ _____    ______ ____

>  <TORSDO>
F 22

$$$$
=
 OpenBabel11062420203D

 53 56  0  0  1  0  0  0  0  0999 V2000
  191.2520  173.1360  144.1950 C   0  0  0  0  0  2  0  0  0  0  0  0
  191.8870  172.5140  142.9580 C   0  0  1  0  0  3  0  0  0  0  0  0
  195.4090  170.9370  143.3240 C   0  0  2  0  0  3  0  0  0  0  0  0
  194.2740  171.8900  143.1170 C   0  0  0  0  0  3  0  0  0  0  0  0
  193.2400  169.3080  144.4300 C   0  0  0  0  0  3  0  0  0  0  0  0
  192.6280  170.1250  143.5690 C   0  0  0  0  0  3  0  0  0  0  0  0
  192.9910  171.5390  143.3040 C   0  0  0  0  0  0  0  0  0  0  0  0
  196.8940  170.3300  145.4150 C   0  0  1  0  0  3  0  0  0  0  0  0
  196.0120  171.4950  145.8560 C   0  0  2  0  0  3  0  0  0  0  0  0
  196.9510  169.2780  146.5180 C   0  0  0  0  0  1  0  0  0  0  0  0
  194.3220  169.7090  145.3960 C   0  0  0  0  0  2  0  0  0  0  0  0
  195.5010  170.5030  144.8060 C   0  0  1  0  0  0  0  0  0  0  0  0
  197.6290  170.5320  142.4840 O   0  0  0  0  0  1  0  0  0  0  0  0
  196.6850  171.3480  142.6420 C   0  0  0  0  0  0  0  0  0  0  0  0
  196.8220  172.6490  142.1740 O   0  0  0  0  0  0  0  0  0  0  0  0
  197.1150  173.6380  146.4480 C   0  0  0  0  0  1  0  0  0  0  0  0
  196.5740  172.7980  145.3090 C   0  0  0  0  0  2  0  0  0  0  0  0
  190.8920  171.8920  142.1920 O   0  0  0  0  0  0  0  0  0  0  0  0
  191.1760  172.2360  140.8690 C   0  0  0  0  0  2  0  0  0  0  0  0
  190.4040  171.3220  139.9400 C   0  0  0  0  0  2  0  0  0  0  0  0
  188.3440  172.4070  139.5840 O   0  0  0  0  0  0  0  0  0  0  0  0
  189.4300  172.1000  139.1220 C   0  0  0  0  0  0  0  0  0  0  0  0
  189.7720  172.4400  137.7050 C   0  0  0  0  0  2  0  0  0  0  0  0
  191.3920  174.0490  137.2240 C   0  0  0  0  0  1  0  0  0  0  0  0
  189.9890  173.8710  137.5710 N   0  0  0  0  0  0  0  0  0  0  0  0
  189.2110  174.2980  136.4150 C   0  0  0  0  0  2  0  0  0  0  0  0
  189.8140  173.7090  135.1520 C   0  0  0  0  0  1  0  0  0  0  0  0
  191.2910  174.6590  144.1230 C   0  0  0  0  0  2  0  0  0  0  0  0
  193.0620  174.2480  145.8520 C   0  0  0  0  0  1  0  0  0  0  0  0
  192.3260  175.3270  145.0550 C   0  0  1  0  0  0  0  0  0  0  0  0
  194.7330  175.8870  142.5130 C   0  0  2  0  0  3  0  0  0  0  0  0
  193.3840  175.8680  142.9040 O   0  0  0  0  0  0  0  0  0  0  0  0
  194.7440  176.2010  144.8340 C   0  0  0  0  0  2  0  0  0  0  0  0
  193.3420  176.1950  144.2740 C   0  0  2  0  0  3  0  0  0  0  0  0
  196.7800  175.7980  143.7020 O   0  0  0  0  0  1  0  0  0  0  0  0
  195.5640  176.4720  143.6230 C   0  0  1  0  0  3  0  0  0  0  0  0
  194.8830  176.6370  141.3470 O   0  0  0  0  0  0  0  0  0  0  0  0
  195.3880  175.7440  140.4110 C   0  0  0  0  0  1  0  0  0  0  0  0
  191.5430  176.2020  146.0660 C   0  0  2  0  0  3  0  0  0  0  0  0
  191.7490  175.7920  147.5230 C   0  0  0  0  0  2  0  0  0  0  0  0
  191.4660  176.9620  148.4360 C   0  0  0  0  0  1  0  0  0  0  0  0
  190.0890  176.3510  145.7350 C   0  0  0  0  0  0  0  0  0  0  0  0
  189.2650  175.5460  146.2470 O   0  0  0  0  0  0  0  0  0  0  0  0
  189.6520  177.3980  144.9300 O   0  0  0  0  0  0  0  0  0  0  0  0
  188.2700  177.5820  144.6360 C   0  0  0  0  0  2  0  0  0  0  0  0
  188.6850  177.2450  142.3250 C   0  0  0  0  0  2  0  0  0  0  0  0
  187.8560  176.8160  143.4540 N   0  0  0  0  0  0  0  0  0  0  0  0
  186.4610  177.0480  143.0400 C   0  0  2  0  0  3  0  0  0  0  0  0
  185.4270  177.8380  141.0400 O   0  0  0  0  0  1  0  0  0  0  0  0
  187.7880  177.8700  141.2610 C   0  0  0  0  0  2  0  0  0  0  0  0
  186.4640  178.0890  141.9420 C   0  0  2  0  0  3  0  0  0  0  0  0
  184.4280  178.1600  143.6640 O   0  0  0  0  0  1  0  0  0  0  0  0
  185.4890  177.4050  144.1710 C   0  0  0  0  0  2  0  0  0  0  0  0
  2  7  1  0  0  0  0
  2  1  1  1  0  0  0
  3 14  1  1  0  0  0
  3 12  1  0  0  0  0
  4  7  2  0  0  0  0
  4  3  1  0  0  0  0
  5 11  1  0  0  0  0
  6  5  2  0  0  0  0
  7  6  1  0  0  0  0
  8  9  1  0  0  0  0
  8 10  1  1  0  0  0
  9 17  1  6  0  0  0
 12 11  1  1  0  0  0
 12  8  1  0  0  0  0
 12  9  1  0  0  0  0
 13 14  1  0  0  0  0
 15 14  2  0  0  0  0
 17 16  1  0  0  0  0
 18  2  1  0  0  0  0
 19 18  1  0  0  0  0
 20 19  1  0  0  0  0
 22 21  2  0  0  0  0
 22 20  1  0  0  0  0
 23 22  1  0  0  0  0
 24 25  1  0  0  0  0
 25 23  1  0  0  0  0
 26 25  1  0  0  0  0
 27 26  1  0  0  0  0
 28  1  1  0  0  0  0
 28 30  1  0  0  0  0
 30 29  1  1  0  0  0
 30 39  1  0  0  0  0
 31 37  1  6  0  0  0
 31 32  1  0  0  0  0
 31 36  1  0  0  0  0
 32 34  1  0  0  0  0
 34 33  1  0  0  0  0
 34 30  1  1  0  0  0
 36 35  1  1  0  0  0
 36 33  1  0  0  0  0
 38 37  1  0  0  0  0
 39 40  1  1  0  0  0
 40 41  1  0  0  0  0
 42 39  1  0  0  0  0
 42 43  2  0  0  0  0
 44 42  1  0  0  0  0
 45 44  1  0  0  0  0
 46 47  1  0  0  0  0
 47 45  1  0  0  0  0
 48 47  1  0  0  0  0
 48 53  1  1  0  0  0
 50 51  1  0  0  0  0
 50 46  1  0  0  0  0
 51 49  1  6  0  0  0
 51 48  1  0  0  0  0
 52 53  1  0  0  0  0
M  END
>  <MODEL>
3

>  <REMARK>
 VINA RESULT:      -5.8      1.400      2.187
  Name = 
  22 active torsions:
  status: ('A' for Active; 'I' for Inactive)
    1  A    between atoms: C_3  and  C_18
    2  A    between atoms: C_3  and  C_25
    3  A    between atoms: C_4  and  C_18
    4  A    between atoms: C_4  and  N_51
    5  A    between atoms: C_5  and  C_16
    6  A    between atoms: C_5  and  C_24
    7  A    between atoms: C_6  and  C_13
    8  A    between atoms: N_7  and  C_21
    9  A    between atoms: C_9  and  O_35
   10  A    between atoms: C_9  and  C_48
   11  A    between atoms: C_10  and  O_29
   12  A    between atoms: C_16  and  C_31
   13  A    between atoms: C_16  and  O_45
   14  A    between atoms: C_17  and  C_39
   15  A    between atoms: C_20  and  N_51
   16  A    between atoms: C_21  and  O_35
   17  A    between atoms: C_22  and  C_48
   18  A    between atoms: C_24  and  C_34
   19  A    between atoms: C_25  and  O_45
   20  A    between atoms: C_28  and  C_34
   21  A    between atoms: C_33  and  C_41
   22  A    between atoms: C_34  and  C_48
                            x       y       z     vdW  Elec       q    Type
                         _______ _______ _______ _____ _____    ______ ____

>  <TORSDO>
F 22

$$$$
=
 OpenBabel11062420203D

 53 56  0  0  1  0  0  0  0  0999 V2000
  190.5100  175.7530  142.5220 C   0  0  0  0  0  2  0  0  0  0  0  0
  190.2820  174.5800  141.5790 C   0  0  1  0  0  3  0  0  0  0  0  0
  193.6390  173.4220  140.0260 C   0  0  2  0  0  3  0  0  0  0  0  0
  192.4300  174.2150  140.4110 C   0  0  0  0  0  3  0  0  0  0  0  0
  192.7590  171.8250  142.3190 C   0  0  0  0  0  3  0  0  0  0  0  0
  191.6430  172.4150  141.8850 C   0  0  0  0  0  3  0  0  0  0  0  0
  191.5460  173.7870  141.3270 C   0  0  0  0  0  0  0  0  0  0  0  0
  196.1070  173.3350  140.9480 C   0  0  1  0  0  3  0  0  0  0  0  0
  195.4230  174.4750  141.6990 C   0  0  2  0  0  3  0  0  0  0  0  0
  196.9430  172.5060  141.9180 C   0  0  0  0  0  1  0  0  0  0  0  0
  194.1030  172.4890  142.4540 C   0  0  0  0  0  2  0  0  0  0  0  0
  194.6030  173.2690  141.2260 C   0  0  1  0  0  0  0  0  0  0  0  0
  194.0470  174.9680  138.2250 O   0  0  0  0  0  1  0  0  0  0  0  0
  194.2360  173.8200  138.7040 C   0  0  0  0  0  0  0  0  0  0  0  0
  195.0110  172.9070  138.0010 O   0  0  0  0  0  0  0  0  0  0  0  0
  196.2560  176.7880  141.3620 C   0  0  0  0  0  1  0  0  0  0  0  0
  195.3530  175.7060  140.8090 C   0  0  0  0  0  2  0  0  0  0  0  0
  189.2720  173.7590  142.0990 O   0  0  0  0  0  0  0  0  0  0  0  0
  188.2240  173.8370  141.1790 C   0  0  0  0  0  2  0  0  0  0  0  0
  188.2780  172.6340  140.2600 C   0  0  0  0  0  2  0  0  0  0  0  0
  188.1250  173.8950  138.2770 O   0  0  0  0  0  0  0  0  0  0  0  0
  188.7260  173.0310  138.8950 C   0  0  0  0  0  0  0  0  0  0  0  0
  189.8760  172.3120  138.2640 C   0  0  0  0  0  2  0  0  0  0  0  0
  189.7480  171.1230  136.2600 C   0  0  0  0  0  1  0  0  0  0  0  0
  189.4240  171.0590  137.6790 N   0  0  0  0  0  0  0  0  0  0  0  0
  190.2570  170.0130  138.2550 C   0  0  0  0  0  2  0  0  0  0  0  0
  191.5740  170.6090  138.7180 C   0  0  0  0  0  1  0  0  0  0  0  0
  189.9460  175.4590  143.9090 C   0  0  0  0  0  2  0  0  0  0  0  0
  190.8460  173.8550  145.6150 C   0  0  0  0  0  1  0  0  0  0  0  0
  191.0080  175.2500  145.0100 C   0  0  1  0  0  0  0  0  0  0  0  0
  194.5390  175.2400  145.3280 C   0  0  2  0  0  3  0  0  0  0  0  0
  193.3570  174.5290  145.0650 O   0  0  0  0  0  0  0  0  0  0  0  0
  192.9990  176.8350  144.5730 C   0  0  0  0  0  2  0  0  0  0  0  0
  192.4500  175.4320  144.4750 C   0  0  2  0  0  3  0  0  0  0  0  0
  195.0570  177.5460  145.4940 O   0  0  0  0  0  1  0  0  0  0  0  0
  194.4630  176.5920  144.6710 C   0  0  1  0  0  3  0  0  0  0  0  0
  195.6410  174.5300  144.8500 O   0  0  0  0  0  0  0  0  0  0  0  0
  196.3180  174.1150  145.9890 C   0  0  0  0  0  1  0  0  0  0  0  0
  190.7220  176.2810  146.1310 C   0  0  2  0  0  3  0  0  0  0  0  0
  190.7630  175.6860  147.5380 C   0  0  0  0  0  2  0  0  0  0  0  0
  191.5540  176.5870  148.4590 C   0  0  0  0  0  1  0  0  0  0  0  0
  189.4780  177.0850  145.9090 C   0  0  0  0  0  0  0  0  0  0  0  0
  189.5110  178.0370  145.0830 O   0  0  0  0  0  0  0  0  0  0  0  0
  188.2920  176.7450  146.5540 O   0  0  0  0  0  0  0  0  0  0  0  0
  187.0390  176.7990  145.8800 C   0  0  0  0  0  2  0  0  0  0  0  0
  185.4040  178.2390  146.8200 C   0  0  0  0  0  2  0  0  0  0  0  0
  186.4960  178.1640  145.8460 N   0  0  0  0  0  0  0  0  0  0  0  0
  185.9080  178.5490  144.5520 C   0  0  2  0  0  3  0  0  0  0  0  0
  183.7430  179.2740  143.8560 O   0  0  0  0  0  1  0  0  0  0  0  0
  184.1040  178.5470  146.0840 C   0  0  0  0  0  2  0  0  0  0  0  0
  184.4140  178.3220  144.6280 C   0  0  2  0  0  3  0  0  0  0  0  0
  186.6900  178.8210  142.2980 O   0  0  0  0  0  1  0  0  0  0  0  0
  186.5300  177.8800  143.3200 C   0  0  0  0  0  2  0  0  0  0  0  0
  1 28  1  0  0  0  0
  2 18  1  0  0  0  0
  2  1  1  1  0  0  0
  3 14  1  6  0  0  0
  3  4  1  0  0  0  0
  3 12  1  0  0  0  0
  4  7  2  0  0  0  0
  5 11  1  0  0  0  0
  6  5  2  0  0  0  0
  7  2  1  0  0  0  0
  7  6  1  0  0  0  0
  8 12  1  0  0  0  0
  8  9  1  0  0  0  0
  8 10  1  1  0  0  0
  9 17  1  6  0  0  0
 12  9  1  0  0  0  0
 12 11  1  1  0  0  0
 13 14  1  0  0  0  0
 15 14  2  0  0  0  0
 17 16  1  0  0  0  0
 19 18  1  0  0  0  0
 20 19  1  0  0  0  0
 21 22  2  0  0  0  0
 22 20  1  0  0  0  0
 23 22  1  0  0  0  0
 24 25  1  0  0  0  0
 25 26  1  0  0  0  0
 25 23  1  0  0  0  0
 26 27  1  0  0  0  0
 28 30  1  0  0  0  0
 30 29  1  1  0  0  0
 30 39  1  0  0  0  0
 31 37  1  6  0  0  0
 32 31  1  0  0  0  0
 33 36  1  0  0  0  0
 34 33  1  0  0  0  0
 34 30  1  1  0  0  0
 34 32  1  0  0  0  0
 36 31  1  0  0  0  0
 36 35  1  1  0  0  0
 37 38  1  0  0  0  0
 39 40  1  1  0  0  0
 40 41  1  0  0  0  0
 42 39  1  0  0  0  0
 42 44  1  0  0  0  0
 43 42  2  0  0  0  0
 45 44  1  0  0  0  0
 47 45  1  0  0  0  0
 47 46  1  0  0  0  0
 48 53  1  6  0  0  0
 48 51  1  0  0  0  0
 48 47  1  0  0  0  0
 50 46  1  0  0  0  0
 51 49  1  6  0  0  0
 51 50  1  0  0  0  0
 52 53  1  0  0  0  0
M  END
>  <MODEL>
4

>  <REMARK>
 VINA RESULT:      -5.7      2.215      3.392
  Name = 
  22 active torsions:
  status: ('A' for Active; 'I' for Inactive)
    1  A    between atoms: C_3  and  C_18
    2  A    between atoms: C_3  and  C_25
    3  A    between atoms: C_4  and  C_18
    4  A    between atoms: C_4  and  N_51
    5  A    between atoms: C_5  and  C_16
    6  A    between atoms: C_5  and  C_24
    7  A    between atoms: C_6  and  C_13
    8  A    between atoms: N_7  and  C_21
    9  A    between atoms: C_9  and  O_35
   10  A    between atoms: C_9  and  C_48
   11  A    between atoms: C_10  and  O_29
   12  A    between atoms: C_16  and  C_31
   13  A    between atoms: C_16  and  O_45
   14  A    between atoms: C_17  and  C_39
   15  A    between atoms: C_20  and  N_51
   16  A    between atoms: C_21  and  O_35
   17  A    between atoms: C_22  and  C_48
   18  A    between atoms: C_24  and  C_34
   19  A    between atoms: C_25  and  O_45
   20  A    between atoms: C_28  and  C_34
   21  A    between atoms: C_33  and  C_41
   22  A    between atoms: C_34  and  C_48
                            x       y       z     vdW  Elec       q    Type
                         _______ _______ _______ _____ _____    ______ ____

>  <TORSDO>
F 22

$$$$
=
 OpenBabel11062420203D

 53 56  0  0  1  0  0  0  0  0999 V2000
  190.1860  172.9240  144.9390 C   0  0  0  0  0  2  0  0  0  0  0  0
  190.7860  172.7770  143.5470 C   0  0  1  0  0  3  0  0  0  0  0  0
  194.5760  172.1320  143.0570 C   0  0  2  0  0  3  0  0  0  0  0  0
  193.2300  172.7740  143.1740 C   0  0  0  0  0  3  0  0  0  0  0  0
  193.1450  169.9500  144.3890 C   0  0  0  0  0  3  0  0  0  0  0  0
  192.1870  170.6270  143.7520 C   0  0  0  0  0  3  0  0  0  0  0  0
  192.1380  172.0990  143.5690 C   0  0  0  0  0  0  0  0  0  0  0  0
  196.5750  171.8150  144.7450 C   0  0  1  0  0  3  0  0  0  0  0  0
  195.5570  172.6930  145.4680 C   0  0  2  0  0  3  0  0  0  0  0  0
  197.1150  170.7570  145.7020 C   0  0  0  0  0  1  0  0  0  0  0  0
  194.2820  170.5630  145.1620 C   0  0  0  0  0  2  0  0  0  0  0  0
  195.0830  171.6590  144.4400 C   0  0  1  0  0  0  0  0  0  0  0  0
  196.5890  172.3440  141.7520 O   0  0  0  0  0  0  0  0  0  0  0  0
  195.5410  172.8890  142.1860 C   0  0  0  0  0  0  0  0  0  0  0  0
  195.2700  174.2090  141.8530 O   0  0  0  0  0  1  0  0  0  0  0  0
  195.3650  175.0880  146.0890 C   0  0  0  0  0  1  0  0  0  0  0  0
  195.6610  174.1230  144.9600 C   0  0  0  0  0  2  0  0  0  0  0  0
  189.8880  172.0780  142.7290 O   0  0  0  0  0  0  0  0  0  0  0  0
  189.3360  173.0410  141.8810 C   0  0  0  0  0  2  0  0  0  0  0  0
  189.6700  172.6890  140.4460 C   0  0  0  0  0  2  0  0  0  0  0  0
  188.3800  174.5810  139.8970 O   0  0  0  0  0  0  0  0  0  0  0  0
  189.1870  173.7490  139.5160 C   0  0  0  0  0  0  0  0  0  0  0  0
  189.6480  173.7400  138.0930 C   0  0  0  0  0  2  0  0  0  0  0  0
  190.2780  171.8500  136.8780 C   0  0  0  0  0  1  0  0  0  0  0  0
  190.7170  172.7710  137.9180 N   0  0  0  0  0  0  0  0  0  0  0  0
  191.8540  173.5040  137.3780 C   0  0  0  0  0  2  0  0  0  0  0  0
  192.6970  174.0460  138.5180 C   0  0  0  0  0  1  0  0  0  0  0  0
  189.6970  174.3490  145.1790 C   0  0  0  0  0  2  0  0  0  0  0  0
  191.9420  174.4720  146.2920 C   0  0  0  0  0  1  0  0  0  0  0  0
  190.7350  175.2900  145.8290 C   0  0  1  0  0  0  0  0  0  0  0  0
  190.7850  176.9730  142.7100 C   0  0  2  0  0  3  0  0  0  0  0  0
  190.1770  176.7880  143.9630 O   0  0  0  0  0  0  0  0  0  0  0  0
  192.4640  176.1250  144.1040 C   0  0  0  0  0  2  0  0  0  0  0  0
  191.1920  176.4120  144.8660 C   0  0  2  0  0  3  0  0  0  0  0  0
  192.8520  176.2890  141.7780 O   0  0  0  0  0  1  0  0  0  0  0  0
  192.2810  176.9350  142.8710 C   0  0  1  0  0  3  0  0  0  0  0  0
  190.3870  178.1920  142.1600 O   0  0  0  0  0  0  0  0  0  0  0  0
  189.0020  178.1200  142.1000 C   0  0  0  0  0  1  0  0  0  0  0  0
  190.0770  175.9050  147.0900 C   0  0  2  0  0  3  0  0  0  0  0  0
  190.9780  175.8890  148.3230 C   0  0  0  0  0  2  0  0  0  0  0  0
  191.4570  177.2890  148.6330 C   0  0  0  0  0  1  0  0  0  0  0  0
  188.7180  175.3510  147.3920 C   0  0  0  0  0  0  0  0  0  0  0  0
  188.6310  174.2030  147.9070 O   0  0  0  0  0  0  0  0  0  0  0  0
  187.5770  176.1160  147.1680 O   0  0  0  0  0  0  0  0  0  0  0  0
  187.4030  176.8540  145.9620 C   0  0  0  0  0  2  0  0  0  0  0  0
  186.2080  176.3560  143.9740 C   0  0  0  0  0  2  0  0  0  0  0  0
  186.0600  176.6690  145.3980 N   0  0  0  0  0  0  0  0  0  0  0  0
  185.2060  177.8680  145.4610 C   0  0  2  0  0  3  0  0  0  0  0  0
  184.0790  179.1960  143.8300 O   0  0  0  0  0  1  0  0  0  0  0  0
  185.5440  177.4580  143.1540 C   0  0  0  0  0  2  0  0  0  0  0  0
  185.2960  178.5790  144.1280 C   0  0  2  0  0  3  0  0  0  0  0  0
  184.6140  178.5200  147.6940 O   0  0  0  0  0  1  0  0  0  0  0  0
  185.4810  178.8120  146.6370 C   0  0  0  0  0  2  0  0  0  0  0  0
  1 28  1  0  0  0  0
  2  7  1  0  0  0  0
  2  1  1  1  0  0  0
  3 14  1  1  0  0  0
  3  4  1  0  0  0  0
  3 12  1  0  0  0  0
  4  7  2  0  0  0  0
  5 11  1  0  0  0  0
  6  5  2  0  0  0  0
  7  6  1  0  0  0  0
  8  9  1  0  0  0  0
  8 10  1  1  0  0  0
  9 17  1  6  0  0  0
 12  8  1  0  0  0  0
 12 11  1  1  0  0  0
 12  9  1  0  0  0  0
 13 14  2  0  0  0  0
 15 14  1  0  0  0  0
 17 16  1  0  0  0  0
 18  2  1  0  0  0  0
 19 18  1  0  0  0  0
 20 19  1  0  0  0  0
 22 21  2  0  0  0  0
 22 20  1  0  0  0  0
 23 22  1  0  0  0  0
 24 25  1  0  0  0  0
 25 23  1  0  0  0  0
 26 25  1  0  0  0  0
 26 27  1  0  0  0  0
 28 30  1  0  0  0  0
 30 29  1  1  0  0  0
 30 39  1  0  0  0  0
 31 37  1  1  0  0  0
 31 36  1  0  0  0  0
 31 32  1  0  0  0  0
 32 34  1  0  0  0  0
 33 34  1  0  0  0  0
 34 30  1  6  0  0  0
 36 35  1  6  0  0  0
 36 33  1  0  0  0  0
 38 37  1  0  0  0  0
 39 42  1  0  0  0  0
 39 40  1  1  0  0  0
 40 41  1  0  0  0  0
 42 43  2  0  0  0  0
 44 42  1  0  0  0  0
 45 44  1  0  0  0  0
 46 47  1  0  0  0  0
 47 48  1  0  0  0  0
 47 45  1  0  0  0  0
 48 53  1  1  0  0  0
 50 46  1  0  0  0  0
 50 51  1  0  0  0  0
 51 49  1  6  0  0  0
 51 48  1  0  0  0  0
 53 52  1  0  0  0  0
M  END
>  <MODEL>
5

>  <REMARK>
 VINA RESULT:      -5.7      1.725      2.896
  Name = 
  22 active torsions:
  status: ('A' for Active; 'I' for Inactive)
    1  A    between atoms: C_3  and  C_18
    2  A    between atoms: C_3  and  C_25
    3  A    between atoms: C_4  and  C_18
    4  A    between atoms: C_4  and  N_51
    5  A    between atoms: C_5  and  C_16
    6  A    between atoms: C_5  and  C_24
    7  A    between atoms: C_6  and  C_13
    8  A    between atoms: N_7  and  C_21
    9  A    between atoms: C_9  and  O_35
   10  A    between atoms: C_9  and  C_48
   11  A    between atoms: C_10  and  O_29
   12  A    between atoms: C_16  and  C_31
   13  A    between atoms: C_16  and  O_45
   14  A    between atoms: C_17  and  C_39
   15  A    between atoms: C_20  and  N_51
   16  A    between atoms: C_21  and  O_35
   17  A    between atoms: C_22  and  C_48
   18  A    between atoms: C_24  and  C_34
   19  A    between atoms: C_25  and  O_45
   20  A    between atoms: C_28  and  C_34
   21  A    between atoms: C_33  and  C_41
   22  A    between atoms: C_34  and  C_48
                            x       y       z     vdW  Elec       q    Type
                         _______ _______ _______ _____ _____    ______ ____

>  <TORSDO>
F 22

$$$$
=
 OpenBabel11062420203D

 53 56  0  0  1  0  0  0  0  0999 V2000
  193.2180  175.6360  142.3070 C   0  0  0  0  0  2  0  0  0  0  0  0
  194.6620  175.1570  142.2540 C   0  0  1  0  0  3  0  0  0  0  0  0
  194.1930  173.2920  138.8890 C   0  0  2  0  0  3  0  0  0  0  0  0
  193.9910  174.1470  140.0990 C   0  0  0  0  0  3  0  0  0  0  0  0
  196.9770  173.4770  139.7850 C   0  0  0  0  0  3  0  0  0  0  0  0
  196.2620  173.6630  140.8980 C   0  0  0  0  0  3  0  0  0  0  0  0
  194.9680  174.3840  140.9900 C   0  0  0  0  0  0  0  0  0  0  0  0
  194.9810  173.8070  136.4270 C   0  0  1  0  0  3  0  0  0  0  0  0
  194.8510  175.1640  137.1140 C   0  0  2  0  0  3  0  0  0  0  0  0
  196.2610  173.7690  135.5980 C   0  0  0  0  0  1  0  0  0  0  0  0
  196.6740  174.0830  138.4410 C   0  0  0  0  0  2  0  0  0  0  0  0
  195.2310  173.9250  137.9320 C   0  0  1  0  0  0  0  0  0  0  0  0
  192.9310  171.8870  137.3950 O   0  0  0  0  0  0  0  0  0  0  0  0
  192.9160  172.7770  138.2840 C   0  0  0  0  0  0  0  0  0  0  0  0
  191.7000  173.2900  138.7150 O   0  0  0  0  0  1  0  0  0  0  0  0
  193.0430  176.4330  135.9820 C   0  0  0  0  0  1  0  0  0  0  0  0
  193.3860  175.5680  137.1770 C   0  0  0  0  0  2  0  0  0  0  0  0
  195.5190  176.2580  142.3880 O   0  0  0  0  0  0  0  0  0  0  0  0
  195.7310  176.3940  143.7610 C   0  0  0  0  0  2  0  0  0  0  0  0
  196.4360  175.1580  144.2810 C   0  0  0  0  0  2  0  0  0  0  0  0
  195.1490  175.2930  146.2480 O   0  0  0  0  0  0  0  0  0  0  0  0
  195.6930  174.5690  145.4300 C   0  0  0  0  0  0  0  0  0  0  0  0
  195.6780  173.0830  145.6080 C   0  0  0  0  0  2  0  0  0  0  0  0
  196.2730  171.3090  144.2140 C   0  0  0  0  0  1  0  0  0  0  0  0
  195.3520  172.4300  144.3510 N   0  0  0  0  0  0  0  0  0  0  0  0
  194.0210  171.8640  144.5160 C   0  0  0  0  0  2  0  0  0  0  0  0
  193.9030  170.5940  143.6910 C   0  0  0  0  0  1  0  0  0  0  0  0
  192.4900  175.0500  143.5130 C   0  0  0  0  0  2  0  0  0  0  0  0
  190.7710  176.7260  142.7840 C   0  0  0  0  0  1  0  0  0  0  0  0
  191.0210  175.5020  143.6660 C   0  0  1  0  0  0  0  0  0  0  0  0
  190.0430  172.5470  141.9700 C   0  0  2  0  0  3  0  0  0  0  0  0
  190.6660  173.1420  143.0790 O   0  0  0  0  0  0  0  0  0  0  0  0
  189.0980  174.6820  142.1520 C   0  0  0  0  0  2  0  0  0  0  0  0
  190.0220  174.3750  143.3060 C   0  0  2  0  0  3  0  0  0  0  0  0
  188.6610  173.3730  140.2330 O   0  0  0  0  0  1  0  0  0  0  0  0
  188.8040  173.3260  141.6170 C   0  0  1  0  0  3  0  0  0  0  0  0
  189.7170  171.2210  142.2580 O   0  0  0  0  0  0  0  0  0  0  0  0
  190.7340  170.4710  141.6830 C   0  0  0  0  0  1  0  0  0  0  0  0
  190.8220  175.9400  145.1390 C   0  0  2  0  0  3  0  0  0  0  0  0
  190.9910  174.8030  146.1460 C   0  0  0  0  0  2  0  0  0  0  0  0
  191.7470  175.2940  147.3600 C   0  0  0  0  0  1  0  0  0  0  0  0
  189.5550  176.7030  145.3760 C   0  0  0  0  0  0  0  0  0  0  0  0
  189.6280  177.9360  145.6280 O   0  0  0  0  0  0  0  0  0  0  0  0
  188.3190  176.0740  145.2560 O   0  0  0  0  0  0  0  0  0  0  0  0
  187.2230  176.4270  146.0930 C   0  0  0  0  0  2  0  0  0  0  0  0
  186.3840  176.7090  143.8920 C   0  0  0  0  0  2  0  0  0  0  0  0
  186.0320  176.7860  145.3120 N   0  0  0  0  0  0  0  0  0  0  0  0
  185.5530  178.1620  145.5340 C   0  0  2  0  0  3  0  0  0  0  0  0
  185.2130  180.0550  144.1220 O   0  0  0  0  0  1  0  0  0  0  0  0
  186.2430  178.0960  143.2710 C   0  0  0  0  0  2  0  0  0  0  0  0
  186.1180  179.0380  144.4380 C   0  0  2  0  0  3  0  0  0  0  0  0
  184.6760  178.6370  147.7180 O   0  0  0  0  0  1  0  0  0  0  0  0
  185.8260  178.7370  146.9300 C   0  0  0  0  0  2  0  0  0  0  0  0
  1 28  1  0  0  0  0
  2  1  1  6  0  0  0
  2 18  1  0  0  0  0
  3 14  1  6  0  0  0
  3  4  1  0  0  0  0
  4  7  2  0  0  0  0
  5  6  2  0  0  0  0
  6  7  1  0  0  0  0
  7  2  1  0  0  0  0
  8 10  1  6  0  0  0
  8  9  1  0  0  0  0
  8 12  1  0  0  0  0
  9 17  1  1  0  0  0
  9 12  1  0  0  0  0
 11  5  1  0  0  0  0
 12 11  1  1  0  0  0
 12  3  1  0  0  0  0
 13 14  2  0  0  0  0
 14 15  1  0  0  0  0
 16 17  1  0  0  0  0
 18 19  1  0  0  0  0
 19 20  1  0  0  0  0
 20 22  1  0  0  0  0
 22 23  1  0  0  0  0
 22 21  2  0  0  0  0
 24 25  1  0  0  0  0
 25 26  1  0  0  0  0
 25 23  1  0  0  0  0
 27 26  1  0  0  0  0
 28 30  1  0  0  0  0
 30 29  1  6  0  0  0
 30 39  1  0  0  0  0
 31 37  1  1  0  0  0
 31 32  1  0  0  0  0
 32 34  1  0  0  0  0
 33 34  1  0  0  0  0
 34 30  1  6  0  0  0
 36 35  1  6  0  0  0
 36 31  1  0  0  0  0
 36 33  1  0  0  0  0
 38 37  1  0  0  0  0
 39 42  1  0  0  0  0
 39 40  1  1  0  0  0
 40 41  1  0  0  0  0
 42 43  2  0  0  0  0
 44 42  1  0  0  0  0
 44 45  1  0  0  0  0
 46 47  1  0  0  0  0
 47 48  1  0  0  0  0
 47 45  1  0  0  0  0
 48 53  1  1  0  0  0
 50 46  1  0  0  0  0
 50 51  1  0  0  0  0
 51 49  1  6  0  0  0
 51 48  1  0  0  0  0
 53 52  1  0  0  0  0
M  END
>  <MODEL>
6

>  <REMARK>
 VINA RESULT:      -5.4      2.483      6.358
  Name = 
  22 active torsions:
  status: ('A' for Active; 'I' for Inactive)
    1  A    between atoms: C_3  and  C_18
    2  A    between atoms: C_3  and  C_25
    3  A    between atoms: C_4  and  C_18
    4  A    between atoms: C_4  and  N_51
    5  A    between atoms: C_5  and  C_16
    6  A    between atoms: C_5  and  C_24
    7  A    between atoms: C_6  and  C_13
    8  A    between atoms: N_7  and  C_21
    9  A    between atoms: C_9  and  O_35
   10  A    between atoms: C_9  and  C_48
   11  A    between atoms: C_10  and  O_29
   12  A    between atoms: C_16  and  C_31
   13  A    between atoms: C_16  and  O_45
   14  A    between atoms: C_17  and  C_39
   15  A    between atoms: C_20  and  N_51
   16  A    between atoms: C_21  and  O_35
   17  A    between atoms: C_22  and  C_48
   18  A    between atoms: C_24  and  C_34
   19  A    between atoms: C_25  and  O_45
   20  A    between atoms: C_28  and  C_34
   21  A    between atoms: C_33  and  C_41
   22  A    between atoms: C_34  and  C_48
                            x       y       z     vdW  Elec       q    Type
                         _______ _______ _______ _____ _____    ______ ____

>  <TORSDO>
F 22

$$$$
=
 OpenBabel11062420203D

 53 56  0  0  1  0  0  0  0  0999 V2000
  190.4600  174.5490  145.1220 C   0  0  0  0  0  2  0  0  0  0  0  0
  191.2580  174.6300  146.4170 C   0  0  1  0  0  3  0  0  0  0  0  0
  195.0760  174.4410  145.7770 C   0  0  2  0  0  3  0  0  0  0  0  0
  193.6200  174.1170  145.9000 C   0  0  0  0  0  3  0  0  0  0  0  0
  194.0150  177.1670  145.9330 C   0  0  0  0  0  3  0  0  0  0  0  0
  193.0990  176.4240  146.5600 C   0  0  0  0  0  3  0  0  0  0  0  0
  192.6940  175.0460  146.1860 C   0  0  0  0  0  0  0  0  0  0  0  0
  196.5940  175.1780  143.7520 C   0  0  1  0  0  3  0  0  0  0  0  0
  195.2260  174.8650  143.1520 C   0  0  2  0  0  3  0  0  0  0  0  0
  197.1460  176.4600  143.1360 C   0  0  0  0  0  1  0  0  0  0  0  0
  194.7060  176.8020  144.6480 C   0  0  0  0  0  2  0  0  0  0  0  0
  195.3290  175.3960  144.5860 C   0  0  1  0  0  0  0  0  0  0  0  0
  197.1870  173.3830  146.2470 O   0  0  0  0  0  1  0  0  0  0  0  0
  195.9810  173.2480  145.9130 C   0  0  0  0  0  0  0  0  0  0  0  0
  195.4790  171.9770  145.6700 O   0  0  0  0  0  0  0  0  0  0  0  0
  195.9500  172.8400  141.9140 C   0  0  0  0  0  1  0  0  0  0  0  0
  195.0560  173.3590  143.0210 C   0  0  0  0  0  2  0  0  0  0  0  0
  190.6170  175.5110  147.2990 O   0  0  0  0  0  0  0  0  0  0  0  0
  189.2860  175.5480  146.8790 C   0  0  0  0  0  2  0  0  0  0  0  0
  188.8740  176.9890  146.6610 C   0  0  0  0  0  2  0  0  0  0  0  0
  186.7460  176.3300  147.4260 O   0  0  0  0  0  0  0  0  0  0  0  0
  187.3970  177.1420  146.7890 C   0  0  0  0  0  0  0  0  0  0  0  0
  186.7120  178.2620  146.0710 C   0  0  0  0  0  2  0  0  0  0  0  0
  184.4440  178.6580  146.4520 C   0  0  0  0  0  1  0  0  0  0  0  0
  185.3750  177.8580  145.6680 N   0  0  0  0  0  0  0  0  0  0  0  0
  185.2210  178.2710  144.2800 C   0  0  0  0  0  2  0  0  0  0  0  0
  185.2330  179.7870  144.1970 C   0  0  0  0  0  1  0  0  0  0  0  0
  191.1920  173.7080  144.0800 C   0  0  0  0  0  2  0  0  0  0  0  0
  189.3270  172.0510  143.8150 C   0  0  0  0  0  1  0  0  0  0  0  0
  190.2750  172.9900  143.0660 C   0  0  1  0  0  0  0  0  0  0  0  0
  188.6820  176.0970  142.4550 C   0  0  2  0  0  3  0  0  0  0  0  0
  189.8530  175.3230  142.4200 O   0  0  0  0  0  0  0  0  0  0  0  0
  187.9630  173.8720  142.3330 C   0  0  0  0  0  2  0  0  0  0  0  0
  189.4630  173.9860  142.2040 C   0  0  2  0  0  3  0  0  0  0  0  0
  186.3910  175.5820  142.7710 O   0  0  0  0  0  1  0  0  0  0  0  0
  187.5150  175.2540  142.0160 C   0  0  1  0  0  3  0  0  0  0  0  0
  188.8170  177.2090  141.6220 O   0  0  0  0  0  0  0  0  0  0  0  0
  188.4390  178.2890  142.4070 C   0  0  0  0  0  1  0  0  0  0  0  0
  191.1800  172.1160  142.1620 C   0  0  2  0  0  3  0  0  0  0  0  0
  192.2140  171.2980  142.9330 C   0  0  0  0  0  2  0  0  0  0  0  0
  192.1800  169.8570  142.4790 C   0  0  0  0  0  1  0  0  0  0  0  0
  191.8060  172.8680  141.0280 C   0  0  0  0  0  0  0  0  0  0  0  0
  192.3890  173.9590  141.2720 O   0  0  0  0  0  0  0  0  0  0  0  0
  191.7990  172.3390  139.7400 O   0  0  0  0  0  0  0  0  0  0  0  0
  190.6350  172.3920  138.9220 C   0  0  0  0  0  2  0  0  0  0  0  0
  188.8410  173.9380  138.7780 C   0  0  0  0  0  2  0  0  0  0  0  0
  190.2800  173.7730  138.5660 N   0  0  0  0  0  0  0  0  0  0  0  0
  190.5210  174.1140  137.1530 C   0  0  2  0  0  3  0  0  0  0  0  0
  189.1370  174.8830  135.3670 O   0  0  0  0  0  1  0  0  0  0  0  0
  188.1760  174.2560  137.4420 C   0  0  0  0  0  2  0  0  0  0  0  0
  189.2180  173.9470  136.4010 C   0  0  2  0  0  3  0  0  0  0  0  0
  192.8730  174.0520  136.6770 O   0  0  0  0  0  1  0  0  0  0  0  0
  191.6740  173.3610  136.4790 C   0  0  0  0  0  2  0  0  0  0  0  0
  2  1  1  6  0  0  0
  2 18  1  0  0  0  0
  3  4  1  0  0  0  0
  3 14  1  6  0  0  0
  4  7  2  0  0  0  0
  5  6  2  0  0  0  0
  7  2  1  0  0  0  0
  7  6  1  0  0  0  0
  8 10  1  6  0  0  0
  8 12  1  0  0  0  0
  9 17  1  1  0  0  0
  9  8  1  0  0  0  0
  9 12  1  0  0  0  0
 11  5  1  0  0  0  0
 12 11  1  1  0  0  0
 12  3  1  0  0  0  0
 14 13  1  0  0  0  0
 15 14  2  0  0  0  0
 16 17  1  0  0  0  0
 19 18  1  0  0  0  0
 20 22  1  0  0  0  0
 20 19  1  0  0  0  0
 22 21  2  0  0  0  0
 23 22  1  0  0  0  0
 25 23  1  0  0  0  0
 25 24  1  0  0  0  0
 26 25  1  0  0  0  0
 27 26  1  0  0  0  0
 28  1  1  0  0  0  0
 30 29  1  1  0  0  0
 30 28  1  0  0  0  0
 31 37  1  6  0  0  0
 32 31  1  0  0  0  0
 34 33  1  0  0  0  0
 34 32  1  0  0  0  0
 34 30  1  1  0  0  0
 36 33  1  0  0  0  0
 36 31  1  0  0  0  0
 36 35  1  1  0  0  0
 37 38  1  0  0  0  0
 39 40  1  1  0  0  0
 39 30  1  0  0  0  0
 41 40  1  0  0  0  0
 42 43  2  0  0  0  0
 42 39  1  0  0  0  0
 44 42  1  0  0  0  0
 45 44  1  0  0  0  0
 47 46  1  0  0  0  0
 47 45  1  0  0  0  0
 48 53  1  6  0  0  0
 48 47  1  0  0  0  0
 50 46  1  0  0  0  0
 51 49  1  6  0  0  0
 51 48  1  0  0  0  0
 51 50  1  0  0  0  0
 53 52  1  0  0  0  0
M  END
>  <MODEL>
7

>  <REMARK>
 VINA RESULT:      -5.3      2.418      7.826
  Name = 
  22 active torsions:
  status: ('A' for Active; 'I' for Inactive)
    1  A    between atoms: C_3  and  C_18
    2  A    between atoms: C_3  and  C_25
    3  A    between atoms: C_4  and  C_18
    4  A    between atoms: C_4  and  N_51
    5  A    between atoms: C_5  and  C_16
    6  A    between atoms: C_5  and  C_24
    7  A    between atoms: C_6  and  C_13
    8  A    between atoms: N_7  and  C_21
    9  A    between atoms: C_9  and  O_35
   10  A    between atoms: C_9  and  C_48
   11  A    between atoms: C_10  and  O_29
   12  A    between atoms: C_16  and  C_31
   13  A    between atoms: C_16  and  O_45
   14  A    between atoms: C_17  and  C_39
   15  A    between atoms: C_20  and  N_51
   16  A    between atoms: C_21  and  O_35
   17  A    between atoms: C_22  and  C_48
   18  A    between atoms: C_24  and  C_34
   19  A    between atoms: C_25  and  O_45
   20  A    between atoms: C_28  and  C_34
   21  A    between atoms: C_33  and  C_41
   22  A    between atoms: C_34  and  C_48
                            x       y       z     vdW  Elec       q    Type
                         _______ _______ _______ _____ _____    ______ ____

>  <TORSDO>
F 22

$$$$
=
 OpenBabel11062420203D

 53 56  0  0  1  0  0  0  0  0999 V2000
  190.6620  173.2460  140.3880 C   0  0  0  0  0  2  0  0  0  0  0  0
  189.6630  173.6180  141.4760 C   0  0  1  0  0  3  0  0  0  0  0  0
  192.0820  174.9500  144.1950 C   0  0  2  0  0  3  0  0  0  0  0  0
  191.3020  174.7590  142.9330 C   0  0  0  0  0  3  0  0  0  0  0  0
  190.0240  173.1260  145.2040 C   0  0  0  0  0  3  0  0  0  0  0  0
  190.0880  172.8550  143.8980 C   0  0  0  0  0  3  0  0  0  0  0  0
  190.3270  173.8430  142.8160 C   0  0  0  0  0  0  0  0  0  0  0  0
  191.7320  176.4740  146.3170 C   0  0  1  0  0  3  0  0  0  0  0  0
  190.6420  176.8820  145.3290 C   0  0  2  0  0  3  0  0  0  0  0  0
  191.1440  176.3720  147.7210 C   0  0  0  0  0  1  0  0  0  0  0  0
  190.0420  174.5020  145.8130 C   0  0  0  0  0  2  0  0  0  0  0  0
  191.1650  175.4410  145.3400 C   0  0  1  0  0  0  0  0  0  0  0  0
  194.2400  175.7270  144.9300 O   0  0  0  0  0  1  0  0  0  0  0  0
  193.3920  175.6630  144.0020 C   0  0  0  0  0  0  0  0  0  0  0  0
  193.6730  176.2590  142.7790 O   0  0  0  0  0  0  0  0  0  0  0  0
  190.1350  178.2620  143.3300 C   0  0  0  0  0  1  0  0  0  0  0  0
  191.2330  177.7860  144.2580 C   0  0  0  0  0  2  0  0  0  0  0  0
  188.9460  174.7540  141.0750 O   0  0  0  0  0  0  0  0  0  0  0  0
  187.7690  174.7310  141.8260 C   0  0  0  0  0  2  0  0  0  0  0  0
  187.7400  175.9380  142.7410 C   0  0  0  0  0  2  0  0  0  0  0  0
  186.1340  177.1440  141.5110 O   0  0  0  0  0  0  0  0  0  0  0  0
  186.4580  176.6830  142.5930 C   0  0  0  0  0  0  0  0  0  0  0  0
  185.6050  176.9180  143.8000 C   0  0  0  0  0  2  0  0  0  0  0  0
  185.9270  179.0880  144.5950 C   0  0  0  0  0  1  0  0  0  0  0  0
  186.3330  177.7020  144.7840 N   0  0  0  0  0  0  0  0  0  0  0  0
  185.8330  177.2900  146.0890 C   0  0  0  0  0  2  0  0  0  0  0  0
  186.9860  176.7900  146.9400 C   0  0  0  0  0  1  0  0  0  0  0  0
  191.0080  171.7610  140.4460 C   0  0  0  0  0  2  0  0  0  0  0  0
  192.9360  172.5330  139.0390 C   0  0  0  0  0  1  0  0  0  0  0  0
  192.4180  171.4030  139.9300 C   0  0  1  0  0  0  0  0  0  0  0  0
  193.6880  171.8950  143.2030 C   0  0  2  0  0  3  0  0  0  0  0  0
  192.7990  171.2190  142.3510 O   0  0  0  0  0  0  0  0  0  0  0  0
  194.6540  172.0010  141.0730 C   0  0  0  0  0  2  0  0  0  0  0  0
  193.4150  171.1400  141.0860 C   0  0  2  0  0  3  0  0  0  0  0  0
  195.5660  173.2900  142.8320 O   0  0  0  0  0  1  0  0  0  0  0  0
  195.0170  172.0500  142.5140 C   0  0  1  0  0  3  0  0  0  0  0  0
  193.8400  171.1870  144.3960 O   0  0  0  0  0  0  0  0  0  0  0  0
  193.8840  172.1600  145.3850 C   0  0  0  0  0  1  0  0  0  0  0  0
  192.2810  170.1370  139.0470 C   0  0  2  0  0  3  0  0  0  0  0  0
  193.3780  170.0020  137.9920 C   0  0  0  0  0  2  0  0  0  0  0  0
  193.4300  168.5820  137.4770 C   0  0  0  0  0  1  0  0  0  0  0  0
  190.9180  169.9630  138.4500 C   0  0  0  0  0  0  0  0  0  0  0  0
  190.0750  169.2500  139.0590 O   0  0  0  0  0  0  0  0  0  0  0  0
  190.5700  170.6290  137.2780 O   0  0  0  0  0  0  0  0  0  0  0  0
  189.6370  171.7050  137.2840 C   0  0  0  0  0  2  0  0  0  0  0  0
  190.9030  172.2200  135.3450 C   0  0  0  0  0  2  0  0  0  0  0  0
  189.6030  172.4060  135.9940 N   0  0  0  0  0  0  0  0  0  0  0  0
  189.4120  173.8630  136.1020 C   0  0  2  0  0  3  0  0  0  0  0  0
  190.6760  175.7640  135.4060 O   0  0  0  0  0  1  0  0  0  0  0  0
  191.5710  173.5810  135.1760 C   0  0  0  0  0  2  0  0  0  0  0  0
  190.7730  174.5210  136.0370 C   0  0  2  0  0  3  0  0  0  0  0  0
  187.6670  175.2940  136.9200 O   0  0  0  0  0  1  0  0  0  0  0  0
  188.6010  174.3340  137.3150 C   0  0  0  0  0  2  0  0  0  0  0  0
  1 28  1  0  0  0  0
  2  1  1  6  0  0  0
  2  7  1  0  0  0  0
  3 14  1  6  0  0  0
  3 12  1  0  0  0  0
  4  3  1  0  0  0  0
  5 11  1  0  0  0  0
  6  5  2  0  0  0  0
  7  4  2  0  0  0  0
  7  6  1  0  0  0  0
  8 10  1  1  0  0  0
  9 17  1  6  0  0  0
  9 12  1  0  0  0  0
  9  8  1  0  0  0  0
 12 11  1  1  0  0  0
 12  8  1  0  0  0  0
 14 13  1  0  0  0  0
 15 14  2  0  0  0  0
 16 17  1  0  0  0  0
 18  2  1  0  0  0  0
 18 19  1  0  0  0  0
 19 20  1  0  0  0  0
 21 22  2  0  0  0  0
 22 20  1  0  0  0  0
 22 23  1  0  0  0  0
 23 25  1  0  0  0  0
 24 25  1  0  0  0  0
 25 26  1  0  0  0  0
 26 27  1  0  0  0  0
 30 29  1  6  0  0  0
 30 28  1  0  0  0  0
 31 37  1  1  0  0  0
 32 31  1  0  0  0  0
 33 34  1  0  0  0  0
 33 36  1  0  0  0  0
 34 30  1  6  0  0  0
 34 32  1  0  0  0  0
 36 35  1  6  0  0  0
 36 31  1  0  0  0  0
 37 38  1  0  0  0  0
 39 40  1  6  0  0  0
 39 30  1  0  0  0  0
 41 40  1  0  0  0  0
 42 39  1  0  0  0  0
 42 43  2  0  0  0  0
 44 45  1  0  0  0  0
 44 42  1  0  0  0  0
 46 47  1  0  0  0  0
 47 48  1  0  0  0  0
 47 45  1  0  0  0  0
 48 53  1  1  0  0  0
 50 46  1  0  0  0  0
 50 51  1  0  0  0  0
 51 49  1  6  0  0  0
 51 48  1  0  0  0  0
 52 53  1  0  0  0  0
M  END
>  <MODEL>
8

>  <REMARK>
 VINA RESULT:      -5.3      2.367      8.274
  Name = 
  22 active torsions:
  status: ('A' for Active; 'I' for Inactive)
    1  A    between atoms: C_3  and  C_18
    2  A    between atoms: C_3  and  C_25
    3  A    between atoms: C_4  and  C_18
    4  A    between atoms: C_4  and  N_51
    5  A    between atoms: C_5  and  C_16
    6  A    between atoms: C_5  and  C_24
    7  A    between atoms: C_6  and  C_13
    8  A    between atoms: N_7  and  C_21
    9  A    between atoms: C_9  and  O_35
   10  A    between atoms: C_9  and  C_48
   11  A    between atoms: C_10  and  O_29
   12  A    between atoms: C_16  and  C_31
   13  A    between atoms: C_16  and  O_45
   14  A    between atoms: C_17  and  C_39
   15  A    between atoms: C_20  and  N_51
   16  A    between atoms: C_21  and  O_35
   17  A    between atoms: C_22  and  C_48
   18  A    between atoms: C_24  and  C_34
   19  A    between atoms: C_25  and  O_45
   20  A    between atoms: C_28  and  C_34
   21  A    between atoms: C_33  and  C_41
   22  A    between atoms: C_34  and  C_48
                            x       y       z     vdW  Elec       q    Type
                         _______ _______ _______ _____ _____    ______ ____

>  <TORSDO>
F 22

$$$$
=
 OpenBabel11062420203D

 53 56  0  0  1  0  0  0  0  0999 V2000
  193.8040  175.4910  142.3820 C   0  0  0  0  0  2  0  0  0  0  0  0
  195.1960  174.8730  142.3800 C   0  0  1  0  0  3  0  0  0  0  0  0
  194.7820  173.1640  138.9260 C   0  0  2  0  0  3  0  0  0  0  0  0
  194.5460  173.9310  140.1890 C   0  0  0  0  0  3  0  0  0  0  0  0
  197.5660  173.5380  139.7580 C   0  0  0  0  0  3  0  0  0  0  0  0
  196.8730  173.6000  140.8980 C   0  0  0  0  0  3  0  0  0  0  0  0
  195.5270  174.2010  141.0650 C   0  0  0  0  0  0  0  0  0  0  0  0
  195.4460  173.8810  136.4780 C   0  0  1  0  0  3  0  0  0  0  0  0
  195.2230  175.1810  137.2460 C   0  0  2  0  0  3  0  0  0  0  0  0
  196.6990  173.9990  135.6150 C   0  0  0  0  0  1  0  0  0  0  0  0
  197.1720  174.1890  138.4600 C   0  0  0  0  0  2  0  0  0  0  0  0
  195.7320  173.9360  137.9810 C   0  0  1  0  0  0  0  0  0  0  0  0
  193.5960  171.6330  137.4940 O   0  0  0  0  0  0  0  0  0  0  0  0
  193.5350  172.5750  138.3260 C   0  0  0  0  0  0  0  0  0  0  0  0
  192.2940  173.0770  138.6970 O   0  0  0  0  0  1  0  0  0  0  0  0
  193.1890  175.9400  136.0430 C   0  0  0  0  0  1  0  0  0  0  0  0
  193.7320  175.4530  137.3700 C   0  0  0  0  0  2  0  0  0  0  0  0
  196.1400  175.8610  142.6880 O   0  0  0  0  0  0  0  0  0  0  0  0
  196.3890  175.7190  144.0550 C   0  0  0  0  0  2  0  0  0  0  0  0
  197.3520  174.5690  144.2680 C   0  0  0  0  0  2  0  0  0  0  0  0
  196.5960  174.1590  146.4610 O   0  0  0  0  0  0  0  0  0  0  0  0
  196.8850  173.6860  145.3740 C   0  0  0  0  0  0  0  0  0  0  0  0
  196.8390  172.2060  145.1590 C   0  0  0  0  0  2  0  0  0  0  0  0
  196.1330  170.7480  143.4790 C   0  0  0  0  0  1  0  0  0  0  0  0
  195.7030  171.8540  144.3220 N   0  0  0  0  0  0  0  0  0  0  0  0
  194.6810  171.3300  145.2180 C   0  0  0  0  0  2  0  0  0  0  0  0
  193.3070  171.5780  144.6210 C   0  0  0  0  0  1  0  0  0  0  0  0
  192.9350  174.8800  143.4770 C   0  0  0  0  0  2  0  0  0  0  0  0
  191.7190  177.0440  143.1130 C   0  0  0  0  0  1  0  0  0  0  0  0
  191.6770  175.6990  143.8400 C   0  0  1  0  0  0  0  0  0  0  0  0
  189.7610  173.3360  142.0200 C   0  0  2  0  0  3  0  0  0  0  0  0
  190.6060  173.6120  143.1080 O   0  0  0  0  0  0  0  0  0  0  0  0
  189.4990  175.6220  142.4560 C   0  0  0  0  0  2  0  0  0  0  0  0
  190.3690  174.9480  143.4900 C   0  0  2  0  0  3  0  0  0  0  0  0
  188.5670  174.6950  140.4920 O   0  0  0  0  0  1  0  0  0  0  0  0
  188.7840  174.4680  141.8480 C   0  0  1  0  0  3  0  0  0  0  0  0
  189.0800  172.1370  142.2350 O   0  0  0  0  0  0  0  0  0  0  0  0
  190.0780  171.1890  142.4180 C   0  0  0  0  0  1  0  0  0  0  0  0
  191.7350  175.9880  145.3610 C   0  0  2  0  0  3  0  0  0  0  0  0
  192.9210  175.3330  146.0670 C   0  0  0  0  0  2  0  0  0  0  0  0
  193.8010  176.3900  146.6930 C   0  0  0  0  0  1  0  0  0  0  0  0
  190.4480  175.7160  146.0760 C   0  0  0  0  0  0  0  0  0  0  0  0
  190.2380  174.5580  146.5290 O   0  0  0  0  0  0  0  0  0  0  0  0
  189.5290  176.7390  146.2930 O   0  0  0  0  0  0  0  0  0  0  0  0
  188.2230  176.6960  145.7280 C   0  0  0  0  0  2  0  0  0  0  0  0
  186.9440  177.9440  147.2890 C   0  0  0  0  0  2  0  0  0  0  0  0
  187.4970  177.9570  145.9330 N   0  0  0  0  0  0  0  0  0  0  0  0
  186.3480  178.1470  145.0300 C   0  0  2  0  0  3  0  0  0  0  0  0
  184.0090  178.4830  145.3620 O   0  0  0  0  0  1  0  0  0  0  0  0
  185.4210  177.9940  147.2030 C   0  0  0  0  0  2  0  0  0  0  0  0
  185.0990  177.7060  145.7610 C   0  0  2  0  0  3  0  0  0  0  0  0
  186.9470  178.4130  142.7210 O   0  0  0  0  0  1  0  0  0  0  0  0
  186.4740  177.4850  143.6530 C   0  0  0  0  0  2  0  0  0  0  0  0
  1 28  1  0  0  0  0
  2  1  1  6  0  0  0
  2 18  1  0  0  0  0
  3 14  1  6  0  0  0
  3  4  1  0  0  0  0
  4  7  2  0  0  0  0
  5  6  2  0  0  0  0
  6  7  1  0  0  0  0
  7  2  1  0  0  0  0
  8 10  1  6  0  0  0
  8  9  1  0  0  0  0
  8 12  1  0  0  0  0
  9 17  1  1  0  0  0
  9 12  1  0  0  0  0
 11  5  1  0  0  0  0
 12 11  1  1  0  0  0
 12  3  1  0  0  0  0
 13 14  2  0  0  0  0
 14 15  1  0  0  0  0
 16 17  1  0  0  0  0
 18 19  1  0  0  0  0
 19 20  1  0  0  0  0
 20 22  1  0  0  0  0
 22 21  2  0  0  0  0
 23 22  1  0  0  0  0
 24 25  1  0  0  0  0
 25 23  1  0  0  0  0
 25 26  1  0  0  0  0
 27 26  1  0  0  0  0
 28 30  1  0  0  0  0
 30 29  1  6  0  0  0
 30 39  1  0  0  0  0
 31 37  1  1  0  0  0
 31 32  1  0  0  0  0
 32 34  1  0  0  0  0
 33 34  1  0  0  0  0
 34 30  1  6  0  0  0
 36 35  1  6  0  0  0
 36 31  1  0  0  0  0
 36 33  1  0  0  0  0
 37 38  1  0  0  0  0
 39 40  1  1  0  0  0
 39 42  1  0  0  0  0
 40 41  1  0  0  0  0
 42 44  1  0  0  0  0
 42 43  2  0  0  0  0
 45 47  1  0  0  0  0
 45 44  1  0  0  0  0
 47 46  1  0  0  0  0
 48 53  1  6  0  0  0
 48 51  1  0  0  0  0
 48 47  1  0  0  0  0
 50 46  1  0  0  0  0
 51 49  1  6  0  0  0
 51 50  1  0  0  0  0
 52 53  1  0  0  0  0
M  END
>  <MODEL>
9

>  <REMARK>
 VINA RESULT:      -5.3      2.503      6.283
  Name = 
  22 active torsions:
  status: ('A' for Active; 'I' for Inactive)
    1  A    between atoms: C_3  and  C_18
    2  A    between atoms: C_3  and  C_25
    3  A    between atoms: C_4  and  C_18
    4  A    between atoms: C_4  and  N_51
    5  A    between atoms: C_5  and  C_16
    6  A    between atoms: C_5  and  C_24
    7  A    between atoms: C_6  and  C_13
    8  A    between atoms: N_7  and  C_21
    9  A    between atoms: C_9  and  O_35
   10  A    between atoms: C_9  and  C_48
   11  A    between atoms: C_10  and  O_29
   12  A    between atoms: C_16  and  C_31
   13  A    between atoms: C_16  and  O_45
   14  A    between atoms: C_17  and  C_39
   15  A    between atoms: C_20  and  N_51
   16  A    between atoms: C_21  and  O_35
   17  A    between atoms: C_22  and  C_48
   18  A    between atoms: C_24  and  C_34
   19  A    between atoms: C_25  and  O_45
   20  A    between atoms: C_28  and  C_34
   21  A    between atoms: C_33  and  C_41
   22  A    between atoms: C_34  and  C_48
                            x       y       z     vdW  Elec       q    Type
                         _______ _______ _______ _____ _____    ______ ____

>  <TORSDO>
F 22

$$$$
