=
 OpenBabel11062418243D

 64 67  0  0  1  0  0  0  0  0999 V2000
  191.2350  173.6280  142.2760 C   0  0  0  0  0  3  0  0  0  0  0  0
  193.1950  170.5040  142.6640 C   0  0  0  0  0  2  0  0  0  0  0  0
  194.0720  173.5050  143.5270 C   0  0  1  0  0  3  0  0  0  0  0  0
  193.1420  171.8620  141.9890 C   0  0  0  0  0  0  0  0  0  0  0  0
  193.1640  174.7060  143.5040 C   0  0  2  0  0  3  0  0  0  0  0  0
  193.4290  170.6240  141.1920 C   0  0  0  0  0  2  0  0  0  0  0  0
  194.2990  172.7850  142.2140 C   0  0  0  0  0  2  0  0  0  0  0  0
  191.7010  172.4110  141.9060 C   0  0  0  0  0  0  0  0  0  0  0  0
  191.8870  174.8980  142.6890 C   0  0  2  0  0  3  0  0  0  0  0  0
  193.9870  175.8370  143.5360 O   0  0  0  0  0  1  0  0  0  0  0  0
  190.8310  176.0150  143.3190 C   0  0  1  0  0  0  0  0  0  0  0  0
  191.5900  177.3570  143.1450 C   0  0  0  0  0  1  0  0  0  0  0  0
  189.6210  176.2360  142.4350 C   0  0  0  0  0  2  0  0  0  0  0  0
  189.2710  177.5370  142.2080 O   0  0  0  0  0  0  0  0  0  0  0  0
  186.7780  178.6080  142.8060 O   0  0  0  0  0  1  0  0  0  0  0  0
  187.3480  177.6850  140.4670 O   0  0  0  0  0  0  0  0  0  0  0  0
  187.5690  177.4450  141.9180 P   0  0  0  0  0  0  0  0  0  0  0  0
  187.0230  175.8960  142.3020 O   0  0  0  0  0  1  0  0  0  0  0  0
  190.4850  175.7220  144.8160 N   0  0  0  0  0  0  0  0  0  0  0  0
  191.1960  177.2480  147.1500 O   0  0  0  0  0  1  0  0  0  0  0  0
  192.5160  174.9400  146.8560 O   0  0  0  0  0  1  0  0  0  0  0  0
  191.6820  176.2800  146.0320 P   0  0  0  0  0  0  0  0  0  0  0  0
  189.1990  176.3180  145.3110 C   0  0  0  0  0  2  0  0  0  0  0  0
  188.6220  175.8840  146.8010 C   0  0  2  0  0  3  0  0  0  0  0  0
  188.7780  174.5490  147.2420 O   0  0  0  0  0  1  0  0  0  0  0  0
  187.1800  176.2400  147.1110 C   0  0  0  0  0  2  0  0  0  0  0  0
  186.6100  177.2480  146.1050 C   0  0  1  0  0  3  0  0  0  0  0  0
  185.5240  176.7320  145.3550 O   0  0  0  0  0  1  0  0  0  0  0  0
  186.1000  178.3970  146.8700 C   0  0  0  0  0  0  0  0  0  0  0  0
  186.6490  178.7560  148.0360 O   0  0  0  0  0  1  0  0  0  0  0  0
  185.0500  179.0060  146.4290 O   0  0  0  0  0  0  0  0  0  0  0  0
  195.2980  173.7900  144.2040 O   0  0  0  0  0  0  0  0  0  0  0  0
  196.4190  173.2650  143.5090 C   0  0  0  0  0  1  0  0  0  0  0  0
  190.6770  171.4660  141.4090 C   0  0  1  0  0  3  0  0  0  0  0  0
  189.8510  171.0250  142.4870 O   0  0  0  0  0  0  0  0  0  0  0  0
  189.7340  171.9530  143.5650 C   0  0  0  0  0  1  0  0  0  0  0  0
  190.1360  171.6650  139.9530 C   0  0  1  0  0  3  0  0  0  0  0  0
  189.3410  173.0090  140.1390 C   0  0  2  0  0  3  0  0  0  0  0  0
  188.0590  172.7780  140.5070 O   0  0  0  0  0  1  0  0  0  0  0  0
  189.4910  174.0100  139.1520 O   0  0  0  0  0  0  0  0  0  0  0  0
  188.1650  174.3990  139.0150 C   0  0  0  0  0  2  0  0  0  0  0  0
  187.6380  175.1060  137.8360 C   0  0  0  0  0  1  0  0  0  0  0  0
  191.0380  171.8620  138.8640 O   0  0  0  0  0  0  0  0  0  0  0  0
  189.7850  169.8350  138.0380 C   0  0  0  0  0  1  0  0  0  0  0  0
  191.1230  170.6350  138.1220 C   0  0  1  0  0  3  0  0  0  0  0  0
  191.5940  170.9690  136.7300 C   0  0  1  0  0  3  0  0  0  0  0  0
  190.9470  170.3050  135.5510 C   0  0  0  0  0  1  0  0  0  0  0  0
  192.2030  174.6100  136.1850 C   0  0  1  0  0  3  0  0  0  0  0  0
  197.6380  172.1840  138.8140 C   0  0  0  0  0  3  0  0  0  0  0  0
  196.6930  172.8510  139.5230 C   0  0  0  0  0  3  0  0  0  0  0  0
  189.3630  172.7430  136.2360 O   0  0  0  0  0  1  0  0  0  0  0  0
  195.1700  172.8960  137.5410 C   0  0  0  0  0  0  0  0  0  0  0  0
  195.3990  173.4450  138.9900 C   0  0  2  0  0  3  0  0  0  0  0  0
  192.7670  173.2960  136.5520 C   0  0  0  0  0  0  0  0  0  0  0  0
  197.4660  171.9320  137.3680 C   0  0  0  0  0  3  0  0  0  0  0  0
  190.5940  173.1660  135.8030 C   0  0  1  0  0  3  0  0  0  0  0  0
  190.8100  174.5150  136.0450 O   0  0  0  0  0  0  0  0  0  0  0  0
  191.6940  172.4170  136.5160 N   0  0  0  0  0  0  0  0  0  0  0  0
  194.0380  173.0520  137.0230 C   0  0  0  0  0  0  0  0  0  0  0  0
  196.3030  172.2450  136.8110 C   0  0  0  0  0  3  0  0  0  0  0  0
  192.8290  175.9950  136.3270 C   0  0  0  0  0  2  0  0  0  0  0  0
  192.2240  176.9090  135.2470 C   0  0  0  0  0  1  0  0  0  0  0  0
  195.4450  174.8590  138.8450 O   0  0  0  0  0  0  0  0  0  0  0  0
  194.7900  175.5640  139.8520 C   0  0  0  0  0  1  0  0  0  0  0  0
  1  9  1  0  0  0  0
  3 32  1  6  0  0  0
  4  7  1  0  0  0  0
  4  2  1  0  0  0  0
  5  3  1  0  0  0  0
  5 10  1  6  0  0  0
  6  4  1  0  0  0  0
  6  2  1  0  0  0  0
  7  3  1  0  0  0  0
  8  4  1  0  0  0  0
  8  1  2  0  0  0  0
  9 11  1  1  0  0  0
  9  5  1  0  0  0  0
 11 12  1  1  0  0  0
 11 19  1  0  0  0  0
 13 11  1  0  0  0  0
 14 13  1  0  0  0  0
 16 17  2  0  0  0  0
 17 14  1  0  0  0  0
 17 18  1  0  0  0  0
 17 15  1  0  0  0  0
 19 23  1  0  0  0  0
 19 22  1  0  0  0  0
 22 21  1  0  0  0  0
 22 20  1  0  0  0  0
 23 24  1  0  0  0  0
 24 26  1  0  0  0  0
 24 25  1  6  0  0  0
 27 28  1  1  0  0  0
 27 29  1  0  0  0  0
 27 26  1  0  0  0  0
 29 30  1  0  0  0  0
 31 29  2  0  0  0  0
 33 32  1  0  0  0  0
 34  8  1  0  0  0  0
 34 35  1  1  0  0  0
 35 36  1  0  0  0  0
 37 43  1  6  0  0  0
 37 38  1  0  0  0  0
 37 34  1  0  0  0  0
 38 39  1  6  0  0  0
 40 38  1  0  0  0  0
 41 40  1  0  0  0  0
 42 41  1  0  0  0  0
 45 44  1  6  0  0  0
 45 43  1  0  0  0  0
 46 47  1  6  0  0  0
 46 45  1  0  0  0  0
 48 61  1  1  0  0  0
 48 54  1  0  0  0  0
 49 50  2  0  0  0  0
 52 53  1  0  0  0  0
 53 63  1  6  0  0  0
 53 50  1  0  0  0  0
 54 59  2  0  0  0  0
 55 49  1  0  0  0  0
 56 57  1  0  0  0  0
 56 51  1  1  0  0  0
 56 58  1  0  0  0  0
 57 48  1  0  0  0  0
 58 54  1  0  0  0  0
 58 46  1  0  0  0  0
 59 52  2  0  0  0  0
 60 55  2  0  0  0  0
 60 52  1  0  0  0  0
 62 61  1  0  0  0  0
 63 64  1  0  0  0  0
M  END
>  <MODEL>
1

>  <REMARK>
 VINA RESULT:      -5.8      0.000      0.000
  Name = 
  24 active torsions:
  status: ('A' for Active; 'I' for Inactive)
    1  A    between atoms: C_2  and  C_23
    2  A    between atoms: O_6  and  C_17
    3  A    between atoms: C_7  and  C_13
    4  A    between atoms: C_7  and  O_32
    5  A    between atoms: C_7  and  C_33
    6  A    between atoms: C_8  and  C_26
    7  A    between atoms: C_8  and  C_44
    8  A    between atoms: N_9  and  C_26
    9  A    between atoms: N_9  and  C_31
   10  A    between atoms: N_9  and  P_51
   11  A    between atoms: O_12  and  C_21
   12  A    between atoms: C_13  and  O_36
   13  A    between atoms: O_19  and  C_33
   14  A    between atoms: C_20  and  C_28
   15  A    between atoms: O_24  and  P_43
   16  A    between atoms: O_24  and  C_54
   17  A    between atoms: C_25  and  N_48
   18  A    between atoms: C_25  and  C_63
   19  A    between atoms: C_28  and  C_44
   20  A    between atoms: C_31  and  C_54
   21  A    between atoms: C_31  and  C_58
   22  A    between atoms: O_32  and  C_63
   23  A    between atoms: C_33  and  C_53
   24  A    between atoms: O_36  and  C_40
                            x       y       z     vdW  Elec       q    Type
                         _______ _______ _______ _____ _____    ______ ____

>  <TORSDO>
F 24

$$$$
=
 OpenBabel11062418243D

 64 67  0  0  1  0  0  0  0  0999 V2000
  190.3540  174.5250  142.1390 C   0  0  0  0  0  3  0  0  0  0  0  0
  188.8030  176.5380  144.8390 C   0  0  0  0  0  2  0  0  0  0  0  0
  187.7240  176.1380  141.8070 C   0  0  1  0  0  3  0  0  0  0  0  0
  189.4480  176.5880  143.4680 C   0  0  0  0  0  0  0  0  0  0  0  0
  188.3030  175.1710  140.8100 C   0  0  2  0  0  3  0  0  0  0  0  0
  189.8940  177.5200  144.5550 C   0  0  0  0  0  2  0  0  0  0  0  0
  188.6530  177.2010  142.3580 C   0  0  0  0  0  2  0  0  0  0  0  0
  190.3480  175.3590  143.2060 C   0  0  0  0  0  0  0  0  0  0  0  0
  189.7000  174.5550  140.8050 C   0  0  2  0  0  3  0  0  0  0  0  0
  187.8630  175.5790  139.5450 O   0  0  0  0  0  1  0  0  0  0  0  0
  189.8190  173.1230  139.9730 C   0  0  1  0  0  0  0  0  0  0  0  0
  188.4190  172.4830  140.1700 C   0  0  0  0  0  1  0  0  0  0  0  0
  189.8490  173.3210  138.4720 C   0  0  0  0  0  2  0  0  0  0  0  0
  189.1670  172.4010  137.7280 O   0  0  0  0  0  0  0  0  0  0  0  0
  191.1270  171.1310  136.2240 O   0  0  0  0  0  1  0  0  0  0  0  0
  189.0360  172.1810  135.1420 O   0  0  0  0  0  0  0  0  0  0  0  0
  190.0300  172.3810  136.2300 P   0  0  0  0  0  0  0  0  0  0  0  0
  190.7880  173.8720  136.0060 O   0  0  0  0  0  1  0  0  0  0  0  0
  190.9670  172.2140  140.5220 N   0  0  0  0  0  0  0  0  0  0  0  0
  191.5430  169.8110  141.9970 O   0  0  0  0  0  1  0  0  0  0  0  0
  189.6960  171.4030  143.0960 O   0  0  0  0  0  1  0  0  0  0  0  0
  190.4670  170.8580  141.5870 P   0  0  0  0  0  0  0  0  0  0  0  0
  191.8070  171.5330  139.4810 C   0  0  0  0  0  2  0  0  0  0  0  0
  193.3620  172.0410  139.2310 C   0  0  2  0  0  3  0  0  0  0  0  0
  194.0850  172.6130  140.3030 O   0  0  0  0  0  1  0  0  0  0  0  0
  193.6030  172.9640  138.0500 C   0  0  0  0  0  2  0  0  0  0  0  0
  194.9500  173.6890  138.1570 C   0  0  1  0  0  3  0  0  0  0  0  0
  196.0090  172.9940  137.5230 O   0  0  0  0  0  1  0  0  0  0  0  0
  194.8100  174.9850  137.4710 C   0  0  0  0  0  0  0  0  0  0  0  0
  193.6400  175.6290  137.4330 O   0  0  0  0  0  1  0  0  0  0  0  0
  195.8310  175.4480  136.8290 O   0  0  0  0  0  0  0  0  0  0  0  0
  186.4890  176.6900  141.3440 O   0  0  0  0  0  0  0  0  0  0  0  0
  185.7350  177.2580  142.4040 C   0  0  0  0  0  1  0  0  0  0  0  0
  191.2930  175.0090  144.2890 C   0  0  1  0  0  3  0  0  0  0  0  0
  190.9010  173.7820  144.9050 O   0  0  0  0  0  0  0  0  0  0  0  0
  189.9710  173.9260  145.9790 C   0  0  0  0  0  1  0  0  0  0  0  0
  192.7900  175.4350  144.1270 C   0  0  1  0  0  3  0  0  0  0  0  0
  192.9450  176.3710  145.3810 C   0  0  2  0  0  3  0  0  0  0  0  0
  193.9510  177.2610  145.2130 O   0  0  0  0  0  1  0  0  0  0  0  0
  192.9050  175.7740  146.6620 O   0  0  0  0  0  0  0  0  0  0  0  0
  192.2010  176.7530  147.3510 C   0  0  0  0  0  2  0  0  0  0  0  0
  191.1320  176.4620  148.3200 C   0  0  0  0  0  1  0  0  0  0  0  0
  193.8340  174.4640  144.2000 O   0  0  0  0  0  0  0  0  0  0  0  0
  194.1480  175.6160  141.9790 C   0  0  0  0  0  1  0  0  0  0  0  0
  194.5200  174.4430  142.9380 C   0  0  1  0  0  3  0  0  0  0  0  0
  196.0000  174.4730  143.2160 C   0  0  1  0  0  3  0  0  0  0  0  0
  196.6550  175.7690  143.5930 C   0  0  0  0  0  1  0  0  0  0  0  0
  197.1390  171.5660  145.2600 C   0  0  1  0  0  3  0  0  0  0  0  0
  195.9210  169.2850  139.2890 C   0  0  0  0  0  3  0  0  0  0  0  0
  195.0550  169.1720  140.3280 C   0  0  0  0  0  3  0  0  0  0  0  0
  196.0400  174.6690  146.1030 O   0  0  0  0  0  1  0  0  0  0  0  0
  196.5020  170.6300  141.7530 C   0  0  0  0  0  0  0  0  0  0  0  0
  195.2600  169.6770  141.7480 C   0  0  2  0  0  3  0  0  0  0  0  0
  196.7940  172.0870  143.9220 C   0  0  0  0  0  0  0  0  0  0  0  0
  197.2130  169.9840  139.4500 C   0  0  0  0  0  3  0  0  0  0  0  0
  196.8600  173.7260  145.5390 C   0  0  1  0  0  3  0  0  0  0  0  0
  196.8580  172.5290  146.2410 O   0  0  0  0  0  0  0  0  0  0  0  0
  196.4100  173.4030  144.1330 N   0  0  0  0  0  0  0  0  0  0  0  0
  196.6850  171.3550  142.7610 C   0  0  0  0  0  0  0  0  0  0  0  0
  197.4430  170.6230  140.5900 C   0  0  0  0  0  3  0  0  0  0  0  0
  197.3550  170.1190  145.6990 C   0  0  0  0  0  2  0  0  0  0  0  0
  196.2400  169.7480  146.6930 C   0  0  0  0  0  1  0  0  0  0  0  0
  195.5840  168.6450  142.6720 O   0  0  0  0  0  0  0  0  0  0  0  0
  194.5840  168.3690  143.6030 C   0  0  0  0  0  1  0  0  0  0  0  0
  1  8  2  0  0  0  0
  3 32  1  6  0  0  0
  3  7  1  0  0  0  0
  4  6  1  0  0  0  0
  4  2  1  0  0  0  0
  5 10  1  6  0  0  0
  5  3  1  0  0  0  0
  6  2  1  0  0  0  0
  7  4  1  0  0  0  0
  8  4  1  0  0  0  0
  8 34  1  0  0  0  0
  9 11  1  1  0  0  0
  9  5  1  0  0  0  0
  9  1  1  0  0  0  0
 11 12  1  1  0  0  0
 11 19  1  0  0  0  0
 13 11  1  0  0  0  0
 14 13  1  0  0  0  0
 15 17  1  0  0  0  0
 16 17  2  0  0  0  0
 17 14  1  0  0  0  0
 18 17  1  0  0  0  0
 19 22  1  0  0  0  0
 22 20  1  0  0  0  0
 22 21  1  0  0  0  0
 23 19  1  0  0  0  0
 24 23  1  0  0  0  0
 24 25  1  1  0  0  0
 26 27  1  0  0  0  0
 26 24  1  0  0  0  0
 27 28  1  6  0  0  0
 29 27  1  0  0  0  0
 30 29  1  0  0  0  0
 31 29  2  0  0  0  0
 32 33  1  0  0  0  0
 34 35  1  6  0  0  0
 35 36  1  0  0  0  0
 37 43  1  1  0  0  0
 37 34  1  0  0  0  0
 37 38  1  0  0  0  0
 38 39  1  6  0  0  0
 38 40  1  0  0  0  0
 40 41  1  0  0  0  0
 41 42  1  0  0  0  0
 45 44  1  6  0  0  0
 45 46  1  0  0  0  0
 45 43  1  0  0  0  0
 46 47  1  1  0  0  0
 46 58  1  0  0  0  0
 48 61  1  1  0  0  0
 48 57  1  0  0  0  0
 49 55  1  0  0  0  0
 49 50  2  0  0  0  0
 50 53  1  0  0  0  0
 52 59  2  0  0  0  0
 53 52  1  0  0  0  0
 53 63  1  1  0  0  0
 54 58  1  0  0  0  0
 54 48  1  0  0  0  0
 55 60  2  0  0  0  0
 56 51  1  1  0  0  0
 56 57  1  0  0  0  0
 58 56  1  0  0  0  0
 59 54  2  0  0  0  0
 60 52  1  0  0  0  0
 61 62  1  0  0  0  0
 63 64  1  0  0  0  0
M  END
>  <MODEL>
2

>  <REMARK>
 VINA RESULT:      -5.8      2.889      8.540
  Name = 
  24 active torsions:
  status: ('A' for Active; 'I' for Inactive)
    1  A    between atoms: C_2  and  C_23
    2  A    between atoms: O_6  and  C_17
    3  A    between atoms: C_7  and  C_13
    4  A    between atoms: C_7  and  O_32
    5  A    between atoms: C_7  and  C_33
    6  A    between atoms: C_8  and  C_26
    7  A    between atoms: C_8  and  C_44
    8  A    between atoms: N_9  and  C_26
    9  A    between atoms: N_9  and  C_31
   10  A    between atoms: N_9  and  P_51
   11  A    between atoms: O_12  and  C_21
   12  A    between atoms: C_13  and  O_36
   13  A    between atoms: O_19  and  C_33
   14  A    between atoms: C_20  and  C_28
   15  A    between atoms: O_24  and  P_43
   16  A    between atoms: O_24  and  C_54
   17  A    between atoms: C_25  and  N_48
   18  A    between atoms: C_25  and  C_63
   19  A    between atoms: C_28  and  C_44
   20  A    between atoms: C_31  and  C_54
   21  A    between atoms: C_31  and  C_58
   22  A    between atoms: O_32  and  C_63
   23  A    between atoms: C_33  and  C_53
   24  A    between atoms: O_36  and  C_40
                            x       y       z     vdW  Elec       q    Type
                         _______ _______ _______ _____ _____    ______ ____

>  <TORSDO>
F 24

$$$$
=
 OpenBabel11062418243D

 64 67  0  0  1  0  0  0  0  0999 V2000
  192.9050  171.9400  140.2970 C   0  0  0  0  0  3  0  0  0  0  0  0
  189.2190  171.5780  140.1250 C   0  0  0  0  0  2  0  0  0  0  0  0
  191.1040  173.4780  138.2930 C   0  0  1  0  0  3  0  0  0  0  0  0
  190.3610  172.5340  140.4110 C   0  0  0  0  0  0  0  0  0  0  0  0
  192.6080  173.4520  138.2930 C   0  0  2  0  0  3  0  0  0  0  0  0
  189.2110  172.4110  141.3660 C   0  0  0  0  0  2  0  0  0  0  0  0
  190.4180  173.7950  139.6070 C   0  0  0  0  0  2  0  0  0  0  0  0
  191.6570  171.7880  140.8000 C   0  0  0  0  0  0  0  0  0  0  0  0
  193.5360  172.9340  139.3900 C   0  0  2  0  0  3  0  0  0  0  0  0
  193.0350  174.6540  137.7160 O   0  0  0  0  0  1  0  0  0  0  0  0
  195.0460  172.4880  138.8600 C   0  0  1  0  0  0  0  0  0  0  0  0
  195.2210  171.0640  139.4510 C   0  0  0  0  0  1  0  0  0  0  0  0
  195.0820  172.2040  137.3740 C   0  0  0  0  0  2  0  0  0  0  0  0
  195.3000  170.9040  137.0130 O   0  0  0  0  0  0  0  0  0  0  0  0
  195.0750  169.3720  134.7070 O   0  0  0  0  0  1  0  0  0  0  0  0
  193.7900  171.5860  135.0120 O   0  0  0  0  0  1  0  0  0  0  0  0
  195.0920  170.9270  135.2970 P   0  0  0  0  0  0  0  0  0  0  0  0
  196.3280  171.8400  134.6000 O   0  0  0  0  0  0  0  0  0  0  0  0
  196.1580  173.4730  139.3510 N   0  0  0  0  0  0  0  0  0  0  0  0
  197.9360  173.5300  137.0890 O   0  0  0  0  0  1  0  0  0  0  0  0
  196.0090  175.3860  137.0660 O   0  0  0  0  0  1  0  0  0  0  0  0
  197.0570  174.3560  138.0730 P   0  0  0  0  0  0  0  0  0  0  0  0
  195.6910  174.5750  140.2570 C   0  0  0  0  0  2  0  0  0  0  0  0
  196.6070  174.9900  141.5720 C   0  0  2  0  0  3  0  0  0  0  0  0
  197.9260  174.4930  141.6820 O   0  0  0  0  0  1  0  0  0  0  0  0
  195.9850  174.7740  142.9390 C   0  0  0  0  0  2  0  0  0  0  0  0
  196.5760  175.7180  143.9930 C   0  0  1  0  0  3  0  0  0  0  0  0
  196.6950  177.0550  143.5390 O   0  0  0  0  0  1  0  0  0  0  0  0
  195.6550  175.7310  145.1420 C   0  0  0  0  0  0  0  0  0  0  0  0
  195.6830  174.7660  146.0670 O   0  0  0  0  0  1  0  0  0  0  0  0
  194.7570  176.6580  145.1930 O   0  0  0  0  0  0  0  0  0  0  0  0
  190.5940  174.2680  137.2160 O   0  0  0  0  0  0  0  0  0  0  0  0
  189.3460  173.7810  136.7480 C   0  0  0  0  0  1  0  0  0  0  0  0
  191.5090  170.7240  141.8180 C   0  0  1  0  0  3  0  0  0  0  0  0
  192.0140  169.4880  141.3130 O   0  0  0  0  0  0  0  0  0  0  0  0
  191.0460  168.6790  140.6450 C   0  0  0  0  0  1  0  0  0  0  0  0
  191.6120  171.1300  143.3260 C   0  0  1  0  0  3  0  0  0  0  0  0
  192.8720  170.2880  143.7490 C   0  0  2  0  0  3  0  0  0  0  0  0
  192.5180  169.1920  144.4600 O   0  0  0  0  0  1  0  0  0  0  0  0
  193.9890  170.9810  144.2690 O   0  0  0  0  0  0  0  0  0  0  0  0
  194.4520  170.0310  145.1690 C   0  0  0  0  0  2  0  0  0  0  0  0
  195.7090  170.1640  145.9230 C   0  0  0  0  0  1  0  0  0  0  0  0
  191.8720  172.4830  143.6980 O   0  0  0  0  0  0  0  0  0  0  0  0
  189.7530  172.1340  145.0200 C   0  0  0  0  0  1  0  0  0  0  0  0
  190.6410  173.0730  144.1440 C   0  0  1  0  0  3  0  0  0  0  0  0
  190.9790  174.3150  144.9270 C   0  0  1  0  0  3  0  0  0  0  0  0
  192.2100  174.3370  145.7820 C   0  0  0  0  0  1  0  0  0  0  0  0
  190.5720  177.5230  143.0640 C   0  0  1  0  0  3  0  0  0  0  0  0
  185.3990  176.9660  146.9720 C   0  0  0  0  0  3  0  0  0  0  0  0
  185.3810  176.6550  145.6510 C   0  0  0  0  0  3  0  0  0  0  0  0
  192.5640  174.8160  142.5580 O   0  0  0  0  0  1  0  0  0  0  0  0
  187.8550  176.9760  145.4930 C   0  0  0  0  0  0  0  0  0  0  0  0
  186.5400  176.7520  144.6720 C   0  0  2  0  0  3  0  0  0  0  0  0
  190.0910  176.6450  144.1490 C   0  0  0  0  0  0  0  0  0  0  0  0
  186.6400  177.4300  147.6250 C   0  0  0  0  0  3  0  0  0  0  0  0
  192.0600  175.9150  143.2060 C   0  0  1  0  0  3  0  0  0  0  0  0
  191.5770  176.8760  142.3290 O   0  0  0  0  0  0  0  0  0  0  0  0
  190.9050  175.5240  144.0970 N   0  0  0  0  0  0  0  0  0  0  0  0
  188.9520  176.8220  144.9020 C   0  0  0  0  0  0  0  0  0  0  0  0
  187.7680  177.3960  146.9260 C   0  0  0  0  0  3  0  0  0  0  0  0
  189.9000  178.7520  142.4560 C   0  0  0  0  0  2  0  0  0  0  0  0
  188.7050  178.2760  141.6100 C   0  0  0  0  0  1  0  0  0  0  0  0
  186.4520  177.8770  143.8050 O   0  0  0  0  0  0  0  0  0  0  0  0
  185.3230  178.6690  144.0010 C   0  0  0  0  0  1  0  0  0  0  0  0
  1  8  2  0  0  0  0
  2  4  1  0  0  0  0
  2  6  1  0  0  0  0
  3 32  1  6  0  0  0
  3  7  1  0  0  0  0
  4  8  1  0  0  0  0
  4  6  1  0  0  0  0
  5 10  1  1  0  0  0
  5  3  1  0  0  0  0
  5  9  1  0  0  0  0
  7  4  1  0  0  0  0
  8 34  1  0  0  0  0
  9 11  1  6  0  0  0
  9  1  1  0  0  0  0
 11 19  1  0  0  0  0
 11 12  1  1  0  0  0
 13 11  1  0  0  0  0
 14 13  1  0  0  0  0
 15 17  1  0  0  0  0
 16 17  1  0  0  0  0
 17 14  1  0  0  0  0
 18 17  2  0  0  0  0
 19 23  1  0  0  0  0
 20 22  1  0  0  0  0
 21 22  1  0  0  0  0
 22 19  1  0  0  0  0
 23 24  1  0  0  0  0
 24 25  1  1  0  0  0
 24 26  1  0  0  0  0
 26 27  1  0  0  0  0
 27 28  1  6  0  0  0
 27 29  1  0  0  0  0
 29 31  2  0  0  0  0
 29 30  1  0  0  0  0
 33 32  1  0  0  0  0
 34 35  1  6  0  0  0
 34 37  1  0  0  0  0
 36 35  1  0  0  0  0
 37 43  1  6  0  0  0
 37 38  1  0  0  0  0
 38 40  1  0  0  0  0
 38 39  1  1  0  0  0
 40 41  1  0  0  0  0
 41 42  1  0  0  0  0
 43 45  1  0  0  0  0
 45 46  1  0  0  0  0
 45 44  1  1  0  0  0
 46 47  1  6  0  0  0
 48 61  1  6  0  0  0
 48 54  1  0  0  0  0
 49 55  1  0  0  0  0
 50 49  2  0  0  0  0
 52 60  1  0  0  0  0
 53 63  1  6  0  0  0
 53 52  1  0  0  0  0
 53 50  1  0  0  0  0
 54 59  2  0  0  0  0
 56 51  1  6  0  0  0
 56 58  1  0  0  0  0
 57 48  1  0  0  0  0
 57 56  1  0  0  0  0
 58 54  1  0  0  0  0
 58 46  1  0  0  0  0
 59 52  2  0  0  0  0
 60 55  2  0  0  0  0
 62 61  1  0  0  0  0
 63 64  1  0  0  0  0
M  END
>  <MODEL>
3

>  <REMARK>
 VINA RESULT:      -5.5      3.138      9.135
  Name = 
  24 active torsions:
  status: ('A' for Active; 'I' for Inactive)
    1  A    between atoms: C_2  and  C_23
    2  A    between atoms: O_6  and  C_17
    3  A    between atoms: C_7  and  C_13
    4  A    between atoms: C_7  and  O_32
    5  A    between atoms: C_7  and  C_33
    6  A    between atoms: C_8  and  C_26
    7  A    between atoms: C_8  and  C_44
    8  A    between atoms: N_9  and  C_26
    9  A    between atoms: N_9  and  C_31
   10  A    between atoms: N_9  and  P_51
   11  A    between atoms: O_12  and  C_21
   12  A    between atoms: C_13  and  O_36
   13  A    between atoms: O_19  and  C_33
   14  A    between atoms: C_20  and  C_28
   15  A    between atoms: O_24  and  P_43
   16  A    between atoms: O_24  and  C_54
   17  A    between atoms: C_25  and  N_48
   18  A    between atoms: C_25  and  C_63
   19  A    between atoms: C_28  and  C_44
   20  A    between atoms: C_31  and  C_54
   21  A    between atoms: C_31  and  C_58
   22  A    between atoms: O_32  and  C_63
   23  A    between atoms: C_33  and  C_53
   24  A    between atoms: O_36  and  C_40
                            x       y       z     vdW  Elec       q    Type
                         _______ _______ _______ _____ _____    ______ ____

>  <TORSDO>
F 24

$$$$
=
 OpenBabel11062418243D

 64 67  0  0  1  0  0  0  0  0999 V2000
  194.3030  172.6500  141.3160 C   0  0  0  0  0  3  0  0  0  0  0  0
  194.6770  170.6580  144.4210 C   0  0  0  0  0  2  0  0  0  0  0  0
  193.1460  169.7960  141.6950 C   0  0  1  0  0  3  0  0  0  0  0  0
  193.6890  171.3430  143.4960 C   0  0  0  0  0  0  0  0  0  0  0  0
  193.1770  170.5770  140.4080 C   0  0  2  0  0  3  0  0  0  0  0  0
  193.6330  171.5730  144.9770 C   0  0  0  0  0  2  0  0  0  0  0  0
  192.5940  170.5020  142.9170 C   0  0  0  0  0  2  0  0  0  0  0  0
  194.3570  172.4530  142.6550 C   0  0  0  0  0  0  0  0  0  0  0  0
  193.4920  172.0590  140.2200 C   0  0  2  0  0  3  0  0  0  0  0  0
  192.1010  170.1270  139.6340 O   0  0  0  0  0  1  0  0  0  0  0  0
  194.0320  172.4610  138.7010 C   0  0  1  0  0  0  0  0  0  0  0  0
  194.3880  171.0850  138.0780 C   0  0  0  0  0  1  0  0  0  0  0  0
  192.9150  172.9240  137.7890 C   0  0  0  0  0  2  0  0  0  0  0  0
  192.6220  172.1080  136.7320 O   0  0  0  0  0  0  0  0  0  0  0  0
  189.9950  171.2090  136.8150 O   0  0  0  0  0  1  0  0  0  0  0  0
  190.6080  173.6860  137.1840 O   0  0  0  0  0  1  0  0  0  0  0  0
  190.9710  172.4850  136.3850 P   0  0  0  0  0  0  0  0  0  0  0  0
  190.8190  172.8560  134.7460 O   0  0  0  0  0  0  0  0  0  0  0  0
  195.2620  173.4250  138.7470 N   0  0  0  0  0  0  0  0  0  0  0  0
  197.5770  172.1250  139.8580 O   0  0  0  0  0  1  0  0  0  0  0  0
  196.8960  171.3260  137.3970 O   0  0  0  0  0  1  0  0  0  0  0  0
  196.8780  172.6620  138.5750 P   0  0  0  0  0  0  0  0  0  0  0  0
  195.2820  174.4980  137.6970 C   0  0  0  0  0  2  0  0  0  0  0  0
  195.3650  174.0700  136.1000 C   0  0  2  0  0  3  0  0  0  0  0  0
  196.6150  173.7190  135.5400 O   0  0  0  0  0  1  0  0  0  0  0  0
  194.7330  175.0200  135.1000 C   0  0  0  0  0  2  0  0  0  0  0  0
  194.6610  176.4540  135.6390 C   0  0  1  0  0  3  0  0  0  0  0  0
  195.3800  177.3840  134.8470 O   0  0  0  0  0  1  0  0  0  0  0  0
  193.2480  176.8660  135.6140 C   0  0  0  0  0  0  0  0  0  0  0  0
  192.8790  178.0590  135.1370 O   0  0  0  0  0  0  0  0  0  0  0  0
  192.3730  176.0770  136.1460 O   0  0  0  0  0  1  0  0  0  0  0  0
  192.5610  168.5050  141.5090 O   0  0  0  0  0  0  0  0  0  0  0  0
  191.6820  168.1660  142.5700 C   0  0  0  0  0  1  0  0  0  0  0  0
  195.2190  173.3980  143.4000 C   0  0  1  0  0  3  0  0  0  0  0  0
  196.5540  173.3440  142.8980 O   0  0  0  0  0  0  0  0  0  0  0  0
  197.5410  172.9910  143.8680 C   0  0  0  0  0  1  0  0  0  0  0  0
  194.5700  174.7140  143.9440 C   0  0  1  0  0  3  0  0  0  0  0  0
  195.4020  175.7800  143.1420 C   0  0  2  0  0  3  0  0  0  0  0  0
  195.9260  176.7190  143.9640 O   0  0  0  0  0  1  0  0  0  0  0  0
  194.8440  176.2980  141.9500 O   0  0  0  0  0  0  0  0  0  0  0  0
  195.9950  176.7960  141.3540 C   0  0  0  0  0  2  0  0  0  0  0  0
  197.0150  175.9510  140.7130 C   0  0  0  0  0  1  0  0  0  0  0  0
  193.1910  174.9970  143.7040 O   0  0  0  0  0  0  0  0  0  0  0  0
  191.9290  177.1480  144.0750 C   0  0  0  0  0  1  0  0  0  0  0  0
  192.7550  175.9660  144.6710 C   0  0  1  0  0  3  0  0  0  0  0  0
  191.9270  175.2470  145.7050 C   0  0  1  0  0  3  0  0  0  0  0  0
  192.4520  175.1030  147.1020 C   0  0  0  0  0  1  0  0  0  0  0  0
  188.3160  176.1730  145.5380 C   0  0  1  0  0  3  0  0  0  0  0  0
  189.5350  172.4740  140.3260 C   0  0  0  0  0  3  0  0  0  0  0  0
  189.4780  173.8290  140.2890 C   0  0  0  0  0  3  0  0  0  0  0  0
  190.9210  177.4200  147.3290 O   0  0  0  0  0  1  0  0  0  0  0  0
  189.3030  173.9360  142.7800 C   0  0  0  0  0  0  0  0  0  0  0  0
  189.2030  174.7650  141.4560 C   0  0  2  0  0  3  0  0  0  0  0  0
  189.4170  175.3560  144.9900 C   0  0  0  0  0  0  0  0  0  0  0  0
  189.3540  171.7400  141.5950 C   0  0  0  0  0  3  0  0  0  0  0  0
  190.0040  176.4930  146.9050 C   0  0  1  0  0  3  0  0  0  0  0  0
  188.8110  177.0710  146.4960 O   0  0  0  0  0  0  0  0  0  0  0  0
  190.5380  175.7200  145.7220 N   0  0  0  0  0  0  0  0  0  0  0  0
  189.3690  174.5640  143.8660 C   0  0  0  0  0  0  0  0  0  0  0  0
  189.2780  172.4410  142.7200 C   0  0  0  0  0  3  0  0  0  0  0  0
  186.9240  176.4180  144.9590 C   0  0  0  0  0  2  0  0  0  0  0  0
  186.7720  177.9270  144.6980 C   0  0  0  0  0  1  0  0  0  0  0  0
  187.8840  175.2970  141.4520 O   0  0  0  0  0  0  0  0  0  0  0  0
  187.8190  176.6790  141.2860 C   0  0  0  0  0  1  0  0  0  0  0  0
  1  8  2  0  0  0  0
  2  6  1  0  0  0  0
  3 32  1  6  0  0  0
  3  7  1  0  0  0  0
  4  2  1  0  0  0  0
  4  6  1  0  0  0  0
  5 10  1  1  0  0  0
  5  3  1  0  0  0  0
  7  4  1  0  0  0  0
  8 34  1  0  0  0  0
  8  4  1  0  0  0  0
  9 11  1  6  0  0  0
  9  5  1  0  0  0  0
  9  1  1  0  0  0  0
 11 12  1  6  0  0  0
 11 19  1  0  0  0  0
 13 11  1  0  0  0  0
 14 13  1  0  0  0  0
 17 14  1  0  0  0  0
 17 15  1  0  0  0  0
 17 16  1  0  0  0  0
 18 17  2  0  0  0  0
 21 22  1  0  0  0  0
 22 19  1  0  0  0  0
 22 20  1  0  0  0  0
 23 19  1  0  0  0  0
 24 25  1  6  0  0  0
 24 23  1  0  0  0  0
 26 27  1  0  0  0  0
 26 24  1  0  0  0  0
 27 28  1  6  0  0  0
 29 27  1  0  0  0  0
 29 31  1  0  0  0  0
 30 29  2  0  0  0  0
 32 33  1  0  0  0  0
 34 35  1  6  0  0  0
 34 37  1  0  0  0  0
 35 36  1  0  0  0  0
 37 43  1  6  0  0  0
 38 37  1  0  0  0  0
 38 39  1  1  0  0  0
 40 38  1  0  0  0  0
 41 40  1  0  0  0  0
 42 41  1  0  0  0  0
 43 45  1  0  0  0  0
 45 44  1  6  0  0  0
 45 46  1  0  0  0  0
 46 58  1  0  0  0  0
 46 47  1  1  0  0  0
 48 61  1  6  0  0  0
 48 57  1  0  0  0  0
 49 55  1  0  0  0  0
 50 49  2  0  0  0  0
 50 53  1  0  0  0  0
 52 59  2  0  0  0  0
 53 63  1  6  0  0  0
 53 52  1  0  0  0  0
 54 48  1  0  0  0  0
 54 58  1  0  0  0  0
 55 60  2  0  0  0  0
 56 51  1  6  0  0  0
 57 56  1  0  0  0  0
 58 56  1  0  0  0  0
 59 54  2  0  0  0  0
 60 52  1  0  0  0  0
 62 61  1  0  0  0  0
 64 63  1  0  0  0  0
M  END
>  <MODEL>
4

>  <REMARK>
 VINA RESULT:      -5.5      2.786      9.087
  Name = 
  24 active torsions:
  status: ('A' for Active; 'I' for Inactive)
    1  A    between atoms: C_2  and  C_23
    2  A    between atoms: O_6  and  C_17
    3  A    between atoms: C_7  and  C_13
    4  A    between atoms: C_7  and  O_32
    5  A    between atoms: C_7  and  C_33
    6  A    between atoms: C_8  and  C_26
    7  A    between atoms: C_8  and  C_44
    8  A    between atoms: N_9  and  C_26
    9  A    between atoms: N_9  and  C_31
   10  A    between atoms: N_9  and  P_51
   11  A    between atoms: O_12  and  C_21
   12  A    between atoms: C_13  and  O_36
   13  A    between atoms: O_19  and  C_33
   14  A    between atoms: C_20  and  C_28
   15  A    between atoms: O_24  and  P_43
   16  A    between atoms: O_24  and  C_54
   17  A    between atoms: C_25  and  N_48
   18  A    between atoms: C_25  and  C_63
   19  A    between atoms: C_28  and  C_44
   20  A    between atoms: C_31  and  C_54
   21  A    between atoms: C_31  and  C_58
   22  A    between atoms: O_32  and  C_63
   23  A    between atoms: C_33  and  C_53
   24  A    between atoms: O_36  and  C_40
                            x       y       z     vdW  Elec       q    Type
                         _______ _______ _______ _____ _____    ______ ____

>  <TORSDO>
F 24

$$$$
=
 OpenBabel11062418243D

 64 67  0  0  1  0  0  0  0  0999 V2000
  192.8610  174.3290  140.4220 C   0  0  0  0  0  3  0  0  0  0  0  0
  191.3760  173.3910  137.1570 C   0  0  0  0  0  2  0  0  0  0  0  0
  189.9860  173.2130  140.0820 C   0  0  1  0  0  3  0  0  0  0  0  0
  191.8190  172.8770  138.5130 C   0  0  0  0  0  0  0  0  0  0  0  0
  190.5760  173.7720  141.3490 C   0  0  2  0  0  3  0  0  0  0  0  0
  192.2490  172.1810  137.2570 C   0  0  0  0  0  2  0  0  0  0  0  0
  190.7970  172.1660  139.3450 C   0  0  0  0  0  2  0  0  0  0  0  0
  192.8620  173.8070  139.1730 C   0  0  0  0  0  0  0  0  0  0  0  0
  192.0420  174.0900  141.6390 C   0  0  2  0  0  3  0  0  0  0  0  0
  189.9140  173.1490  142.4140 O   0  0  0  0  0  1  0  0  0  0  0  0
  192.2770  175.2180  142.8340 C   0  0  1  0  0  0  0  0  0  0  0  0
  193.1290  176.3070  142.1290 C   0  0  0  0  0  1  0  0  0  0  0  0
  191.0170  175.9890  143.1650 C   0  0  0  0  0  2  0  0  0  0  0  0
  190.9130  177.2380  142.6200 O   0  0  0  0  0  0  0  0  0  0  0  0
  188.7850  178.2230  144.1090 O   0  0  0  0  0  1  0  0  0  0  0  0
  188.9080  178.4950  141.5480 O   0  0  0  0  0  0  0  0  0  0  0  0
  189.2130  177.5460  142.6510 P   0  0  0  0  0  0  0  0  0  0  0  0
  188.3820  176.1040  142.3710 O   0  0  0  0  0  1  0  0  0  0  0  0
  193.0040  174.6140  144.0810 N   0  0  0  0  0  0  0  0  0  0  0  0
  193.4810  177.0750  145.4970 O   0  0  0  0  0  1  0  0  0  0  0  0
  194.8460  174.9600  146.4020 O   0  0  0  0  0  1  0  0  0  0  0  0
  194.0780  175.7290  144.9920 P   0  0  0  0  0  0  0  0  0  0  0  0
  192.1040  174.0650  145.1500 C   0  0  0  0  0  2  0  0  0  0  0  0
  191.4500  175.0930  146.2690 C   0  0  2  0  0  3  0  0  0  0  0  0
  191.8020  174.9490  147.6320 O   0  0  0  0  0  1  0  0  0  0  0  0
  189.9400  175.2470  146.2630 C   0  0  0  0  0  2  0  0  0  0  0  0
  189.4760  176.3850  147.1800 C   0  0  1  0  0  3  0  0  0  0  0  0
  190.2080  177.5840  146.9940 O   0  0  0  0  0  1  0  0  0  0  0  0
  188.0720  176.6780  146.8470 C   0  0  0  0  0  0  0  0  0  0  0  0
  187.4280  176.0010  145.8910 O   0  0  0  0  0  0  0  0  0  0  0  0
  187.4980  177.6690  147.4450 O   0  0  0  0  0  1  0  0  0  0  0  0
  188.6290  172.8070  140.2720 O   0  0  0  0  0  0  0  0  0  0  0  0
  187.9390  172.6770  139.0380 C   0  0  0  0  0  1  0  0  0  0  0  0
  193.9850  174.2330  138.3090 C   0  0  1  0  0  3  0  0  0  0  0  0
  193.7860  175.5770  137.8710 O   0  0  0  0  0  0  0  0  0  0  0  0
  193.8910  175.7640  136.4590 C   0  0  0  0  0  1  0  0  0  0  0  0
  195.4040  173.6370  138.5990 C   0  0  1  0  0  3  0  0  0  0  0  0
  196.0610  174.8520  139.3510 C   0  0  2  0  0  3  0  0  0  0  0  0
  197.1780  175.2800  138.7180 O   0  0  0  0  0  1  0  0  0  0  0  0
  196.1840  174.7730  140.7570 O   0  0  0  0  0  0  0  0  0  0  0  0
  196.9600  175.9020  140.9840 C   0  0  0  0  0  2  0  0  0  0  0  0
  196.7730  176.8050  142.1310 C   0  0  0  0  0  1  0  0  0  0  0  0
  195.5530  172.4950  139.4430 O   0  0  0  0  0  0  0  0  0  0  0  0
  197.9360  172.0170  140.1150 C   0  0  0  0  0  1  0  0  0  0  0  0
  196.7760  171.8300  139.0880 C   0  0  1  0  0  3  0  0  0  0  0  0
  196.4750  170.3620  138.9330 C   0  0  1  0  0  3  0  0  0  0  0  0
  197.5140  169.3500  139.3180 C   0  0  0  0  0  1  0  0  0  0  0  0
  193.2370  169.6710  140.6540 C   0  0  1  0  0  3  0  0  0  0  0  0
  197.3610  171.7880  145.2200 C   0  0  0  0  0  3  0  0  0  0  0  0
  197.0770  170.4770  145.0130 C   0  0  0  0  0  3  0  0  0  0  0  0
  194.4570  168.7630  137.6150 O   0  0  0  0  0  1  0  0  0  0  0  0
  195.7680  171.0370  142.9580 C   0  0  0  0  0  0  0  0  0  0  0  0
  196.1330  169.9000  143.9710 C   0  0  2  0  0  3  0  0  0  0  0  0
  194.5970  170.2400  140.7430 C   0  0  0  0  0  0  0  0  0  0  0  0
  196.7590  172.8390  144.3740 C   0  0  0  0  0  3  0  0  0  0  0  0
  194.0230  169.6070  138.6050 C   0  0  1  0  0  3  0  0  0  0  0  0
  193.0650  169.0230  139.4210 O   0  0  0  0  0  0  0  0  0  0  0  0
  195.1710  170.0050  139.5030 N   0  0  0  0  0  0  0  0  0  0  0  0
  195.2140  170.7120  141.8800 C   0  0  0  0  0  0  0  0  0  0  0  0
  196.0500  172.4630  143.3160 C   0  0  0  0  0  3  0  0  0  0  0  0
  192.2450  169.3770  141.7770 C   0  0  0  0  0  2  0  0  0  0  0  0
  190.9760  168.7720  141.1510 C   0  0  0  0  0  1  0  0  0  0  0  0
  194.8870  169.4760  144.5130 O   0  0  0  0  0  0  0  0  0  0  0  0
  194.6150  169.9690  145.7870 C   0  0  0  0  0  1  0  0  0  0  0  0
  1  9  1  0  0  0  0
  2  6  1  0  0  0  0
  2  4  1  0  0  0  0
  3 32  1  1  0  0  0
  3  5  1  0  0  0  0
  4  8  1  0  0  0  0
  4  7  1  0  0  0  0
  5  9  1  0  0  0  0
  5 10  1  1  0  0  0
  6  4  1  0  0  0  0
  7  3  1  0  0  0  0
  8  1  2  0  0  0  0
  9 11  1  1  0  0  0
 11 12  1  6  0  0  0
 11 13  1  0  0  0  0
 11 19  1  0  0  0  0
 14 17  1  0  0  0  0
 14 13  1  0  0  0  0
 16 17  2  0  0  0  0
 17 15  1  0  0  0  0
 18 17  1  0  0  0  0
 19 22  1  0  0  0  0
 19 23  1  0  0  0  0
 22 20  1  0  0  0  0
 22 21  1  0  0  0  0
 23 24  1  0  0  0  0
 24 25  1  1  0  0  0
 26 24  1  0  0  0  0
 26 27  1  0  0  0  0
 27 28  1  6  0  0  0
 29 27  1  0  0  0  0
 29 31  1  0  0  0  0
 30 29  2  0  0  0  0
 33 32  1  0  0  0  0
 34 35  1  1  0  0  0
 34 37  1  0  0  0  0
 34  8  1  0  0  0  0
 36 35  1  0  0  0  0
 37 38  1  0  0  0  0
 37 43  1  1  0  0  0
 38 39  1  6  0  0  0
 38 40  1  0  0  0  0
 40 41  1  0  0  0  0
 41 42  1  0  0  0  0
 45 43  1  0  0  0  0
 45 44  1  1  0  0  0
 46 45  1  0  0  0  0
 46 47  1  1  0  0  0
 46 58  1  0  0  0  0
 48 54  1  0  0  0  0
 48 61  1  1  0  0  0
 50 49  2  0  0  0  0
 52 60  1  0  0  0  0
 52 53  1  0  0  0  0
 53 63  1  1  0  0  0
 53 50  1  0  0  0  0
 54 59  2  0  0  0  0
 55 49  1  0  0  0  0
 56 51  1  6  0  0  0
 56 57  1  0  0  0  0
 56 58  1  0  0  0  0
 57 48  1  0  0  0  0
 58 54  1  0  0  0  0
 59 52  2  0  0  0  0
 60 55  2  0  0  0  0
 62 61  1  0  0  0  0
 63 64  1  0  0  0  0
M  END
>  <MODEL>
5

>  <REMARK>
 VINA RESULT:      -5.4      2.211      5.723
  Name = 
  24 active torsions:
  status: ('A' for Active; 'I' for Inactive)
    1  A    between atoms: C_2  and  C_23
    2  A    between atoms: O_6  and  C_17
    3  A    between atoms: C_7  and  C_13
    4  A    between atoms: C_7  and  O_32
    5  A    between atoms: C_7  and  C_33
    6  A    between atoms: C_8  and  C_26
    7  A    between atoms: C_8  and  C_44
    8  A    between atoms: N_9  and  C_26
    9  A    between atoms: N_9  and  C_31
   10  A    between atoms: N_9  and  P_51
   11  A    between atoms: O_12  and  C_21
   12  A    between atoms: C_13  and  O_36
   13  A    between atoms: O_19  and  C_33
   14  A    between atoms: C_20  and  C_28
   15  A    between atoms: O_24  and  P_43
   16  A    between atoms: O_24  and  C_54
   17  A    between atoms: C_25  and  N_48
   18  A    between atoms: C_25  and  C_63
   19  A    between atoms: C_28  and  C_44
   20  A    between atoms: C_31  and  C_54
   21  A    between atoms: C_31  and  C_58
   22  A    between atoms: O_32  and  C_63
   23  A    between atoms: C_33  and  C_53
   24  A    between atoms: O_36  and  C_40
                            x       y       z     vdW  Elec       q    Type
                         _______ _______ _______ _____ _____    ______ ____

>  <TORSDO>
F 24

$$$$
=
 OpenBabel11062418243D

 64 67  0  0  1  0  0  0  0  0999 V2000
  190.2640  174.4500  141.3800 C   0  0  0  0  0  3  0  0  0  0  0  0
  189.1190  176.2730  144.3990 C   0  0  0  0  0  2  0  0  0  0  0  0
  187.6150  176.0570  141.5340 C   0  0  1  0  0  3  0  0  0  0  0  0
  189.5600  176.4150  142.9550 C   0  0  0  0  0  0  0  0  0  0  0  0
  188.0430  175.1600  140.4040 C   0  0  2  0  0  3  0  0  0  0  0  0
  190.1580  177.2810  144.0240 C   0  0  0  0  0  2  0  0  0  0  0  0
  188.6130  177.0910  142.0120 C   0  0  0  0  0  2  0  0  0  0  0  0
  190.4120  175.2150  142.4880 C   0  0  0  0  0  0  0  0  0  0  0  0
  189.4250  174.5590  140.1580 C   0  0  2  0  0  3  0  0  0  0  0  0
  187.4260  175.6440  139.2450 O   0  0  0  0  0  1  0  0  0  0  0  0
  189.4220  173.1830  139.2280 C   0  0  1  0  0  0  0  0  0  0  0  0
  188.1580  172.4290  139.7170 C   0  0  0  0  0  1  0  0  0  0  0  0
  189.0680  173.4580  137.7820 C   0  0  0  0  0  2  0  0  0  0  0  0
  189.7060  174.5150  137.1950 O   0  0  0  0  0  0  0  0  0  0  0  0
  188.7450  175.0340  134.6410 O   0  0  0  0  0  0  0  0  0  0  0  0
  191.1660  174.2550  135.0620 O   0  0  0  0  0  1  0  0  0  0  0  0
  189.7660  174.0660  135.5260 P   0  0  0  0  0  0  0  0  0  0  0  0
  189.3600  172.4350  135.3750 O   0  0  0  0  0  1  0  0  0  0  0  0
  190.7250  172.3390  139.4180 N   0  0  0  0  0  0  0  0  0  0  0  0
  190.0660  169.5790  138.9330 O   0  0  0  0  0  1  0  0  0  0  0  0
  191.9370  169.9890  140.8000 O   0  0  0  0  0  1  0  0  0  0  0  0
  190.5010  170.6480  139.9780 P   0  0  0  0  0  0  0  0  0  0  0  0
  191.5760  172.1780  138.1910 C   0  0  0  0  0  2  0  0  0  0  0  0
  193.1710  172.6160  138.2450 C   0  0  2  0  0  3  0  0  0  0  0  0
  193.5520  173.9030  137.7980 O   0  0  0  0  0  1  0  0  0  0  0  0
  194.1680  171.6630  137.6110 C   0  0  0  0  0  2  0  0  0  0  0  0
  194.7850  170.7110  138.6420 C   0  0  1  0  0  3  0  0  0  0  0  0
  194.5260  169.3460  138.3650 O   0  0  0  0  0  1  0  0  0  0  0  0
  196.2460  170.8930  138.5940 C   0  0  0  0  0  0  0  0  0  0  0  0
  196.9670  171.0290  139.7120 O   0  0  0  0  0  1  0  0  0  0  0  0
  196.8090  171.0040  137.4370 O   0  0  0  0  0  0  0  0  0  0  0  0
  186.3260  176.6250  141.2900 O   0  0  0  0  0  0  0  0  0  0  0  0
  186.3290  178.0350  141.4620 C   0  0  0  0  0  1  0  0  0  0  0  0
  191.5030  174.8040  143.4000 C   0  0  1  0  0  3  0  0  0  0  0  0
  191.3620  173.4270  143.7460 O   0  0  0  0  0  0  0  0  0  0  0  0
  190.1470  173.1050  144.4230 C   0  0  0  0  0  1  0  0  0  0  0  0
  192.8960  175.5000  143.2400 C   0  0  1  0  0  3  0  0  0  0  0  0
  193.1130  176.0160  144.7090 C   0  0  2  0  0  3  0  0  0  0  0  0
  194.4080  176.3410  144.9340 O   0  0  0  0  0  1  0  0  0  0  0  0
  192.5050  175.2950  145.7620 O   0  0  0  0  0  0  0  0  0  0  0  0
  192.5290  176.2680  146.7530 C   0  0  0  0  0  2  0  0  0  0  0  0
  191.3940  176.5550  147.6440 C   0  0  0  0  0  1  0  0  0  0  0  0
  194.0530  174.7390  142.8910 O   0  0  0  0  0  0  0  0  0  0  0  0
  194.0330  176.0100  140.7130 C   0  0  0  0  0  1  0  0  0  0  0  0
  194.1140  174.6420  141.4590 C   0  0  1  0  0  3  0  0  0  0  0  0
  195.4010  173.9490  141.0970 C   0  0  1  0  0  3  0  0  0  0  0  0
  196.2120  174.4530  139.9400 C   0  0  0  0  0  1  0  0  0  0  0  0
  197.5040  173.0450  144.0450 C   0  0  1  0  0  3  0  0  0  0  0  0
  193.2650  168.1790  143.2150 C   0  0  0  0  0  3  0  0  0  0  0  0
  193.1040  169.1670  144.1300 C   0  0  0  0  0  3  0  0  0  0  0  0
  197.0010  175.9770  142.4010 O   0  0  0  0  0  1  0  0  0  0  0  0
  195.0750  170.4020  143.2110 C   0  0  0  0  0  0  0  0  0  0  0  0
  194.0410  170.3380  144.3860 C   0  0  2  0  0  3  0  0  0  0  0  0
  196.4810  172.6190  143.0690 C   0  0  0  0  0  0  0  0  0  0  0  0
  194.4280  168.1690  142.3030 C   0  0  0  0  0  3  0  0  0  0  0  0
  197.3940  174.6750  142.5780 C   0  0  1  0  0  3  0  0  0  0  0  0
  197.7890  174.4090  143.8810 O   0  0  0  0  0  0  0  0  0  0  0  0
  196.2560  173.7300  142.2700 N   0  0  0  0  0  0  0  0  0  0  0  0
  195.7670  171.4420  143.0910 C   0  0  0  0  0  0  0  0  0  0  0  0
  195.2330  169.2240  142.3020 C   0  0  0  0  0  3  0  0  0  0  0  0
  197.9410  172.3580  145.3360 C   0  0  0  0  0  2  0  0  0  0  0  0
  196.8020  172.4950  146.3620 C   0  0  0  0  0  1  0  0  0  0  0  0
  194.8280  170.1830  145.5610 O   0  0  0  0  0  0  0  0  0  0  0  0
  195.5080  168.9690  145.6440 C   0  0  0  0  0  1  0  0  0  0  0  0
  1  8  2  0  0  0  0
  3 32  1  6  0  0  0
  3  7  1  0  0  0  0
  4  6  1  0  0  0  0
  4  2  1  0  0  0  0
  5 10  1  6  0  0  0
  5  3  1  0  0  0  0
  6  2  1  0  0  0  0
  7  4  1  0  0  0  0
  8  4  1  0  0  0  0
  8 34  1  0  0  0  0
  9 11  1  1  0  0  0
  9  5  1  0  0  0  0
  9  1  1  0  0  0  0
 11 19  1  0  0  0  0
 11 12  1  1  0  0  0
 13 11  1  0  0  0  0
 14 13  1  0  0  0  0
 15 17  2  0  0  0  0
 16 17  1  0  0  0  0
 17 14  1  0  0  0  0
 18 17  1  0  0  0  0
 19 22  1  0  0  0  0
 20 22  1  0  0  0  0
 22 21  1  0  0  0  0
 23 24  1  0  0  0  0
 23 19  1  0  0  0  0
 24 25  1  6  0  0  0
 26 24  1  0  0  0  0
 26 27  1  0  0  0  0
 27 28  1  6  0  0  0
 29 27  1  0  0  0  0
 29 30  1  0  0  0  0
 31 29  2  0  0  0  0
 32 33  1  0  0  0  0
 34 35  1  6  0  0  0
 35 36  1  0  0  0  0
 37 43  1  1  0  0  0
 37 34  1  0  0  0  0
 37 38  1  0  0  0  0
 38 39  1  1  0  0  0
 38 40  1  0  0  0  0
 40 41  1  0  0  0  0
 41 42  1  0  0  0  0
 45 44  1  6  0  0  0
 45 43  1  0  0  0  0
 46 47  1  6  0  0  0
 46 45  1  0  0  0  0
 46 58  1  0  0  0  0
 48 61  1  1  0  0  0
 49 50  2  0  0  0  0
 50 53  1  0  0  0  0
 52 53  1  0  0  0  0
 53 63  1  1  0  0  0
 54 59  2  0  0  0  0
 54 48  1  0  0  0  0
 55 49  1  0  0  0  0
 56 51  1  1  0  0  0
 56 57  1  0  0  0  0
 57 48  1  0  0  0  0
 58 56  1  0  0  0  0
 58 54  1  0  0  0  0
 59 52  2  0  0  0  0
 60 55  2  0  0  0  0
 60 52  1  0  0  0  0
 61 62  1  0  0  0  0
 63 64  1  0  0  0  0
M  END
>  <MODEL>
6

>  <REMARK>
 VINA RESULT:      -4.7      3.044      8.635
  Name = 
  24 active torsions:
  status: ('A' for Active; 'I' for Inactive)
    1  A    between atoms: C_2  and  C_23
    2  A    between atoms: O_6  and  C_17
    3  A    between atoms: C_7  and  C_13
    4  A    between atoms: C_7  and  O_32
    5  A    between atoms: C_7  and  C_33
    6  A    between atoms: C_8  and  C_26
    7  A    between atoms: C_8  and  C_44
    8  A    between atoms: N_9  and  C_26
    9  A    between atoms: N_9  and  C_31
   10  A    between atoms: N_9  and  P_51
   11  A    between atoms: O_12  and  C_21
   12  A    between atoms: C_13  and  O_36
   13  A    between atoms: O_19  and  C_33
   14  A    between atoms: C_20  and  C_28
   15  A    between atoms: O_24  and  P_43
   16  A    between atoms: O_24  and  C_54
   17  A    between atoms: C_25  and  N_48
   18  A    between atoms: C_25  and  C_63
   19  A    between atoms: C_28  and  C_44
   20  A    between atoms: C_31  and  C_54
   21  A    between atoms: C_31  and  C_58
   22  A    between atoms: O_32  and  C_63
   23  A    between atoms: C_33  and  C_53
   24  A    between atoms: O_36  and  C_40
                            x       y       z     vdW  Elec       q    Type
                         _______ _______ _______ _____ _____    ______ ____

>  <TORSDO>
F 24

$$$$
=
 OpenBabel11062418243D

 64 67  0  0  1  0  0  0  0  0999 V2000
  194.5180  172.5310  141.5140 C   0  0  0  0  0  3  0  0  0  0  0  0
  194.8790  176.1820  140.9840 C   0  0  0  0  0  2  0  0  0  0  0  0
  196.8190  173.8270  139.8850 C   0  0  1  0  0  3  0  0  0  0  0  0
  195.5080  174.9490  141.6030 C   0  0  0  0  0  0  0  0  0  0  0  0
  196.5240  172.3540  139.9860 C   0  0  2  0  0  3  0  0  0  0  0  0
  195.3510  176.2090  142.4020 C   0  0  0  0  0  2  0  0  0  0  0  0
  196.9030  174.6060  141.1820 C   0  0  0  0  0  2  0  0  0  0  0  0
  194.4680  173.8370  141.8650 C   0  0  0  0  0  0  0  0  0  0  0  0
  195.5830  171.6520  140.9630 C   0  0  2  0  0  3  0  0  0  0  0  0
  197.7380  171.6830  139.7940 O   0  0  0  0  0  1  0  0  0  0  0  0
  195.0270  170.1770  140.4420 C   0  0  1  0  0  0  0  0  0  0  0  0
  196.2070  169.2220  140.7600 C   0  0  0  0  0  1  0  0  0  0  0  0
  193.9380  169.6170  141.3340 C   0  0  0  0  0  2  0  0  0  0  0  0
  194.2500  169.4890  142.6580 O   0  0  0  0  0  0  0  0  0  0  0  0
  191.8950  170.7130  143.4780 O   0  0  0  0  0  1  0  0  0  0  0  0
  191.9430  168.2970  142.5800 O   0  0  0  0  0  0  0  0  0  0  0  0
  192.7090  169.2650  143.4090 P   0  0  0  0  0  0  0  0  0  0  0  0
  192.9320  168.6060  144.9470 O   0  0  0  0  0  1  0  0  0  0  0  0
  194.6660  170.1850  138.9200 N   0  0  0  0  0  0  0  0  0  0  0  0
  195.2340  168.9910  136.3640 O   0  0  0  0  0  1  0  0  0  0  0  0
  197.3250  169.1750  138.0220 O   0  0  0  0  0  1  0  0  0  0  0  0
  195.5570  169.0190  137.8860 P   0  0  0  0  0  0  0  0  0  0  0  0
  193.2300  169.8960  138.5950 C   0  0  0  0  0  2  0  0  0  0  0  0
  192.4000  170.9210  137.5950 C   0  0  2  0  0  3  0  0  0  0  0  0
  191.5300  170.3830  136.6170 O   0  0  0  0  0  1  0  0  0  0  0  0
  193.2100  171.9790  136.8680 C   0  0  0  0  0  2  0  0  0  0  0  0
  192.3220  173.0980  136.3110 C   0  0  1  0  0  3  0  0  0  0  0  0
  191.2120  173.3930  137.1400 O   0  0  0  0  0  1  0  0  0  0  0  0
  193.1430  174.3180  136.2360 C   0  0  0  0  0  0  0  0  0  0  0  0
  192.6120  175.5280  136.4440 O   0  0  0  0  0  1  0  0  0  0  0  0
  194.3790  174.2010  135.8790 O   0  0  0  0  0  0  0  0  0  0  0  0
  197.9380  174.0790  139.0330 O   0  0  0  0  0  0  0  0  0  0  0  0
  197.7900  175.2920  138.3110 C   0  0  0  0  0  1  0  0  0  0  0  0
  193.2210  174.2650  142.5380 C   0  0  1  0  0  3  0  0  0  0  0  0
  192.0860  173.7580  141.8370 O   0  0  0  0  0  0  0  0  0  0  0  0
  192.0760  174.0400  140.4380 C   0  0  0  0  0  1  0  0  0  0  0  0
  193.2480  174.4420  144.0940 C   0  0  1  0  0  3  0  0  0  0  0  0
  194.3460  173.3810  144.4700 C   0  0  2  0  0  3  0  0  0  0  0  0
  193.8150  172.3410  145.1550 O   0  0  0  0  0  1  0  0  0  0  0  0
  195.5740  173.8520  144.9890 O   0  0  0  0  0  0  0  0  0  0  0  0
  196.3450  172.7090  144.8330 C   0  0  0  0  0  2  0  0  0  0  0  0
  196.8130  171.8790  145.9550 C   0  0  0  0  0  1  0  0  0  0  0  0
  193.6510  175.6810  144.6760 O   0  0  0  0  0  0  0  0  0  0  0  0
  191.7890  177.1230  143.7740 C   0  0  0  0  0  1  0  0  0  0  0  0
  192.4690  176.4330  144.9970 C   0  0  1  0  0  3  0  0  0  0  0  0
  191.4890  175.4960  145.6530 C   0  0  1  0  0  3  0  0  0  0  0  0
  191.8820  174.7760  146.9080 C   0  0  0  0  0  1  0  0  0  0  0  0
  187.9960  176.8020  145.8000 C   0  0  1  0  0  3  0  0  0  0  0  0
  188.5430  173.5650  140.1820 C   0  0  0  0  0  3  0  0  0  0  0  0
  188.6320  174.9150  140.2830 C   0  0  0  0  0  3  0  0  0  0  0  0
  190.8070  177.5780  147.5430 O   0  0  0  0  0  1  0  0  0  0  0  0
  188.5940  174.7770  142.7790 C   0  0  0  0  0  0  0  0  0  0  0  0
  188.5190  175.7460  141.5510 C   0  0  2  0  0  3  0  0  0  0  0  0
  188.9730  175.9370  145.1080 C   0  0  0  0  0  0  0  0  0  0  0  0
  188.3460  172.7250  141.3810 C   0  0  0  0  0  3  0  0  0  0  0  0
  189.7750  176.8000  147.0860 C   0  0  1  0  0  3  0  0  0  0  0  0
  188.6330  177.5380  146.8100 O   0  0  0  0  0  0  0  0  0  0  0  0
  190.1620  176.1050  145.8020 N   0  0  0  0  0  0  0  0  0  0  0  0
  188.7820  175.2770  143.9150 C   0  0  0  0  0  0  0  0  0  0  0  0
  188.4040  173.3070  142.5720 C   0  0  0  0  0  3  0  0  0  0  0  0
  186.6120  177.2480  145.3340 C   0  0  0  0  0  2  0  0  0  0  0  0
  185.5860  176.8220  146.3990 C   0  0  0  0  0  1  0  0  0  0  0  0
  187.2660  176.4090  141.6810 O   0  0  0  0  0  0  0  0  0  0  0  0
  186.7970  176.9920  140.5060 C   0  0  0  0  0  1  0  0  0  0  0  0
  1  8  2  0  0  0  0
  2  4  1  0  0  0  0
  2  6  1  0  0  0  0
  3 32  1  1  0  0  0
  3  5  1  0  0  0  0
  3  7  1  0  0  0  0
  4  8  1  0  0  0  0
  4  6  1  0  0  0  0
  5 10  1  1  0  0  0
  5  9  1  0  0  0  0
  7  4  1  0  0  0  0
  8 34  1  0  0  0  0
  9 11  1  6  0  0  0
  9  1  1  0  0  0  0
 11 12  1  1  0  0  0
 11 13  1  0  0  0  0
 13 14  1  0  0  0  0
 14 17  1  0  0  0  0
 16 17  2  0  0  0  0
 17 15  1  0  0  0  0
 17 18  1  0  0  0  0
 19 11  1  0  0  0  0
 20 22  1  0  0  0  0
 22 21  1  0  0  0  0
 22 19  1  0  0  0  0
 23 19  1  0  0  0  0
 24 25  1  6  0  0  0
 24 23  1  0  0  0  0
 26 24  1  0  0  0  0
 27 26  1  0  0  0  0
 27 28  1  1  0  0  0
 29 27  1  0  0  0  0
 29 30  1  0  0  0  0
 31 29  2  0  0  0  0
 33 32  1  0  0  0  0
 34 35  1  1  0  0  0
 34 37  1  0  0  0  0
 36 35  1  0  0  0  0
 37 38  1  0  0  0  0
 37 43  1  6  0  0  0
 38 40  1  0  0  0  0
 38 39  1  1  0  0  0
 41 40  1  0  0  0  0
 41 42  1  0  0  0  0
 43 45  1  0  0  0  0
 45 44  1  6  0  0  0
 45 46  1  0  0  0  0
 46 58  1  0  0  0  0
 46 47  1  1  0  0  0
 48 61  1  6  0  0  0
 48 57  1  0  0  0  0
 49 50  2  0  0  0  0
 49 55  1  0  0  0  0
 50 53  1  0  0  0  0
 52 59  2  0  0  0  0
 53 63  1  6  0  0  0
 53 52  1  0  0  0  0
 54 48  1  0  0  0  0
 54 58  1  0  0  0  0
 55 60  2  0  0  0  0
 56 51  1  6  0  0  0
 57 56  1  0  0  0  0
 58 56  1  0  0  0  0
 59 54  2  0  0  0  0
 60 52  1  0  0  0  0
 61 62  1  0  0  0  0
 64 63  1  0  0  0  0
M  END
>  <MODEL>
7

>  <REMARK>
 VINA RESULT:      -4.7      2.934      9.401
  Name = 
  24 active torsions:
  status: ('A' for Active; 'I' for Inactive)
    1  A    between atoms: C_2  and  C_23
    2  A    between atoms: O_6  and  C_17
    3  A    between atoms: C_7  and  C_13
    4  A    between atoms: C_7  and  O_32
    5  A    between atoms: C_7  and  C_33
    6  A    between atoms: C_8  and  C_26
    7  A    between atoms: C_8  and  C_44
    8  A    between atoms: N_9  and  C_26
    9  A    between atoms: N_9  and  C_31
   10  A    between atoms: N_9  and  P_51
   11  A    between atoms: O_12  and  C_21
   12  A    between atoms: C_13  and  O_36
   13  A    between atoms: O_19  and  C_33
   14  A    between atoms: C_20  and  C_28
   15  A    between atoms: O_24  and  P_43
   16  A    between atoms: O_24  and  C_54
   17  A    between atoms: C_25  and  N_48
   18  A    between atoms: C_25  and  C_63
   19  A    between atoms: C_28  and  C_44
   20  A    between atoms: C_31  and  C_54
   21  A    between atoms: C_31  and  C_58
   22  A    between atoms: O_32  and  C_63
   23  A    between atoms: C_33  and  C_53
   24  A    between atoms: O_36  and  C_40
                            x       y       z     vdW  Elec       q    Type
                         _______ _______ _______ _____ _____    ______ ____

>  <TORSDO>
F 24

$$$$
=
 OpenBabel11062418243D

 64 67  0  0  1  0  0  0  0  0999 V2000
  193.8090  171.9830  140.6940 C   0  0  0  0  0  3  0  0  0  0  0  0
  190.4080  172.9160  141.8370 C   0  0  0  0  0  2  0  0  0  0  0  0
  191.2000  170.7330  139.5720 C   0  0  1  0  0  3  0  0  0  0  0  0
  191.3630  172.9070  140.6590 C   0  0  0  0  0  0  0  0  0  0  0  0
  192.6020  170.2730  139.2760 C   0  0  2  0  0  3  0  0  0  0  0  0
  190.6190  174.1550  141.0280 C   0  0  0  0  0  2  0  0  0  0  0  0
  190.9100  172.2120  139.4130 C   0  0  0  0  0  2  0  0  0  0  0  0
  192.8390  172.8300  141.1110 C   0  0  0  0  0  0  0  0  0  0  0  0
  193.9110  170.9970  139.5860 C   0  0  2  0  0  3  0  0  0  0  0  0
  192.5750  169.6790  138.0090 O   0  0  0  0  0  1  0  0  0  0  0  0
  195.2370  170.0040  139.6960 C   0  0  1  0  0  0  0  0  0  0  0  0
  194.6330  168.5870  139.5170 C   0  0  0  0  0  1  0  0  0  0  0  0
  196.1410  170.1020  138.4850 C   0  0  0  0  0  2  0  0  0  0  0  0
  195.6440  170.7930  137.4160 O   0  0  0  0  0  0  0  0  0  0  0  0
  197.4210  168.8620  136.5050 O   0  0  0  0  0  1  0  0  0  0  0  0
  195.0080  169.0330  135.6140 O   0  0  0  0  0  1  0  0  0  0  0  0
  196.1640  169.8550  136.0600 P   0  0  0  0  0  0  0  0  0  0  0  0
  196.6090  170.8920  134.8050 O   0  0  0  0  0  0  0  0  0  0  0  0
  195.9800  170.1620  141.0640 N   0  0  0  0  0  0  0  0  0  0  0  0
  197.0580  168.6550  143.2660 O   0  0  0  0  0  1  0  0  0  0  0  0
  194.4200  168.4020  142.8990 O   0  0  0  0  0  1  0  0  0  0  0  0
  195.9950  168.7180  142.1310 P   0  0  0  0  0  0  0  0  0  0  0  0
  197.4330  170.5280  140.9710 C   0  0  0  0  0  2  0  0  0  0  0  0
  197.9000  172.0860  141.2770 C   0  0  2  0  0  3  0  0  0  0  0  0
  197.2790  172.8030  142.3260 O   0  0  0  0  0  1  0  0  0  0  0  0
  197.9200  173.0420  140.0990 C   0  0  0  0  0  2  0  0  0  0  0  0
  196.9990  174.2480  140.3240 C   0  0  1  0  0  3  0  0  0  0  0  0
  197.6690  175.3630  140.8860 O   0  0  0  0  0  1  0  0  0  0  0  0
  196.4880  174.6670  139.0080 C   0  0  0  0  0  0  0  0  0  0  0  0
  195.2490  174.3580  138.6120 O   0  0  0  0  0  1  0  0  0  0  0  0
  197.2980  175.2730  138.2040 O   0  0  0  0  0  0  0  0  0  0  0  0
  190.2320  169.9200  138.9070 O   0  0  0  0  0  0  0  0  0  0  0  0
  189.7520  170.5340  137.7200 C   0  0  0  0  0  1  0  0  0  0  0  0
  193.2350  173.7680  142.1840 C   0  0  1  0  0  3  0  0  0  0  0  0
  193.6400  175.0160  141.6210 O   0  0  0  0  0  0  0  0  0  0  0  0
  194.4000  175.8460  142.5000 C   0  0  0  0  0  1  0  0  0  0  0  0
  192.5060  173.6580  143.5650 C   0  0  1  0  0  3  0  0  0  0  0  0
  193.4610  172.6460  144.2980 C   0  0  2  0  0  3  0  0  0  0  0  0
  193.0530  171.3670  144.1260 O   0  0  0  0  0  1  0  0  0  0  0  0
  193.8670  172.9540  145.6170 O   0  0  0  0  0  0  0  0  0  0  0  0
  195.2420  172.8300  145.4700 C   0  0  0  0  0  2  0  0  0  0  0  0
  195.9670  171.5570  145.6130 C   0  0  0  0  0  1  0  0  0  0  0  0
  192.3780  174.7990  144.4120 O   0  0  0  0  0  0  0  0  0  0  0  0
  190.1660  174.1710  145.4480 C   0  0  0  0  0  1  0  0  0  0  0  0
  190.9840  175.1260  144.5230 C   0  0  1  0  0  3  0  0  0  0  0  0
  190.8790  176.5370  145.0400 C   0  0  1  0  0  3  0  0  0  0  0  0
  191.3060  177.6780  144.1670 C   0  0  0  0  0  1  0  0  0  0  0  0
  187.3950  177.0910  146.2580 C   0  0  1  0  0  3  0  0  0  0  0  0
  187.0710  176.7590  139.7680 C   0  0  0  0  0  3  0  0  0  0  0  0
  187.0780  177.9250  140.4620 C   0  0  0  0  0  3  0  0  0  0  0  0
  190.4280  177.4510  147.7480 O   0  0  0  0  0  1  0  0  0  0  0  0
  187.5390  176.7070  142.5960 C   0  0  0  0  0  0  0  0  0  0  0  0
  187.1540  178.0910  141.9720 C   0  0  2  0  0  3  0  0  0  0  0  0
  188.2790  176.7780  145.1180 C   0  0  0  0  0  0  0  0  0  0  0  0
  187.1750  175.4600  140.4650 C   0  0  0  0  0  3  0  0  0  0  0  0
  189.3870  176.8020  147.1360 C   0  0  1  0  0  3  0  0  0  0  0  0
  188.1610  177.4010  147.3920 O   0  0  0  0  0  0  0  0  0  0  0  0
  189.5650  176.8070  145.6370 N   0  0  0  0  0  0  0  0  0  0  0  0
  187.9080  176.6840  143.7960 C   0  0  0  0  0  0  0  0  0  0  0  0
  187.4210  175.4660  141.7690 C   0  0  0  0  0  3  0  0  0  0  0  0
  185.9180  177.4760  146.2480 C   0  0  0  0  0  2  0  0  0  0  0  0
  185.5890  178.1520  147.5910 C   0  0  0  0  0  1  0  0  0  0  0  0
  185.9060  178.4280  142.5650 O   0  0  0  0  0  0  0  0  0  0  0  0
  184.7950  177.8940  141.9150 C   0  0  0  0  0  1  0  0  0  0  0  0
  1  8  2  0  0  0  0
  3 32  1  6  0  0  0
  4  6  1  0  0  0  0
  4  8  1  0  0  0  0
  4  2  1  0  0  0  0
  5 10  1  6  0  0  0
  5  3  1  0  0  0  0
  5  9  1  0  0  0  0
  6  2  1  0  0  0  0
  7  3  1  0  0  0  0
  7  4  1  0  0  0  0
  8 34  1  0  0  0  0
  9 11  1  1  0  0  0
  9  1  1  0  0  0  0
 11 12  1  6  0  0  0
 11 19  1  0  0  0  0
 13 11  1  0  0  0  0
 14 13  1  0  0  0  0
 16 17  1  0  0  0  0
 17 15  1  0  0  0  0
 17 14  1  0  0  0  0
 18 17  2  0  0  0  0
 19 22  1  0  0  0  0
 22 21  1  0  0  0  0
 22 20  1  0  0  0  0
 23 19  1  0  0  0  0
 23 24  1  0  0  0  0
 24 25  1  1  0  0  0
 26 27  1  0  0  0  0
 26 24  1  0  0  0  0
 27 28  1  6  0  0  0
 29 27  1  0  0  0  0
 30 29  1  0  0  0  0
 31 29  2  0  0  0  0
 33 32  1  0  0  0  0
 34 35  1  6  0  0  0
 34 37  1  0  0  0  0
 35 36  1  0  0  0  0
 37 38  1  0  0  0  0
 37 43  1  1  0  0  0
 38 39  1  1  0  0  0
 38 40  1  0  0  0  0
 41 42  1  0  0  0  0
 41 40  1  0  0  0  0
 43 45  1  0  0  0  0
 45 46  1  0  0  0  0
 45 44  1  1  0  0  0
 46 47  1  6  0  0  0
 46 58  1  0  0  0  0
 48 61  1  6  0  0  0
 48 57  1  0  0  0  0
 49 50  2  0  0  0  0
 49 55  1  0  0  0  0
 50 53  1  0  0  0  0
 52 59  2  0  0  0  0
 53 63  1  1  0  0  0
 53 52  1  0  0  0  0
 54 58  1  0  0  0  0
 54 48  1  0  0  0  0
 55 60  2  0  0  0  0
 56 57  1  0  0  0  0
 56 51  1  1  0  0  0
 58 56  1  0  0  0  0
 59 54  2  0  0  0  0
 60 52  1  0  0  0  0
 61 62  1  0  0  0  0
 64 63  1  0  0  0  0
M  END
>  <MODEL>
8

>  <REMARK>
 VINA RESULT:      -4.6      3.361      9.952
  Name = 
  24 active torsions:
  status: ('A' for Active; 'I' for Inactive)
    1  A    between atoms: C_2  and  C_23
    2  A    between atoms: O_6  and  C_17
    3  A    between atoms: C_7  and  C_13
    4  A    between atoms: C_7  and  O_32
    5  A    between atoms: C_7  and  C_33
    6  A    between atoms: C_8  and  C_26
    7  A    between atoms: C_8  and  C_44
    8  A    between atoms: N_9  and  C_26
    9  A    between atoms: N_9  and  C_31
   10  A    between atoms: N_9  and  P_51
   11  A    between atoms: O_12  and  C_21
   12  A    between atoms: C_13  and  O_36
   13  A    between atoms: O_19  and  C_33
   14  A    between atoms: C_20  and  C_28
   15  A    between atoms: O_24  and  P_43
   16  A    between atoms: O_24  and  C_54
   17  A    between atoms: C_25  and  N_48
   18  A    between atoms: C_25  and  C_63
   19  A    between atoms: C_28  and  C_44
   20  A    between atoms: C_31  and  C_54
   21  A    between atoms: C_31  and  C_58
   22  A    between atoms: O_32  and  C_63
   23  A    between atoms: C_33  and  C_53
   24  A    between atoms: O_36  and  C_40
                            x       y       z     vdW  Elec       q    Type
                         _______ _______ _______ _____ _____    ______ ____

>  <TORSDO>
F 24

$$$$
=
 OpenBabel11062418243D

 64 67  0  0  1  0  0  0  0  0999 V2000
  192.8520  175.0200  142.8940 C   0  0  0  0  0  3  0  0  0  0  0  0
  196.3510  174.3390  143.9150 C   0  0  0  0  0  2  0  0  0  0  0  0
  194.5040  176.8670  144.7610 C   0  0  1  0  0  3  0  0  0  0  0  0
  195.4400  175.2880  143.1610 C   0  0  0  0  0  0  0  0  0  0  0  0
  193.0360  176.9990  144.4550 C   0  0  2  0  0  3  0  0  0  0  0  0
  196.7020  174.7800  142.5300 C   0  0  0  0  0  2  0  0  0  0  0  0
  195.4450  176.7240  143.5820 C   0  0  0  0  0  2  0  0  0  0  0  0
  194.1280  174.6020  142.7170 C   0  0  0  0  0  0  0  0  0  0  0  0
  192.2390  176.2900  143.3620 C   0  0  2  0  0  3  0  0  0  0  0  0
  192.7110  178.3530  144.6000 O   0  0  0  0  0  1  0  0  0  0  0  0
  190.6100  176.1730  143.6630 C   0  0  1  0  0  0  0  0  0  0  0  0
  190.2220  177.6190  144.0720 C   0  0  0  0  0  1  0  0  0  0  0  0
  189.7960  175.9890  142.4000 C   0  0  0  0  0  2  0  0  0  0  0  0
  188.4810  175.6590  142.5720 O   0  0  0  0  0  0  0  0  0  0  0  0
  188.4010  178.1920  141.4350 O   0  0  0  0  0  1  0  0  0  0  0  0
  187.7340  176.0770  140.1200 O   0  0  0  0  0  0  0  0  0  0  0  0
  187.6600  176.7030  141.4660 P   0  0  0  0  0  0  0  0  0  0  0  0
  186.0400  176.8280  141.9200 O   0  0  0  0  0  1  0  0  0  0  0  0
  190.2910  175.1350  144.7880 N   0  0  0  0  0  0  0  0  0  0  0  0
  190.6870  174.9720  147.6340 O   0  0  0  0  0  1  0  0  0  0  0  0
  192.7130  174.0500  146.1500 O   0  0  0  0  0  1  0  0  0  0  0  0
  191.3450  175.1870  146.2400 P   0  0  0  0  0  0  0  0  0  0  0  0
  188.9100  175.2170  145.3710 C   0  0  0  0  0  2  0  0  0  0  0  0
  188.2760  176.6980  145.7510 C   0  0  2  0  0  3  0  0  0  0  0  0
  188.4580  177.2170  147.0540 O   0  0  0  0  0  1  0  0  0  0  0  0
  186.8070  176.9190  145.4370 C   0  0  0  0  0  2  0  0  0  0  0  0
  186.4210  178.4010  145.5170 C   0  0  1  0  0  3  0  0  0  0  0  0
  186.1870  178.9850  144.2480 O   0  0  0  0  0  1  0  0  0  0  0  0
  185.1610  178.4890  146.2740 C   0  0  0  0  0  0  0  0  0  0  0  0
  185.1070  178.1840  147.5750 O   0  0  0  0  0  1  0  0  0  0  0  0
  184.0820  178.7890  145.6290 O   0  0  0  0  0  0  0  0  0  0  0  0
  194.9390  177.8730  145.6780 O   0  0  0  0  0  0  0  0  0  0  0  0
  194.5960  177.5510  147.0170 C   0  0  0  0  0  1  0  0  0  0  0  0
  194.2780  173.2830  142.0630 C   0  0  1  0  0  3  0  0  0  0  0  0
  193.3770  172.3410  142.6440 O   0  0  0  0  0  0  0  0  0  0  0  0
  193.9070  171.6200  143.7570 C   0  0  0  0  0  1  0  0  0  0  0  0
  194.6760  173.2540  140.5490 C   0  0  1  0  0  3  0  0  0  0  0  0
  195.4490  171.8860  140.4970 C   0  0  2  0  0  3  0  0  0  0  0  0
  196.5660  171.9200  141.2610 O   0  0  0  0  0  1  0  0  0  0  0  0
  195.6270  171.2720  139.2350 O   0  0  0  0  0  0  0  0  0  0  0  0
  194.9450  170.0840  139.4580 C   0  0  0  0  0  2  0  0  0  0  0  0
  194.6660  169.0920  138.4080 C   0  0  0  0  0  1  0  0  0  0  0  0
  193.6720  173.2040  139.5360 O   0  0  0  0  0  0  0  0  0  0  0  0
  194.8690  175.1390  138.4480 C   0  0  0  0  0  1  0  0  0  0  0  0
  193.5360  174.5170  138.9700 C   0  0  1  0  0  3  0  0  0  0  0  0
  192.5450  174.4330  137.8380 C   0  0  1  0  0  3  0  0  0  0  0  0
  192.7070  175.3290  136.6460 C   0  0  0  0  0  1  0  0  0  0  0  0
  191.6650  170.9110  136.9700 C   0  0  1  0  0  3  0  0  0  0  0  0
  188.8290  172.1890  142.6850 C   0  0  0  0  0  3  0  0  0  0  0  0
  189.9980  171.5110  142.5610 C   0  0  0  0  0  3  0  0  0  0  0  0
  194.0360  173.0390  135.7870 O   0  0  0  0  0  1  0  0  0  0  0  0
  190.0780  172.0040  140.1120 C   0  0  0  0  0  0  0  0  0  0  0  0
  190.7270  171.1740  141.2700 C   0  0  2  0  0  3  0  0  0  0  0  0
  191.4450  172.0640  137.8670 C   0  0  0  0  0  0  0  0  0  0  0  0
  188.1310  172.7230  141.4980 C   0  0  0  0  0  3  0  0  0  0  0  0
  192.7760  172.5710  136.0570 C   0  0  1  0  0  3  0  0  0  0  0  0
  192.7160  171.1850  136.0820 O   0  0  0  0  0  0  0  0  0  0  0  0
  192.3120  173.0470  137.4130 N   0  0  0  0  0  0  0  0  0  0  0  0
  190.6930  172.0740  139.0190 C   0  0  0  0  0  0  0  0  0  0  0  0
  188.7450  172.6500  140.3240 C   0  0  0  0  0  3  0  0  0  0  0  0
  191.2140  169.4630  137.1430 C   0  0  0  0  0  2  0  0  0  0  0  0
  189.7050  169.4640  137.4490 C   0  0  0  0  0  1  0  0  0  0  0  0
  190.5780  169.8150  140.8770 O   0  0  0  0  0  0  0  0  0  0  0  0
  191.7760  169.1130  140.7620 C   0  0  0  0  0  1  0  0  0  0  0  0
  1  9  1  0  0  0  0
  3 32  1  6  0  0  0
  4  7  1  0  0  0  0
  4  2  1  0  0  0  0
  5 10  1  6  0  0  0
  5  3  1  0  0  0  0
  6  4  1  0  0  0  0
  6  2  1  0  0  0  0
  7  3  1  0  0  0  0
  8  1  2  0  0  0  0
  8  4  1  0  0  0  0
  9 11  1  1  0  0  0
  9  5  1  0  0  0  0
 11 12  1  1  0  0  0
 11 19  1  0  0  0  0
 13 14  1  0  0  0  0
 13 11  1  0  0  0  0
 15 17  1  0  0  0  0
 16 17  2  0  0  0  0
 17 18  1  0  0  0  0
 17 14  1  0  0  0  0
 19 23  1  0  0  0  0
 19 22  1  0  0  0  0
 21 22  1  0  0  0  0
 22 20  1  0  0  0  0
 23 24  1  0  0  0  0
 24 25  1  1  0  0  0
 26 27  1  0  0  0  0
 26 24  1  0  0  0  0
 27 28  1  6  0  0  0
 27 29  1  0  0  0  0
 29 30  1  0  0  0  0
 31 29  2  0  0  0  0
 32 33  1  0  0  0  0
 34 35  1  6  0  0  0
 34  8  1  0  0  0  0
 35 36  1  0  0  0  0
 37 43  1  6  0  0  0
 37 34  1  0  0  0  0
 38 37  1  0  0  0  0
 38 39  1  6  0  0  0
 40 41  1  0  0  0  0
 40 38  1  0  0  0  0
 42 41  1  0  0  0  0
 45 44  1  6  0  0  0
 45 43  1  0  0  0  0
 46 47  1  6  0  0  0
 46 45  1  0  0  0  0
 48 61  1  1  0  0  0
 48 54  1  0  0  0  0
 50 49  2  0  0  0  0
 52 60  1  0  0  0  0
 52 53  1  0  0  0  0
 53 63  1  6  0  0  0
 53 50  1  0  0  0  0
 54 59  2  0  0  0  0
 55 49  1  0  0  0  0
 56 51  1  1  0  0  0
 56 57  1  0  0  0  0
 56 58  1  0  0  0  0
 57 48  1  0  0  0  0
 58 46  1  0  0  0  0
 58 54  1  0  0  0  0
 59 52  2  0  0  0  0
 60 55  2  0  0  0  0
 61 62  1  0  0  0  0
 64 63  1  0  0  0  0
M  END
>  <MODEL>
9

>  <REMARK>
 VINA RESULT:      -4.5      1.942      4.746
  Name = 
  24 active torsions:
  status: ('A' for Active; 'I' for Inactive)
    1  A    between atoms: C_2  and  C_23
    2  A    between atoms: O_6  and  C_17
    3  A    between atoms: C_7  and  C_13
    4  A    between atoms: C_7  and  O_32
    5  A    between atoms: C_7  and  C_33
    6  A    between atoms: C_8  and  C_26
    7  A    between atoms: C_8  and  C_44
    8  A    between atoms: N_9  and  C_26
    9  A    between atoms: N_9  and  C_31
   10  A    between atoms: N_9  and  P_51
   11  A    between atoms: O_12  and  C_21
   12  A    between atoms: C_13  and  O_36
   13  A    between atoms: O_19  and  C_33
   14  A    between atoms: C_20  and  C_28
   15  A    between atoms: O_24  and  P_43
   16  A    between atoms: O_24  and  C_54
   17  A    between atoms: C_25  and  N_48
   18  A    between atoms: C_25  and  C_63
   19  A    between atoms: C_28  and  C_44
   20  A    between atoms: C_31  and  C_54
   21  A    between atoms: C_31  and  C_58
   22  A    between atoms: O_32  and  C_63
   23  A    between atoms: C_33  and  C_53
   24  A    between atoms: O_36  and  C_40
                            x       y       z     vdW  Elec       q    Type
                         _______ _______ _______ _____ _____    ______ ____

>  <TORSDO>
F 24

$$$$
