=
 OpenBabel11062421423D

 41 44  0  0  1  0  0  0  0  0999 V2000
  193.8960  175.0140  145.2960 C   0  0  1  0  0  3  0  0  0  0  0  0
  197.1640  176.3610  143.2520 N   0  0  0  0  0  2  0  0  0  0  0  0
  195.9540  176.3370  142.4290 C   0  0  0  0  0  2  0  0  0  0  0  0
  197.3890  175.0290  143.8140 C   0  0  0  0  0  2  0  0  0  0  0  0
  195.0880  175.5330  144.6100 N   0  0  0  0  0  0  0  0  0  0  0  0
  196.1940  174.5690  144.6620 C   0  0  0  0  0  2  0  0  0  0  0  0
  194.7410  175.8200  143.2150 C   0  0  0  0  0  2  0  0  0  0  0  0
  193.9070  173.4860  145.5310 C   0  0  0  0  0  2  0  0  0  0  0  0
  191.4250  171.4120  142.8640 C   0  0  0  0  0  0  0  0  0  0  0  0
  192.1280  173.4240  143.9000 N   0  0  0  0  0  0  0  0  0  0  0  0
  193.0430  172.7550  144.6040 N   0  0  0  0  0  0  0  0  0  0  0  0
  192.3530  170.7470  143.5930 N   0  0  0  0  0  2  0  0  0  0  0  0
  190.3680  173.6040  142.2750 N   0  0  0  0  0  2  0  0  0  0  0  0
  194.0230  170.7600  145.1170 O   0  0  0  0  0  0  0  0  0  0  0  0
  191.3010  172.8050  143.0200 C   0  0  0  0  0  0  0  0  0  0  0  0
  190.7040  170.7710  142.0550 O   0  0  0  0  0  0  0  0  0  0  0  0
  193.1640  171.4040  144.4580 C   0  0  0  0  0  0  0  0  0  0  0  0
  187.9970  173.2380  141.8820 C   0  0  0  0  0  1  0  0  0  0  0  0
  189.3970  173.1000  141.3120 C   0  0  1  0  0  3  0  0  0  0  0  0
  191.0920  173.4880  139.1510 S   0  0  0  0  0  0  0  0  0  0  0  0
  188.8120  173.7060  137.6910 O   0  0  0  0  0  1  0  0  0  0  0  0
  189.4960  173.8930  140.0150 C   0  0  1  0  0  3  0  0  0  0  0  0
  189.3460  173.0680  138.8100 C   0  0  2  0  0  0  0  0  0  0  0  0
  189.0280  171.6560  138.9540 N   0  0  0  0  0  1  0  0  0  0  0  0
  193.5410  175.8450  146.5250 C   0  0  0  0  0  2  0  0  0  0  0  0
  192.1060  176.3360  146.4340 C   0  0  0  0  0  2  0  0  0  0  0  0
  191.6860  176.3840  145.0420 N   0  0  0  0  0  2  0  0  0  0  0  0
  190.2300  176.2970  145.0130 C   0  0  2  0  0  3  0  0  0  0  0  0
  189.6660  177.5170  144.4500 N   0  0  0  0  0  2  0  0  0  0  0  0
  190.1090  177.6160  143.1750 O   0  0  0  0  0  0  0  0  0  0  0  0
  187.8310  177.8610  142.7880 N   0  0  0  0  0  1  0  0  0  0  0  0
  189.0440  177.1640  142.3960 C   0  0  0  0  0  2  0  0  0  0  0  0
  189.5620  176.0000  146.6900 S   0  0  0  0  0  0  0  0  0  0  0  0
  188.4780  177.4710  146.7460 C   0  0  0  0  0  2  0  0  0  0  0  0
  184.4670  178.3290  146.3960 C   0  0  1  0  0  3  0  0  0  0  0  0
  186.2010  176.7080  145.9890 C   0  0  0  0  0  2  0  0  0  0  0  0
  186.4550  178.2950  147.9600 C   0  0  0  0  0  2  0  0  0  0  0  0
  184.1480  178.8890  145.0240 C   0  0  0  0  0  1  0  0  0  0  0  0
  184.7850  176.8980  146.2990 N   0  0  0  0  0  2  0  0  0  0  0  0
  185.5800  179.1610  147.0570 C   0  0  0  0  0  2  0  0  0  0  0  0
  187.0650  177.1190  147.1870 C   0  0  2  0  0  3  0  0  0  0  0  0
  1  8  1  1  0  0  0
  1 25  1  0  0  0  0
  2  4  1  0  0  0  0
  3  7  1  0  0  0  0
  3  2  1  0  0  0  0
  4  6  1  0  0  0  0
  5  6  1  0  0  0  0
  5  1  1  0  0  0  0
  7  5  1  0  0  0  0
  9 15  1  0  0  0  0
  9 12  1  0  0  0  0
 10 11  1  0  0  0  0
 11  8  1  0  0  0  0
 12 17  1  0  0  0  0
 13 15  1  0  0  0  0
 15 10  2  0  0  0  0
 16  9  2  0  0  0  0
 17 11  1  0  0  0  0
 17 14  2  0  0  0  0
 19 18  1  1  0  0  0
 19 13  1  0  0  0  0
 20 22  1  0  0  0  0
 22 19  1  1  0  0  0
 23 21  1  6  0  0  0
 23 24  1  0  0  0  0
 23 20  1  0  0  0  0
 23 22  1  0  0  0  0
 26 25  1  0  0  0  0
 27 26  1  0  0  0  0
 28 29  1  1  0  0  0
 28 27  1  0  0  0  0
 28 33  1  0  0  0  0
 30 29  1  0  0  0  0
 32 31  1  0  0  0  0
 32 30  1  0  0  0  0
 33 34  1  0  0  0  0
 35 38  1  6  0  0  0
 35 40  1  0  0  0  0
 36 39  1  0  0  0  0
 36 41  1  0  0  0  0
 39 35  1  0  0  0  0
 40 37  1  0  0  0  0
 41 34  1  6  0  0  0
 41 37  1  0  0  0  0
M  END
>  <MODEL>
1

>  <REMARK>
 VINA RESULT:      -6.4      0.000      0.000
  Name = 
  15 active torsions:
  status: ('A' for Active; 'I' for Inactive)
    1  A    between atoms: N_3  and  C_16
    2  A    between atoms: N_3  and  O_23
    3  A    between atoms: S_11  and  C_16
    4  A    between atoms: S_11  and  C_34
    5  A    between atoms: C_15  and  O_23
    6  A    between atoms: C_16  and  N_31
    7  A    between atoms: N_17  and  C_21
    8  A    between atoms: C_19  and  C_27
    9  A    between atoms: C_20  and  C_21
   10  A    between atoms: C_20  and  N_35
   11  A    between atoms: C_20  and  C_37
   12  A    between atoms: C_27  and  N_30
   13  A    between atoms: C_28  and  C_34
   14  A    between atoms: N_31  and  C_40
   15  A    between atoms: C_37  and  C_40
                            x       y       z     vdW  Elec       q    Type
                         _______ _______ _______ _____ _____    ______ ____

>  <TORSDO>
F 15

$$$$
=
 OpenBabel11062421423D

 41 44  0  0  1  0  0  0  0  0999 V2000
  193.8740  175.2710  144.4840 C   0  0  1  0  0  3  0  0  0  0  0  0
  197.4790  176.5180  143.0270 N   0  0  0  0  0  2  0  0  0  0  0  0
  196.4190  176.5570  142.0180 C   0  0  0  0  0  2  0  0  0  0  0  0
  197.5600  175.1690  143.5880 C   0  0  0  0  0  2  0  0  0  0  0  0
  195.1800  175.7530  144.0110 N   0  0  0  0  0  0  0  0  0  0  0  0
  196.2270  174.7440  144.2200 C   0  0  0  0  0  2  0  0  0  0  0  0
  195.0750  176.0760  142.5850 C   0  0  0  0  0  2  0  0  0  0  0  0
  193.8700  173.8030  144.9670 C   0  0  0  0  0  2  0  0  0  0  0  0
  191.3920  171.3350  142.6550 C   0  0  0  0  0  0  0  0  0  0  0  0
  192.1510  173.4850  143.3020 N   0  0  0  0  0  0  0  0  0  0  0  0
  193.0070  172.9350  144.1650 N   0  0  0  0  0  0  0  0  0  0  0  0
  192.2610  170.7930  143.5420 N   0  0  0  0  0  2  0  0  0  0  0  0
  190.4610  173.4040  141.5960 N   0  0  0  0  0  2  0  0  0  0  0  0
  193.8720  171.0460  145.1070 O   0  0  0  0  0  0  0  0  0  0  0  0
  191.3280  172.7340  142.5270 C   0  0  0  0  0  0  0  0  0  0  0  0
  190.6710  170.5740  141.9570 O   0  0  0  0  0  0  0  0  0  0  0  0
  193.0690  171.5780  144.2960 C   0  0  0  0  0  0  0  0  0  0  0  0
  188.1000  172.9230  141.2670 C   0  0  0  0  0  1  0  0  0  0  0  0
  189.5030  172.7560  140.7100 C   0  0  1  0  0  3  0  0  0  0  0  0
  191.2760  173.1420  138.6120 S   0  0  0  0  0  0  0  0  0  0  0  0
  189.1080  172.7940  137.0130 O   0  0  0  0  0  1  0  0  0  0  0  0
  189.5750  173.3840  139.3240 C   0  0  1  0  0  3  0  0  0  0  0  0
  189.6480  172.4000  138.2370 C   0  0  2  0  0  0  0  0  0  0  0  0
  189.5450  170.9840  138.5560 N   0  0  0  0  0  1  0  0  0  0  0  0
  193.2160  176.2580  145.4420 C   0  0  0  0  0  2  0  0  0  0  0  0
  192.1990  177.1120  144.7040 C   0  0  0  0  0  2  0  0  0  0  0  0
  191.0950  176.2830  144.2440 N   0  0  0  0  0  2  0  0  0  0  0  0
  189.8540  176.9890  144.5410 C   0  0  2  0  0  3  0  0  0  0  0  0
  189.3440  176.5810  145.8430 N   0  0  0  0  0  2  0  0  0  0  0  0
  189.0630  175.2590  145.7710 O   0  0  0  0  0  0  0  0  0  0  0  0
  190.3890  175.1460  147.6760 N   0  0  0  0  0  1  0  0  0  0  0  0
  189.0980  174.8190  147.0940 C   0  0  0  0  0  2  0  0  0  0  0  0
  188.6030  176.6800  143.2410 S   0  0  0  0  0  0  0  0  0  0  0  0
  187.6760  178.2390  143.4700 C   0  0  0  0  0  2  0  0  0  0  0  0
  184.5810  177.7910  146.1470 C   0  0  1  0  0  3  0  0  0  0  0  0
  185.5230  179.1550  144.3990 C   0  0  0  0  0  2  0  0  0  0  0  0
  185.9660  176.6500  144.3640 C   0  0  0  0  0  2  0  0  0  0  0  0
  184.8420  178.5770  147.4170 C   0  0  0  0  0  1  0  0  0  0  0  0
  184.2860  178.7050  145.0350 N   0  0  0  0  0  2  0  0  0  0  0  0
  185.7610  176.8430  145.8640 C   0  0  0  0  0  2  0  0  0  0  0  0
  186.1860  177.9920  143.6520 C   0  0  2  0  0  3  0  0  0  0  0  0
  1  8  1  1  0  0  0
  1 25  1  0  0  0  0
  2  4  1  0  0  0  0
  3  7  1  0  0  0  0
  3  2  1  0  0  0  0
  4  6  1  0  0  0  0
  5  6  1  0  0  0  0
  5  1  1  0  0  0  0
  7  5  1  0  0  0  0
  9 12  1  0  0  0  0
 10 11  1  0  0  0  0
 11 17  1  0  0  0  0
 11  8  1  0  0  0  0
 12 17  1  0  0  0  0
 13 15  1  0  0  0  0
 15  9  1  0  0  0  0
 15 10  2  0  0  0  0
 16  9  2  0  0  0  0
 17 14  2  0  0  0  0
 19 18  1  1  0  0  0
 19 13  1  0  0  0  0
 20 22  1  0  0  0  0
 22 19  1  1  0  0  0
 23 21  1  6  0  0  0
 23 24  1  0  0  0  0
 23 20  1  0  0  0  0
 23 22  1  0  0  0  0
 26 25  1  0  0  0  0
 27 28  1  0  0  0  0
 27 26  1  0  0  0  0
 28 33  1  6  0  0  0
 28 29  1  0  0  0  0
 30 29  1  0  0  0  0
 30 32  1  0  0  0  0
 32 31  1  0  0  0  0
 33 34  1  0  0  0  0
 35 38  1  1  0  0  0
 36 39  1  0  0  0  0
 37 40  1  0  0  0  0
 39 35  1  0  0  0  0
 40 35  1  0  0  0  0
 41 34  1  1  0  0  0
 41 37  1  0  0  0  0
 41 36  1  0  0  0  0
M  END
>  <MODEL>
2

>  <REMARK>
 VINA RESULT:      -6.1      1.454      2.103
  Name = 
  15 active torsions:
  status: ('A' for Active; 'I' for Inactive)
    1  A    between atoms: N_3  and  C_16
    2  A    between atoms: N_3  and  O_23
    3  A    between atoms: S_11  and  C_16
    4  A    between atoms: S_11  and  C_34
    5  A    between atoms: C_15  and  O_23
    6  A    between atoms: C_16  and  N_31
    7  A    between atoms: N_17  and  C_21
    8  A    between atoms: C_19  and  C_27
    9  A    between atoms: C_20  and  C_21
   10  A    between atoms: C_20  and  N_35
   11  A    between atoms: C_20  and  C_37
   12  A    between atoms: C_27  and  N_30
   13  A    between atoms: C_28  and  C_34
   14  A    between atoms: N_31  and  C_40
   15  A    between atoms: C_37  and  C_40
                            x       y       z     vdW  Elec       q    Type
                         _______ _______ _______ _____ _____    ______ ____

>  <TORSDO>
F 15

$$$$
=
 OpenBabel11062421423D

 41 44  0  0  1  0  0  0  0  0999 V2000
  188.2210  175.0820  142.4680 C   0  0  1  0  0  3  0  0  0  0  0  0
  185.8020  178.1650  141.3210 N   0  0  0  0  0  2  0  0  0  0  0  0
  186.5320  177.5730  140.1980 C   0  0  0  0  0  2  0  0  0  0  0  0
  186.7560  178.5800  142.3490 C   0  0  0  0  0  2  0  0  0  0  0  0
  187.3060  176.1690  142.0910 N   0  0  0  0  0  0  0  0  0  0  0  0
  187.5970  177.3950  142.8450 C   0  0  0  0  0  2  0  0  0  0  0  0
  187.4420  176.4230  140.6540 C   0  0  0  0  0  2  0  0  0  0  0  0
  187.7120  173.6650  142.1180 C   0  0  0  0  0  2  0  0  0  0  0  0
  190.3810  171.5100  139.7090 C   0  0  0  0  0  0  0  0  0  0  0  0
  188.6640  173.1230  139.9670 N   0  0  0  0  0  0  0  0  0  0  0  0
  188.6450  172.9080  141.2830 N   0  0  0  0  0  0  0  0  0  0  0  0
  190.3420  171.2970  141.0460 N   0  0  0  0  0  2  0  0  0  0  0  0
  189.4930  172.7740  137.7390 N   0  0  0  0  0  2  0  0  0  0  0  0
  189.4770  171.7730  143.0800 O   0  0  0  0  0  0  0  0  0  0  0  0
  189.5100  172.4570  139.1400 C   0  0  0  0  0  0  0  0  0  0  0  0
  191.2040  170.8650  139.0070 O   0  0  0  0  0  0  0  0  0  0  0  0
  189.4850  171.9880  141.8380 C   0  0  0  0  0  0  0  0  0  0  0  0
  189.4180  171.4410  135.7070 C   0  0  0  0  0  1  0  0  0  0  0  0
  190.3130  172.1410  136.7140 C   0  0  1  0  0  3  0  0  0  0  0  0
  192.4690  173.8310  137.1460 S   0  0  0  0  0  0  0  0  0  0  0  0
  193.0990  173.3200  134.5530 O   0  0  0  0  0  1  0  0  0  0  0  0
  191.1500  173.1940  136.0000 C   0  0  1  0  0  3  0  0  0  0  0  0
  192.5100  172.7420  135.6780 C   0  0  2  0  0  0  0  0  0  0  0  0
  192.8830  171.3650  135.9600 N   0  0  0  0  0  1  0  0  0  0  0  0
  189.6550  175.3680  142.0330 C   0  0  0  0  0  2  0  0  0  0  0  0
  190.6150  175.1290  143.1860 C   0  0  0  0  0  2  0  0  0  0  0  0
  189.8940  175.1740  144.4490 N   0  0  0  0  0  2  0  0  0  0  0  0
  190.4850  176.2290  145.2630 C   0  0  2  0  0  3  0  0  0  0  0  0
  191.9310  176.0630  145.3270 N   0  0  0  0  0  2  0  0  0  0  0  0
  192.1890  175.1430  146.2860 O   0  0  0  0  0  0  0  0  0  0  0  0
  194.3110  176.0710  146.4750 N   0  0  0  0  0  1  0  0  0  0  0  0
  193.5510  174.8740  146.1580 C   0  0  0  0  0  2  0  0  0  0  0  0
  189.7670  176.2330  146.9460 S   0  0  0  0  0  0  0  0  0  0  0  0
  188.5350  177.5490  146.6450 C   0  0  0  0  0  2  0  0  0  0  0  0
  184.4900  178.3040  146.4930 C   0  0  1  0  0  3  0  0  0  0  0  0
  186.2440  176.7240  146.0060 C   0  0  0  0  0  2  0  0  0  0  0  0
  186.5550  178.3280  147.9550 C   0  0  0  0  0  2  0  0  0  0  0  0
  184.0890  178.8480  145.1360 C   0  0  0  0  0  1  0  0  0  0  0  0
  184.8400  176.8810  146.3860 N   0  0  0  0  0  2  0  0  0  0  0  0
  185.6140  179.1670  147.0940 C   0  0  0  0  0  2  0  0  0  0  0  0
  187.1560  177.1630  147.1570 C   0  0  2  0  0  3  0  0  0  0  0  0
  1 25  1  6  0  0  0
  2  4  1  0  0  0  0
  3  7  1  0  0  0  0
  3  2  1  0  0  0  0
  4  6  1  0  0  0  0
  5  1  1  0  0  0  0
  5  6  1  0  0  0  0
  7  5  1  0  0  0  0
  8  1  1  0  0  0  0
  9 12  1  0  0  0  0
 10 11  1  0  0  0  0
 11 17  1  0  0  0  0
 11  8  1  0  0  0  0
 12 17  1  0  0  0  0
 13 15  1  0  0  0  0
 15  9  1  0  0  0  0
 15 10  2  0  0  0  0
 16  9  2  0  0  0  0
 17 14  2  0  0  0  0
 19 18  1  6  0  0  0
 19 13  1  0  0  0  0
 22 19  1  1  0  0  0
 22 20  1  0  0  0  0
 23 21  1  6  0  0  0
 23 24  1  0  0  0  0
 23 22  1  0  0  0  0
 23 20  1  0  0  0  0
 25 26  1  0  0  0  0
 26 27  1  0  0  0  0
 28 27  1  6  0  0  0
 28 29  1  0  0  0  0
 28 33  1  0  0  0  0
 29 30  1  0  0  0  0
 32 30  1  0  0  0  0
 32 31  1  0  0  0  0
 34 33  1  0  0  0  0
 35 38  1  6  0  0  0
 35 40  1  0  0  0  0
 36 39  1  0  0  0  0
 36 41  1  0  0  0  0
 39 35  1  0  0  0  0
 40 37  1  0  0  0  0
 41 34  1  6  0  0  0
 41 37  1  0  0  0  0
M  END
>  <MODEL>
3

>  <REMARK>
 VINA RESULT:      -6.0      2.445      5.374
  Name = 
  15 active torsions:
  status: ('A' for Active; 'I' for Inactive)
    1  A    between atoms: N_3  and  C_16
    2  A    between atoms: N_3  and  O_23
    3  A    between atoms: S_11  and  C_16
    4  A    between atoms: S_11  and  C_34
    5  A    between atoms: C_15  and  O_23
    6  A    between atoms: C_16  and  N_31
    7  A    between atoms: N_17  and  C_21
    8  A    between atoms: C_19  and  C_27
    9  A    between atoms: C_20  and  C_21
   10  A    between atoms: C_20  and  N_35
   11  A    between atoms: C_20  and  C_37
   12  A    between atoms: C_27  and  N_30
   13  A    between atoms: C_28  and  C_34
   14  A    between atoms: N_31  and  C_40
   15  A    between atoms: C_37  and  C_40
                            x       y       z     vdW  Elec       q    Type
                         _______ _______ _______ _____ _____    ______ ____

>  <TORSDO>
F 15

$$$$
=
 OpenBabel11062421423D

 41 44  0  0  1  0  0  0  0  0999 V2000
  192.9960  175.9920  143.6960 C   0  0  1  0  0  3  0  0  0  0  0  0
  196.9200  176.6550  142.7820 N   0  0  0  0  0  2  0  0  0  0  0  0
  196.1050  176.3730  141.5990 C   0  0  0  0  0  2  0  0  0  0  0  0
  196.7660  175.5640  143.7430 C   0  0  0  0  0  2  0  0  0  0  0  0
  194.4080  176.2790  143.4060 N   0  0  0  0  0  0  0  0  0  0  0  0
  195.2980  175.3830  144.1560 C   0  0  0  0  0  2  0  0  0  0  0  0
  194.6360  176.1180  141.9670 C   0  0  0  0  0  2  0  0  0  0  0  0
  192.7560  174.6820  144.4800 C   0  0  0  0  0  2  0  0  0  0  0  0
  191.2560  171.5940  142.0740 C   0  0  0  0  0  0  0  0  0  0  0  0
  191.5240  173.8990  142.5570 N   0  0  0  0  0  0  0  0  0  0  0  0
  192.2340  173.5990  143.6460 N   0  0  0  0  0  0  0  0  0  0  0  0
  191.9710  171.3070  143.1880 N   0  0  0  0  0  2  0  0  0  0  0  0
  190.2950  173.3480  140.5680 N   0  0  0  0  0  2  0  0  0  0  0  0
  193.1320  171.9970  145.0010 O   0  0  0  0  0  0  0  0  0  0  0  0
  191.0180  172.9400  141.7410 C   0  0  0  0  0  0  0  0  0  0  0  0
  190.8310  170.6510  141.3550 O   0  0  0  0  0  0  0  0  0  0  0  0
  192.4640  172.2950  143.9750 C   0  0  0  0  0  0  0  0  0  0  0  0
  188.1800  172.7450  139.5320 C   0  0  0  0  0  1  0  0  0  0  0  0
  189.6680  172.4550  139.6020 C   0  0  1  0  0  3  0  0  0  0  0  0
  191.9490  171.8280  138.1530 S   0  0  0  0  0  0  0  0  0  0  0  0
  190.2690  171.6320  136.0270 O   0  0  0  0  0  1  0  0  0  0  0  0
  190.2890  172.6640  138.2270 C   0  0  1  0  0  3  0  0  0  0  0  0
  190.3240  171.4460  137.4080 C   0  0  2  0  0  0  0  0  0  0  0  0
  189.6990  170.2340  137.9150 N   0  0  0  0  0  1  0  0  0  0  0  0
  192.2710  177.2110  144.2570 C   0  0  0  0  0  2  0  0  0  0  0  0
  191.2030  176.7810  145.2480 C   0  0  0  0  0  2  0  0  0  0  0  0
  190.0670  177.6880  145.1780 N   0  0  0  0  0  2  0  0  0  0  0  0
  188.9270  176.9360  144.6650 C   0  0  2  0  0  3  0  0  0  0  0  0
  187.9830  177.8370  144.0180 N   0  0  0  0  0  2  0  0  0  0  0  0
  187.3670  177.1380  143.0350 O   0  0  0  0  0  0  0  0  0  0  0  0
  187.8540  175.9240  141.1150 N   0  0  0  0  0  1  0  0  0  0  0  0
  188.4010  176.7310  142.1920 C   0  0  0  0  0  2  0  0  0  0  0  0
  188.1030  176.0050  146.0080 S   0  0  0  0  0  0  0  0  0  0  0  0
  187.8590  177.4290  147.1280 C   0  0  0  0  0  2  0  0  0  0  0  0
  184.2680  178.8080  145.6610 C   0  0  1  0  0  3  0  0  0  0  0  0
  185.4960  176.8900  146.4490 C   0  0  0  0  0  2  0  0  0  0  0  0
  186.0970  179.1850  147.3680 C   0  0  0  0  0  2  0  0  0  0  0  0
  184.1800  178.6050  144.1610 C   0  0  0  0  0  1  0  0  0  0  0  0
  184.1770  177.5160  146.3550 N   0  0  0  0  0  2  0  0  0  0  0  0
  185.5400  179.6020  146.0090 C   0  0  0  0  0  2  0  0  0  0  0  0
  186.3870  177.6780  147.4160 C   0  0  2  0  0  3  0  0  0  0  0  0
  1 25  1  1  0  0  0
  1  8  1  0  0  0  0
  2  4  1  0  0  0  0
  3  7  1  0  0  0  0
  3  2  1  0  0  0  0
  4  6  1  0  0  0  0
  5  1  1  0  0  0  0
  5  6  1  0  0  0  0
  7  5  1  0  0  0  0
  9 12  1  0  0  0  0
 10 11  1  0  0  0  0
 11 17  1  0  0  0  0
 11  8  1  0  0  0  0
 12 17  1  0  0  0  0
 13 15  1  0  0  0  0
 15  9  1  0  0  0  0
 15 10  2  0  0  0  0
 16  9  2  0  0  0  0
 17 14  2  0  0  0  0
 19 18  1  6  0  0  0
 19 13  1  0  0  0  0
 20 22  1  0  0  0  0
 22 19  1  1  0  0  0
 23 21  1  6  0  0  0
 23 24  1  0  0  0  0
 23 20  1  0  0  0  0
 23 22  1  0  0  0  0
 25 26  1  0  0  0  0
 27 26  1  0  0  0  0
 28 29  1  1  0  0  0
 28 27  1  0  0  0  0
 28 33  1  0  0  0  0
 30 29  1  0  0  0  0
 31 32  1  0  0  0  0
 32 30  1  0  0  0  0
 33 34  1  0  0  0  0
 35 38  1  6  0  0  0
 35 40  1  0  0  0  0
 35 39  1  0  0  0  0
 36 41  1  0  0  0  0
 37 41  1  0  0  0  0
 39 36  1  0  0  0  0
 40 37  1  0  0  0  0
 41 34  1  6  0  0  0
M  END
>  <MODEL>
4

>  <REMARK>
 VINA RESULT:      -5.9      1.451      1.664
  Name = 
  15 active torsions:
  status: ('A' for Active; 'I' for Inactive)
    1  A    between atoms: N_3  and  C_16
    2  A    between atoms: N_3  and  O_23
    3  A    between atoms: S_11  and  C_16
    4  A    between atoms: S_11  and  C_34
    5  A    between atoms: C_15  and  O_23
    6  A    between atoms: C_16  and  N_31
    7  A    between atoms: N_17  and  C_21
    8  A    between atoms: C_19  and  C_27
    9  A    between atoms: C_20  and  C_21
   10  A    between atoms: C_20  and  N_35
   11  A    between atoms: C_20  and  C_37
   12  A    between atoms: C_27  and  N_30
   13  A    between atoms: C_28  and  C_34
   14  A    between atoms: N_31  and  C_40
   15  A    between atoms: C_37  and  C_40
                            x       y       z     vdW  Elec       q    Type
                         _______ _______ _______ _____ _____    ______ ____

>  <TORSDO>
F 15

$$$$
=
 OpenBabel11062421423D

 41 44  0  0  1  0  0  0  0  0999 V2000
  193.0930  175.8170  143.3840 C   0  0  1  0  0  3  0  0  0  0  0  0
  197.1010  176.5250  143.0530 N   0  0  0  0  0  2  0  0  0  0  0  0
  196.4140  176.5550  141.7610 C   0  0  0  0  0  2  0  0  0  0  0  0
  196.8300  175.2460  143.7110 C   0  0  0  0  0  2  0  0  0  0  0  0
  194.5320  176.1100  143.3140 N   0  0  0  0  0  0  0  0  0  0  0  0
  195.3240  175.0310  143.9190 C   0  0  0  0  0  2  0  0  0  0  0  0
  194.9110  176.2780  141.9080 C   0  0  0  0  0  2  0  0  0  0  0  0
  192.7520  174.3240  143.5890 C   0  0  0  0  0  2  0  0  0  0  0  0
  190.0460  172.8510  140.7460 C   0  0  0  0  0  0  0  0  0  0  0  0
  192.1290  173.8310  141.3090 N   0  0  0  0  0  0  0  0  0  0  0  0
  191.8020  173.8100  142.6020 N   0  0  0  0  0  0  0  0  0  0  0  0
  189.7260  172.8450  142.0630 N   0  0  0  0  0  2  0  0  0  0  0  0
  191.7370  173.3890  138.9800 N   0  0  0  0  0  2  0  0  0  0  0  0
  190.2690  173.2920  144.2110 O   0  0  0  0  0  0  0  0  0  0  0  0
  191.2930  173.3640  140.3470 C   0  0  0  0  0  0  0  0  0  0  0  0
  189.2250  172.3860  139.9120 O   0  0  0  0  0  0  0  0  0  0  0  0
  190.5910  173.3170  142.9940 C   0  0  0  0  0  0  0  0  0  0  0  0
  190.7740  174.1140  136.8690 C   0  0  0  0  0  1  0  0  0  0  0  0
  190.9610  172.9510  137.8270 C   0  0  1  0  0  3  0  0  0  0  0  0
  191.1670  170.1850  137.8290 S   0  0  0  0  0  0  0  0  0  0  0  0
  191.4360  170.4290  135.1370 O   0  0  0  0  0  1  0  0  0  0  0  0
  191.6900  171.8200  137.1130 C   0  0  1  0  0  3  0  0  0  0  0  0
  190.8220  171.0210  136.2400 C   0  0  2  0  0  0  0  0  0  0  0  0
  189.4360  171.4230  136.0610 N   0  0  0  0  0  1  0  0  0  0  0  0
  192.3640  176.7710  144.3250 C   0  0  0  0  0  2  0  0  0  0  0  0
  191.5440  177.7730  143.5290 C   0  0  0  0  0  2  0  0  0  0  0  0
  190.4120  177.1050  142.9060 N   0  0  0  0  0  2  0  0  0  0  0  0
  189.1950  177.7470  143.3890 C   0  0  2  0  0  3  0  0  0  0  0  0
  189.0570  177.5470  144.8250 N   0  0  0  0  0  2  0  0  0  0  0  0
  188.8870  176.2200  145.0330 O   0  0  0  0  0  0  0  0  0  0  0  0
  189.7500  177.2620  146.9220 N   0  0  0  0  0  1  0  0  0  0  0  0
  189.1990  176.0320  146.3790 C   0  0  0  0  0  2  0  0  0  0  0  0
  187.7250  177.0990  142.5100 S   0  0  0  0  0  0  0  0  0  0  0  0
  186.6910  178.5930  142.7060 C   0  0  0  0  0  2  0  0  0  0  0  0
  184.5690  177.9820  146.1800 C   0  0  1  0  0  3  0  0  0  0  0  0
  184.8750  179.3970  144.2540 C   0  0  0  0  0  2  0  0  0  0  0  0
  185.4070  176.9180  144.0440 C   0  0  0  0  0  2  0  0  0  0  0  0
  185.1620  178.7780  147.3270 C   0  0  0  0  0  1  0  0  0  0  0  0
  183.9100  178.8830  145.2240 N   0  0  0  0  0  2  0  0  0  0  0  0
  185.6530  177.0970  145.5390 C   0  0  0  0  0  2  0  0  0  0  0  0
  185.3380  178.2710  143.3220 C   0  0  2  0  0  3  0  0  0  0  0  0
  1  8  1  1  0  0  0
  1 25  1  0  0  0  0
  2  4  1  0  0  0  0
  3  7  1  0  0  0  0
  3  2  1  0  0  0  0
  4  6  1  0  0  0  0
  5  1  1  0  0  0  0
  5  6  1  0  0  0  0
  7  5  1  0  0  0  0
  9 12  1  0  0  0  0
 10 11  1  0  0  0  0
 11 17  1  0  0  0  0
 11  8  1  0  0  0  0
 12 17  1  0  0  0  0
 13 15  1  0  0  0  0
 15  9  1  0  0  0  0
 15 10  2  0  0  0  0
 16  9  2  0  0  0  0
 17 14  2  0  0  0  0
 19 18  1  6  0  0  0
 19 13  1  0  0  0  0
 22 19  1  1  0  0  0
 22 20  1  0  0  0  0
 23 21  1  6  0  0  0
 23 22  1  0  0  0  0
 23 20  1  0  0  0  0
 24 23  1  0  0  0  0
 26 25  1  0  0  0  0
 27 28  1  0  0  0  0
 27 26  1  0  0  0  0
 28 33  1  6  0  0  0
 28 29  1  0  0  0  0
 29 30  1  0  0  0  0
 30 32  1  0  0  0  0
 32 31  1  0  0  0  0
 33 34  1  0  0  0  0
 35 38  1  1  0  0  0
 36 39  1  0  0  0  0
 37 40  1  0  0  0  0
 39 35  1  0  0  0  0
 40 35  1  0  0  0  0
 41 34  1  1  0  0  0
 41 37  1  0  0  0  0
 41 36  1  0  0  0  0
M  END
>  <MODEL>
5

>  <REMARK>
 VINA RESULT:      -5.8      2.274      3.232
  Name = 
  15 active torsions:
  status: ('A' for Active; 'I' for Inactive)
    1  A    between atoms: N_3  and  C_16
    2  A    between atoms: N_3  and  O_23
    3  A    between atoms: S_11  and  C_16
    4  A    between atoms: S_11  and  C_34
    5  A    between atoms: C_15  and  O_23
    6  A    between atoms: C_16  and  N_31
    7  A    between atoms: N_17  and  C_21
    8  A    between atoms: C_19  and  C_27
    9  A    between atoms: C_20  and  C_21
   10  A    between atoms: C_20  and  N_35
   11  A    between atoms: C_20  and  C_37
   12  A    between atoms: C_27  and  N_30
   13  A    between atoms: C_28  and  C_34
   14  A    between atoms: N_31  and  C_40
   15  A    between atoms: C_37  and  C_40
                            x       y       z     vdW  Elec       q    Type
                         _______ _______ _______ _____ _____    ______ ____

>  <TORSDO>
F 15

$$$$
=
 OpenBabel11062421423D

 41 44  0  0  1  0  0  0  0  0999 V2000
  193.4230  173.9520  144.1150 C   0  0  1  0  0  3  0  0  0  0  0  0
  196.7510  172.4870  145.9720 N   0  0  0  0  0  2  0  0  0  0  0  0
  196.8470  173.9200  145.6900 C   0  0  0  0  0  2  0  0  0  0  0  0
  196.4660  171.7710  144.7280 C   0  0  0  0  0  2  0  0  0  0  0  0
  194.5840  173.3930  144.8220 N   0  0  0  0  0  0  0  0  0  0  0  0
  195.1610  172.2610  144.0840 C   0  0  0  0  0  2  0  0  0  0  0  0
  195.5900  174.4470  144.9840 C   0  0  0  0  0  2  0  0  0  0  0  0
  192.1060  173.1720  144.3290 C   0  0  0  0  0  2  0  0  0  0  0  0
  190.7060  171.3320  140.8320 C   0  0  0  0  0  0  0  0  0  0  0  0
  191.1250  173.2730  142.1250 N   0  0  0  0  0  0  0  0  0  0  0  0
  191.6170  172.5220  143.1120 N   0  0  0  0  0  0  0  0  0  0  0  0
  191.2010  170.5840  141.8470 N   0  0  0  0  0  2  0  0  0  0  0  0
  190.1810  173.6120  139.9420 N   0  0  0  0  0  2  0  0  0  0  0  0
  192.1200  170.4440  143.9080 O   0  0  0  0  0  0  0  0  0  0  0  0
  190.6620  172.7310  140.9700 C   0  0  0  0  0  0  0  0  0  0  0  0
  190.3090  170.7590  139.7830 O   0  0  0  0  0  0  0  0  0  0  0  0
  191.6590  171.1650  142.9830 C   0  0  0  0  0  0  0  0  0  0  0  0
  188.1990  173.6890  138.5370 C   0  0  0  0  0  1  0  0  0  0  0  0
  189.6300  173.1990  138.6580 C   0  0  1  0  0  3  0  0  0  0  0  0
  192.0230  172.7950  137.3140 S   0  0  0  0  0  0  0  0  0  0  0  0
  190.6620  173.6120  135.1100 O   0  0  0  0  0  1  0  0  0  0  0  0
  190.4640  173.7860  137.5260 C   0  0  1  0  0  3  0  0  0  0  0  0
  190.4940  172.9450  136.3230 C   0  0  2  0  0  0  0  0  0  0  0  0
  189.6840  171.7380  136.2830 N   0  0  0  0  0  1  0  0  0  0  0  0
  193.3080  175.4600  144.3120 C   0  0  0  0  0  2  0  0  0  0  0  0
  191.8990  175.8310  144.7420 C   0  0  0  0  0  2  0  0  0  0  0  0
  191.7120  177.2710  144.6420 N   0  0  0  0  0  2  0  0  0  0  0  0
  190.2790  177.5300  144.5610 C   0  0  2  0  0  3  0  0  0  0  0  0
  189.5340  176.4060  145.1120 N   0  0  0  0  0  2  0  0  0  0  0  0
  188.9500  176.8320  146.2570 O   0  0  0  0  0  0  0  0  0  0  0  0
  189.2740  174.7380  147.2100 N   0  0  0  0  0  1  0  0  0  0  0  0
  188.2920  175.7080  146.7560 C   0  0  0  0  0  2  0  0  0  0  0  0
  189.7720  177.8430  142.8300 S   0  0  0  0  0  0  0  0  0  0  0  0
  188.8370  176.2890  142.6020 C   0  0  0  0  0  2  0  0  0  0  0  0
  185.3170  178.3340  143.2130 C   0  0  1  0  0  3  0  0  0  0  0  0
  187.2180  178.0250  141.7650 C   0  0  0  0  0  2  0  0  0  0  0  0
  186.4120  176.0540  143.1560 C   0  0  0  0  0  2  0  0  0  0  0  0
  185.5730  179.6680  143.8870 C   0  0  0  0  0  1  0  0  0  0  0  0
  185.7970  178.3660  141.8240 N   0  0  0  0  0  2  0  0  0  0  0  0
  185.9330  177.1970  144.0480 C   0  0  0  0  0  2  0  0  0  0  0  0
  187.4210  176.5450  142.1100 C   0  0  2  0  0  3  0  0  0  0  0  0
  1 25  1  1  0  0  0
  1  8  1  0  0  0  0
  1  5  1  0  0  0  0
  3  2  1  0  0  0  0
  4  2  1  0  0  0  0
  5  7  1  0  0  0  0
  6  4  1  0  0  0  0
  6  5  1  0  0  0  0
  7  3  1  0  0  0  0
  9 15  1  0  0  0  0
  9 12  1  0  0  0  0
 10 11  1  0  0  0  0
 11  8  1  0  0  0  0
 12 17  1  0  0  0  0
 13 15  1  0  0  0  0
 15 10  2  0  0  0  0
 16  9  2  0  0  0  0
 17 11  1  0  0  0  0
 17 14  2  0  0  0  0
 19 18  1  6  0  0  0
 19 13  1  0  0  0  0
 20 22  1  0  0  0  0
 22 19  1  1  0  0  0
 23 21  1  6  0  0  0
 23 20  1  0  0  0  0
 23 22  1  0  0  0  0
 24 23  1  0  0  0  0
 25 26  1  0  0  0  0
 27 26  1  0  0  0  0
 28 33  1  6  0  0  0
 28 27  1  0  0  0  0
 28 29  1  0  0  0  0
 29 30  1  0  0  0  0
 30 32  1  0  0  0  0
 32 31  1  0  0  0  0
 34 33  1  0  0  0  0
 35 38  1  1  0  0  0
 35 40  1  0  0  0  0
 36 39  1  0  0  0  0
 36 41  1  0  0  0  0
 37 40  1  0  0  0  0
 39 35  1  0  0  0  0
 41 34  1  1  0  0  0
 41 37  1  0  0  0  0
M  END
>  <MODEL>
6

>  <REMARK>
 VINA RESULT:      -5.7      2.333      3.183
  Name = 
  15 active torsions:
  status: ('A' for Active; 'I' for Inactive)
    1  A    between atoms: N_3  and  C_16
    2  A    between atoms: N_3  and  O_23
    3  A    between atoms: S_11  and  C_16
    4  A    between atoms: S_11  and  C_34
    5  A    between atoms: C_15  and  O_23
    6  A    between atoms: C_16  and  N_31
    7  A    between atoms: N_17  and  C_21
    8  A    between atoms: C_19  and  C_27
    9  A    between atoms: C_20  and  C_21
   10  A    between atoms: C_20  and  N_35
   11  A    between atoms: C_20  and  C_37
   12  A    between atoms: C_27  and  N_30
   13  A    between atoms: C_28  and  C_34
   14  A    between atoms: N_31  and  C_40
   15  A    between atoms: C_37  and  C_40
                            x       y       z     vdW  Elec       q    Type
                         _______ _______ _______ _____ _____    ______ ____

>  <TORSDO>
F 15

$$$$
=
 OpenBabel11062421423D

 41 44  0  0  1  0  0  0  0  0999 V2000
  188.5690  177.2510  145.5500 C   0  0  1  0  0  3  0  0  0  0  0  0
  185.0130  178.7080  146.9290 N   0  0  0  0  0  2  0  0  0  0  0  0
  185.2010  177.2910  147.2430 C   0  0  0  0  0  2  0  0  0  0  0  0
  185.1540  178.9040  145.4860 C   0  0  0  0  0  2  0  0  0  0  0  0
  187.3180  177.8260  146.0660 N   0  0  0  0  0  0  0  0  0  0  0  0
  186.5320  178.4420  144.9900 C   0  0  0  0  0  2  0  0  0  0  0  0
  186.5400  176.7620  146.7080 C   0  0  0  0  0  2  0  0  0  0  0  0
  188.9730  177.7540  144.1450 C   0  0  0  0  0  2  0  0  0  0  0  0
  191.3710  175.0290  142.0490 C   0  0  0  0  0  0  0  0  0  0  0  0
  189.3260  175.6080  143.0970 N   0  0  0  0  0  0  0  0  0  0  0  0
  189.8160  176.8070  143.4150 N   0  0  0  0  0  0  0  0  0  0  0  0
  191.8560  176.2480  142.3870 N   0  0  0  0  0  2  0  0  0  0  0  0
  189.4420  173.4340  142.0810 N   0  0  0  0  0  2  0  0  0  0  0  0
  191.5680  178.2680  143.3580 O   0  0  0  0  0  0  0  0  0  0  0  0
  190.0570  174.6890  142.4160 C   0  0  0  0  0  0  0  0  0  0  0  0
  192.1030  174.2340  141.4010 O   0  0  0  0  0  0  0  0  0  0  0  0
  191.0920  177.1400  143.0640 C   0  0  0  0  0  0  0  0  0  0  0  0
  190.1470  171.1160  142.2850 C   0  0  0  0  0  1  0  0  0  0  0  0
  190.0860  172.3320  141.3780 C   0  0  1  0  0  3  0  0  0  0  0  0
  189.5890  173.2830  138.8200 S   0  0  0  0  0  0  0  0  0  0  0  0
  189.5450  170.6630  138.1000 O   0  0  0  0  0  1  0  0  0  0  0  0
  189.2950  171.9880  140.1220 C   0  0  1  0  0  3  0  0  0  0  0  0
  190.1360  171.5480  139.0020 C   0  0  2  0  0  0  0  0  0  0  0  0
  191.5670  171.3870  139.2110 N   0  0  0  0  0  1  0  0  0  0  0  0
  189.6860  177.2940  146.5870 C   0  0  0  0  0  2  0  0  0  0  0  0
  190.3100  175.9170  146.7480 C   0  0  0  0  0  2  0  0  0  0  0  0
  191.7160  176.0480  147.1010 N   0  0  0  0  0  2  0  0  0  0  0  0
  192.5020  175.7810  145.9030 C   0  0  2  0  0  3  0  0  0  0  0  0
  192.4650  174.3600  145.5840 N   0  0  0  0  0  2  0  0  0  0  0  0
  193.5690  173.7950  146.1260 O   0  0  0  0  0  0  0  0  0  0  0  0
  193.0070  172.7150  144.1470 N   0  0  0  0  0  1  0  0  0  0  0  0
  193.7760  172.6370  145.3770 C   0  0  0  0  0  2  0  0  0  0  0  0
  194.2310  176.3400  146.1210 S   0  0  0  0  0  0  0  0  0  0  0  0
  194.6500  176.4210  144.3430 C   0  0  0  0  0  2  0  0  0  0  0  0
  197.5410  174.2820  142.3400 C   0  0  1  0  0  3  0  0  0  0  0  0
  196.4880  176.4310  142.6230 C   0  0  0  0  0  2  0  0  0  0  0  0
  196.5680  174.8400  144.6070 C   0  0  0  0  0  2  0  0  0  0  0  0
  197.0220  173.7840  141.0050 C   0  0  0  0  0  1  0  0  0  0  0  0
  197.7340  175.7380  142.2980 N   0  0  0  0  0  2  0  0  0  0  0  0
  196.6060  173.8200  143.4720 C   0  0  0  0  0  2  0  0  0  0  0  0
  196.1390  176.2240  144.1020 C   0  0  2  0  0  3  0  0  0  0  0  0
  1  8  1  6  0  0  0
  1  5  1  0  0  0  0
  1 25  1  0  0  0  0
  2  3  1  0  0  0  0
  4  2  1  0  0  0  0
  5  7  1  0  0  0  0
  6  4  1  0  0  0  0
  6  5  1  0  0  0  0
  7  3  1  0  0  0  0
  9 12  1  0  0  0  0
  9 15  1  0  0  0  0
 10 11  1  0  0  0  0
 11  8  1  0  0  0  0
 12 17  1  0  0  0  0
 13 15  1  0  0  0  0
 15 10  2  0  0  0  0
 16  9  2  0  0  0  0
 17 14  2  0  0  0  0
 17 11  1  0  0  0  0
 19 13  1  0  0  0  0
 19 18  1  1  0  0  0
 20 23  1  0  0  0  0
 20 22  1  0  0  0  0
 22 19  1  1  0  0  0
 23 21  1  6  0  0  0
 23 24  1  0  0  0  0
 23 22  1  0  0  0  0
 25 26  1  0  0  0  0
 26 27  1  0  0  0  0
 28 29  1  1  0  0  0
 28 33  1  0  0  0  0
 28 27  1  0  0  0  0
 29 30  1  0  0  0  0
 31 32  1  0  0  0  0
 32 30  1  0  0  0  0
 34 33  1  0  0  0  0
 35 38  1  6  0  0  0
 35 40  1  0  0  0  0
 36 41  1  0  0  0  0
 39 35  1  0  0  0  0
 39 36  1  0  0  0  0
 40 37  1  0  0  0  0
 41 34  1  6  0  0  0
 41 37  1  0  0  0  0
M  END
>  <MODEL>
7

>  <REMARK>
 VINA RESULT:      -5.6      2.020      7.669
  Name = 
  15 active torsions:
  status: ('A' for Active; 'I' for Inactive)
    1  A    between atoms: N_3  and  C_16
    2  A    between atoms: N_3  and  O_23
    3  A    between atoms: S_11  and  C_16
    4  A    between atoms: S_11  and  C_34
    5  A    between atoms: C_15  and  O_23
    6  A    between atoms: C_16  and  N_31
    7  A    between atoms: N_17  and  C_21
    8  A    between atoms: C_19  and  C_27
    9  A    between atoms: C_20  and  C_21
   10  A    between atoms: C_20  and  N_35
   11  A    between atoms: C_20  and  C_37
   12  A    between atoms: C_27  and  N_30
   13  A    between atoms: C_28  and  C_34
   14  A    between atoms: N_31  and  C_40
   15  A    between atoms: C_37  and  C_40
                            x       y       z     vdW  Elec       q    Type
                         _______ _______ _______ _____ _____    ______ ____

>  <TORSDO>
F 15

$$$$
=
 OpenBabel11062421423D

 41 44  0  0  1  0  0  0  0  0999 V2000
  193.5870  173.8920  141.5930 C   0  0  1  0  0  3  0  0  0  0  0  0
  197.0380  175.9000  140.7350 N   0  0  0  0  0  2  0  0  0  0  0  0
  196.0410  176.7470  141.3910 C   0  0  0  0  0  2  0  0  0  0  0  0
  196.4470  175.3030  139.5370 C   0  0  0  0  0  2  0  0  0  0  0  0
  194.8620  174.5670  141.3050 N   0  0  0  0  0  0  0  0  0  0  0  0
  195.2040  174.4700  139.8800 C   0  0  0  0  0  2  0  0  0  0  0  0
  194.7490  175.9750  141.6970 C   0  0  0  0  0  2  0  0  0  0  0  0
  192.5260  174.0260  140.4780 C   0  0  0  0  0  2  0  0  0  0  0  0
  188.6250  174.4070  141.9650 C   0  0  0  0  0  0  0  0  0  0  0  0
  190.9200  174.9950  141.9980 N   0  0  0  0  0  0  0  0  0  0  0  0
  191.1620  174.1520  140.9930 N   0  0  0  0  0  0  0  0  0  0  0  0
  188.8890  173.5500  140.9500 N   0  0  0  0  0  2  0  0  0  0  0  0
  189.4950  176.1170  143.5730 N   0  0  0  0  0  2  0  0  0  0  0  0
  190.3590  172.6150  139.5090 O   0  0  0  0  0  0  0  0  0  0  0  0
  189.6770  175.1610  142.5150 C   0  0  0  0  0  0  0  0  0  0  0  0
  187.4420  174.5200  142.3820 O   0  0  0  0  0  0  0  0  0  0  0  0
  190.1450  173.4160  140.4580 C   0  0  0  0  0  0  0  0  0  0  0  0
  188.3730  176.0640  145.7300 C   0  0  0  0  0  1  0  0  0  0  0  0
  188.2390  176.4010  144.2550 C   0  0  1  0  0  3  0  0  0  0  0  0
  187.2400  178.1950  142.3900 S   0  0  0  0  0  0  0  0  0  0  0  0
  186.0220  179.3750  144.5130 O   0  0  0  0  0  1  0  0  0  0  0  0
  187.8910  177.8770  144.1030 C   0  0  1  0  0  3  0  0  0  0  0  0
  186.4470  178.1350  144.0370 C   0  0  2  0  0  0  0  0  0  0  0  0
  185.5210  177.0280  144.2180 N   0  0  0  0  0  1  0  0  0  0  0  0
  193.7990  172.4710  142.1040 C   0  0  0  0  0  2  0  0  0  0  0  0
  195.2370  172.2810  142.5570 C   0  0  0  0  0  2  0  0  0  0  0  0
  195.2800  172.0580  143.9940 N   0  0  0  0  0  2  0  0  0  0  0  0
  196.6200  172.3980  144.4580 C   0  0  2  0  0  3  0  0  0  0  0  0
  196.8850  171.7590  145.7400 N   0  0  0  0  0  2  0  0  0  0  0  0
  197.2530  170.4810  145.4850 O   0  0  0  0  0  0  0  0  0  0  0  0
  195.3630  169.5880  146.4980 N   0  0  0  0  0  1  0  0  0  0  0  0
  196.8030  169.7580  146.5890 C   0  0  0  0  0  2  0  0  0  0  0  0
  196.8190  174.2120  144.5970 S   0  0  0  0  0  0  0  0  0  0  0  0
  195.4700  174.4780  145.8020 C   0  0  0  0  0  2  0  0  0  0  0  0
  191.8010  176.2290  146.4490 C   0  0  1  0  0  3  0  0  0  0  0  0
  194.0980  176.5890  145.8170 C   0  0  0  0  0  2  0  0  0  0  0  0
  193.0260  174.3410  145.2940 C   0  0  0  0  0  2  0  0  0  0  0  0
  191.7070  176.7920  147.8540 C   0  0  0  0  0  1  0  0  0  0  0  0
  192.7190  177.0400  145.6370 N   0  0  0  0  0  2  0  0  0  0  0  0
  192.1850  174.7400  146.5040 C   0  0  0  0  0  2  0  0  0  0  0  0
  194.2890  175.2070  145.1800 C   0  0  2  0  0  3  0  0  0  0  0  0
  1  8  1  6  0  0  0
  1 25  1  0  0  0  0
  2  3  1  0  0  0  0
  3  7  1  0  0  0  0
  4  6  1  0  0  0  0
  4  2  1  0  0  0  0
  5  1  1  0  0  0  0
  5  7  1  0  0  0  0
  6  5  1  0  0  0  0
  8 11  1  0  0  0  0
  9 16  2  0  0  0  0
  9 15  1  0  0  0  0
 10 15  2  0  0  0  0
 11 10  1  0  0  0  0
 12  9  1  0  0  0  0
 13 19  1  0  0  0  0
 14 17  2  0  0  0  0
 15 13  1  0  0  0  0
 17 12  1  0  0  0  0
 17 11  1  0  0  0  0
 19 18  1  1  0  0  0
 20 23  1  0  0  0  0
 20 22  1  0  0  0  0
 22 19  1  6  0  0  0
 23 22  1  0  0  0  0
 23 24  1  1  0  0  0
 23 21  1  0  0  0  0
 25 26  1  0  0  0  0
 26 27  1  0  0  0  0
 28 27  1  1  0  0  0
 28 33  1  0  0  0  0
 28 29  1  0  0  0  0
 30 29  1  0  0  0  0
 30 32  1  0  0  0  0
 31 32  1  0  0  0  0
 33 34  1  0  0  0  0
 35 40  1  0  0  0  0
 35 38  1  1  0  0  0
 37 40  1  0  0  0  0
 39 36  1  0  0  0  0
 39 35  1  0  0  0  0
 41 37  1  0  0  0  0
 41 34  1  1  0  0  0
 41 36  1  0  0  0  0
M  END
>  <MODEL>
8

>  <REMARK>
 VINA RESULT:      -5.6      2.883      6.681
  Name = 
  15 active torsions:
  status: ('A' for Active; 'I' for Inactive)
    1  A    between atoms: N_3  and  C_16
    2  A    between atoms: N_3  and  O_23
    3  A    between atoms: S_11  and  C_16
    4  A    between atoms: S_11  and  C_34
    5  A    between atoms: C_15  and  O_23
    6  A    between atoms: C_16  and  N_31
    7  A    between atoms: N_17  and  C_21
    8  A    between atoms: C_19  and  C_27
    9  A    between atoms: C_20  and  C_21
   10  A    between atoms: C_20  and  N_35
   11  A    between atoms: C_20  and  C_37
   12  A    between atoms: C_27  and  N_30
   13  A    between atoms: C_28  and  C_34
   14  A    between atoms: N_31  and  C_40
   15  A    between atoms: C_37  and  C_40
                            x       y       z     vdW  Elec       q    Type
                         _______ _______ _______ _____ _____    ______ ____

>  <TORSDO>
F 15

$$$$
=
 OpenBabel11062421423D

 41 44  0  0  1  0  0  0  0  0999 V2000
  189.9660  171.5870  140.7010 C   0  0  1  0  0  3  0  0  0  0  0  0
  191.8620  170.0340  137.4350 N   0  0  0  0  0  2  0  0  0  0  0  0
  190.4130  170.1290  137.2540 C   0  0  0  0  0  2  0  0  0  0  0  0
  192.1460  169.2600  138.6430 C   0  0  0  0  0  2  0  0  0  0  0  0
  190.6920  171.0710  139.5310 N   0  0  0  0  0  0  0  0  0  0  0  0
  191.5090  169.9030  139.8840 C   0  0  0  0  0  2  0  0  0  0  0  0
  189.7200  170.7060  138.4960 C   0  0  0  0  0  2  0  0  0  0  0  0
  190.3380  170.9040  142.0370 C   0  0  0  0  0  2  0  0  0  0  0  0
  192.3570  173.4580  144.6770 C   0  0  0  0  0  0  0  0  0  0  0  0
  192.3170  172.0920  142.7410 N   0  0  0  0  0  0  0  0  0  0  0  0
  191.0370  171.7940  142.9640 N   0  0  0  0  0  0  0  0  0  0  0  0
  191.0580  173.1390  144.8930 N   0  0  0  0  0  2  0  0  0  0  0  0
  194.3850  173.2150  143.2300 N   0  0  0  0  0  2  0  0  0  0  0  0
  189.1820  172.0420  144.2710 O   0  0  0  0  0  0  0  0  0  0  0  0
  193.0180  172.9160  143.5610 C   0  0  0  0  0  0  0  0  0  0  0  0
  192.9370  174.2440  145.4730 O   0  0  0  0  0  0  0  0  0  0  0  0
  190.3920  172.3150  144.0470 C   0  0  0  0  0  0  0  0  0  0  0  0
  196.2460  173.1840  144.7940 C   0  0  0  0  0  1  0  0  0  0  0  0
  195.2830  174.0570  144.0090 C   0  0  1  0  0  3  0  0  0  0  0  0
  194.9030  176.0450  142.1120 S   0  0  0  0  0  0  0  0  0  0  0  0
  197.1740  177.1350  143.1290 O   0  0  0  0  0  1  0  0  0  0  0  0
  196.0730  174.9690  143.0780 C   0  0  1  0  0  3  0  0  0  0  0  0
  196.0590  176.3790  143.4890 C   0  0  2  0  0  0  0  0  0  0  0  0
  195.4140  176.7450  144.7400 N   0  0  0  0  0  1  0  0  0  0  0  0
  189.9650  173.1110  140.7440 C   0  0  0  0  0  2  0  0  0  0  0  0
  188.5750  173.6290  141.0710 C   0  0  0  0  0  2  0  0  0  0  0  0
  188.3980  174.9630  140.5170 N   0  0  0  0  0  2  0  0  0  0  0  0
  187.9770  175.8440  141.6000 C   0  0  2  0  0  3  0  0  0  0  0  0
  187.5460  177.1280  141.0640 N   0  0  0  0  0  2  0  0  0  0  0  0
  186.2240  177.2510  141.3250 O   0  0  0  0  0  0  0  0  0  0  0  0
  184.2930  178.1800  140.4250 N   0  0  0  0  0  1  0  0  0  0  0  0
  185.7060  177.9170  140.2140 C   0  0  0  0  0  2  0  0  0  0  0  0
  189.3300  176.0790  142.8100 S   0  0  0  0  0  0  0  0  0  0  0  0
  188.3320  175.7450  144.3050 C   0  0  0  0  0  2  0  0  0  0  0  0
  185.8780  178.3660  146.3190 C   0  0  1  0  0  3  0  0  0  0  0  0
  187.5240  176.6190  146.5240 C   0  0  0  0  0  2  0  0  0  0  0  0
  187.5950  178.1270  144.4760 C   0  0  0  0  0  2  0  0  0  0  0  0
  184.5730  177.6990  146.7100 C   0  0  0  0  0  1  0  0  0  0  0  0
  186.9830  177.8350  147.1290 N   0  0  0  0  0  2  0  0  0  0  0  0
  186.1070  178.2250  144.8030 C   0  0  0  0  0  2  0  0  0  0  0  0
  188.2550  176.9580  145.2200 C   0  0  2  0  0  3  0  0  0  0  0  0
  1 25  1  1  0  0  0
  1  8  1  0  0  0  0
  2  4  1  0  0  0  0
  3  2  1  0  0  0  0
  3  7  1  0  0  0  0
  4  6  1  0  0  0  0
  5  6  1  0  0  0  0
  5  1  1  0  0  0  0
  7  5  1  0  0  0  0
  8 11  1  0  0  0  0
  9 12  1  0  0  0  0
  9 16  2  0  0  0  0
 10 11  1  0  0  0  0
 10 15  2  0  0  0  0
 11 17  1  0  0  0  0
 13 15  1  0  0  0  0
 13 19  1  0  0  0  0
 15  9  1  0  0  0  0
 17 14  2  0  0  0  0
 17 12  1  0  0  0  0
 19 18  1  6  0  0  0
 20 22  1  0  0  0  0
 20 23  1  0  0  0  0
 22 23  1  0  0  0  0
 22 19  1  1  0  0  0
 23 21  1  6  0  0  0
 23 24  1  0  0  0  0
 25 26  1  0  0  0  0
 27 26  1  0  0  0  0
 28 27  1  6  0  0  0
 28 33  1  0  0  0  0
 29 30  1  0  0  0  0
 29 28  1  0  0  0  0
 32 31  1  0  0  0  0
 32 30  1  0  0  0  0
 33 34  1  0  0  0  0
 35 38  1  1  0  0  0
 35 39  1  0  0  0  0
 36 39  1  0  0  0  0
 37 40  1  0  0  0  0
 37 41  1  0  0  0  0
 40 35  1  0  0  0  0
 41 34  1  6  0  0  0
 41 36  1  0  0  0  0
M  END
>  <MODEL>
9

>  <REMARK>
 VINA RESULT:      -5.6      2.777      5.969
  Name = 
  15 active torsions:
  status: ('A' for Active; 'I' for Inactive)
    1  A    between atoms: N_3  and  C_16
    2  A    between atoms: N_3  and  O_23
    3  A    between atoms: S_11  and  C_16
    4  A    between atoms: S_11  and  C_34
    5  A    between atoms: C_15  and  O_23
    6  A    between atoms: C_16  and  N_31
    7  A    between atoms: N_17  and  C_21
    8  A    between atoms: C_19  and  C_27
    9  A    between atoms: C_20  and  C_21
   10  A    between atoms: C_20  and  N_35
   11  A    between atoms: C_20  and  C_37
   12  A    between atoms: C_27  and  N_30
   13  A    between atoms: C_28  and  C_34
   14  A    between atoms: N_31  and  C_40
   15  A    between atoms: C_37  and  C_40
                            x       y       z     vdW  Elec       q    Type
                         _______ _______ _______ _____ _____    ______ ____

>  <TORSDO>
F 15

$$$$
