=
 OpenBabel11062422443D

 29 30  0  0  1  0  0  0  0  0999 V2000
  191.3690  176.4920  143.1900 C   0  0  2  0  0  3  0  0  0  0  0  0
  189.8940  175.5620  144.9560 C   0  0  0  0  0  0  0  0  0  0  0  0
  193.0290  176.3120  142.5570 Cl  0  0  0  0  0  0  0  0  0  0  0  0
  189.2460  176.9130  145.0220 C   0  0  0  0  0  0  0  0  0  0  0  0
  189.8940  177.9700  144.5100 C   0  0  0  0  0  3  0  0  0  0  0  0
  191.2720  177.8190  143.9420 C   0  0  0  0  0  2  0  0  0  0  0  0
  190.8970  175.3450  144.0780 C   0  0  0  0  0  0  0  0  0  0  0  0
  186.7740  176.8170  144.6390 C   0  0  0  0  0  3  0  0  0  0  0  0
  187.8540  177.0940  145.4930 C   0  0  0  0  0  0  0  0  0  0  0  0
  183.9390  177.6780  146.7820 F   0  0  0  0  0  0  0  0  0  0  0  0
  185.2130  177.4900  146.3620 C   0  0  0  0  0  0  0  0  0  0  0  0
  186.2800  177.7820  147.2150 C   0  0  0  0  0  3  0  0  0  0  0  0
  185.4590  177.0110  145.0730 C   0  0  0  0  0  3  0  0  0  0  0  0
  187.5950  177.5880  146.7820 C   0  0  0  0  0  3  0  0  0  0  0  0
  191.5050  173.9660  144.0110 C   0  0  2  0  0  3  0  0  0  0  0  0
  192.9990  173.9980  144.2980 C   0  0  0  0  0  2  0  0  0  0  0  0
  193.2570  174.2120  145.7830 C   0  0  0  0  0  2  0  0  0  0  0  0
  194.2170  176.4500  146.3080 C   0  0  0  0  0  1  0  0  0  0  0  0
  194.5420  174.9960  146.0060 C   0  0  2  0  0  3  0  0  0  0  0  0
  195.4090  174.9030  144.7600 C   0  0  0  0  0  2  0  0  0  0  0  0
  197.7280  174.6570  144.3970 O   0  0  0  0  0  0  0  0  0  0  0  0
  196.7660  174.3660  145.0870 C   0  0  0  0  0  0  0  0  0  0  0  0
  196.9360  173.4450  146.2440 C   0  0  0  0  0  1  0  0  0  0  0  0
  191.1950  173.2440  142.7070 C   0  0  0  0  0  2  0  0  0  0  0  0
  189.5010  171.9610  143.2980 C   0  0  0  0  0  1  0  0  0  0  0  0
  189.8160  173.0990  142.5580 O   0  0  0  0  0  0  0  0  0  0  0  0
  189.5050  174.5160  145.8060 O   0  0  0  0  0  0  0  0  0  0  0  0
  190.6640  175.3720  147.7200 C   0  0  0  0  0  1  0  0  0  0  0  0
  189.4300  174.6530  147.2170 C   0  0  0  0  0  2  0  0  0  0  0  0
  1  3  1  1  0  0  0
  1  6  1  0  0  0  0
  1  7  1  0  0  0  0
  2  4  1  0  0  0  0
  2 27  1  0  0  0  0
  4  9  1  0  0  0  0
  5  4  2  0  0  0  0
  6  5  1  0  0  0  0
  7  2  2  0  0  0  0
  8 13  2  0  0  0  0
  8  9  1  0  0  0  0
  9 14  2  0  0  0  0
 11 10  1  0  0  0  0
 11 12  2  0  0  0  0
 13 11  1  0  0  0  0
 14 12  1  0  0  0  0
 15 24  1  6  0  0  0
 15  7  1  0  0  0  0
 15 16  1  0  0  0  0
 16 17  1  0  0  0  0
 17 19  1  0  0  0  0
 19 18  1  6  0  0  0
 20 22  1  0  0  0  0
 20 19  1  0  0  0  0
 21 22  2  0  0  0  0
 22 23  1  0  0  0  0
 26 24  1  0  0  0  0
 26 25  1  0  0  0  0
 27 29  1  0  0  0  0
 29 28  1  0  0  0  0
M  END
>  <MODEL>
1

>  <REMARK>
 VINA RESULT:      -6.5      0.000      0.000
  Name = 
  11 active torsions:
  status: ('A' for Active; 'I' for Inactive)
    1  A    between atoms: C_1  and  C_4
    2  A    between atoms: C_1  and  C_14
    3  A    between atoms: C_1  and  C_22
    4  A    between atoms: C_4  and  C_21
    5  A    between atoms: C_6  and  C_24
    6  A    between atoms: O_7  and  C_11
    7  A    between atoms: O_7  and  C_28
    8  A    between atoms: C_10  and  C_16
    9  A    between atoms: C_14  and  O_25
   10  A    between atoms: C_21  and  C_26
   11  A    between atoms: C_24  and  C_26
                            x       y       z     vdW  Elec       q    Type
                         _______ _______ _______ _____ _____    ______ ____

>  <TORSDO>
F 11

$$$$
=
 OpenBabel11062422443D

 29 30  0  0  1  0  0  0  0  0999 V2000
  190.7080  175.7060  146.6620 C   0  0  2  0  0  3  0  0  0  0  0  0
  189.0810  176.3840  144.9150 C   0  0  0  0  0  0  0  0  0  0  0  0
  192.2170  174.7670  146.8380 Cl  0  0  0  0  0  0  0  0  0  0  0  0
  188.0300  176.3450  145.9840 C   0  0  0  0  0  0  0  0  0  0  0  0
  188.2810  175.6710  147.1170 C   0  0  0  0  0  3  0  0  0  0  0  0
  189.5610  174.9130  147.2870 C   0  0  0  0  0  2  0  0  0  0  0  0
  190.3630  176.0940  145.2280 C   0  0  0  0  0  0  0  0  0  0  0  0
  185.6210  176.7250  146.5460 C   0  0  0  0  0  3  0  0  0  0  0  0
  186.7900  177.1490  145.8960 C   0  0  0  0  0  0  0  0  0  0  0  0
  183.2790  179.3620  145.5840 F   0  0  0  0  0  0  0  0  0  0  0  0
  184.4210  178.6410  145.6840 C   0  0  0  0  0  0  0  0  0  0  0  0
  185.5750  179.0660  145.0200 C   0  0  0  0  0  3  0  0  0  0  0  0
  184.4430  177.4700  146.4440 C   0  0  0  0  0  3  0  0  0  0  0  0
  186.7540  178.3220  145.1230 C   0  0  0  0  0  3  0  0  0  0  0  0
  191.4030  176.1760  144.1380 C   0  0  2  0  0  3  0  0  0  0  0  0
  191.9430  174.8010  143.7750 C   0  0  0  0  0  2  0  0  0  0  0  0
  191.1260  174.1820  142.6500 C   0  0  0  0  0  2  0  0  0  0  0  0
  190.7060  172.4510  144.3910 C   0  0  0  0  0  1  0  0  0  0  0  0
  190.1170  173.1810  143.1950 C   0  0  2  0  0  3  0  0  0  0  0  0
  189.7540  172.1890  142.1020 C   0  0  0  0  0  2  0  0  0  0  0  0
  187.4410  172.6480  141.9820 O   0  0  0  0  0  0  0  0  0  0  0  0
  188.5070  172.6040  141.3900 C   0  0  0  0  0  0  0  0  0  0  0  0
  188.5610  172.9360  139.9390 C   0  0  0  0  0  1  0  0  0  0  0  0
  192.5230  177.1570  144.4590 C   0  0  0  0  0  2  0  0  0  0  0  0
  194.5370  177.0620  145.3530 C   0  0  0  0  0  1  0  0  0  0  0  0
  193.7600  176.5280  144.3270 O   0  0  0  0  0  0  0  0  0  0  0  0
  188.7660  176.6860  143.5820 O   0  0  0  0  0  0  0  0  0  0  0  0
  187.8640  176.4210  141.3790 C   0  0  0  0  0  1  0  0  0  0  0  0
  187.8730  175.9040  142.8010 C   0  0  0  0  0  2  0  0  0  0  0  0
  1  3  1  6  0  0  0
  1  6  1  0  0  0  0
  2  7  2  0  0  0  0
  2  4  1  0  0  0  0
  4  5  2  0  0  0  0
  5  6  1  0  0  0  0
  7  1  1  0  0  0  0
  9  4  1  0  0  0  0
  9  8  2  0  0  0  0
 10 11  1  0  0  0  0
 11 13  2  0  0  0  0
 12 14  2  0  0  0  0
 12 11  1  0  0  0  0
 13  8  1  0  0  0  0
 14  9  1  0  0  0  0
 15 16  1  1  0  0  0
 15 24  1  0  0  0  0
 15  7  1  0  0  0  0
 17 19  1  0  0  0  0
 17 16  1  0  0  0  0
 19 18  1  1  0  0  0
 20 19  1  0  0  0  0
 22 21  2  0  0  0  0
 22 20  1  0  0  0  0
 23 22  1  0  0  0  0
 26 24  1  0  0  0  0
 26 25  1  0  0  0  0
 27  2  1  0  0  0  0
 28 29  1  0  0  0  0
 29 27  1  0  0  0  0
M  END
>  <MODEL>
2

>  <REMARK>
 VINA RESULT:      -6.2      2.164      5.037
  Name = 
  11 active torsions:
  status: ('A' for Active; 'I' for Inactive)
    1  A    between atoms: C_1  and  C_4
    2  A    between atoms: C_1  and  C_14
    3  A    between atoms: C_1  and  C_22
    4  A    between atoms: C_4  and  C_21
    5  A    between atoms: C_6  and  C_24
    6  A    between atoms: O_7  and  C_11
    7  A    between atoms: O_7  and  C_28
    8  A    between atoms: C_10  and  C_16
    9  A    between atoms: C_14  and  O_25
   10  A    between atoms: C_21  and  C_26
   11  A    between atoms: C_24  and  C_26
                            x       y       z     vdW  Elec       q    Type
                         _______ _______ _______ _____ _____    ______ ____

>  <TORSDO>
F 11

$$$$
=
 OpenBabel11062422443D

 29 30  0  0  1  0  0  0  0  0999 V2000
  189.1860  175.4320  146.3340 C   0  0  2  0  0  3  0  0  0  0  0  0
  191.2230  175.8760  144.9880 C   0  0  0  0  0  0  0  0  0  0  0  0
  187.5630  176.1180  146.6290 Cl  0  0  0  0  0  0  0  0  0  0  0  0
  192.0070  175.2640  146.1100 C   0  0  0  0  0  0  0  0  0  0  0  0
  191.4340  175.1520  147.3180 C   0  0  0  0  0  3  0  0  0  0  0  0
  190.0580  175.6890  147.5620 C   0  0  0  0  0  2  0  0  0  0  0  0
  189.8770  175.9500  145.0770 C   0  0  0  0  0  0  0  0  0  0  0  0
  193.4310  173.2890  145.5280 C   0  0  0  0  0  3  0  0  0  0  0  0
  193.3330  174.6410  145.8930 C   0  0  0  0  0  0  0  0  0  0  0  0
  197.0580  172.8620  145.3610 F   0  0  0  0  0  0  0  0  0  0  0  0
  195.8460  173.4400  145.5360 C   0  0  0  0  0  0  0  0  0  0  0  0
  195.7610  174.7840  145.9120 C   0  0  0  0  0  3  0  0  0  0  0  0
  194.6820  172.6930  145.3470 C   0  0  0  0  0  3  0  0  0  0  0  0
  194.5100  175.3810  146.0940 C   0  0  0  0  0  3  0  0  0  0  0  0
  189.1140  176.5390  143.9170 C   0  0  2  0  0  3  0  0  0  0  0  0
  188.3170  177.7650  144.3370 C   0  0  0  0  0  2  0  0  0  0  0  0
  187.1940  178.0420  143.3460 C   0  0  0  0  0  2  0  0  0  0  0  0
  184.7280  177.9660  143.0080 C   0  0  0  0  0  1  0  0  0  0  0  0
  185.8400  178.0400  144.0410 C   0  0  2  0  0  3  0  0  0  0  0  0
  185.7010  179.3050  144.8720 C   0  0  0  0  0  2  0  0  0  0  0  0
  185.9470  179.4660  147.2140 O   0  0  0  0  0  0  0  0  0  0  0  0
  185.3230  178.9860  146.2830 C   0  0  0  0  0  0  0  0  0  0  0  0
  184.1960  178.0500  146.5510 C   0  0  0  0  0  1  0  0  0  0  0  0
  188.2430  175.5170  143.1990 C   0  0  0  0  0  2  0  0  0  0  0  0
  189.0130  173.7530  142.1220 C   0  0  0  0  0  1  0  0  0  0  0  0
  188.8470  175.1320  142.0030 O   0  0  0  0  0  0  0  0  0  0  0  0
  191.8520  176.4050  143.8510 O   0  0  0  0  0  0  0  0  0  0  0  0
  193.7020  175.9070  142.4130 C   0  0  0  0  0  1  0  0  0  0  0  0
  192.2570  175.6060  142.7490 C   0  0  0  0  0  2  0  0  0  0  0  0
  1  3  1  1  0  0  0
  1  6  1  0  0  0  0
  2  7  2  0  0  0  0
  2  4  1  0  0  0  0
  4  5  2  0  0  0  0
  5  6  1  0  0  0  0
  7  1  1  0  0  0  0
  8  9  1  0  0  0  0
  9 14  2  0  0  0  0
  9  4  1  0  0  0  0
 10 11  1  0  0  0  0
 11 12  2  0  0  0  0
 12 14  1  0  0  0  0
 13  8  2  0  0  0  0
 13 11  1  0  0  0  0
 15 24  1  1  0  0  0
 15 16  1  0  0  0  0
 15  7  1  0  0  0  0
 17 19  1  0  0  0  0
 17 16  1  0  0  0  0
 19 18  1  6  0  0  0
 19 20  1  0  0  0  0
 20 22  1  0  0  0  0
 22 23  1  0  0  0  0
 22 21  2  0  0  0  0
 26 25  1  0  0  0  0
 26 24  1  0  0  0  0
 27  2  1  0  0  0  0
 28 29  1  0  0  0  0
 29 27  1  0  0  0  0
M  END
>  <MODEL>
3

>  <REMARK>
 VINA RESULT:      -6.2      3.522      7.915
  Name = 
  11 active torsions:
  status: ('A' for Active; 'I' for Inactive)
    1  A    between atoms: C_1  and  C_4
    2  A    between atoms: C_1  and  C_14
    3  A    between atoms: C_1  and  C_22
    4  A    between atoms: C_4  and  C_21
    5  A    between atoms: C_6  and  C_24
    6  A    between atoms: O_7  and  C_11
    7  A    between atoms: O_7  and  C_28
    8  A    between atoms: C_10  and  C_16
    9  A    between atoms: C_14  and  O_25
   10  A    between atoms: C_21  and  C_26
   11  A    between atoms: C_24  and  C_26
                            x       y       z     vdW  Elec       q    Type
                         _______ _______ _______ _____ _____    ______ ____

>  <TORSDO>
F 11

$$$$
=
 OpenBabel11062422443D

 29 30  0  0  1  0  0  0  0  0999 V2000
  190.7710  175.7060  146.6700 C   0  0  2  0  0  3  0  0  0  0  0  0
  189.1630  176.2630  144.8650 C   0  0  0  0  0  0  0  0  0  0  0  0
  192.2860  174.7930  146.9220 Cl  0  0  0  0  0  0  0  0  0  0  0  0
  188.0980  176.2790  145.9210 C   0  0  0  0  0  0  0  0  0  0  0  0
  188.3390  175.6770  147.0950 C   0  0  0  0  0  3  0  0  0  0  0  0
  189.6230  174.9420  147.3270 C   0  0  0  0  0  2  0  0  0  0  0  0
  190.4430  176.0050  145.2110 C   0  0  0  0  0  0  0  0  0  0  0  0
  186.8230  178.1930  144.9320 C   0  0  0  0  0  3  0  0  0  0  0  0
  186.8530  177.0660  145.7680 C   0  0  0  0  0  0  0  0  0  0  0  0
  183.3800  179.3300  145.3970 F   0  0  0  0  0  0  0  0  0  0  0  0
  184.5100  178.5950  145.5190 C   0  0  0  0  0  0  0  0  0  0  0  0
  184.5320  177.4830  146.3660 C   0  0  0  0  0  3  0  0  0  0  0  0
  185.6560  178.9520  144.8050 C   0  0  0  0  0  3  0  0  0  0  0  0
  185.6990  176.7230  146.4930 C   0  0  0  0  0  3  0  0  0  0  0  0
  191.4960  176.0310  144.1320 C   0  0  2  0  0  3  0  0  0  0  0  0
  192.0890  174.6500  143.8950 C   0  0  0  0  0  2  0  0  0  0  0  0
  191.1210  173.7770  143.1080 C   0  0  0  0  0  2  0  0  0  0  0  0
  189.8070  172.3800  144.6970 C   0  0  0  0  0  1  0  0  0  0  0  0
  190.9900  172.3990  143.7420 C   0  0  2  0  0  3  0  0  0  0  0  0
  192.2710  172.0670  144.4890 C   0  0  0  0  0  2  0  0  0  0  0  0
  192.7480  169.7700  144.2300 O   0  0  0  0  0  0  0  0  0  0  0  0
  192.9770  170.9090  143.8600 C   0  0  0  0  0  0  0  0  0  0  0  0
  193.9910  171.1520  142.7960 C   0  0  0  0  0  1  0  0  0  0  0  0
  192.5770  177.0740  144.3820 C   0  0  0  0  0  2  0  0  0  0  0  0
  194.5200  177.0830  145.4260 C   0  0  0  0  0  1  0  0  0  0  0  0
  193.8330  176.4700  144.3790 O   0  0  0  0  0  0  0  0  0  0  0  0
  188.8630  176.4820  143.5120 O   0  0  0  0  0  0  0  0  0  0  0  0
  187.7170  176.2240  141.4240 C   0  0  0  0  0  1  0  0  0  0  0  0
  188.1160  175.5650  142.7270 C   0  0  0  0  0  2  0  0  0  0  0  0
  1  3  1  6  0  0  0
  1  6  1  0  0  0  0
  2  7  2  0  0  0  0
  2  4  1  0  0  0  0
  4  5  2  0  0  0  0
  5  6  1  0  0  0  0
  7  1  1  0  0  0  0
  8  9  1  0  0  0  0
  9  4  1  0  0  0  0
  9 14  2  0  0  0  0
 10 11  1  0  0  0  0
 11 12  2  0  0  0  0
 12 14  1  0  0  0  0
 13  8  2  0  0  0  0
 13 11  1  0  0  0  0
 15 16  1  1  0  0  0
 15 24  1  0  0  0  0
 15  7  1  0  0  0  0
 17 19  1  0  0  0  0
 17 16  1  0  0  0  0
 19 20  1  0  0  0  0
 19 18  1  1  0  0  0
 22 21  2  0  0  0  0
 22 20  1  0  0  0  0
 23 22  1  0  0  0  0
 26 24  1  0  0  0  0
 26 25  1  0  0  0  0
 27  2  1  0  0  0  0
 28 29  1  0  0  0  0
 29 27  1  0  0  0  0
M  END
>  <MODEL>
4

>  <REMARK>
 VINA RESULT:      -6.1      2.255      4.104
  Name = 
  11 active torsions:
  status: ('A' for Active; 'I' for Inactive)
    1  A    between atoms: C_1  and  C_4
    2  A    between atoms: C_1  and  C_14
    3  A    between atoms: C_1  and  C_22
    4  A    between atoms: C_4  and  C_21
    5  A    between atoms: C_6  and  C_24
    6  A    between atoms: O_7  and  C_11
    7  A    between atoms: O_7  and  C_28
    8  A    between atoms: C_10  and  C_16
    9  A    between atoms: C_14  and  O_25
   10  A    between atoms: C_21  and  C_26
   11  A    between atoms: C_24  and  C_26
                            x       y       z     vdW  Elec       q    Type
                         _______ _______ _______ _____ _____    ______ ____

>  <TORSDO>
F 11

$$$$
=
 OpenBabel11062422443D

 29 30  0  0  1  0  0  0  0  0999 V2000
  188.0430  174.9670  141.3050 C   0  0  2  0  0  3  0  0  0  0  0  0
  188.4830  175.9470  143.5410 C   0  0  0  0  0  0  0  0  0  0  0  0
  188.9280  174.2950  139.9060 Cl  0  0  0  0  0  0  0  0  0  0  0  0
  187.2510  176.7780  143.3360 C   0  0  0  0  0  0  0  0  0  0  0  0
  186.7700  176.9300  142.0940 C   0  0  0  0  0  3  0  0  0  0  0  0
  187.4850  176.3360  140.9200 C   0  0  0  0  0  2  0  0  0  0  0  0
  188.8640  175.0710  142.5870 C   0  0  0  0  0  0  0  0  0  0  0  0
  186.3390  178.6940  144.6640 C   0  0  0  0  0  3  0  0  0  0  0  0
  186.4650  177.3090  144.4730 C   0  0  0  0  0  0  0  0  0  0  0  0
  184.3230  178.8090  147.7130 F   0  0  0  0  0  0  0  0  0  0  0  0
  185.0220  178.3210  146.6600 C   0  0  0  0  0  0  0  0  0  0  0  0
  185.1520  176.9400  146.4870 C   0  0  0  0  0  3  0  0  0  0  0  0
  185.6180  179.1970  145.7500 C   0  0  0  0  0  3  0  0  0  0  0  0
  185.8730  176.4360  145.4010 C   0  0  0  0  0  3  0  0  0  0  0  0
  190.0870  174.2240  142.8370 C   0  0  2  0  0  3  0  0  0  0  0  0
  191.2770  174.7040  142.0190 C   0  0  0  0  0  2  0  0  0  0  0  0
  192.5830  174.2450  142.6500 C   0  0  0  0  0  2  0  0  0  0  0  0
  194.2930  176.0350  142.9210 C   0  0  0  0  0  1  0  0  0  0  0  0
  193.1390  175.3070  143.5890 C   0  0  2  0  0  3  0  0  0  0  0  0
  193.6110  174.6440  144.8730 C   0  0  0  0  0  2  0  0  0  0  0  0
  192.0420  174.8270  146.6280 O   0  0  0  0  0  0  0  0  0  0  0  0
  193.0170  175.3080  146.0730 C   0  0  0  0  0  0  0  0  0  0  0  0
  193.6000  176.5830  146.5760 C   0  0  0  0  0  1  0  0  0  0  0  0
  189.8290  172.7360  142.6400 C   0  0  0  0  0  2  0  0  0  0  0  0
  190.0660  172.4360  144.8130 C   0  0  0  0  0  1  0  0  0  0  0  0
  189.1810  172.2130  143.7590 O   0  0  0  0  0  0  0  0  0  0  0  0
  189.2750  176.0740  144.6920 O   0  0  0  0  0  0  0  0  0  0  0  0
  190.6610  177.8900  143.9730 C   0  0  0  0  0  1  0  0  0  0  0  0
  189.8460  177.3070  145.1070 C   0  0  0  0  0  2  0  0  0  0  0  0
  1  3  1  6  0  0  0
  1  7  1  0  0  0  0
  2 27  1  0  0  0  0
  4  2  1  0  0  0  0
  4  9  1  0  0  0  0
  5  4  2  0  0  0  0
  6  1  1  0  0  0  0
  6  5  1  0  0  0  0
  7 15  1  0  0  0  0
  7  2  2  0  0  0  0
  8 13  1  0  0  0  0
  9  8  2  0  0  0  0
  9 14  1  0  0  0  0
 11 10  1  0  0  0  0
 12 11  1  0  0  0  0
 13 11  2  0  0  0  0
 14 12  2  0  0  0  0
 15 16  1  6  0  0  0
 16 17  1  0  0  0  0
 17 19  1  0  0  0  0
 19 18  1  6  0  0  0
 19 20  1  0  0  0  0
 20 22  1  0  0  0  0
 22 23  1  0  0  0  0
 22 21  2  0  0  0  0
 24 15  1  0  0  0  0
 24 26  1  0  0  0  0
 26 25  1  0  0  0  0
 27 29  1  0  0  0  0
 28 29  1  0  0  0  0
M  END
>  <MODEL>
5

>  <REMARK>
 VINA RESULT:      -6.0      2.322      3.170
  Name = 
  11 active torsions:
  status: ('A' for Active; 'I' for Inactive)
    1  A    between atoms: C_1  and  C_4
    2  A    between atoms: C_1  and  C_14
    3  A    between atoms: C_1  and  C_22
    4  A    between atoms: C_4  and  C_21
    5  A    between atoms: C_6  and  C_24
    6  A    between atoms: O_7  and  C_11
    7  A    between atoms: O_7  and  C_28
    8  A    between atoms: C_10  and  C_16
    9  A    between atoms: C_14  and  O_25
   10  A    between atoms: C_21  and  C_26
   11  A    between atoms: C_24  and  C_26
                            x       y       z     vdW  Elec       q    Type
                         _______ _______ _______ _____ _____    ______ ____

>  <TORSDO>
F 11

$$$$
=
 OpenBabel11062422443D

 29 30  0  0  1  0  0  0  0  0999 V2000
  188.9680  174.6630  142.3480 C   0  0  2  0  0  3  0  0  0  0  0  0
  188.9370  176.2870  144.2250 C   0  0  0  0  0  0  0  0  0  0  0  0
  190.1200  173.8920  141.2230 Cl  0  0  0  0  0  0  0  0  0  0  0  0
  187.5700  176.6870  143.7580 C   0  0  0  0  0  0  0  0  0  0  0  0
  187.1910  176.3700  142.5110 C   0  0  0  0  0  3  0  0  0  0  0  0
  188.1390  175.6880  141.5750 C   0  0  0  0  0  2  0  0  0  0  0  0
  189.6090  175.3150  143.5700 C   0  0  0  0  0  0  0  0  0  0  0  0
  186.3070  178.6610  144.6390 C   0  0  0  0  0  3  0  0  0  0  0  0
  186.5710  177.2820  144.6750 C   0  0  0  0  0  0  0  0  0  0  0  0
  183.8250  178.9770  147.3040 F   0  0  0  0  0  0  0  0  0  0  0  0
  184.7190  178.4260  146.4500 C   0  0  0  0  0  0  0  0  0  0  0  0
  184.9840  177.0550  146.5050 C   0  0  0  0  0  3  0  0  0  0  0  0
  185.3830  179.2290  145.5200 C   0  0  0  0  0  3  0  0  0  0  0  0
  185.9080  176.4860  145.6230 C   0  0  0  0  0  3  0  0  0  0  0  0
  190.9680  174.9100  144.0840 C   0  0  2  0  0  3  0  0  0  0  0  0
  192.0840  175.6300  143.3420 C   0  0  0  0  0  2  0  0  0  0  0  0
  192.6870  176.7260  144.2080 C   0  0  0  0  0  2  0  0  0  0  0  0
  192.8910  176.3970  146.6680 C   0  0  0  0  0  1  0  0  0  0  0  0
  193.5410  176.1350  145.3200 C   0  0  2  0  0  3  0  0  0  0  0  0
  194.9250  176.7630  145.2760 C   0  0  0  0  0  2  0  0  0  0  0  0
  196.4090  176.7790  143.4400 O   0  0  0  0  0  0  0  0  0  0  0  0
  195.7820  176.1060  144.2420 C   0  0  0  0  0  0  0  0  0  0  0  0
  195.8470  174.6200  144.1710 C   0  0  0  0  0  1  0  0  0  0  0  0
  191.1740  173.4010  144.0910 C   0  0  0  0  0  2  0  0  0  0  0  0
  192.9500  172.2030  144.6190 C   0  0  0  0  0  1  0  0  0  0  0  0
  192.4660  173.0950  143.6630 O   0  0  0  0  0  0  0  0  0  0  0  0
  189.5590  176.9170  145.3130 O   0  0  0  0  0  0  0  0  0  0  0  0
  189.2230  175.3240  147.0710 C   0  0  0  0  0  1  0  0  0  0  0  0
  189.1070  176.7740  146.6520 C   0  0  0  0  0  2  0  0  0  0  0  0
  1  3  1  6  0  0  0
  1  7  1  0  0  0  0
  2 27  1  0  0  0  0
  4  2  1  0  0  0  0
  4  9  1  0  0  0  0
  5  4  2  0  0  0  0
  6  1  1  0  0  0  0
  6  5  1  0  0  0  0
  7 15  1  0  0  0  0
  7  2  2  0  0  0  0
  8  9  2  0  0  0  0
  8 13  1  0  0  0  0
  9 14  1  0  0  0  0
 11 12  1  0  0  0  0
 11 10  1  0  0  0  0
 13 11  2  0  0  0  0
 14 12  2  0  0  0  0
 15 16  1  6  0  0  0
 15 24  1  0  0  0  0
 16 17  1  0  0  0  0
 17 19  1  0  0  0  0
 19 18  1  1  0  0  0
 20 19  1  0  0  0  0
 21 22  2  0  0  0  0
 22 20  1  0  0  0  0
 23 22  1  0  0  0  0
 26 24  1  0  0  0  0
 26 25  1  0  0  0  0
 27 29  1  0  0  0  0
 29 28  1  0  0  0  0
M  END
>  <MODEL>
6

>  <REMARK>
 VINA RESULT:      -5.8      1.830      2.420
  Name = 
  11 active torsions:
  status: ('A' for Active; 'I' for Inactive)
    1  A    between atoms: C_1  and  C_4
    2  A    between atoms: C_1  and  C_14
    3  A    between atoms: C_1  and  C_22
    4  A    between atoms: C_4  and  C_21
    5  A    between atoms: C_6  and  C_24
    6  A    between atoms: O_7  and  C_11
    7  A    between atoms: O_7  and  C_28
    8  A    between atoms: C_10  and  C_16
    9  A    between atoms: C_14  and  O_25
   10  A    between atoms: C_21  and  C_26
   11  A    between atoms: C_24  and  C_26
                            x       y       z     vdW  Elec       q    Type
                         _______ _______ _______ _____ _____    ______ ____

>  <TORSDO>
F 11

$$$$
=
 OpenBabel11062422443D

 29 30  0  0  1  0  0  0  0  0999 V2000
  191.0850  176.5730  143.1420 C   0  0  2  0  0  3  0  0  0  0  0  0
  189.6320  175.6770  144.9420 C   0  0  0  0  0  0  0  0  0  0  0  0
  192.6730  176.2670  142.3830 Cl  0  0  0  0  0  0  0  0  0  0  0  0
  189.1410  177.0790  145.1420 C   0  0  0  0  0  0  0  0  0  0  0  0
  189.8670  178.0970  144.6560 C   0  0  0  0  0  3  0  0  0  0  0  0
  191.1810  177.8440  143.9840 C   0  0  0  0  0  2  0  0  0  0  0  0
  190.5480  175.4200  143.9840 C   0  0  0  0  0  0  0  0  0  0  0  0
  186.6450  177.1500  144.9680 C   0  0  0  0  0  3  0  0  0  0  0  0
  187.8090  177.3700  145.7210 C   0  0  0  0  0  0  0  0  0  0  0  0
  184.0670  178.2610  147.3110 F   0  0  0  0  0  0  0  0  0  0  0  0
  185.2840  177.9730  146.7930 C   0  0  0  0  0  0  0  0  0  0  0  0
  186.4370  178.2090  147.5460 C   0  0  0  0  0  3  0  0  0  0  0  0
  185.3880  177.4470  145.5030 C   0  0  0  0  0  3  0  0  0  0  0  0
  187.6950  177.9120  147.0120 C   0  0  0  0  0  3  0  0  0  0  0  0
  190.9970  173.9940  143.7840 C   0  0  2  0  0  3  0  0  0  0  0  0
  189.8520  173.1080  143.3150 C   0  0  0  0  0  2  0  0  0  0  0  0
  189.8790  172.9510  141.8010 C   0  0  0  0  0  2  0  0  0  0  0  0
  188.2630  172.6410  139.9310 C   0  0  0  0  0  1  0  0  0  0  0  0
  188.5830  173.4490  141.1780 C   0  0  2  0  0  3  0  0  0  0  0  0
  188.7310  174.9200  140.8240 C   0  0  0  0  0  2  0  0  0  0  0  0
  187.0030  175.2490  142.4000 O   0  0  0  0  0  0  0  0  0  0  0  0
  187.7980  175.7650  141.6320 C   0  0  0  0  0  0  0  0  0  0  0  0
  187.8200  177.2460  141.4740 C   0  0  0  0  0  1  0  0  0  0  0  0
  191.6960  173.4140  145.0070 C   0  0  0  0  0  2  0  0  0  0  0  0
  193.6310  173.1760  143.9750 C   0  0  0  0  0  1  0  0  0  0  0  0
  193.0240  173.8380  145.0420 O   0  0  0  0  0  0  0  0  0  0  0  0
  189.1860  174.6180  145.7470 O   0  0  0  0  0  0  0  0  0  0  0  0
  190.5030  175.2840  147.6330 C   0  0  0  0  0  1  0  0  0  0  0  0
  189.2040  174.6640  147.1670 C   0  0  0  0  0  2  0  0  0  0  0  0
  1  3  1  1  0  0  0
  1  6  1  0  0  0  0
  1  7  1  0  0  0  0
  2  4  1  0  0  0  0
  2 27  1  0  0  0  0
  4  9  1  0  0  0  0
  5  4  2  0  0  0  0
  6  5  1  0  0  0  0
  7  2  2  0  0  0  0
  8 13  2  0  0  0  0
  8  9  1  0  0  0  0
  9 14  2  0  0  0  0
 11 10  1  0  0  0  0
 11 12  2  0  0  0  0
 13 11  1  0  0  0  0
 14 12  1  0  0  0  0
 15 16  1  1  0  0  0
 15  7  1  0  0  0  0
 15 24  1  0  0  0  0
 17 16  1  0  0  0  0
 19 18  1  6  0  0  0
 19 17  1  0  0  0  0
 20 19  1  0  0  0  0
 20 22  1  0  0  0  0
 22 21  2  0  0  0  0
 23 22  1  0  0  0  0
 24 26  1  0  0  0  0
 25 26  1  0  0  0  0
 27 29  1  0  0  0  0
 29 28  1  0  0  0  0
M  END
>  <MODEL>
7

>  <REMARK>
 VINA RESULT:      -5.8      1.924      4.666
  Name = 
  11 active torsions:
  status: ('A' for Active; 'I' for Inactive)
    1  A    between atoms: C_1  and  C_4
    2  A    between atoms: C_1  and  C_14
    3  A    between atoms: C_1  and  C_22
    4  A    between atoms: C_4  and  C_21
    5  A    between atoms: C_6  and  C_24
    6  A    between atoms: O_7  and  C_11
    7  A    between atoms: O_7  and  C_28
    8  A    between atoms: C_10  and  C_16
    9  A    between atoms: C_14  and  O_25
   10  A    between atoms: C_21  and  C_26
   11  A    between atoms: C_24  and  C_26
                            x       y       z     vdW  Elec       q    Type
                         _______ _______ _______ _____ _____    ______ ____

>  <TORSDO>
F 11

$$$$
=
 OpenBabel11062422443D

 29 30  0  0  1  0  0  0  0  0999 V2000
  189.9370  175.5170  142.7750 C   0  0  2  0  0  3  0  0  0  0  0  0
  189.1290  176.3050  144.9860 C   0  0  0  0  0  0  0  0  0  0  0  0
  191.4430  174.9820  141.9790 Cl  0  0  0  0  0  0  0  0  0  0  0  0
  188.1260  177.1340  144.2400 C   0  0  0  0  0  0  0  0  0  0  0  0
  188.3310  177.3860  142.9390 C   0  0  0  0  0  3  0  0  0  0  0  0
  189.5730  176.9070  142.2540 C   0  0  0  0  0  2  0  0  0  0  0  0
  189.9890  175.5200  144.3000 C   0  0  0  0  0  0  0  0  0  0  0  0
  186.2990  178.8130  144.5630 C   0  0  0  0  0  3  0  0  0  0  0  0
  186.8440  177.5520  144.8520 C   0  0  0  0  0  0  0  0  0  0  0  0
  183.2840  178.7700  146.6310 F   0  0  0  0  0  0  0  0  0  0  0  0
  184.4430  178.3750  146.0540 C   0  0  0  0  0  0  0  0  0  0  0  0
  184.9840  177.1230  146.3590 C   0  0  0  0  0  3  0  0  0  0  0  0
  185.1010  179.2210  145.1590 C   0  0  0  0  0  3  0  0  0  0  0  0
  186.1810  176.7140  145.7640 C   0  0  0  0  0  3  0  0  0  0  0  0
  190.9630  174.6720  145.0790 C   0  0  2  0  0  3  0  0  0  0  0  0
  192.3630  175.2680  145.0610 C   0  0  0  0  0  2  0  0  0  0  0  0
  193.1930  174.7250  146.2160 C   0  0  0  0  0  2  0  0  0  0  0  0
  195.1170  175.9500  145.2160 C   0  0  0  0  0  1  0  0  0  0  0  0
  194.6650  174.6380  145.8360 C   0  0  2  0  0  3  0  0  0  0  0  0
  194.8610  173.4990  144.8490 C   0  0  0  0  0  2  0  0  0  0  0  0
  194.5200  171.3720  145.8150 O   0  0  0  0  0  0  0  0  0  0  0  0
  195.3160  172.2560  145.5450 C   0  0  0  0  0  0  0  0  0  0  0  0
  196.7450  172.1100  145.9390 C   0  0  0  0  0  1  0  0  0  0  0  0
  190.9630  173.2140  144.6400 C   0  0  0  0  0  2  0  0  0  0  0  0
  189.4030  171.9510  143.7250 C   0  0  0  0  0  1  0  0  0  0  0  0
  189.7190  172.6390  144.8960 O   0  0  0  0  0  0  0  0  0  0  0  0
  189.2230  176.3420  146.3850 O   0  0  0  0  0  0  0  0  0  0  0  0
  190.8940  177.0110  147.9650 C   0  0  0  0  0  1  0  0  0  0  0  0
  189.7380  177.4580  147.0970 C   0  0  0  0  0  2  0  0  0  0  0  0
  1  3  1  6  0  0  0
  1  7  1  0  0  0  0
  2 27  1  0  0  0  0
  4  9  1  0  0  0  0
  4  2  1  0  0  0  0
  5  4  2  0  0  0  0
  6  1  1  0  0  0  0
  6  5  1  0  0  0  0
  7  2  2  0  0  0  0
  7 15  1  0  0  0  0
  8  9  2  0  0  0  0
  8 13  1  0  0  0  0
  9 14  1  0  0  0  0
 11 12  1  0  0  0  0
 11 10  1  0  0  0  0
 13 11  2  0  0  0  0
 14 12  2  0  0  0  0
 15 24  1  6  0  0  0
 16 15  1  0  0  0  0
 16 17  1  0  0  0  0
 19 18  1  6  0  0  0
 19 17  1  0  0  0  0
 20 22  1  0  0  0  0
 20 19  1  0  0  0  0
 22 21  2  0  0  0  0
 22 23  1  0  0  0  0
 24 26  1  0  0  0  0
 25 26  1  0  0  0  0
 27 29  1  0  0  0  0
 29 28  1  0  0  0  0
M  END
>  <MODEL>
8

>  <REMARK>
 VINA RESULT:      -5.8      1.783      1.946
  Name = 
  11 active torsions:
  status: ('A' for Active; 'I' for Inactive)
    1  A    between atoms: C_1  and  C_4
    2  A    between atoms: C_1  and  C_14
    3  A    between atoms: C_1  and  C_22
    4  A    between atoms: C_4  and  C_21
    5  A    between atoms: C_6  and  C_24
    6  A    between atoms: O_7  and  C_11
    7  A    between atoms: O_7  and  C_28
    8  A    between atoms: C_10  and  C_16
    9  A    between atoms: C_14  and  O_25
   10  A    between atoms: C_21  and  C_26
   11  A    between atoms: C_24  and  C_26
                            x       y       z     vdW  Elec       q    Type
                         _______ _______ _______ _____ _____    ______ ____

>  <TORSDO>
F 11

$$$$
=
 OpenBabel11062422443D

 29 30  0  0  1  0  0  0  0  0999 V2000
  191.6910  176.8020  142.8520 C   0  0  2  0  0  3  0  0  0  0  0  0
  189.3850  175.8850  142.8650 C   0  0  0  0  0  0  0  0  0  0  0  0
  193.3230  176.4140  143.4650 Cl  0  0  0  0  0  0  0  0  0  0  0  0
  188.9010  177.3040  142.8330 C   0  0  0  0  0  0  0  0  0  0  0  0
  189.7450  178.2860  143.1820 C   0  0  0  0  0  3  0  0  0  0  0  0
  191.1280  177.9700  143.6600 C   0  0  0  0  0  2  0  0  0  0  0  0
  190.7120  175.6320  142.8600 C   0  0  0  0  0  0  0  0  0  0  0  0
  186.5380  178.0710  143.1430 C   0  0  0  0  0  3  0  0  0  0  0  0
  187.5740  177.6690  142.2850 C   0  0  0  0  0  0  0  0  0  0  0  0
  183.8180  178.6160  140.7610 F   0  0  0  0  0  0  0  0  0  0  0  0
  185.0400  178.3060  141.2570 C   0  0  0  0  0  0  0  0  0  0  0  0
  186.0590  177.8930  140.3950 C   0  0  0  0  0  3  0  0  0  0  0  0
  185.2780  178.3930  142.6310 C   0  0  0  0  0  3  0  0  0  0  0  0
  187.3200  177.5730  140.9070 C   0  0  0  0  0  3  0  0  0  0  0  0
  191.1680  174.1950  142.8570 C   0  0  2  0  0  3  0  0  0  0  0  0
  191.8500  173.8210  144.1640 C   0  0  0  0  0  2  0  0  0  0  0  0
  190.8790  173.9390  145.3310 C   0  0  0  0  0  2  0  0  0  0  0  0
  192.5140  175.0250  146.8640 C   0  0  0  0  0  1  0  0  0  0  0  0
  191.1740  175.1800  146.1620 C   0  0  2  0  0  3  0  0  0  0  0  0
  190.0670  175.3730  147.1850 C   0  0  0  0  0  2  0  0  0  0  0  0
  189.6440  177.6940  147.1160 O   0  0  0  0  0  0  0  0  0  0  0  0
  189.2370  176.5730  146.8610 C   0  0  0  0  0  0  0  0  0  0  0  0
  187.8900  176.3970  146.2520 C   0  0  0  0  0  1  0  0  0  0  0  0
  192.0300  173.8480  141.6500 C   0  0  0  0  0  2  0  0  0  0  0  0
  191.3000  172.2860  140.2730 C   0  0  0  0  0  1  0  0  0  0  0  0
  191.2240  173.6550  140.5290 O   0  0  0  0  0  0  0  0  0  0  0  0
  188.4940  174.8030  142.9280 O   0  0  0  0  0  0  0  0  0  0  0  0
  187.9240  172.6710  141.9990 C   0  0  0  0  0  1  0  0  0  0  0  0
  187.9670  174.1660  141.7740 C   0  0  0  0  0  2  0  0  0  0  0  0
  1  7  1  0  0  0  0
  1  3  1  1  0  0  0
  1  6  1  0  0  0  0
  2 27  1  0  0  0  0
  4  2  1  0  0  0  0
  4  5  2  0  0  0  0
  5  6  1  0  0  0  0
  7  2  2  0  0  0  0
  9  4  1  0  0  0  0
  9  8  2  0  0  0  0
 10 11  1  0  0  0  0
 11 13  2  0  0  0  0
 12 14  2  0  0  0  0
 12 11  1  0  0  0  0
 13  8  1  0  0  0  0
 14  9  1  0  0  0  0
 15 24  1  6  0  0  0
 15  7  1  0  0  0  0
 15 16  1  0  0  0  0
 16 17  1  0  0  0  0
 17 19  1  0  0  0  0
 19 18  1  1  0  0  0
 19 20  1  0  0  0  0
 22 21  2  0  0  0  0
 22 20  1  0  0  0  0
 23 22  1  0  0  0  0
 25 26  1  0  0  0  0
 26 24  1  0  0  0  0
 29 28  1  0  0  0  0
 29 27  1  0  0  0  0
M  END
>  <MODEL>
9

>  <REMARK>
 VINA RESULT:      -5.7      2.791      4.509
  Name = 
  11 active torsions:
  status: ('A' for Active; 'I' for Inactive)
    1  A    between atoms: C_1  and  C_4
    2  A    between atoms: C_1  and  C_14
    3  A    between atoms: C_1  and  C_22
    4  A    between atoms: C_4  and  C_21
    5  A    between atoms: C_6  and  C_24
    6  A    between atoms: O_7  and  C_11
    7  A    between atoms: O_7  and  C_28
    8  A    between atoms: C_10  and  C_16
    9  A    between atoms: C_14  and  O_25
   10  A    between atoms: C_21  and  C_26
   11  A    between atoms: C_24  and  C_26
                            x       y       z     vdW  Elec       q    Type
                         _______ _______ _______ _____ _____    ______ ____

>  <TORSDO>
F 11

$$$$
