=
 OpenBabel11062422573D

 29 31  0  0  1  0  0  0  0  0999 V2000
  186.5660  177.1230  143.2630 C   0  0  0  0  0  2  0  0  0  0  0  0
  187.6650  176.0810  143.0100 C   0  0  2  0  0  3  0  0  0  0  0  0
  188.2940  175.9600  145.4150 C   0  0  2  0  0  3  0  0  0  0  0  0
  184.6290  177.9860  146.3860 C   0  0  0  0  0  3  0  0  0  0  0  0
  188.8320  176.2290  143.9950 C   0  0  2  0  0  3  0  0  0  0  0  0
  187.0330  176.7360  145.7420 C   0  0  0  0  0  0  0  0  0  0  0  0
  185.4340  177.4900  147.3620 N   0  0  0  0  0  0  0  0  0  0  0  0
  186.6060  176.8680  147.0710 C   0  0  0  0  0  3  0  0  0  0  0  0
  186.1870  177.2120  144.7150 C   0  0  0  0  0  0  0  0  0  0  0  0
  184.9930  177.8560  145.0450 C   0  0  0  0  0  3  0  0  0  0  0  0
  190.6060  177.5050  143.0170 O   0  0  0  0  0  1  0  0  0  0  0  0
  189.5140  177.5920  143.8800 C   0  0  0  0  0  2  0  0  0  0  0  0
  189.3530  175.9560  146.5320 C   0  0  1  0  0  3  0  0  0  0  0  0
  189.2590  174.6940  147.3760 C   0  0  0  0  0  1  0  0  0  0  0  0
  191.6790  176.7070  148.0300 O   0  0  0  0  0  0  0  0  0  0  0  0
  191.8190  176.4790  146.8000 C   0  0  0  0  0  0  0  0  0  0  0  0
  190.6990  176.1140  145.9940 N   0  0  0  0  0  2  0  0  0  0  0  0
  193.1740  176.5600  146.1840 C   0  0  0  0  0  2  0  0  0  0  0  0
  193.1720  175.4730  143.9160 O   0  0  0  0  0  1  0  0  0  0  0  0
  193.2440  173.9830  145.8640 C   0  0  0  0  0  2  0  0  0  0  0  0
  194.6440  174.5400  145.6130 C   0  0  0  0  0  2  0  0  0  0  0  0
  193.4260  175.3640  145.2830 C   0  0  0  0  0  0  0  0  0  0  0  0
  187.2780  176.8250  140.5850 C   0  0  0  0  0  1  0  0  0  0  0  0
  188.1080  175.9730  141.5440 C   0  0  2  0  0  3  0  0  0  0  0  0
  188.2490  174.5110  141.0970 C   0  0  2  0  0  3  0  0  0  0  0  0
  187.6740  173.5520  142.1260 C   0  0  0  0  0  1  0  0  0  0  0  0
  190.7860  174.1810  141.6490 C   0  0  0  0  0  1  0  0  0  0  0  0
  189.6430  174.1190  140.6880 C   0  0  0  0  0  0  0  0  0  0  0  0
  189.8480  173.7520  139.5420 O   0  0  0  0  0  0  0  0  0  0  0  0
  1  9  1  0  0  0  0
  2 24  1  6  0  0  0
  2  1  1  0  0  0  0
  2  5  1  0  0  0  0
  3  6  1  0  0  0  0
  3 13  1  1  0  0  0
  4  7  1  0  0  0  0
  5 12  1  1  0  0  0
  5  3  1  0  0  0  0
  6  8  1  0  0  0  0
  8  7  2  0  0  0  0
  9 10  1  0  0  0  0
  9  6  2  0  0  0  0
 10  4  2  0  0  0  0
 11 12  1  0  0  0  0
 13 14  1  6  0  0  0
 16 15  2  0  0  0  0
 17 13  1  0  0  0  0
 17 16  1  0  0  0  0
 18 16  1  0  0  0  0
 19 22  1  0  0  0  0
 21 20  1  0  0  0  0
 22 21  1  0  0  0  0
 22 20  1  0  0  0  0
 22 18  1  0  0  0  0
 24 23  1  6  0  0  0
 25 24  1  0  0  0  0
 25 26  1  1  0  0  0
 28 25  1  0  0  0  0
 28 27  1  0  0  0  0
 29 28  2  0  0  0  0
M  END
>  <MODEL>
1

>  <REMARK>
 VINA RESULT:      -6.7      0.000      0.000
  Name = 
  8 active torsions:
  status: ('A' for Active; 'I' for Inactive)
    1  A    between atoms: C_4  and  C_29
    2  A    between atoms: C_5  and  C_6
    3  A    between atoms: C_6  and  N_22
    4  A    between atoms: C_7  and  C_10
    5  A    between atoms: C_11  and  C_15
    6  A    between atoms: C_15  and  C_21
    7  A    between atoms: C_19  and  C_25
    8  A    between atoms: C_25  and  C_29
                            x       y       z     vdW  Elec       q    Type
                         _______ _______ _______ _____ _____    ______ ____

>  <TORSDO>
F 8

$$$$
=
 OpenBabel11062422573D

 29 31  0  0  1  0  0  0  0  0999 V2000
  186.7250  176.4600  141.7800 C   0  0  0  0  0  2  0  0  0  0  0  0
  187.6390  175.3910  142.3940 C   0  0  2  0  0  3  0  0  0  0  0  0
  187.3570  176.2770  144.7010 C   0  0  2  0  0  3  0  0  0  0  0  0
  184.0040  178.5820  143.3120 C   0  0  0  0  0  3  0  0  0  0  0  0
  188.3950  175.9180  143.6190 C   0  0  2  0  0  3  0  0  0  0  0  0
  186.2190  177.1390  144.1880 C   0  0  0  0  0  0  0  0  0  0  0  0
  184.3150  178.5280  144.6330 N   0  0  0  0  0  0  0  0  0  0  0  0
  185.3860  177.8230  145.0840 C   0  0  0  0  0  3  0  0  0  0  0  0
  185.8850  177.1550  142.8140 C   0  0  0  0  0  0  0  0  0  0  0  0
  184.7850  177.8970  142.3800 C   0  0  0  0  0  3  0  0  0  0  0  0
  190.6130  176.6510  143.0940 O   0  0  0  0  0  1  0  0  0  0  0  0
  189.3040  177.0970  143.2730 C   0  0  0  0  0  2  0  0  0  0  0  0
  187.9400  176.7250  146.0540 C   0  0  1  0  0  3  0  0  0  0  0  0
  186.8950  176.6460  147.1570 C   0  0  0  0  0  1  0  0  0  0  0  0
  190.1680  177.6750  147.5860 O   0  0  0  0  0  0  0  0  0  0  0  0
  190.1930  176.4810  147.1880 C   0  0  0  0  0  0  0  0  0  0  0  0
  189.1210  175.9490  146.4090 N   0  0  0  0  0  2  0  0  0  0  0  0
  191.3390  175.6030  147.5600 C   0  0  0  0  0  2  0  0  0  0  0  0
  191.9160  174.3180  145.4760 O   0  0  0  0  0  1  0  0  0  0  0  0
  193.7040  175.6620  146.4860 C   0  0  0  0  0  2  0  0  0  0  0  0
  192.7860  176.5810  145.6830 C   0  0  0  0  0  2  0  0  0  0  0  0
  192.2330  175.3510  146.3570 C   0  0  0  0  0  0  0  0  0  0  0  0
  188.1540  174.9270  139.9230 C   0  0  0  0  0  1  0  0  0  0  0  0
  188.5400  174.6720  141.3780 C   0  0  2  0  0  3  0  0  0  0  0  0
  188.7050  173.1830  141.7160 C   0  0  2  0  0  3  0  0  0  0  0  0
  187.3890  172.5560  142.1470 C   0  0  0  0  0  1  0  0  0  0  0  0
  189.5530  172.1220  143.9530 C   0  0  0  0  0  1  0  0  0  0  0  0
  189.8090  172.8860  142.6940 C   0  0  0  0  0  0  0  0  0  0  0  0
  190.9370  173.2880  142.4600 O   0  0  0  0  0  0  0  0  0  0  0  0
  1  2  1  0  0  0  0
  1  9  1  0  0  0  0
  2 24  1  6  0  0  0
  2  5  1  0  0  0  0
  3 13  1  1  0  0  0
  4  7  1  0  0  0  0
  5 12  1  6  0  0  0
  5  3  1  0  0  0  0
  6  3  1  0  0  0  0
  6  8  1  0  0  0  0
  7  8  2  0  0  0  0
  9  6  2  0  0  0  0
 10  9  1  0  0  0  0
 10  4  2  0  0  0  0
 11 12  1  0  0  0  0
 13 17  1  0  0  0  0
 13 14  1  1  0  0  0
 16 18  1  0  0  0  0
 16 15  2  0  0  0  0
 17 16  1  0  0  0  0
 19 22  1  0  0  0  0
 21 22  1  0  0  0  0
 21 20  1  0  0  0  0
 22 20  1  0  0  0  0
 22 18  1  0  0  0  0
 24 23  1  6  0  0  0
 24 25  1  0  0  0  0
 25 26  1  1  0  0  0
 25 28  1  0  0  0  0
 28 27  1  0  0  0  0
 29 28  2  0  0  0  0
M  END
>  <MODEL>
2

>  <REMARK>
 VINA RESULT:      -6.5      1.569      2.119
  Name = 
  8 active torsions:
  status: ('A' for Active; 'I' for Inactive)
    1  A    between atoms: C_4  and  C_29
    2  A    between atoms: C_5  and  C_6
    3  A    between atoms: C_6  and  N_22
    4  A    between atoms: C_7  and  C_10
    5  A    between atoms: C_11  and  C_15
    6  A    between atoms: C_15  and  C_21
    7  A    between atoms: C_19  and  C_25
    8  A    between atoms: C_25  and  C_29
                            x       y       z     vdW  Elec       q    Type
                         _______ _______ _______ _____ _____    ______ ____

>  <TORSDO>
F 8

$$$$
=
 OpenBabel11062422573D

 29 31  0  0  1  0  0  0  0  0999 V2000
  192.2430  175.2910  142.9510 C   0  0  0  0  0  2  0  0  0  0  0  0
  191.5820  175.8050  144.2380 C   0  0  2  0  0  3  0  0  0  0  0  0
  189.3060  175.8040  143.2340 C   0  0  2  0  0  3  0  0  0  0  0  0
  190.8220  173.3900  140.0150 C   0  0  0  0  0  3  0  0  0  0  0  0
  190.3580  176.6790  143.9430 C   0  0  2  0  0  3  0  0  0  0  0  0
  189.8650  175.0100  142.0680 C   0  0  0  0  0  0  0  0  0  0  0  0
  189.4930  173.6550  140.1250 N   0  0  0  0  0  0  0  0  0  0  0  0
  189.0030  174.4350  141.1230 C   0  0  0  0  0  3  0  0  0  0  0  0
  191.2440  174.7120  141.9880 C   0  0  0  0  0  0  0  0  0  0  0  0
  191.7190  173.9150  140.9460 C   0  0  0  0  0  3  0  0  0  0  0  0
  190.9210  179.0060  143.9900 O   0  0  0  0  0  1  0  0  0  0  0  0
  190.7190  177.9240  143.1340 C   0  0  0  0  0  2  0  0  0  0  0  0
  187.9560  176.4880  142.9550 C   0  0  1  0  0  3  0  0  0  0  0  0
  186.8750  175.4650  142.6390 C   0  0  0  0  0  1  0  0  0  0  0  0
  186.0350  178.6120  142.8230 O   0  0  0  0  0  0  0  0  0  0  0  0
  186.5730  178.3730  143.9360 C   0  0  0  0  0  0  0  0  0  0  0  0
  187.5480  177.3380  144.0670 N   0  0  0  0  0  2  0  0  0  0  0  0
  186.1670  179.1580  145.1360 C   0  0  0  0  0  2  0  0  0  0  0  0
  183.6650  178.9050  145.1020 O   0  0  0  0  0  1  0  0  0  0  0  0
  184.8060  178.4090  147.2180 C   0  0  0  0  0  2  0  0  0  0  0  0
  184.9550  177.2120  146.2820 C   0  0  0  0  0  2  0  0  0  0  0  0
  184.8780  178.6100  145.7240 C   0  0  0  0  0  0  0  0  0  0  0  0
  193.9540  176.6860  144.6690 C   0  0  0  0  0  1  0  0  0  0  0  0
  192.5600  176.4330  145.2420 C   0  0  2  0  0  3  0  0  0  0  0  0
  192.5750  175.6740  146.5760 C   0  0  2  0  0  3  0  0  0  0  0  0
  192.7490  174.1780  146.3680 C   0  0  0  0  0  1  0  0  0  0  0  0
  190.1740  175.1370  147.4670 C   0  0  0  0  0  1  0  0  0  0  0  0
  191.4090  175.9790  147.4770 C   0  0  0  0  0  0  0  0  0  0  0  0
  191.4680  176.9410  148.2240 O   0  0  0  0  0  0  0  0  0  0  0  0
  1  2  1  0  0  0  0
  2 24  1  6  0  0  0
  3 13  1  6  0  0  0
  3  5  1  0  0  0  0
  4  7  2  0  0  0  0
  4 10  1  0  0  0  0
  5 12  1  6  0  0  0
  5  2  1  0  0  0  0
  6  3  1  0  0  0  0
  7  8  1  0  0  0  0
  8  6  2  0  0  0  0
  9  6  1  0  0  0  0
  9  1  1  0  0  0  0
 10  9  2  0  0  0  0
 12 11  1  0  0  0  0
 13 14  1  1  0  0  0
 13 17  1  0  0  0  0
 15 16  2  0  0  0  0
 16 17  1  0  0  0  0
 16 18  1  0  0  0  0
 18 22  1  0  0  0  0
 19 22  1  0  0  0  0
 21 20  1  0  0  0  0
 22 21  1  0  0  0  0
 22 20  1  0  0  0  0
 24 23  1  6  0  0  0
 24 25  1  0  0  0  0
 25 26  1  6  0  0  0
 25 28  1  0  0  0  0
 27 28  1  0  0  0  0
 28 29  2  0  0  0  0
M  END
>  <MODEL>
3

>  <REMARK>
 VINA RESULT:      -6.3      2.454      6.955
  Name = 
  8 active torsions:
  status: ('A' for Active; 'I' for Inactive)
    1  A    between atoms: C_4  and  C_29
    2  A    between atoms: C_5  and  C_6
    3  A    between atoms: C_6  and  N_22
    4  A    between atoms: C_7  and  C_10
    5  A    between atoms: C_11  and  C_15
    6  A    between atoms: C_15  and  C_21
    7  A    between atoms: C_19  and  C_25
    8  A    between atoms: C_25  and  C_29
                            x       y       z     vdW  Elec       q    Type
                         _______ _______ _______ _____ _____    ______ ____

>  <TORSDO>
F 8

$$$$
=
 OpenBabel11062422573D

 29 31  0  0  1  0  0  0  0  0999 V2000
  187.1960  175.6610  143.2370 C   0  0  0  0  0  2  0  0  0  0  0  0
  187.5840  177.1290  143.4650 C   0  0  2  0  0  3  0  0  0  0  0  0
  189.9760  176.7250  142.9140 C   0  0  2  0  0  3  0  0  0  0  0  0
  188.8580  172.9340  141.2230 C   0  0  0  0  0  3  0  0  0  0  0  0
  189.0170  177.2670  143.9930 C   0  0  2  0  0  3  0  0  0  0  0  0
  189.5820  175.3600  142.3820 C   0  0  0  0  0  0  0  0  0  0  0  0
  190.1280  173.4030  141.1090 N   0  0  0  0  0  0  0  0  0  0  0  0
  190.5020  174.5880  141.6590 C   0  0  0  0  0  3  0  0  0  0  0  0
  188.2480  174.9040  142.4740 C   0  0  0  0  0  0  0  0  0  0  0  0
  187.8960  173.6780  141.9080 C   0  0  0  0  0  3  0  0  0  0  0  0
  189.5070  177.5120  146.3230 O   0  0  0  0  0  1  0  0  0  0  0  0
  189.2050  176.5700  145.3400 C   0  0  0  0  0  2  0  0  0  0  0  0
  191.4760  176.8840  143.2230 C   0  0  1  0  0  3  0  0  0  0  0  0
  191.8000  178.3020  143.6670 C   0  0  0  0  0  1  0  0  0  0  0  0
  194.0250  175.5740  143.2700 O   0  0  0  0  0  0  0  0  0  0  0  0
  193.2120  175.3120  144.1950 C   0  0  0  0  0  0  0  0  0  0  0  0
  191.9200  175.9200  144.2230 N   0  0  0  0  0  2  0  0  0  0  0  0
  193.6110  174.3810  145.2880 C   0  0  0  0  0  2  0  0  0  0  0  0
  192.5230  172.5060  144.0130 O   0  0  0  0  0  1  0  0  0  0  0  0
  194.2190  171.8850  145.6750 C   0  0  0  0  0  2  0  0  0  0  0  0
  194.9200  172.3620  144.4050 C   0  0  0  0  0  2  0  0  0  0  0  0
  193.5870  172.9420  144.8030 C   0  0  0  0  0  0  0  0  0  0  0  0
  185.5770  177.0730  145.0630 C   0  0  0  0  0  1  0  0  0  0  0  0
  186.5530  177.9370  144.2670 C   0  0  2  0  0  3  0  0  0  0  0  0
  185.8630  178.9990  143.4010 C   0  0  2  0  0  3  0  0  0  0  0  0
  185.2110  180.0790  144.2500 C   0  0  0  0  0  1  0  0  0  0  0  0
  185.3560  178.1160  140.9900 C   0  0  0  0  0  1  0  0  0  0  0  0
  184.9090  178.4450  142.3780 C   0  0  0  0  0  0  0  0  0  0  0  0
  183.7410  178.2700  142.6840 O   0  0  0  0  0  0  0  0  0  0  0  0
  1  2  1  0  0  0  0
  2  5  1  0  0  0  0
  2 24  1  1  0  0  0
  3 13  1  1  0  0  0
  3  5  1  0  0  0  0
  4 10  1  0  0  0  0
  5 12  1  1  0  0  0
  6  9  1  0  0  0  0
  6  3  1  0  0  0  0
  7  4  2  0  0  0  0
  7  8  1  0  0  0  0
  8  6  2  0  0  0  0
  9  1  1  0  0  0  0
 10  9  2  0  0  0  0
 12 11  1  0  0  0  0
 13 14  1  1  0  0  0
 13 17  1  0  0  0  0
 15 16  2  0  0  0  0
 16 17  1  0  0  0  0
 16 18  1  0  0  0  0
 19 22  1  0  0  0  0
 21 22  1  0  0  0  0
 21 20  1  0  0  0  0
 22 18  1  0  0  0  0
 22 20  1  0  0  0  0
 24 23  1  6  0  0  0
 25 26  1  1  0  0  0
 25 24  1  0  0  0  0
 27 28  1  0  0  0  0
 28 29  2  0  0  0  0
 28 25  1  0  0  0  0
M  END
>  <MODEL>
4

>  <REMARK>
 VINA RESULT:      -6.2      2.381      4.920
  Name = 
  8 active torsions:
  status: ('A' for Active; 'I' for Inactive)
    1  A    between atoms: C_4  and  C_29
    2  A    between atoms: C_5  and  C_6
    3  A    between atoms: C_6  and  N_22
    4  A    between atoms: C_7  and  C_10
    5  A    between atoms: C_11  and  C_15
    6  A    between atoms: C_15  and  C_21
    7  A    between atoms: C_19  and  C_25
    8  A    between atoms: C_25  and  C_29
                            x       y       z     vdW  Elec       q    Type
                         _______ _______ _______ _____ _____    ______ ____

>  <TORSDO>
F 8

$$$$
=
 OpenBabel11062422573D

 29 31  0  0  1  0  0  0  0  0999 V2000
  188.3850  175.8350  143.3150 C   0  0  0  0  0  2  0  0  0  0  0  0
  189.5210  174.8030  143.3740 C   0  0  2  0  0  3  0  0  0  0  0  0
  190.3740  175.6620  145.5470 C   0  0  2  0  0  3  0  0  0  0  0  0
  186.6910  177.8250  146.0390 C   0  0  0  0  0  3  0  0  0  0  0  0
  190.7600  175.3560  144.0860 C   0  0  2  0  0  3  0  0  0  0  0  0
  189.1010  176.4760  145.6800 C   0  0  0  0  0  0  0  0  0  0  0  0
  187.6120  177.7760  147.0380 N   0  0  0  0  0  0  0  0  0  0  0  0
  188.7900  177.1160  146.8880 C   0  0  0  0  0  3  0  0  0  0  0  0
  188.1360  176.4860  144.6470 C   0  0  0  0  0  0  0  0  0  0  0  0
  186.9390  177.1810  144.8270 C   0  0  0  0  0  3  0  0  0  0  0  0
  192.5810  176.2580  142.8210 O   0  0  0  0  0  1  0  0  0  0  0  0
  191.3410  176.5760  143.3710 C   0  0  0  0  0  2  0  0  0  0  0  0
  191.5290  176.1270  146.4530 C   0  0  1  0  0  3  0  0  0  0  0  0
  191.1910  175.9260  147.9230 C   0  0  0  0  0  1  0  0  0  0  0  0
  194.1650  177.1660  146.8880 O   0  0  0  0  0  0  0  0  0  0  0  0
  194.0600  176.0220  146.3720 C   0  0  0  0  0  0  0  0  0  0  0  0
  192.7760  175.4520  146.1160 N   0  0  0  0  0  2  0  0  0  0  0  0
  195.2890  175.2420  146.0520 C   0  0  0  0  0  2  0  0  0  0  0  0
  195.6910  176.7500  144.0800 O   0  0  0  0  0  1  0  0  0  0  0  0
  195.4250  174.3550  143.6140 C   0  0  0  0  0  2  0  0  0  0  0  0
  196.8450  174.6080  144.1160 C   0  0  0  0  0  2  0  0  0  0  0  0
  195.7000  175.4580  144.6060 C   0  0  0  0  0  0  0  0  0  0  0  0
  188.8060  174.4300  140.9370 C   0  0  0  0  0  1  0  0  0  0  0  0
  189.8330  174.1310  142.0280 C   0  0  2  0  0  3  0  0  0  0  0  0
  190.1320  172.6350  142.1940 C   0  0  2  0  0  3  0  0  0  0  0  0
  189.3160  172.0210  143.3200 C   0  0  0  0  0  1  0  0  0  0  0  0
  192.6220  172.9610  141.4590 C   0  0  0  0  0  1  0  0  0  0  0  0
  191.5950  172.3040  142.3220 C   0  0  0  0  0  0  0  0  0  0  0  0
  191.9490  171.4730  143.1420 O   0  0  0  0  0  0  0  0  0  0  0  0
  1  2  1  0  0  0  0
  1  9  1  0  0  0  0
  2 24  1  6  0  0  0
  2  5  1  0  0  0  0
  3  6  1  0  0  0  0
  3 13  1  6  0  0  0
  4  7  1  0  0  0  0
  5 12  1  6  0  0  0
  5  3  1  0  0  0  0
  6  8  1  0  0  0  0
  8  7  2  0  0  0  0
  9 10  1  0  0  0  0
  9  6  2  0  0  0  0
 10  4  2  0  0  0  0
 11 12  1  0  0  0  0
 13 14  1  1  0  0  0
 16 15  2  0  0  0  0
 17 16  1  0  0  0  0
 17 13  1  0  0  0  0
 18 16  1  0  0  0  0
 19 22  1  0  0  0  0
 20 21  1  0  0  0  0
 20 22  1  0  0  0  0
 21 22  1  0  0  0  0
 22 18  1  0  0  0  0
 24 23  1  6  0  0  0
 24 25  1  0  0  0  0
 25 28  1  0  0  0  0
 25 26  1  1  0  0  0
 27 28  1  0  0  0  0
 28 29  2  0  0  0  0
M  END
>  <MODEL>
5

>  <REMARK>
 VINA RESULT:      -6.2      1.910      2.548
  Name = 
  8 active torsions:
  status: ('A' for Active; 'I' for Inactive)
    1  A    between atoms: C_4  and  C_29
    2  A    between atoms: C_5  and  C_6
    3  A    between atoms: C_6  and  N_22
    4  A    between atoms: C_7  and  C_10
    5  A    between atoms: C_11  and  C_15
    6  A    between atoms: C_15  and  C_21
    7  A    between atoms: C_19  and  C_25
    8  A    between atoms: C_25  and  C_29
                            x       y       z     vdW  Elec       q    Type
                         _______ _______ _______ _____ _____    ______ ____

>  <TORSDO>
F 8

$$$$
=
 OpenBabel11062422573D

 29 31  0  0  1  0  0  0  0  0999 V2000
  189.2060  176.5410  146.7260 C   0  0  0  0  0  2  0  0  0  0  0  0
  190.2420  176.3070  145.6180 C   0  0  2  0  0  3  0  0  0  0  0  0
  188.5040  176.0860  143.8510 C   0  0  2  0  0  3  0  0  0  0  0  0
  185.6400  177.7720  146.5780 C   0  0  0  0  0  3  0  0  0  0  0  0
  189.7040  175.3840  144.5170 C   0  0  2  0  0  3  0  0  0  0  0  0
  187.4860  176.6170  144.8420 C   0  0  0  0  0  0  0  0  0  0  0  0
  185.3120  177.5300  145.2810 N   0  0  0  0  0  0  0  0  0  0  0  0
  186.2000  176.9760  144.4140 C   0  0  0  0  0  3  0  0  0  0  0  0
  187.8530  176.8990  146.1770 C   0  0  0  0  0  0  0  0  0  0  0  0
  186.9160  177.4600  147.0470 C   0  0  0  0  0  3  0  0  0  0  0  0
  190.3670  173.0970  144.7600 O   0  0  0  0  0  1  0  0  0  0  0  0
  189.3440  173.9980  145.0520 C   0  0  0  0  0  2  0  0  0  0  0  0
  187.8980  175.3510  142.6410 C   0  0  1  0  0  3  0  0  0  0  0  0
  187.3310  176.3340  141.6280 C   0  0  0  0  0  1  0  0  0  0  0  0
  187.4530  172.6130  141.9200 O   0  0  0  0  0  0  0  0  0  0  0  0
  188.5800  173.1140  141.6640 C   0  0  0  0  0  0  0  0  0  0  0  0
  188.8710  174.4680  142.0100 N   0  0  0  0  0  2  0  0  0  0  0  0
  189.6100  172.2940  140.9670 C   0  0  0  0  0  2  0  0  0  0  0  0
  190.8160  173.5880  139.1780 O   0  0  0  0  0  1  0  0  0  0  0  0
  188.5150  172.8890  138.6870 C   0  0  0  0  0  2  0  0  0  0  0  0
  189.4510  171.6990  138.4780 C   0  0  0  0  0  2  0  0  0  0  0  0
  189.7630  172.7410  139.5220 C   0  0  0  0  0  0  0  0  0  0  0  0
  191.7230  175.7960  147.6500 C   0  0  0  0  0  1  0  0  0  0  0  0
  191.6340  175.9090  146.1290 C   0  0  2  0  0  3  0  0  0  0  0  0
  192.7380  176.7810  145.5140 C   0  0  2  0  0  3  0  0  0  0  0  0
  192.7990  176.6250  144.0030 C   0  0  0  0  0  1  0  0  0  0  0  0
  194.8740  175.3450  145.9840 C   0  0  0  0  0  1  0  0  0  0  0  0
  194.0920  176.6080  146.1470 C   0  0  0  0  0  0  0  0  0  0  0  0
  194.5570  177.5130  146.8190 O   0  0  0  0  0  0  0  0  0  0  0  0
  2 24  1  1  0  0  0
  2  1  1  0  0  0  0
  3 13  1  6  0  0  0
  3  5  1  0  0  0  0
  3  6  1  0  0  0  0
  4 10  1  0  0  0  0
  5 12  1  1  0  0  0
  5  2  1  0  0  0  0
  6  9  1  0  0  0  0
  7  4  2  0  0  0  0
  8  6  2  0  0  0  0
  8  7  1  0  0  0  0
  9  1  1  0  0  0  0
  9 10  2  0  0  0  0
 11 12  1  0  0  0  0
 13 14  1  6  0  0  0
 16 15  2  0  0  0  0
 16 17  1  0  0  0  0
 17 13  1  0  0  0  0
 18 16  1  0  0  0  0
 19 22  1  0  0  0  0
 20 22  1  0  0  0  0
 21 20  1  0  0  0  0
 21 22  1  0  0  0  0
 22 18  1  0  0  0  0
 24 23  1  1  0  0  0
 25 26  1  6  0  0  0
 25 24  1  0  0  0  0
 25 28  1  0  0  0  0
 27 28  1  0  0  0  0
 28 29  2  0  0  0  0
M  END
>  <MODEL>
6

>  <REMARK>
 VINA RESULT:      -6.2      1.988      5.795
  Name = 
  8 active torsions:
  status: ('A' for Active; 'I' for Inactive)
    1  A    between atoms: C_4  and  C_29
    2  A    between atoms: C_5  and  C_6
    3  A    between atoms: C_6  and  N_22
    4  A    between atoms: C_7  and  C_10
    5  A    between atoms: C_11  and  C_15
    6  A    between atoms: C_15  and  C_21
    7  A    between atoms: C_19  and  C_25
    8  A    between atoms: C_25  and  C_29
                            x       y       z     vdW  Elec       q    Type
                         _______ _______ _______ _____ _____    ______ ____

>  <TORSDO>
F 8

$$$$
=
 OpenBabel11062422573D

 29 31  0  0  1  0  0  0  0  0999 V2000
  192.1000  174.9140  141.8480 C   0  0  0  0  0  2  0  0  0  0  0  0
  192.3260  175.3230  143.3110 C   0  0  2  0  0  3  0  0  0  0  0  0
  189.9220  175.0650  143.8980 C   0  0  2  0  0  3  0  0  0  0  0  0
  189.3450  172.9060  140.2260 C   0  0  0  0  0  3  0  0  0  0  0  0
  191.1090  176.0490  143.8970 C   0  0  2  0  0  3  0  0  0  0  0  0
  189.7130  174.3650  142.5690 C   0  0  0  0  0  0  0  0  0  0  0  0
  188.3460  173.0070  141.1410 N   0  0  0  0  0  0  0  0  0  0  0  0
  188.5060  173.7060  142.2950 C   0  0  0  0  0  3  0  0  0  0  0  0
  190.7740  174.2350  141.6440 C   0  0  0  0  0  0  0  0  0  0  0  0
  190.5760  173.5190  140.4620 C   0  0  0  0  0  3  0  0  0  0  0  0
  191.2070  178.4410  143.8960 O   0  0  0  0  0  1  0  0  0  0  0  0
  190.7920  177.3420  143.1460 C   0  0  0  0  0  2  0  0  0  0  0  0
  188.6320  175.5870  144.5570 C   0  0  1  0  0  3  0  0  0  0  0  0
  188.8050  175.7420  146.0600 C   0  0  0  0  0  1  0  0  0  0  0  0
  186.1740  176.0070  143.1420 O   0  0  0  0  0  0  0  0  0  0  0  0
  186.9510  176.9880  143.2760 C   0  0  0  0  0  0  0  0  0  0  0  0
  188.1970  176.8440  143.9580 N   0  0  0  0  0  2  0  0  0  0  0  0
  186.5530  178.3220  142.7450 C   0  0  0  0  0  2  0  0  0  0  0  0
  184.0750  178.6230  143.0500 O   0  0  0  0  0  1  0  0  0  0  0  0
  185.5420  180.1740  144.2600 C   0  0  0  0  0  2  0  0  0  0  0  0
  185.4900  178.8480  145.0170 C   0  0  0  0  0  2  0  0  0  0  0  0
  185.3660  178.8740  143.5150 C   0  0  0  0  0  0  0  0  0  0  0  0
  194.8080  175.5420  142.6990 C   0  0  0  0  0  1  0  0  0  0  0  0
  193.6560  176.0470  143.5650 C   0  0  2  0  0  3  0  0  0  0  0  0
  193.9960  176.1070  145.0610 C   0  0  2  0  0  3  0  0  0  0  0  0
  194.8350  177.3290  145.3970 C   0  0  0  0  0  1  0  0  0  0  0  0
  193.8040  173.5920  145.7560 C   0  0  0  0  0  1  0  0  0  0  0  0
  194.6040  174.8460  145.6120 C   0  0  0  0  0  0  0  0  0  0  0  0
  195.7730  174.8500  145.9600 O   0  0  0  0  0  0  0  0  0  0  0  0
  1  2  1  0  0  0  0
  2 24  1  6  0  0  0
  2  5  1  0  0  0  0
  3 13  1  6  0  0  0
  4 10  2  0  0  0  0
  4  7  1  0  0  0  0
  5 12  1  6  0  0  0
  5  3  1  0  0  0  0
  6  3  1  0  0  0  0
  7  8  2  0  0  0  0
  8  6  1  0  0  0  0
  9  1  1  0  0  0  0
  9  6  2  0  0  0  0
 10  9  1  0  0  0  0
 12 11  1  0  0  0  0
 13 14  1  1  0  0  0
 15 16  2  0  0  0  0
 16 17  1  0  0  0  0
 17 13  1  0  0  0  0
 18 16  1  0  0  0  0
 18 22  1  0  0  0  0
 19 22  1  0  0  0  0
 20 21  1  0  0  0  0
 22 20  1  0  0  0  0
 22 21  1  0  0  0  0
 24 23  1  6  0  0  0
 24 25  1  0  0  0  0
 25 26  1  6  0  0  0
 25 28  1  0  0  0  0
 28 27  1  0  0  0  0
 28 29  2  0  0  0  0
M  END
>  <MODEL>
7

>  <REMARK>
 VINA RESULT:      -6.1      2.516      6.751
  Name = 
  8 active torsions:
  status: ('A' for Active; 'I' for Inactive)
    1  A    between atoms: C_4  and  C_29
    2  A    between atoms: C_5  and  C_6
    3  A    between atoms: C_6  and  N_22
    4  A    between atoms: C_7  and  C_10
    5  A    between atoms: C_11  and  C_15
    6  A    between atoms: C_15  and  C_21
    7  A    between atoms: C_19  and  C_25
    8  A    between atoms: C_25  and  C_29
                            x       y       z     vdW  Elec       q    Type
                         _______ _______ _______ _____ _____    ______ ____

>  <TORSDO>
F 8

$$$$
=
 OpenBabel11062422573D

 29 31  0  0  1  0  0  0  0  0999 V2000
  191.8040  174.0820  144.6500 C   0  0  0  0  0  2  0  0  0  0  0  0
  190.6810  175.0550  145.0360 C   0  0  2  0  0  3  0  0  0  0  0  0
  189.1490  174.2020  143.2710 C   0  0  2  0  0  3  0  0  0  0  0  0
  191.7140  170.7820  142.8180 C   0  0  0  0  0  3  0  0  0  0  0  0
  189.8380  175.4660  143.8230 C   0  0  2  0  0  3  0  0  0  0  0  0
  190.0950  173.0340  143.0700 C   0  0  0  0  0  0  0  0  0  0  0  0
  190.5250  170.8560  142.1640 N   0  0  0  0  0  0  0  0  0  0  0  0
  189.7150  171.9410  142.2790 C   0  0  0  0  0  3  0  0  0  0  0  0
  191.3110  172.9550  143.7860 C   0  0  0  0  0  0  0  0  0  0  0  0
  192.1270  171.8310  143.6400 C   0  0  0  0  0  3  0  0  0  0  0  0
  190.3920  177.5520  142.7870 O   0  0  0  0  0  1  0  0  0  0  0  0
  190.6680  176.1860  142.7600 C   0  0  0  0  0  2  0  0  0  0  0  0
  188.1670  174.4390  142.1090 C   0  0  1  0  0  3  0  0  0  0  0  0
  187.5440  173.1330  141.6390 C   0  0  0  0  0  1  0  0  0  0  0  0
  187.7550  177.0000  140.8890 O   0  0  0  0  0  0  0  0  0  0  0  0
  186.9720  176.6550  141.8130 C   0  0  0  0  0  0  0  0  0  0  0  0
  187.1310  175.3990  142.4720 N   0  0  0  0  0  2  0  0  0  0  0  0
  185.8510  177.5550  142.2040 C   0  0  0  0  0  2  0  0  0  0  0  0
  187.4450  178.2920  144.0050 O   0  0  0  0  0  1  0  0  0  0  0  0
  185.0780  178.1010  144.6240 C   0  0  0  0  0  2  0  0  0  0  0  0
  185.2900  179.4160  143.8760 C   0  0  0  0  0  2  0  0  0  0  0  0
  186.1300  178.2080  143.5470 C   0  0  0  0  0  0  0  0  0  0  0  0
  192.6600  176.3810  145.9900 C   0  0  0  0  0  1  0  0  0  0  0  0
  191.1420  176.2410  145.8950 C   0  0  2  0  0  3  0  0  0  0  0  0
  190.4390  176.2640  147.2600 C   0  0  2  0  0  3  0  0  0  0  0  0
  191.3210  175.6880  148.3550 C   0  0  0  0  0  1  0  0  0  0  0  0
  187.8590  176.4140  146.8460 C   0  0  0  0  0  1  0  0  0  0  0  0
  189.0690  175.6420  147.2630 C   0  0  0  0  0  0  0  0  0  0  0  0
  188.9400  174.4850  147.6270 O   0  0  0  0  0  0  0  0  0  0  0  0
  1  2  1  0  0  0  0
  2 24  1  6  0  0  0
  3 13  1  6  0  0  0
  3  5  1  0  0  0  0
  4 10  1  0  0  0  0
  5 12  1  6  0  0  0
  5  2  1  0  0  0  0
  6  3  1  0  0  0  0
  6  9  1  0  0  0  0
  7  8  1  0  0  0  0
  7  4  2  0  0  0  0
  8  6  2  0  0  0  0
  9  1  1  0  0  0  0
 10  9  2  0  0  0  0
 12 11  1  0  0  0  0
 13 14  1  1  0  0  0
 13 17  1  0  0  0  0
 15 16  2  0  0  0  0
 16 18  1  0  0  0  0
 16 17  1  0  0  0  0
 18 22  1  0  0  0  0
 21 20  1  0  0  0  0
 22 21  1  0  0  0  0
 22 19  1  0  0  0  0
 22 20  1  0  0  0  0
 24 23  1  1  0  0  0
 24 25  1  0  0  0  0
 25 28  1  0  0  0  0
 25 26  1  1  0  0  0
 27 28  1  0  0  0  0
 28 29  2  0  0  0  0
M  END
>  <MODEL>
8

>  <REMARK>
 VINA RESULT:      -6.0      2.524      6.998
  Name = 
  8 active torsions:
  status: ('A' for Active; 'I' for Inactive)
    1  A    between atoms: C_4  and  C_29
    2  A    between atoms: C_5  and  C_6
    3  A    between atoms: C_6  and  N_22
    4  A    between atoms: C_7  and  C_10
    5  A    between atoms: C_11  and  C_15
    6  A    between atoms: C_15  and  C_21
    7  A    between atoms: C_19  and  C_25
    8  A    between atoms: C_25  and  C_29
                            x       y       z     vdW  Elec       q    Type
                         _______ _______ _______ _____ _____    ______ ____

>  <TORSDO>
F 8

$$$$
=
 OpenBabel11062422573D

 29 31  0  0  1  0  0  0  0  0999 V2000
  191.1820  173.8980  143.4740 C   0  0  0  0  0  2  0  0  0  0  0  0
  190.6260  174.9330  144.4620 C   0  0  2  0  0  3  0  0  0  0  0  0
  189.0000  175.8390  142.8100 C   0  0  2  0  0  3  0  0  0  0  0  0
  189.6770  172.3660  140.3690 C   0  0  0  0  0  3  0  0  0  0  0  0
  190.1630  176.2110  143.7520 C   0  0  2  0  0  3  0  0  0  0  0  0
  189.2960  174.6450  141.9230 C   0  0  0  0  0  0  0  0  0  0  0  0
  188.7120  173.2680  140.0490 N   0  0  0  0  0  0  0  0  0  0  0  0
  188.5030  174.3820  140.7980 C   0  0  0  0  0  3  0  0  0  0  0  0
  190.2780  173.6960  142.2900 C   0  0  0  0  0  0  0  0  0  0  0  0
  190.4770  172.5660  141.4950 C   0  0  0  0  0  3  0  0  0  0  0  0
  191.4800  178.1970  143.5190 O   0  0  0  0  0  1  0  0  0  0  0  0
  191.3070  176.9080  143.0160 C   0  0  0  0  0  2  0  0  0  0  0  0
  188.3300  177.0220  142.0890 C   0  0  1  0  0  3  0  0  0  0  0  0
  187.2800  176.5410  141.0990 C   0  0  0  0  0  1  0  0  0  0  0  0
  185.7560  176.7790  143.3260 O   0  0  0  0  0  0  0  0  0  0  0  0
  186.4620  177.7770  143.6270 C   0  0  0  0  0  0  0  0  0  0  0  0
  187.7480  177.9650  143.0360 N   0  0  0  0  0  2  0  0  0  0  0  0
  185.9630  178.7570  144.6330 C   0  0  0  0  0  2  0  0  0  0  0  0
  186.3410  176.8470  146.2260 O   0  0  0  0  0  1  0  0  0  0  0  0
  184.4260  178.3140  146.6800 C   0  0  0  0  0  2  0  0  0  0  0  0
  185.7010  178.9970  147.1720 C   0  0  0  0  0  2  0  0  0  0  0  0
  185.7390  178.0810  145.9750 C   0  0  0  0  0  0  0  0  0  0  0  0
  192.7400  174.2680  145.7550 C   0  0  0  0  0  1  0  0  0  0  0  0
  191.5290  175.1960  145.6760 C   0  0  2  0  0  3  0  0  0  0  0  0
  190.7250  175.2660  146.9810 C   0  0  2  0  0  3  0  0  0  0  0  0
  189.3650  174.6010  146.8390 C   0  0  0  0  0  1  0  0  0  0  0  0
  189.5540  177.6030  147.1120 C   0  0  0  0  0  1  0  0  0  0  0  0
  190.6090  176.6480  147.5670 C   0  0  0  0  0  0  0  0  0  0  0  0
  191.4020  177.0000  148.4240 O   0  0  0  0  0  0  0  0  0  0  0  0
  1  2  1  0  0  0  0
  2 24  1  1  0  0  0
  3 13  1  6  0  0  0
  3  5  1  0  0  0  0
  4 10  1  0  0  0  0
  5 12  1  6  0  0  0
  5  2  1  0  0  0  0
  6  9  1  0  0  0  0
  6  3  1  0  0  0  0
  7  4  2  0  0  0  0
  7  8  1  0  0  0  0
  8  6  2  0  0  0  0
  9  1  1  0  0  0  0
 10  9  2  0  0  0  0
 12 11  1  0  0  0  0
 13 14  1  6  0  0  0
 13 17  1  0  0  0  0
 15 16  2  0  0  0  0
 16 18  1  0  0  0  0
 17 16  1  0  0  0  0
 18 22  1  0  0  0  0
 20 21  1  0  0  0  0
 22 19  1  0  0  0  0
 22 20  1  0  0  0  0
 22 21  1  0  0  0  0
 24 23  1  1  0  0  0
 24 25  1  0  0  0  0
 25 26  1  6  0  0  0
 25 28  1  0  0  0  0
 27 28  1  0  0  0  0
 28 29  2  0  0  0  0
M  END
>  <MODEL>
9

>  <REMARK>
 VINA RESULT:      -6.0      2.411      6.771
  Name = 
  8 active torsions:
  status: ('A' for Active; 'I' for Inactive)
    1  A    between atoms: C_4  and  C_29
    2  A    between atoms: C_5  and  C_6
    3  A    between atoms: C_6  and  N_22
    4  A    between atoms: C_7  and  C_10
    5  A    between atoms: C_11  and  C_15
    6  A    between atoms: C_15  and  C_21
    7  A    between atoms: C_19  and  C_25
    8  A    between atoms: C_25  and  C_29
                            x       y       z     vdW  Elec       q    Type
                         _______ _______ _______ _____ _____    ______ ____

>  <TORSDO>
F 8

$$$$
