=
 OpenBabel11062419403D

 42 46  0  0  1  0  0  0  0  0999 V2000
  193.9540  173.6390  141.4190 C   0  0  0  0  0  2  0  0  0  0  0  0
  187.6880  174.8380  142.5210 C   0  0  0  0  0  3  0  0  0  0  0  0
  194.6430  173.5750  144.2930 C   0  0  0  0  0  2  0  0  0  0  0  0
  190.1800  173.5530  139.9290 C   0  0  0  0  0  0  0  0  0  0  0  0
  192.5910  174.1810  145.6420 C   0  0  2  0  0  3  0  0  0  0  0  0
  187.2530  176.0960  142.9600 C   0  0  0  0  0  0  0  0  0  0  0  0
  189.3800  173.0530  142.2310 C   0  0  0  0  0  2  0  0  0  0  0  0
  187.7470  178.1920  144.0530 O   0  0  0  0  0  1  0  0  0  0  0  0
  195.5400  174.7800  139.4360 C   0  0  0  0  0  2  0  0  0  0  0  0
  188.1630  176.9430  143.6030 C   0  0  0  0  0  0  0  0  0  0  0  0
  189.0110  174.4270  142.6990 C   0  0  0  0  0  0  0  0  0  0  0  0
  190.7300  172.2730  138.0310 O   0  0  0  0  0  1  0  0  0  0  0  0
  195.9710  175.1040  140.8750 C   0  0  2  0  0  3  0  0  0  0  0  0
  193.9100  174.6870  145.0260 C   0  0  1  0  0  3  0  0  0  0  0  0
  194.8020  175.3060  146.1000 C   0  0  0  0  0  2  0  0  0  0  0  0
  193.2070  174.1120  140.1660 C   0  0  1  0  0  3  0  0  0  0  0  0
  194.1850  175.9580  142.3390 C   0  0  0  0  0  1  0  0  0  0  0  0
  189.9260  175.2840  143.3460 C   0  0  0  0  0  0  0  0  0  0  0  0
  194.1270  176.5010  146.7870 C   0  0  0  0  0  2  0  0  0  0  0  0
  197.3910  174.5970  141.1170 C   0  0  0  0  0  2  0  0  0  0  0  0
  196.6870  173.0390  142.9640 C   0  0  2  0  0  3  0  0  0  0  0  0
  194.0440  175.0170  139.2430 C   0  0  0  0  0  2  0  0  0  0  0  0
  193.4900  172.2570  138.4430 C   0  0  0  0  0  1  0  0  0  0  0  0
  192.5590  172.9180  139.4570 C   0  0  2  0  0  3  0  0  0  0  0  0
  190.3840  177.4090  144.4230 O   0  0  0  0  0  1  0  0  0  0  0  0
  191.5290  173.8250  144.5990 C   0  0  0  0  0  2  0  0  0  0  0  0
  194.9410  174.6860  141.9700 C   0  0  1  0  0  0  0  0  0  0  0  0
  191.2000  173.2960  138.8580 C   0  0  2  0  0  3  0  0  0  0  0  0
  197.3500  173.1540  141.5870 C   0  0  0  0  0  2  0  0  0  0  0  0
  192.0130  175.1210  146.7110 C   0  0  0  0  0  2  0  0  0  0  0  0
  189.1100  174.1460  139.6290 O   0  0  0  0  0  0  0  0  0  0  0  0
  190.3940  173.0820  141.2310 O   0  0  0  0  0  0  0  0  0  0  0  0
  189.4930  176.5440  143.7930 C   0  0  0  0  0  0  0  0  0  0  0  0
  191.3630  174.9030  143.5350 C   0  0  0  0  0  2  0  0  0  0  0  0
  192.6030  176.5270  146.6250 C   0  0  0  0  0  2  0  0  0  0  0  0
  195.6300  174.1240  143.2500 C   0  0  1  0  0  3  0  0  0  0  0  0
  197.9410  174.3660  144.5060 O   0  0  0  0  0  1  0  0  0  0  0  0
  197.7450  173.0600  144.0560 C   0  0  0  0  0  2  0  0  0  0  0  0
  185.9260  176.5290  142.7970 O   0  0  0  0  0  0  0  0  0  0  0  0
  185.4530  177.4260  141.8290 C   0  0  0  0  0  0  0  0  0  0  0  0
  186.2230  177.7700  140.6790 N   0  0  0  0  0  1  0  0  0  0  0  0
  184.3280  177.9620  141.9920 O   0  0  0  0  0  0  0  0  0  0  0  0
  1 27  1  0  0  0  0
  2 11  2  0  0  0  0
  2  6  1  0  0  0  0
  4 32  1  0  0  0  0
  5 26  1  6  0  0  0
  5 30  1  0  0  0  0
  6 10  2  0  0  0  0
  7 11  1  0  0  0  0
 10 33  1  0  0  0  0
 10  8  1  0  0  0  0
 11 18  1  0  0  0  0
 13  9  1  6  0  0  0
 13 20  1  0  0  0  0
 13 27  1  0  0  0  0
 14  3  1  1  0  0  0
 14  5  1  0  0  0  0
 14 15  1  0  0  0  0
 15 19  1  0  0  0  0
 16 22  1  6  0  0  0
 16  1  1  0  0  0  0
 18 34  1  0  0  0  0
 18 33  2  0  0  0  0
 20 29  1  0  0  0  0
 21 36  1  0  0  0  0
 21 38  1  1  0  0  0
 22  9  1  0  0  0  0
 24 23  1  6  0  0  0
 24 16  1  0  0  0  0
 27 17  1  1  0  0  0
 27 36  1  0  0  0  0
 28 12  1  6  0  0  0
 28 24  1  0  0  0  0
 28  4  1  0  0  0  0
 29 21  1  0  0  0  0
 31  4  2  0  0  0  0
 32  7  1  0  0  0  0
 33 25  1  0  0  0  0
 34 26  1  0  0  0  0
 35 30  1  0  0  0  0
 35 19  1  0  0  0  0
 36  3  1  1  0  0  0
 38 37  1  0  0  0  0
 39  6  1  0  0  0  0
 40 42  2  0  0  0  0
 40 39  1  0  0  0  0
 41 40  1  0  0  0  0
M  END
>  <MODEL>
1

>  <REMARK>
 VINA RESULT:      -8.7      0.000      0.000
  Name = 
  3 active torsions:
  status: ('A' for Active; 'I' for Inactive)
    1  A    between atoms: C_6  and  O_33
    2  A    between atoms: C_9  and  O_33
    3  A    between atoms: C_23  and  C_42
                            x       y       z     vdW  Elec       q    Type
                         _______ _______ _______ _____ _____    ______ ____

>  <TORSDO>
F 3

$$$$
=
 OpenBabel11062419403D

 42 46  0  0  1  0  0  0  0  0999 V2000
  192.8850  173.6420  142.4000 C   0  0  0  0  0  2  0  0  0  0  0  0
  186.6910  175.5170  142.2400 C   0  0  0  0  0  3  0  0  0  0  0  0
  193.0000  173.6170  145.3540 C   0  0  0  0  0  2  0  0  0  0  0  0
  189.4800  173.8860  140.2060 C   0  0  0  0  0  0  0  0  0  0  0  0
  190.8050  174.4810  146.2670 C   0  0  2  0  0  3  0  0  0  0  0  0
  186.3170  176.8290  142.5650 C   0  0  0  0  0  0  0  0  0  0  0  0
  188.2050  173.5590  142.3170 C   0  0  0  0  0  2  0  0  0  0  0  0
  186.8160  178.9030  143.6960 O   0  0  0  0  0  1  0  0  0  0  0  0
  194.9360  174.5390  140.7440 C   0  0  0  0  0  2  0  0  0  0  0  0
  187.1740  177.6020  143.3580 C   0  0  0  0  0  0  0  0  0  0  0  0
  187.9030  174.9810  142.6800 C   0  0  0  0  0  0  0  0  0  0  0  0
  190.2420  172.4860  138.4740 O   0  0  0  0  0  1  0  0  0  0  0  0
  195.1160  174.8720  142.2330 C   0  0  2  0  0  3  0  0  0  0  0  0
  192.2650  174.8260  145.9110 C   0  0  1  0  0  3  0  0  0  0  0  0
  192.9960  175.3910  147.1260 C   0  0  0  0  0  2  0  0  0  0  0  0
  192.4480  174.1420  141.0180 C   0  0  1  0  0  3  0  0  0  0  0  0
  193.1850  175.9590  143.3060 C   0  0  0  0  0  1  0  0  0  0  0  0
  188.7640  175.7630  143.4780 C   0  0  0  0  0  0  0  0  0  0  0  0
  192.3340  176.6740  147.6480 C   0  0  0  0  0  2  0  0  0  0  0  0
  196.4000  174.2320  142.7560 C   0  0  0  0  0  2  0  0  0  0  0  0
  195.1910  172.8250  144.4570 C   0  0  2  0  0  3  0  0  0  0  0  0
  193.5390  174.9200  140.2600 C   0  0  0  0  0  2  0  0  0  0  0  0
  192.8540  172.2030  139.4150 C   0  0  0  0  0  1  0  0  0  0  0  0
  191.8230  172.9940  140.2170 C   0  0  2  0  0  3  0  0  0  0  0  0
  189.2330  177.8700  144.5860 O   0  0  0  0  0  1  0  0  0  0  0  0
  189.9300  174.1960  145.0430 C   0  0  0  0  0  2  0  0  0  0  0  0
  193.8550  174.6030  143.1140 C   0  0  1  0  0  0  0  0  0  0  0  0
  190.6520  173.4870  139.3580 C   0  0  2  0  0  3  0  0  0  0  0  0
  196.1140  172.8190  143.2340 C   0  0  0  0  0  2  0  0  0  0  0  0
  190.1370  175.5150  147.1870 C   0  0  0  0  0  2  0  0  0  0  0  0
  188.5570  174.5740  139.6930 O   0  0  0  0  0  0  0  0  0  0  0  0
  189.3880  173.4460  141.5330 O   0  0  0  0  0  0  0  0  0  0  0  0
  188.3920  177.0770  143.8100 C   0  0  0  0  0  0  0  0  0  0  0  0
  190.0880  175.2450  143.9490 C   0  0  0  0  0  2  0  0  0  0  0  0
  190.8810  176.8490  147.1920 C   0  0  0  0  0  2  0  0  0  0  0  0
  194.2220  174.0230  144.5130 C   0  0  1  0  0  3  0  0  0  0  0  0
  196.3440  174.0740  146.1370 O   0  0  0  0  0  1  0  0  0  0  0  0
  196.0160  172.7790  145.7330 C   0  0  0  0  0  2  0  0  0  0  0  0
  185.1010  177.3890  142.1400 O   0  0  0  0  0  0  0  0  0  0  0  0
  184.8390  177.9670  140.8890 C   0  0  0  0  0  0  0  0  0  0  0  0
  183.5120  178.2380  140.4460 N   0  0  0  0  0  1  0  0  0  0  0  0
  185.8030  178.2300  140.1250 O   0  0  0  0  0  0  0  0  0  0  0  0
  1 27  1  0  0  0  0
  2  6  2  0  0  0  0
  2 11  1  0  0  0  0
  4 32  1  0  0  0  0
  5 26  1  6  0  0  0
  5 30  1  0  0  0  0
  6 10  1  0  0  0  0
  7 11  1  0  0  0  0
 10  8  1  0  0  0  0
 10 33  2  0  0  0  0
 11 18  2  0  0  0  0
 13  9  1  6  0  0  0
 13 20  1  0  0  0  0
 13 27  1  0  0  0  0
 14  3  1  1  0  0  0
 14  5  1  0  0  0  0
 14 15  1  0  0  0  0
 15 19  1  0  0  0  0
 16 22  1  6  0  0  0
 16  1  1  0  0  0  0
 18 33  1  0  0  0  0
 18 34  1  0  0  0  0
 20 29  1  0  0  0  0
 21 36  1  0  0  0  0
 21 38  1  1  0  0  0
 22  9  1  0  0  0  0
 24 23  1  6  0  0  0
 24 16  1  0  0  0  0
 27 17  1  1  0  0  0
 27 36  1  0  0  0  0
 28 12  1  6  0  0  0
 28  4  1  0  0  0  0
 28 24  1  0  0  0  0
 29 21  1  0  0  0  0
 30 35  1  0  0  0  0
 31  4  2  0  0  0  0
 32  7  1  0  0  0  0
 33 25  1  0  0  0  0
 34 26  1  0  0  0  0
 35 19  1  0  0  0  0
 36  3  1  6  0  0  0
 38 37  1  0  0  0  0
 39  6  1  0  0  0  0
 40 39  1  0  0  0  0
 41 40  1  0  0  0  0
 42 40  2  0  0  0  0
M  END
>  <MODEL>
2

>  <REMARK>
 VINA RESULT:      -8.5      1.292      1.614
  Name = 
  3 active torsions:
  status: ('A' for Active; 'I' for Inactive)
    1  A    between atoms: C_6  and  O_33
    2  A    between atoms: C_9  and  O_33
    3  A    between atoms: C_23  and  C_42
                            x       y       z     vdW  Elec       q    Type
                         _______ _______ _______ _____ _____    ______ ____

>  <TORSDO>
F 3

$$$$
=
 OpenBabel11062419403D

 42 46  0  0  1  0  0  0  0  0999 V2000
  193.5320  171.8230  142.6700 C   0  0  0  0  0  2  0  0  0  0  0  0
  187.8540  174.8540  141.9730 C   0  0  0  0  0  3  0  0  0  0  0  0
  193.9680  172.8620  145.4020 C   0  0  0  0  0  2  0  0  0  0  0  0
  190.0200  172.0040  140.6450 C   0  0  0  0  0  0  0  0  0  0  0  0
  192.1040  174.4740  145.9740 C   0  0  2  0  0  3  0  0  0  0  0  0
  187.7870  176.2410  141.7800 C   0  0  0  0  0  0  0  0  0  0  0  0
  188.9490  172.7740  142.7540 C   0  0  0  0  0  2  0  0  0  0  0  0
  188.8100  178.4160  142.0130 O   0  0  0  0  0  1  0  0  0  0  0  0
  195.5220  171.5590  140.7400 C   0  0  0  0  0  2  0  0  0  0  0  0
  188.8630  177.0370  142.1910 C   0  0  0  0  0  0  0  0  0  0  0  0
  188.9770  174.2580  142.5520 C   0  0  0  0  0  0  0  0  0  0  0  0
  190.2900  169.9300  139.5630 O   0  0  0  0  0  1  0  0  0  0  0  0
  195.9290  172.3670  141.9820 C   0  0  2  0  0  3  0  0  0  0  0  0
  193.5540  174.3240  145.4730 C   0  0  1  0  0  3  0  0  0  0  0  0
  194.5140  175.1160  146.3580 C   0  0  0  0  0  2  0  0  0  0  0  0
  193.0510  171.8630  141.2140 C   0  0  1  0  0  3  0  0  0  0  0  0
  194.3840  174.1780  142.6090 C   0  0  0  0  0  1  0  0  0  0  0  0
  190.0590  175.0640  142.9640 C   0  0  0  0  0  0  0  0  0  0  0  0
  194.1820  176.6150  146.3650 C   0  0  0  0  0  2  0  0  0  0  0  0
  197.1110  171.6920  142.6750 C   0  0  0  0  0  2  0  0  0  0  0  0
  195.8450  171.3220  144.8180 C   0  0  2  0  0  3  0  0  0  0  0  0
  194.1830  172.0390  140.1850 C   0  0  0  0  0  2  0  0  0  0  0  0
  192.8830  169.4320  140.4680 C   0  0  0  0  0  1  0  0  0  0  0  0
  192.1250  170.6740  140.9330 C   0  0  2  0  0  3  0  0  0  0  0  0
  191.0580  177.2650  143.1650 O   0  0  0  0  0  1  0  0  0  0  0  0
  191.0590  173.9630  144.9780 C   0  0  0  0  0  2  0  0  0  0  0  0
  194.7470  172.7330  142.9320 C   0  0  1  0  0  0  0  0  0  0  0  0
  190.9870  171.0660  139.9840 C   0  0  2  0  0  3  0  0  0  0  0  0
  196.6060  170.6580  143.6660 C   0  0  0  0  0  2  0  0  0  0  0  0
  191.7620  175.8960  146.4440 C   0  0  0  0  0  2  0  0  0  0  0  0
  189.2000  172.6430  139.9330 O   0  0  0  0  0  0  0  0  0  0  0  0
  189.9910  172.1160  142.0410 O   0  0  0  0  0  0  0  0  0  0  0  0
  189.9950  176.4540  142.7770 C   0  0  0  0  0  0  0  0  0  0  0  0
  191.2990  174.4700  143.5610 C   0  0  0  0  0  2  0  0  0  0  0  0
  192.7510  176.9330  145.9170 C   0  0  0  0  0  2  0  0  0  0  0  0
  195.1450  172.6420  144.4370 C   0  0  1  0  0  3  0  0  0  0  0  0
  197.1970  172.8980  146.0040 O   0  0  0  0  0  1  0  0  0  0  0  0
  196.7820  171.5650  145.9910 C   0  0  0  0  0  2  0  0  0  0  0  0
  186.6660  176.8640  141.2050 O   0  0  0  0  0  0  0  0  0  0  0  0
  185.5770  177.4210  141.8900 C   0  0  0  0  0  0  0  0  0  0  0  0
  184.6490  178.2940  141.2500 N   0  0  0  0  0  1  0  0  0  0  0  0
  185.4290  177.1640  143.1120 O   0  0  0  0  0  0  0  0  0  0  0  0
  1 27  1  0  0  0  0
  2 11  1  0  0  0  0
  4 32  1  0  0  0  0
  5 26  1  6  0  0  0
  5 30  1  0  0  0  0
  6  2  2  0  0  0  0
  6 10  1  0  0  0  0
  8 10  1  0  0  0  0
 10 33  2  0  0  0  0
 11  7  1  0  0  0  0
 11 18  2  0  0  0  0
 13  9  1  6  0  0  0
 13 20  1  0  0  0  0
 13 27  1  0  0  0  0
 14  3  1  1  0  0  0
 14  5  1  0  0  0  0
 14 15  1  0  0  0  0
 15 19  1  0  0  0  0
 16 22  1  6  0  0  0
 16  1  1  0  0  0  0
 18 34  1  0  0  0  0
 20 29  1  0  0  0  0
 21 38  1  1  0  0  0
 22  9  1  0  0  0  0
 24 23  1  6  0  0  0
 24 16  1  0  0  0  0
 27 17  1  6  0  0  0
 27 36  1  0  0  0  0
 28 12  1  1  0  0  0
 28  4  1  0  0  0  0
 28 24  1  0  0  0  0
 29 21  1  0  0  0  0
 31  4  2  0  0  0  0
 32  7  1  0  0  0  0
 33 18  1  0  0  0  0
 33 25  1  0  0  0  0
 34 26  1  0  0  0  0
 35 19  1  0  0  0  0
 35 30  1  0  0  0  0
 36 21  1  0  0  0  0
 36  3  1  1  0  0  0
 38 37  1  0  0  0  0
 39  6  1  0  0  0  0
 39 40  1  0  0  0  0
 40 42  2  0  0  0  0
 41 40  1  0  0  0  0
M  END
>  <MODEL>
3

>  <REMARK>
 VINA RESULT:      -8.3      1.693      1.981
  Name = 
  3 active torsions:
  status: ('A' for Active; 'I' for Inactive)
    1  A    between atoms: C_6  and  O_33
    2  A    between atoms: C_9  and  O_33
    3  A    between atoms: C_23  and  C_42
                            x       y       z     vdW  Elec       q    Type
                         _______ _______ _______ _____ _____    ______ ____

>  <TORSDO>
F 3

$$$$
=
 OpenBabel11062419403D

 42 46  0  0  1  0  0  0  0  0999 V2000
  192.9250  173.5380  144.4310 C   0  0  0  0  0  2  0  0  0  0  0  0
  190.8150  169.7210  139.6470 C   0  0  0  0  0  3  0  0  0  0  0  0
  190.2760  174.7750  144.8700 C   0  0  0  0  0  2  0  0  0  0  0  0
  193.5980  170.2060  142.2150 C   0  0  0  0  0  0  0  0  0  0  0  0
  188.6660  173.9070  143.1220 C   0  0  2  0  0  3  0  0  0  0  0  0
  190.5130  170.2390  138.3800 C   0  0  0  0  0  0  0  0  0  0  0  0
  191.1330  169.8970  142.0970 C   0  0  0  0  0  2  0  0  0  0  0  0
  189.9070  172.1310  137.0080 O   0  0  0  0  0  1  0  0  0  0  0  0
  195.3450  174.9100  144.5170 C   0  0  0  0  0  2  0  0  0  0  0  0
  190.2160  171.6010  138.2570 C   0  0  0  0  0  0  0  0  0  0  0  0
  190.8370  170.5410  140.7770 C   0  0  0  0  0  0  0  0  0  0  0  0
  195.3270  169.3840  143.5860 O   0  0  0  0  0  1  0  0  0  0  0  0
  194.0970  175.8040  144.5060 C   0  0  2  0  0  3  0  0  0  0  0  0
  189.6080  175.0560  143.5320 C   0  0  1  0  0  3  0  0  0  0  0  0
  188.8520  176.3820  143.5740 C   0  0  0  0  0  2  0  0  0  0  0  0
  194.0650  172.9180  143.6150 C   0  0  1  0  0  3  0  0  0  0  0  0
  192.4700  175.3150  142.7240 C   0  0  0  0  0  1  0  0  0  0  0  0
  190.5370  171.9140  140.6490 C   0  0  0  0  0  0  0  0  0  0  0  0
  188.2530  176.7430  142.2070 C   0  0  0  0  0  2  0  0  0  0  0  0
  194.0600  176.6590  145.7710 C   0  0  0  0  0  2  0  0  0  0  0  0
  191.8770  175.6840  146.5560 C   0  0  2  0  0  3  0  0  0  0  0  0
  195.2740  173.8510  143.4190 C   0  0  0  0  0  2  0  0  0  0  0  0
  195.4750  171.5990  145.2780 C   0  0  0  0  0  1  0  0  0  0  0  0
  194.4220  171.5360  144.1740 C   0  0  2  0  0  3  0  0  0  0  0  0
  189.9430  173.7910  139.2320 O   0  0  0  0  0  1  0  0  0  0  0  0
  189.4030  172.6120  142.7690 C   0  0  0  0  0  2  0  0  0  0  0  0
  192.7640  175.0530  144.1970 C   0  0  1  0  0  0  0  0  0  0  0  0
  194.7930  170.5600  143.0520 C   0  0  2  0  0  3  0  0  0  0  0  0
  193.3570  175.9030  146.8850 C   0  0  0  0  0  2  0  0  0  0  0  0
  187.6750  174.2920  142.0120 C   0  0  0  0  0  2  0  0  0  0  0  0
  193.7740  169.6550  141.0960 O   0  0  0  0  0  0  0  0  0  0  0  0
  192.3050  170.4320  142.7030 O   0  0  0  0  0  0  0  0  0  0  0  0
  190.2300  172.4370  139.3820 C   0  0  0  0  0  0  0  0  0  0  0  0
  190.5770  172.8410  141.8250 C   0  0  0  0  0  2  0  0  0  0  0  0
  188.1110  175.5470  141.2590 C   0  0  0  0  0  2  0  0  0  0  0  0
  191.5710  175.5840  145.0480 C   0  0  1  0  0  3  0  0  0  0  0  0
  191.5660  177.1630  148.4090 O   0  0  0  0  0  1  0  0  0  0  0  0
  191.0360  176.7910  147.1720 C   0  0  0  0  0  2  0  0  0  0  0  0
  190.4790  169.4330  137.2290 O   0  0  0  0  0  0  0  0  0  0  0  0
  191.5520  169.1620  136.3670 C   0  0  0  0  0  0  0  0  0  0  0  0
  191.5770  169.6330  135.0230 N   0  0  0  0  0  1  0  0  0  0  0  0
  192.5070  168.4590  136.7850 O   0  0  0  0  0  0  0  0  0  0  0  0
  2 11  1  0  0  0  0
  4 32  1  0  0  0  0
  4 28  1  0  0  0  0
  5 30  1  6  0  0  0
  5 14  1  0  0  0  0
  6  2  2  0  0  0  0
  7 32  1  0  0  0  0
  8 10  1  0  0  0  0
 10  6  1  0  0  0  0
 10 33  2  0  0  0  0
 11  7  1  0  0  0  0
 13  9  1  1  0  0  0
 13 20  1  0  0  0  0
 14 15  1  1  0  0  0
 14  3  1  0  0  0  0
 16 22  1  1  0  0  0
 16 24  1  0  0  0  0
 16  1  1  0  0  0  0
 18 11  2  0  0  0  0
 18 34  1  0  0  0  0
 19 15  1  0  0  0  0
 20 29  1  0  0  0  0
 21 29  1  0  0  0  0
 21 38  1  6  0  0  0
 22  9  1  0  0  0  0
 24 23  1  1  0  0  0
 25 33  1  0  0  0  0
 26  5  1  0  0  0  0
 27 17  1  6  0  0  0
 27  1  1  0  0  0  0
 27 13  1  0  0  0  0
 27 36  1  0  0  0  0
 28 12  1  1  0  0  0
 28 24  1  0  0  0  0
 31  4  2  0  0  0  0
 33 18  1  0  0  0  0
 34 26  1  0  0  0  0
 35 30  1  0  0  0  0
 35 19  1  0  0  0  0
 36  3  1  1  0  0  0
 36 21  1  0  0  0  0
 38 37  1  0  0  0  0
 39  6  1  0  0  0  0
 40 42  2  0  0  0  0
 40 39  1  0  0  0  0
 41 40  1  0  0  0  0
M  END
>  <MODEL>
4

>  <REMARK>
 VINA RESULT:      -7.4      3.267      6.658
  Name = 
  3 active torsions:
  status: ('A' for Active; 'I' for Inactive)
    1  A    between atoms: C_6  and  O_33
    2  A    between atoms: C_9  and  O_33
    3  A    between atoms: C_23  and  C_42
                            x       y       z     vdW  Elec       q    Type
                         _______ _______ _______ _____ _____    ______ ____

>  <TORSDO>
F 3

$$$$
=
 OpenBabel11062419403D

 42 46  0  0  1  0  0  0  0  0999 V2000
  191.8560  174.8970  143.5930 C   0  0  0  0  0  2  0  0  0  0  0  0
  187.8150  174.4020  138.5590 C   0  0  0  0  0  3  0  0  0  0  0  0
  189.6820  175.3860  145.5350 C   0  0  0  0  0  2  0  0  0  0  0  0
  191.3290  173.5640  139.7960 C   0  0  0  0  0  0  0  0  0  0  0  0
  187.4880  175.5490  144.2860 C   0  0  2  0  0  3  0  0  0  0  0  0
  187.1810  175.5290  138.0200 C   0  0  0  0  0  0  0  0  0  0  0  0
  188.9450  173.1470  140.3710 C   0  0  0  0  0  2  0  0  0  0  0  0
  186.4020  177.7980  138.2980 O   0  0  0  0  0  1  0  0  0  0  0  0
  194.3230  176.1860  143.6220 C   0  0  0  0  0  2  0  0  0  0  0  0
  187.0350  176.6720  138.8150 C   0  0  0  0  0  0  0  0  0  0  0  0
  188.3140  174.4070  139.8630 C   0  0  0  0  0  0  0  0  0  0  0  0
  193.2930  172.2670  139.7510 O   0  0  0  0  0  1  0  0  0  0  0  0
  193.2660  176.7950  144.5550 C   0  0  2  0  0  3  0  0  0  0  0  0
  188.6510  176.3280  144.9310 C   0  0  1  0  0  3  0  0  0  0  0  0
  188.1270  177.3010  145.9850 C   0  0  0  0  0  2  0  0  0  0  0  0
  192.5740  174.9810  142.2400 C   0  0  1  0  0  3  0  0  0  0  0  0
  191.0930  177.2820  143.5050 C   0  0  0  0  0  1  0  0  0  0  0  0
  188.1660  175.5610  140.6620 C   0  0  0  0  0  0  0  0  0  0  0  0
  187.1620  178.3320  145.3820 C   0  0  0  0  0  2  0  0  0  0  0  0
  193.7590  176.7440  146.0000 C   0  0  0  0  0  2  0  0  0  0  0  0
  191.8520  175.2900  146.7650 C   0  0  2  0  0  3  0  0  0  0  0  0
  193.7590  175.9650  142.2210 C   0  0  0  0  0  2  0  0  0  0  0  0
  194.2740  173.0840  142.2330 C   0  0  0  0  0  1  0  0  0  0  0  0
  192.9160  173.5750  141.7370 C   0  0  2  0  0  3  0  0  0  0  0  0
  187.3820  177.8450  140.8940 O   0  0  0  0  0  1  0  0  0  0  0  0
  187.8950  174.7810  143.0250 C   0  0  0  0  0  2  0  0  0  0  0  0
  191.8220  176.2400  144.3460 C   0  0  1  0  0  0  0  0  0  0  0  0
  192.7670  173.4760  140.2140 C   0  0  2  0  0  3  0  0  0  0  0  0
  193.3730  175.4170  146.6300 C   0  0  0  0  0  2  0  0  0  0  0  0
  186.2440  176.4120  144.0210 C   0  0  0  0  0  2  0  0  0  0  0  0
  191.0530  173.7880  138.5870 O   0  0  0  0  0  0  0  0  0  0  0  0
  190.3100  173.3380  140.7300 O   0  0  0  0  0  0  0  0  0  0  0  0
  187.5270  176.6920  140.1270 C   0  0  0  0  0  0  0  0  0  0  0  0
  188.7100  175.6280  142.0560 C   0  0  0  0  0  2  0  0  0  0  0  0
  186.5630  177.9050  144.0370 C   0  0  0  0  0  2  0  0  0  0  0  0
  191.0550  176.0590  145.6920 C   0  0  1  0  0  3  0  0  0  0  0  0
  190.9890  177.0740  148.1010 O   0  0  0  0  0  1  0  0  0  0  0  0
  191.4110  175.7450  148.1470 C   0  0  0  0  0  2  0  0  0  0  0  0
  186.6660  175.5460  136.7120 O   0  0  0  0  0  0  0  0  0  0  0  0
  187.2940  176.0710  135.5740 C   0  0  0  0  0  0  0  0  0  0  0  0
  188.6560  175.7880  135.2650 N   0  0  0  0  0  1  0  0  0  0  0  0
  186.6430  176.8360  134.8160 O   0  0  0  0  0  0  0  0  0  0  0  0
  1 27  1  0  0  0  0
  2 11  1  0  0  0  0
  4 28  1  0  0  0  0
  4 32  1  0  0  0  0
  5 26  1  6  0  0  0
  5 14  1  0  0  0  0
  6  2  2  0  0  0  0
  6 10  1  0  0  0  0
  7 32  1  0  0  0  0
  8 10  1  0  0  0  0
 10 33  2  0  0  0  0
 11  7  1  0  0  0  0
 11 18  2  0  0  0  0
 13  9  1  6  0  0  0
 13 20  1  0  0  0  0
 14  3  1  1  0  0  0
 14 15  1  0  0  0  0
 16 22  1  1  0  0  0
 16  1  1  0  0  0  0
 18 34  1  0  0  0  0
 19 15  1  0  0  0  0
 20 29  1  0  0  0  0
 21 38  1  1  0  0  0
 22  9  1  0  0  0  0
 24 23  1  6  0  0  0
 24 16  1  0  0  0  0
 27 17  1  6  0  0  0
 27 13  1  0  0  0  0
 27 36  1  0  0  0  0
 28 12  1  1  0  0  0
 28 24  1  0  0  0  0
 29 21  1  0  0  0  0
 30 35  1  0  0  0  0
 30  5  1  0  0  0  0
 31  4  2  0  0  0  0
 33 18  1  0  0  0  0
 33 25  1  0  0  0  0
 34 26  1  0  0  0  0
 35 19  1  0  0  0  0
 36  3  1  6  0  0  0
 36 21  1  0  0  0  0
 37 38  1  0  0  0  0
 39  6  1  0  0  0  0
 40 39  1  0  0  0  0
 41 40  1  0  0  0  0
 42 40  2  0  0  0  0
M  END
>  <MODEL>
5

>  <REMARK>
 VINA RESULT:      -7.2      2.625      5.082
  Name = 
  3 active torsions:
  status: ('A' for Active; 'I' for Inactive)
    1  A    between atoms: C_6  and  O_33
    2  A    between atoms: C_9  and  O_33
    3  A    between atoms: C_23  and  C_42
                            x       y       z     vdW  Elec       q    Type
                         _______ _______ _______ _____ _____    ______ ____

>  <TORSDO>
F 3

$$$$
=
 OpenBabel11062419403D

 42 46  0  0  1  0  0  0  0  0999 V2000
  194.3160  172.6240  143.2970 C   0  0  0  0  0  2  0  0  0  0  0  0
  189.8300  177.2910  143.1900 C   0  0  0  0  0  3  0  0  0  0  0  0
  193.8290  171.8290  140.4920 C   0  0  0  0  0  2  0  0  0  0  0  0
  192.9300  176.0250  145.0250 C   0  0  0  0  0  0  0  0  0  0  0  0
  191.8830  173.1670  139.5860 C   0  0  2  0  0  3  0  0  0  0  0  0
  188.4620  176.9880  143.1990 C   0  0  0  0  0  0  0  0  0  0  0  0
  192.2150  176.7740  142.7630 C   0  0  0  0  0  2  0  0  0  0  0  0
  186.6890  175.4070  142.7630 O   0  0  0  0  0  1  0  0  0  0  0  0
  194.8160  170.8480  145.3810 C   0  0  0  0  0  2  0  0  0  0  0  0
  188.0440  175.7230  142.7680 C   0  0  0  0  0  0  0  0  0  0  0  0
  190.7770  176.3520  142.7750 C   0  0  0  0  0  0  0  0  0  0  0  0
  194.8250  176.3630  146.3800 O   0  0  0  0  0  1  0  0  0  0  0  0
  194.3300  170.1950  144.0790 C   0  0  2  0  0  3  0  0  0  0  0  0
  192.3350  171.8300  140.2050 C   0  0  1  0  0  3  0  0  0  0  0  0
  191.9590  170.6620  139.2970 C   0  0  0  0  0  2  0  0  0  0  0  0
  193.9440  173.1270  144.6970 C   0  0  1  0  0  3  0  0  0  0  0  0
  192.2840  171.1700  143.1160 C   0  0  0  0  0  1  0  0  0  0  0  0
  190.3520  175.0790  142.3420 C   0  0  0  0  0  0  0  0  0  0  0  0
  190.4420  170.5750  139.0740 C   0  0  0  0  0  2  0  0  0  0  0  0
  195.3830  169.2160  143.5650 C   0  0  0  0  0  2  0  0  0  0  0  0
  195.7090  170.4600  141.4010 C   0  0  2  0  0  3  0  0  0  0  0  0
  193.9260  172.0260  145.7730 C   0  0  0  0  0  2  0  0  0  0  0  0
  196.1120  173.9710  145.7340 C   0  0  0  0  0  1  0  0  0  0  0  0
  194.7940  174.3480  145.0610 C   0  0  2  0  0  3  0  0  0  0  0  0
  188.5430  173.5160  141.9320 O   0  0  0  0  0  1  0  0  0  0  0  0
  191.9520  174.3450  140.5620 C   0  0  0  0  0  2  0  0  0  0  0  0
  193.8040  171.2000  143.0070 C   0  0  1  0  0  0  0  0  0  0  0  0
  193.9850  175.3710  145.8680 C   0  0  2  0  0  3  0  0  0  0  0  0
  196.3780  169.9470  142.6800 C   0  0  0  0  0  2  0  0  0  0  0  0
  190.5020  173.0950  138.9140 C   0  0  0  0  0  2  0  0  0  0  0  0
  192.0030  176.6650  145.5880 O   0  0  0  0  0  0  0  0  0  0  0  0
  193.0150  175.9730  143.6270 O   0  0  0  0  0  0  0  0  0  0  0  0
  188.9810  174.7710  142.3440 C   0  0  0  0  0  0  0  0  0  0  0  0
  191.3300  174.0260  141.9150 C   0  0  0  0  0  2  0  0  0  0  0  0
  189.6980  171.8820  139.3740 C   0  0  0  0  0  2  0  0  0  0  0  0
  194.2100  170.7900  141.5590 C   0  0  1  0  0  3  0  0  0  0  0  0
  194.8100  168.5690  140.2470 O   0  0  0  0  0  1  0  0  0  0  0  0
  195.8910  169.4520  140.2770 C   0  0  0  0  0  2  0  0  0  0  0  0
  187.4900  177.9170  143.6070 O   0  0  0  0  0  0  0  0  0  0  0  0
  187.0000  178.0960  144.9090 C   0  0  0  0  0  0  0  0  0  0  0  0
  185.9410  179.0060  145.1970 N   0  0  0  0  0  1  0  0  0  0  0  0
  187.5260  177.4550  145.8530 O   0  0  0  0  0  0  0  0  0  0  0  0
  2  6  1  0  0  0  0
  4 31  2  0  0  0  0
  4 28  1  0  0  0  0
  5 30  1  1  0  0  0
  5 14  1  0  0  0  0
  5 26  1  0  0  0  0
  6 39  1  0  0  0  0
  7 11  1  0  0  0  0
  7 32  1  0  0  0  0
  8 10  1  0  0  0  0
  9 22  1  0  0  0  0
 10  6  2  0  0  0  0
 11  2  2  0  0  0  0
 13 20  1  6  0  0  0
 13  9  1  0  0  0  0
 14 15  1  6  0  0  0
 14  3  1  0  0  0  0
 16  1  1  6  0  0  0
 16 24  1  0  0  0  0
 16 22  1  0  0  0  0
 18 33  2  0  0  0  0
 18 11  1  0  0  0  0
 19 15  1  0  0  0  0
 19 35  1  0  0  0  0
 21 38  1  6  0  0  0
 21 36  1  0  0  0  0
 21 29  1  0  0  0  0
 24 23  1  1  0  0  0
 24 28  1  0  0  0  0
 25 33  1  0  0  0  0
 26 34  1  0  0  0  0
 27 17  1  1  0  0  0
 27  1  1  0  0  0  0
 27 13  1  0  0  0  0
 28 12  1  6  0  0  0
 29 20  1  0  0  0  0
 30 35  1  0  0  0  0
 32  4  1  0  0  0  0
 33 10  1  0  0  0  0
 34 18  1  0  0  0  0
 36  3  1  6  0  0  0
 36 27  1  0  0  0  0
 37 38  1  0  0  0  0
 39 40  1  0  0  0  0
 40 41  1  0  0  0  0
 40 42  2  0  0  0  0
M  END
>  <MODEL>
6

>  <REMARK>
 VINA RESULT:      -7.2      2.478      5.670
  Name = 
  3 active torsions:
  status: ('A' for Active; 'I' for Inactive)
    1  A    between atoms: C_6  and  O_33
    2  A    between atoms: C_9  and  O_33
    3  A    between atoms: C_23  and  C_42
                            x       y       z     vdW  Elec       q    Type
                         _______ _______ _______ _____ _____    ______ ____

>  <TORSDO>
F 3

$$$$
=
 OpenBabel11062419403D

 42 46  0  0  1  0  0  0  0  0999 V2000
  193.4630  173.7670  144.4680 C   0  0  0  0  0  2  0  0  0  0  0  0
  192.0730  169.6500  139.6690 C   0  0  0  0  0  3  0  0  0  0  0  0
  190.6400  174.5480  144.8710 C   0  0  0  0  0  2  0  0  0  0  0  0
  194.7060  170.5910  142.2690 C   0  0  0  0  0  0  0  0  0  0  0  0
  189.2180  173.4240  143.1070 C   0  0  2  0  0  3  0  0  0  0  0  0
  191.7060  170.1100  138.3970 C   0  0  0  0  0  0  0  0  0  0  0  0
  192.3270  169.8770  142.1220 C   0  0  0  0  0  2  0  0  0  0  0  0
  190.8110  171.8750  137.0130 O   0  0  0  0  0  1  0  0  0  0  0  0
  195.6220  175.5210  144.5790 C   0  0  0  0  0  2  0  0  0  0  0  0
  191.1880  171.4040  138.2670 C   0  0  0  0  0  0  0  0  0  0  0  0
  191.9450  170.4630  140.7970 C   0  0  0  0  0  0  0  0  0  0  0  0
  196.5300  170.0670  143.6630 O   0  0  0  0  0  1  0  0  0  0  0  0
  194.2420  176.1960  144.5510 C   0  0  2  0  0  3  0  0  0  0  0  0
  189.9510  174.7140  143.5250 C   0  0  1  0  0  3  0  0  0  0  0  0
  188.9860  175.8960  143.5540 C   0  0  0  0  0  2  0  0  0  0  0  0
  194.7000  173.3440  143.6670 C   0  0  1  0  0  3  0  0  0  0  0  0
  192.7410  175.4430  142.7510 C   0  0  0  0  0  1  0  0  0  0  0  0
  191.4240  171.7670  140.6620 C   0  0  0  0  0  0  0  0  0  0  0  0
  188.3530  176.1530  142.1800 C   0  0  0  0  0  2  0  0  0  0  0  0
  194.0490  177.0340  145.8130 C   0  0  0  0  0  2  0  0  0  0  0  0
  192.0480  175.7110  146.5750 C   0  0  2  0  0  3  0  0  0  0  0  0
  195.7400  174.4640  143.4830 C   0  0  0  0  0  2  0  0  0  0  0  0
  196.2890  172.2780  145.3500 C   0  0  0  0  0  1  0  0  0  0  0  0
  195.2740  172.0400  144.2340 C   0  0  2  0  0  3  0  0  0  0  0  0
  190.5440  173.5190  139.2330 O   0  0  0  0  0  1  0  0  0  0  0  0
  190.1630  172.2690  142.7660 C   0  0  0  0  0  2  0  0  0  0  0  0
  193.0570  175.2340  144.2280 C   0  0  1  0  0  0  0  0  0  0  0  0
  195.8150  171.1380  143.1200 C   0  0  2  0  0  3  0  0  0  0  0  0
  193.4670  176.1720  146.9210 C   0  0  0  0  0  2  0  0  0  0  0  0
  188.1910  173.6390  141.9840 C   0  0  0  0  0  2  0  0  0  0  0  0
  194.9840  170.0760  141.1540 O   0  0  0  0  0  0  0  0  0  0  0  0
  193.3870  170.6000  142.7410 O   0  0  0  0  0  0  0  0  0  0  0  0
  191.0490  172.2310  139.3900 C   0  0  0  0  0  0  0  0  0  0  0  0
  191.2950  172.6890  141.8360 C   0  0  0  0  0  2  0  0  0  0  0  0
  188.4220  174.9480  141.2330 C   0  0  0  0  0  2  0  0  0  0  0  0
  191.7820  175.5610  145.0630 C   0  0  1  0  0  3  0  0  0  0  0  0
  191.4400  177.0630  148.4500 O   0  0  0  0  0  1  0  0  0  0  0  0
  191.0280  176.6640  147.1770 C   0  0  0  0  0  2  0  0  0  0  0  0
  191.8200  169.3090  137.2480 O   0  0  0  0  0  0  0  0  0  0  0  0
  192.9620  169.1480  136.4520 C   0  0  0  0  0  0  0  0  0  0  0  0
  194.0090  168.2480  136.8070 N   0  0  0  0  0  1  0  0  0  0  0  0
  193.0800  169.8370  135.4070 O   0  0  0  0  0  0  0  0  0  0  0  0
  2 11  1  0  0  0  0
  4 32  1  0  0  0  0
  4 28  1  0  0  0  0
  5 30  1  6  0  0  0
  5 14  1  0  0  0  0
  6  2  2  0  0  0  0
  7 32  1  0  0  0  0
  8 10  1  0  0  0  0
 10  6  1  0  0  0  0
 10 33  2  0  0  0  0
 11  7  1  0  0  0  0
 13  9  1  1  0  0  0
 13 20  1  0  0  0  0
 14 15  1  1  0  0  0
 14  3  1  0  0  0  0
 16 22  1  1  0  0  0
 16 24  1  0  0  0  0
 16  1  1  0  0  0  0
 18 11  2  0  0  0  0
 18 34  1  0  0  0  0
 19 15  1  0  0  0  0
 20 29  1  0  0  0  0
 21 29  1  0  0  0  0
 21 38  1  6  0  0  0
 22  9  1  0  0  0  0
 24 23  1  1  0  0  0
 25 33  1  0  0  0  0
 26  5  1  0  0  0  0
 27 17  1  6  0  0  0
 27  1  1  0  0  0  0
 27 13  1  0  0  0  0
 27 36  1  0  0  0  0
 28 12  1  1  0  0  0
 28 24  1  0  0  0  0
 31  4  2  0  0  0  0
 33 18  1  0  0  0  0
 34 26  1  0  0  0  0
 35 30  1  0  0  0  0
 35 19  1  0  0  0  0
 36  3  1  1  0  0  0
 36 21  1  0  0  0  0
 38 37  1  0  0  0  0
 39  6  1  0  0  0  0
 40 41  1  0  0  0  0
 40 39  1  0  0  0  0
 42 40  2  0  0  0  0
M  END
>  <MODEL>
7

>  <REMARK>
 VINA RESULT:      -7.1      3.389      6.936
  Name = 
  3 active torsions:
  status: ('A' for Active; 'I' for Inactive)
    1  A    between atoms: C_6  and  O_33
    2  A    between atoms: C_9  and  O_33
    3  A    between atoms: C_23  and  C_42
                            x       y       z     vdW  Elec       q    Type
                         _______ _______ _______ _____ _____    ______ ____

>  <TORSDO>
F 3

$$$$
=
 OpenBabel11062419403D

 42 46  0  0  1  0  0  0  0  0999 V2000
  193.4960  172.9110  139.8830 C   0  0  0  0  0  2  0  0  0  0  0  0
  188.5600  175.0950  143.4570 C   0  0  0  0  0  3  0  0  0  0  0  0
  195.1870  172.3220  142.2350 C   0  0  0  0  0  2  0  0  0  0  0  0
  189.5260  173.7390  140.0210 C   0  0  0  0  0  0  0  0  0  0  0  0
  193.9930  173.1080  144.3220 C   0  0  2  0  0  3  0  0  0  0  0  0
  188.6200  176.3390  144.1010 C   0  0  0  0  0  0  0  0  0  0  0  0
  189.5660  173.0830  142.4210 C   0  0  0  0  0  2  0  0  0  0  0  0
  189.9510  178.1340  145.0160 O   0  0  0  0  0  1  0  0  0  0  0  0
  194.4290  173.9990  137.4960 C   0  0  0  0  0  2  0  0  0  0  0  0
  189.8720  176.9040  144.3710 C   0  0  0  0  0  0  0  0  0  0  0  0
  189.7220  174.4240  143.0700 C   0  0  0  0  0  0  0  0  0  0  0  0
  189.0120  172.6540  137.9960 O   0  0  0  0  0  1  0  0  0  0  0  0
  195.4330  174.0350  138.6580 C   0  0  2  0  0  3  0  0  0  0  0  0
  195.0590  173.4400  143.2590 C   0  0  1  0  0  3  0  0  0  0  0  0
  196.4060  173.7260  143.9180 C   0  0  0  0  0  2  0  0  0  0  0  0
  192.4590  173.6840  139.0600 C   0  0  1  0  0  3  0  0  0  0  0  0
  194.5770  174.9960  140.7570 C   0  0  0  0  0  1  0  0  0  0  0  0
  190.9820  174.9970  143.3430 C   0  0  0  0  0  0  0  0  0  0  0  0
  196.3300  174.9190  144.8810 C   0  0  0  0  0  2  0  0  0  0  0  0
  196.6850  173.2430  138.2860 C   0  0  0  0  0  2  0  0  0  0  0  0
  196.3980  171.6030  140.1730 C   0  0  2  0  0  3  0  0  0  0  0  0
  193.0660  174.5360  137.9300 C   0  0  0  0  0  2  0  0  0  0  0  0
  191.6420  172.0660  137.2700 C   0  0  0  0  0  1  0  0  0  0  0  0
  191.3390  172.7430  138.6050 C   0  0  2  0  0  3  0  0  0  0  0  0
  192.2810  176.8290  144.2600 O   0  0  0  0  0  1  0  0  0  0  0  0
  192.5640  173.1040  143.7720 C   0  0  0  0  0  2  0  0  0  0  0  0
  194.8270  173.6690  140.0490 C   0  0  1  0  0  0  0  0  0  0  0  0
  189.9780  173.4470  138.6200 C   0  0  2  0  0  3  0  0  0  0  0  0
  196.4990  171.7820  138.6550 C   0  0  0  0  0  2  0  0  0  0  0  0
  194.0910  173.9820  145.5820 C   0  0  0  0  0  2  0  0  0  0  0  0
  188.5860  174.5570  140.2060 O   0  0  0  0  0  0  0  0  0  0  0  0
  190.1040  173.0610  141.1020 O   0  0  0  0  0  0  0  0  0  0  0  0
  191.0480  176.2410  143.9930 C   0  0  0  0  0  0  0  0  0  0  0  0
  192.2570  174.3320  142.9220 C   0  0  0  0  0  2  0  0  0  0  0  0
  194.9060  175.2510  145.3430 C   0  0  0  0  0  2  0  0  0  0  0  0
  195.8030  172.8160  140.9160 C   0  0  1  0  0  3  0  0  0  0  0  0
  197.7540  169.9960  141.3120 O   0  0  0  0  0  1  0  0  0  0  0  0
  197.7660  171.2750  140.7520 C   0  0  0  0  0  2  0  0  0  0  0  0
  187.4660  177.0310  144.5040 O   0  0  0  0  0  0  0  0  0  0  0  0
  186.7080  176.7910  145.6600 C   0  0  0  0  0  0  0  0  0  0  0  0
  187.3130  176.4180  146.8950 N   0  0  0  0  0  1  0  0  0  0  0  0
  185.4550  176.8810  145.5970 O   0  0  0  0  0  0  0  0  0  0  0  0
  1 27  1  0  0  0  0
  2  6  1  0  0  0  0
  4 31  2  0  0  0  0
  4 32  1  0  0  0  0
  5 26  1  6  0  0  0
  5 30  1  0  0  0  0
  6 10  2  0  0  0  0
  6 39  1  0  0  0  0
  7 11  1  0  0  0  0
  9 22  1  0  0  0  0
 10  8  1  0  0  0  0
 11 18  1  0  0  0  0
 11  2  2  0  0  0  0
 13  9  1  6  0  0  0
 13 27  1  0  0  0  0
 14  3  1  6  0  0  0
 14 15  1  0  0  0  0
 14  5  1  0  0  0  0
 15 19  1  0  0  0  0
 16 22  1  6  0  0  0
 16  1  1  0  0  0  0
 18 33  2  0  0  0  0
 19 35  1  0  0  0  0
 20 29  1  0  0  0  0
 20 13  1  0  0  0  0
 21 38  1  1  0  0  0
 21 36  1  0  0  0  0
 24 23  1  6  0  0  0
 24 28  1  0  0  0  0
 24 16  1  0  0  0  0
 27 17  1  1  0  0  0
 27 36  1  0  0  0  0
 28 12  1  1  0  0  0
 28  4  1  0  0  0  0
 29 21  1  0  0  0  0
 32  7  1  0  0  0  0
 33 25  1  0  0  0  0
 33 10  1  0  0  0  0
 34 18  1  0  0  0  0
 34 26  1  0  0  0  0
 35 30  1  0  0  0  0
 36  3  1  1  0  0  0
 38 37  1  0  0  0  0
 39 40  1  0  0  0  0
 40 41  1  0  0  0  0
 42 40  2  0  0  0  0
M  END
>  <MODEL>
8

>  <REMARK>
 VINA RESULT:      -7.0      2.080      2.593
  Name = 
  3 active torsions:
  status: ('A' for Active; 'I' for Inactive)
    1  A    between atoms: C_6  and  O_33
    2  A    between atoms: C_9  and  O_33
    3  A    between atoms: C_23  and  C_42
                            x       y       z     vdW  Elec       q    Type
                         _______ _______ _______ _____ _____    ______ ____

>  <TORSDO>
F 3

$$$$
=
 OpenBabel11062419403D

 42 46  0  0  1  0  0  0  0  0999 V2000
  193.2990  171.4750  141.2950 C   0  0  0  0  0  2  0  0  0  0  0  0
  188.2860  175.4090  142.4410 C   0  0  0  0  0  3  0  0  0  0  0  0
  194.3440  171.6920  144.0520 C   0  0  0  0  0  2  0  0  0  0  0  0
  189.6220  172.7060  140.0980 C   0  0  0  0  0  0  0  0  0  0  0  0
  192.9420  173.3630  145.3320 C   0  0  2  0  0  3  0  0  0  0  0  0
  188.4620  176.7910  142.5860 C   0  0  0  0  0  0  0  0  0  0  0  0
  189.0590  173.0560  142.4960 C   0  0  0  0  0  2  0  0  0  0  0  0
  189.9150  178.6500  143.1030 O   0  0  0  0  0  1  0  0  0  0  0  0
  194.8780  171.4220  139.0030 C   0  0  0  0  0  2  0  0  0  0  0  0
  189.7230  177.2810  142.9480 C   0  0  0  0  0  0  0  0  0  0  0  0
  189.3460  174.5200  142.6350 C   0  0  0  0  0  0  0  0  0  0  0  0
  189.3120  170.9680  138.5400 O   0  0  0  0  0  1  0  0  0  0  0  0
  195.6220  171.8090  140.2910 C   0  0  2  0  0  3  0  0  0  0  0  0
  194.2400  173.1300  144.5340 C   0  0  1  0  0  3  0  0  0  0  0  0
  195.4600  173.5100  145.3690 C   0  0  0  0  0  2  0  0  0  0  0  0
  192.6180  171.9640  140.0110 C   0  0  1  0  0  3  0  0  0  0  0  0
  194.5760  173.6090  141.6060 C   0  0  0  0  0  1  0  0  0  0  0  0
  190.6150  175.0170  142.9990 C   0  0  0  0  0  0  0  0  0  0  0  0
  195.4330  174.9880  145.7830 C   0  0  0  0  0  2  0  0  0  0  0  0
  196.7400  170.8060  140.5650 C   0  0  0  0  0  2  0  0  0  0  0  0
  195.7710  170.0900  142.7740 C   0  0  2  0  0  3  0  0  0  0  0  0
  193.5910  172.2280  138.8470 C   0  0  0  0  0  2  0  0  0  0  0  0
  191.8650  169.8650  138.7780 C   0  0  0  0  0  1  0  0  0  0  0  0
  191.4450  171.0440  139.6540 C   0  0  2  0  0  3  0  0  0  0  0  0
  192.0440  176.9130  143.4960 O   0  0  0  0  0  1  0  0  0  0  0  0
  191.6770  173.2930  144.4720 C   0  0  0  0  0  2  0  0  0  0  0  0
  194.6940  172.0910  141.5140 C   0  0  1  0  0  0  0  0  0  0  0  0
  190.2740  171.8370  139.0630 C   0  0  2  0  0  3  0  0  0  0  0  0
  196.2010  169.6400  141.3740 C   0  0  0  0  0  2  0  0  0  0  0  0
  192.9600  174.6490  146.1720 C   0  0  0  0  0  2  0  0  0  0  0  0
  188.8440  173.6250  139.7270 O   0  0  0  0  0  0  0  0  0  0  0  0
  189.8300  172.4560  141.4600 O   0  0  0  0  0  0  0  0  0  0  0  0
  190.7960  176.4020  143.1500 C   0  0  0  0  0  0  0  0  0  0  0  0
  191.7910  174.1080  143.1890 C   0  0  0  0  0  2  0  0  0  0  0  0
  194.0400  175.6250  145.7110 C   0  0  0  0  0  2  0  0  0  0  0  0
  195.2930  171.5540  142.8490 C   0  0  1  0  0  3  0  0  0  0  0  0
  196.5860  168.8370  144.6390 O   0  0  0  0  0  1  0  0  0  0  0  0
  196.9050  169.8750  143.7630 C   0  0  0  0  0  2  0  0  0  0  0  0
  187.4110  177.7050  142.4010 O   0  0  0  0  0  0  0  0  0  0  0  0
  186.3780  177.9850  143.3070 C   0  0  0  0  0  0  0  0  0  0  0  0
  185.0350  177.5720  143.0710 N   0  0  0  0  0  1  0  0  0  0  0  0
  186.6400  178.6430  144.3470 O   0  0  0  0  0  0  0  0  0  0  0  0
  1 27  1  0  0  0  0
  2  6  2  0  0  0  0
  2 11  1  0  0  0  0
  4 32  1  0  0  0  0
  5 26  1  6  0  0  0
  5 30  1  0  0  0  0
  6 10  1  0  0  0  0
  7 11  1  0  0  0  0
 10  8  1  0  0  0  0
 10 33  2  0  0  0  0
 11 18  2  0  0  0  0
 13  9  1  6  0  0  0
 13 20  1  0  0  0  0
 13 27  1  0  0  0  0
 14  3  1  1  0  0  0
 14  5  1  0  0  0  0
 14 15  1  0  0  0  0
 15 19  1  0  0  0  0
 16 22  1  6  0  0  0
 16  1  1  0  0  0  0
 18 33  1  0  0  0  0
 18 34  1  0  0  0  0
 20 29  1  0  0  0  0
 21 36  1  0  0  0  0
 21 38  1  1  0  0  0
 22  9  1  0  0  0  0
 24 23  1  6  0  0  0
 24 16  1  0  0  0  0
 27 17  1  1  0  0  0
 27 36  1  0  0  0  0
 28 12  1  1  0  0  0
 28 24  1  0  0  0  0
 28  4  1  0  0  0  0
 29 21  1  0  0  0  0
 31  4  2  0  0  0  0
 32  7  1  0  0  0  0
 33 25  1  0  0  0  0
 34 26  1  0  0  0  0
 35 19  1  0  0  0  0
 35 30  1  0  0  0  0
 36  3  1  1  0  0  0
 38 37  1  0  0  0  0
 39  6  1  0  0  0  0
 39 40  1  0  0  0  0
 40 42  2  0  0  0  0
 41 40  1  0  0  0  0
M  END
>  <MODEL>
9

>  <REMARK>
 VINA RESULT:      -6.9      1.940      2.355
  Name = 
  3 active torsions:
  status: ('A' for Active; 'I' for Inactive)
    1  A    between atoms: C_6  and  O_33
    2  A    between atoms: C_9  and  O_33
    3  A    between atoms: C_23  and  C_42
                            x       y       z     vdW  Elec       q    Type
                         _______ _______ _______ _____ _____    ______ ____

>  <TORSDO>
F 3

$$$$
