=
 OpenBabel11072409273D

 39 43  0  0  1  0  0  0  0  0999 V2000
  185.2050  179.8760  145.0390 C   0  0  0  0  0  3  0  0  0  0  0  0
  186.1150  177.6990  145.6060 C   0  0  0  0  0  0  0  0  0  0  0  0
  186.4580  177.4990  144.2640 C   0  0  0  0  0  3  0  0  0  0  0  0
  185.4800  178.8900  145.9850 C   0  0  0  0  0  3  0  0  0  0  0  0
  186.1710  178.4860  143.3080 C   0  0  0  0  0  0  0  0  0  0  0  0
  185.5450  179.6740  143.6990 C   0  0  0  0  0  3  0  0  0  0  0  0
  186.4230  176.6440  146.6260 C   0  0  0  0  0  2  0  0  0  0  0  0
  188.5950  175.5670  146.1450 C   0  0  1  0  0  3  0  0  0  0  0  0
  188.2510  175.3000  147.5970 C   0  0  0  0  0  2  0  0  0  0  0  0
  187.9040  176.6290  146.9660 C   0  0  2  0  0  3  0  0  0  0  0  0
  190.0780  175.8940  146.0210 C   0  0  0  0  0  2  0  0  0  0  0  0
  190.2500  177.1610  145.1920 C   0  0  0  0  0  2  0  0  0  0  0  0
  192.4240  176.3100  144.9570 C   0  0  0  0  0  3  0  0  0  0  0  0
  191.6130  177.2850  144.7730 N   0  0  0  0  0  0  0  0  0  0  0  0
  196.2910  176.4820  142.7970 O   0  0  0  0  0  1  0  0  0  0  0  0
  193.8590  176.3930  144.5260 C   0  0  2  0  0  3  0  0  0  0  0  0
  193.6060  176.2310  142.0330 C   0  0  0  0  0  1  0  0  0  0  0  0
  196.0950  175.0070  144.6540 C   0  0  1  0  0  3  0  0  0  0  0  0
  195.6350  175.3280  143.2360 C   0  0  1  0  0  3  0  0  0  0  0  0
  194.1370  175.5590  143.2920 C   0  0  1  0  0  3  0  0  0  0  0  0
  194.9700  175.8110  145.8460 S   0  0  0  0  0  0  0  0  0  0  0  0
  196.0070  172.8430  143.6560 O   0  0  0  0  0  1  0  0  0  0  0  0
  196.0620  173.5090  144.8780 C   0  0  0  0  0  2  0  0  0  0  0  0
  186.4850  178.2700  141.8580 C   0  0  1  0  0  3  0  0  0  0  0  0
  190.1170  174.4270  141.3950 C   0  0  1  0  0  3  0  0  0  0  0  0
  188.8220  174.0130  141.0960 C   0  0  1  0  0  0  0  0  0  0  0  0
  188.4840  176.7180  141.8180 C   0  0  0  0  0  0  0  0  0  0  0  0
  190.0270  172.7800  143.4260 C   0  0  1  0  0  3  0  0  0  0  0  0
  187.0880  176.9610  141.6440 N   0  0  0  0  0  2  0  0  0  0  0  0
  188.0630  173.2390  142.0810 N   0  0  0  0  0  2  0  0  0  0  0  0
  189.0010  175.4260  141.5310 N   0  0  0  0  0  0  0  0  0  0  0  0
  188.9280  172.1690  142.5610 C   0  0  0  0  0  2  0  0  0  0  0  0
  189.2640  177.6450  142.1510 O   0  0  0  0  0  0  0  0  0  0  0  0
  191.0970  171.7430  143.7000 C   0  0  0  0  0  1  0  0  0  0  0  0
  190.6500  174.0350  142.7880 C   0  0  0  0  0  2  0  0  0  0  0  0
  188.4220  173.8840  139.6410 C   0  0  0  0  0  2  0  0  0  0  0  0
  188.0250  172.5740  139.3660 O   0  0  0  0  0  1  0  0  0  0  0  0
  185.3110  177.5470  139.9120 O   0  0  0  0  0  1  0  0  0  0  0  0
  185.2230  178.3940  141.0230 C   0  0  0  0  0  2  0  0  0  0  0  0
  1  4  1  0  0  0  0
  2  4  2  0  0  0  0
  2  7  1  0  0  0  0
  3  2  1  0  0  0  0
  5  6  1  0  0  0  0
  5  3  2  0  0  0  0
  6  1  2  0  0  0  0
  8 11  1  1  0  0  0
  8 10  1  0  0  0  0
  8  9  1  0  0  0  0
 10  7  1  6  0  0  0
 10  9  1  0  0  0  0
 12 11  1  0  0  0  0
 14 13  2  0  0  0  0
 14 12  1  0  0  0  0
 16 13  1  1  0  0  0
 16 21  1  0  0  0  0
 18 23  1  1  0  0  0
 18 21  1  0  0  0  0
 19 15  1  1  0  0  0
 19 20  1  0  0  0  0
 19 18  1  0  0  0  0
 20 17  1  6  0  0  0
 20 16  1  0  0  0  0
 22 23  1  0  0  0  0
 24 39  1  6  0  0  0
 24  5  1  0  0  0  0
 25 31  1  0  0  0  0
 25 35  1  1  0  0  0
 26 36  1  6  0  0  0
 26 25  1  0  0  0  0
 26 31  1  0  0  0  0
 26 30  1  0  0  0  0
 27 33  2  0  0  0  0
 28 34  1  6  0  0  0
 29 27  1  0  0  0  0
 29 24  1  0  0  0  0
 30 32  1  0  0  0  0
 31 27  1  0  0  0  0
 32 28  1  0  0  0  0
 35 28  1  0  0  0  0
 37 36  1  0  0  0  0
 38 39  1  0  0  0  0
M  END
>  <MODEL>
1

>  <REMARK>
 VINA RESULT:      -7.5      0.000      0.000
  Name = 
  11 active torsions:
  status: ('A' for Active; 'I' for Inactive)
    1  A    between atoms: C_1  and  C_11
    2  A    between atoms: C_1  and  C_29
    3  A    between atoms: C_2  and  C_21
    4  A    between atoms: C_4  and  C_19
    5  A    between atoms: C_6  and  C_9
    6  A    between atoms: N_7  and  C_35
    7  A    between atoms: C_13  and  C_32
    8  A    between atoms: N_16  and  CA_17
    9  A    between atoms: CA_17  and  C_31
   10  A    between atoms: CA_17  and  C_36
   11  A    between atoms: C_21  and  C_35
                            x       y       z     vdW  Elec       q    Type
                         _______ _______ _______ _____ _____    ______ ____

>  <TORSDO>
F 11

$$$$
=
 OpenBabel11072409273D

 39 43  0  0  1  0  0  0  0  0999 V2000
  189.8650  175.4920  147.4270 C   0  0  0  0  0  3  0  0  0  0  0  0
  190.0840  174.0220  145.5090 C   0  0  0  0  0  0  0  0  0  0  0  0
  191.0380  174.8860  144.9630 C   0  0  0  0  0  3  0  0  0  0  0  0
  189.4940  174.3360  146.7410 C   0  0  0  0  0  3  0  0  0  0  0  0
  191.4050  176.0550  145.6470 C   0  0  0  0  0  0  0  0  0  0  0  0
  190.8170  176.3560  146.8790 C   0  0  0  0  0  3  0  0  0  0  0  0
  189.6940  172.7710  144.7780 C   0  0  0  0  0  2  0  0  0  0  0  0
  188.3090  173.0040  142.7440 C   0  0  1  0  0  3  0  0  0  0  0  0
  189.1630  171.7610  142.5900 C   0  0  0  0  0  2  0  0  0  0  0  0
  189.7220  172.9870  143.2740 C   0  0  2  0  0  3  0  0  0  0  0  0
  188.2600  173.7610  141.4240 C   0  0  0  0  0  2  0  0  0  0  0  0
  189.0190  175.0750  141.5650 C   0  0  0  0  0  2  0  0  0  0  0  0
  188.3150  176.5950  143.2080 C   0  0  0  0  0  3  0  0  0  0  0  0
  188.1370  176.0970  142.0400 N   0  0  0  0  0  0  0  0  0  0  0  0
  185.5690  179.1820  145.5350 O   0  0  0  0  0  1  0  0  0  0  0  0
  187.4190  177.6730  143.7430 C   0  0  2  0  0  3  0  0  0  0  0  0
  186.7140  176.6520  145.9250 C   0  0  0  0  0  1  0  0  0  0  0  0
  185.1050  178.8220  143.2290 C   0  0  1  0  0  3  0  0  0  0  0  0
  185.2010  178.1950  144.6160 C   0  0  1  0  0  3  0  0  0  0  0  0
  186.2630  177.1140  144.5460 C   0  0  1  0  0  3  0  0  0  0  0  0
  186.7180  178.6680  142.3880 S   0  0  0  0  0  0  0  0  0  0  0  0
  184.5920  177.6790  141.1990 O   0  0  0  0  0  1  0  0  0  0  0  0
  184.0520  178.1030  142.4110 C   0  0  0  0  0  2  0  0  0  0  0  0
  192.3890  177.0190  145.0540 C   0  0  1  0  0  3  0  0  0  0  0  0
  197.0900  174.5600  144.8840 C   0  0  1  0  0  3  0  0  0  0  0  0
  196.5080  174.7440  143.6320 C   0  0  1  0  0  0  0  0  0  0  0  0
  194.5970  175.8300  145.3990 C   0  0  0  0  0  0  0  0  0  0  0  0
  196.8080  171.9900  144.4830 C   0  0  1  0  0  3  0  0  0  0  0  0
  193.5630  176.3210  144.5460 N   0  0  0  0  0  2  0  0  0  0  0  0
  195.8450  173.6190  142.9690 N   0  0  0  0  0  2  0  0  0  0  0  0
  195.7370  175.2120  144.8170 N   0  0  0  0  0  0  0  0  0  0  0  0
  196.7450  172.4750  143.0380 C   0  0  0  0  0  2  0  0  0  0  0  0
  194.5440  176.0000  146.6430 O   0  0  0  0  0  0  0  0  0  0  0  0
  197.9410  170.9980  144.6390 C   0  0  0  0  0  1  0  0  0  0  0  0
  196.9670  173.1450  145.4870 C   0  0  0  0  0  2  0  0  0  0  0  0
  197.0090  175.8780  142.7620 C   0  0  0  0  0  2  0  0  0  0  0  0
  196.8830  177.0930  143.4370 O   0  0  0  0  0  1  0  0  0  0  0  0
  192.0990  177.2560  142.6990 O   0  0  0  0  0  1  0  0  0  0  0  0
  191.7400  177.8110  143.9330 C   0  0  0  0  0  2  0  0  0  0  0  0
  2  4  1  0  0  0  0
  3  2  2  0  0  0  0
  3  5  1  0  0  0  0
  4  1  2  0  0  0  0
  5  6  2  0  0  0  0
  6  1  1  0  0  0  0
  7  2  1  0  0  0  0
  8 11  1  6  0  0  0
  8 10  1  0  0  0  0
  9  8  1  0  0  0  0
  9 10  1  0  0  0  0
 10  7  1  1  0  0  0
 11 12  1  0  0  0  0
 12 14  1  0  0  0  0
 14 13  2  0  0  0  0
 16 13  1  6  0  0  0
 16 20  1  0  0  0  0
 18 23  1  6  0  0  0
 18 19  1  0  0  0  0
 19 15  1  1  0  0  0
 20 19  1  0  0  0  0
 20 17  1  1  0  0  0
 21 18  1  0  0  0  0
 21 16  1  0  0  0  0
 22 23  1  0  0  0  0
 24 39  1  6  0  0  0
 24  5  1  0  0  0  0
 25 35  1  1  0  0  0
 26 36  1  6  0  0  0
 26 31  1  0  0  0  0
 26 25  1  0  0  0  0
 27 33  2  0  0  0  0
 28 34  1  6  0  0  0
 28 35  1  0  0  0  0
 29 24  1  0  0  0  0
 29 27  1  0  0  0  0
 30 32  1  0  0  0  0
 30 26  1  0  0  0  0
 31 25  1  0  0  0  0
 31 27  1  0  0  0  0
 32 28  1  0  0  0  0
 36 37  1  0  0  0  0
 38 39  1  0  0  0  0
M  END
>  <MODEL>
2

>  <REMARK>
 VINA RESULT:      -7.5      2.623      7.795
  Name = 
  11 active torsions:
  status: ('A' for Active; 'I' for Inactive)
    1  A    between atoms: C_1  and  C_11
    2  A    between atoms: C_1  and  C_29
    3  A    between atoms: C_2  and  C_21
    4  A    between atoms: C_4  and  C_19
    5  A    between atoms: C_6  and  C_9
    6  A    between atoms: N_7  and  C_35
    7  A    between atoms: C_13  and  C_32
    8  A    between atoms: N_16  and  CA_17
    9  A    between atoms: CA_17  and  C_31
   10  A    between atoms: CA_17  and  C_36
   11  A    between atoms: C_21  and  C_35
                            x       y       z     vdW  Elec       q    Type
                         _______ _______ _______ _____ _____    ______ ____

>  <TORSDO>
F 11

$$$$
=
 OpenBabel11072409273D

 39 43  0  0  1  0  0  0  0  0999 V2000
  190.9390  177.6840  143.2330 C   0  0  0  0  0  3  0  0  0  0  0  0
  189.8600  177.2740  145.3680 C   0  0  0  0  0  0  0  0  0  0  0  0
  191.0180  176.6340  145.8230 C   0  0  0  0  0  3  0  0  0  0  0  0
  189.8260  177.7920  144.0650 C   0  0  0  0  0  3  0  0  0  0  0  0
  192.1360  176.5150  144.9830 C   0  0  0  0  0  0  0  0  0  0  0  0
  192.0940  177.0430  143.6880 C   0  0  0  0  0  3  0  0  0  0  0  0
  188.6670  177.4010  146.2680 C   0  0  0  0  0  2  0  0  0  0  0  0
  186.4770  177.5870  145.1370 C   0  0  1  0  0  3  0  0  0  0  0  0
  186.2470  176.9840  146.5080 C   0  0  0  0  0  2  0  0  0  0  0  0
  187.4830  176.6240  145.7170 C   0  0  2  0  0  3  0  0  0  0  0  0
  185.6100  176.8720  144.1090 C   0  0  0  0  0  2  0  0  0  0  0  0
  186.3510  176.8030  142.7800 C   0  0  0  0  0  2  0  0  0  0  0  0
  188.0590  175.3930  142.0050 C   0  0  0  0  0  3  0  0  0  0  0  0
  186.9410  175.5080  142.6200 N   0  0  0  0  0  0  0  0  0  0  0  0
  190.2430  171.5550  142.3890 O   0  0  0  0  0  1  0  0  0  0  0  0
  188.7170  174.0570  141.8220 C   0  0  2  0  0  3  0  0  0  0  0  0
  189.6680  173.6880  144.1150 C   0  0  0  0  0  1  0  0  0  0  0  0
  190.7240  172.9500  140.5230 C   0  0  1  0  0  3  0  0  0  0  0  0
  190.7920  172.7910  142.0380 C   0  0  1  0  0  3  0  0  0  0  0  0
  189.9820  173.9220  142.6440 C   0  0  1  0  0  3  0  0  0  0  0  0
  189.1630  173.7860  140.0770 S   0  0  0  0  0  0  0  0  0  0  0  0
  192.7290  174.1010  141.1080 O   0  0  0  0  0  1  0  0  0  0  0  0
  191.8890  173.7910  140.0420 C   0  0  0  0  0  2  0  0  0  0  0  0
  193.3670  175.7890  145.4350 C   0  0  1  0  0  3  0  0  0  0  0  0
  196.8300  173.7960  141.9400 C   0  0  1  0  0  3  0  0  0  0  0  0
  196.7520  175.1870  141.9210 C   0  0  1  0  0  0  0  0  0  0  0  0
  194.8530  174.4600  143.8750 C   0  0  0  0  0  0  0  0  0  0  0  0
  195.8670  173.8470  139.5080 C   0  0  1  0  0  3  0  0  0  0  0  0
  194.3470  175.7030  144.3590 N   0  0  0  0  0  2  0  0  0  0  0  0
  195.9970  175.8550  140.8590 N   0  0  0  0  0  2  0  0  0  0  0  0
  195.8510  174.4670  142.8630 N   0  0  0  0  0  0  0  0  0  0  0  0
  196.4100  175.2710  139.5900 C   0  0  0  0  0  2  0  0  0  0  0  0
  194.4800  173.3700  144.3780 O   0  0  0  0  0  0  0  0  0  0  0  0
  196.5130  173.1210  138.3460 C   0  0  0  0  0  1  0  0  0  0  0  0
  196.0770  173.0600  140.8140 C   0  0  0  0  0  2  0  0  0  0  0  0
  197.8340  175.9810  142.6220 C   0  0  0  0  0  2  0  0  0  0  0  0
  197.2770  177.0890  143.2630 O   0  0  0  0  0  1  0  0  0  0  0  0
  194.7070  177.6070  146.2000 O   0  0  0  0  0  1  0  0  0  0  0  0
  193.9820  176.4910  146.6320 C   0  0  0  0  0  2  0  0  0  0  0  0
  1  6  2  0  0  0  0
  1  4  1  0  0  0  0
  2  3  1  0  0  0  0
  2  7  1  0  0  0  0
  4  2  2  0  0  0  0
  5 24  1  0  0  0  0
  5  3  2  0  0  0  0
  6  5  1  0  0  0  0
  8 11  1  6  0  0  0
  8 10  1  0  0  0  0
  8  9  1  0  0  0  0
 10  7  1  1  0  0  0
 10  9  1  0  0  0  0
 12 11  1  0  0  0  0
 13 14  2  0  0  0  0
 14 12  1  0  0  0  0
 16 13  1  6  0  0  0
 16 20  1  0  0  0  0
 18 23  1  1  0  0  0
 18 19  1  0  0  0  0
 19 15  1  6  0  0  0
 19 20  1  0  0  0  0
 20 17  1  1  0  0  0
 21 18  1  0  0  0  0
 21 16  1  0  0  0  0
 23 22  1  0  0  0  0
 24 39  1  1  0  0  0
 25 35  1  6  0  0  0
 25 31  1  0  0  0  0
 26 25  1  0  0  0  0
 26 36  1  1  0  0  0
 26 31  1  0  0  0  0
 27 29  1  0  0  0  0
 27 33  2  0  0  0  0
 28 34  1  6  0  0  0
 28 32  1  0  0  0  0
 28 35  1  0  0  0  0
 29 24  1  0  0  0  0
 30 26  1  0  0  0  0
 31 27  1  0  0  0  0
 32 30  1  0  0  0  0
 36 37  1  0  0  0  0
 38 39  1  0  0  0  0
M  END
>  <MODEL>
3

>  <REMARK>
 VINA RESULT:      -7.3      2.910      6.841
  Name = 
  11 active torsions:
  status: ('A' for Active; 'I' for Inactive)
    1  A    between atoms: C_1  and  C_11
    2  A    between atoms: C_1  and  C_29
    3  A    between atoms: C_2  and  C_21
    4  A    between atoms: C_4  and  C_19
    5  A    between atoms: C_6  and  C_9
    6  A    between atoms: N_7  and  C_35
    7  A    between atoms: C_13  and  C_32
    8  A    between atoms: N_16  and  CA_17
    9  A    between atoms: CA_17  and  C_31
   10  A    between atoms: CA_17  and  C_36
   11  A    between atoms: C_21  and  C_35
                            x       y       z     vdW  Elec       q    Type
                         _______ _______ _______ _____ _____    ______ ____

>  <TORSDO>
F 11

$$$$
=
 OpenBabel11072409273D

 39 43  0  0  1  0  0  0  0  0999 V2000
  184.7160  179.4820  145.0910 C   0  0  0  0  0  3  0  0  0  0  0  0
  185.8470  177.4020  145.6270 C   0  0  0  0  0  0  0  0  0  0  0  0
  186.1290  177.2130  144.2700 C   0  0  0  0  0  3  0  0  0  0  0  0
  185.1310  178.5380  146.0300 C   0  0  0  0  0  3  0  0  0  0  0  0
  185.7020  178.1560  143.3220 C   0  0  0  0  0  0  0  0  0  0  0  0
  184.9960  179.2900  143.7360 C   0  0  0  0  0  3  0  0  0  0  0  0
  186.3050  176.3940  146.6390 C   0  0  0  0  0  2  0  0  0  0  0  0
  188.6870  176.5000  145.9910 C   0  0  1  0  0  3  0  0  0  0  0  0
  188.5410  175.4450  147.0690 C   0  0  0  0  0  2  0  0  0  0  0  0
  187.7110  176.7060  147.1230 C   0  0  2  0  0  3  0  0  0  0  0  0
  189.9480  177.3180  146.2410 C   0  0  0  0  0  2  0  0  0  0  0  0
  190.7100  177.4870  144.9320 C   0  0  0  0  0  2  0  0  0  0  0  0
  192.7540  176.6460  144.1440 C   0  0  0  0  0  3  0  0  0  0  0  0
  191.6670  176.4320  144.7890 N   0  0  0  0  0  0  0  0  0  0  0  0
  196.0280  173.6870  144.5600 O   0  0  0  0  0  1  0  0  0  0  0  0
  193.7880  175.5720  143.9760 C   0  0  2  0  0  3  0  0  0  0  0  0
  194.8670  175.6060  146.2420 C   0  0  0  0  0  1  0  0  0  0  0  0
  196.0040  175.0870  142.6360 C   0  0  1  0  0  3  0  0  0  0  0  0
  196.1580  175.0180  144.1520 C   0  0  1  0  0  3  0  0  0  0  0  0
  195.0540  175.8670  144.7540 C   0  0  1  0  0  3  0  0  0  0  0  0
  194.2500  175.3820  142.2240 S   0  0  0  0  0  0  0  0  0  0  0  0
  196.0440  177.0760  141.3200 O   0  0  0  0  0  1  0  0  0  0  0  0
  196.8380  176.2270  142.0870 C   0  0  0  0  0  2  0  0  0  0  0  0
  185.9500  177.9460  141.8590 C   0  0  1  0  0  3  0  0  0  0  0  0
  189.8730  174.4270  141.2160 C   0  0  1  0  0  3  0  0  0  0  0  0
  188.6030  173.8960  141.0030 C   0  0  1  0  0  0  0  0  0  0  0  0
  188.0730  176.5730  141.7120 C   0  0  0  0  0  0  0  0  0  0  0  0
  190.0520  172.8140  143.2690 C   0  0  1  0  0  3  0  0  0  0  0  0
  186.6530  176.6910  141.6230 N   0  0  0  0  0  2  0  0  0  0  0  0
  187.9770  173.0760  142.0440 N   0  0  0  0  0  2  0  0  0  0  0  0
  188.6830  175.3270  141.4100 N   0  0  0  0  0  0  0  0  0  0  0  0
  188.9610  172.0940  142.4820 C   0  0  0  0  0  2  0  0  0  0  0  0
  188.7870  177.5700  141.9850 O   0  0  0  0  0  0  0  0  0  0  0  0
  191.2240  171.8800  143.4880 C   0  0  0  0  0  1  0  0  0  0  0  0
  190.5220  174.1070  142.5780 C   0  0  0  0  0  2  0  0  0  0  0  0
  188.1280  173.7070  139.5780 C   0  0  0  0  0  2  0  0  0  0  0  0
  188.3330  172.3860  139.1750 O   0  0  0  0  0  1  0  0  0  0  0  0
  184.6870  178.9080  140.0800 O   0  0  0  0  0  1  0  0  0  0  0  0
  184.6370  177.9470  141.0960 C   0  0  0  0  0  2  0  0  0  0  0  0
  1  4  1  0  0  0  0
  2  4  2  0  0  0  0
  2  7  1  0  0  0  0
  3  2  1  0  0  0  0
  5  6  1  0  0  0  0
  5  3  2  0  0  0  0
  6  1  2  0  0  0  0
  8 11  1  1  0  0  0
  8  9  1  0  0  0  0
  8 10  1  0  0  0  0
  9 10  1  0  0  0  0
 10  7  1  6  0  0  0
 12 11  1  0  0  0  0
 13 14  2  0  0  0  0
 14 12  1  0  0  0  0
 16 13  1  6  0  0  0
 16 20  1  0  0  0  0
 18 23  1  1  0  0  0
 18 19  1  0  0  0  0
 19 15  1  1  0  0  0
 19 20  1  0  0  0  0
 20 17  1  1  0  0  0
 21 18  1  0  0  0  0
 21 16  1  0  0  0  0
 22 23  1  0  0  0  0
 24 39  1  6  0  0  0
 24  5  1  0  0  0  0
 25 31  1  0  0  0  0
 25 35  1  1  0  0  0
 26 36  1  6  0  0  0
 26 25  1  0  0  0  0
 26 31  1  0  0  0  0
 26 30  1  0  0  0  0
 27 33  2  0  0  0  0
 28 34  1  6  0  0  0
 29 27  1  0  0  0  0
 29 24  1  0  0  0  0
 30 32  1  0  0  0  0
 31 27  1  0  0  0  0
 32 28  1  0  0  0  0
 35 28  1  0  0  0  0
 37 36  1  0  0  0  0
 38 39  1  0  0  0  0
M  END
>  <MODEL>
4

>  <REMARK>
 VINA RESULT:      -7.3      1.016      1.641
  Name = 
  11 active torsions:
  status: ('A' for Active; 'I' for Inactive)
    1  A    between atoms: C_1  and  C_11
    2  A    between atoms: C_1  and  C_29
    3  A    between atoms: C_2  and  C_21
    4  A    between atoms: C_4  and  C_19
    5  A    between atoms: C_6  and  C_9
    6  A    between atoms: N_7  and  C_35
    7  A    between atoms: C_13  and  C_32
    8  A    between atoms: N_16  and  CA_17
    9  A    between atoms: CA_17  and  C_31
   10  A    between atoms: CA_17  and  C_36
   11  A    between atoms: C_21  and  C_35
                            x       y       z     vdW  Elec       q    Type
                         _______ _______ _______ _____ _____    ______ ____

>  <TORSDO>
F 11

$$$$
=
 OpenBabel11072409273D

 39 43  0  0  1  0  0  0  0  0999 V2000
  193.0660  173.4530  142.6100 C   0  0  0  0  0  3  0  0  0  0  0  0
  193.6440  172.5240  144.7760 C   0  0  0  0  0  0  0  0  0  0  0  0
  193.2220  173.7070  145.3900 C   0  0  0  0  0  3  0  0  0  0  0  0
  193.5710  172.4060  143.3810 C   0  0  0  0  0  3  0  0  0  0  0  0
  192.7230  174.7660  144.6150 C   0  0  0  0  0  0  0  0  0  0  0  0
  192.6460  174.6350  143.2250 C   0  0  0  0  0  3  0  0  0  0  0  0
  194.1760  171.3920  145.6060 C   0  0  0  0  0  2  0  0  0  0  0  0
  196.0750  170.1370  144.6450 C   0  0  1  0  0  3  0  0  0  0  0  0
  196.1540  170.0240  146.1540 C   0  0  0  0  0  2  0  0  0  0  0  0
  195.6900  171.3110  145.5120 C   0  0  2  0  0  3  0  0  0  0  0  0
  197.4700  170.3520  144.0720 C   0  0  0  0  0  2  0  0  0  0  0  0
  197.3620  170.7100  142.5950 C   0  0  0  0  0  2  0  0  0  0  0  0
  197.9120  172.9510  143.0180 C   0  0  0  0  0  3  0  0  0  0  0  0
  197.1240  172.1140  142.4510 N   0  0  0  0  0  0  0  0  0  0  0  0
  196.8630  177.2330  143.4820 O   0  0  0  0  0  1  0  0  0  0  0  0
  197.7060  174.4310  142.8870 C   0  0  2  0  0  3  0  0  0  0  0  0
  196.4630  174.9190  145.0120 C   0  0  0  0  0  1  0  0  0  0  0  0
  196.3890  176.1680  141.4070 C   0  0  1  0  0  3  0  0  0  0  0  0
  196.0700  176.2420  142.8970 C   0  0  1  0  0  3  0  0  0  0  0  0
  196.3930  174.8840  143.4920 C   0  0  1  0  0  3  0  0  0  0  0  0
  197.7080  174.9360  141.1370 S   0  0  0  0  0  0  0  0  0  0  0  0
  195.5090  175.3040  139.3660 O   0  0  0  0  0  1  0  0  0  0  0  0
  195.1540  175.7460  140.6380 C   0  0  0  0  0  2  0  0  0  0  0  0
  192.3120  176.0600  145.2500 C   0  0  1  0  0  3  0  0  0  0  0  0
  187.6550  178.3580  144.1490 C   0  0  1  0  0  3  0  0  0  0  0  0
  187.5350  177.1170  144.7690 C   0  0  1  0  0  0  0  0  0  0  0  0
  190.3240  177.4410  144.5080 C   0  0  0  0  0  0  0  0  0  0  0  0
  186.5250  177.2670  142.0570 C   0  0  1  0  0  3  0  0  0  0  0  0
  190.8770  176.2740  145.1170 N   0  0  0  0  0  2  0  0  0  0  0  0
  187.1930  175.9380  143.9700 N   0  0  0  0  0  2  0  0  0  0  0  0
  188.9130  177.5980  144.4720 N   0  0  0  0  0  0  0  0  0  0  0  0
  186.0550  176.2900  143.1300 C   0  0  0  0  0  2  0  0  0  0  0  0
  191.0680  178.3540  144.0700 O   0  0  0  0  0  0  0  0  0  0  0  0
  185.3250  177.8690  141.3550 C   0  0  0  0  0  1  0  0  0  0  0  0
  187.4250  178.3790  142.6240 C   0  0  0  0  0  2  0  0  0  0  0  0
  187.2250  177.0760  146.2510 C   0  0  0  0  0  2  0  0  0  0  0  0
  187.7070  175.8900  146.8090 O   0  0  0  0  0  1  0  0  0  0  0  0
  193.8610  176.8280  146.8920 O   0  0  0  0  0  1  0  0  0  0  0  0
  192.6970  176.0710  146.7190 C   0  0  0  0  0  2  0  0  0  0  0  0
  1  6  2  0  0  0  0
  1  4  1  0  0  0  0
  2  3  1  0  0  0  0
  2  7  1  0  0  0  0
  4  2  2  0  0  0  0
  5 24  1  0  0  0  0
  5  3  2  0  0  0  0
  6  5  1  0  0  0  0
  8 11  1  6  0  0  0
  8 10  1  0  0  0  0
  8  9  1  0  0  0  0
 10  7  1  1  0  0  0
 10  9  1  0  0  0  0
 12 11  1  0  0  0  0
 14 12  1  0  0  0  0
 14 13  2  0  0  0  0
 16 13  1  6  0  0  0
 16 20  1  0  0  0  0
 18 23  1  6  0  0  0
 18 19  1  0  0  0  0
 19 15  1  1  0  0  0
 19 20  1  0  0  0  0
 20 17  1  1  0  0  0
 21 18  1  0  0  0  0
 21 16  1  0  0  0  0
 22 23  1  0  0  0  0
 24 39  1  1  0  0  0
 25 35  1  6  0  0  0
 25 31  1  0  0  0  0
 25 26  1  0  0  0  0
 26 36  1  1  0  0  0
 27 29  1  0  0  0  0
 28 34  1  1  0  0  0
 28 35  1  0  0  0  0
 28 32  1  0  0  0  0
 29 24  1  0  0  0  0
 30 26  1  0  0  0  0
 31 27  1  0  0  0  0
 31 26  1  0  0  0  0
 32 30  1  0  0  0  0
 33 27  2  0  0  0  0
 36 37  1  0  0  0  0
 39 38  1  0  0  0  0
M  END
>  <MODEL>
5

>  <REMARK>
 VINA RESULT:      -6.6      3.020      7.118
  Name = 
  11 active torsions:
  status: ('A' for Active; 'I' for Inactive)
    1  A    between atoms: C_1  and  C_11
    2  A    between atoms: C_1  and  C_29
    3  A    between atoms: C_2  and  C_21
    4  A    between atoms: C_4  and  C_19
    5  A    between atoms: C_6  and  C_9
    6  A    between atoms: N_7  and  C_35
    7  A    between atoms: C_13  and  C_32
    8  A    between atoms: N_16  and  CA_17
    9  A    between atoms: CA_17  and  C_31
   10  A    between atoms: CA_17  and  C_36
   11  A    between atoms: C_21  and  C_35
                            x       y       z     vdW  Elec       q    Type
                         _______ _______ _______ _____ _____    ______ ____

>  <TORSDO>
F 11

$$$$
=
 OpenBabel11072409273D

 39 43  0  0  1  0  0  0  0  0999 V2000
  192.7920  173.2180  145.0820 C   0  0  0  0  0  3  0  0  0  0  0  0
  194.6270  174.8030  144.9990 C   0  0  0  0  0  0  0  0  0  0  0  0
  193.8170  175.7660  145.6080 C   0  0  0  0  0  3  0  0  0  0  0  0
  194.1050  173.5300  144.7310 C   0  0  0  0  0  3  0  0  0  0  0  0
  192.4910  175.4570  145.9530 C   0  0  0  0  0  0  0  0  0  0  0  0
  191.9820  174.1810  145.6890 C   0  0  0  0  0  3  0  0  0  0  0  0
  196.0440  175.1350  144.6320 C   0  0  0  0  0  2  0  0  0  0  0  0
  196.6300  175.5120  142.2610 C   0  0  1  0  0  3  0  0  0  0  0  0
  197.5320  176.3840  143.1120 C   0  0  0  0  0  2  0  0  0  0  0  0
  196.0920  176.1610  143.5130 C   0  0  2  0  0  3  0  0  0  0  0  0
  196.1690  176.2920  141.0370 C   0  0  0  0  0  2  0  0  0  0  0  0
  195.8760  175.3220  139.8980 C   0  0  0  0  0  2  0  0  0  0  0  0
  193.8760  174.2150  140.4270 C   0  0  0  0  0  3  0  0  0  0  0  0
  194.4620  175.1420  139.7650 N   0  0  0  0  0  0  0  0  0  0  0  0
  189.4680  174.1430  140.8930 O   0  0  0  0  0  1  0  0  0  0  0  0
  192.3950  173.9960  140.3230 C   0  0  2  0  0  3  0  0  0  0  0  0
  191.5860  175.3580  142.2700 C   0  0  0  0  0  1  0  0  0  0  0  0
  190.6090  172.0770  140.5830 C   0  0  1  0  0  3  0  0  0  0  0  0
  190.3820  173.2760  141.4990 C   0  0  1  0  0  3  0  0  0  0  0  0
  191.7230  173.9610  141.6810 C   0  0  1  0  0  3  0  0  0  0  0  0
  192.0270  172.4210  139.4860 S   0  0  0  0  0  0  0  0  0  0  0  0
  190.6730  171.1050  142.7600 O   0  0  0  0  0  1  0  0  0  0  0  0
  190.9140  170.8470  141.4130 C   0  0  0  0  0  2  0  0  0  0  0  0
  191.5910  176.4890  146.5610 C   0  0  1  0  0  3  0  0  0  0  0  0
  187.6980  178.2250  143.3970 C   0  0  1  0  0  3  0  0  0  0  0  0
  187.3750  177.0670  144.0990 C   0  0  1  0  0  0  0  0  0  0  0  0
  190.0270  177.5910  144.9030 C   0  0  0  0  0  0  0  0  0  0  0  0
  187.5280  176.7870  141.2180 C   0  0  1  0  0  3  0  0  0  0  0  0
  190.3230  176.5620  145.8470 N   0  0  0  0  0  2  0  0  0  0  0  0
  187.4140  175.7720  143.4160 N   0  0  0  0  0  2  0  0  0  0  0  0
  188.7440  177.6220  144.2950 N   0  0  0  0  0  0  0  0  0  0  0  0
  186.6960  175.9160  142.1560 C   0  0  0  0  0  2  0  0  0  0  0  0
  190.8580  178.5020  144.6590 O   0  0  0  0  0  0  0  0  0  0  0  0
  186.6910  177.1910  140.0220 C   0  0  0  0  0  1  0  0  0  0  0  0
  188.0960  178.0330  141.9190 C   0  0  0  0  0  2  0  0  0  0  0  0
  186.5020  177.1880  145.3300 C   0  0  0  0  0  2  0  0  0  0  0  0
  187.0290  176.4200  146.3700 O   0  0  0  0  0  1  0  0  0  0  0  0
  191.1860  177.3620  148.7430 O   0  0  0  0  0  1  0  0  0  0  0  0
  191.3370  176.1710  148.0240 C   0  0  0  0  0  2  0  0  0  0  0  0
  1  6  1  0  0  0  0
  2  3  2  0  0  0  0
  3  5  1  0  0  0  0
  4  2  1  0  0  0  0
  4  1  2  0  0  0  0
  5 24  1  0  0  0  0
  6  5  2  0  0  0  0
  7  2  1  0  0  0  0
  8 11  1  6  0  0  0
  8  9  1  0  0  0  0
  8 10  1  0  0  0  0
  9 10  1  0  0  0  0
 10  7  1  1  0  0  0
 12 11  1  0  0  0  0
 14 12  1  0  0  0  0
 14 13  2  0  0  0  0
 16 13  1  1  0  0  0
 16 20  1  0  0  0  0
 18 23  1  1  0  0  0
 18 19  1  0  0  0  0
 19 15  1  6  0  0  0
 19 20  1  0  0  0  0
 20 17  1  6  0  0  0
 21 16  1  0  0  0  0
 21 18  1  0  0  0  0
 23 22  1  0  0  0  0
 24 39  1  1  0  0  0
 25 35  1  6  0  0  0
 25 26  1  0  0  0  0
 25 31  1  0  0  0  0
 26 31  1  0  0  0  0
 26 36  1  1  0  0  0
 27 29  1  0  0  0  0
 28 34  1  6  0  0  0
 28 35  1  0  0  0  0
 28 32  1  0  0  0  0
 29 24  1  0  0  0  0
 30 26  1  0  0  0  0
 31 27  1  0  0  0  0
 32 30  1  0  0  0  0
 33 27  2  0  0  0  0
 36 37  1  0  0  0  0
 39 38  1  0  0  0  0
M  END
>  <MODEL>
6

>  <REMARK>
 VINA RESULT:      -6.6      2.873      7.116
  Name = 
  11 active torsions:
  status: ('A' for Active; 'I' for Inactive)
    1  A    between atoms: C_1  and  C_11
    2  A    between atoms: C_1  and  C_29
    3  A    between atoms: C_2  and  C_21
    4  A    between atoms: C_4  and  C_19
    5  A    between atoms: C_6  and  C_9
    6  A    between atoms: N_7  and  C_35
    7  A    between atoms: C_13  and  C_32
    8  A    between atoms: N_16  and  CA_17
    9  A    between atoms: CA_17  and  C_31
   10  A    between atoms: CA_17  and  C_36
   11  A    between atoms: C_21  and  C_35
                            x       y       z     vdW  Elec       q    Type
                         _______ _______ _______ _____ _____    ______ ____

>  <TORSDO>
F 11

$$$$
=
 OpenBabel11072409273D

 39 43  0  0  1  0  0  0  0  0999 V2000
  192.2570  169.8350  142.9180 C   0  0  0  0  0  3  0  0  0  0  0  0
  191.2670  171.1270  141.1190 C   0  0  0  0  0  0  0  0  0  0  0  0
  192.2800  172.0820  141.2550 C   0  0  0  0  0  3  0  0  0  0  0  0
  191.2580  170.0070  141.9620 C   0  0  0  0  0  3  0  0  0  0  0  0
  193.2810  171.9160  142.2250 C   0  0  0  0  0  0  0  0  0  0  0  0
  193.2670  170.7900  143.0550 C   0  0  0  0  0  3  0  0  0  0  0  0
  190.1990  171.3060  140.0810 C   0  0  0  0  0  2  0  0  0  0  0  0
  188.8870  173.1290  141.1110 C   0  0  1  0  0  3  0  0  0  0  0  0
  188.3000  172.8450  139.7420 C   0  0  0  0  0  2  0  0  0  0  0  0
  189.7930  172.7650  139.9600 C   0  0  2  0  0  3  0  0  0  0  0  0
  188.9310  174.6330  141.3480 C   0  0  0  0  0  2  0  0  0  0  0  0
  188.7110  174.9200  142.8280 C   0  0  0  0  0  2  0  0  0  0  0  0
  187.2980  176.3080  144.0860 C   0  0  0  0  0  3  0  0  0  0  0  0
  187.4890  175.6430  143.0070 N   0  0  0  0  0  0  0  0  0  0  0  0
  183.9320  179.1930  144.0770 O   0  0  0  0  0  1  0  0  0  0  0  0
  186.0360  177.0870  144.3110 C   0  0  2  0  0  3  0  0  0  0  0  0
  186.3600  178.9770  142.6920 C   0  0  0  0  0  1  0  0  0  0  0  0
  184.8530  178.5320  146.1700 C   0  0  1  0  0  3  0  0  0  0  0  0
  185.0910  179.2700  144.8560 C   0  0  1  0  0  3  0  0  0  0  0  0
  186.2460  178.5790  144.1570 C   0  0  1  0  0  3  0  0  0  0  0  0
  185.3800  176.7940  145.9850 S   0  0  0  0  0  0  0  0  0  0  0  0
  186.2520  178.2000  148.0730 O   0  0  0  0  0  1  0  0  0  0  0  0
  185.6630  179.1780  147.2750 C   0  0  0  0  0  2  0  0  0  0  0  0
  194.3460  172.9520  142.4200 C   0  0  1  0  0  3  0  0  0  0  0  0
  192.3920  177.1730  144.9790 C   0  0  1  0  0  3  0  0  0  0  0  0
  193.0920  176.2940  145.8010 C   0  0  1  0  0  0  0  0  0  0  0  0
  193.2090  175.0470  143.2740 C   0  0  0  0  0  0  0  0  0  0  0  0
  190.2600  176.5470  146.3600 C   0  0  1  0  0  3  0  0  0  0  0  0
  193.9900  173.8720  143.4930 N   0  0  0  0  0  2  0  0  0  0  0  0
  192.3560  175.3710  146.6680 N   0  0  0  0  0  2  0  0  0  0  0  0
  192.9560  175.9210  144.3650 N   0  0  0  0  0  0  0  0  0  0  0  0
  191.3340  176.1410  147.3650 C   0  0  0  0  0  2  0  0  0  0  0  0
  192.8060  175.3490  142.1230 O   0  0  0  0  0  0  0  0  0  0  0  0
  189.3430  177.5800  146.9830 C   0  0  0  0  0  1  0  0  0  0  0  0
  190.8530  177.0830  145.0450 C   0  0  0  0  0  2  0  0  0  0  0  0
  194.5120  176.6460  146.1930 C   0  0  0  0  0  2  0  0  0  0  0  0
  195.1630  177.2720  145.1280 O   0  0  0  0  0  1  0  0  0  0  0  0
  196.4450  173.1400  143.5360 O   0  0  0  0  0  1  0  0  0  0  0  0
  195.6750  172.2890  142.7350 C   0  0  0  0  0  2  0  0  0  0  0  0
  1  6  1  0  0  0  0
  2  3  2  0  0  0  0
  2  4  1  0  0  0  0
  3  5  1  0  0  0  0
  4  1  2  0  0  0  0
  5 24  1  0  0  0  0
  5  6  2  0  0  0  0
  7  2  1  0  0  0  0
  8 11  1  6  0  0  0
  9 10  1  0  0  0  0
  9  8  1  0  0  0  0
 10  7  1  1  0  0  0
 10  8  1  0  0  0  0
 11 12  1  0  0  0  0
 12 14  1  0  0  0  0
 14 13  2  0  0  0  0
 16 13  1  1  0  0  0
 16 21  1  0  0  0  0
 18 23  1  1  0  0  0
 19 15  1  6  0  0  0
 19 18  1  0  0  0  0
 20 17  1  6  0  0  0
 20 16  1  0  0  0  0
 20 19  1  0  0  0  0
 21 18  1  0  0  0  0
 23 22  1  0  0  0  0
 24 39  1  1  0  0  0
 24 29  1  0  0  0  0
 25 35  1  1  0  0  0
 25 26  1  0  0  0  0
 26 36  1  1  0  0  0
 26 30  1  0  0  0  0
 27 29  1  0  0  0  0
 27 31  1  0  0  0  0
 28 34  1  1  0  0  0
 28 32  1  0  0  0  0
 30 32  1  0  0  0  0
 31 25  1  0  0  0  0
 31 26  1  0  0  0  0
 33 27  2  0  0  0  0
 35 28  1  0  0  0  0
 37 36  1  0  0  0  0
 39 38  1  0  0  0  0
M  END
>  <MODEL>
7

>  <REMARK>
 VINA RESULT:      -6.5      2.804      8.760
  Name = 
  11 active torsions:
  status: ('A' for Active; 'I' for Inactive)
    1  A    between atoms: C_1  and  C_11
    2  A    between atoms: C_1  and  C_29
    3  A    between atoms: C_2  and  C_21
    4  A    between atoms: C_4  and  C_19
    5  A    between atoms: C_6  and  C_9
    6  A    between atoms: N_7  and  C_35
    7  A    between atoms: C_13  and  C_32
    8  A    between atoms: N_16  and  CA_17
    9  A    between atoms: CA_17  and  C_31
   10  A    between atoms: CA_17  and  C_36
   11  A    between atoms: C_21  and  C_35
                            x       y       z     vdW  Elec       q    Type
                         _______ _______ _______ _____ _____    ______ ____

>  <TORSDO>
F 11

$$$$
=
 OpenBabel11072409273D

 39 43  0  0  1  0  0  0  0  0999 V2000
  190.0200  175.2660  147.1580 C   0  0  0  0  0  3  0  0  0  0  0  0
  190.4920  173.5550  145.5050 C   0  0  0  0  0  0  0  0  0  0  0  0
  191.8360  173.9440  145.4940 C   0  0  0  0  0  3  0  0  0  0  0  0
  189.5860  174.2270  146.3360 C   0  0  0  0  0  3  0  0  0  0  0  0
  192.2720  174.9970  146.3130 C   0  0  0  0  0  0  0  0  0  0  0  0
  191.3620  175.6560  147.1450 C   0  0  0  0  0  3  0  0  0  0  0  0
  190.0280  172.4280  144.6290 C   0  0  0  0  0  2  0  0  0  0  0  0
  189.7400  171.7390  142.2730 C   0  0  1  0  0  3  0  0  0  0  0  0
  191.0890  171.2360  142.7470 C   0  0  0  0  0  2  0  0  0  0  0  0
  190.5690  172.5750  143.2170 C   0  0  2  0  0  3  0  0  0  0  0  0
  189.8640  172.2840  140.8560 C   0  0  0  0  0  2  0  0  0  0  0  0
  188.5710  172.9920  140.4690 C   0  0  0  0  0  2  0  0  0  0  0  0
  187.8630  174.6760  141.9410 C   0  0  0  0  0  3  0  0  0  0  0  0
  188.5960  174.3420  140.9450 N   0  0  0  0  0  0  0  0  0  0  0  0
  188.8080  178.6600  143.6380 O   0  0  0  0  0  1  0  0  0  0  0  0
  187.8640  176.0770  142.4770 C   0  0  2  0  0  3  0  0  0  0  0  0
  190.2930  176.3580  143.0420 C   0  0  0  0  0  1  0  0  0  0  0  0
  186.9550  177.4610  144.5270 C   0  0  1  0  0  3  0  0  0  0  0  0
  188.4700  177.5100  144.3570 C   0  0  1  0  0  3  0  0  0  0  0  0
  188.8750  176.2660  143.5890 C   0  0  1  0  0  3  0  0  0  0  0  0
  186.2260  176.5210  143.1420 S   0  0  0  0  0  0  0  0  0  0  0  0
  185.2700  176.9990  146.1510 O   0  0  0  0  0  1  0  0  0  0  0  0
  186.6060  176.7710  145.8290 C   0  0  0  0  0  2  0  0  0  0  0  0
  193.6970  175.4610  146.2790 C   0  0  1  0  0  3  0  0  0  0  0  0
  196.9370  174.3860  142.2140 C   0  0  1  0  0  3  0  0  0  0  0  0
  195.8250  175.1450  141.8580 C   0  0  1  0  0  0  0  0  0  0  0  0
  195.4410  174.6880  144.6140 C   0  0  0  0  0  0  0  0  0  0  0  0
  195.9600  172.4960  140.6910 C   0  0  1  0  0  3  0  0  0  0  0  0
  194.2370  175.3890  144.9270 N   0  0  0  0  0  2  0  0  0  0  0  0
  194.6930  174.5020  141.1860 N   0  0  0  0  0  2  0  0  0  0  0  0
  195.9300  174.7160  143.2810 N   0  0  0  0  0  0  0  0  0  0  0  0
  195.2290  173.6960  140.0960 C   0  0  0  0  0  2  0  0  0  0  0  0
  196.1030  174.1090  145.5120 O   0  0  0  0  0  0  0  0  0  0  0  0
  196.7660  171.8030  139.6110 C   0  0  0  0  0  1  0  0  0  0  0  0
  196.8700  172.8840  141.8700 C   0  0  0  0  0  2  0  0  0  0  0  0
  195.9980  176.6380  141.6720 C   0  0  0  0  0  2  0  0  0  0  0  0
  196.8200  177.1550  142.6740 O   0  0  0  0  0  1  0  0  0  0  0  0
  194.9020  177.5180  146.2110 O   0  0  0  0  0  1  0  0  0  0  0  0
  193.7990  176.8860  146.7950 C   0  0  0  0  0  2  0  0  0  0  0  0
  2  4  1  0  0  0  0
  3  2  2  0  0  0  0
  3  5  1  0  0  0  0
  4  1  2  0  0  0  0
  5  6  2  0  0  0  0
  6  1  1  0  0  0  0
  7  2  1  0  0  0  0
  8 11  1  6  0  0  0
  8  9  1  0  0  0  0
  8 10  1  0  0  0  0
  9 10  1  0  0  0  0
 10  7  1  1  0  0  0
 12 11  1  0  0  0  0
 12 14  1  0  0  0  0
 14 13  2  0  0  0  0
 16 13  1  1  0  0  0
 16 21  1  0  0  0  0
 16 20  1  0  0  0  0
 18 23  1  1  0  0  0
 19 15  1  6  0  0  0
 19 18  1  0  0  0  0
 20 17  1  6  0  0  0
 20 19  1  0  0  0  0
 21 18  1  0  0  0  0
 23 22  1  0  0  0  0
 24  5  1  0  0  0  0
 24 39  1  6  0  0  0
 25 35  1  6  0  0  0
 25 31  1  0  0  0  0
 26 36  1  6  0  0  0
 26 25  1  0  0  0  0
 26 31  1  0  0  0  0
 27 29  1  0  0  0  0
 27 33  2  0  0  0  0
 28 34  1  6  0  0  0
 28 35  1  0  0  0  0
 29 24  1  0  0  0  0
 30 26  1  0  0  0  0
 31 27  1  0  0  0  0
 32 28  1  0  0  0  0
 32 30  1  0  0  0  0
 36 37  1  0  0  0  0
 38 39  1  0  0  0  0
M  END
>  <MODEL>
8

>  <REMARK>
 VINA RESULT:      -6.5      2.961      7.628
  Name = 
  11 active torsions:
  status: ('A' for Active; 'I' for Inactive)
    1  A    between atoms: C_1  and  C_11
    2  A    between atoms: C_1  and  C_29
    3  A    between atoms: C_2  and  C_21
    4  A    between atoms: C_4  and  C_19
    5  A    between atoms: C_6  and  C_9
    6  A    between atoms: N_7  and  C_35
    7  A    between atoms: C_13  and  C_32
    8  A    between atoms: N_16  and  CA_17
    9  A    between atoms: CA_17  and  C_31
   10  A    between atoms: CA_17  and  C_36
   11  A    between atoms: C_21  and  C_35
                            x       y       z     vdW  Elec       q    Type
                         _______ _______ _______ _____ _____    ______ ____

>  <TORSDO>
F 11

$$$$
=
 OpenBabel11072409273D

 39 43  0  0  1  0  0  0  0  0999 V2000
  189.4910  177.1110  142.6500 C   0  0  0  0  0  3  0  0  0  0  0  0
  187.1100  176.9830  143.0970 C   0  0  0  0  0  0  0  0  0  0  0  0
  187.0620  175.7400  142.4570 C   0  0  0  0  0  3  0  0  0  0  0  0
  188.3300  177.6680  143.1830 C   0  0  0  0  0  3  0  0  0  0  0  0
  188.2280  175.1830  141.9100 C   0  0  0  0  0  0  0  0  0  0  0  0
  189.4420  175.8700  142.0090 C   0  0  0  0  0  3  0  0  0  0  0  0
  185.8620  177.5770  143.6820 C   0  0  0  0  0  2  0  0  0  0  0  0
  186.2350  176.7760  145.9900 C   0  0  1  0  0  3  0  0  0  0  0  0
  184.9190  177.5280  145.9610 C   0  0  0  0  0  2  0  0  0  0  0  0
  186.0840  178.0020  145.1230 C   0  0  2  0  0  3  0  0  0  0  0  0
  187.0010  177.1290  147.2580 C   0  0  0  0  0  2  0  0  0  0  0  0
  188.4230  177.5380  146.8930 C   0  0  0  0  0  2  0  0  0  0  0  0
  190.4460  176.4960  146.3210 C   0  0  0  0  0  3  0  0  0  0  0  0
  189.2340  176.3720  146.7170 N   0  0  0  0  0  0  0  0  0  0  0  0
  193.7740  173.5910  145.9510 O   0  0  0  0  0  1  0  0  0  0  0  0
  191.3330  175.3010  146.1310 C   0  0  2  0  0  3  0  0  0  0  0  0
  193.5900  176.3300  146.5200 C   0  0  0  0  0  1  0  0  0  0  0  0
  192.1210  173.6450  144.2390 C   0  0  1  0  0  3  0  0  0  0  0  0
  193.2550  174.3950  144.9310 C   0  0  1  0  0  3  0  0  0  0  0  0
  192.6650  175.6680  145.5080 C   0  0  1  0  0  3  0  0  0  0  0  0
  190.5410  174.0680  145.0500 S   0  0  0  0  0  0  0  0  0  0  0  0
  192.4440  172.9890  141.9690 O   0  0  0  0  0  1  0  0  0  0  0  0
  192.0520  174.0510  142.7810 C   0  0  0  0  0  2  0  0  0  0  0  0
  188.1880  173.8760  141.1770 C   0  0  1  0  0  3  0  0  0  0  0  0
  191.1760  173.4360  136.8110 C   0  0  1  0  0  3  0  0  0  0  0  0
  191.8930  173.2950  137.9970 C   0  0  1  0  0  0  0  0  0  0  0  0
  189.2630  173.7950  138.8860 C   0  0  0  0  0  0  0  0  0  0  0  0
  192.5710  175.6080  136.3880 C   0  0  1  0  0  3  0  0  0  0  0  0
  189.3500  173.7280  140.3100 N   0  0  0  0  0  2  0  0  0  0  0  0
  192.7000  174.4120  138.4920 N   0  0  0  0  0  2  0  0  0  0  0  0
  190.4350  173.5820  138.1120 N   0  0  0  0  0  0  0  0  0  0  0  0
  193.4980  174.9070  137.3770 C   0  0  0  0  0  2  0  0  0  0  0  0
  188.1580  173.9700  138.3140 O   0  0  0  0  0  0  0  0  0  0  0  0
  193.3140  175.8770  135.0960 C   0  0  0  0  0  1  0  0  0  0  0  0
  191.2880  174.8040  136.1090 C   0  0  0  0  0  2  0  0  0  0  0  0
  192.2640  171.9010  138.4570 C   0  0  0  0  0  2  0  0  0  0  0  0
  192.4690  171.0700  137.3540 O   0  0  0  0  0  1  0  0  0  0  0  0
  189.3030  171.9580  142.0520 O   0  0  0  0  0  1  0  0  0  0  0  0
  188.1350  172.7210  142.1620 C   0  0  0  0  0  2  0  0  0  0  0  0
  1  4  1  0  0  0  0
  2  4  2  0  0  0  0
  2  7  1  0  0  0  0
  3  2  1  0  0  0  0
  5  6  1  0  0  0  0
  5  3  2  0  0  0  0
  6  1  2  0  0  0  0
  8 11  1  1  0  0  0
  9  8  1  0  0  0  0
 10  7  1  6  0  0  0
 10  9  1  0  0  0  0
 10  8  1  0  0  0  0
 12 11  1  0  0  0  0
 13 14  2  0  0  0  0
 14 12  1  0  0  0  0
 16 13  1  6  0  0  0
 18 23  1  6  0  0  0
 18 19  1  0  0  0  0
 18 21  1  0  0  0  0
 19 20  1  0  0  0  0
 19 15  1  1  0  0  0
 20 16  1  0  0  0  0
 20 17  1  1  0  0  0
 21 16  1  0  0  0  0
 22 23  1  0  0  0  0
 24  5  1  0  0  0  0
 24 39  1  1  0  0  0
 25 35  1  6  0  0  0
 25 26  1  0  0  0  0
 25 31  1  0  0  0  0
 26 31  1  0  0  0  0
 26 36  1  1  0  0  0
 26 30  1  0  0  0  0
 27 29  1  0  0  0  0
 28 34  1  6  0  0  0
 28 32  1  0  0  0  0
 29 24  1  0  0  0  0
 31 27  1  0  0  0  0
 32 30  1  0  0  0  0
 33 27  2  0  0  0  0
 35 28  1  0  0  0  0
 37 36  1  0  0  0  0
 38 39  1  0  0  0  0
M  END
>  <MODEL>
9

>  <REMARK>
 VINA RESULT:      -6.4      3.032      4.870
  Name = 
  11 active torsions:
  status: ('A' for Active; 'I' for Inactive)
    1  A    between atoms: C_1  and  C_11
    2  A    between atoms: C_1  and  C_29
    3  A    between atoms: C_2  and  C_21
    4  A    between atoms: C_4  and  C_19
    5  A    between atoms: C_6  and  C_9
    6  A    between atoms: N_7  and  C_35
    7  A    between atoms: C_13  and  C_32
    8  A    between atoms: N_16  and  CA_17
    9  A    between atoms: CA_17  and  C_31
   10  A    between atoms: CA_17  and  C_36
   11  A    between atoms: C_21  and  C_35
                            x       y       z     vdW  Elec       q    Type
                         _______ _______ _______ _____ _____    ______ ____

>  <TORSDO>
F 11

$$$$
