=
 OpenBabel11062421593D

 35 39  0  0  1  0  0  0  0  0999 V2000
  187.7720  175.3970  143.1310 C   0  0  0  0  0  1  0  0  0  0  0  0
  189.1300  174.2330  139.9710 C   0  0  0  0  0  0  0  0  0  0  0  0
  186.2120  177.2670  142.6060 C   0  0  0  0  0  0  0  0  0  0  0  0
  185.7440  177.3020  144.0300 C   0  0  0  0  0  2  0  0  0  0  0  0
  191.0630  175.5950  143.9730 C   0  0  0  0  0  2  0  0  0  0  0  0
  186.7540  176.7780  139.9050 N   0  0  0  0  0  0  0  0  0  0  0  0
  185.9330  177.9400  140.2480 C   0  0  0  0  0  2  0  0  0  0  0  0
  189.0350  178.4830  147.6260 O   0  0  0  0  0  0  0  0  0  0  0  0
  188.6640  177.5950  142.4290 C   0  0  0  0  0  1  0  0  0  0  0  0
  188.5700  177.6580  146.8550 C   0  0  0  0  0  0  0  0  0  0  0  0
  187.1130  177.3030  146.9520 C   0  0  2  0  0  3  0  0  0  0  0  0
  189.4480  177.0500  145.8060 C   0  0  0  0  0  2  0  0  0  0  0  0
  188.3820  175.1160  140.3080 C   0  0  0  0  0  0  0  0  0  0  0  0
  190.8790  174.0930  143.8640 C   0  0  2  0  0  3  0  0  0  0  0  0
  186.3770  178.4740  144.7690 C   0  0  0  0  0  2  0  0  0  0  0  0
  191.2200  173.9450  145.3360 C   0  0  2  0  0  3  0  0  0  0  0  0
  186.8640  176.0310  146.4280 O   0  0  0  0  0  1  0  0  0  0  0  0
  192.9350  173.8730  140.7460 C   0  0  0  0  0  1  0  0  0  0  0  0
  187.5300  176.6040  142.2280 C   0  0  0  0  0  0  0  0  0  0  0  0
  186.2270  178.3740  146.2960 C   0  0  1  0  0  3  0  0  0  0  0  0
  191.6400  173.7140  141.5200 C   0  0  1  0  0  3  0  0  0  0  0  0
  187.5110  176.1700  140.7700 C   0  0  0  0  0  0  0  0  0  0  0  0
  190.7810  172.6120  140.8710 C   0  0  2  0  0  3  0  0  0  0  0  0
  190.2050  174.7150  146.1410 C   0  0  2  0  0  3  0  0  0  0  0  0
  185.4620  177.8700  141.6730 C   0  0  0  0  0  3  0  0  0  0  0  0
  191.9660  173.4780  142.9920 C   0  0  0  0  0  2  0  0  0  0  0  0
  191.4010  175.4330  145.4460 C   0  0  2  0  0  0  0  0  0  0  0  0
  190.5110  176.1590  146.4420 C   0  0  1  0  0  3  0  0  0  0  0  0
  190.0650  173.1510  139.6260 C   0  0  0  0  0  2  0  0  0  0  0  0
  184.7740  178.3380  146.7880 C   0  0  0  0  0  0  0  0  0  0  0  0
  184.2460  177.0640  146.6720 F   0  0  0  0  0  0  0  0  0  0  0  0
  184.7300  178.7230  148.1140 F   0  0  0  0  0  0  0  0  0  0  0  0
  184.0060  179.2160  146.0460 F   0  0  0  0  0  0  0  0  0  0  0  0
  190.1940  170.6550  142.1250 O   0  0  0  0  0  1  0  0  0  0  0  0
  189.7830  171.9540  141.8240 C   0  0  0  0  0  2  0  0  0  0  0  0
  2 13  3  0  0  0  0
  3  4  1  0  0  0  0
  4 15  1  0  0  0  0
  5 27  1  0  0  0  0
  6  7  1  0  0  0  0
  6 22  2  0  0  0  0
  7 25  1  0  0  0  0
 10 11  1  0  0  0  0
 10  8  2  0  0  0  0
 11 17  1  6  0  0  0
 12 28  1  0  0  0  0
 12 10  1  0  0  0  0
 13 22  1  0  0  0  0
 14 26  1  6  0  0  0
 14  5  1  0  0  0  0
 14 16  1  0  0  0  0
 15 20  1  0  0  0  0
 16 27  1  0  0  0  0
 16 24  1  0  0  0  0
 18 21  1  0  0  0  0
 19  9  1  0  0  0  0
 19  3  1  0  0  0  0
 19  1  1  0  0  0  0
 20 30  1  0  0  0  0
 20 11  1  0  0  0  0
 21 26  1  0  0  0  0
 22 19  1  0  0  0  0
 23 21  1  0  0  0  0
 23 35  1  0  0  0  0
 24 28  1  0  0  0  0
 25  3  2  0  0  0  0
 27 24  1  0  0  0  0
 27 28  1  0  0  0  0
 29  2  1  0  0  0  0
 29 23  1  0  0  0  0
 30 32  1  0  0  0  0
 31 30  1  0  0  0  0
 33 30  1  0  0  0  0
 35 34  1  0  0  0  0
M  END
>  <MODEL>
1

>  <REMARK>
 VINA RESULT:      -9.2      0.000      0.000
  Name = 
  2 active torsions:
  status: ('A' for Active; 'I' for Inactive)
    1  A    between atoms: C_2  and  C_24
    2  A    between atoms: C_22  and  C_27
                            x       y       z     vdW  Elec       q    Type
                         _______ _______ _______ _____ _____    ______ ____

>  <TORSDO>
F 2

$$$$
=
 OpenBabel11062421593D

 35 39  0  0  1  0  0  0  0  0999 V2000
  188.8040  175.1670  144.1740 C   0  0  0  0  0  1  0  0  0  0  0  0
  190.8960  173.8250  141.5280 C   0  0  0  0  0  0  0  0  0  0  0  0
  187.0650  176.5770  143.0810 C   0  0  0  0  0  0  0  0  0  0  0  0
  186.3470  176.7370  144.3870 C   0  0  0  0  0  2  0  0  0  0  0  0
  191.8010  176.1550  145.4460 C   0  0  0  0  0  2  0  0  0  0  0  0
  188.1670  175.7940  140.6310 N   0  0  0  0  0  0  0  0  0  0  0  0
  187.1090  176.8050  140.6240 C   0  0  0  0  0  2  0  0  0  0  0  0
  188.6710  179.1050  148.1490 O   0  0  0  0  0  0  0  0  0  0  0  0
  189.4130  177.3630  143.2150 C   0  0  0  0  0  1  0  0  0  0  0  0
  188.5040  178.0930  147.4850 C   0  0  0  0  0  0  0  0  0  0  0  0
  187.1390  177.4700  147.4280 C   0  0  2  0  0  3  0  0  0  0  0  0
  189.6510  177.5210  146.7120 C   0  0  0  0  0  2  0  0  0  0  0  0
  189.9580  174.5790  141.5780 C   0  0  0  0  0  0  0  0  0  0  0  0
  191.9030  174.6490  145.5950 C   0  0  2  0  0  3  0  0  0  0  0  0
  186.6210  178.1130  144.9800 C   0  0  0  0  0  2  0  0  0  0  0  0
  191.9910  174.8050  147.1020 C   0  0  2  0  0  3  0  0  0  0  0  0
  187.2140  176.1080  147.1210 O   0  0  0  0  0  1  0  0  0  0  0  0
  194.5000  174.3690  142.9160 C   0  0  0  0  0  1  0  0  0  0  0  0
  188.5250  176.1440  143.0350 C   0  0  0  0  0  0  0  0  0  0  0  0
  186.2150  178.2240  146.4590 C   0  0  1  0  0  3  0  0  0  0  0  0
  193.1330  174.0730  143.5040 C   0  0  1  0  0  3  0  0  0  0  0  0
  188.8480  175.4940  141.6980 C   0  0  0  0  0  0  0  0  0  0  0  0
  192.6110  172.7330  142.9520 C   0  0  2  0  0  3  0  0  0  0  0  0
  190.7280  175.4680  147.5880 C   0  0  2  0  0  3  0  0  0  0  0  0
  186.4050  176.8630  141.9500 C   0  0  0  0  0  3  0  0  0  0  0  0
  193.2210  174.1400  145.0250 C   0  0  0  0  0  2  0  0  0  0  0  0
  191.8880  176.2970  146.9570 C   0  0  2  0  0  0  0  0  0  0  0  0
  190.7180  176.9730  147.6560 C   0  0  1  0  0  3  0  0  0  0  0  0
  192.0520  172.9150  141.5350 C   0  0  0  0  0  2  0  0  0  0  0  0
  184.7250  177.9710  146.7250 C   0  0  0  0  0  0  0  0  0  0  0  0
  184.4440  176.6160  146.7100 F   0  0  0  0  0  0  0  0  0  0  0  0
  184.3880  178.4850  147.9640 F   0  0  0  0  0  0  0  0  0  0  0  0
  183.9620  178.6040  145.7620 F   0  0  0  0  0  0  0  0  0  0  0  0
  192.0550  170.7850  144.2350 O   0  0  0  0  0  1  0  0  0  0  0  0
  191.5860  172.0420  143.8520 C   0  0  0  0  0  2  0  0  0  0  0  0
  2 29  1  0  0  0  0
  2 13  3  0  0  0  0
  3  4  1  0  0  0  0
  4 15  1  0  0  0  0
  5 14  1  0  0  0  0
  5 27  1  0  0  0  0
  6 22  2  0  0  0  0
  7  6  1  0  0  0  0
  7 25  1  0  0  0  0
 10  8  2  0  0  0  0
 11 17  1  6  0  0  0
 11 10  1  0  0  0  0
 12 10  1  0  0  0  0
 12 28  1  0  0  0  0
 13 22  1  0  0  0  0
 14 26  1  6  0  0  0
 14 16  1  0  0  0  0
 15 20  1  0  0  0  0
 16 24  1  0  0  0  0
 18 21  1  0  0  0  0
 19  3  1  0  0  0  0
 19  9  1  0  0  0  0
 19  1  1  0  0  0  0
 20 30  1  0  0  0  0
 20 11  1  0  0  0  0
 21 26  1  0  0  0  0
 22 19  1  0  0  0  0
 23 21  1  0  0  0  0
 23 35  1  0  0  0  0
 24 28  1  0  0  0  0
 25  3  2  0  0  0  0
 27 16  1  0  0  0  0
 27 24  1  0  0  0  0
 27 28  1  0  0  0  0
 29 23  1  0  0  0  0
 30 32  1  0  0  0  0
 31 30  1  0  0  0  0
 33 30  1  0  0  0  0
 35 34  1  0  0  0  0
M  END
>  <MODEL>
2

>  <REMARK>
 VINA RESULT:      -9.2      1.321      1.727
  Name = 
  2 active torsions:
  status: ('A' for Active; 'I' for Inactive)
    1  A    between atoms: C_2  and  C_24
    2  A    between atoms: C_22  and  C_27
                            x       y       z     vdW  Elec       q    Type
                         _______ _______ _______ _____ _____    ______ ____

>  <TORSDO>
F 2

$$$$
=
 OpenBabel11062421593D

 35 39  0  0  1  0  0  0  0  0999 V2000
  191.7360  176.1020  144.3050 C   0  0  0  0  0  1  0  0  0  0  0  0
  194.7640  175.2910  146.1380 C   0  0  0  0  0  0  0  0  0  0  0  0
  190.1150  177.0270  145.9550 C   0  0  0  0  0  0  0  0  0  0  0  0
  189.1770  177.4070  144.8490 C   0  0  0  0  0  2  0  0  0  0  0  0
  192.0340  172.8820  143.2490 C   0  0  0  0  0  2  0  0  0  0  0  0
  192.1320  176.7660  147.8760 N   0  0  0  0  0  0  0  0  0  0  0  0
  190.7980  177.1740  148.3210 C   0  0  0  0  0  2  0  0  0  0  0  0
  187.1900  173.7790  142.0130 O   0  0  0  0  0  0  0  0  0  0  0  0
  190.6350  174.6030  145.9350 C   0  0  0  0  0  1  0  0  0  0  0  0
  188.1340  174.5050  142.2830 C   0  0  0  0  0  0  0  0  0  0  0  0
  187.9560  175.9950  142.2170 C   0  0  2  0  0  3  0  0  0  0  0  0
  189.4320  173.8980  142.7150 C   0  0  0  0  0  2  0  0  0  0  0  0
  193.6750  175.7160  146.4290 C   0  0  0  0  0  0  0  0  0  0  0  0
  193.2280  173.5240  142.5670 C   0  0  2  0  0  3  0  0  0  0  0  0
  188.0240  176.4160  144.7650 C   0  0  0  0  0  2  0  0  0  0  0  0
  192.6320  173.1890  141.2110 C   0  0  2  0  0  3  0  0  0  0  0  0
  189.1770  176.6440  142.0130 O   0  0  0  0  0  1  0  0  0  0  0  0
  195.6810  171.7560  144.7690 C   0  0  0  0  0  1  0  0  0  0  0  0
  191.2120  175.9940  145.7350 C   0  0  0  0  0  0  0  0  0  0  0  0
  187.2240  176.5320  143.4570 C   0  0  1  0  0  3  0  0  0  0  0  0
  195.0220  173.0060  144.2180 C   0  0  1  0  0  3  0  0  0  0  0  0
  192.3480  176.2010  146.7250 C   0  0  0  0  0  0  0  0  0  0  0  0
  196.0090  174.1870  144.2950 C   0  0  2  0  0  3  0  0  0  0  0  0
  191.3010  173.8860  141.0890 C   0  0  2  0  0  3  0  0  0  0  0  0
  189.9420  177.5890  147.1590 C   0  0  0  0  0  3  0  0  0  0  0  0
  194.4930  172.7140  142.8180 C   0  0  0  0  0  2  0  0  0  0  0  0
  191.4490  172.5540  141.8840 C   0  0  2  0  0  0  0  0  0  0  0  0
  190.0820  173.1390  141.5610 C   0  0  1  0  0  3  0  0  0  0  0  0
  196.0660  174.7490  145.7210 C   0  0  0  0  0  2  0  0  0  0  0  0
  186.5790  177.9040  143.2300 C   0  0  0  0  0  0  0  0  0  0  0  0
  187.3630  178.6860  142.3980 F   0  0  0  0  0  0  0  0  0  0  0  0
  185.3370  177.7360  142.6470 F   0  0  0  0  0  0  0  0  0  0  0  0
  186.4150  178.5530  144.4400 F   0  0  0  0  0  0  0  0  0  0  0  0
  196.7000  176.2980  143.3910 O   0  0  0  0  0  1  0  0  0  0  0  0
  195.7280  175.3030  143.2870 C   0  0  0  0  0  2  0  0  0  0  0  0
  1 19  1  0  0  0  0
  2 13  3  0  0  0  0
  3 25  2  0  0  0  0
  4  3  1  0  0  0  0
  6  7  1  0  0  0  0
  8 10  2  0  0  0  0
 10 12  1  0  0  0  0
 11 17  1  1  0  0  0
 11 10  1  0  0  0  0
 11 20  1  0  0  0  0
 13 22  1  0  0  0  0
 14 26  1  1  0  0  0
 14  5  1  0  0  0  0
 15  4  1  0  0  0  0
 16 27  1  0  0  0  0
 16 14  1  0  0  0  0
 19  9  1  0  0  0  0
 19  3  1  0  0  0  0
 19 22  1  0  0  0  0
 20 15  1  0  0  0  0
 21 23  1  0  0  0  0
 21 18  1  0  0  0  0
 22  6  2  0  0  0  0
 23 29  1  0  0  0  0
 24 16  1  0  0  0  0
 24 28  1  0  0  0  0
 24 27  1  0  0  0  0
 25  7  1  0  0  0  0
 26 21  1  0  0  0  0
 27  5  1  0  0  0  0
 28 27  1  0  0  0  0
 28 12  1  0  0  0  0
 29  2  1  0  0  0  0
 30 20  1  0  0  0  0
 30 33  1  0  0  0  0
 31 30  1  0  0  0  0
 32 30  1  0  0  0  0
 35 34  1  0  0  0  0
 35 23  1  0  0  0  0
M  END
>  <MODEL>
3

>  <REMARK>
 VINA RESULT:      -8.4      3.402      5.887
  Name = 
  2 active torsions:
  status: ('A' for Active; 'I' for Inactive)
    1  A    between atoms: C_2  and  C_24
    2  A    between atoms: C_22  and  C_27
                            x       y       z     vdW  Elec       q    Type
                         _______ _______ _______ _____ _____    ______ ____

>  <TORSDO>
F 2

$$$$
=
 OpenBabel11062421593D

 35 39  0  0  1  0  0  0  0  0999 V2000
  189.9510  175.7630  142.9960 C   0  0  0  0  0  1  0  0  0  0  0  0
  186.3460  176.0980  142.7290 C   0  0  0  0  0  0  0  0  0  0  0  0
  190.6300  173.9480  141.4300 C   0  0  0  0  0  0  0  0  0  0  0  0
  192.0770  174.2630  141.6620 C   0  0  0  0  0  2  0  0  0  0  0  0
  189.2440  175.5050  146.3140 C   0  0  0  0  0  2  0  0  0  0  0  0
  187.9420  173.7890  140.6680 N   0  0  0  0  0  0  0  0  0  0  0  0
  188.8760  172.7970  140.1320 C   0  0  0  0  0  2  0  0  0  0  0  0
  193.9740  173.6530  146.2650 O   0  0  0  0  0  0  0  0  0  0  0  0
  189.4510  173.4040  143.5420 C   0  0  0  0  0  1  0  0  0  0  0  0
  193.3280  174.3220  145.4730 C   0  0  0  0  0  0  0  0  0  0  0  0
  193.9840  174.7990  144.2090 C   0  0  2  0  0  3  0  0  0  0  0  0
  191.8880  174.6150  145.7580 C   0  0  0  0  0  2  0  0  0  0  0  0
  187.1760  175.3710  142.2460 C   0  0  0  0  0  0  0  0  0  0  0  0
  188.8880  176.9560  146.0510 C   0  0  2  0  0  3  0  0  0  0  0  0
  192.7010  173.2370  142.6000 C   0  0  0  0  0  2  0  0  0  0  0  0
  189.9710  177.3970  147.0190 C   0  0  2  0  0  3  0  0  0  0  0  0
  193.3510  175.9410  143.7080 O   0  0  0  0  0  1  0  0  0  0  0  0
  185.2220  176.3280  146.4560 C   0  0  0  0  0  1  0  0  0  0  0  0
  189.5580  174.4100  142.4090 C   0  0  0  0  0  0  0  0  0  0  0  0
  194.0630  173.6820  143.1570 C   0  0  1  0  0  3  0  0  0  0  0  0
  186.4360  176.7510  145.6510 C   0  0  1  0  0  3  0  0  0  0  0  0
  188.2080  174.5130  141.7150 C   0  0  0  0  0  0  0  0  0  0  0  0
  186.0070  177.7460  144.5550 C   0  0  2  0  0  3  0  0  0  0  0  0
  191.2990  176.9020  146.5070 C   0  0  2  0  0  3  0  0  0  0  0  0
  190.3000  173.2140  140.3580 C   0  0  0  0  0  3  0  0  0  0  0  0
  187.5050  177.2790  146.6020 C   0  0  0  0  0  2  0  0  0  0  0  0
  190.3270  175.9600  147.2800 C   0  0  2  0  0  0  0  0  0  0  0  0
  191.7540  175.5410  146.9640 C   0  0  1  0  0  3  0  0  0  0  0  0
  185.3790  177.0030  143.3690 C   0  0  0  0  0  2  0  0  0  0  0  0
  195.1320  173.9350  142.0870 C   0  0  0  0  0  0  0  0  0  0  0  0
  194.9960  175.2010  141.5450 F   0  0  0  0  0  0  0  0  0  0  0  0
  196.3860  173.8230  142.6560 F   0  0  0  0  0  0  0  0  0  0  0  0
  195.0190  172.9960  141.0790 F   0  0  0  0  0  0  0  0  0  0  0  0
  186.6910  179.4320  142.9930 O   0  0  0  0  0  1  0  0  0  0  0  0
  187.1270  178.6720  144.0790 C   0  0  0  0  0  2  0  0  0  0  0  0
  2 29  1  0  0  0  0
  3  4  1  0  0  0  0
  3 19  1  0  0  0  0
  4 15  1  0  0  0  0
  5 27  1  0  0  0  0
  6 22  2  0  0  0  0
  7 25  1  0  0  0  0
  7  6  1  0  0  0  0
 10 12  1  0  0  0  0
 10  8  2  0  0  0  0
 11 17  1  6  0  0  0
 11 10  1  0  0  0  0
 12 28  1  0  0  0  0
 13  2  3  0  0  0  0
 14  5  1  1  0  0  0
 14 26  1  0  0  0  0
 14 16  1  0  0  0  0
 15 20  1  0  0  0  0
 16 27  1  0  0  0  0
 19  1  1  0  0  0  0
 19  9  1  0  0  0  0
 20 11  1  0  0  0  0
 21 18  1  0  0  0  0
 21 26  1  0  0  0  0
 22 13  1  0  0  0  0
 22 19  1  0  0  0  0
 23 21  1  0  0  0  0
 24 28  1  0  0  0  0
 24 16  1  0  0  0  0
 24 27  1  0  0  0  0
 25  3  2  0  0  0  0
 28 27  1  0  0  0  0
 29 23  1  0  0  0  0
 30 32  1  0  0  0  0
 30 20  1  0  0  0  0
 31 30  1  0  0  0  0
 33 30  1  0  0  0  0
 34 35  1  0  0  0  0
 35 23  1  0  0  0  0
M  END
>  <MODEL>
4

>  <REMARK>
 VINA RESULT:      -7.9      4.337      7.167
  Name = 
  2 active torsions:
  status: ('A' for Active; 'I' for Inactive)
    1  A    between atoms: C_2  and  C_24
    2  A    between atoms: C_22  and  C_27
                            x       y       z     vdW  Elec       q    Type
                         _______ _______ _______ _____ _____    ______ ____

>  <TORSDO>
F 2

$$$$
=
 OpenBabel11062421593D

 35 39  0  0  1  0  0  0  0  0999 V2000
  192.3680  175.5710  142.4800 C   0  0  0  0  0  1  0  0  0  0  0  0
  188.9270  175.1450  143.5600 C   0  0  0  0  0  0  0  0  0  0  0  0
  192.6680  174.1710  140.4420 C   0  0  0  0  0  0  0  0  0  0  0  0
  194.0270  174.7600  140.2140 C   0  0  0  0  0  2  0  0  0  0  0  0
  193.0270  174.7280  145.7100 C   0  0  0  0  0  2  0  0  0  0  0  0
  189.9510  173.5330  140.6480 N   0  0  0  0  0  0  0  0  0  0  0  0
  190.7500  172.8480  139.6300 C   0  0  0  0  0  2  0  0  0  0  0  0
  197.6040  173.9740  143.6420 O   0  0  0  0  0  0  0  0  0  0  0  0
  192.4810  173.1080  142.6740 C   0  0  0  0  0  1  0  0  0  0  0  0
  196.6110  174.5850  143.2780 C   0  0  0  0  0  0  0  0  0  0  0  0
  196.6540  175.3570  141.9910 C   0  0  2  0  0  3  0  0  0  0  0  0
  195.3620  174.5170  144.1000 C   0  0  0  0  0  2  0  0  0  0  0  0
  189.6120  174.6860  142.6810 C   0  0  0  0  0  0  0  0  0  0  0  0
  192.3790  176.0880  145.8900 C   0  0  2  0  0  3  0  0  0  0  0  0
  195.1100  173.7800  140.6470 C   0  0  0  0  0  2  0  0  0  0  0  0
  193.6680  176.6220  146.4880 C   0  0  2  0  0  3  0  0  0  0  0  0
  195.7120  176.3890  141.9840 O   0  0  0  0  0  1  0  0  0  0  0  0
  189.2870  174.6290  147.4090 C   0  0  0  0  0  1  0  0  0  0  0  0
  191.9930  174.2540  141.8050 C   0  0  0  0  0  0  0  0  0  0  0  0
  196.4970  174.4320  140.7730 C   0  0  1  0  0  3  0  0  0  0  0  0
  190.0220  175.4090  146.3350 C   0  0  1  0  0  3  0  0  0  0  0  0
  190.4820  174.1520  141.6610 C   0  0  0  0  0  0  0  0  0  0  0  0
  189.0610  176.4230  145.6840 C   0  0  2  0  0  3  0  0  0  0  0  0
  194.7600  176.5010  145.4570 C   0  0  2  0  0  3  0  0  0  0  0  0
  192.0710  173.5310  139.4260 C   0  0  0  0  0  3  0  0  0  0  0  0
  191.2780  176.0270  146.9410 C   0  0  0  0  0  2  0  0  0  0  0  0
  194.3120  175.2760  146.3100 C   0  0  2  0  0  0  0  0  0  0  0  0
  195.5570  175.2240  145.4380 C   0  0  1  0  0  3  0  0  0  0  0  0
  188.1500  175.7240  144.6670 C   0  0  0  0  0  2  0  0  0  0  0  0
  197.0250  175.0520  139.4730 C   0  0  0  0  0  0  0  0  0  0  0  0
  197.9410  176.0540  139.7410 F   0  0  0  0  0  0  0  0  0  0  0  0
  197.6410  174.0730  138.7160 F   0  0  0  0  0  0  0  0  0  0  0  0
  195.9750  175.5800  138.7440 F   0  0  0  0  0  0  0  0  0  0  0  0
  188.8840  178.2850  144.1840 O   0  0  0  0  0  1  0  0  0  0  0  0
  189.7590  177.6250  145.0470 C   0  0  0  0  0  2  0  0  0  0  0  0
  2 29  1  0  0  0  0
  3 19  1  0  0  0  0
  4  3  1  0  0  0  0
  4 15  1  0  0  0  0
  5 27  1  0  0  0  0
  6 22  2  0  0  0  0
  7  6  1  0  0  0  0
 10  8  2  0  0  0  0
 10 12  1  0  0  0  0
 11 17  1  1  0  0  0
 11 10  1  0  0  0  0
 12 28  1  0  0  0  0
 13  2  3  0  0  0  0
 14  5  1  1  0  0  0
 14 16  1  0  0  0  0
 14 26  1  0  0  0  0
 15 20  1  0  0  0  0
 19  1  1  0  0  0  0
 19  9  1  0  0  0  0
 20 11  1  0  0  0  0
 21 26  1  0  0  0  0
 21 18  1  0  0  0  0
 22 19  1  0  0  0  0
 22 13  1  0  0  0  0
 23 21  1  0  0  0  0
 24 27  1  0  0  0  0
 24 16  1  0  0  0  0
 25  7  1  0  0  0  0
 25  3  2  0  0  0  0
 27 16  1  0  0  0  0
 28 24  1  0  0  0  0
 28 27  1  0  0  0  0
 29 23  1  0  0  0  0
 30 31  1  0  0  0  0
 30 20  1  0  0  0  0
 32 30  1  0  0  0  0
 33 30  1  0  0  0  0
 34 35  1  0  0  0  0
 35 23  1  0  0  0  0
M  END
>  <MODEL>
5

>  <REMARK>
 VINA RESULT:      -7.7      5.403      8.366
  Name = 
  2 active torsions:
  status: ('A' for Active; 'I' for Inactive)
    1  A    between atoms: C_2  and  C_24
    2  A    between atoms: C_22  and  C_27
                            x       y       z     vdW  Elec       q    Type
                         _______ _______ _______ _____ _____    ______ ____

>  <TORSDO>
F 2

$$$$
=
 OpenBabel11062421593D

 35 39  0  0  1  0  0  0  0  0999 V2000
  191.6480  173.3320  143.9300 C   0  0  0  0  0  1  0  0  0  0  0  0
  193.7720  170.5680  142.9140 C   0  0  0  0  0  0  0  0  0  0  0  0
  189.8130  173.4920  142.2520 C   0  0  0  0  0  0  0  0  0  0  0  0
  189.1080  174.5130  143.0930 C   0  0  0  0  0  2  0  0  0  0  0  0
  194.6020  175.0190  143.9630 C   0  0  0  0  0  2  0  0  0  0  0  0
  190.9190  171.2310  141.0300 N   0  0  0  0  0  0  0  0  0  0  0  0
  189.8040  171.9040  140.3630 C   0  0  0  0  0  2  0  0  0  0  0  0
  191.3500  178.9210  143.9310 O   0  0  0  0  0  0  0  0  0  0  0  0
  192.1130  174.2080  141.6640 C   0  0  0  0  0  1  0  0  0  0  0  0
  191.2320  177.7330  144.1920 C   0  0  0  0  0  0  0  0  0  0  0  0
  189.9040  177.2150  144.6660 C   0  0  2  0  0  3  0  0  0  0  0  0
  192.3970  176.8150  143.9960 C   0  0  0  0  0  2  0  0  0  0  0  0
  192.7930  171.1050  142.4630 C   0  0  0  0  0  0  0  0  0  0  0  0
  194.7940  174.0710  145.1320 C   0  0  2  0  0  3  0  0  0  0  0  0
  189.3110  175.9090  142.5180 C   0  0  0  0  0  2  0  0  0  0  0  0
  194.8970  175.2560  146.0750 C   0  0  2  0  0  3  0  0  0  0  0  0
  190.0530  176.0430  145.4140 O   0  0  0  0  0  1  0  0  0  0  0  0
  197.3600  172.0440  143.3140 C   0  0  0  0  0  1  0  0  0  0  0  0
  191.2950  173.1980  142.4510 C   0  0  0  0  0  0  0  0  0  0  0  0
  188.9220  177.0270  143.4990 C   0  0  1  0  0  3  0  0  0  0  0  0
  196.0220  172.2150  144.0080 C   0  0  1  0  0  3  0  0  0  0  0  0
  191.6340  171.8000  141.9570 C   0  0  0  0  0  0  0  0  0  0  0  0
  195.5710  170.8660  144.5990 C   0  0  2  0  0  3  0  0  0  0  0  0
  193.6050  176.0300  146.0110 C   0  0  2  0  0  3  0  0  0  0  0  0
  189.1190  172.8680  141.2900 C   0  0  0  0  0  3  0  0  0  0  0  0
  196.1300  173.3470  145.0240 C   0  0  0  0  0  2  0  0  0  0  0  0
  194.7050  176.1960  144.9190 C   0  0  2  0  0  0  0  0  0  0  0  0
  193.5090  177.1340  144.9910 C   0  0  1  0  0  3  0  0  0  0  0  0
  194.9790  169.9690  143.5050 C   0  0  0  0  0  2  0  0  0  0  0  0
  187.4550  176.9960  143.9440 C   0  0  0  0  0  0  0  0  0  0  0  0
  187.3030  176.2350  145.0900 F   0  0  0  0  0  0  0  0  0  0  0  0
  187.0270  178.2850  144.2020 F   0  0  0  0  0  0  0  0  0  0  0  0
  186.6700  176.4620  142.9380 F   0  0  0  0  0  0  0  0  0  0  0  0
  194.6210  169.8240  146.5400 O   0  0  0  0  0  1  0  0  0  0  0  0
  194.6020  170.9920  145.7760 C   0  0  0  0  0  2  0  0  0  0  0  0
  2 29  1  0  0  0  0
  3 19  1  0  0  0  0
  3  4  1  0  0  0  0
  5 27  1  0  0  0  0
  6 22  2  0  0  0  0
  7  6  1  0  0  0  0
  7 25  1  0  0  0  0
  8 10  2  0  0  0  0
  9 19  1  0  0  0  0
 10 11  1  0  0  0  0
 11 17  1  6  0  0  0
 12 10  1  0  0  0  0
 12 28  1  0  0  0  0
 13  2  3  0  0  0  0
 14  5  1  6  0  0  0
 14 16  1  0  0  0  0
 15  4  1  0  0  0  0
 15 20  1  0  0  0  0
 18 21  1  0  0  0  0
 19  1  1  0  0  0  0
 20 30  1  0  0  0  0
 20 11  1  0  0  0  0
 21 23  1  0  0  0  0
 21 26  1  0  0  0  0
 22 19  1  0  0  0  0
 22 13  1  0  0  0  0
 23 35  1  0  0  0  0
 24 16  1  0  0  0  0
 25  3  2  0  0  0  0
 26 14  1  0  0  0  0
 27 28  1  0  0  0  0
 27 24  1  0  0  0  0
 27 16  1  0  0  0  0
 28 24  1  0  0  0  0
 29 23  1  0  0  0  0
 30 32  1  0  0  0  0
 30 31  1  0  0  0  0
 33 30  1  0  0  0  0
 35 34  1  0  0  0  0
M  END
>  <MODEL>
6

>  <REMARK>
 VINA RESULT:      -7.6      3.420      5.041
  Name = 
  2 active torsions:
  status: ('A' for Active; 'I' for Inactive)
    1  A    between atoms: C_2  and  C_24
    2  A    between atoms: C_22  and  C_27
                            x       y       z     vdW  Elec       q    Type
                         _______ _______ _______ _____ _____    ______ ____

>  <TORSDO>
F 2

$$$$
=
 OpenBabel11062421593D

 35 39  0  0  1  0  0  0  0  0999 V2000
  189.0360  175.6090  145.6290 C   0  0  0  0  0  1  0  0  0  0  0  0
  187.2940  178.3520  147.2520 C   0  0  0  0  0  0  0  0  0  0  0  0
  191.3280  175.5280  146.6030 C   0  0  0  0  0  0  0  0  0  0  0  0
  191.6050  174.2380  145.8900 C   0  0  0  0  0  2  0  0  0  0  0  0
  188.0200  177.2110  142.8050 C   0  0  0  0  0  2  0  0  0  0  0  0
  190.5400  177.6230  148.2810 N   0  0  0  0  0  0  0  0  0  0  0  0
  191.9410  177.2000  148.3100 C   0  0  0  0  0  2  0  0  0  0  0  0
  191.6330  174.2060  140.8750 O   0  0  0  0  0  0  0  0  0  0  0  0
  190.7000  177.3380  145.0280 C   0  0  0  0  0  1  0  0  0  0  0  0
  191.0070  174.1970  141.9240 C   0  0  0  0  0  0  0  0  0  0  0  0
  191.2320  173.0800  142.9020 C   0  0  2  0  0  3  0  0  0  0  0  0
  190.0640  175.3180  142.2300 C   0  0  0  0  0  2  0  0  0  0  0  0
  188.4090  177.8960  147.3020 C   0  0  0  0  0  0  0  0  0  0  0  0
  186.6950  176.7170  143.3530 C   0  0  2  0  0  3  0  0  0  0  0  0
  192.4860  174.4820  144.6720 C   0  0  0  0  0  2  0  0  0  0  0  0
  186.5010  175.8630  142.1120 C   0  0  2  0  0  3  0  0  0  0  0  0
  190.1230  172.9030  143.7350 O   0  0  0  0  0  1  0  0  0  0  0  0
  185.5660  180.1650  144.2630 C   0  0  0  0  0  1  0  0  0  0  0  0
  190.1990  176.4470  146.1530 C   0  0  0  0  0  0  0  0  0  0  0  0
  192.5240  173.2860  143.7070 C   0  0  1  0  0  3  0  0  0  0  0  0
  185.9450  178.7370  144.6060 C   0  0  1  0  0  3  0  0  0  0  0  0
  189.7340  177.3260  147.3050 C   0  0  0  0  0  0  0  0  0  0  0  0
  185.2170  178.3050  145.8930 C   0  0  2  0  0  3  0  0  0  0  0  0
  187.6350  174.8730  142.0320 C   0  0  2  0  0  3  0  0  0  0  0  0
  192.1230  175.8760  147.6240 C   0  0  0  0  0  3  0  0  0  0  0  0
  185.6750  177.8470  143.3970 C   0  0  0  0  0  2  0  0  0  0  0  0
  187.8150  176.3500  141.5690 C   0  0  2  0  0  0  0  0  0  0  0  0
  188.8700  175.2930  141.2800 C   0  0  1  0  0  3  0  0  0  0  0  0
  185.9250  178.8740  147.1290 C   0  0  0  0  0  2  0  0  0  0  0  0
  193.0620  171.9900  144.3270 C   0  0  0  0  0  0  0  0  0  0  0  0
  192.0270  171.1250  144.6380 F   0  0  0  0  0  0  0  0  0  0  0  0
  193.9100  171.3700  143.4290 F   0  0  0  0  0  0  0  0  0  0  0  0
  193.7720  172.2790  145.4780 F   0  0  0  0  0  0  0  0  0  0  0  0
  184.4410  176.4910  147.2560 O   0  0  0  0  0  1  0  0  0  0  0  0
  185.0290  176.7930  146.0280 C   0  0  0  0  0  2  0  0  0  0  0  0
  1 19  1  0  0  0  0
  2 13  3  0  0  0  0
  3 25  2  0  0  0  0
  4  3  1  0  0  0  0
  6  7  1  0  0  0  0
  8 10  2  0  0  0  0
  9 19  1  0  0  0  0
 10 12  1  0  0  0  0
 10 11  1  0  0  0  0
 11 20  1  0  0  0  0
 11 17  1  1  0  0  0
 13 22  1  0  0  0  0
 14  5  1  6  0  0  0
 14 26  1  0  0  0  0
 15  4  1  0  0  0  0
 16 14  1  0  0  0  0
 18 21  1  0  0  0  0
 19  3  1  0  0  0  0
 19 22  1  0  0  0  0
 20 30  1  0  0  0  0
 20 15  1  0  0  0  0
 21 23  1  0  0  0  0
 22  6  2  0  0  0  0
 23 35  1  0  0  0  0
 23 29  1  0  0  0  0
 24 16  1  0  0  0  0
 25  7  1  0  0  0  0
 26 21  1  0  0  0  0
 27 24  1  0  0  0  0
 27 16  1  0  0  0  0
 27  5  1  0  0  0  0
 28 27  1  0  0  0  0
 28 24  1  0  0  0  0
 28 12  1  0  0  0  0
 29  2  1  0  0  0  0
 30 31  1  0  0  0  0
 30 33  1  0  0  0  0
 32 30  1  0  0  0  0
 35 34  1  0  0  0  0
M  END
>  <MODEL>
7

>  <REMARK>
 VINA RESULT:      -7.6      3.917      7.886
  Name = 
  2 active torsions:
  status: ('A' for Active; 'I' for Inactive)
    1  A    between atoms: C_2  and  C_24
    2  A    between atoms: C_22  and  C_27
                            x       y       z     vdW  Elec       q    Type
                         _______ _______ _______ _____ _____    ______ ____

>  <TORSDO>
F 2

$$$$
=
 OpenBabel11062421593D

 35 39  0  0  1  0  0  0  0  0999 V2000
  191.5000  174.2750  144.7350 C   0  0  0  0  0  1  0  0  0  0  0  0
  190.2220  177.6730  144.7820 C   0  0  0  0  0  0  0  0  0  0  0  0
  193.9360  174.4080  145.2400 C   0  0  0  0  0  0  0  0  0  0  0  0
  194.0160  172.9140  145.3380 C   0  0  0  0  0  2  0  0  0  0  0  0
  189.9980  174.2160  141.6820 C   0  0  0  0  0  2  0  0  0  0  0  0
  193.5790  177.1650  145.5550 N   0  0  0  0  0  0  0  0  0  0  0  0
  194.9410  176.6310  145.6100 C   0  0  0  0  0  2  0  0  0  0  0  0
  193.0370  170.1680  141.2570 O   0  0  0  0  0  0  0  0  0  0  0  0
  193.0720  175.1450  143.0350 C   0  0  0  0  0  1  0  0  0  0  0  0
  192.6340  170.8170  142.2100 C   0  0  0  0  0  0  0  0  0  0  0  0
  193.0090  170.3890  143.6000 C   0  0  2  0  0  3  0  0  0  0  0  0
  191.8140  172.0460  141.9720 C   0  0  0  0  0  2  0  0  0  0  0  0
  191.3060  177.1640  144.9140 C   0  0  0  0  0  0  0  0  0  0  0  0
  188.7920  174.2920  142.5990 C   0  0  2  0  0  3  0  0  0  0  0  0
  194.6440  172.3320  144.0780 C   0  0  0  0  0  2  0  0  0  0  0  0
  188.3220  172.9410  142.0920 C   0  0  2  0  0  3  0  0  0  0  0  0
  192.0840  170.8510  144.5410 O   0  0  0  0  0  1  0  0  0  0  0  0
  187.9980  177.8030  141.5810 C   0  0  0  0  0  1  0  0  0  0  0  0
  192.7750  175.0870  144.5240 C   0  0  0  0  0  0  0  0  0  0  0  0
  194.4440  170.8120  143.9530 C   0  0  1  0  0  3  0  0  0  0  0  0
  188.3840  176.7510  142.6030 C   0  0  1  0  0  3  0  0  0  0  0  0
  192.5830  176.5050  145.0420 C   0  0  0  0  0  0  0  0  0  0  0  0
  187.9140  177.1940  144.0020 C   0  0  2  0  0  3  0  0  0  0  0  0
  189.3790  171.9160  142.4140 C   0  0  2  0  0  3  0  0  0  0  0  0
  194.9310  175.1370  145.7630 C   0  0  0  0  0  3  0  0  0  0  0  0
  187.8440  175.3980  142.1530 C   0  0  0  0  0  2  0  0  0  0  0  0
  189.5170  172.8630  141.1840 C   0  0  2  0  0  0  0  0  0  0  0  0
  190.4530  171.6810  141.3850 C   0  0  1  0  0  3  0  0  0  0  0  0
  188.8760  178.2340  144.5900 C   0  0  0  0  0  2  0  0  0  0  0  0
  195.0470  169.9980  145.1050 C   0  0  0  0  0  0  0  0  0  0  0  0
  194.1910  169.9750  146.1930 F   0  0  0  0  0  0  0  0  0  0  0  0
  195.2690  168.7010  144.6820 F   0  0  0  0  0  0  0  0  0  0  0  0
  196.2540  170.5510  145.4890 F   0  0  0  0  0  0  0  0  0  0  0  0
  187.0680  176.5040  146.1380 O   0  0  0  0  0  1  0  0  0  0  0  0
  187.7010  176.0410  144.9840 C   0  0  0  0  0  2  0  0  0  0  0  0
  2 13  3  0  0  0  0
  3  4  1  0  0  0  0
  3 25  2  0  0  0  0
  6  7  1  0  0  0  0
  7 25  1  0  0  0  0
  8 10  2  0  0  0  0
  9 19  1  0  0  0  0
 10 11  1  0  0  0  0
 11 20  1  0  0  0  0
 11 17  1  1  0  0  0
 12 10  1  0  0  0  0
 13 22  1  0  0  0  0
 14  5  1  6  0  0  0
 15  4  1  0  0  0  0
 16 24  1  0  0  0  0
 16 14  1  0  0  0  0
 18 21  1  0  0  0  0
 19  1  1  0  0  0  0
 19 22  1  0  0  0  0
 19  3  1  0  0  0  0
 20 15  1  0  0  0  0
 20 30  1  0  0  0  0
 21 23  1  0  0  0  0
 22  6  2  0  0  0  0
 23 29  1  0  0  0  0
 23 35  1  0  0  0  0
 26 14  1  0  0  0  0
 26 21  1  0  0  0  0
 27 28  1  0  0  0  0
 27  5  1  0  0  0  0
 27 16  1  0  0  0  0
 27 24  1  0  0  0  0
 28 12  1  0  0  0  0
 28 24  1  0  0  0  0
 29  2  1  0  0  0  0
 30 33  1  0  0  0  0
 30 31  1  0  0  0  0
 32 30  1  0  0  0  0
 35 34  1  0  0  0  0
M  END
>  <MODEL>
8

>  <REMARK>
 VINA RESULT:      -7.4      4.736      8.412
  Name = 
  2 active torsions:
  status: ('A' for Active; 'I' for Inactive)
    1  A    between atoms: C_2  and  C_24
    2  A    between atoms: C_22  and  C_27
                            x       y       z     vdW  Elec       q    Type
                         _______ _______ _______ _____ _____    ______ ____

>  <TORSDO>
F 2

$$$$
=
 OpenBabel11062421593D

 35 39  0  0  1  0  0  0  0  0999 V2000
  190.2140  174.2260  143.3540 C   0  0  0  0  0  1  0  0  0  0  0  0
  188.5630  173.2680  140.2660 C   0  0  0  0  0  0  0  0  0  0  0  0
  188.7920  175.9660  144.4280 C   0  0  0  0  0  0  0  0  0  0  0  0
  189.6390  175.9220  145.6640 C   0  0  0  0  0  2  0  0  0  0  0  0
  192.8710  174.6860  141.2800 C   0  0  0  0  0  2  0  0  0  0  0  0
  186.9890  175.5980  142.3210 N   0  0  0  0  0  0  0  0  0  0  0  0
  186.7280  176.6750  143.2770 C   0  0  0  0  0  2  0  0  0  0  0  0
  194.4540  177.2890  145.3440 O   0  0  0  0  0  0  0  0  0  0  0  0
  190.1270  176.5100  142.4110 C   0  0  0  0  0  1  0  0  0  0  0  0
  193.5860  176.4470  145.1740 C   0  0  0  0  0  0  0  0  0  0  0  0
  192.7910  175.9650  146.3540 C   0  0  2  0  0  3  0  0  0  0  0  0
  193.3030  175.9470  143.7920 C   0  0  0  0  0  2  0  0  0  0  0  0
  188.3500  174.0730  141.1360 C   0  0  0  0  0  0  0  0  0  0  0  0
  192.7210  173.1770  141.2310 C   0  0  2  0  0  3  0  0  0  0  0  0
  190.5730  177.1250  145.7120 C   0  0  0  0  0  2  0  0  0  0  0  0
  194.1030  173.0210  141.8420 C   0  0  2  0  0  3  0  0  0  0  0  0
  192.2640  174.6900  146.1250 O   0  0  0  0  0  1  0  0  0  0  0  0
  191.4970  173.2190  137.6970 C   0  0  0  0  0  1  0  0  0  0  0  0
  189.3110  175.4300  143.1000 C   0  0  0  0  0  0  0  0  0  0  0  0
  191.6990  176.9720  146.7480 C   0  0  1  0  0  3  0  0  0  0  0  0
  191.3320  172.9280  139.1760 C   0  0  1  0  0  3  0  0  0  0  0  0
  188.1550  175.0350  142.1940 C   0  0  0  0  0  0  0  0  0  0  0  0
  190.3300  171.7730  139.3680 C   0  0  2  0  0  3  0  0  0  0  0  0
  194.1030  173.6780  143.1980 C   0  0  2  0  0  3  0  0  0  0  0  0
  187.5770  176.5260  144.5070 C   0  0  0  0  0  3  0  0  0  0  0  0
  192.7070  172.6820  139.7910 C   0  0  0  0  0  2  0  0  0  0  0  0
  194.2530  174.5150  141.8920 C   0  0  2  0  0  0  0  0  0  0  0  0
  194.4820  175.1340  143.2620 C   0  0  1  0  0  3  0  0  0  0  0  0
  188.8900  172.2810  139.2250 C   0  0  0  0  0  2  0  0  0  0  0  0
  191.2100  176.7970  148.1920 C   0  0  0  0  0  0  0  0  0  0  0  0
  191.1950  175.4600  148.5490 F   0  0  0  0  0  0  0  0  0  0  0  0
  192.0540  177.4800  149.0470 F   0  0  0  0  0  0  0  0  0  0  0  0
  189.9350  177.3150  148.3220 F   0  0  0  0  0  0  0  0  0  0  0  0
  190.8190  169.6720  140.4150 O   0  0  0  0  0  1  0  0  0  0  0  0
  190.5040  171.0050  140.6790 C   0  0  0  0  0  2  0  0  0  0  0  0
  2 13  3  0  0  0  0
  3 25  2  0  0  0  0
  3  4  1  0  0  0  0
  4 15  1  0  0  0  0
  5 27  1  0  0  0  0
  6  7  1  0  0  0  0
  7 25  1  0  0  0  0
  9 19  1  0  0  0  0
 10  8  2  0  0  0  0
 10 11  1  0  0  0  0
 11 17  1  6  0  0  0
 11 20  1  0  0  0  0
 12 10  1  0  0  0  0
 13 22  1  0  0  0  0
 14 26  1  6  0  0  0
 14  5  1  0  0  0  0
 14 16  1  0  0  0  0
 15 20  1  0  0  0  0
 16 27  1  0  0  0  0
 16 24  1  0  0  0  0
 18 21  1  0  0  0  0
 19  1  1  0  0  0  0
 19  3  1  0  0  0  0
 20 30  1  0  0  0  0
 21 23  1  0  0  0  0
 21 26  1  0  0  0  0
 22  6  2  0  0  0  0
 22 19  1  0  0  0  0
 23 35  1  0  0  0  0
 24 28  1  0  0  0  0
 27 24  1  0  0  0  0
 27 28  1  0  0  0  0
 28 12  1  0  0  0  0
 29 23  1  0  0  0  0
 29  2  1  0  0  0  0
 30 33  1  0  0  0  0
 30 31  1  0  0  0  0
 30 32  1  0  0  0  0
 34 35  1  0  0  0  0
M  END
>  <MODEL>
9

>  <REMARK>
 VINA RESULT:      -7.3      2.891      4.310
  Name = 
  2 active torsions:
  status: ('A' for Active; 'I' for Inactive)
    1  A    between atoms: C_2  and  C_24
    2  A    between atoms: C_22  and  C_27
                            x       y       z     vdW  Elec       q    Type
                         _______ _______ _______ _____ _____    ______ ____

>  <TORSDO>
F 2

$$$$
