=
 OpenBabel11062418443D

 43 49  0  0  1  0  0  0  0  0999 V2000
  189.4310  175.5870  143.5370 C   0  0  1  0  0  3  0  0  0  0  0  0
  190.9040  177.6190  144.1690 C   0  0  0  0  0  2  0  0  0  0  0  0
  190.6600  176.1090  144.3170 C   0  0  1  0  0  3  0  0  0  0  0  0
  185.9280  176.6110  142.9720 C   0  0  0  0  0  2  0  0  0  0  0  0
  185.5880  177.9580  142.3790 C   0  0  1  0  0  3  0  0  0  0  0  0
  188.9860  177.9490  142.5910 C   0  0  2  0  0  3  0  0  0  0  0  0
  186.1390  177.9330  140.9730 C   0  0  0  0  0  2  0  0  0  0  0  0
  188.3950  176.6960  143.2410 C   0  0  1  0  0  3  0  0  0  0  0  0
  188.6270  177.8710  141.1240 C   0  0  0  0  0  2  0  0  0  0  0  0
  190.4960  178.1110  142.7850 C   0  0  0  0  0  2  0  0  0  0  0  0
  187.3610  177.0300  141.0390 C   0  0  1  0  0  3  0  0  0  0  0  0
  187.2560  176.2320  142.3410 C   0  0  2  0  0  3  0  0  0  0  0  0
  189.8330  174.7690  142.3390 C   0  0  0  0  0  0  0  0  0  0  0  0
  190.6650  173.1830  140.1810 C   0  0  0  0  0  0  0  0  0  0  0  0
  192.8920  174.0110  140.4750 F   0  0  0  0  0  0  0  0  0  0  0  0
  188.9150  173.9540  141.6630 C   0  0  0  0  0  3  0  0  0  0  0  0
  189.3270  173.1650  140.5870 C   0  0  0  0  0  0  0  0  0  0  0  0
  191.5870  173.9970  140.8520 C   0  0  0  0  0  0  0  0  0  0  0  0
  188.4290  172.3770  139.9490 F   0  0  0  0  0  0  0  0  0  0  0  0
  191.1740  174.7770  141.9340 C   0  0  0  0  0  3  0  0  0  0  0  0
  191.0800  172.3900  139.1180 O   0  0  0  0  0  1  0  0  0  0  0  0
  184.1270  178.2750  142.4350 C   0  0  0  0  0  0  0  0  0  0  0  0
  183.2510  177.9180  141.2820 C   0  0  0  0  0  1  0  0  0  0  0  0
  183.5530  178.8510  143.4980 C   0  0  0  0  0  3  0  0  0  0  0  0
  184.7070  180.4500  144.7740 O   0  0  0  0  0  0  0  0  0  0  0  0
  184.1980  179.2960  144.7530 C   0  0  0  0  0  0  0  0  0  0  0  0
  184.3090  178.4130  145.9720 C   0  0  1  0  0  3  0  0  0  0  0  0
  186.1610  176.9620  147.3180 C   0  0  2  0  0  3  0  0  0  0  0  0
  186.2440  179.8970  146.5360 O   0  0  0  0  0  1  0  0  0  0  0  0
  185.7160  178.1180  148.1620 C   0  0  0  0  0  2  0  0  0  0  0  0
  185.6330  177.6580  146.0420 C   0  0  1  0  0  0  0  0  0  0  0  0
  185.3480  178.8960  146.9290 C   0  0  1  0  0  0  0  0  0  0  0  0
  185.0760  176.3270  146.5340 C   0  0  0  0  0  2  0  0  0  0  0  0
  190.6180  175.7290  145.8040 C   0  0  1  0  0  3  0  0  0  0  0  0
  190.6190  174.3380  145.9940 O   0  0  0  0  0  0  0  0  0  0  0  0
  189.3780  174.0500  146.5660 C   0  0  0  0  0  1  0  0  0  0  0  0
  191.6830  176.4010  146.5620 N   0  0  0  0  0  0  0  0  0  0  0  0
  191.1140  176.8590  147.8200 C   0  0  0  0  0  2  0  0  0  0  0  0
  189.8350  177.6290  147.5530 C   0  0  0  0  0  1  0  0  0  0  0  0
  192.7610  175.4680  146.8750 C   0  0  0  0  0  2  0  0  0  0  0  0
  194.0730  176.0190  146.4250 C   0  0  0  0  0  0  0  0  0  0  0  0
  195.1280  175.1660  146.1280 O   0  0  0  0  0  0  0  0  0  0  0  0
  194.2320  177.2640  146.3480 O   0  0  0  0  0  1  0  0  0  0  0  0
  1 13  1  6  0  0  0
  1  3  1  0  0  0  0
  2  3  1  0  0  0  0
  3 34  1  1  0  0  0
  5 22  1  6  0  0  0
  5  4  1  0  0  0  0
  6  9  1  6  0  0  0
  6 10  1  0  0  0  0
  6  8  1  0  0  0  0
  7 11  1  0  0  0  0
  7  5  1  0  0  0  0
  8  1  1  0  0  0  0
 10  2  1  0  0  0  0
 11  9  1  0  0  0  0
 11 12  1  0  0  0  0
 12  4  1  0  0  0  0
 12  8  1  0  0  0  0
 14 17  2  0  0  0  0
 14 18  1  0  0  0  0
 15 18  1  0  0  0  0
 16 13  2  0  0  0  0
 17 16  1  0  0  0  0
 18 20  2  0  0  0  0
 19 17  1  0  0  0  0
 20 13  1  0  0  0  0
 21 14  1  0  0  0  0
 22 24  2  0  0  0  0
 23 22  1  0  0  0  0
 24 26  1  0  0  0  0
 26 25  2  0  0  0  0
 26 27  1  0  0  0  0
 27 31  1  0  0  0  0
 27 32  1  0  0  0  0
 28 30  1  0  0  0  0
 29 32  1  0  0  0  0
 31 33  1  0  0  0  0
 31 32  1  0  0  0  0
 31 28  1  0  0  0  0
 32 30  1  0  0  0  0
 33 28  1  0  0  0  0
 34 35  1  0  0  0  0
 34 37  1  0  0  0  0
 35 36  1  0  0  0  0
 37 40  1  0  0  0  0
 37 38  1  0  0  0  0
 39 38  1  0  0  0  0
 41 40  1  0  0  0  0
 42 41  2  0  0  0  0
 43 41  1  0  0  0  0
M  END
>  <MODEL>
1

>  <REMARK>
 VINA RESULT:      -7.6      0.000      0.000
  Name = 
  10 active torsions:
  status: ('A' for Active; 'I' for Inactive)
    1  A    between atoms: C_1  and  C_2
    2  A    between atoms: C_3  and  C_33
    3  A    between atoms: C_5  and  C_26
    4  A    between atoms: C_9  and  C_30
    5  A    between atoms: C_12  and  C_14
    6  A    between atoms: C_18  and  N_43
    7  A    between atoms: O_19  and  C_30
    8  A    between atoms: C_24  and  C_26
    9  A    between atoms: C_30  and  N_43
   10  A    between atoms: C_33  and  N_43
                            x       y       z     vdW  Elec       q    Type
                         _______ _______ _______ _____ _____    ______ ____

>  <TORSDO>
F 10

$$$$
=
 OpenBabel11062418443D

 43 49  0  0  1  0  0  0  0  0999 V2000
  190.7180  174.7880  142.9110 C   0  0  1  0  0  3  0  0  0  0  0  0
  189.2570  172.6570  143.0750 C   0  0  0  0  0  2  0  0  0  0  0  0
  190.0840  173.5860  142.1720 C   0  0  1  0  0  3  0  0  0  0  0  0
  189.6800  177.3050  145.4060 C   0  0  0  0  0  2  0  0  0  0  0  0
  189.1520  176.8980  146.7610 C   0  0  1  0  0  3  0  0  0  0  0  0
  189.7580  173.9550  145.1590 C   0  0  2  0  0  3  0  0  0  0  0  0
  190.3070  176.2200  147.4600 C   0  0  0  0  0  2  0  0  0  0  0  0
  189.9770  175.1430  144.2200 C   0  0  1  0  0  3  0  0  0  0  0  0
  190.7890  174.0900  146.2560 C   0  0  0  0  0  2  0  0  0  0  0  0
  189.8460  172.5860  144.4800 C   0  0  0  0  0  2  0  0  0  0  0  0
  191.1210  175.5730  146.3490 C   0  0  1  0  0  3  0  0  0  0  0  0
  190.6780  176.2230  145.0360 C   0  0  2  0  0  3  0  0  0  0  0  0
  192.2080  174.6360  143.0550 C   0  0  0  0  0  0  0  0  0  0  0  0
  194.9860  174.2860  143.2160 C   0  0  0  0  0  0  0  0  0  0  0  0
  194.6530  171.9150  143.2160 F   0  0  0  0  0  0  0  0  0  0  0  0
  193.0610  175.7470  143.0880 C   0  0  0  0  0  3  0  0  0  0  0  0
  194.4450  175.5750  143.1700 C   0  0  0  0  0  0  0  0  0  0  0  0
  194.1380  173.1710  143.1860 C   0  0  0  0  0  0  0  0  0  0  0  0
  195.2570  176.6590  143.1930 F   0  0  0  0  0  0  0  0  0  0  0  0
  192.7550  173.3470  143.0930 C   0  0  0  0  0  3  0  0  0  0  0  0
  196.3630  174.1120  143.2860 O   0  0  0  0  0  1  0  0  0  0  0  0
  188.5800  178.0400  147.5390 C   0  0  0  0  0  0  0  0  0  0  0  0
  189.4910  178.9440  148.2980 C   0  0  0  0  0  1  0  0  0  0  0  0
  187.2690  178.3110  147.5670 C   0  0  0  0  0  3  0  0  0  0  0  0
  185.9150  176.4080  147.3150 O   0  0  0  0  0  0  0  0  0  0  0  0
  186.1710  177.5730  146.9040 C   0  0  0  0  0  0  0  0  0  0  0  0
  185.3940  178.1390  145.7410 C   0  0  1  0  0  3  0  0  0  0  0  0
  185.8070  179.0580  143.2240 C   0  0  2  0  0  3  0  0  0  0  0  0
  186.6090  176.3870  144.4290 O   0  0  0  0  0  1  0  0  0  0  0  0
  185.0140  177.7880  143.1720 C   0  0  0  0  0  2  0  0  0  0  0  0
  186.2910  178.7280  144.6560 C   0  0  1  0  0  0  0  0  0  0  0  0
  185.5970  177.3520  144.4870 C   0  0  1  0  0  0  0  0  0  0  0  0
  185.4450  179.9580  144.3450 C   0  0  0  0  0  2  0  0  0  0  0  0
  189.2490  174.0160  140.9580 C   0  0  1  0  0  3  0  0  0  0  0  0
  188.9780  175.3940  140.9630 O   0  0  0  0  0  0  0  0  0  0  0  0
  187.6220  175.4940  141.2780 C   0  0  0  0  0  1  0  0  0  0  0  0
  189.8600  173.5670  139.6980 N   0  0  0  0  0  0  0  0  0  0  0  0
  190.7490  172.4580  140.0040 C   0  0  0  0  0  2  0  0  0  0  0  0
  190.3360  171.2350  139.2060 C   0  0  0  0  0  1  0  0  0  0  0  0
  188.8400  173.0790  138.7750 C   0  0  0  0  0  2  0  0  0  0  0  0
  188.6150  174.0660  137.6790 C   0  0  0  0  0  0  0  0  0  0  0  0
  187.5450  174.9500  137.7390 O   0  0  0  0  0  1  0  0  0  0  0  0
  189.3780  174.0720  136.6800 O   0  0  0  0  0  0  0  0  0  0  0  0
  1 13  1  1  0  0  0
  1  8  1  0  0  0  0
  2 10  1  0  0  0  0
  3 34  1  6  0  0  0
  3  1  1  0  0  0  0
  3  2  1  0  0  0  0
  4  5  1  0  0  0  0
  5  7  1  0  0  0  0
  5 22  1  1  0  0  0
  6 10  1  6  0  0  0
  6  9  1  0  0  0  0
  8 12  1  0  0  0  0
  8  6  1  0  0  0  0
  9 11  1  0  0  0  0
 11  7  1  0  0  0  0
 12  4  1  0  0  0  0
 12 11  1  0  0  0  0
 13 16  2  0  0  0  0
 13 20  1  0  0  0  0
 14 21  1  0  0  0  0
 16 17  1  0  0  0  0
 17 19  1  0  0  0  0
 17 14  2  0  0  0  0
 18 14  1  0  0  0  0
 18 15  1  0  0  0  0
 20 18  2  0  0  0  0
 22 24  2  0  0  0  0
 22 23  1  0  0  0  0
 26 25  2  0  0  0  0
 26 24  1  0  0  0  0
 27 26  1  0  0  0  0
 28 33  1  0  0  0  0
 28 31  1  0  0  0  0
 29 32  1  0  0  0  0
 30 28  1  0  0  0  0
 30 32  1  0  0  0  0
 31 27  1  0  0  0  0
 32 31  1  0  0  0  0
 32 27  1  0  0  0  0
 33 31  1  0  0  0  0
 34 35  1  0  0  0  0
 35 36  1  0  0  0  0
 37 38  1  0  0  0  0
 37 34  1  0  0  0  0
 39 38  1  0  0  0  0
 40 37  1  0  0  0  0
 41 42  1  0  0  0  0
 41 40  1  0  0  0  0
 43 41  2  0  0  0  0
M  END
>  <MODEL>
2

>  <REMARK>
 VINA RESULT:      -7.5      2.733      6.237
  Name = 
  10 active torsions:
  status: ('A' for Active; 'I' for Inactive)
    1  A    between atoms: C_1  and  C_2
    2  A    between atoms: C_3  and  C_33
    3  A    between atoms: C_5  and  C_26
    4  A    between atoms: C_9  and  C_30
    5  A    between atoms: C_12  and  C_14
    6  A    between atoms: C_18  and  N_43
    7  A    between atoms: O_19  and  C_30
    8  A    between atoms: C_24  and  C_26
    9  A    between atoms: C_30  and  N_43
   10  A    between atoms: C_33  and  N_43
                            x       y       z     vdW  Elec       q    Type
                         _______ _______ _______ _____ _____    ______ ____

>  <TORSDO>
F 10

$$$$
=
 OpenBabel11062418443D

 43 49  0  0  1  0  0  0  0  0999 V2000
  189.4340  175.3180  143.7440 C   0  0  1  0  0  3  0  0  0  0  0  0
  191.0910  177.1810  144.4410 C   0  0  0  0  0  2  0  0  0  0  0  0
  190.7620  175.6800  144.4500 C   0  0  1  0  0  3  0  0  0  0  0  0
  185.9700  176.5920  143.6410 C   0  0  0  0  0  2  0  0  0  0  0  0
  185.6660  178.0140  143.2320 C   0  0  1  0  0  3  0  0  0  0  0  0
  189.0620  177.7920  143.1050 C   0  0  2  0  0  3  0  0  0  0  0  0
  186.0830  178.1180  141.7840 C   0  0  0  0  0  2  0  0  0  0  0  0
  188.4520  176.5090  143.6720 C   0  0  1  0  0  3  0  0  0  0  0  0
  188.5650  177.9010  141.6810 C   0  0  0  0  0  2  0  0  0  0  0  0
  190.5910  177.8480  143.1640 C   0  0  0  0  0  2  0  0  0  0  0  0
  187.2440  177.1470  141.6320 C   0  0  1  0  0  3  0  0  0  0  0  0
  187.2060  176.2130  142.8450 C   0  0  2  0  0  3  0  0  0  0  0  0
  189.6700  174.6190  142.4320 C   0  0  0  0  0  0  0  0  0  0  0  0
  190.0170  173.3880  139.9360 C   0  0  0  0  0  0  0  0  0  0  0  0
  187.7360  172.6640  140.0140 F   0  0  0  0  0  0  0  0  0  0  0  0
  190.9060  174.6870  141.7740 C   0  0  0  0  0  3  0  0  0  0  0  0
  191.0800  174.0730  140.5320 C   0  0  0  0  0  0  0  0  0  0  0  0
  188.7800  173.3150  140.5900 C   0  0  0  0  0  0  0  0  0  0  0  0
  192.2790  174.1540  139.9050 F   0  0  0  0  0  0  0  0  0  0  0  0
  188.6050  173.9390  141.8270 C   0  0  0  0  0  3  0  0  0  0  0  0
  190.1850  172.7860  138.6940 O   0  0  0  0  0  1  0  0  0  0  0  0
  184.2410  178.4040  143.4660 C   0  0  0  0  0  0  0  0  0  0  0  0
  183.3510  178.6720  142.3010 C   0  0  0  0  0  1  0  0  0  0  0  0
  183.7110  178.5010  144.6910 C   0  0  0  0  0  3  0  0  0  0  0  0
  183.7810  177.5800  146.8510 O   0  0  0  0  0  0  0  0  0  0  0  0
  184.3790  178.2870  145.9940 C   0  0  0  0  0  0  0  0  0  0  0  0
  185.7050  178.9160  146.3450 C   0  0  1  0  0  3  0  0  0  0  0  0
  187.4670  179.0270  148.4020 C   0  0  2  0  0  3  0  0  0  0  0  0
  186.3300  176.5830  147.0010 O   0  0  0  0  0  1  0  0  0  0  0  0
  188.0860  178.2980  147.2480 C   0  0  0  0  0  2  0  0  0  0  0  0
  186.0510  178.7910  147.8250 C   0  0  1  0  0  0  0  0  0  0  0  0
  186.7240  177.9010  146.7490 C   0  0  1  0  0  0  0  0  0  0  0  0
  186.6320  180.1880  148.0120 C   0  0  0  0  0  2  0  0  0  0  0  0
  190.8320  175.1370  145.8840 C   0  0  1  0  0  3  0  0  0  0  0  0
  189.8320  174.1840  146.1390 O   0  0  0  0  0  0  0  0  0  0  0  0
  189.2320  174.6000  147.3280 C   0  0  0  0  0  1  0  0  0  0  0  0
  192.1770  174.6390  146.2060 N   0  0  0  0  0  0  0  0  0  0  0  0
  192.8280  174.2730  144.9580 C   0  0  0  0  0  2  0  0  0  0  0  0
  192.8250  172.7640  144.8020 C   0  0  0  0  0  1  0  0  0  0  0  0
  192.9780  175.6860  146.8350 C   0  0  0  0  0  2  0  0  0  0  0  0
  194.2860  175.8330  146.1330 C   0  0  0  0  0  0  0  0  0  0  0  0
  195.3090  174.9200  146.3560 O   0  0  0  0  0  1  0  0  0  0  0  0
  194.4740  176.8090  145.3640 O   0  0  0  0  0  0  0  0  0  0  0  0
  1 13  1  6  0  0  0
  1  3  1  0  0  0  0
  2  3  1  0  0  0  0
  3 34  1  1  0  0  0
  5 22  1  6  0  0  0
  5  4  1  0  0  0  0
  6  9  1  6  0  0  0
  6 10  1  0  0  0  0
  6  8  1  0  0  0  0
  7  5  1  0  0  0  0
  8  1  1  0  0  0  0
 10  2  1  0  0  0  0
 11  9  1  0  0  0  0
 11  7  1  0  0  0  0
 11 12  1  0  0  0  0
 12  4  1  0  0  0  0
 12  8  1  0  0  0  0
 14 17  2  0  0  0  0
 14 18  1  0  0  0  0
 15 18  1  0  0  0  0
 16 13  2  0  0  0  0
 17 16  1  0  0  0  0
 18 20  2  0  0  0  0
 19 17  1  0  0  0  0
 20 13  1  0  0  0  0
 21 14  1  0  0  0  0
 22 24  2  0  0  0  0
 23 22  1  0  0  0  0
 24 26  1  0  0  0  0
 26 27  1  0  0  0  0
 26 25  2  0  0  0  0
 27 32  1  0  0  0  0
 27 31  1  0  0  0  0
 30 28  1  0  0  0  0
 31 33  1  0  0  0  0
 31 28  1  0  0  0  0
 32 29  1  0  0  0  0
 32 30  1  0  0  0  0
 32 31  1  0  0  0  0
 33 28  1  0  0  0  0
 34 35  1  0  0  0  0
 34 37  1  0  0  0  0
 35 36  1  0  0  0  0
 37 40  1  0  0  0  0
 38 37  1  0  0  0  0
 39 38  1  0  0  0  0
 41 42  1  0  0  0  0
 41 40  1  0  0  0  0
 43 41  2  0  0  0  0
M  END
>  <MODEL>
3

>  <REMARK>
 VINA RESULT:      -7.5      1.291      2.243
  Name = 
  10 active torsions:
  status: ('A' for Active; 'I' for Inactive)
    1  A    between atoms: C_1  and  C_2
    2  A    between atoms: C_3  and  C_33
    3  A    between atoms: C_5  and  C_26
    4  A    between atoms: C_9  and  C_30
    5  A    between atoms: C_12  and  C_14
    6  A    between atoms: C_18  and  N_43
    7  A    between atoms: O_19  and  C_30
    8  A    between atoms: C_24  and  C_26
    9  A    between atoms: C_30  and  N_43
   10  A    between atoms: C_33  and  N_43
                            x       y       z     vdW  Elec       q    Type
                         _______ _______ _______ _____ _____    ______ ____

>  <TORSDO>
F 10

$$$$
=
 OpenBabel11062418443D

 43 49  0  0  1  0  0  0  0  0999 V2000
  191.7170  174.6570  142.5490 C   0  0  1  0  0  3  0  0  0  0  0  0
  190.8350  172.2680  143.0120 C   0  0  0  0  0  2  0  0  0  0  0  0
  191.2660  173.3010  141.9580 C   0  0  1  0  0  3  0  0  0  0  0  0
  190.5510  177.0260  145.1300 C   0  0  0  0  0  2  0  0  0  0  0  0
  190.3610  176.5960  146.5660 C   0  0  1  0  0  3  0  0  0  0  0  0
  191.3580  173.7700  144.9480 C   0  0  2  0  0  3  0  0  0  0  0  0
  191.7400  176.2370  147.0680 C   0  0  0  0  0  2  0  0  0  0  0  0
  191.1400  174.9170  143.9590 C   0  0  1  0  0  3  0  0  0  0  0  0
  192.4960  174.1990  145.8460 C   0  0  0  0  0  2  0  0  0  0  0  0
  191.6470  172.4160  144.2940 C   0  0  0  0  0  2  0  0  0  0  0  0
  192.4870  175.7210  145.8470 C   0  0  1  0  0  3  0  0  0  0  0  0
  191.6980  176.1740  144.6160 C   0  0  2  0  0  3  0  0  0  0  0  0
  193.2060  174.8500  142.4360 C   0  0  0  0  0  0  0  0  0  0  0  0
  195.9820  175.1140  142.1430 C   0  0  0  0  0  0  0  0  0  0  0  0
  196.2440  172.8660  142.9230 F   0  0  0  0  0  0  0  0  0  0  0  0
  193.7580  176.0490  141.9630 C   0  0  0  0  0  3  0  0  0  0  0  0
  195.1400  176.1820  141.8180 C   0  0  0  0  0  0  0  0  0  0  0  0
  195.4360  173.9140  142.6180 C   0  0  0  0  0  0  0  0  0  0  0  0
  195.6580  177.3440  141.3520 F   0  0  0  0  0  0  0  0  0  0  0  0
  194.0530  173.7810  142.7520 C   0  0  0  0  0  3  0  0  0  0  0  0
  197.3580  175.2400  141.9890 O   0  0  0  0  0  1  0  0  0  0  0  0
  189.6770  177.6270  147.4060 C   0  0  0  0  0  0  0  0  0  0  0  0
  190.4640  178.4020  148.4070 C   0  0  0  0  0  1  0  0  0  0  0  0
  188.3750  177.9110  147.2820 C   0  0  0  0  0  3  0  0  0  0  0  0
  186.8630  176.2000  146.7290 O   0  0  0  0  0  0  0  0  0  0  0  0
  187.3880  177.2900  146.3700 C   0  0  0  0  0  0  0  0  0  0  0  0
  187.0310  177.8820  145.0290 C   0  0  1  0  0  3  0  0  0  0  0  0
  184.8590  178.3080  143.4640 C   0  0  2  0  0  3  0  0  0  0  0  0
  185.3220  179.1490  146.3460 O   0  0  0  0  0  1  0  0  0  0  0  0
  185.4120  179.6220  143.9270 C   0  0  0  0  0  2  0  0  0  0  0  0
  185.6010  177.5660  144.6000 C   0  0  1  0  0  0  0  0  0  0  0  0
  186.0060  178.9620  145.1400 C   0  0  1  0  0  0  0  0  0  0  0  0
  185.8900  177.2980  143.1280 C   0  0  0  0  0  2  0  0  0  0  0  0
  190.1660  173.4580  140.8990 C   0  0  1  0  0  3  0  0  0  0  0  0
  189.3380  174.5630  141.1550 O   0  0  0  0  0  0  0  0  0  0  0  0
  188.1330  174.0150  141.6010 C   0  0  0  0  0  1  0  0  0  0  0  0
  190.7270  173.4800  139.5400 N   0  0  0  0  0  0  0  0  0  0  0  0
  191.9460  172.6860  139.5490 C   0  0  0  0  0  2  0  0  0  0  0  0
  193.0280  173.4000  138.7610 C   0  0  0  0  0  1  0  0  0  0  0  0
  189.8030  172.8660  138.5910 C   0  0  0  0  0  2  0  0  0  0  0  0
  189.2440  173.8970  137.6680 C   0  0  0  0  0  0  0  0  0  0  0  0
  187.9360  174.3370  137.8160 O   0  0  0  0  0  1  0  0  0  0  0  0
  189.9530  174.3440  136.7300 O   0  0  0  0  0  0  0  0  0  0  0  0
  1 13  1  1  0  0  0
  1  8  1  0  0  0  0
  2 10  1  0  0  0  0
  3 34  1  6  0  0  0
  3  1  1  0  0  0  0
  3  2  1  0  0  0  0
  4  5  1  0  0  0  0
  5  7  1  0  0  0  0
  5 22  1  1  0  0  0
  6 10  1  6  0  0  0
  6  9  1  0  0  0  0
  8 12  1  0  0  0  0
  8  6  1  0  0  0  0
  9 11  1  0  0  0  0
 11  7  1  0  0  0  0
 12  4  1  0  0  0  0
 12 11  1  0  0  0  0
 13 20  1  0  0  0  0
 14 18  1  0  0  0  0
 16 13  2  0  0  0  0
 17 16  1  0  0  0  0
 17 14  2  0  0  0  0
 18 20  2  0  0  0  0
 18 15  1  0  0  0  0
 19 17  1  0  0  0  0
 21 14  1  0  0  0  0
 22 23  1  0  0  0  0
 24 22  2  0  0  0  0
 26 25  2  0  0  0  0
 26 24  1  0  0  0  0
 27 32  1  0  0  0  0
 27 26  1  0  0  0  0
 28 30  1  0  0  0  0
 28 31  1  0  0  0  0
 30 32  1  0  0  0  0
 31 27  1  0  0  0  0
 31 32  1  0  0  0  0
 32 29  1  0  0  0  0
 33 28  1  0  0  0  0
 33 31  1  0  0  0  0
 34 35  1  0  0  0  0
 35 36  1  0  0  0  0
 37 38  1  0  0  0  0
 37 34  1  0  0  0  0
 39 38  1  0  0  0  0
 40 37  1  0  0  0  0
 41 42  1  0  0  0  0
 41 40  1  0  0  0  0
 43 41  2  0  0  0  0
M  END
>  <MODEL>
4

>  <REMARK>
 VINA RESULT:      -7.4      2.872      6.403
  Name = 
  10 active torsions:
  status: ('A' for Active; 'I' for Inactive)
    1  A    between atoms: C_1  and  C_2
    2  A    between atoms: C_3  and  C_33
    3  A    between atoms: C_5  and  C_26
    4  A    between atoms: C_9  and  C_30
    5  A    between atoms: C_12  and  C_14
    6  A    between atoms: C_18  and  N_43
    7  A    between atoms: O_19  and  C_30
    8  A    between atoms: C_24  and  C_26
    9  A    between atoms: C_30  and  N_43
   10  A    between atoms: C_33  and  N_43
                            x       y       z     vdW  Elec       q    Type
                         _______ _______ _______ _____ _____    ______ ____

>  <TORSDO>
F 10

$$$$
=
 OpenBabel11062418443D

 43 49  0  0  1  0  0  0  0  0999 V2000
  192.5130  172.2810  142.2180 C   0  0  1  0  0  3  0  0  0  0  0  0
  190.5820  170.9580  141.1120 C   0  0  0  0  0  2  0  0  0  0  0  0
  192.0960  171.2080  141.1840 C   0  0  1  0  0  3  0  0  0  0  0  0
  191.3970  175.6460  143.2510 C   0  0  0  0  0  2  0  0  0  0  0  0
  189.9870  175.8940  143.7340 C   0  0  1  0  0  3  0  0  0  0  0  0
  190.0530  172.5810  142.9460 C   0  0  2  0  0  3  0  0  0  0  0  0
  189.8540  175.1100  145.0180 C   0  0  0  0  0  2  0  0  0  0  0  0
  191.3670  173.2620  142.5570 C   0  0  1  0  0  3  0  0  0  0  0  0
  189.9570  172.6840  144.4510 C   0  0  0  0  0  2  0  0  0  0  0  0
  189.9290  171.1280  142.4800 C   0  0  0  0  0  2  0  0  0  0  0  0
  190.7700  173.9080  144.8490 C   0  0  1  0  0  3  0  0  0  0  0  0
  191.7130  174.2260  143.6850 C   0  0  2  0  0  3  0  0  0  0  0  0
  193.1910  171.6710  143.4160 C   0  0  0  0  0  0  0  0  0  0  0  0
  194.5040  170.4480  145.5710 C   0  0  0  0  0  0  0  0  0  0  0  0
  193.3210  168.4210  145.0970 F   0  0  0  0  0  0  0  0  0  0  0  0
  194.1170  172.3910  144.1820 C   0  0  0  0  0  3  0  0  0  0  0  0
  194.7700  171.7840  145.2570 C   0  0  0  0  0  0  0  0  0  0  0  0
  193.5770  169.7230  144.8090 C   0  0  0  0  0  0  0  0  0  0  0  0
  195.6690  172.4910  145.9840 F   0  0  0  0  0  0  0  0  0  0  0  0
  192.9330  170.3310  143.7290 C   0  0  0  0  0  3  0  0  0  0  0  0
  195.1610  169.8380  146.6330 O   0  0  0  0  0  1  0  0  0  0  0  0
  189.6640  177.3460  143.8920 C   0  0  0  0  0  0  0  0  0  0  0  0
  190.7710  178.3410  143.9720 C   0  0  0  0  0  1  0  0  0  0  0  0
  188.4080  177.8050  143.9410 C   0  0  0  0  0  3  0  0  0  0  0  0
  186.7930  176.5740  142.7610 O   0  0  0  0  0  0  0  0  0  0  0  0
  187.1500  177.0280  143.8820 C   0  0  0  0  0  0  0  0  0  0  0  0
  186.2700  176.8080  145.0880 C   0  0  1  0  0  3  0  0  0  0  0  0
  185.4850  178.0930  147.3430 C   0  0  2  0  0  3  0  0  0  0  0  0
  185.3170  179.0360  144.4600 O   0  0  0  0  0  1  0  0  0  0  0  0
  184.3140  177.9290  146.4230 C   0  0  0  0  0  2  0  0  0  0  0  0
  186.4690  177.8640  146.1720 C   0  0  1  0  0  0  0  0  0  0  0  0
  185.2340  177.8740  145.2360 C   0  0  1  0  0  0  0  0  0  0  0  0
  186.4030  176.9290  147.3740 C   0  0  0  0  0  2  0  0  0  0  0  0
  192.6460  171.5000  139.7810 C   0  0  1  0  0  3  0  0  0  0  0  0
  192.3410  170.4770  138.8690 O   0  0  0  0  0  0  0  0  0  0  0  0
  193.4860  169.6790  138.8260 C   0  0  0  0  0  1  0  0  0  0  0  0
  192.2220  172.8240  139.3020 N   0  0  0  0  0  0  0  0  0  0  0  0
  193.4130  173.5550  138.8990 C   0  0  0  0  0  2  0  0  0  0  0  0
  193.6760  174.6840  139.8780 C   0  0  0  0  0  1  0  0  0  0  0  0
  191.3610  172.6970  138.1290 C   0  0  0  0  0  2  0  0  0  0  0  0
  190.1810  173.6020  138.2500 C   0  0  0  0  0  0  0  0  0  0  0  0
  189.6090  173.8490  139.4910 O   0  0  0  0  0  1  0  0  0  0  0  0
  189.6810  174.1150  137.2160 O   0  0  0  0  0  0  0  0  0  0  0  0
  1  8  1  0  0  0  0
  1 13  1  1  0  0  0
  2  3  1  0  0  0  0
  2 10  1  0  0  0  0
  3 34  1  6  0  0  0
  3  1  1  0  0  0  0
  4 12  1  0  0  0  0
  4  5  1  0  0  0  0
  5 22  1  1  0  0  0
  5  7  1  0  0  0  0
  6 10  1  1  0  0  0
  6  9  1  0  0  0  0
  8  6  1  0  0  0  0
  8 12  1  0  0  0  0
  9 11  1  0  0  0  0
 11  7  1  0  0  0  0
 12 11  1  0  0  0  0
 13 20  2  0  0  0  0
 13 16  1  0  0  0  0
 14 21  1  0  0  0  0
 16 17  2  0  0  0  0
 17 14  1  0  0  0  0
 17 19  1  0  0  0  0
 18 15  1  0  0  0  0
 18 14  2  0  0  0  0
 20 18  1  0  0  0  0
 22 24  2  0  0  0  0
 22 23  1  0  0  0  0
 25 26  2  0  0  0  0
 26 24  1  0  0  0  0
 26 27  1  0  0  0  0
 27 32  1  0  0  0  0
 27 31  1  0  0  0  0
 28 33  1  0  0  0  0
 29 32  1  0  0  0  0
 30 28  1  0  0  0  0
 31 28  1  0  0  0  0
 31 33  1  0  0  0  0
 32 31  1  0  0  0  0
 32 30  1  0  0  0  0
 35 34  1  0  0  0  0
 36 35  1  0  0  0  0
 37 34  1  0  0  0  0
 38 37  1  0  0  0  0
 38 39  1  0  0  0  0
 40 41  1  0  0  0  0
 40 37  1  0  0  0  0
 41 42  1  0  0  0  0
 43 41  2  0  0  0  0
M  END
>  <MODEL>
5

>  <REMARK>
 VINA RESULT:      -7.4      3.377      6.603
  Name = 
  10 active torsions:
  status: ('A' for Active; 'I' for Inactive)
    1  A    between atoms: C_1  and  C_2
    2  A    between atoms: C_3  and  C_33
    3  A    between atoms: C_5  and  C_26
    4  A    between atoms: C_9  and  C_30
    5  A    between atoms: C_12  and  C_14
    6  A    between atoms: C_18  and  N_43
    7  A    between atoms: O_19  and  C_30
    8  A    between atoms: C_24  and  C_26
    9  A    between atoms: C_30  and  N_43
   10  A    between atoms: C_33  and  N_43
                            x       y       z     vdW  Elec       q    Type
                         _______ _______ _______ _____ _____    ______ ____

>  <TORSDO>
F 10

$$$$
=
 OpenBabel11062418443D

 43 49  0  0  1  0  0  0  0  0999 V2000
  192.3490  174.8840  143.0180 C   0  0  1  0  0  3  0  0  0  0  0  0
  191.1440  172.5930  142.9640 C   0  0  0  0  0  2  0  0  0  0  0  0
  191.9610  173.6380  142.1870 C   0  0  1  0  0  3  0  0  0  0  0  0
  190.7110  177.1900  145.3920 C   0  0  0  0  0  2  0  0  0  0  0  0
  190.0690  176.6850  146.6630 C   0  0  1  0  0  3  0  0  0  0  0  0
  191.2190  173.8810  145.1120 C   0  0  2  0  0  3  0  0  0  0  0  0
  191.1990  176.1270  147.4950 C   0  0  0  0  0  2  0  0  0  0  0  0
  191.4110  175.1130  144.2260 C   0  0  1  0  0  3  0  0  0  0  0  0
  192.0810  174.1040  146.3350 C   0  0  0  0  0  2  0  0  0  0  0  0
  191.5560  172.5510  144.4320 C   0  0  0  0  0  2  0  0  0  0  0  0
  192.2180  175.6120  146.4900 C   0  0  1  0  0  3  0  0  0  0  0  0
  191.8700  176.2430  145.1390 C   0  0  2  0  0  3  0  0  0  0  0  0
  193.8160  174.9030  143.3500 C   0  0  0  0  0  0  0  0  0  0  0  0
  196.5720  174.8620  143.8710 C   0  0  0  0  0  0  0  0  0  0  0  0
  196.4590  172.4810  144.0990 F   0  0  0  0  0  0  0  0  0  0  0  0
  194.5540  176.0950  143.3570 C   0  0  0  0  0  3  0  0  0  0  0  0
  195.9250  176.0760  143.6180 C   0  0  0  0  0  0  0  0  0  0  0  0
  195.8390  173.6670  143.8680 C   0  0  0  0  0  0  0  0  0  0  0  0
  196.6260  177.2360  143.6130 F   0  0  0  0  0  0  0  0  0  0  0  0
  194.4690  173.6880  143.5970 C   0  0  0  0  0  3  0  0  0  0  0  0
  197.9390  174.8400  144.1200 O   0  0  0  0  0  1  0  0  0  0  0  0
  189.2710  177.7310  147.3760 C   0  0  0  0  0  0  0  0  0  0  0  0
  189.9400  178.6160  148.3720 C   0  0  0  0  0  1  0  0  0  0  0  0
  187.9680  177.9300  147.1420 C   0  0  0  0  0  3  0  0  0  0  0  0
  186.3300  176.3060  146.6970 O   0  0  0  0  0  0  0  0  0  0  0  0
  187.0860  177.1920  146.2110 C   0  0  0  0  0  0  0  0  0  0  0  0
  187.0940  177.4260  144.7200 C   0  0  1  0  0  3  0  0  0  0  0  0
  185.3670  177.5730  142.6360 C   0  0  2  0  0  3  0  0  0  0  0  0
  185.3300  179.1200  145.2500 O   0  0  0  0  0  1  0  0  0  0  0  0
  185.9790  178.9180  142.8780 C   0  0  0  0  0  2  0  0  0  0  0  0
  185.7550  177.1110  144.0610 C   0  0  1  0  0  0  0  0  0  0  0  0
  186.2180  178.5670  144.3210 C   0  0  1  0  0  0  0  0  0  0  0  0
  186.3040  176.4370  142.8080 C   0  0  0  0  0  2  0  0  0  0  0  0
  191.2400  174.0020  140.8820 C   0  0  1  0  0  3  0  0  0  0  0  0
  192.1110  174.0090  139.7800 O   0  0  0  0  0  0  0  0  0  0  0  0
  193.1760  173.1880  140.1570 C   0  0  0  0  0  1  0  0  0  0  0  0
  190.0630  173.1490  140.6620 N   0  0  0  0  0  0  0  0  0  0  0  0
  188.8770  173.9670  140.8610 C   0  0  0  0  0  2  0  0  0  0  0  0
  187.8860  173.2270  141.7390 C   0  0  0  0  0  1  0  0  0  0  0  0
  190.0360  172.6520  139.2890 C   0  0  0  0  0  2  0  0  0  0  0  0
  190.1030  171.1610  139.2750 C   0  0  0  0  0  0  0  0  0  0  0  0
  189.5470  170.4430  138.2250 O   0  0  0  0  0  0  0  0  0  0  0  0
  190.6360  170.5530  140.2380 O   0  0  0  0  0  1  0  0  0  0  0  0
  1 13  1  1  0  0  0
  1  8  1  0  0  0  0
  2 10  1  0  0  0  0
  3 34  1  6  0  0  0
  3  2  1  0  0  0  0
  3  1  1  0  0  0  0
  4  5  1  0  0  0  0
  5 22  1  1  0  0  0
  5  7  1  0  0  0  0
  6 10  1  6  0  0  0
  6  9  1  0  0  0  0
  8  6  1  0  0  0  0
  8 12  1  0  0  0  0
  9 11  1  0  0  0  0
 11  7  1  0  0  0  0
 12  4  1  0  0  0  0
 12 11  1  0  0  0  0
 13 16  2  0  0  0  0
 13 20  1  0  0  0  0
 14 21  1  0  0  0  0
 16 17  1  0  0  0  0
 17 14  2  0  0  0  0
 18 14  1  0  0  0  0
 18 15  1  0  0  0  0
 19 17  1  0  0  0  0
 20 18  2  0  0  0  0
 22 23  1  0  0  0  0
 24 22  2  0  0  0  0
 26 25  2  0  0  0  0
 26 24  1  0  0  0  0
 27 26  1  0  0  0  0
 28 33  1  0  0  0  0
 28 30  1  0  0  0  0
 28 31  1  0  0  0  0
 30 32  1  0  0  0  0
 31 32  1  0  0  0  0
 31 27  1  0  0  0  0
 32 27  1  0  0  0  0
 32 29  1  0  0  0  0
 33 31  1  0  0  0  0
 35 36  1  0  0  0  0
 35 34  1  0  0  0  0
 37 38  1  0  0  0  0
 37 34  1  0  0  0  0
 38 39  1  0  0  0  0
 40 37  1  0  0  0  0
 41 40  1  0  0  0  0
 41 43  1  0  0  0  0
 42 41  2  0  0  0  0
M  END
>  <MODEL>
6

>  <REMARK>
 VINA RESULT:      -7.3      2.828      6.470
  Name = 
  10 active torsions:
  status: ('A' for Active; 'I' for Inactive)
    1  A    between atoms: C_1  and  C_2
    2  A    between atoms: C_3  and  C_33
    3  A    between atoms: C_5  and  C_26
    4  A    between atoms: C_9  and  C_30
    5  A    between atoms: C_12  and  C_14
    6  A    between atoms: C_18  and  N_43
    7  A    between atoms: O_19  and  C_30
    8  A    between atoms: C_24  and  C_26
    9  A    between atoms: C_30  and  N_43
   10  A    between atoms: C_33  and  N_43
                            x       y       z     vdW  Elec       q    Type
                         _______ _______ _______ _____ _____    ______ ____

>  <TORSDO>
F 10

$$$$
=
 OpenBabel11062418443D

 43 49  0  0  1  0  0  0  0  0999 V2000
  190.5130  174.6220  142.9720 C   0  0  1  0  0  3  0  0  0  0  0  0
  189.1320  172.4580  143.3000 C   0  0  0  0  0  2  0  0  0  0  0  0
  189.8780  173.3730  142.3170 C   0  0  1  0  0  3  0  0  0  0  0  0
  189.5350  177.2060  145.4210 C   0  0  0  0  0  2  0  0  0  0  0  0
  189.0960  176.8390  146.8190 C   0  0  1  0  0  3  0  0  0  0  0  0
  189.7050  173.8530  145.3010 C   0  0  2  0  0  3  0  0  0  0  0  0
  190.3080  176.2240  147.4780 C   0  0  0  0  0  2  0  0  0  0  0  0
  189.8350  175.0080  144.3060 C   0  0  1  0  0  3  0  0  0  0  0  0
  190.7910  174.0630  146.3320 C   0  0  0  0  0  2  0  0  0  0  0  0
  189.7990  172.4600  144.6720 C   0  0  0  0  0  2  0  0  0  0  0  0
  191.0800  175.5570  146.3490 C   0  0  1  0  0  3  0  0  0  0  0  0
  190.5460  176.1400  145.0380 C   0  0  2  0  0  3  0  0  0  0  0  0
  192.0130  174.5190  143.0380 C   0  0  0  0  0  0  0  0  0  0  0  0
  194.8060  174.4010  143.2640 C   0  0  0  0  0  0  0  0  0  0  0  0
  194.8910  176.7830  143.0490 F   0  0  0  0  0  0  0  0  0  0  0  0
  192.6590  173.2860  143.2090 C   0  0  0  0  0  3  0  0  0  0  0  0
  194.0490  173.2260  143.3200 C   0  0  0  0  0  0  0  0  0  0  0  0
  194.1660  175.6350  143.0900 C   0  0  0  0  0  0  0  0  0  0  0  0
  194.6580  172.0280  143.4930 F   0  0  0  0  0  0  0  0  0  0  0  0
  192.7750  175.6930  142.9900 C   0  0  0  0  0  3  0  0  0  0  0  0
  196.1890  174.3430  143.3850 O   0  0  0  0  0  1  0  0  0  0  0  0
  188.5320  177.9950  147.5830 C   0  0  0  0  0  0  0  0  0  0  0  0
  189.4460  178.8790  148.3630 C   0  0  0  0  0  1  0  0  0  0  0  0
  187.2280  178.2950  147.5800 C   0  0  0  0  0  3  0  0  0  0  0  0
  185.8370  176.4240  147.2970 O   0  0  0  0  0  0  0  0  0  0  0  0
  186.1290  177.5820  146.8920 C   0  0  0  0  0  0  0  0  0  0  0  0
  185.3920  178.1640  145.7110 C   0  0  1  0  0  3  0  0  0  0  0  0
  185.8770  179.0280  143.1870 C   0  0  2  0  0  3  0  0  0  0  0  0
  186.5460  176.3430  144.4400 O   0  0  0  0  0  1  0  0  0  0  0  0
  185.0300  177.7930  143.1420 C   0  0  0  0  0  2  0  0  0  0  0  0
  186.3280  178.6980  144.6300 C   0  0  1  0  0  0  0  0  0  0  0  0
  185.5770  177.3510  144.4710 C   0  0  1  0  0  0  0  0  0  0  0  0
  185.5400  179.9580  144.2910 C   0  0  0  0  0  2  0  0  0  0  0  0
  188.9640  173.7280  141.1360 C   0  0  1  0  0  3  0  0  0  0  0  0
  188.9600  175.1070  140.8660 O   0  0  0  0  0  0  0  0  0  0  0  0
  187.7310  175.5640  141.3460 C   0  0  0  0  0  1  0  0  0  0  0  0
  189.2830  172.9240  139.9470 N   0  0  0  0  0  0  0  0  0  0  0  0
  188.1850  173.0670  139.0050 C   0  0  0  0  0  2  0  0  0  0  0  0
  188.6550  173.8350  137.7840 C   0  0  0  0  0  1  0  0  0  0  0  0
  190.4940  173.4200  139.2990 C   0  0  0  0  0  2  0  0  0  0  0  0
  191.4660  172.3070  139.0910 C   0  0  0  0  0  0  0  0  0  0  0  0
  191.9840  171.6140  140.1770 O   0  0  0  0  0  1  0  0  0  0  0  0
  191.8440  172.0210  137.9260 O   0  0  0  0  0  0  0  0  0  0  0  0
  1 13  1  1  0  0  0
  1  8  1  0  0  0  0
  2 10  1  0  0  0  0
  3 34  1  6  0  0  0
  3  1  1  0  0  0  0
  3  2  1  0  0  0  0
  4  5  1  0  0  0  0
  5  7  1  0  0  0  0
  5 22  1  1  0  0  0
  6 10  1  6  0  0  0
  6  9  1  0  0  0  0
  8 12  1  0  0  0  0
  8  6  1  0  0  0  0
  9 11  1  0  0  0  0
 11  7  1  0  0  0  0
 12  4  1  0  0  0  0
 12 11  1  0  0  0  0
 13 16  1  0  0  0  0
 14 17  1  0  0  0  0
 14 21  1  0  0  0  0
 15 18  1  0  0  0  0
 16 17  2  0  0  0  0
 17 19  1  0  0  0  0
 18 14  2  0  0  0  0
 20 13  2  0  0  0  0
 20 18  1  0  0  0  0
 22 23  1  0  0  0  0
 24 22  2  0  0  0  0
 26 25  2  0  0  0  0
 26 24  1  0  0  0  0
 27 26  1  0  0  0  0
 28 33  1  0  0  0  0
 28 31  1  0  0  0  0
 29 32  1  0  0  0  0
 30 28  1  0  0  0  0
 30 32  1  0  0  0  0
 31 27  1  0  0  0  0
 32 31  1  0  0  0  0
 32 27  1  0  0  0  0
 33 31  1  0  0  0  0
 35 34  1  0  0  0  0
 35 36  1  0  0  0  0
 37 34  1  0  0  0  0
 38 37  1  0  0  0  0
 39 38  1  0  0  0  0
 40 37  1  0  0  0  0
 41 40  1  0  0  0  0
 41 42  1  0  0  0  0
 43 41  2  0  0  0  0
M  END
>  <MODEL>
7

>  <REMARK>
 VINA RESULT:      -7.2      2.702      5.939
  Name = 
  10 active torsions:
  status: ('A' for Active; 'I' for Inactive)
    1  A    between atoms: C_1  and  C_2
    2  A    between atoms: C_3  and  C_33
    3  A    between atoms: C_5  and  C_26
    4  A    between atoms: C_9  and  C_30
    5  A    between atoms: C_12  and  C_14
    6  A    between atoms: C_18  and  N_43
    7  A    between atoms: O_19  and  C_30
    8  A    between atoms: C_24  and  C_26
    9  A    between atoms: C_30  and  N_43
   10  A    between atoms: C_33  and  N_43
                            x       y       z     vdW  Elec       q    Type
                         _______ _______ _______ _____ _____    ______ ____

>  <TORSDO>
F 10

$$$$
=
 OpenBabel11062418443D

 43 49  0  0  1  0  0  0  0  0999 V2000
  191.6580  175.3570  144.2950 C   0  0  1  0  0  3  0  0  0  0  0  0
  193.3130  173.5530  145.1350 C   0  0  0  0  0  2  0  0  0  0  0  0
  192.8990  175.0330  145.1590 C   0  0  1  0  0  3  0  0  0  0  0  0
  190.3990  174.5360  140.9220 C   0  0  0  0  0  2  0  0  0  0  0  0
  190.1820  173.1050  140.4900 C   0  0  1  0  0  3  0  0  0  0  0  0
  191.4100  172.8670  143.6570 C   0  0  2  0  0  3  0  0  0  0  0  0
  189.0790  172.5750  141.3750 C   0  0  0  0  0  2  0  0  0  0  0  0
  191.4220  174.3190  143.1740 C   0  0  1  0  0  3  0  0  0  0  0  0
  189.9580  172.4510  143.7050 C   0  0  0  0  0  2  0  0  0  0  0  0
  192.0970  172.6420  145.0070 C   0  0  0  0  0  2  0  0  0  0  0  0
  189.2300  173.3230  142.6910 C   0  0  1  0  0  3  0  0  0  0  0  0
  190.1190  174.5380  142.4140 C   0  0  2  0  0  3  0  0  0  0  0  0
  190.4480  175.6540  145.1400 C   0  0  0  0  0  0  0  0  0  0  0  0
  188.1220  176.1910  146.6120 C   0  0  0  0  0  0  0  0  0  0  0  0
  187.6740  178.0440  145.1630 F   0  0  0  0  0  0  0  0  0  0  0  0
  190.0970  174.8460  146.2310 C   0  0  0  0  0  3  0  0  0  0  0  0
  188.9410  175.1140  146.9660 C   0  0  0  0  0  0  0  0  0  0  0  0
  188.4690  177.0030  145.5240 C   0  0  0  0  0  0  0  0  0  0  0  0
  188.6110  174.3190  148.0130 F   0  0  0  0  0  0  0  0  0  0  0  0
  189.6210  176.7270  144.7850 C   0  0  0  0  0  3  0  0  0  0  0  0
  186.9650  176.4520  147.3350 O   0  0  0  0  0  1  0  0  0  0  0  0
  189.8850  172.9680  139.0300 C   0  0  0  0  0  0  0  0  0  0  0  0
  188.5640  173.4150  138.5030 C   0  0  0  0  0  1  0  0  0  0  0  0
  190.7730  172.4790  138.1550 C   0  0  0  0  0  3  0  0  0  0  0  0
  192.2470  170.8310  138.9460 O   0  0  0  0  0  0  0  0  0  0  0  0
  192.1370  171.9740  138.4250 C   0  0  0  0  0  0  0  0  0  0  0  0
  193.3780  172.7870  138.1480 C   0  0  1  0  0  3  0  0  0  0  0  0
  194.5190  175.1370  138.8710 C   0  0  2  0  0  3  0  0  0  0  0  0
  193.5550  172.8660  140.6430 O   0  0  0  0  0  1  0  0  0  0  0  0
  195.3470  173.9980  139.3810 C   0  0  0  0  0  2  0  0  0  0  0  0
  193.2960  174.2070  138.7020 C   0  0  1  0  0  0  0  0  0  0  0  0
  194.1380  173.1040  139.3940 C   0  0  1  0  0  0  0  0  0  0  0  0
  193.9470  174.9190  137.5220 C   0  0  0  0  0  2  0  0  0  0  0  0
  194.1040  175.9190  144.8140 C   0  0  1  0  0  3  0  0  0  0  0  0
  194.7820  176.3610  145.9620 O   0  0  0  0  0  0  0  0  0  0  0  0
  193.7780  176.7910  146.8310 C   0  0  0  0  0  1  0  0  0  0  0  0
  194.9980  175.2600  143.8510 N   0  0  0  0  0  0  0  0  0  0  0  0
  194.8450  175.9300  142.5690 C   0  0  0  0  0  2  0  0  0  0  0  0
  196.1940  176.4280  142.0870 C   0  0  0  0  0  1  0  0  0  0  0  0
  196.3920  175.4020  144.2630 C   0  0  0  0  0  2  0  0  0  0  0  0
  196.9330  174.0900  144.7280 C   0  0  0  0  0  0  0  0  0  0  0  0
  196.9800  173.7910  146.0830 O   0  0  0  0  0  1  0  0  0  0  0  0
  197.3800  173.2680  143.8880 O   0  0  0  0  0  0  0  0  0  0  0  0
  1 13  1  1  0  0  0
  1  3  1  0  0  0  0
  2  3  1  0  0  0  0
  3 34  1  6  0  0  0
  4 12  1  0  0  0  0
  5 22  1  6  0  0  0
  5  4  1  0  0  0  0
  5  7  1  0  0  0  0
  6  9  1  1  0  0  0
  6 10  1  0  0  0  0
  7 11  1  0  0  0  0
  8  6  1  0  0  0  0
  8  1  1  0  0  0  0
 10  2  1  0  0  0  0
 11  9  1  0  0  0  0
 12 11  1  0  0  0  0
 12  8  1  0  0  0  0
 13 16  1  0  0  0  0
 14 17  1  0  0  0  0
 14 21  1  0  0  0  0
 15 18  1  0  0  0  0
 16 17  2  0  0  0  0
 17 19  1  0  0  0  0
 18 14  2  0  0  0  0
 20 13  2  0  0  0  0
 20 18  1  0  0  0  0
 23 22  1  0  0  0  0
 24 26  1  0  0  0  0
 24 22  2  0  0  0  0
 26 25  2  0  0  0  0
 27 26  1  0  0  0  0
 27 31  1  0  0  0  0
 27 32  1  0  0  0  0
 28 30  1  0  0  0  0
 30 32  1  0  0  0  0
 31 28  1  0  0  0  0
 31 32  1  0  0  0  0
 32 29  1  0  0  0  0
 33 31  1  0  0  0  0
 33 28  1  0  0  0  0
 34 35  1  0  0  0  0
 35 36  1  0  0  0  0
 37 40  1  0  0  0  0
 37 34  1  0  0  0  0
 38 37  1  0  0  0  0
 39 38  1  0  0  0  0
 40 41  1  0  0  0  0
 41 42  1  0  0  0  0
 43 41  2  0  0  0  0
M  END
>  <MODEL>
8

>  <REMARK>
 VINA RESULT:      -7.2      3.615      7.900
  Name = 
  10 active torsions:
  status: ('A' for Active; 'I' for Inactive)
    1  A    between atoms: C_1  and  C_2
    2  A    between atoms: C_3  and  C_33
    3  A    between atoms: C_5  and  C_26
    4  A    between atoms: C_9  and  C_30
    5  A    between atoms: C_12  and  C_14
    6  A    between atoms: C_18  and  N_43
    7  A    between atoms: O_19  and  C_30
    8  A    between atoms: C_24  and  C_26
    9  A    between atoms: C_30  and  N_43
   10  A    between atoms: C_33  and  N_43
                            x       y       z     vdW  Elec       q    Type
                         _______ _______ _______ _____ _____    ______ ____

>  <TORSDO>
F 10

$$$$
=
 OpenBabel11062418443D

 43 49  0  0  1  0  0  0  0  0999 V2000
  191.8190  174.5080  143.4590 C   0  0  1  0  0  3  0  0  0  0  0  0
  191.5890  174.4930  146.0380 C   0  0  0  0  0  2  0  0  0  0  0  0
  192.1520  173.7940  144.7910 C   0  0  1  0  0  3  0  0  0  0  0  0
  188.8750  176.0750  141.8740 C   0  0  0  0  0  2  0  0  0  0  0  0
  188.1370  177.2150  142.5360 C   0  0  1  0  0  3  0  0  0  0  0  0
  190.6020  176.3940  144.7380 C   0  0  2  0  0  3  0  0  0  0  0  0
  189.1180  178.3620  142.5810 C   0  0  0  0  0  2  0  0  0  0  0  0
  190.5700  175.4140  143.5630 C   0  0  1  0  0  3  0  0  0  0  0  0
  190.9540  177.7420  144.1510 C   0  0  0  0  0  2  0  0  0  0  0  0
  191.5690  176.0080  145.8600 C   0  0  0  0  0  2  0  0  0  0  0  0
  190.4880  177.7110  142.7020 C   0  0  1  0  0  3  0  0  0  0  0  0
  190.3200  176.2420  142.3080 C   0  0  2  0  0  3  0  0  0  0  0  0
  193.0290  175.1750  142.8620 C   0  0  0  0  0  0  0  0  0  0  0  0
  195.3560  176.3360  141.8130 C   0  0  0  0  0  0  0  0  0  0  0  0
  196.0780  176.8230  144.0430 F   0  0  0  0  0  0  0  0  0  0  0  0
  193.2410  175.2090  141.4770 C   0  0  0  0  0  3  0  0  0  0  0  0
  194.3990  175.7880  140.9530 C   0  0  0  0  0  0  0  0  0  0  0  0
  195.1480  176.3070  143.1980 C   0  0  0  0  0  0  0  0  0  0  0  0
  194.5940  175.8060  139.6120 F   0  0  0  0  0  0  0  0  0  0  0  0
  193.9940  175.7180  143.7200 C   0  0  0  0  0  3  0  0  0  0  0  0
  196.5140  176.9020  141.2940 O   0  0  0  0  0  1  0  0  0  0  0  0
  186.8530  177.5630  141.8530 C   0  0  0  0  0  0  0  0  0  0  0  0
  186.6980  177.2930  140.3950 C   0  0  0  0  0  1  0  0  0  0  0  0
  185.8090  178.0900  142.5040 C   0  0  0  0  0  3  0  0  0  0  0  0
  185.5330  179.6610  144.2280 O   0  0  0  0  0  0  0  0  0  0  0  0
  185.7120  178.4460  143.9370 C   0  0  0  0  0  0  0  0  0  0  0  0
  185.8670  177.4320  145.0430 C   0  0  1  0  0  3  0  0  0  0  0  0
  187.3820  176.9820  147.2450 C   0  0  2  0  0  3  0  0  0  0  0  0
  185.7440  179.4390  146.5330 O   0  0  0  0  0  1  0  0  0  0  0  0
  185.9670  177.2530  147.6550 C   0  0  0  0  0  2  0  0  0  0  0  0
  187.1350  177.6360  145.8650 C   0  0  1  0  0  0  0  0  0  0  0  0
  185.7380  178.0460  146.3980 C   0  0  1  0  0  0  0  0  0  0  0  0
  187.5140  176.1670  146.0140 C   0  0  0  0  0  2  0  0  0  0  0  0
  191.7360  172.3170  144.7850 C   0  0  1  0  0  3  0  0  0  0  0  0
  190.6770  172.0680  143.8960 O   0  0  0  0  0  0  0  0  0  0  0  0
  189.5530  171.9110  144.7080 C   0  0  0  0  0  1  0  0  0  0  0  0
  192.8870  171.4340  144.5490 N   0  0  0  0  0  0  0  0  0  0  0  0
  192.9080  171.0970  143.1340 C   0  0  0  0  0  2  0  0  0  0  0  0
  194.1170  171.7340  142.4740 C   0  0  0  0  0  1  0  0  0  0  0  0
  194.1370  172.1220  144.8610 C   0  0  0  0  0  2  0  0  0  0  0  0
  195.1050  171.1800  145.4940 C   0  0  0  0  0  0  0  0  0  0  0  0
  194.6760  170.2670  146.4490 O   0  0  0  0  0  1  0  0  0  0  0  0
  196.3230  171.2380  145.1850 O   0  0  0  0  0  0  0  0  0  0  0  0
  1 13  1  1  0  0  0
  1  8  1  0  0  0  0
  1  3  1  0  0  0  0
  3 34  1  6  0  0  0
  3  2  1  0  0  0  0
  4 12  1  0  0  0  0
  4  5  1  0  0  0  0
  5 22  1  6  0  0  0
  5  7  1  0  0  0  0
  6  9  1  6  0  0  0
  6 10  1  0  0  0  0
  7 11  1  0  0  0  0
  8  6  1  0  0  0  0
 10  2  1  0  0  0  0
 11  9  1  0  0  0  0
 12 11  1  0  0  0  0
 12  8  1  0  0  0  0
 13 20  1  0  0  0  0
 14 18  1  0  0  0  0
 16 13  2  0  0  0  0
 17 16  1  0  0  0  0
 17 14  2  0  0  0  0
 18 20  2  0  0  0  0
 18 15  1  0  0  0  0
 19 17  1  0  0  0  0
 21 14  1  0  0  0  0
 22 24  2  0  0  0  0
 23 22  1  0  0  0  0
 24 26  1  0  0  0  0
 26 25  2  0  0  0  0
 26 27  1  0  0  0  0
 27 31  1  0  0  0  0
 27 32  1  0  0  0  0
 28 30  1  0  0  0  0
 31 33  1  0  0  0  0
 31 32  1  0  0  0  0
 31 28  1  0  0  0  0
 32 29  1  0  0  0  0
 32 30  1  0  0  0  0
 33 28  1  0  0  0  0
 35 36  1  0  0  0  0
 35 34  1  0  0  0  0
 37 34  1  0  0  0  0
 37 40  1  0  0  0  0
 38 37  1  0  0  0  0
 39 38  1  0  0  0  0
 40 41  1  0  0  0  0
 41 42  1  0  0  0  0
 43 41  2  0  0  0  0
M  END
>  <MODEL>
9

>  <REMARK>
 VINA RESULT:      -7.2      2.796      4.184
  Name = 
  10 active torsions:
  status: ('A' for Active; 'I' for Inactive)
    1  A    between atoms: C_1  and  C_2
    2  A    between atoms: C_3  and  C_33
    3  A    between atoms: C_5  and  C_26
    4  A    between atoms: C_9  and  C_30
    5  A    between atoms: C_12  and  C_14
    6  A    between atoms: C_18  and  N_43
    7  A    between atoms: O_19  and  C_30
    8  A    between atoms: C_24  and  C_26
    9  A    between atoms: C_30  and  N_43
   10  A    between atoms: C_33  and  N_43
                            x       y       z     vdW  Elec       q    Type
                         _______ _______ _______ _____ _____    ______ ____

>  <TORSDO>
F 10

$$$$
