=
 OpenBabel11062420243D

 49 52  0  0  1  0  0  0  0  0999 V2000
  191.5690  173.4470  145.2610 O   0  0  0  0  0  1  0  0  0  0  0  0
  193.5990  176.3470  145.9640 C   0  0  0  0  0  3  0  0  0  0  0  0
  191.2250  175.0430  147.0090 C   0  0  2  0  0  3  0  0  0  0  0  0
  192.8450  176.9910  146.9930 N   0  0  0  0  0  2  0  0  0  0  0  0
  191.6400  176.4110  147.4910 C   0  0  0  0  0  0  0  0  0  0  0  0
  193.1320  175.2710  145.3260 C   0  0  0  0  0  0  0  0  0  0  0  0
  190.9950  177.0060  148.3940 O   0  0  0  0  0  0  0  0  0  0  0  0
  191.7100  174.7990  145.5730 C   0  0  1  0  0  3  0  0  0  0  0  0
  193.9790  174.7250  144.2120 C   0  0  2  0  0  3  0  0  0  0  0  0
  195.9670  171.5340  144.6760 C   0  0  0  0  0  3  0  0  0  0  0  0
  195.0550  173.7810  144.6600 C   0  0  0  0  0  0  0  0  0  0  0  0
  197.0120  171.9610  145.5010 C   0  0  0  0  0  3  0  0  0  0  0  0
  197.0810  173.2970  145.9090 C   0  0  0  0  0  3  0  0  0  0  0  0
  196.1030  174.2050  145.4920 C   0  0  0  0  0  3  0  0  0  0  0  0
  194.9900  172.4420  144.2570 C   0  0  0  0  0  3  0  0  0  0  0  0
  194.3970  175.7390  143.1820 C   0  0  0  0  0  0  0  0  0  0  0  0
  193.6090  176.1500  142.3430 O   0  0  0  0  0  0  0  0  0  0  0  0
  195.8090  176.2320  143.1780 C   0  0  0  0  0  2  0  0  0  0  0  0
  196.2060  176.7380  141.7960 C   0  0  0  0  0  2  0  0  0  0  0  0
  196.1910  175.3990  139.7680 C   0  0  0  0  0  3  0  0  0  0  0  0
  196.7600  175.6330  140.9590 C   0  0  0  0  0  0  0  0  0  0  0  0
  197.6900  173.2010  137.4180 C   0  0  0  0  0  3  0  0  0  0  0  0
  195.8850  173.2280  138.6730 C   0  0  0  0  0  3  0  0  0  0  0  0
  196.5680  172.4550  137.7490 C   0  0  0  0  0  3  0  0  0  0  0  0
  197.6710  174.3550  138.1100 N   0  0  0  0  0  0  0  0  0  0  0  0
  196.5790  174.3630  138.8540 N   0  0  0  0  0  0  0  0  0  0  0  0
  197.5130  173.4590  141.8720 C   0  0  0  0  0  1  0  0  0  0  0  0
  197.9330  174.8640  141.4820 C   0  0  0  0  0  2  0  0  0  0  0  0
  189.7130  174.8470  147.0680 C   0  0  0  0  0  2  0  0  0  0  0  0
  186.7040  176.7980  146.6620 C   0  0  0  0  0  3  0  0  0  0  0  0
  187.8670  176.2630  146.3860 C   0  0  0  0  0  0  0  0  0  0  0  0
  189.0320  175.7520  146.1040 C   0  0  0  0  0  3  0  0  0  0  0  0
  186.0830  177.9000  145.8500 C   0  0  2  0  0  3  0  0  0  0  0  0
  185.3520  178.8560  146.7730 C   0  0  0  0  0  1  0  0  0  0  0  0
  185.1250  177.3950  144.7720 C   0  0  0  0  0  2  0  0  0  0  0  0
  185.4330  178.0310  143.4250 C   0  0  2  0  0  3  0  0  0  0  0  0
  184.2650  177.8280  142.4810 C   0  0  0  0  0  1  0  0  0  0  0  0
  188.2400  175.9080  142.0330 C   0  0  1  0  0  3  0  0  0  0  0  0
  186.9600  176.0530  142.8720 C   0  0  0  0  0  2  0  0  0  0  0  0
  188.8710  177.3190  141.9160 C   0  0  1  0  0  3  0  0  0  0  0  0
  186.6520  177.4680  142.8530 N   0  0  0  0  0  0  0  0  0  0  0  0
  187.7330  178.1870  142.2850 C   0  0  0  0  0  0  0  0  0  0  0  0
  187.7210  179.4370  142.1210 O   0  0  0  0  0  0  0  0  0  0  0  0
  190.1370  174.5100  141.5860 O   0  0  0  0  0  1  0  0  0  0  0  0
  189.1620  174.7970  142.5460 C   0  0  2  0  0  3  0  0  0  0  0  0
  189.2950  172.4710  142.6590 C   0  0  0  0  0  1  0  0  0  0  0  0
  188.3930  173.5950  142.8220 N   0  0  0  0  0  2  0  0  0  0  0  0
  189.9650  177.5480  142.8790 C   0  0  0  0  0  0  0  0  0  0  0  0
  190.8590  177.7370  143.6660 C   0  0  0  0  0  3  0  0  0  0  0  0
  2  4  1  0  0  0  0
  3 29  1  6  0  0  0
  3  5  1  0  0  0  0
  4  5  1  0  0  0  0
  5  7  2  0  0  0  0
  6  8  1  0  0  0  0
  6  2  2  0  0  0  0
  8  1  1  1  0  0  0
  8  3  1  0  0  0  0
  9 16  1  1  0  0  0
  9 11  1  0  0  0  0
  9  6  1  0  0  0  0
 10 12  1  0  0  0  0
 11 14  2  0  0  0  0
 12 13  2  0  0  0  0
 14 13  1  0  0  0  0
 15 11  1  0  0  0  0
 15 10  2  0  0  0  0
 17 16  2  0  0  0  0
 18 16  1  0  0  0  0
 19 18  1  0  0  0  0
 20 21  2  0  0  0  0
 21 28  1  0  0  0  0
 21 19  1  0  0  0  0
 22 24  1  0  0  0  0
 22 25  2  0  0  0  0
 23 26  1  0  0  0  0
 24 23  2  0  0  0  0
 25 26  1  0  0  0  0
 26 20  1  0  0  0  0
 28 27  1  0  0  0  0
 31 30  2  0  0  0  0
 32 31  2  0  0  0  0
 32 29  1  0  0  0  0
 33 30  1  0  0  0  0
 33 34  1  1  0  0  0
 35 33  1  0  0  0  0
 36 37  1  6  0  0  0
 36 35  1  0  0  0  0
 38 45  1  1  0  0  0
 38 39  1  0  0  0  0
 40 38  1  0  0  0  0
 40 42  1  0  0  0  0
 40 48  1  1  0  0  0
 41 39  1  0  0  0  0
 41 36  1  0  0  0  0
 42 41  1  0  0  0  0
 43 42  2  0  0  0  0
 45 44  1  6  0  0  0
 45 47  1  0  0  0  0
 46 47  1  0  0  0  0
 48 49  3  0  0  0  0
M  END
>  <MODEL>
1

>  <REMARK>
 VINA RESULT:      -6.7      0.000      0.000
  Name = 
  17 active torsions:
  status: ('A' for Active; 'I' for Inactive)
    1  A    between atoms: C_4  and  C_17
    2  A    between atoms: C_5  and  C_8
    3  A    between atoms: C_5  and  C_13
    4  A    between atoms: C_5  and  C_31
    5  A    between atoms: C_6  and  C_42
    6  A    between atoms: C_6  and  C_48
    7  A    between atoms: C_7  and  C_26
    8  A    between atoms: C_8  and  C_48
    9  A    between atoms: C_9  and  C_45
   10  A    between atoms: C_11  and  C_41
   11  A    between atoms: C_16  and  N_18
   12  A    between atoms: C_16  and  C_39
   13  A    between atoms: C_26  and  C_39
   14  A    between atoms: C_29  and  N_38
   15  A    between atoms: C_34  and  C_41
   16  A    between atoms: C_37  and  C_42
   17  A    between atoms: N_44  and  C_45
                            x       y       z     vdW  Elec       q    Type
                         _______ _______ _______ _____ _____    ______ ____

>  <TORSDO>
F 17

$$$$
=
 OpenBabel11062420243D

 49 52  0  0  1  0  0  0  0  0999 V2000
  194.3690  173.0010  142.6300 O   0  0  0  0  0  1  0  0  0  0  0  0
  195.2750  175.9470  144.5080 C   0  0  0  0  0  3  0  0  0  0  0  0
  195.2380  175.0480  141.7470 C   0  0  2  0  0  3  0  0  0  0  0  0
  195.8600  176.7710  143.4970 N   0  0  0  0  0  0  0  0  0  0  0  0
  195.9150  176.3380  142.1390 C   0  0  0  0  0  0  0  0  0  0  0  0
  194.9010  174.6900  144.2530 C   0  0  1  0  0  3  0  0  0  0  0  0
  196.4430  177.0840  141.2730 O   0  0  0  0  0  0  0  0  0  0  0  0
  195.2380  174.0530  142.9170 C   0  0  1  0  0  3  0  0  0  0  0  0
  194.3680  173.8970  145.4120 C   0  0  2  0  0  3  0  0  0  0  0  0
  194.8210  170.1690  145.9070 C   0  0  0  0  0  3  0  0  0  0  0  0
  195.0310  172.5660  145.6080 C   0  0  0  0  0  0  0  0  0  0  0  0
  196.2110  170.0570  146.0170 C   0  0  0  0  0  3  0  0  0  0  0  0
  197.0140  171.1990  145.9250 C   0  0  0  0  0  3  0  0  0  0  0  0
  196.4250  172.4510  145.7240 C   0  0  0  0  0  3  0  0  0  0  0  0
  194.2330  171.4200  145.7040 C   0  0  0  0  0  3  0  0  0  0  0  0
  192.8690  173.8970  145.5410 C   0  0  0  0  0  0  0  0  0  0  0  0
  192.1760  173.1670  144.8480 O   0  0  0  0  0  0  0  0  0  0  0  0
  192.2240  174.8250  146.5190 C   0  0  0  0  0  2  0  0  0  0  0  0
  191.6910  176.0700  145.8200 C   0  0  0  0  0  2  0  0  0  0  0  0
  189.6220  177.3440  145.8460 C   0  0  0  0  0  3  0  0  0  0  0  0
  190.2020  176.1370  145.9040 C   0  0  0  0  0  0  0  0  0  0  0  0
  186.2370  177.9440  146.7290 C   0  0  0  0  0  3  0  0  0  0  0  0
  187.4190  177.8190  144.8800 C   0  0  0  0  0  3  0  0  0  0  0  0
  186.1370  178.0450  145.3500 C   0  0  0  0  0  3  0  0  0  0  0  0
  187.5120  177.6700  147.0590 N   0  0  0  0  0  0  0  0  0  0  0  0
  188.2110  177.5900  145.9400 N   0  0  0  0  0  0  0  0  0  0  0  0
  189.0340  174.6120  147.4660 C   0  0  0  0  0  1  0  0  0  0  0  0
  189.4380  174.8560  146.0240 C   0  0  0  0  0  2  0  0  0  0  0  0
  195.8970  174.3970  140.5350 C   0  0  0  0  0  2  0  0  0  0  0  0
  193.2600  174.6380  138.0830 C   0  0  0  0  0  3  0  0  0  0  0  0
  194.0870  174.1060  138.9490 C   0  0  0  0  0  0  0  0  0  0  0  0
  194.9150  173.5610  139.7940 C   0  0  0  0  0  3  0  0  0  0  0  0
  192.4210  173.8300  137.1320 C   0  0  2  0  0  3  0  0  0  0  0  0
  192.8250  174.1520  135.7070 C   0  0  0  0  0  1  0  0  0  0  0  0
  190.9200  174.0560  137.3030 C   0  0  0  0  0  2  0  0  0  0  0  0
  190.2730  172.8930  138.0420 C   0  0  2  0  0  3  0  0  0  0  0  0
  189.0430  172.4250  137.2880 C   0  0  0  0  0  1  0  0  0  0  0  0
  188.6910  174.0960  141.2620 C   0  0  1  0  0  3  0  0  0  0  0  0
  188.7490  174.0720  139.7260 C   0  0  0  0  0  2  0  0  0  0  0  0
  190.0880  173.6680  141.7790 C   0  0  1  0  0  3  0  0  0  0  0  0
  189.9170  173.2790  139.4030 N   0  0  0  0  0  0  0  0  0  0  0  0
  190.6670  173.0290  140.5790 C   0  0  0  0  0  0  0  0  0  0  0  0
  191.7210  172.3370  140.5910 O   0  0  0  0  0  0  0  0  0  0  0  0
  187.0060  175.1690  142.5910 O   0  0  0  0  0  1  0  0  0  0  0  0
  188.1410  175.4160  141.8140 C   0  0  2  0  0  3  0  0  0  0  0  0
  187.8050  177.6560  141.2590 C   0  0  0  0  0  1  0  0  0  0  0  0
  187.7900  176.3080  140.7230 N   0  0  0  0  0  2  0  0  0  0  0  0
  190.9420  174.8090  142.1590 C   0  0  0  0  0  0  0  0  0  0  0  0
  191.6400  175.7420  142.4700 C   0  0  0  0  0  3  0  0  0  0  0  0
  3 29  1  6  0  0  0
  3  5  1  0  0  0  0
  3  8  1  0  0  0  0
  4  2  2  0  0  0  0
  5  4  1  0  0  0  0
  6  2  1  0  0  0  0
  6  9  1  1  0  0  0
  7  5  2  0  0  0  0
  8  1  1  6  0  0  0
  8  6  1  0  0  0  0
  9 16  1  6  0  0  0
  9 11  1  0  0  0  0
 10 12  1  0  0  0  0
 11 15  1  0  0  0  0
 11 14  2  0  0  0  0
 13 12  2  0  0  0  0
 14 13  1  0  0  0  0
 15 10  2  0  0  0  0
 16 18  1  0  0  0  0
 17 16  2  0  0  0  0
 19 21  1  0  0  0  0
 19 18  1  0  0  0  0
 20 21  2  0  0  0  0
 20 26  1  0  0  0  0
 21 28  1  0  0  0  0
 22 25  2  0  0  0  0
 23 24  2  0  0  0  0
 23 26  1  0  0  0  0
 24 22  1  0  0  0  0
 26 25  1  0  0  0  0
 28 27  1  0  0  0  0
 30 31  2  0  0  0  0
 31 32  2  0  0  0  0
 32 29  1  0  0  0  0
 33 34  1  6  0  0  0
 33 35  1  0  0  0  0
 33 30  1  0  0  0  0
 35 36  1  0  0  0  0
 36 37  1  6  0  0  0
 36 41  1  0  0  0  0
 38 40  1  0  0  0  0
 38 45  1  6  0  0  0
 39 38  1  0  0  0  0
 40 48  1  6  0  0  0
 41 39  1  0  0  0  0
 41 42  1  0  0  0  0
 42 43  2  0  0  0  0
 42 40  1  0  0  0  0
 45 44  1  6  0  0  0
 47 46  1  0  0  0  0
 47 45  1  0  0  0  0
 48 49  3  0  0  0  0
M  END
>  <MODEL>
2

>  <REMARK>
 VINA RESULT:      -6.2      2.539      7.591
  Name = 
  17 active torsions:
  status: ('A' for Active; 'I' for Inactive)
    1  A    between atoms: C_4  and  C_17
    2  A    between atoms: C_5  and  C_8
    3  A    between atoms: C_5  and  C_13
    4  A    between atoms: C_5  and  C_31
    5  A    between atoms: C_6  and  C_42
    6  A    between atoms: C_6  and  C_48
    7  A    between atoms: C_7  and  C_26
    8  A    between atoms: C_8  and  C_48
    9  A    between atoms: C_9  and  C_45
   10  A    between atoms: C_11  and  C_41
   11  A    between atoms: C_16  and  N_18
   12  A    between atoms: C_16  and  C_39
   13  A    between atoms: C_26  and  C_39
   14  A    between atoms: C_29  and  N_38
   15  A    between atoms: C_34  and  C_41
   16  A    between atoms: C_37  and  C_42
   17  A    between atoms: N_44  and  C_45
                            x       y       z     vdW  Elec       q    Type
                         _______ _______ _______ _____ _____    ______ ____

>  <TORSDO>
F 17

$$$$
=
 OpenBabel11062420243D

 49 52  0  0  1  0  0  0  0  0999 V2000
  191.4240  173.1600  145.1850 O   0  0  0  0  0  1  0  0  0  0  0  0
  193.5290  176.0890  145.2830 C   0  0  0  0  0  3  0  0  0  0  0  0
  191.2960  174.9600  146.7550 C   0  0  2  0  0  3  0  0  0  0  0  0
  192.9070  176.8650  146.3100 N   0  0  0  0  0  2  0  0  0  0  0  0
  191.7700  176.3690  147.0150 C   0  0  0  0  0  0  0  0  0  0  0  0
  192.9860  174.9520  144.8400 C   0  0  0  0  0  0  0  0  0  0  0  0
  191.2400  177.0790  147.9100 O   0  0  0  0  0  0  0  0  0  0  0  0
  191.6040  174.5380  145.3120 C   0  0  1  0  0  3  0  0  0  0  0  0
  193.6910  174.2640  143.7070 C   0  0  2  0  0  3  0  0  0  0  0  0
  197.4610  174.3680  144.0650 C   0  0  0  0  0  3  0  0  0  0  0  0
  195.1190  174.6840  143.5210 C   0  0  0  0  0  0  0  0  0  0  0  0
  197.8000  175.4520  143.2490 C   0  0  0  0  0  3  0  0  0  0  0  0
  196.8010  176.1550  142.5690 C   0  0  0  0  0  3  0  0  0  0  0  0
  195.4630  175.7750  142.7070 C   0  0  0  0  0  3  0  0  0  0  0  0
  196.1230  173.9860  144.2020 C   0  0  0  0  0  3  0  0  0  0  0  0
  192.8850  174.1400  142.4430 C   0  0  0  0  0  0  0  0  0  0  0  0
  192.0510  174.9810  142.1400 O   0  0  0  0  0  0  0  0  0  0  0  0
  193.0960  172.9530  141.5590 C   0  0  0  0  0  2  0  0  0  0  0  0
  192.5160  171.6930  142.1900 C   0  0  0  0  0  2  0  0  0  0  0  0
  193.1560  170.4590  144.1840 C   0  0  0  0  0  3  0  0  0  0  0  0
  193.5400  170.9820  143.0110 C   0  0  0  0  0  0  0  0  0  0  0  0
  195.5470  169.3540  146.5620 C   0  0  0  0  0  3  0  0  0  0  0  0
  193.8790  168.4780  145.4320 C   0  0  0  0  0  3  0  0  0  0  0  0
  194.8540  168.1700  146.3650 C   0  0  0  0  0  3  0  0  0  0  0  0
  195.0110  170.3130  145.7850 N   0  0  0  0  0  0  0  0  0  0  0  0
  194.0150  169.7730  145.1060 N   0  0  0  0  0  0  0  0  0  0  0  0
  195.1340  169.5310  141.7920 C   0  0  0  0  0  1  0  0  0  0  0  0
  194.9330  170.8730  142.4720 C   0  0  0  0  0  2  0  0  0  0  0  0
  189.8030  174.7980  147.0190 C   0  0  0  0  0  2  0  0  0  0  0  0
  186.7610  176.7320  146.8320 C   0  0  0  0  0  3  0  0  0  0  0  0
  187.8870  176.1740  146.4600 C   0  0  0  0  0  0  0  0  0  0  0  0
  189.0130  175.6410  146.0810 C   0  0  0  0  0  3  0  0  0  0  0  0
  186.0480  177.7810  146.0250 C   0  0  2  0  0  3  0  0  0  0  0  0
  185.2270  178.6560  146.9510 C   0  0  0  0  0  1  0  0  0  0  0  0
  185.1480  177.2020  144.9350 C   0  0  0  0  0  2  0  0  0  0  0  0
  185.2420  178.0220  143.6570 C   0  0  2  0  0  3  0  0  0  0  0  0
  183.9710  177.8570  142.8460 C   0  0  0  0  0  1  0  0  0  0  0  0
  187.8920  176.3200  141.5590 C   0  0  1  0  0  3  0  0  0  0  0  0
  186.6810  176.2480  142.5040 C   0  0  0  0  0  2  0  0  0  0  0  0
  188.5420  177.7130  141.7550 C   0  0  1  0  0  3  0  0  0  0  0  0
  186.4020  177.6210  142.8680 N   0  0  0  0  0  0  0  0  0  0  0  0
  187.4530  178.4600  142.4190 C   0  0  0  0  0  0  0  0  0  0  0  0
  187.4540  179.7100  142.5790 O   0  0  0  0  0  0  0  0  0  0  0  0
  188.7650  174.3290  140.5450 O   0  0  0  0  0  1  0  0  0  0  0  0
  188.8260  175.1130  141.7000 C   0  0  2  0  0  3  0  0  0  0  0  0
  188.8500  172.9470  142.5650 C   0  0  0  0  0  1  0  0  0  0  0  0
  188.4380  174.3090  142.8460 N   0  0  0  0  0  2  0  0  0  0  0  0
  189.7090  177.6890  142.6570 C   0  0  0  0  0  0  0  0  0  0  0  0
  190.6630  177.6680  143.3950 C   0  0  0  0  0  3  0  0  0  0  0  0
  2  4  1  0  0  0  0
  3  5  1  0  0  0  0
  3 29  1  6  0  0  0
  4  5  1  0  0  0  0
  5  7  2  0  0  0  0
  6  2  2  0  0  0  0
  6  8  1  0  0  0  0
  8  1  1  1  0  0  0
  8  3  1  0  0  0  0
  9 16  1  6  0  0  0
  9  6  1  0  0  0  0
 10 15  1  0  0  0  0
 11  9  1  0  0  0  0
 11 15  2  0  0  0  0
 12 10  2  0  0  0  0
 13 14  2  0  0  0  0
 13 12  1  0  0  0  0
 14 11  1  0  0  0  0
 17 16  2  0  0  0  0
 18 19  1  0  0  0  0
 18 16  1  0  0  0  0
 19 21  1  0  0  0  0
 20 26  1  0  0  0  0
 21 20  2  0  0  0  0
 23 24  2  0  0  0  0
 24 22  1  0  0  0  0
 25 22  2  0  0  0  0
 26 23  1  0  0  0  0
 26 25  1  0  0  0  0
 27 28  1  0  0  0  0
 28 21  1  0  0  0  0
 31 30  2  0  0  0  0
 32 31  2  0  0  0  0
 32 29  1  0  0  0  0
 33 30  1  0  0  0  0
 33 34  1  1  0  0  0
 35 33  1  0  0  0  0
 36 37  1  6  0  0  0
 36 35  1  0  0  0  0
 38 45  1  1  0  0  0
 38 40  1  0  0  0  0
 38 39  1  0  0  0  0
 39 41  1  0  0  0  0
 40 42  1  0  0  0  0
 40 48  1  1  0  0  0
 41 36  1  0  0  0  0
 42 43  2  0  0  0  0
 42 41  1  0  0  0  0
 45 44  1  6  0  0  0
 45 47  1  0  0  0  0
 46 47  1  0  0  0  0
 48 49  3  0  0  0  0
M  END
>  <MODEL>
3

>  <REMARK>
 VINA RESULT:      -6.1      2.433      3.779
  Name = 
  17 active torsions:
  status: ('A' for Active; 'I' for Inactive)
    1  A    between atoms: C_4  and  C_17
    2  A    between atoms: C_5  and  C_8
    3  A    between atoms: C_5  and  C_13
    4  A    between atoms: C_5  and  C_31
    5  A    between atoms: C_6  and  C_42
    6  A    between atoms: C_6  and  C_48
    7  A    between atoms: C_7  and  C_26
    8  A    between atoms: C_8  and  C_48
    9  A    between atoms: C_9  and  C_45
   10  A    between atoms: C_11  and  C_41
   11  A    between atoms: C_16  and  N_18
   12  A    between atoms: C_16  and  C_39
   13  A    between atoms: C_26  and  C_39
   14  A    between atoms: C_29  and  N_38
   15  A    between atoms: C_34  and  C_41
   16  A    between atoms: C_37  and  C_42
   17  A    between atoms: N_44  and  C_45
                            x       y       z     vdW  Elec       q    Type
                         _______ _______ _______ _____ _____    ______ ____

>  <TORSDO>
F 17

$$$$
=
 OpenBabel11062420243D

 49 52  0  0  1  0  0  0  0  0999 V2000
  191.9920  174.0190  140.4290 O   0  0  0  0  0  1  0  0  0  0  0  0
  190.1470  171.7990  142.5940 C   0  0  0  0  0  3  0  0  0  0  0  0
  192.4260  171.6960  140.7980 C   0  0  2  0  0  3  0  0  0  0  0  0
  190.7490  170.5360  142.3020 N   0  0  0  0  0  2  0  0  0  0  0  0
  191.8320  170.4370  141.3780 C   0  0  0  0  0  0  0  0  0  0  0  0
  190.4660  172.9000  141.9080 C   0  0  0  0  0  0  0  0  0  0  0  0
  192.3370  169.3080  141.1370 O   0  0  0  0  0  0  0  0  0  0  0  0
  191.3650  172.8000  140.6890 C   0  0  1  0  0  3  0  0  0  0  0  0
  189.7140  174.1530  142.2550 C   0  0  2  0  0  3  0  0  0  0  0  0
  190.7540  176.2850  145.2080 C   0  0  0  0  0  3  0  0  0  0  0  0
  189.9040  174.6150  143.6700 C   0  0  0  0  0  0  0  0  0  0  0  0
  190.3260  175.5110  146.2910 C   0  0  0  0  0  3  0  0  0  0  0  0
  189.6880  174.2870  146.0660 C   0  0  0  0  0  3  0  0  0  0  0  0
  189.4800  173.8380  144.7590 C   0  0  0  0  0  3  0  0  0  0  0  0
  190.5450  175.8380  143.9000 C   0  0  0  0  0  3  0  0  0  0  0  0
  188.3010  174.2030  141.7430 C   0  0  0  0  0  0  0  0  0  0  0  0
  187.9930  173.6740  140.6850 O   0  0  0  0  0  0  0  0  0  0  0  0
  187.2650  174.9330  142.5370 C   0  0  0  0  0  2  0  0  0  0  0  0
  187.2760  176.4220  142.2080 C   0  0  0  0  0  2  0  0  0  0  0  0
  186.9480  176.7640  144.5920 C   0  0  0  0  0  3  0  0  0  0  0  0
  186.7510  177.2280  143.3500 C   0  0  0  0  0  0  0  0  0  0  0  0
  185.2050  178.2260  147.3170 C   0  0  0  0  0  3  0  0  0  0  0  0
  187.2910  177.7590  146.8050 C   0  0  0  0  0  3  0  0  0  0  0  0
  186.5010  178.3040  147.8030 C   0  0  0  0  0  3  0  0  0  0  0  0
  185.2270  177.6650  146.0940 N   0  0  0  0  0  0  0  0  0  0  0  0
  186.4850  177.3960  145.7940 N   0  0  0  0  0  0  0  0  0  0  0  0
  185.4140  178.4670  141.6740 C   0  0  0  0  0  1  0  0  0  0  0  0
  186.0560  178.5190  143.0480 C   0  0  0  0  0  2  0  0  0  0  0  0
  193.0480  171.4600  139.4250 C   0  0  0  0  0  2  0  0  0  0  0  0
  195.6370  173.9630  139.1930 C   0  0  0  0  0  3  0  0  0  0  0  0
  195.0730  172.7890  139.3320 C   0  0  0  0  0  0  0  0  0  0  0  0
  194.5260  171.6180  139.4880 C   0  0  0  0  0  3  0  0  0  0  0  0
  197.0880  174.2270  139.4880 C   0  0  2  0  0  3  0  0  0  0  0  0
  197.8910  172.9660  139.2340 C   0  0  0  0  0  1  0  0  0  0  0  0
  197.3400  174.7170  140.9130 C   0  0  0  0  0  2  0  0  0  0  0  0
  196.1650  175.5370  141.4240 C   0  0  2  0  0  3  0  0  0  0  0  0
  196.4670  177.0160  141.2760 C   0  0  0  0  0  1  0  0  0  0  0  0
  196.1530  174.5280  145.0710 C   0  0  1  0  0  3  0  0  0  0  0  0
  196.7960  174.4970  143.6760 C   0  0  0  0  0  2  0  0  0  0  0  0
  194.6600  174.8970  144.8790 C   0  0  1  0  0  3  0  0  0  0  0  0
  195.8770  175.2160  142.8190 N   0  0  0  0  0  0  0  0  0  0  0  0
  194.6670  175.4650  143.5140 C   0  0  0  0  0  0  0  0  0  0  0  0
  193.7010  176.1000  143.0120 O   0  0  0  0  0  0  0  0  0  0  0  0
  197.1780  173.5780  147.0210 O   0  0  0  0  0  1  0  0  0  0  0  0
  196.4340  173.2580  145.8820 C   0  0  2  0  0  3  0  0  0  0  0  0
  196.4960  171.0280  145.1980 C   0  0  0  0  0  1  0  0  0  0  0  0
  197.1770  172.3030  145.0770 N   0  0  0  0  0  2  0  0  0  0  0  0
  193.7640  173.7250  144.8920 C   0  0  0  0  0  0  0  0  0  0  0  0
  193.0320  172.7670  144.9020 C   0  0  0  0  0  3  0  0  0  0  0  0
  3 29  1  6  0  0  0
  3  5  1  0  0  0  0
  4  2  1  0  0  0  0
  5  4  1  0  0  0  0
  6  9  1  0  0  0  0
  6  2  2  0  0  0  0
  7  5  2  0  0  0  0
  8  1  1  1  0  0  0
  8  3  1  0  0  0  0
  8  6  1  0  0  0  0
  9 16  1  1  0  0  0
  9 11  1  0  0  0  0
 10 12  1  0  0  0  0
 11 15  1  0  0  0  0
 11 14  2  0  0  0  0
 13 12  2  0  0  0  0
 14 13  1  0  0  0  0
 15 10  2  0  0  0  0
 16 18  1  0  0  0  0
 17 16  2  0  0  0  0
 19 18  1  0  0  0  0
 19 21  1  0  0  0  0
 20 26  1  0  0  0  0
 21 20  2  0  0  0  0
 22 24  1  0  0  0  0
 23 24  2  0  0  0  0
 25 22  2  0  0  0  0
 26 25  1  0  0  0  0
 26 23  1  0  0  0  0
 27 28  1  0  0  0  0
 28 21  1  0  0  0  0
 29 32  1  0  0  0  0
 30 31  2  0  0  0  0
 30 33  1  0  0  0  0
 31 32  2  0  0  0  0
 33 34  1  1  0  0  0
 33 35  1  0  0  0  0
 35 36  1  0  0  0  0
 36 37  1  1  0  0  0
 36 41  1  0  0  0  0
 38 45  1  6  0  0  0
 39 38  1  0  0  0  0
 40 48  1  6  0  0  0
 40 38  1  0  0  0  0
 41 42  1  0  0  0  0
 41 39  1  0  0  0  0
 42 40  1  0  0  0  0
 43 42  2  0  0  0  0
 45 44  1  1  0  0  0
 47 46  1  0  0  0  0
 47 45  1  0  0  0  0
 48 49  3  0  0  0  0
M  END
>  <MODEL>
4

>  <REMARK>
 VINA RESULT:      -6.1      2.417      9.729
  Name = 
  17 active torsions:
  status: ('A' for Active; 'I' for Inactive)
    1  A    between atoms: C_4  and  C_17
    2  A    between atoms: C_5  and  C_8
    3  A    between atoms: C_5  and  C_13
    4  A    between atoms: C_5  and  C_31
    5  A    between atoms: C_6  and  C_42
    6  A    between atoms: C_6  and  C_48
    7  A    between atoms: C_7  and  C_26
    8  A    between atoms: C_8  and  C_48
    9  A    between atoms: C_9  and  C_45
   10  A    between atoms: C_11  and  C_41
   11  A    between atoms: C_16  and  N_18
   12  A    between atoms: C_16  and  C_39
   13  A    between atoms: C_26  and  C_39
   14  A    between atoms: C_29  and  N_38
   15  A    between atoms: C_34  and  C_41
   16  A    between atoms: C_37  and  C_42
   17  A    between atoms: N_44  and  C_45
                            x       y       z     vdW  Elec       q    Type
                         _______ _______ _______ _____ _____    ______ ____

>  <TORSDO>
F 17

$$$$
=
 OpenBabel11062420243D

 49 52  0  0  1  0  0  0  0  0999 V2000
  190.4970  178.1690  144.9830 O   0  0  0  0  0  1  0  0  0  0  0  0
  188.4090  175.4820  146.1850 C   0  0  0  0  0  3  0  0  0  0  0  0
  190.9180  176.7700  146.8780 C   0  0  2  0  0  3  0  0  0  0  0  0
  189.2180  174.9230  147.2220 N   0  0  0  0  0  2  0  0  0  0  0  0
  190.4850  175.4920  147.5510 C   0  0  0  0  0  0  0  0  0  0  0  0
  188.8680  176.4510  145.3880 C   0  0  0  0  0  0  0  0  0  0  0  0
  191.1770  174.9710  148.4660 O   0  0  0  0  0  0  0  0  0  0  0  0
  190.3240  176.8710  145.4650 C   0  0  1  0  0  3  0  0  0  0  0  0
  187.9540  176.9070  144.2860 C   0  0  2  0  0  3  0  0  0  0  0  0
  184.7530  177.5160  146.2170 C   0  0  0  0  0  3  0  0  0  0  0  0
  186.6920  177.5630  144.7630 C   0  0  0  0  0  0  0  0  0  0  0  0
  184.3030  178.7180  145.6620 C   0  0  0  0  0  3  0  0  0  0  0  0
  185.0450  179.3450  144.6550 C   0  0  0  0  0  3  0  0  0  0  0  0
  186.2360  178.7670  144.2040 C   0  0  0  0  0  3  0  0  0  0  0  0
  185.9440  176.9390  145.7670 C   0  0  0  0  0  3  0  0  0  0  0  0
  187.7870  175.9270  143.1580 C   0  0  0  0  0  0  0  0  0  0  0  0
  186.6790  175.5470  142.8100 O   0  0  0  0  0  0  0  0  0  0  0  0
  189.0040  175.3950  142.4700 C   0  0  0  0  0  2  0  0  0  0  0  0
  189.0530  173.8740  142.5460 C   0  0  0  0  0  2  0  0  0  0  0  0
  190.6800  172.0740  142.6780 C   0  0  0  0  0  3  0  0  0  0  0  0
  190.4480  173.3910  142.7650 C   0  0  0  0  0  0  0  0  0  0  0  0
  193.7800  170.3490  142.5600 C   0  0  0  0  0  3  0  0  0  0  0  0
  192.6440  171.5170  144.0350 C   0  0  0  0  0  3  0  0  0  0  0  0
  193.8270  170.8190  143.8640 C   0  0  0  0  0  3  0  0  0  0  0  0
  192.6280  170.7470  141.9900 N   0  0  0  0  0  0  0  0  0  0  0  0
  191.9510  171.4410  142.8880 N   0  0  0  0  0  0  0  0  0  0  0  0
  192.3450  174.6580  141.8010 C   0  0  0  0  0  1  0  0  0  0  0  0
  191.5150  174.4030  143.0460 C   0  0  0  0  0  2  0  0  0  0  0  0
  192.4360  176.8910  146.7950 C   0  0  0  0  0  2  0  0  0  0  0  0
  195.3400  174.9450  145.8980 C   0  0  0  0  0  3  0  0  0  0  0  0
  194.1560  175.4970  145.8070 C   0  0  0  0  0  0  0  0  0  0  0  0
  192.9690  176.0260  145.7090 C   0  0  0  0  0  3  0  0  0  0  0  0
  195.8320  173.8760  144.9620 C   0  0  2  0  0  3  0  0  0  0  0  0
  197.2820  173.5600  145.2760 C   0  0  0  0  0  1  0  0  0  0  0  0
  195.6980  174.2510  143.4870 C   0  0  0  0  0  2  0  0  0  0  0  0
  196.9600  174.9300  142.9790 C   0  0  2  0  0  3  0  0  0  0  0  0
  196.7550  176.4320  142.9380 C   0  0  0  0  0  1  0  0  0  0  0  0
  197.8470  174.3620  139.3440 C   0  0  1  0  0  3  0  0  0  0  0  0
  197.2280  175.2290  140.4510 C   0  0  0  0  0  2  0  0  0  0  0  0
  197.8860  172.9050  139.8720 C   0  0  1  0  0  3  0  0  0  0  0  0
  197.3200  174.4310  141.6550 N   0  0  0  0  0  0  0  0  0  0  0  0
  197.7190  173.1110  141.3260 C   0  0  0  0  0  0  0  0  0  0  0  0
  197.9040  172.2110  142.1890 O   0  0  0  0  0  0  0  0  0  0  0  0
  197.8790  175.5250  137.2460 O   0  0  0  0  0  1  0  0  0  0  0  0
  197.1750  174.5680  137.9830 C   0  0  2  0  0  3  0  0  0  0  0  0
  195.3260  175.4460  136.8630 C   0  0  0  0  0  1  0  0  0  0  0  0
  195.8040  175.0160  138.1630 N   0  0  0  0  0  2  0  0  0  0  0  0
  196.7640  172.0800  139.3850 C   0  0  0  0  0  0  0  0  0  0  0  0
  195.8470  171.4060  138.9880 C   0  0  0  0  0  3  0  0  0  0  0  0
  2  4  1  0  0  0  0
  3 29  1  6  0  0  0
  3  5  1  0  0  0  0
  4  5  1  0  0  0  0
  5  7  2  0  0  0  0
  6  8  1  0  0  0  0
  6  2  2  0  0  0  0
  8  1  1  1  0  0  0
  8  3  1  0  0  0  0
  9 16  1  1  0  0  0
  9 11  1  0  0  0  0
  9  6  1  0  0  0  0
 11 15  2  0  0  0  0
 12 10  2  0  0  0  0
 13 12  1  0  0  0  0
 14 13  2  0  0  0  0
 14 11  1  0  0  0  0
 15 10  1  0  0  0  0
 17 16  2  0  0  0  0
 18 19  1  0  0  0  0
 18 16  1  0  0  0  0
 19 21  1  0  0  0  0
 20 21  2  0  0  0  0
 20 26  1  0  0  0  0
 21 28  1  0  0  0  0
 22 24  1  0  0  0  0
 24 23  2  0  0  0  0
 25 22  2  0  0  0  0
 25 26  1  0  0  0  0
 26 23  1  0  0  0  0
 27 28  1  0  0  0  0
 31 30  2  0  0  0  0
 32 31  2  0  0  0  0
 32 29  1  0  0  0  0
 33 34  1  1  0  0  0
 33 30  1  0  0  0  0
 35 33  1  0  0  0  0
 36 37  1  6  0  0  0
 36 35  1  0  0  0  0
 38 45  1  6  0  0  0
 38 40  1  0  0  0  0
 38 39  1  0  0  0  0
 39 41  1  0  0  0  0
 40 48  1  6  0  0  0
 40 42  1  0  0  0  0
 41 36  1  0  0  0  0
 42 41  1  0  0  0  0
 42 43  2  0  0  0  0
 45 44  1  6  0  0  0
 45 47  1  0  0  0  0
 46 47  1  0  0  0  0
 49 48  3  0  0  0  0
M  END
>  <MODEL>
5

>  <REMARK>
 VINA RESULT:      -6.0      2.395      8.684
  Name = 
  17 active torsions:
  status: ('A' for Active; 'I' for Inactive)
    1  A    between atoms: C_4  and  C_17
    2  A    between atoms: C_5  and  C_8
    3  A    between atoms: C_5  and  C_13
    4  A    between atoms: C_5  and  C_31
    5  A    between atoms: C_6  and  C_42
    6  A    between atoms: C_6  and  C_48
    7  A    between atoms: C_7  and  C_26
    8  A    between atoms: C_8  and  C_48
    9  A    between atoms: C_9  and  C_45
   10  A    between atoms: C_11  and  C_41
   11  A    between atoms: C_16  and  N_18
   12  A    between atoms: C_16  and  C_39
   13  A    between atoms: C_26  and  C_39
   14  A    between atoms: C_29  and  N_38
   15  A    between atoms: C_34  and  C_41
   16  A    between atoms: C_37  and  C_42
   17  A    between atoms: N_44  and  C_45
                            x       y       z     vdW  Elec       q    Type
                         _______ _______ _______ _____ _____    ______ ____

>  <TORSDO>
F 17

$$$$
=
 OpenBabel11062420243D

 49 52  0  0  1  0  0  0  0  0999 V2000
  190.5420  178.2250  145.0080 O   0  0  0  0  0  1  0  0  0  0  0  0
  188.3730  175.5890  146.1790 C   0  0  0  0  0  3  0  0  0  0  0  0
  190.9410  176.7610  146.8580 C   0  0  2  0  0  3  0  0  0  0  0  0
  189.1770  174.9720  147.1860 N   0  0  0  0  0  2  0  0  0  0  0  0
  190.4710  175.4830  147.5060 C   0  0  0  0  0  0  0  0  0  0  0  0
  188.8550  176.5600  145.3990 C   0  0  0  0  0  0  0  0  0  0  0  0
  191.1580  174.9120  148.3940 O   0  0  0  0  0  0  0  0  0  0  0  0
  190.3280  176.9220  145.4600 C   0  0  1  0  0  3  0  0  0  0  0  0
  187.9400  177.0810  144.3270 C   0  0  2  0  0  3  0  0  0  0  0  0
  184.8280  177.6320  146.4140 C   0  0  0  0  0  3  0  0  0  0  0  0
  186.6720  177.6940  144.8410 C   0  0  0  0  0  0  0  0  0  0  0  0
  184.2760  178.7700  145.8180 C   0  0  0  0  0  3  0  0  0  0  0  0
  184.9190  179.3710  144.7310 C   0  0  0  0  0  3  0  0  0  0  0  0
  186.1120  178.8330  144.2410 C   0  0  0  0  0  3  0  0  0  0  0  0
  186.0230  177.0950  145.9260 C   0  0  0  0  0  3  0  0  0  0  0  0
  187.7830  176.1740  143.1360 C   0  0  0  0  0  0  0  0  0  0  0  0
  186.7020  175.6750  142.8600 O   0  0  0  0  0  0  0  0  0  0  0  0
  188.9800  175.8660  142.2940 C   0  0  0  0  0  2  0  0  0  0  0  0
  189.6400  174.5670  142.7400 C   0  0  0  0  0  2  0  0  0  0  0  0
  190.5610  173.9550  140.5750 C   0  0  0  0  0  3  0  0  0  0  0  0
  189.7680  173.6110  141.6000 C   0  0  0  0  0  0  0  0  0  0  0  0
  190.6480  172.4220  137.3750 C   0  0  0  0  0  3  0  0  0  0  0  0
  191.6870  172.1930  139.2980 C   0  0  0  0  0  3  0  0  0  0  0  0
  191.6320  171.6820  138.0130 C   0  0  0  0  0  3  0  0  0  0  0  0
  190.1460  173.3240  138.2390 N   0  0  0  0  0  0  0  0  0  0  0  0
  190.7730  173.1710  139.3920 N   0  0  0  0  0  0  0  0  0  0  0  0
  187.5650  172.5570  142.0030 C   0  0  0  0  0  1  0  0  0  0  0  0
  189.0260  172.3140  141.6730 C   0  0  0  0  0  2  0  0  0  0  0  0
  192.4620  176.8250  146.7490 C   0  0  0  0  0  2  0  0  0  0  0  0
  195.3200  176.7780  144.5460 C   0  0  0  0  0  3  0  0  0  0  0  0
  194.1120  176.5440  144.9960 C   0  0  0  0  0  0  0  0  0  0  0  0
  192.9140  176.2870  145.4380 C   0  0  0  0  0  3  0  0  0  0  0  0
  195.9160  176.0710  143.3610 C   0  0  2  0  0  3  0  0  0  0  0  0
  197.3230  176.5850  143.1240 C   0  0  0  0  0  1  0  0  0  0  0  0
  195.0920  176.2230  142.0840 C   0  0  0  0  0  2  0  0  0  0  0  0
  195.2240  174.9930  141.1990 C   0  0  2  0  0  3  0  0  0  0  0  0
  194.1560  175.0160  140.1230 C   0  0  0  0  0  1  0  0  0  0  0  0
  194.2080  171.9100  143.1430 C   0  0  1  0  0  3  0  0  0  0  0  0
  193.8690  173.2760  142.5280 C   0  0  0  0  0  2  0  0  0  0  0  0
  195.7470  171.8570  143.3200 C   0  0  1  0  0  3  0  0  0  0  0  0
  195.1190  173.7710  141.9910 N   0  0  0  0  0  0  0  0  0  0  0  0
  196.1870  172.9470  142.4240 C   0  0  0  0  0  0  0  0  0  0  0  0
  197.3860  173.1330  142.0810 O   0  0  0  0  0  0  0  0  0  0  0  0
  193.5300  170.2540  144.7420 O   0  0  0  0  0  1  0  0  0  0  0  0
  193.3750  171.5980  144.3910 C   0  0  2  0  0  3  0  0  0  0  0  0
  191.5780  172.9460  145.0230 C   0  0  0  0  0  1  0  0  0  0  0  0
  191.9690  171.8660  144.1360 N   0  0  0  0  0  2  0  0  0  0  0  0
  196.1860  172.1740  144.6920 C   0  0  0  0  0  0  0  0  0  0  0  0
  196.5450  172.4350  145.8130 C   0  0  0  0  0  3  0  0  0  0  0  0
  2  4  1  0  0  0  0
  3 29  1  6  0  0  0
  3  5  1  0  0  0  0
  4  5  1  0  0  0  0
  5  7  2  0  0  0  0
  6  8  1  0  0  0  0
  6  2  2  0  0  0  0
  8  1  1  1  0  0  0
  8  3  1  0  0  0  0
  9 16  1  6  0  0  0
  9 11  1  0  0  0  0
  9  6  1  0  0  0  0
 11 15  2  0  0  0  0
 12 10  2  0  0  0  0
 13 12  1  0  0  0  0
 14 13  2  0  0  0  0
 14 11  1  0  0  0  0
 15 10  1  0  0  0  0
 17 16  2  0  0  0  0
 18 19  1  0  0  0  0
 18 16  1  0  0  0  0
 20 21  2  0  0  0  0
 21 28  1  0  0  0  0
 21 19  1  0  0  0  0
 22 24  1  0  0  0  0
 22 25  2  0  0  0  0
 23 26  1  0  0  0  0
 24 23  2  0  0  0  0
 25 26  1  0  0  0  0
 26 20  1  0  0  0  0
 28 27  1  0  0  0  0
 30 31  2  0  0  0  0
 31 32  2  0  0  0  0
 32 29  1  0  0  0  0
 33 34  1  6  0  0  0
 33 30  1  0  0  0  0
 35 33  1  0  0  0  0
 36 37  1  6  0  0  0
 36 41  1  0  0  0  0
 36 35  1  0  0  0  0
 38 40  1  0  0  0  0
 38 45  1  1  0  0  0
 39 38  1  0  0  0  0
 40 48  1  1  0  0  0
 41 42  1  0  0  0  0
 41 39  1  0  0  0  0
 42 40  1  0  0  0  0
 43 42  2  0  0  0  0
 45 44  1  6  0  0  0
 47 45  1  0  0  0  0
 47 46  1  0  0  0  0
 48 49  3  0  0  0  0
M  END
>  <MODEL>
6

>  <REMARK>
 VINA RESULT:      -6.0      2.481      8.024
  Name = 
  17 active torsions:
  status: ('A' for Active; 'I' for Inactive)
    1  A    between atoms: C_4  and  C_17
    2  A    between atoms: C_5  and  C_8
    3  A    between atoms: C_5  and  C_13
    4  A    between atoms: C_5  and  C_31
    5  A    between atoms: C_6  and  C_42
    6  A    between atoms: C_6  and  C_48
    7  A    between atoms: C_7  and  C_26
    8  A    between atoms: C_8  and  C_48
    9  A    between atoms: C_9  and  C_45
   10  A    between atoms: C_11  and  C_41
   11  A    between atoms: C_16  and  N_18
   12  A    between atoms: C_16  and  C_39
   13  A    between atoms: C_26  and  C_39
   14  A    between atoms: C_29  and  N_38
   15  A    between atoms: C_34  and  C_41
   16  A    between atoms: C_37  and  C_42
   17  A    between atoms: N_44  and  C_45
                            x       y       z     vdW  Elec       q    Type
                         _______ _______ _______ _____ _____    ______ ____

>  <TORSDO>
F 17

$$$$
=
 OpenBabel11062420243D

 49 52  0  0  1  0  0  0  0  0999 V2000
  193.7210  173.2110  146.3040 O   0  0  0  0  0  1  0  0  0  0  0  0
  195.8360  172.9560  143.3910 C   0  0  0  0  0  3  0  0  0  0  0  0
  195.0920  174.9380  145.3780 C   0  0  2  0  0  3  0  0  0  0  0  0
  196.2790  174.3050  143.2310 N   0  0  0  0  0  0  0  0  0  0  0  0
  195.8860  175.3200  144.1530 C   0  0  0  0  0  0  0  0  0  0  0  0
  194.9220  172.6260  144.3070 C   0  0  1  0  0  3  0  0  0  0  0  0
  196.2880  176.5010  143.9810 O   0  0  0  0  0  0  0  0  0  0  0  0
  194.2140  173.7100  145.0980 C   0  0  1  0  0  3  0  0  0  0  0  0
  194.4790  171.1900  144.3320 C   0  0  2  0  0  3  0  0  0  0  0  0
  197.1920  169.7050  146.5180 C   0  0  0  0  0  3  0  0  0  0  0  0
  195.1530  170.3540  145.3790 C   0  0  0  0  0  0  0  0  0  0  0  0
  196.4730  168.7860  147.2900 C   0  0  0  0  0  3  0  0  0  0  0  0
  195.0940  168.6480  147.1070 C   0  0  0  0  0  3  0  0  0  0  0  0
  194.4350  169.4280  146.1510 C   0  0  0  0  0  3  0  0  0  0  0  0
  196.5340  170.4860  145.5640 C   0  0  0  0  0  3  0  0  0  0  0  0
  194.3470  170.5480  142.9780 C   0  0  0  0  0  0  0  0  0  0  0  0
  195.2080  169.7940  142.5500 O   0  0  0  0  0  0  0  0  0  0  0  0
  193.1480  170.8590  142.1400 C   0  0  0  0  0  2  0  0  0  0  0  0
  192.1920  171.7880  142.8790 C   0  0  0  0  0  2  0  0  0  0  0  0
  191.1680  171.9820  140.6840 C   0  0  0  0  0  3  0  0  0  0  0  0
  191.2600  172.4650  141.9310 C   0  0  0  0  0  0  0  0  0  0  0  0
  188.6580  172.9730  138.3780 C   0  0  0  0  0  3  0  0  0  0  0  0
  190.7630  173.4670  138.7770 C   0  0  0  0  0  3  0  0  0  0  0  0
  189.7020  173.7750  137.9420 C   0  0  0  0  0  3  0  0  0  0  0  0
  189.0800  172.2290  139.4170 N   0  0  0  0  0  0  0  0  0  0  0  0
  190.3470  172.5290  139.6420 N   0  0  0  0  0  0  0  0  0  0  0  0
  189.6140  173.2230  143.6180 C   0  0  0  0  0  1  0  0  0  0  0  0
  190.4620  173.6310  142.4280 C   0  0  0  0  0  2  0  0  0  0  0  0
  194.2130  176.0820  145.8740 C   0  0  0  0  0  2  0  0  0  0  0  0
  190.9730  175.9390  147.4570 C   0  0  0  0  0  3  0  0  0  0  0  0
  191.8870  175.8660  146.5210 C   0  0  0  0  0  0  0  0  0  0  0  0
  192.7820  175.8070  145.5770 C   0  0  0  0  0  3  0  0  0  0  0  0
  189.4960  175.9150  147.1780 C   0  0  2  0  0  3  0  0  0  0  0  0
  188.9430  174.5430  147.5120 C   0  0  0  0  0  1  0  0  0  0  0  0
  189.1430  176.2710  145.7340 C   0  0  0  0  0  2  0  0  0  0  0  0
  188.4350  177.6160  145.6610 C   0  0  2  0  0  3  0  0  0  0  0  0
  187.3010  177.6550  146.6670 C   0  0  0  0  0  1  0  0  0  0  0  0
  186.4720  178.4120  142.5260 C   0  0  1  0  0  3  0  0  0  0  0  0
  186.5210  178.0230  144.0120 C   0  0  0  0  0  2  0  0  0  0  0  0
  187.8430  178.0370  141.9090 C   0  0  1  0  0  3  0  0  0  0  0  0
  187.9280  177.8610  144.3140 N   0  0  0  0  0  0  0  0  0  0  0  0
  188.6840  177.8940  143.1160 C   0  0  0  0  0  0  0  0  0  0  0  0
  189.9410  177.8030  143.0910 O   0  0  0  0  0  0  0  0  0  0  0  0
  184.9890  178.5990  140.6490 O   0  0  0  0  0  1  0  0  0  0  0  0
  185.2360  177.8590  141.8090 C   0  0  2  0  0  3  0  0  0  0  0  0
  182.9410  178.2770  141.8430 C   0  0  0  0  0  1  0  0  0  0  0  0
  184.0750  177.9320  142.6800 N   0  0  0  0  0  2  0  0  0  0  0  0
  187.8270  176.7470  141.1950 C   0  0  0  0  0  0  0  0  0  0  0  0
  187.8140  175.6920  140.6110 C   0  0  0  0  0  3  0  0  0  0  0  0
  2  6  1  0  0  0  0
  3 29  1  6  0  0  0
  4  2  2  0  0  0  0
  4  5  1  0  0  0  0
  5  3  1  0  0  0  0
  6  9  1  6  0  0  0
  6  8  1  0  0  0  0
  7  5  2  0  0  0  0
  8  3  1  0  0  0  0
  8  1  1  1  0  0  0
  9 16  1  6  0  0  0
  9 11  1  0  0  0  0
 10 12  1  0  0  0  0
 11 15  1  0  0  0  0
 11 14  2  0  0  0  0
 13 12  2  0  0  0  0
 14 13  1  0  0  0  0
 15 10  2  0  0  0  0
 17 16  2  0  0  0  0
 18 19  1  0  0  0  0
 18 16  1  0  0  0  0
 20 21  2  0  0  0  0
 21 28  1  0  0  0  0
 21 19  1  0  0  0  0
 22 25  2  0  0  0  0
 23 26  1  0  0  0  0
 24 22  1  0  0  0  0
 24 23  2  0  0  0  0
 25 26  1  0  0  0  0
 26 20  1  0  0  0  0
 28 27  1  0  0  0  0
 31 30  2  0  0  0  0
 32 29  1  0  0  0  0
 32 31  2  0  0  0  0
 33 30  1  0  0  0  0
 33 34  1  6  0  0  0
 35 33  1  0  0  0  0
 36 35  1  0  0  0  0
 36 37  1  1  0  0  0
 38 45  1  6  0  0  0
 38 39  1  0  0  0  0
 39 41  1  0  0  0  0
 40 48  1  1  0  0  0
 40 38  1  0  0  0  0
 40 42  1  0  0  0  0
 41 36  1  0  0  0  0
 42 41  1  0  0  0  0
 43 42  2  0  0  0  0
 45 44  1  6  0  0  0
 45 47  1  0  0  0  0
 46 47  1  0  0  0  0
 49 48  3  0  0  0  0
M  END
>  <MODEL>
7

>  <REMARK>
 VINA RESULT:      -6.0      2.757      5.233
  Name = 
  17 active torsions:
  status: ('A' for Active; 'I' for Inactive)
    1  A    between atoms: C_4  and  C_17
    2  A    between atoms: C_5  and  C_8
    3  A    between atoms: C_5  and  C_13
    4  A    between atoms: C_5  and  C_31
    5  A    between atoms: C_6  and  C_42
    6  A    between atoms: C_6  and  C_48
    7  A    between atoms: C_7  and  C_26
    8  A    between atoms: C_8  and  C_48
    9  A    between atoms: C_9  and  C_45
   10  A    between atoms: C_11  and  C_41
   11  A    between atoms: C_16  and  N_18
   12  A    between atoms: C_16  and  C_39
   13  A    between atoms: C_26  and  C_39
   14  A    between atoms: C_29  and  N_38
   15  A    between atoms: C_34  and  C_41
   16  A    between atoms: C_37  and  C_42
   17  A    between atoms: N_44  and  C_45
                            x       y       z     vdW  Elec       q    Type
                         _______ _______ _______ _____ _____    ______ ____

>  <TORSDO>
F 17

$$$$
=
 OpenBabel11062420243D

 49 52  0  0  1  0  0  0  0  0999 V2000
  190.3350  172.8820  145.0180 O   0  0  0  0  0  1  0  0  0  0  0  0
  188.8010  175.5020  143.0670 C   0  0  0  0  0  3  0  0  0  0  0  0
  189.4080  172.6730  142.8230 C   0  0  2  0  0  3  0  0  0  0  0  0
  188.5790  174.8460  141.8160 N   0  0  0  0  0  0  0  0  0  0  0  0
  188.9210  173.4710  141.6390 C   0  0  0  0  0  0  0  0  0  0  0  0
  189.4700  174.9070  144.0580 C   0  0  1  0  0  3  0  0  0  0  0  0
  188.7200  172.9240  140.5230 O   0  0  0  0  0  0  0  0  0  0  0  0
  190.1520  173.5730  143.8200 C   0  0  1  0  0  3  0  0  0  0  0  0
  189.7050  175.7230  145.2970 C   0  0  2  0  0  3  0  0  0  0  0  0
  193.1950  177.1640  145.0000 C   0  0  0  0  0  3  0  0  0  0  0  0
  191.1490  176.0030  145.5880 C   0  0  0  0  0  0  0  0  0  0  0  0
  193.8610  176.5320  146.0550 C   0  0  0  0  0  3  0  0  0  0  0  0
  193.1740  175.6340  146.8780 C   0  0  0  0  0  3  0  0  0  0  0  0
  191.8220  175.3670  146.6430 C   0  0  0  0  0  3  0  0  0  0  0  0
  191.8430  176.8990  144.7660 C   0  0  0  0  0  3  0  0  0  0  0  0
  188.8720  175.3210  146.4840 C   0  0  0  0  0  0  0  0  0  0  0  0
  189.0960  174.2840  147.0910 O   0  0  0  0  0  0  0  0  0  0  0  0
  187.7400  176.2010  146.9090 C   0  0  0  0  0  2  0  0  0  0  0  0
  187.6820  177.4640  146.0590 C   0  0  0  0  0  2  0  0  0  0  0  0
  186.6120  177.9230  143.9260 C   0  0  0  0  0  3  0  0  0  0  0  0
  186.4770  177.4640  145.1780 C   0  0  0  0  0  0  0  0  0  0  0  0
  183.6250  178.3410  142.0540 C   0  0  0  0  0  3  0  0  0  0  0  0
  185.7300  177.8620  141.6400 C   0  0  0  0  0  3  0  0  0  0  0  0
  184.5060  178.0560  141.0220 C   0  0  0  0  0  3  0  0  0  0  0  0
  184.2930  178.3160  143.2220 N   0  0  0  0  0  0  0  0  0  0  0  0
  185.5540  178.0200  142.9610 N   0  0  0  0  0  0  0  0  0  0  0  0
  184.5330  177.9640  146.6270 C   0  0  0  0  0  1  0  0  0  0  0  0
  185.1920  176.9320  145.7310 C   0  0  0  0  0  2  0  0  0  0  0  0
  190.3200  171.5240  142.4050 C   0  0  0  0  0  2  0  0  0  0  0  0
  192.8180  170.6510  139.9510 C   0  0  0  0  0  3  0  0  0  0  0  0
  192.1850  171.3410  140.8670 C   0  0  0  0  0  0  0  0  0  0  0  0
  191.5570  172.0460  141.7640 C   0  0  0  0  0  3  0  0  0  0  0  0
  193.9180  171.2180  139.0980 C   0  0  2  0  0  3  0  0  0  0  0  0
  193.8520  170.5990  137.7140 C   0  0  0  0  0  1  0  0  0  0  0  0
  195.3130  171.0090  139.6860 C   0  0  0  0  0  2  0  0  0  0  0  0
  196.2580  172.1220  139.2600 C   0  0  2  0  0  3  0  0  0  0  0  0
  197.6920  171.6370  139.3380 C   0  0  0  0  0  1  0  0  0  0  0  0
  196.3100  174.8640  141.8680 C   0  0  1  0  0  3  0  0  0  0  0  0
  196.6030  173.4170  141.4400 C   0  0  0  0  0  2  0  0  0  0  0  0
  195.2280  175.4150  140.9050 C   0  0  1  0  0  3  0  0  0  0  0  0
  196.0760  173.3040  140.0970 N   0  0  0  0  0  0  0  0  0  0  0  0
  195.3110  174.4560  139.7830 C   0  0  0  0  0  0  0  0  0  0  0  0
  194.7580  174.6330  138.6650 O   0  0  0  0  0  0  0  0  0  0  0  0
  196.5960  176.1530  143.8710 O   0  0  0  0  0  1  0  0  0  0  0  0
  196.0080  174.9900  143.3650 C   0  0  2  0  0  3  0  0  0  0  0  0
  196.6380  174.2230  145.4760 C   0  0  0  0  0  1  0  0  0  0  0  0
  196.5300  173.8390  144.0810 N   0  0  0  0  0  2  0  0  0  0  0  0
  193.8660  175.3600  141.4670 C   0  0  0  0  0  0  0  0  0  0  0  0
  192.7520  175.3150  141.9270 C   0  0  0  0  0  3  0  0  0  0  0  0
  2  6  1  0  0  0  0
  3 29  1  6  0  0  0
  3  8  1  0  0  0  0
  4  2  2  0  0  0  0
  5  4  1  0  0  0  0
  5  3  1  0  0  0  0
  6  9  1  6  0  0  0
  7  5  2  0  0  0  0
  8  6  1  0  0  0  0
  8  1  1  1  0  0  0
  9 11  1  0  0  0  0
  9 16  1  1  0  0  0
 10 12  1  0  0  0  0
 11 14  2  0  0  0  0
 12 13  2  0  0  0  0
 14 13  1  0  0  0  0
 15 10  2  0  0  0  0
 15 11  1  0  0  0  0
 16 18  1  0  0  0  0
 16 17  2  0  0  0  0
 19 18  1  0  0  0  0
 20 21  2  0  0  0  0
 21 28  1  0  0  0  0
 21 19  1  0  0  0  0
 22 25  2  0  0  0  0
 23 26  1  0  0  0  0
 24 23  2  0  0  0  0
 24 22  1  0  0  0  0
 26 25  1  0  0  0  0
 26 20  1  0  0  0  0
 28 27  1  0  0  0  0
 30 31  2  0  0  0  0
 31 32  2  0  0  0  0
 32 29  1  0  0  0  0
 33 34  1  6  0  0  0
 33 35  1  0  0  0  0
 33 30  1  0  0  0  0
 36 37  1  1  0  0  0
 36 35  1  0  0  0  0
 36 41  1  0  0  0  0
 38 45  1  1  0  0  0
 39 38  1  0  0  0  0
 40 48  1  1  0  0  0
 40 38  1  0  0  0  0
 41 39  1  0  0  0  0
 42 41  1  0  0  0  0
 42 40  1  0  0  0  0
 43 42  2  0  0  0  0
 45 44  1  1  0  0  0
 45 47  1  0  0  0  0
 47 46  1  0  0  0  0
 48 49  3  0  0  0  0
M  END
>  <MODEL>
8

>  <REMARK>
 VINA RESULT:      -5.9      2.118      9.312
  Name = 
  17 active torsions:
  status: ('A' for Active; 'I' for Inactive)
    1  A    between atoms: C_4  and  C_17
    2  A    between atoms: C_5  and  C_8
    3  A    between atoms: C_5  and  C_13
    4  A    between atoms: C_5  and  C_31
    5  A    between atoms: C_6  and  C_42
    6  A    between atoms: C_6  and  C_48
    7  A    between atoms: C_7  and  C_26
    8  A    between atoms: C_8  and  C_48
    9  A    between atoms: C_9  and  C_45
   10  A    between atoms: C_11  and  C_41
   11  A    between atoms: C_16  and  N_18
   12  A    between atoms: C_16  and  C_39
   13  A    between atoms: C_26  and  C_39
   14  A    between atoms: C_29  and  N_38
   15  A    between atoms: C_34  and  C_41
   16  A    between atoms: C_37  and  C_42
   17  A    between atoms: N_44  and  C_45
                            x       y       z     vdW  Elec       q    Type
                         _______ _______ _______ _____ _____    ______ ____

>  <TORSDO>
F 17

$$$$
=
 OpenBabel11062420243D

 49 52  0  0  1  0  0  0  0  0999 V2000
  191.1340  173.4070  145.3060 O   0  0  0  0  0  1  0  0  0  0  0  0
  193.0850  176.4150  145.7180 C   0  0  0  0  0  3  0  0  0  0  0  0
  190.8850  175.0470  147.0300 C   0  0  2  0  0  3  0  0  0  0  0  0
  192.4050  177.0620  146.7970 N   0  0  0  0  0  2  0  0  0  0  0  0
  191.2810  176.4470  147.4270 C   0  0  0  0  0  0  0  0  0  0  0  0
  192.6090  175.2980  145.1620 C   0  0  0  0  0  0  0  0  0  0  0  0
  190.6990  177.0450  148.3710 O   0  0  0  0  0  0  0  0  0  0  0  0
  191.2410  174.7750  145.5610 C   0  0  1  0  0  3  0  0  0  0  0  0
  193.3700  174.7520  143.9880 C   0  0  2  0  0  3  0  0  0  0  0  0
  196.5690  173.3390  145.4420 C   0  0  0  0  0  3  0  0  0  0  0  0
  194.8310  174.5340  144.2460 C   0  0  0  0  0  0  0  0  0  0  0  0
  197.5450  174.1110  144.8030 C   0  0  0  0  0  3  0  0  0  0  0  0
  197.1660  175.0970  143.8860 C   0  0  0  0  0  3  0  0  0  0  0  0
  195.8120  175.3110  143.6100 C   0  0  0  0  0  3  0  0  0  0  0  0
  195.2160  173.5510  145.1650 C   0  0  0  0  0  3  0  0  0  0  0  0
  193.0350  175.3900  142.6670 C   0  0  0  0  0  0  0  0  0  0  0  0
  193.4620  176.4970  142.3730 O   0  0  0  0  0  0  0  0  0  0  0  0
  192.1460  174.6590  141.7120 C   0  0  0  0  0  2  0  0  0  0  0  0
  192.8780  173.4810  141.0790 C   0  0  0  0  0  2  0  0  0  0  0  0
  193.5860  171.5760  142.4100 C   0  0  0  0  0  3  0  0  0  0  0  0
  192.5750  172.2100  141.8000 C   0  0  0  0  0  0  0  0  0  0  0  0
  193.0570  168.8710  144.6470 C   0  0  0  0  0  3  0  0  0  0  0  0
  193.7670  169.1380  142.5840 C   0  0  0  0  0  3  0  0  0  0  0  0
  193.5150  168.1700  143.5410 C   0  0  0  0  0  3  0  0  0  0  0  0
  193.0400  170.1850  144.3590 N   0  0  0  0  0  0  0  0  0  0  0  0
  193.4760  170.3330  143.1200 N   0  0  0  0  0  0  0  0  0  0  0  0
  190.6360  171.5510  140.4080 C   0  0  0  0  0  1  0  0  0  0  0  0
  191.1590  171.7240  141.8220 C   0  0  0  0  0  2  0  0  0  0  0  0
  189.3970  174.7880  147.2420 C   0  0  0  0  0  2  0  0  0  0  0  0
  186.6910  177.1670  147.4420 C   0  0  0  0  0  3  0  0  0  0  0  0
  187.6350  176.4220  146.9230 C   0  0  0  0  0  0  0  0  0  0  0  0
  188.5830  175.7010  146.3960 C   0  0  0  0  0  3  0  0  0  0  0  0
  186.0050  178.2770  146.6950 C   0  0  2  0  0  3  0  0  0  0  0  0
  184.7200  178.6460  147.4110 C   0  0  0  0  0  1  0  0  0  0  0  0
  185.6990  177.9320  145.2380 C   0  0  0  0  0  2  0  0  0  0  0  0
  186.3660  178.9180  144.2910 C   0  0  2  0  0  3  0  0  0  0  0  0
  185.3360  179.8930  143.7560 C   0  0  0  0  0  1  0  0  0  0  0  0
  187.4610  177.3180  141.0420 C   0  0  1  0  0  3  0  0  0  0  0  0
  186.3610  177.9020  141.9430 C   0  0  0  0  0  2  0  0  0  0  0  0
  188.6400  176.9150  141.9630 C   0  0  1  0  0  3  0  0  0  0  0  0
  187.0220  178.2180  143.1910 N   0  0  0  0  0  0  0  0  0  0  0  0
  188.3310  177.6750  143.1930 C   0  0  0  0  0  0  0  0  0  0  0  0
  189.1390  177.8230  144.1490 O   0  0  0  0  0  0  0  0  0  0  0  0
  188.0120  175.5350  139.5340 O   0  0  0  0  0  1  0  0  0  0  0  0
  186.9380  176.2280  140.1000 C   0  0  2  0  0  3  0  0  0  0  0  0
  186.6780  176.3340  137.7840 C   0  0  0  0  0  1  0  0  0  0  0  0
  186.1400  176.8210  139.0400 N   0  0  0  0  0  2  0  0  0  0  0  0
  188.6550  175.4780  142.2940 C   0  0  0  0  0  0  0  0  0  0  0  0
  188.6680  174.3030  142.5650 C   0  0  0  0  0  3  0  0  0  0  0  0
  2  4  1  0  0  0  0
  3 29  1  6  0  0  0
  3  5  1  0  0  0  0
  4  5  1  0  0  0  0
  5  7  2  0  0  0  0
  6  8  1  0  0  0  0
  6  2  2  0  0  0  0
  8  1  1  1  0  0  0
  8  3  1  0  0  0  0
  9 16  1  6  0  0  0
  9 11  1  0  0  0  0
  9  6  1  0  0  0  0
 11 15  2  0  0  0  0
 12 10  2  0  0  0  0
 13 12  1  0  0  0  0
 14 13  2  0  0  0  0
 14 11  1  0  0  0  0
 15 10  1  0  0  0  0
 17 16  2  0  0  0  0
 18 16  1  0  0  0  0
 19 18  1  0  0  0  0
 19 21  1  0  0  0  0
 20 26  1  0  0  0  0
 21 28  1  0  0  0  0
 21 20  2  0  0  0  0
 23 26  1  0  0  0  0
 23 24  2  0  0  0  0
 24 22  1  0  0  0  0
 25 22  2  0  0  0  0
 26 25  1  0  0  0  0
 27 28  1  0  0  0  0
 31 30  2  0  0  0  0
 32 31  2  0  0  0  0
 32 29  1  0  0  0  0
 33 34  1  1  0  0  0
 33 30  1  0  0  0  0
 35 33  1  0  0  0  0
 36 37  1  6  0  0  0
 36 35  1  0  0  0  0
 38 45  1  1  0  0  0
 38 39  1  0  0  0  0
 38 40  1  0  0  0  0
 39 41  1  0  0  0  0
 40 48  1  1  0  0  0
 40 42  1  0  0  0  0
 41 42  1  0  0  0  0
 41 36  1  0  0  0  0
 42 43  2  0  0  0  0
 45 44  1  6  0  0  0
 46 47  1  0  0  0  0
 47 45  1  0  0  0  0
 48 49  3  0  0  0  0
M  END
>  <MODEL>
9

>  <REMARK>
 VINA RESULT:      -5.9      2.517      3.790
  Name = 
  17 active torsions:
  status: ('A' for Active; 'I' for Inactive)
    1  A    between atoms: C_4  and  C_17
    2  A    between atoms: C_5  and  C_8
    3  A    between atoms: C_5  and  C_13
    4  A    between atoms: C_5  and  C_31
    5  A    between atoms: C_6  and  C_42
    6  A    between atoms: C_6  and  C_48
    7  A    between atoms: C_7  and  C_26
    8  A    between atoms: C_8  and  C_48
    9  A    between atoms: C_9  and  C_45
   10  A    between atoms: C_11  and  C_41
   11  A    between atoms: C_16  and  N_18
   12  A    between atoms: C_16  and  C_39
   13  A    between atoms: C_26  and  C_39
   14  A    between atoms: C_29  and  N_38
   15  A    between atoms: C_34  and  C_41
   16  A    between atoms: C_37  and  C_42
   17  A    between atoms: N_44  and  C_45
                            x       y       z     vdW  Elec       q    Type
                         _______ _______ _______ _____ _____    ______ ____

>  <TORSDO>
F 17

$$$$
