=
 OpenBabel11062419033D

 32 35  0  0  1  0  0  0  0  0999 V2000
  189.8330  174.1890  143.0300 C   0  0  0  0  0  0  0  0  0  0  0  0
  190.4770  176.4830  142.5350 C   0  0  0  0  0  3  0  0  0  0  0  0
  188.8100  178.2550  142.0300 C   0  0  0  0  0  1  0  0  0  0  0  0
  190.8330  175.1690  142.8600 C   0  0  0  0  0  0  0  0  0  0  0  0
  189.1370  176.8410  142.3750 C   0  0  0  0  0  0  0  0  0  0  0  0
  188.1320  175.8720  142.5380 C   0  0  0  0  0  0  0  0  0  0  0  0
  188.4850  174.5620  142.8700 C   0  0  0  0  0  3  0  0  0  0  0  0
  189.4950  172.2340  144.5340 C   0  0  0  0  0  2  0  0  0  0  0  0
  190.2830  171.7610  142.3230 C   0  0  1  0  0  3  0  0  0  0  0  0
  189.0830  171.8370  143.1760 N   0  0  2  0  0  0  0  0  0  0  0  0
  189.9850  172.3140  141.0090 N   0  0  0  0  0  1  0  0  0  0  0  0
  190.2300  172.7660  143.3950 C   0  0  2  0  0  0  0  0  0  0  0  0
  192.2840  174.8390  143.0150 C   0  0  0  0  0  2  0  0  0  0  0  0
  195.1080  176.2880  144.4660 C   0  0  2  0  0  3  0  0  0  0  0  0
  192.9450  175.8390  143.8420 N   0  0  0  0  0  0  0  0  0  0  0  0
  193.0960  175.2580  145.1670 C   0  0  0  0  0  2  0  0  0  0  0  0
  194.4580  175.6510  145.6670 C   0  0  0  0  0  2  0  0  0  0  0  0
  194.2450  176.0100  143.3290 N   0  0  0  0  0  2  0  0  0  0  0  0
  196.4860  175.6980  144.2160 C   0  0  0  0  0  2  0  0  0  0  0  0
  196.5610  174.2580  144.6980 C   0  0  0  0  0  2  0  0  0  0  0  0
  197.6840  174.0770  145.5070 O   0  0  0  0  0  0  0  0  0  0  0  0
  197.2270  173.4480  146.5690 O   0  0  0  0  0  1  0  0  0  0  0  0
  186.6830  176.2130  142.3980 C   0  0  0  0  0  2  0  0  0  0  0  0
  186.0590  176.2870  143.7090 N   0  0  0  0  0  2  0  0  0  0  0  0
  185.6970  177.6770  143.9320 C   0  0  0  0  0  2  0  0  0  0  0  0
  186.3720  178.2010  145.1890 C   0  0  0  0  0  2  0  0  0  0  0  0
  186.5160  177.1020  146.2290 C   0  0  2  0  0  3  0  0  0  0  0  0
  185.4960  177.2050  147.1770 O   0  0  0  0  0  1  0  0  0  0  0  0
  187.8070  177.2320  146.8890 N   0  0  0  0  0  2  0  0  0  0  0  0
  189.0070  175.1260  146.7740 C   0  0  0  0  0  1  0  0  0  0  0  0
  188.7710  176.4700  146.1140 C   0  0  0  0  0  3  0  0  0  0  0  0
  190.0790  177.2310  146.0480 C   0  0  0  0  0  1  0  0  0  0  0  0
  2  4  1  0  0  0  0
  3  5  1  0  0  0  0
  4 13  1  0  0  0  0
  4  1  2  0  0  0  0
  5  2  2  0  0  0  0
  5  6  1  0  0  0  0
  6  7  2  0  0  0  0
  7  1  1  0  0  0  0
  9 11  1  6  0  0  0
  9 10  1  0  0  0  0
  9 12  1  0  0  0  0
 10 12  1  0  0  0  0
 10  8  1  1  0  0  0
 12  1  1  6  0  0  0
 12  8  1  0  0  0  0
 13 15  1  0  0  0  0
 14 19  1  6  0  0  0
 14 17  1  0  0  0  0
 15 16  1  0  0  0  0
 16 17  1  0  0  0  0
 18 15  1  0  0  0  0
 18 14  1  0  0  0  0
 19 20  1  0  0  0  0
 20 21  1  0  0  0  0
 21 22  1  0  0  0  0
 23  6  1  0  0  0  0
 23 24  1  0  0  0  0
 24 25  1  0  0  0  0
 25 26  1  0  0  0  0
 26 27  1  0  0  0  0
 27 29  1  0  0  0  0
 27 28  1  1  0  0  0
 31 30  1  0  0  0  0
 31 29  1  0  0  0  0
 32 31  1  0  0  0  0
M  END
>  <MODEL>
1

>  <REMARK>
 VINA RESULT:      -5.6      0.000      0.000
  Name = 
  13 active torsions:
  status: ('A' for Active; 'I' for Inactive)
    1  A    between atoms: C_2  and  C_4
    2  A    between atoms: C_3  and  C_23
    3  A    between atoms: C_3  and  N_26
    4  A    between atoms: C_4  and  C_25
    5  A    between atoms: C_6  and  C_29
    6  A    between atoms: N_8  and  C_22
    7  A    between atoms: C_11  and  N_12
    8  A    between atoms: N_12  and  C_15
    9  A    between atoms: C_15  and  C_23
   10  A    between atoms: C_17  and  C_22
   11  A    between atoms: O_19  and  C_25
   12  A    between atoms: N_26  and  C_27
   13  A    between atoms: C_27  and  C_30
                            x       y       z     vdW  Elec       q    Type
                         _______ _______ _______ _____ _____    ______ ____

>  <TORSDO>
F 13

$$$$
=
 OpenBabel11062419033D

 32 35  0  0  1  0  0  0  0  0999 V2000
  189.6430  175.8540  144.7190 C   0  0  0  0  0  0  0  0  0  0  0  0
  190.4180  174.7200  142.7110 C   0  0  0  0  0  3  0  0  0  0  0  0
  188.9810  174.4310  140.7050 C   0  0  0  0  0  1  0  0  0  0  0  0
  190.6560  175.1730  144.0130 C   0  0  0  0  0  0  0  0  0  0  0  0
  189.1830  174.9330  142.0950 C   0  0  0  0  0  0  0  0  0  0  0  0
  188.1650  175.6060  142.7890 C   0  0  0  0  0  0  0  0  0  0  0  0
  188.4020  176.0670  144.0870 C   0  0  0  0  0  3  0  0  0  0  0  0
  189.3040  177.6450  146.4150 C   0  0  0  0  0  2  0  0  0  0  0  0
  189.6810  175.4330  147.2520 C   0  0  1  0  0  3  0  0  0  0  0  0
  188.6440  176.4220  146.9090 N   0  0  2  0  0  0  0  0  0  0  0  0
  189.2550  174.1090  146.8220 N   0  0  0  0  0  1  0  0  0  0  0  0
  189.9150  176.3540  146.1300 C   0  0  2  0  0  0  0  0  0  0  0  0
  191.9960  174.9140  144.6270 C   0  0  0  0  0  2  0  0  0  0  0  0
  195.1520  176.2860  144.0510 C   0  0  2  0  0  3  0  0  0  0  0  0
  192.8940  176.0310  144.3720 N   0  0  0  0  0  0  0  0  0  0  0  0
  193.4250  176.4480  145.6610 C   0  0  0  0  0  2  0  0  0  0  0  0
  194.8820  176.7570  145.4570 C   0  0  0  0  0  2  0  0  0  0  0  0
  193.9820  175.5310  143.6330 N   0  0  0  0  0  2  0  0  0  0  0  0
  196.3800  175.3900  144.0040 C   0  0  0  0  0  2  0  0  0  0  0  0
  196.2040  174.1720  144.8960 C   0  0  0  0  0  2  0  0  0  0  0  0
  197.3120  174.0210  145.7320 O   0  0  0  0  0  0  0  0  0  0  0  0
  197.0410  172.9510  146.4490 O   0  0  0  0  0  1  0  0  0  0  0  0
  186.8340  175.8770  142.1630 C   0  0  0  0  0  2  0  0  0  0  0  0
  185.9370  176.4760  143.1380 N   0  0  0  0  0  2  0  0  0  0  0  0
  185.4580  177.7240  142.5670 C   0  0  0  0  0  2  0  0  0  0  0  0
  184.1960  178.1780  143.2820 C   0  0  0  0  0  2  0  0  0  0  0  0
  184.4850  179.3500  144.2070 C   0  0  2  0  0  3  0  0  0  0  0  0
  185.8330  179.7030  144.1220 O   0  0  0  0  0  1  0  0  0  0  0  0
  184.1670  178.9720  145.5750 N   0  0  0  0  0  2  0  0  0  0  0  0
  185.1030  176.9320  146.4960 C   0  0  0  0  0  1  0  0  0  0  0  0
  185.3640  178.3850  146.1530 C   0  0  0  0  0  3  0  0  0  0  0  0
  185.7350  179.1360  147.4150 C   0  0  0  0  0  1  0  0  0  0  0  0
  2  4  1  0  0  0  0
  3  5  1  0  0  0  0
  4 13  1  0  0  0  0
  4  1  2  0  0  0  0
  5  2  2  0  0  0  0
  5  6  1  0  0  0  0
  6  7  2  0  0  0  0
  7  1  1  0  0  0  0
  9 11  1  6  0  0  0
 10  8  1  1  0  0  0
 10  9  1  0  0  0  0
 12  1  1  6  0  0  0
 12  8  1  0  0  0  0
 12 10  1  0  0  0  0
 12  9  1  0  0  0  0
 14 19  1  1  0  0  0
 14 17  1  0  0  0  0
 15 13  1  0  0  0  0
 15 16  1  0  0  0  0
 17 16  1  0  0  0  0
 18 14  1  0  0  0  0
 18 15  1  0  0  0  0
 19 20  1  0  0  0  0
 20 21  1  0  0  0  0
 21 22  1  0  0  0  0
 23  6  1  0  0  0  0
 23 24  1  0  0  0  0
 25 24  1  0  0  0  0
 25 26  1  0  0  0  0
 26 27  1  0  0  0  0
 27 28  1  1  0  0  0
 27 29  1  0  0  0  0
 29 31  1  0  0  0  0
 31 30  1  0  0  0  0
 31 32  1  0  0  0  0
M  END
>  <MODEL>
2

>  <REMARK>
 VINA RESULT:      -5.5      1.980      3.172
  Name = 
  13 active torsions:
  status: ('A' for Active; 'I' for Inactive)
    1  A    between atoms: C_2  and  C_4
    2  A    between atoms: C_3  and  C_23
    3  A    between atoms: C_3  and  N_26
    4  A    between atoms: C_4  and  C_25
    5  A    between atoms: C_6  and  C_29
    6  A    between atoms: N_8  and  C_22
    7  A    between atoms: C_11  and  N_12
    8  A    between atoms: N_12  and  C_15
    9  A    between atoms: C_15  and  C_23
   10  A    between atoms: C_17  and  C_22
   11  A    between atoms: O_19  and  C_25
   12  A    between atoms: N_26  and  C_27
   13  A    between atoms: C_27  and  C_30
                            x       y       z     vdW  Elec       q    Type
                         _______ _______ _______ _____ _____    ______ ____

>  <TORSDO>
F 13

$$$$
=
 OpenBabel11062419033D

 32 35  0  0  1  0  0  0  0  0999 V2000
  186.7140  177.2050  145.2390 C   0  0  0  0  0  0  0  0  0  0  0  0
  188.3320  176.6010  143.5240 C   0  0  0  0  0  3  0  0  0  0  0  0
  190.7810  176.6120  143.9410 C   0  0  0  0  0  1  0  0  0  0  0  0
  187.0030  176.7860  143.9230 C   0  0  0  0  0  0  0  0  0  0  0  0
  189.3830  176.8250  144.4150 C   0  0  0  0  0  0  0  0  0  0  0  0
  189.1070  177.2460  145.7270 C   0  0  0  0  0  0  0  0  0  0  0  0
  187.7820  177.4240  146.1300 C   0  0  0  0  0  3  0  0  0  0  0  0
  184.9710  176.8250  146.9750 C   0  0  0  0  0  2  0  0  0  0  0  0
  184.6760  178.7350  145.5600 C   0  0  1  0  0  3  0  0  0  0  0  0
  185.1910  178.2790  146.8640 N   0  0  2  0  0  0  0  0  0  0  0  0
  185.5900  179.7140  144.9890 N   0  0  0  0  0  1  0  0  0  0  0  0
  185.2650  177.3910  145.6670 C   0  0  2  0  0  0  0  0  0  0  0  0
  185.9160  176.5360  142.9270 C   0  0  0  0  0  2  0  0  0  0  0  0
  183.8750  178.5110  140.8990 C   0  0  2  0  0  3  0  0  0  0  0  0
  185.6180  177.7530  142.1860 N   0  0  0  0  0  0  0  0  0  0  0  0
  186.0200  177.5170  140.8080 C   0  0  0  0  0  2  0  0  0  0  0  0
  184.9620  178.1250  139.9300 C   0  0  0  0  0  2  0  0  0  0  0  0
  184.2180  177.9030  142.1740 N   0  0  0  0  0  2  0  0  0  0  0  0
  182.5230  177.9910  140.4350 C   0  0  0  0  0  2  0  0  0  0  0  0
  181.3870  178.6940  141.1600 C   0  0  0  0  0  2  0  0  0  0  0  0
  180.1830  178.0240  140.9360 O   0  0  0  0  0  0  0  0  0  0  0  0
  179.5530  178.7640  140.0490 O   0  0  0  0  0  1  0  0  0  0  0  0
  190.1990  177.4780  146.7230 C   0  0  0  0  0  2  0  0  0  0  0  0
  190.4740  176.2530  147.4540 N   0  0  0  0  0  2  0  0  0  0  0  0
  191.8980  176.2410  147.7490 C   0  0  0  0  0  2  0  0  0  0  0  0
  192.6270  175.3240  146.7800 C   0  0  0  0  0  2  0  0  0  0  0  0
  194.0280  175.8380  146.4920 C   0  0  2  0  0  3  0  0  0  0  0  0
  194.1420  177.1690  146.9020 O   0  0  0  0  0  1  0  0  0  0  0  0
  194.2890  175.7460  145.0640 N   0  0  0  0  0  2  0  0  0  0  0  0
  196.1310  175.6060  143.4910 C   0  0  0  0  0  1  0  0  0  0  0  0
  195.6630  175.3020  144.9000 C   0  0  0  0  0  3  0  0  0  0  0  0
  195.7430  173.8100  145.1420 C   0  0  0  0  0  1  0  0  0  0  0  0
  1  7  1  0  0  0  0
  2  4  1  0  0  0  0
  2  5  2  0  0  0  0
  3  5  1  0  0  0  0
  4  1  2  0  0  0  0
  5  6  1  0  0  0  0
  6  7  2  0  0  0  0
  6 23  1  0  0  0  0
  9 11  1  6  0  0  0
  9 12  1  0  0  0  0
  9 10  1  0  0  0  0
 10  8  1  1  0  0  0
 12  1  1  6  0  0  0
 12 10  1  0  0  0  0
 12  8  1  0  0  0  0
 13  4  1  0  0  0  0
 14 19  1  6  0  0  0
 14 18  1  0  0  0  0
 15 13  1  0  0  0  0
 16 15  1  0  0  0  0
 17 16  1  0  0  0  0
 17 14  1  0  0  0  0
 18 15  1  0  0  0  0
 19 20  1  0  0  0  0
 21 20  1  0  0  0  0
 22 21  1  0  0  0  0
 23 24  1  0  0  0  0
 24 25  1  0  0  0  0
 26 25  1  0  0  0  0
 27 26  1  0  0  0  0
 27 28  1  6  0  0  0
 29 27  1  0  0  0  0
 30 31  1  0  0  0  0
 31 29  1  0  0  0  0
 31 32  1  0  0  0  0
M  END
>  <MODEL>
3

>  <REMARK>
 VINA RESULT:      -5.5      3.274      9.205
  Name = 
  13 active torsions:
  status: ('A' for Active; 'I' for Inactive)
    1  A    between atoms: C_2  and  C_4
    2  A    between atoms: C_3  and  C_23
    3  A    between atoms: C_3  and  N_26
    4  A    between atoms: C_4  and  C_25
    5  A    between atoms: C_6  and  C_29
    6  A    between atoms: N_8  and  C_22
    7  A    between atoms: C_11  and  N_12
    8  A    between atoms: N_12  and  C_15
    9  A    between atoms: C_15  and  C_23
   10  A    between atoms: C_17  and  C_22
   11  A    between atoms: O_19  and  C_25
   12  A    between atoms: N_26  and  C_27
   13  A    between atoms: C_27  and  C_30
                            x       y       z     vdW  Elec       q    Type
                         _______ _______ _______ _____ _____    ______ ____

>  <TORSDO>
F 13

$$$$
=
 OpenBabel11062419033D

 32 35  0  0  1  0  0  0  0  0999 V2000
  188.6880  176.4440  143.2420 C   0  0  0  0  0  0  0  0  0  0  0  0
  189.2680  175.0450  145.1460 C   0  0  0  0  0  3  0  0  0  0  0  0
  190.1620  172.7410  144.8840 C   0  0  0  0  0  1  0  0  0  0  0  0
  188.7870  176.2550  144.6360 C   0  0  0  0  0  0  0  0  0  0  0  0
  189.6550  174.0120  144.2900 C   0  0  0  0  0  0  0  0  0  0  0  0
  189.5570  174.1860  142.8990 C   0  0  0  0  0  0  0  0  0  0  0  0
  189.0840  175.3970  142.3870 C   0  0  0  0  0  3  0  0  0  0  0  0
  189.0580  178.3670  141.7040 C   0  0  0  0  0  2  0  0  0  0  0  0
  186.7830  177.8370  142.2300 C   0  0  1  0  0  3  0  0  0  0  0  0
  187.8600  177.6420  141.2440 N   0  0  2  0  0  0  0  0  0  0  0  0
  186.0580  176.5880  142.4170 N   0  0  0  0  0  1  0  0  0  0  0  0
  188.1760  177.7690  142.6960 C   0  0  2  0  0  0  0  0  0  0  0  0
  188.3830  177.3270  145.5990 C   0  0  0  0  0  2  0  0  0  0  0  0
  185.1310  177.2570  146.8630 C   0  0  2  0  0  3  0  0  0  0  0  0
  187.3580  176.8320  146.5070 N   0  0  0  0  0  0  0  0  0  0  0  0
  187.3130  177.7510  147.6340 C   0  0  0  0  0  2  0  0  0  0  0  0
  185.8640  177.9460  147.9840 C   0  0  0  0  0  2  0  0  0  0  0  0
  186.1220  176.9490  145.8440 N   0  0  0  0  0  2  0  0  0  0  0  0
  184.0610  178.1640  146.2750 C   0  0  0  0  0  2  0  0  0  0  0  0
  184.5200  178.7730  144.9600 C   0  0  0  0  0  2  0  0  0  0  0  0
  185.2730  179.9240  145.1990 O   0  0  0  0  0  0  0  0  0  0  0  0
  185.5800  180.3720  144.0000 O   0  0  0  0  0  1  0  0  0  0  0  0
  189.9790  173.1170  141.9430 C   0  0  0  0  0  2  0  0  0  0  0  0
  191.0800  173.5900  141.1210 N   0  0  0  0  0  2  0  0  0  0  0  0
  192.2880  173.4850  141.9220 C   0  0  0  0  0  2  0  0  0  0  0  0
  193.0360  174.8080  141.9210 C   0  0  0  0  0  2  0  0  0  0  0  0
  192.8230  175.5560  143.2270 C   0  0  2  0  0  3  0  0  0  0  0  0
  192.2650  176.8110  142.9710 O   0  0  0  0  0  1  0  0  0  0  0  0
  194.1020  175.7220  143.8990 N   0  0  0  0  0  2  0  0  0  0  0  0
  192.9340  175.0290  145.9100 C   0  0  0  0  0  1  0  0  0  0  0  0
  194.1320  174.7900  145.0130 C   0  0  0  0  0  3  0  0  0  0  0  0
  195.4020  174.9990  145.8120 C   0  0  0  0  0  1  0  0  0  0  0  0
  1  4  1  0  0  0  0
  4  2  2  0  0  0  0
  4 13  1  0  0  0  0
  5  3  1  0  0  0  0
  5  2  1  0  0  0  0
  6  5  2  0  0  0  0
  7  6  1  0  0  0  0
  7  1  2  0  0  0  0
  8 12  1  0  0  0  0
  9 11  1  1  0  0  0
  9 12  1  0  0  0  0
 10  8  1  6  0  0  0
 10  9  1  0  0  0  0
 10 12  1  0  0  0  0
 12  1  1  1  0  0  0
 13 15  1  0  0  0  0
 14 19  1  6  0  0  0
 14 17  1  0  0  0  0
 15 16  1  0  0  0  0
 16 17  1  0  0  0  0
 18 15  1  0  0  0  0
 18 14  1  0  0  0  0
 20 21  1  0  0  0  0
 20 19  1  0  0  0  0
 22 21  1  0  0  0  0
 23  6  1  0  0  0  0
 24 25  1  0  0  0  0
 24 23  1  0  0  0  0
 26 25  1  0  0  0  0
 26 27  1  0  0  0  0
 27 28  1  6  0  0  0
 27 29  1  0  0  0  0
 29 31  1  0  0  0  0
 31 32  1  0  0  0  0
 31 30  1  0  0  0  0
M  END
>  <MODEL>
4

>  <REMARK>
 VINA RESULT:      -5.4      2.301      7.518
  Name = 
  13 active torsions:
  status: ('A' for Active; 'I' for Inactive)
    1  A    between atoms: C_2  and  C_4
    2  A    between atoms: C_3  and  C_23
    3  A    between atoms: C_3  and  N_26
    4  A    between atoms: C_4  and  C_25
    5  A    between atoms: C_6  and  C_29
    6  A    between atoms: N_8  and  C_22
    7  A    between atoms: C_11  and  N_12
    8  A    between atoms: N_12  and  C_15
    9  A    between atoms: C_15  and  C_23
   10  A    between atoms: C_17  and  C_22
   11  A    between atoms: O_19  and  C_25
   12  A    between atoms: N_26  and  C_27
   13  A    between atoms: C_27  and  C_30
                            x       y       z     vdW  Elec       q    Type
                         _______ _______ _______ _____ _____    ______ ____

>  <TORSDO>
F 13

$$$$
=
 OpenBabel11062419033D

 32 35  0  0  1  0  0  0  0  0999 V2000
  189.2270  174.9000  142.2670 C   0  0  0  0  0  0  0  0  0  0  0  0
  189.2330  177.1640  143.1590 C   0  0  0  0  0  3  0  0  0  0  0  0
  191.3310  178.4330  143.5580 C   0  0  0  0  0  1  0  0  0  0  0  0
  188.5290  176.0280  142.7450 C   0  0  0  0  0  0  0  0  0  0  0  0
  190.6280  177.1980  143.1060 C   0  0  0  0  0  0  0  0  0  0  0  0
  191.3350  176.0790  142.6360 C   0  0  0  0  0  0  0  0  0  0  0  0
  190.6340  174.9470  142.2150 C   0  0  0  0  0  3  0  0  0  0  0  0
  188.6400  173.3650  140.3970 C   0  0  0  0  0  2  0  0  0  0  0  0
  188.5560  172.4440  142.6060 C   0  0  1  0  0  3  0  0  0  0  0  0
  189.3920  172.5900  141.4020 N   0  0  2  0  0  0  0  0  0  0  0  0
  189.3800  172.6060  143.7960 N   0  0  0  0  0  1  0  0  0  0  0  0
  188.4510  173.6740  141.8070 C   0  0  2  0  0  0  0  0  0  0  0  0
  187.0340  176.0440  142.8270 C   0  0  0  0  0  2  0  0  0  0  0  0
  185.3610  178.4990  144.6570 C   0  0  2  0  0  3  0  0  0  0  0  0
  186.5530  177.4020  143.0310 N   0  0  0  0  0  0  0  0  0  0  0  0
  185.1810  177.4410  142.5480 C   0  0  0  0  0  2  0  0  0  0  0  0
  184.3940  178.2710  143.5240 C   0  0  0  0  0  2  0  0  0  0  0  0
  186.4950  177.6210  144.4200 N   0  0  0  0  0  2  0  0  0  0  0  0
  184.7220  178.1560  145.9940 C   0  0  0  0  0  2  0  0  0  0  0  0
  185.1340  176.7680  146.4580 C   0  0  0  0  0  2  0  0  0  0  0  0
  185.9840  176.8610  147.5610 O   0  0  0  0  0  0  0  0  0  0  0  0
  185.7330  178.0470  148.0730 O   0  0  0  0  0  1  0  0  0  0  0  0
  192.8270  176.0760  142.5410 C   0  0  0  0  0  2  0  0  0  0  0  0
  193.4110  176.2240  143.8640 N   0  0  0  0  0  2  0  0  0  0  0  0
  193.5580  174.8890  144.4190 C   0  0  0  0  0  2  0  0  0  0  0  0
  192.6380  174.7120  145.6150 C   0  0  0  0  0  2  0  0  0  0  0  0
  192.4470  176.0270  146.3550 C   0  0  2  0  0  3  0  0  0  0  0  0
  193.6270  176.3790  147.0140 O   0  0  0  0  0  1  0  0  0  0  0  0
  191.3750  175.8790  147.3270 N   0  0  0  0  0  2  0  0  0  0  0  0
  189.4580  177.2810  146.8280 C   0  0  0  0  0  1  0  0  0  0  0  0
  190.1180  175.9350  146.6000 C   0  0  0  0  0  3  0  0  0  0  0  0
  189.1990  174.8380  147.0940 C   0  0  0  0  0  1  0  0  0  0  0  0
  1  4  1  0  0  0  0
  4 13  1  0  0  0  0
  4  2  2  0  0  0  0
  5  2  1  0  0  0  0
  5  3  1  0  0  0  0
  6  5  2  0  0  0  0
  7  1  2  0  0  0  0
  7  6  1  0  0  0  0
  8 12  1  0  0  0  0
  9 11  1  1  0  0  0
 10  8  1  6  0  0  0
 10 12  1  0  0  0  0
 10  9  1  0  0  0  0
 12  1  1  1  0  0  0
 12  9  1  0  0  0  0
 13 15  1  0  0  0  0
 14 19  1  1  0  0  0
 15 18  1  0  0  0  0
 16 15  1  0  0  0  0
 16 17  1  0  0  0  0
 17 14  1  0  0  0  0
 18 14  1  0  0  0  0
 19 20  1  0  0  0  0
 20 21  1  0  0  0  0
 21 22  1  0  0  0  0
 23  6  1  0  0  0  0
 23 24  1  0  0  0  0
 24 25  1  0  0  0  0
 25 26  1  0  0  0  0
 26 27  1  0  0  0  0
 27 28  1  1  0  0  0
 27 29  1  0  0  0  0
 31 30  1  0  0  0  0
 31 32  1  0  0  0  0
 31 29  1  0  0  0  0
M  END
>  <MODEL>
5

>  <REMARK>
 VINA RESULT:      -5.4      1.897      6.708
  Name = 
  13 active torsions:
  status: ('A' for Active; 'I' for Inactive)
    1  A    between atoms: C_2  and  C_4
    2  A    between atoms: C_3  and  C_23
    3  A    between atoms: C_3  and  N_26
    4  A    between atoms: C_4  and  C_25
    5  A    between atoms: C_6  and  C_29
    6  A    between atoms: N_8  and  C_22
    7  A    between atoms: C_11  and  N_12
    8  A    between atoms: N_12  and  C_15
    9  A    between atoms: C_15  and  C_23
   10  A    between atoms: C_17  and  C_22
   11  A    between atoms: O_19  and  C_25
   12  A    between atoms: N_26  and  C_27
   13  A    between atoms: C_27  and  C_30
                            x       y       z     vdW  Elec       q    Type
                         _______ _______ _______ _____ _____    ______ ____

>  <TORSDO>
F 13

$$$$
=
 OpenBabel11062419033D

 32 35  0  0  1  0  0  0  0  0999 V2000
  189.3900  175.2050  144.6840 C   0  0  0  0  0  0  0  0  0  0  0  0
  188.8620  174.7480  142.3530 C   0  0  0  0  0  3  0  0  0  0  0  0
  190.4230  173.5380  140.8460 C   0  0  0  0  0  1  0  0  0  0  0  0
  188.5050  175.2960  143.5900 C   0  0  0  0  0  0  0  0  0  0  0  0
  190.0910  174.1070  142.1840 C   0  0  0  0  0  0  0  0  0  0  0  0
  190.9830  174.0130  143.2650 C   0  0  0  0  0  0  0  0  0  0  0  0
  190.6260  174.5530  144.5030 C   0  0  0  0  0  3  0  0  0  0  0  0
  189.2820  174.9180  147.1550 C   0  0  0  0  0  2  0  0  0  0  0  0
  189.4080  177.1670  146.3410 C   0  0  1  0  0  3  0  0  0  0  0  0
  190.1960  176.0380  146.8680 N   0  0  2  0  0  0  0  0  0  0  0  0
  190.1340  177.8020  145.2500 N   0  0  0  0  0  1  0  0  0  0  0  0
  188.9880  175.7930  146.0290 C   0  0  2  0  0  0  0  0  0  0  0  0
  187.1780  175.9750  143.7150 C   0  0  0  0  0  2  0  0  0  0  0  0
  186.0930  179.2760  143.3880 C   0  0  2  0  0  3  0  0  0  0  0  0
  187.2280  177.3000  143.1140 N   0  0  0  0  0  0  0  0  0  0  0  0
  186.2260  177.3230  142.0590 C   0  0  0  0  0  2  0  0  0  0  0  0
  185.5520  178.6650  142.1220 C   0  0  0  0  0  2  0  0  0  0  0  0
  186.8020  178.2190  144.0910 N   0  0  0  0  0  2  0  0  0  0  0  0
  184.9660  179.8020  144.2630 C   0  0  0  0  0  2  0  0  0  0  0  0
  184.0920  178.6670  144.7720 C   0  0  0  0  0  2  0  0  0  0  0  0
  184.0610  178.6710  146.1680 O   0  0  0  0  0  0  0  0  0  0  0  0
  184.4540  177.4630  146.5110 O   0  0  0  0  0  1  0  0  0  0  0  0
  192.3010  173.3180  143.1370 C   0  0  0  0  0  2  0  0  0  0  0  0
  192.3530  172.1800  144.0400 N   0  0  0  0  0  2  0  0  0  0  0  0
  193.7390  172.0230  144.4500 C   0  0  0  0  0  2  0  0  0  0  0  0
  194.1410  173.1480  145.3880 C   0  0  0  0  0  2  0  0  0  0  0  0
  195.5430  173.6460  145.0740 C   0  0  2  0  0  3  0  0  0  0  0  0
  196.0330  174.3980  146.1440 O   0  0  0  0  0  1  0  0  0  0  0  0
  195.5020  174.4740  143.8780 N   0  0  0  0  0  2  0  0  0  0  0  0
  194.0680  176.4180  144.1050 C   0  0  0  0  0  1  0  0  0  0  0  0
  195.4630  175.8600  144.3100 C   0  0  0  0  0  3  0  0  0  0  0  0
  196.4490  176.6700  143.4950 C   0  0  0  0  0  1  0  0  0  0  0  0
  2  4  1  0  0  0  0
  3  5  1  0  0  0  0
  4 13  1  0  0  0  0
  4  1  2  0  0  0  0
  5  2  2  0  0  0  0
  5  6  1  0  0  0  0
  6  7  2  0  0  0  0
  7  1  1  0  0  0  0
  9 11  1  6  0  0  0
  9 10  1  0  0  0  0
 10  8  1  1  0  0  0
 12  1  1  6  0  0  0
 12  9  1  0  0  0  0
 12 10  1  0  0  0  0
 12  8  1  0  0  0  0
 14 18  1  0  0  0  0
 14 19  1  1  0  0  0
 15 13  1  0  0  0  0
 15 18  1  0  0  0  0
 16 17  1  0  0  0  0
 16 15  1  0  0  0  0
 17 14  1  0  0  0  0
 19 20  1  0  0  0  0
 20 21  1  0  0  0  0
 21 22  1  0  0  0  0
 23  6  1  0  0  0  0
 23 24  1  0  0  0  0
 24 25  1  0  0  0  0
 25 26  1  0  0  0  0
 27 26  1  0  0  0  0
 27 28  1  1  0  0  0
 29 31  1  0  0  0  0
 29 27  1  0  0  0  0
 30 31  1  0  0  0  0
 32 31  1  0  0  0  0
M  END
>  <MODEL>
6

>  <REMARK>
 VINA RESULT:      -5.2      1.953      7.940
  Name = 
  13 active torsions:
  status: ('A' for Active; 'I' for Inactive)
    1  A    between atoms: C_2  and  C_4
    2  A    between atoms: C_3  and  C_23
    3  A    between atoms: C_3  and  N_26
    4  A    between atoms: C_4  and  C_25
    5  A    between atoms: C_6  and  C_29
    6  A    between atoms: N_8  and  C_22
    7  A    between atoms: C_11  and  N_12
    8  A    between atoms: N_12  and  C_15
    9  A    between atoms: C_15  and  C_23
   10  A    between atoms: C_17  and  C_22
   11  A    between atoms: O_19  and  C_25
   12  A    between atoms: N_26  and  C_27
   13  A    between atoms: C_27  and  C_30
                            x       y       z     vdW  Elec       q    Type
                         _______ _______ _______ _____ _____    ______ ____

>  <TORSDO>
F 13

$$$$
=
 OpenBabel11062419033D

 32 35  0  0  1  0  0  0  0  0999 V2000
  190.7910  174.4710  145.2560 C   0  0  0  0  0  0  0  0  0  0  0  0
  191.9480  175.7870  146.9450 C   0  0  0  0  0  3  0  0  0  0  0  0
  190.8250  177.5970  148.2240 C   0  0  0  0  0  1  0  0  0  0  0  0
  191.9610  174.7680  145.9860 C   0  0  0  0  0  0  0  0  0  0  0  0
  190.7860  176.5210  147.1910 C   0  0  0  0  0  0  0  0  0  0  0  0
  189.6160  176.2390  146.4670 C   0  0  0  0  0  0  0  0  0  0  0  0
  189.6240  175.2160  145.5150 C   0  0  0  0  0  3  0  0  0  0  0  0
  189.6930  172.4300  144.3490 C   0  0  0  0  0  2  0  0  0  0  0  0
  191.0070  173.7120  142.8120 C   0  0  1  0  0  3  0  0  0  0  0  0
  189.6400  173.4730  143.3090 N   0  0  2  0  0  0  0  0  0  0  0  0
  191.2110  175.1390  142.6100 N   0  0  0  0  0  1  0  0  0  0  0  0
  190.8120  173.3530  144.2250 C   0  0  2  0  0  0  0  0  0  0  0  0
  193.2340  174.0150  145.7600 C   0  0  0  0  0  2  0  0  0  0  0  0
  195.8770  174.2330  143.4920 C   0  0  2  0  0  3  0  0  0  0  0  0
  194.1030  174.7500  144.8530 N   0  0  0  0  0  0  0  0  0  0  0  0
  195.2910  175.1140  145.6090 C   0  0  0  0  0  2  0  0  0  0  0  0
  196.4700  174.9160  144.6970 C   0  0  0  0  0  2  0  0  0  0  0  0
  194.5220  173.8510  143.8550 N   0  0  0  0  0  2  0  0  0  0  0  0
  196.6750  172.9910  143.1240 C   0  0  0  0  0  2  0  0  0  0  0  0
  196.3490  171.8350  144.0550 C   0  0  0  0  0  2  0  0  0  0  0  0
  197.3960  171.6310  144.9560 O   0  0  0  0  0  0  0  0  0  0  0  0
  196.8080  171.5300  146.1290 O   0  0  0  0  0  1  0  0  0  0  0  0
  188.3430  176.9840  146.7100 C   0  0  0  0  0  2  0  0  0  0  0  0
  187.3240  176.0780  147.2140 N   0  0  0  0  0  2  0  0  0  0  0  0
  186.1700  176.8870  147.5710 C   0  0  0  0  0  2  0  0  0  0  0  0
  186.4160  178.3420  147.2070 C   0  0  0  0  0  2  0  0  0  0  0  0
  185.2660  178.9010  146.3850 C   0  0  2  0  0  3  0  0  0  0  0  0
  184.1360  178.0940  146.5350 O   0  0  0  0  0  1  0  0  0  0  0  0
  185.6530  178.9380  144.9830 N   0  0  0  0  0  2  0  0  0  0  0  0
  185.9640  176.8360  143.8110 C   0  0  0  0  0  1  0  0  0  0  0  0
  184.9570  177.8530  144.3110 C   0  0  0  0  0  3  0  0  0  0  0  0
  184.1790  178.4050  143.1350 C   0  0  0  0  0  1  0  0  0  0  0  0
  1  7  2  0  0  0  0
  1  4  1  0  0  0  0
  2  5  1  0  0  0  0
  4  2  2  0  0  0  0
  5  3  1  0  0  0  0
  6 23  1  0  0  0  0
  6  5  2  0  0  0  0
  7  6  1  0  0  0  0
  9 11  1  1  0  0  0
  9 10  1  0  0  0  0
  9 12  1  0  0  0  0
 10 12  1  0  0  0  0
 10  8  1  6  0  0  0
 12  8  1  0  0  0  0
 12  1  1  1  0  0  0
 13  4  1  0  0  0  0
 14 19  1  1  0  0  0
 14 18  1  0  0  0  0
 14 17  1  0  0  0  0
 15 16  1  0  0  0  0
 15 13  1  0  0  0  0
 17 16  1  0  0  0  0
 18 15  1  0  0  0  0
 19 20  1  0  0  0  0
 20 21  1  0  0  0  0
 21 22  1  0  0  0  0
 23 24  1  0  0  0  0
 24 25  1  0  0  0  0
 26 25  1  0  0  0  0
 27 28  1  6  0  0  0
 27 26  1  0  0  0  0
 29 27  1  0  0  0  0
 30 31  1  0  0  0  0
 31 29  1  0  0  0  0
 32 31  1  0  0  0  0
M  END
>  <MODEL>
7

>  <REMARK>
 VINA RESULT:      -5.1      1.944      3.416
  Name = 
  13 active torsions:
  status: ('A' for Active; 'I' for Inactive)
    1  A    between atoms: C_2  and  C_4
    2  A    between atoms: C_3  and  C_23
    3  A    between atoms: C_3  and  N_26
    4  A    between atoms: C_4  and  C_25
    5  A    between atoms: C_6  and  C_29
    6  A    between atoms: N_8  and  C_22
    7  A    between atoms: C_11  and  N_12
    8  A    between atoms: N_12  and  C_15
    9  A    between atoms: C_15  and  C_23
   10  A    between atoms: C_17  and  C_22
   11  A    between atoms: O_19  and  C_25
   12  A    between atoms: N_26  and  C_27
   13  A    between atoms: C_27  and  C_30
                            x       y       z     vdW  Elec       q    Type
                         _______ _______ _______ _____ _____    ______ ____

>  <TORSDO>
F 13

$$$$
=
 OpenBabel11062419033D

 32 35  0  0  1  0  0  0  0  0999 V2000
  189.7090  175.4510  143.9170 C   0  0  0  0  0  0  0  0  0  0  0  0
  188.5710  174.8180  141.8610 C   0  0  0  0  0  3  0  0  0  0  0  0
  189.7210  173.6070  140.0210 C   0  0  0  0  0  1  0  0  0  0  0  0
  188.5440  175.4220  143.1230 C   0  0  0  0  0  0  0  0  0  0  0  0
  189.7440  174.2390  141.3720 C   0  0  0  0  0  0  0  0  0  0  0  0
  190.9120  174.2650  142.1520 C   0  0  0  0  0  0  0  0  0  0  0  0
  190.8850  174.8610  143.4150 C   0  0  0  0  0  3  0  0  0  0  0  0
  190.3300  175.3150  146.3240 C   0  0  0  0  0  2  0  0  0  0  0  0
  190.0570  177.5110  145.4100 C   0  0  1  0  0  3  0  0  0  0  0  0
  191.0420  176.4640  145.7360 N   0  0  2  0  0  0  0  0  0  0  0  0
  190.3940  178.1170  144.1290 N   0  0  0  0  0  1  0  0  0  0  0  0
  189.6650  176.0990  145.2930 C   0  0  2  0  0  0  0  0  0  0  0  0
  187.2610  176.0320  143.5960 C   0  0  0  0  0  2  0  0  0  0  0  0
  185.9400  179.2540  143.3800 C   0  0  2  0  0  3  0  0  0  0  0  0
  187.0030  177.2790  142.8920 N   0  0  0  0  0  0  0  0  0  0  0  0
  185.6800  177.1650  142.3010 C   0  0  0  0  0  2  0  0  0  0  0  0
  185.0000  178.4940  142.4820 C   0  0  0  0  0  2  0  0  0  0  0  0
  186.9220  178.2960  143.8620 N   0  0  0  0  0  2  0  0  0  0  0  0
  185.1950  179.8570  144.5610 C   0  0  0  0  0  2  0  0  0  0  0  0
  185.4150  179.0390  145.8230 C   0  0  0  0  0  2  0  0  0  0  0  0
  184.4750  178.0110  145.9020 O   0  0  0  0  0  0  0  0  0  0  0  0
  185.1580  176.9700  146.3270 O   0  0  0  0  0  1  0  0  0  0  0  0
  192.1850  173.6390  141.6800 C   0  0  0  0  0  2  0  0  0  0  0  0
  193.0330  174.6420  141.0570 N   0  0  0  0  0  2  0  0  0  0  0  0
  194.2580  174.7110  141.8360 C   0  0  0  0  0  2  0  0  0  0  0  0
  194.3570  176.0520  142.5440 C   0  0  0  0  0  2  0  0  0  0  0  0
  195.1340  175.9270  143.8450 C   0  0  2  0  0  3  0  0  0  0  0  0
  196.2270  176.7960  143.8320 O   0  0  0  0  0  1  0  0  0  0  0  0
  195.6040  174.5580  143.9930 N   0  0  0  0  0  2  0  0  0  0  0  0
  196.3350  173.0070  145.7100 C   0  0  0  0  0  1  0  0  0  0  0  0
  195.4470  174.1940  145.3910 C   0  0  0  0  0  3  0  0  0  0  0  0
  194.0030  173.8230  145.6560 C   0  0  0  0  0  1  0  0  0  0  0  0
  2  4  1  0  0  0  0
  3  5  1  0  0  0  0
  4 13  1  0  0  0  0
  4  1  2  0  0  0  0
  5  2  2  0  0  0  0
  5  6  1  0  0  0  0
  6  7  2  0  0  0  0
  7  1  1  0  0  0  0
  9 11  1  6  0  0  0
  9 10  1  0  0  0  0
 10  8  1  1  0  0  0
 12  1  1  6  0  0  0
 12  9  1  0  0  0  0
 12 10  1  0  0  0  0
 12  8  1  0  0  0  0
 14 18  1  0  0  0  0
 14 19  1  1  0  0  0
 15 13  1  0  0  0  0
 15 18  1  0  0  0  0
 16 17  1  0  0  0  0
 16 15  1  0  0  0  0
 17 14  1  0  0  0  0
 19 20  1  0  0  0  0
 20 21  1  0  0  0  0
 21 22  1  0  0  0  0
 23  6  1  0  0  0  0
 24 23  1  0  0  0  0
 24 25  1  0  0  0  0
 25 26  1  0  0  0  0
 26 27  1  0  0  0  0
 27 28  1  6  0  0  0
 27 29  1  0  0  0  0
 29 31  1  0  0  0  0
 31 32  1  0  0  0  0
 31 30  1  0  0  0  0
M  END
>  <MODEL>
8

>  <REMARK>
 VINA RESULT:      -5.1      2.306      7.757
  Name = 
  13 active torsions:
  status: ('A' for Active; 'I' for Inactive)
    1  A    between atoms: C_2  and  C_4
    2  A    between atoms: C_3  and  C_23
    3  A    between atoms: C_3  and  N_26
    4  A    between atoms: C_4  and  C_25
    5  A    between atoms: C_6  and  C_29
    6  A    between atoms: N_8  and  C_22
    7  A    between atoms: C_11  and  N_12
    8  A    between atoms: N_12  and  C_15
    9  A    between atoms: C_15  and  C_23
   10  A    between atoms: C_17  and  C_22
   11  A    between atoms: O_19  and  C_25
   12  A    between atoms: N_26  and  C_27
   13  A    between atoms: C_27  and  C_30
                            x       y       z     vdW  Elec       q    Type
                         _______ _______ _______ _____ _____    ______ ____

>  <TORSDO>
F 13

$$$$
=
 OpenBabel11062419033D

 32 35  0  0  1  0  0  0  0  0999 V2000
  190.8040  173.7730  144.6300 C   0  0  0  0  0  0  0  0  0  0  0  0
  192.1640  174.9100  146.2970 C   0  0  0  0  0  3  0  0  0  0  0  0
  191.1790  176.3670  148.0510 C   0  0  0  0  0  1  0  0  0  0  0  0
  192.0670  174.0640  145.1860 C   0  0  0  0  0  0  0  0  0  0  0  0
  191.0210  175.4740  146.8680 C   0  0  0  0  0  0  0  0  0  0  0  0
  189.7580  175.1940  146.3200 C   0  0  0  0  0  0  0  0  0  0  0  0
  189.6580  174.3440  145.2160 C   0  0  0  0  0  3  0  0  0  0  0  0
  189.5900  171.9120  143.5060 C   0  0  0  0  0  2  0  0  0  0  0  0
  190.7740  173.4320  142.0840 C   0  0  1  0  0  3  0  0  0  0  0  0
  189.4560  173.1150  142.6640 N   0  0  2  0  0  0  0  0  0  0  0  0
  190.9820  174.8730  142.1050 N   0  0  0  0  0  1  0  0  0  0  0  0
  190.7070  172.8420  143.4300 C   0  0  2  0  0  0  0  0  0  0  0  0
  193.3230  173.4900  144.6120 C   0  0  0  0  0  2  0  0  0  0  0  0
  196.4590  175.0210  144.6840 C   0  0  2  0  0  3  0  0  0  0  0  0
  194.4870  174.0240  145.3050 N   0  0  0  0  0  0  0  0  0  0  0  0
  195.4840  172.9650  145.3340 C   0  0  0  0  0  2  0  0  0  0  0  0
  196.8160  173.6080  145.0640 C   0  0  0  0  0  2  0  0  0  0  0  0
  195.0160  175.0520  144.5020 N   0  0  0  0  0  2  0  0  0  0  0  0
  197.1440  175.4250  143.3870 C   0  0  0  0  0  2  0  0  0  0  0  0
  196.6580  176.7850  142.9110 C   0  0  0  0  0  2  0  0  0  0  0  0
  196.4950  176.7810  141.5250 O   0  0  0  0  0  0  0  0  0  0  0  0
  195.3250  176.2120  141.3310 O   0  0  0  0  0  1  0  0  0  0  0  0
  188.5050  175.7580  146.9090 C   0  0  0  0  0  2  0  0  0  0  0  0
  187.9650  176.7900  146.0400 N   0  0  0  0  0  2  0  0  0  0  0  0
  187.1510  177.6650  146.8680 C   0  0  0  0  0  2  0  0  0  0  0  0
  185.6790  177.3270  146.7010 C   0  0  0  0  0  2  0  0  0  0  0  0
  185.0160  178.2560  145.6970 C   0  0  2  0  0  3  0  0  0  0  0  0
  183.7340  178.5940  146.1340 O   0  0  0  0  0  1  0  0  0  0  0  0
  184.9290  177.5870  144.4080 N   0  0  0  0  0  2  0  0  0  0  0  0
  184.0320  178.2870  142.2650 C   0  0  0  0  0  1  0  0  0  0  0  0
  185.0060  178.6110  143.3800 C   0  0  0  0  0  3  0  0  0  0  0  0
  186.4120  178.6550  142.8180 C   0  0  0  0  0  1  0  0  0  0  0  0
  1  4  2  0  0  0  0
  1  7  1  0  0  0  0
  2  5  2  0  0  0  0
  4  2  1  0  0  0  0
  5  3  1  0  0  0  0
  6  5  1  0  0  0  0
  6 23  1  0  0  0  0
  7  6  2  0  0  0  0
  9 11  1  1  0  0  0
  9 10  1  0  0  0  0
  9 12  1  0  0  0  0
 10 12  1  0  0  0  0
 10  8  1  6  0  0  0
 12  8  1  0  0  0  0
 12  1  1  1  0  0  0
 13  4  1  0  0  0  0
 13 15  1  0  0  0  0
 14 19  1  6  0  0  0
 14 17  1  0  0  0  0
 15 16  1  0  0  0  0
 17 16  1  0  0  0  0
 18 14  1  0  0  0  0
 18 15  1  0  0  0  0
 20 19  1  0  0  0  0
 21 20  1  0  0  0  0
 22 21  1  0  0  0  0
 24 25  1  0  0  0  0
 24 23  1  0  0  0  0
 26 25  1  0  0  0  0
 27 28  1  1  0  0  0
 27 26  1  0  0  0  0
 29 27  1  0  0  0  0
 30 31  1  0  0  0  0
 31 29  1  0  0  0  0
 32 31  1  0  0  0  0
M  END
>  <MODEL>
9

>  <REMARK>
 VINA RESULT:      -5.1      2.337      3.691
  Name = 
  13 active torsions:
  status: ('A' for Active; 'I' for Inactive)
    1  A    between atoms: C_2  and  C_4
    2  A    between atoms: C_3  and  C_23
    3  A    between atoms: C_3  and  N_26
    4  A    between atoms: C_4  and  C_25
    5  A    between atoms: C_6  and  C_29
    6  A    between atoms: N_8  and  C_22
    7  A    between atoms: C_11  and  N_12
    8  A    between atoms: N_12  and  C_15
    9  A    between atoms: C_15  and  C_23
   10  A    between atoms: C_17  and  C_22
   11  A    between atoms: O_19  and  C_25
   12  A    between atoms: N_26  and  C_27
   13  A    between atoms: C_27  and  C_30
                            x       y       z     vdW  Elec       q    Type
                         _______ _______ _______ _____ _____    ______ ____

>  <TORSDO>
F 13

$$$$
