=
 OpenBabel11062418493D

 37 40  0  0  1  0  0  0  0  0999 V2000
  194.0040  173.6900  144.7100 C   0  0  0  0  0  0  0  0  0  0  0  0
  194.4460  172.7420  145.4160 O   0  0  0  0  0  0  0  0  0  0  0  0
  191.8640  173.9700  142.7910 O   0  0  0  0  0  0  0  0  0  0  0  0
  192.6860  174.2090  144.9630 N   0  0  0  0  0  0  0  0  0  0  0  0
  191.8330  174.6100  143.8760 C   0  0  0  0  0  0  0  0  0  0  0  0
  195.0360  173.6260  142.4390 O   0  0  0  0  0  0  0  0  0  0  0  0
  197.0990  173.7580  139.4820 C   0  0  0  0  0  3  0  0  0  0  0  0
  197.4530  175.8300  140.6810 N   0  0  0  0  0  0  0  0  0  0  0  0
  194.8640  174.2840  143.6660 C   0  0  0  0  0  0  0  0  0  0  0  0
  196.0870  173.3790  140.2690 C   0  0  0  0  0  3  0  0  0  0  0  0
  195.4970  175.4460  143.8810 C   0  0  0  0  0  3  0  0  0  0  0  0
  197.7400  175.0780  139.6600 C   0  0  0  0  0  3  0  0  0  0  0  0
  196.4840  175.4120  141.6520 C   0  0  0  0  0  0  0  0  0  0  0  0
  196.3940  176.0040  142.8510 C   0  0  0  0  0  0  0  0  0  0  0  0
  195.5070  174.3200  141.2850 C   0  0  2  0  0  3  0  0  0  0  0  0
  197.2320  177.1070  143.1810 N   0  0  0  0  0  1  0  0  0  0  0  0
  192.1020  174.0650  146.2920 C   0  0  0  0  0  2  0  0  0  0  0  0
  192.4440  175.2720  147.1510 C   0  0  0  0  0  2  0  0  0  0  0  0
  191.2380  177.0360  148.4310 O   0  0  0  0  0  1  0  0  0  0  0  0
  191.2070  175.8150  147.7710 C   0  0  0  0  0  0  0  0  0  0  0  0
  190.1370  175.1530  147.7260 O   0  0  0  0  0  0  0  0  0  0  0  0
  190.9660  175.7010  143.9870 O   0  0  0  0  0  0  0  0  0  0  0  0
  190.3910  178.0990  143.8810 C   0  0  2  0  0  3  0  0  0  0  0  0
  191.5660  177.7850  142.9680 C   0  0  0  0  0  2  0  0  0  0  0  0
  191.4160  177.0230  144.2660 C   0  0  2  0  0  3  0  0  0  0  0  0
  185.6630  177.2090  145.7810 C   0  0  2  0  0  3  0  0  0  0  0  0
  189.0280  177.3360  142.0750 O   0  0  0  0  0  0  0  0  0  0  0  0
  186.7480  176.7300  143.5770 C   0  0  0  0  0  2  0  0  0  0  0  0
  186.9670  177.8020  146.3180 C   0  0  0  0  0  2  0  0  0  0  0  0
  187.9900  177.2360  144.1650 N   0  0  0  0  0  0  0  0  0  0  0  0
  189.1040  177.5580  143.3140 C   0  0  0  0  0  0  0  0  0  0  0  0
  185.5350  177.3680  144.2540 C   0  0  2  0  0  3  0  0  0  0  0  0
  188.1550  177.1520  145.6150 C   0  0  0  0  0  2  0  0  0  0  0  0
  184.7770  178.6170  147.5300 O   0  0  0  0  0  1  0  0  0  0  0  0
  184.4360  177.6670  146.5650 C   0  0  0  0  0  2  0  0  0  0  0  0
  185.4060  178.8190  143.8070 C   0  0  0  0  0  2  0  0  0  0  0  0
  185.7200  178.9300  142.4520 O   0  0  0  0  0  1  0  0  0  0  0  0
  1  4  1  0  0  0  0
  1  2  2  0  0  0  0
  3  5  2  0  0  0  0
  4 17  1  0  0  0  0
  5 22  1  0  0  0  0
  5  4  1  0  0  0  0
  6  9  1  0  0  0  0
  7 12  1  0  0  0  0
  7 10  2  0  0  0  0
  8 13  1  0  0  0  0
  9 11  2  0  0  0  0
  9  1  1  0  0  0  0
 12  8  2  0  0  0  0
 13 14  2  0  0  0  0
 14 16  1  0  0  0  0
 14 11  1  0  0  0  0
 15 10  1  6  0  0  0
 15 13  1  0  0  0  0
 15  6  1  0  0  0  0
 17 18  1  0  0  0  0
 18 20  1  0  0  0  0
 20 19  1  0  0  0  0
 21 20  2  0  0  0  0
 23 31  1  6  0  0  0
 23 25  1  0  0  0  0
 24 23  1  0  0  0  0
 24 25  1  0  0  0  0
 25 22  1  6  0  0  0
 26 29  1  0  0  0  0
 26 35  1  1  0  0  0
 27 31  2  0  0  0  0
 28 30  1  0  0  0  0
 28 32  1  0  0  0  0
 30 33  1  0  0  0  0
 31 30  1  0  0  0  0
 32 36  1  1  0  0  0
 32 26  1  0  0  0  0
 33 29  1  0  0  0  0
 35 34  1  0  0  0  0
 37 36  1  0  0  0  0
M  END
>  <MODEL>
1

>  <REMARK>
 VINA RESULT:      -6.8      0.000      0.000
  Name = 
  9 active torsions:
  status: ('A' for Active; 'I' for Inactive)
    1  A    between atoms: C_2  and  C_12
    2  A    between atoms: C_4  and  C_20
    3  A    between atoms: C_5  and  C_6
    4  A    between atoms: C_5  and  N_26
    5  A    between atoms: C_6  and  C_23
    6  A    between atoms: C_10  and  C_29
    7  A    between atoms: O_18  and  C_22
    8  A    between atoms: O_18  and  C_37
    9  A    between atoms: C_27  and  C_34
                            x       y       z     vdW  Elec       q    Type
                         _______ _______ _______ _____ _____    ______ ____

>  <TORSDO>
F 9

$$$$
=
 OpenBabel11062418493D

 37 40  0  0  1  0  0  0  0  0999 V2000
  190.2590  177.6500  143.9130 C   0  0  0  0  0  0  0  0  0  0  0  0
  190.8930  178.7400  143.8470 O   0  0  0  0  0  0  0  0  0  0  0  0
  189.2850  175.7460  141.9720 O   0  0  0  0  0  0  0  0  0  0  0  0
  190.9030  176.4280  143.5100 N   0  0  0  0  0  0  0  0  0  0  0  0
  190.1730  175.4120  142.8000 C   0  0  0  0  0  0  0  0  0  0  0  0
  187.8730  178.3730  143.7990 O   0  0  0  0  0  0  0  0  0  0  0  0
  184.4830  179.4900  144.3250 C   0  0  0  0  0  3  0  0  0  0  0  0
  184.9380  177.8070  146.0030 N   0  0  0  0  0  0  0  0  0  0  0  0
  188.8810  177.6400  144.4440 C   0  0  0  0  0  0  0  0  0  0  0  0
  185.6200  179.2550  143.6620 C   0  0  0  0  0  3  0  0  0  0  0  0
  188.5800  176.9440  145.5500 C   0  0  0  0  0  3  0  0  0  0  0  0
  184.1050  178.6650  145.4920 C   0  0  0  0  0  3  0  0  0  0  0  0
  186.2390  177.6150  145.4320 C   0  0  0  0  0  0  0  0  0  0  0  0
  187.2120  176.9830  146.1020 C   0  0  0  0  0  0  0  0  0  0  0  0
  186.4930  178.0870  144.0190 C   0  0  2  0  0  3  0  0  0  0  0  0
  186.9660  176.4350  147.3930 N   0  0  0  0  0  1  0  0  0  0  0  0
  192.3580  176.3340  143.5640 C   0  0  0  0  0  2  0  0  0  0  0  0
  192.8350  176.3640  145.0070 C   0  0  0  0  0  2  0  0  0  0  0  0
  195.1800  175.9030  144.3080 O   0  0  0  0  0  0  0  0  0  0  0  0
  194.2890  176.6660  145.0500 C   0  0  0  0  0  0  0  0  0  0  0  0
  194.7190  177.5930  145.7870 O   0  0  0  0  0  1  0  0  0  0  0  0
  190.4190  174.0510  143.0090 O   0  0  0  0  0  0  0  0  0  0  0  0
  190.4230  171.9180  144.2500 C   0  0  2  0  0  3  0  0  0  0  0  0
  189.1460  172.0670  143.4390 C   0  0  0  0  0  2  0  0  0  0  0  0
  189.7870  173.2990  144.0400 C   0  0  2  0  0  3  0  0  0  0  0  0
  195.5590  172.2330  144.7810 C   0  0  2  0  0  3  0  0  0  0  0  0
  191.4020  171.0950  142.2330 O   0  0  0  0  0  0  0  0  0  0  0  0
  194.0600  171.7090  142.8470 C   0  0  0  0  0  2  0  0  0  0  0  0
  194.3470  172.4650  145.6850 C   0  0  0  0  0  2  0  0  0  0  0  0
  192.9360  172.0180  143.7330 N   0  0  0  0  0  0  0  0  0  0  0  0
  191.6030  171.6330  143.3560 C   0  0  0  0  0  0  0  0  0  0  0  0
  195.2630  171.2240  143.6560 C   0  0  2  0  0  3  0  0  0  0  0  0
  193.1640  172.9380  144.8460 C   0  0  0  0  0  2  0  0  0  0  0  0
  197.1060  172.9550  146.4890 O   0  0  0  0  0  1  0  0  0  0  0  0
  196.8360  171.9430  145.5660 C   0  0  0  0  0  2  0  0  0  0  0  0
  194.9980  169.8120  144.1660 C   0  0  0  0  0  2  0  0  0  0  0  0
  194.3430  169.0670  143.1850 O   0  0  0  0  0  1  0  0  0  0  0  0
  1  9  1  0  0  0  0
  2  1  2  0  0  0  0
  3  5  2  0  0  0  0
  4 17  1  0  0  0  0
  4  1  1  0  0  0  0
  5 22  1  0  0  0  0
  5  4  1  0  0  0  0
  6 15  1  0  0  0  0
  6  9  1  0  0  0  0
  7 12  1  0  0  0  0
  9 11  2  0  0  0  0
 10  7  2  0  0  0  0
 11 14  1  0  0  0  0
 12  8  2  0  0  0  0
 13  8  1  0  0  0  0
 13 14  2  0  0  0  0
 14 16  1  0  0  0  0
 15 10  1  1  0  0  0
 15 13  1  0  0  0  0
 17 18  1  0  0  0  0
 18 20  1  0  0  0  0
 19 20  2  0  0  0  0
 20 21  1  0  0  0  0
 23 31  1  6  0  0  0
 24 25  1  0  0  0  0
 24 23  1  0  0  0  0
 25 22  1  6  0  0  0
 25 23  1  0  0  0  0
 26 35  1  1  0  0  0
 26 29  1  0  0  0  0
 27 31  2  0  0  0  0
 28 32  1  0  0  0  0
 28 30  1  0  0  0  0
 30 33  1  0  0  0  0
 31 30  1  0  0  0  0
 32 36  1  1  0  0  0
 32 26  1  0  0  0  0
 33 29  1  0  0  0  0
 35 34  1  0  0  0  0
 37 36  1  0  0  0  0
M  END
>  <MODEL>
2

>  <REMARK>
 VINA RESULT:      -6.8      3.127      9.063
  Name = 
  9 active torsions:
  status: ('A' for Active; 'I' for Inactive)
    1  A    between atoms: C_2  and  C_12
    2  A    between atoms: C_4  and  C_20
    3  A    between atoms: C_5  and  C_6
    4  A    between atoms: C_5  and  N_26
    5  A    between atoms: C_6  and  C_23
    6  A    between atoms: C_10  and  C_29
    7  A    between atoms: O_18  and  C_22
    8  A    between atoms: O_18  and  C_37
    9  A    between atoms: C_27  and  C_34
                            x       y       z     vdW  Elec       q    Type
                         _______ _______ _______ _____ _____    ______ ____

>  <TORSDO>
F 9

$$$$
=
 OpenBabel11062418493D

 37 40  0  0  1  0  0  0  0  0999 V2000
  192.1470  174.8070  142.5030 C   0  0  0  0  0  0  0  0  0  0  0  0
  192.3250  174.7740  141.2530 O   0  0  0  0  0  0  0  0  0  0  0  0
  192.2230  176.8780  144.5140 O   0  0  0  0  0  0  0  0  0  0  0  0
  191.0220  175.5220  143.0420 N   0  0  0  0  0  0  0  0  0  0  0  0
  191.1450  176.2770  144.2600 C   0  0  0  0  0  0  0  0  0  0  0  0
  194.2450  174.6890  143.8480 O   0  0  0  0  0  0  0  0  0  0  0  0
  197.3360  173.8790  145.5260 C   0  0  0  0  0  3  0  0  0  0  0  0
  195.8680  171.9740  145.7950 N   0  0  0  0  0  0  0  0  0  0  0  0
  193.0720  174.0710  143.3890 C   0  0  0  0  0  0  0  0  0  0  0  0
  196.3760  174.6490  145.0030 C   0  0  0  0  0  3  0  0  0  0  0  0
  192.8090  172.8090  143.7540 C   0  0  0  0  0  3  0  0  0  0  0  0
  197.0290  172.5170  146.0120 C   0  0  0  0  0  3  0  0  0  0  0  0
  194.8390  172.6920  145.1000 C   0  0  0  0  0  0  0  0  0  0  0  0
  193.7660  172.0660  144.5980 C   0  0  0  0  0  0  0  0  0  0  0  0
  194.9450  174.1940  144.9890 C   0  0  2  0  0  3  0  0  0  0  0  0
  193.5890  170.6650  144.7830 N   0  0  0  0  0  1  0  0  0  0  0  0
  189.8360  175.7200  142.2140 C   0  0  0  0  0  2  0  0  0  0  0  0
  188.9690  174.4720  142.2280 C   0  0  0  0  0  2  0  0  0  0  0  0
  188.2440  174.8880  139.8820 O   0  0  0  0  0  0  0  0  0  0  0  0
  188.7330  174.0060  140.8370 C   0  0  0  0  0  0  0  0  0  0  0  0
  188.9450  172.8040  140.5300 O   0  0  0  0  0  1  0  0  0  0  0  0
  190.0970  176.3610  145.1810 O   0  0  0  0  0  0  0  0  0  0  0  0
  188.1870  175.5440  146.5150 C   0  0  2  0  0  3  0  0  0  0  0  0
  189.4920  175.3600  147.2730 C   0  0  0  0  0  2  0  0  0  0  0  0
  189.4860  175.2150  145.7670 C   0  0  2  0  0  3  0  0  0  0  0  0
  185.0020  178.3490  143.5580 C   0  0  2  0  0  3  0  0  0  0  0  0
  188.1950  177.7730  147.3710 O   0  0  0  0  0  0  0  0  0  0  0  0
  186.6310  178.9340  145.3640 C   0  0  0  0  0  2  0  0  0  0  0  0
  185.3820  176.8710  143.6640 C   0  0  0  0  0  2  0  0  0  0  0  0
  187.0140  177.5210  145.3720 N   0  0  0  0  0  0  0  0  0  0  0  0
  187.7900  176.9970  146.4630 C   0  0  0  0  0  0  0  0  0  0  0  0
  185.1870  179.0960  144.8910 C   0  0  2  0  0  3  0  0  0  0  0  0
  186.8240  176.7450  144.1470 C   0  0  0  0  0  2  0  0  0  0  0  0
  183.5520  177.8840  141.6840 O   0  0  0  0  0  1  0  0  0  0  0  0
  183.6410  178.5640  142.9000 C   0  0  0  0  0  2  0  0  0  0  0  0
  184.2360  178.6240  145.9850 C   0  0  0  0  0  2  0  0  0  0  0  0
  184.7890  178.8800  147.2400 O   0  0  0  0  0  1  0  0  0  0  0  0
  1  4  1  0  0  0  0
  1  9  1  0  0  0  0
  2  1  2  0  0  0  0
  4  5  1  0  0  0  0
  5  3  2  0  0  0  0
  5 22  1  0  0  0  0
  6 15  1  0  0  0  0
  7 12  1  0  0  0  0
  8 12  2  0  0  0  0
  9 11  2  0  0  0  0
  9  6  1  0  0  0  0
 10  7  2  0  0  0  0
 11 14  1  0  0  0  0
 13  8  1  0  0  0  0
 14 16  1  0  0  0  0
 14 13  2  0  0  0  0
 15 10  1  6  0  0  0
 15 13  1  0  0  0  0
 17 18  1  0  0  0  0
 17  4  1  0  0  0  0
 19 20  2  0  0  0  0
 20 18  1  0  0  0  0
 21 20  1  0  0  0  0
 23 31  1  6  0  0  0
 23 24  1  0  0  0  0
 25 22  1  6  0  0  0
 25 23  1  0  0  0  0
 25 24  1  0  0  0  0
 26 35  1  1  0  0  0
 26 29  1  0  0  0  0
 26 32  1  0  0  0  0
 28 30  1  0  0  0  0
 29 33  1  0  0  0  0
 30 31  1  0  0  0  0
 31 27  2  0  0  0  0
 32 28  1  0  0  0  0
 32 36  1  1  0  0  0
 33 30  1  0  0  0  0
 34 35  1  0  0  0  0
 36 37  1  0  0  0  0
M  END
>  <MODEL>
3

>  <REMARK>
 VINA RESULT:      -6.7      2.863      4.739
  Name = 
  9 active torsions:
  status: ('A' for Active; 'I' for Inactive)
    1  A    between atoms: C_2  and  C_12
    2  A    between atoms: C_4  and  C_20
    3  A    between atoms: C_5  and  C_6
    4  A    between atoms: C_5  and  N_26
    5  A    between atoms: C_6  and  C_23
    6  A    between atoms: C_10  and  C_29
    7  A    between atoms: O_18  and  C_22
    8  A    between atoms: O_18  and  C_37
    9  A    between atoms: C_27  and  C_34
                            x       y       z     vdW  Elec       q    Type
                         _______ _______ _______ _____ _____    ______ ____

>  <TORSDO>
F 9

$$$$
=
 OpenBabel11062418493D

 37 40  0  0  1  0  0  0  0  0999 V2000
  187.6210  175.6650  142.7600 C   0  0  0  0  0  0  0  0  0  0  0  0
  186.5410  176.1680  142.3410 O   0  0  0  0  0  0  0  0  0  0  0  0
  190.2910  176.6710  143.2100 O   0  0  0  0  0  0  0  0  0  0  0  0
  188.1720  176.1090  144.0120 N   0  0  0  0  0  0  0  0  0  0  0  0
  189.5920  176.2650  144.1760 C   0  0  0  0  0  0  0  0  0  0  0  0
  188.7950  173.4680  142.6320 O   0  0  0  0  0  0  0  0  0  0  0  0
  190.9040  170.6120  141.9860 C   0  0  0  0  0  3  0  0  0  0  0  0
  190.3340  171.5670  139.8370 N   0  0  0  0  0  0  0  0  0  0  0  0
  188.2780  174.5970  141.9800 C   0  0  0  0  0  0  0  0  0  0  0  0
  190.0480  171.3930  142.6530 C   0  0  0  0  0  3  0  0  0  0  0  0
  188.3970  174.6980  140.6480 C   0  0  0  0  0  3  0  0  0  0  0  0
  190.9750  170.6570  140.5100 C   0  0  0  0  0  3  0  0  0  0  0  0
  189.5160  172.5360  140.5050 C   0  0  0  0  0  0  0  0  0  0  0  0
  189.1020  173.6500  139.8850 C   0  0  0  0  0  0  0  0  0  0  0  0
  189.0660  172.2610  141.9210 C   0  0  2  0  0  3  0  0  0  0  0  0
  189.4230  173.8810  138.5170 N   0  0  0  0  0  1  0  0  0  0  0  0
  187.2860  176.6740  145.0250 C   0  0  0  0  0  2  0  0  0  0  0  0
  187.4320  178.1860  145.0690 C   0  0  0  0  0  2  0  0  0  0  0  0
  185.9540  179.2940  143.3990 O   0  0  0  0  0  0  0  0  0  0  0  0
  186.1460  178.8280  144.6920 C   0  0  0  0  0  0  0  0  0  0  0  0
  185.2410  178.9790  145.5550 O   0  0  0  0  0  1  0  0  0  0  0  0
  190.2290  175.9720  145.3870 O   0  0  0  0  0  0  0  0  0  0  0  0
  192.1310  176.6030  146.8260 C   0  0  2  0  0  3  0  0  0  0  0  0
  190.8660  176.4270  147.6510 C   0  0  0  0  0  2  0  0  0  0  0  0
  190.7610  176.9760  146.2450 C   0  0  2  0  0  3  0  0  0  0  0  0
  195.7820  175.1110  143.4790 C   0  0  2  0  0  3  0  0  0  0  0  0
  192.2640  174.2220  146.9300 O   0  0  0  0  0  0  0  0  0  0  0  0
  194.0800  173.8720  144.8310 C   0  0  0  0  0  2  0  0  0  0  0  0
  195.2590  176.4490  144.0070 C   0  0  0  0  0  2  0  0  0  0  0  0
  193.5680  175.1800  145.2450 N   0  0  0  0  0  0  0  0  0  0  0  0
  192.6650  175.2730  146.3600 C   0  0  0  0  0  0  0  0  0  0  0  0
  195.5650  173.9630  144.4820 C   0  0  2  0  0  3  0  0  0  0  0  0
  193.7790  176.3200  144.3540 C   0  0  0  0  0  2  0  0  0  0  0  0
  197.7490  176.4720  143.1520 O   0  0  0  0  0  1  0  0  0  0  0  0
  197.2030  175.2060  142.9300 C   0  0  0  0  0  2  0  0  0  0  0  0
  196.3800  174.1160  145.7610 C   0  0  0  0  0  2  0  0  0  0  0  0
  196.9470  172.8910  146.1130 O   0  0  0  0  0  1  0  0  0  0  0  0
  1  4  1  0  0  0  0
  2  1  2  0  0  0  0
  3  5  2  0  0  0  0
  4  5  1  0  0  0  0
  4 17  1  0  0  0  0
  5 22  1  0  0  0  0
  7 10  2  0  0  0  0
  8 13  1  0  0  0  0
  8 12  2  0  0  0  0
  9  6  1  0  0  0  0
  9  1  1  0  0  0  0
 11  9  2  0  0  0  0
 12  7  1  0  0  0  0
 13 15  1  0  0  0  0
 14 13  2  0  0  0  0
 14 11  1  0  0  0  0
 15  6  1  0  0  0  0
 15 10  1  1  0  0  0
 16 14  1  0  0  0  0
 17 18  1  0  0  0  0
 19 20  2  0  0  0  0
 20 18  1  0  0  0  0
 20 21  1  0  0  0  0
 23 31  1  6  0  0  0
 23 24  1  0  0  0  0
 25 22  1  6  0  0  0
 25 23  1  0  0  0  0
 25 24  1  0  0  0  0
 26 35  1  1  0  0  0
 26 29  1  0  0  0  0
 26 32  1  0  0  0  0
 28 30  1  0  0  0  0
 29 33  1  0  0  0  0
 30 31  1  0  0  0  0
 31 27  2  0  0  0  0
 32 28  1  0  0  0  0
 32 36  1  1  0  0  0
 33 30  1  0  0  0  0
 35 34  1  0  0  0  0
 36 37  1  0  0  0  0
M  END
>  <MODEL>
4

>  <REMARK>
 VINA RESULT:      -6.6      2.961      7.858
  Name = 
  9 active torsions:
  status: ('A' for Active; 'I' for Inactive)
    1  A    between atoms: C_2  and  C_12
    2  A    between atoms: C_4  and  C_20
    3  A    between atoms: C_5  and  C_6
    4  A    between atoms: C_5  and  N_26
    5  A    between atoms: C_6  and  C_23
    6  A    between atoms: C_10  and  C_29
    7  A    between atoms: O_18  and  C_22
    8  A    between atoms: O_18  and  C_37
    9  A    between atoms: C_27  and  C_34
                            x       y       z     vdW  Elec       q    Type
                         _______ _______ _______ _____ _____    ______ ____

>  <TORSDO>
F 9

$$$$
=
 OpenBabel11062418493D

 37 40  0  0  1  0  0  0  0  0999 V2000
  187.8140  175.6560  140.5700 C   0  0  0  0  0  0  0  0  0  0  0  0
  187.2150  176.1900  139.5960 O   0  0  0  0  0  0  0  0  0  0  0  0
  187.5330  173.1690  142.0120 O   0  0  0  0  0  0  0  0  0  0  0  0
  188.5730  174.4520  140.3620 N   0  0  0  0  0  0  0  0  0  0  0  0
  188.5790  173.4060  141.3500 C   0  0  0  0  0  0  0  0  0  0  0  0
  186.5530  176.3600  142.6040 O   0  0  0  0  0  0  0  0  0  0  0  0
  185.0990  177.9660  145.4890 C   0  0  0  0  0  3  0  0  0  0  0  0
  187.4930  178.2830  145.6400 N   0  0  0  0  0  0  0  0  0  0  0  0
  187.7640  176.2990  141.8980 C   0  0  0  0  0  0  0  0  0  0  0  0
  185.1920  177.1160  144.4620 C   0  0  0  0  0  3  0  0  0  0  0  0
  188.8650  176.8400  142.4380 C   0  0  0  0  0  3  0  0  0  0  0  0
  186.3140  178.4950  146.1440 C   0  0  0  0  0  3  0  0  0  0  0  0
  187.6520  177.5040  144.4460 C   0  0  0  0  0  0  0  0  0  0  0  0
  188.7930  177.5270  143.7420 C   0  0  0  0  0  0  0  0  0  0  0  0
  186.5260  176.5960  144.0110 C   0  0  2  0  0  3  0  0  0  0  0  0
  189.9070  178.2920  144.1900 N   0  0  0  0  0  1  0  0  0  0  0  0
  189.1080  174.1620  139.0350 C   0  0  0  0  0  2  0  0  0  0  0  0
  188.4890  172.8880  138.4840 C   0  0  0  0  0  2  0  0  0  0  0  0
  189.6520  170.6930  138.6570 O   0  0  0  0  0  1  0  0  0  0  0  0
  189.5610  171.9470  138.0680 C   0  0  0  0  0  0  0  0  0  0  0  0
  190.4070  172.2980  137.2040 O   0  0  0  0  0  0  0  0  0  0  0  0
  189.7210  172.6400  141.6030 O   0  0  0  0  0  0  0  0  0  0  0  0
  190.7980  171.6640  143.5970 C   0  0  2  0  0  3  0  0  0  0  0  0
  191.0440  170.7970  142.3730 C   0  0  0  0  0  2  0  0  0  0  0  0
  189.7310  171.5370  142.5020 C   0  0  2  0  0  3  0  0  0  0  0  0
  190.8920  176.0650  146.3150 C   0  0  2  0  0  3  0  0  0  0  0  0
  192.5780  173.0000  142.7320 O   0  0  0  0  0  0  0  0  0  0  0  0
  192.0730  175.2960  144.2470 C   0  0  0  0  0  2  0  0  0  0  0  0
  190.1210  174.7450  146.3910 C   0  0  0  0  0  2  0  0  0  0  0  0
  191.2540  174.0850  144.3210 N   0  0  0  0  0  0  0  0  0  0  0  0
  191.6070  172.9350  143.5340 C   0  0  0  0  0  0  0  0  0  0  0  0
  192.2650  175.9000  145.6380 C   0  0  2  0  0  3  0  0  0  0  0  0
  189.9550  174.1660  144.9890 C   0  0  0  0  0  2  0  0  0  0  0  0
  189.9500  177.7930  147.7140 O   0  0  0  0  0  1  0  0  0  0  0  0
  190.9340  176.8030  147.6500 C   0  0  0  0  0  2  0  0  0  0  0  0
  193.2340  175.0360  146.4390 C   0  0  0  0  0  2  0  0  0  0  0  0
  194.5120  175.5930  146.3980 O   0  0  0  0  0  1  0  0  0  0  0  0
  1  9  1  0  0  0  0
  2  1  2  0  0  0  0
  4  1  1  0  0  0  0
  4  5  1  0  0  0  0
  5 22  1  0  0  0  0
  5  3  2  0  0  0  0
  6 15  1  0  0  0  0
  7 12  1  0  0  0  0
  8 12  2  0  0  0  0
  9 11  2  0  0  0  0
  9  6  1  0  0  0  0
 10  7  2  0  0  0  0
 11 14  1  0  0  0  0
 13  8  1  0  0  0  0
 14 16  1  0  0  0  0
 14 13  2  0  0  0  0
 15 13  1  0  0  0  0
 15 10  1  6  0  0  0
 17  4  1  0  0  0  0
 18 17  1  0  0  0  0
 20 18  1  0  0  0  0
 20 19  1  0  0  0  0
 21 20  2  0  0  0  0
 23 31  1  6  0  0  0
 24 25  1  0  0  0  0
 24 23  1  0  0  0  0
 25 22  1  6  0  0  0
 25 23  1  0  0  0  0
 26 29  1  0  0  0  0
 26 35  1  1  0  0  0
 27 31  2  0  0  0  0
 28 30  1  0  0  0  0
 28 32  1  0  0  0  0
 30 33  1  0  0  0  0
 31 30  1  0  0  0  0
 32 26  1  0  0  0  0
 32 36  1  1  0  0  0
 33 29  1  0  0  0  0
 35 34  1  0  0  0  0
 37 36  1  0  0  0  0
M  END
>  <MODEL>
5

>  <REMARK>
 VINA RESULT:      -6.5      3.460      8.272
  Name = 
  9 active torsions:
  status: ('A' for Active; 'I' for Inactive)
    1  A    between atoms: C_2  and  C_12
    2  A    between atoms: C_4  and  C_20
    3  A    between atoms: C_5  and  C_6
    4  A    between atoms: C_5  and  N_26
    5  A    between atoms: C_6  and  C_23
    6  A    between atoms: C_10  and  C_29
    7  A    between atoms: O_18  and  C_22
    8  A    between atoms: O_18  and  C_37
    9  A    between atoms: C_27  and  C_34
                            x       y       z     vdW  Elec       q    Type
                         _______ _______ _______ _____ _____    ______ ____

>  <TORSDO>
F 9

$$$$
=
 OpenBabel11062418493D

 37 40  0  0  1  0  0  0  0  0999 V2000
  187.2750  176.4410  142.4120 C   0  0  0  0  0  0  0  0  0  0  0  0
  186.3690  177.0080  141.7400 O   0  0  0  0  0  0  0  0  0  0  0  0
  189.9120  177.2000  143.3130 O   0  0  0  0  0  0  0  0  0  0  0  0
  187.6250  176.9550  143.7090 N   0  0  0  0  0  0  0  0  0  0  0  0
  188.9950  176.9760  144.1470 C   0  0  0  0  0  0  0  0  0  0  0  0
  188.3030  174.1920  142.7390 O   0  0  0  0  0  0  0  0  0  0  0  0
  190.2650  171.1640  142.7580 C   0  0  0  0  0  3  0  0  0  0  0  0
  189.9770  171.8020  140.4410 N   0  0  0  0  0  0  0  0  0  0  0  0
  187.9310  175.2320  141.8750 C   0  0  0  0  0  0  0  0  0  0  0  0
  189.4030  172.0820  143.2040 C   0  0  0  0  0  3  0  0  0  0  0  0
  188.1880  175.1190  140.5640 C   0  0  0  0  0  3  0  0  0  0  0  0
  190.4840  170.9760  141.3080 C   0  0  0  0  0  3  0  0  0  0  0  0
  189.1650  172.9050  140.8660 C   0  0  0  0  0  0  0  0  0  0  0  0
  188.8910  173.9290  140.0460 C   0  0  0  0  0  0  0  0  0  0  0  0
  188.5600  172.8760  142.2490 C   0  0  2  0  0  3  0  0  0  0  0  0
  189.3610  173.9280  138.7010 N   0  0  0  0  0  1  0  0  0  0  0  0
  186.6370  177.7160  144.4680 C   0  0  0  0  0  2  0  0  0  0  0  0
  185.6950  176.7740  145.2000 C   0  0  0  0  0  2  0  0  0  0  0  0
  184.1330  178.1900  146.5270 O   0  0  0  0  0  0  0  0  0  0  0  0
  185.2670  177.3890  146.4840 C   0  0  0  0  0  0  0  0  0  0  0  0
  185.9490  177.2100  147.5270 O   0  0  0  0  0  1  0  0  0  0  0  0
  189.3420  176.7490  145.4820 O   0  0  0  0  0  0  0  0  0  0  0  0
  190.0180  175.0240  147.1130 C   0  0  2  0  0  3  0  0  0  0  0  0
  189.7250  174.3990  145.7580 C   0  0  0  0  0  2  0  0  0  0  0  0
  188.9200  175.5980  146.2080 C   0  0  2  0  0  3  0  0  0  0  0  0
  194.6460  174.3040  144.9170 C   0  0  2  0  0  3  0  0  0  0  0  0
  191.3490  176.9430  147.6080 O   0  0  0  0  0  0  0  0  0  0  0  0
  193.7480  176.0080  146.5140 C   0  0  0  0  0  2  0  0  0  0  0  0
  193.3060  173.5670  144.9160 C   0  0  0  0  0  2  0  0  0  0  0  0
  192.5130  175.2230  146.5390 N   0  0  0  0  0  0  0  0  0  0  0  0
  191.3130  175.7950  147.0870 C   0  0  0  0  0  0  0  0  0  0  0  0
  194.4830  175.8110  145.1890 C   0  0  2  0  0  3  0  0  0  0  0  0
  192.5950  173.7920  146.2480 C   0  0  0  0  0  2  0  0  0  0  0  0
  196.8060  174.4560  143.8490 O   0  0  0  0  0  1  0  0  0  0  0  0
  195.5040  173.9750  143.6980 C   0  0  0  0  0  2  0  0  0  0  0  0
  193.7400  176.5480  144.0800 C   0  0  0  0  0  2  0  0  0  0  0  0
  192.9670  177.5730  144.6240 O   0  0  0  0  0  1  0  0  0  0  0  0
  1  4  1  0  0  0  0
  2  1  2  0  0  0  0
  3  5  2  0  0  0  0
  4  5  1  0  0  0  0
  4 17  1  0  0  0  0
  5 22  1  0  0  0  0
  7 10  2  0  0  0  0
  8 13  1  0  0  0  0
  8 12  2  0  0  0  0
  9  1  1  0  0  0  0
  9  6  1  0  0  0  0
 11  9  2  0  0  0  0
 12  7  1  0  0  0  0
 13 15  1  0  0  0  0
 14 11  1  0  0  0  0
 14 13  2  0  0  0  0
 15  6  1  0  0  0  0
 15 10  1  1  0  0  0
 16 14  1  0  0  0  0
 17 18  1  0  0  0  0
 18 20  1  0  0  0  0
 20 19  2  0  0  0  0
 20 21  1  0  0  0  0
 23 31  1  6  0  0  0
 24 25  1  0  0  0  0
 24 23  1  0  0  0  0
 25 22  1  6  0  0  0
 25 23  1  0  0  0  0
 26 35  1  6  0  0  0
 26 32  1  0  0  0  0
 28 30  1  0  0  0  0
 29 26  1  0  0  0  0
 29 33  1  0  0  0  0
 30 31  1  0  0  0  0
 31 27  2  0  0  0  0
 32 36  1  6  0  0  0
 32 28  1  0  0  0  0
 33 30  1  0  0  0  0
 35 34  1  0  0  0  0
 36 37  1  0  0  0  0
M  END
>  <MODEL>
6

>  <REMARK>
 VINA RESULT:      -6.5      2.764      7.456
  Name = 
  9 active torsions:
  status: ('A' for Active; 'I' for Inactive)
    1  A    between atoms: C_2  and  C_12
    2  A    between atoms: C_4  and  C_20
    3  A    between atoms: C_5  and  C_6
    4  A    between atoms: C_5  and  N_26
    5  A    between atoms: C_6  and  C_23
    6  A    between atoms: C_10  and  C_29
    7  A    between atoms: O_18  and  C_22
    8  A    between atoms: O_18  and  C_37
    9  A    between atoms: C_27  and  C_34
                            x       y       z     vdW  Elec       q    Type
                         _______ _______ _______ _____ _____    ______ ____

>  <TORSDO>
F 9

$$$$
=
 OpenBabel11062418493D

 37 40  0  0  1  0  0  0  0  0999 V2000
  187.8140  176.3340  146.0480 C   0  0  0  0  0  0  0  0  0  0  0  0
  187.3750  176.2820  147.2310 O   0  0  0  0  0  0  0  0  0  0  0  0
  189.8930  177.8340  144.7170 O   0  0  0  0  0  0  0  0  0  0  0  0
  189.1510  175.8850  145.7660 N   0  0  0  0  0  0  0  0  0  0  0  0
  189.9750  176.5800  144.8140 C   0  0  0  0  0  0  0  0  0  0  0  0
  187.2570  176.5500  143.6260 O   0  0  0  0  0  0  0  0  0  0  0  0
  186.2790  177.5160  140.2900 C   0  0  0  0  0  3  0  0  0  0  0  0
  184.5490  178.3050  141.7870 N   0  0  0  0  0  0  0  0  0  0  0  0
  186.9320  176.8140  144.9650 C   0  0  0  0  0  0  0  0  0  0  0  0
  186.8990  176.8130  141.2430 C   0  0  0  0  0  3  0  0  0  0  0  0
  185.8240  177.5140  145.2460 C   0  0  0  0  0  3  0  0  0  0  0  0
  185.0080  178.2150  140.5730 C   0  0  0  0  0  3  0  0  0  0  0  0
  185.2500  177.7030  142.8840 C   0  0  0  0  0  0  0  0  0  0  0  0
  184.9780  178.0330  144.1540 C   0  0  0  0  0  0  0  0  0  0  0  0
  186.2730  176.6300  142.5960 C   0  0  2  0  0  3  0  0  0  0  0  0
  183.9420  178.9630  144.4570 N   0  0  0  0  0  1  0  0  0  0  0  0
  189.7770  174.9020  146.6450 C   0  0  0  0  0  2  0  0  0  0  0  0
  190.7010  175.5930  147.6350 C   0  0  0  0  0  2  0  0  0  0  0  0
  192.6500  174.4260  146.6130 O   0  0  0  0  0  0  0  0  0  0  0  0
  192.0910  175.5970  147.1070 C   0  0  0  0  0  0  0  0  0  0  0  0
  192.7740  176.6540  147.1380 O   0  0  0  0  0  1  0  0  0  0  0  0
  190.8700  175.9000  143.9820 O   0  0  0  0  0  0  0  0  0  0  0  0
  192.6640  175.6000  142.3140 C   0  0  2  0  0  3  0  0  0  0  0  0
  193.2000  176.2740  143.5670 C   0  0  0  0  0  2  0  0  0  0  0  0
  191.7850  176.5670  143.1190 C   0  0  2  0  0  3  0  0  0  0  0  0
  190.0310  171.9250  139.8000 C   0  0  2  0  0  3  0  0  0  0  0  0
  192.9440  173.5640  143.5290 O   0  0  0  0  0  0  0  0  0  0  0  0
  191.1810  172.0010  142.0210 C   0  0  0  0  0  2  0  0  0  0  0  0
  190.3820  173.3920  139.5440 C   0  0  0  0  0  2  0  0  0  0  0  0
  191.4230  173.4210  141.7620 N   0  0  0  0  0  0  0  0  0  0  0  0
  192.3750  174.1420  142.5630 C   0  0  0  0  0  0  0  0  0  0  0  0
  191.0620  171.2290  140.7080 C   0  0  2  0  0  3  0  0  0  0  0  0
  190.5020  174.1310  140.8740 C   0  0  0  0  0  2  0  0  0  0  0  0
  189.2190  172.0180  137.5280 O   0  0  0  0  0  1  0  0  0  0  0  0
  189.7060  171.1620  138.5190 C   0  0  0  0  0  2  0  0  0  0  0  0
  192.4390  171.0970  140.0680 C   0  0  0  0  0  2  0  0  0  0  0  0
  192.7440  169.7510  139.8670 O   0  0  0  0  0  1  0  0  0  0  0  0
  1  2  2  0  0  0  0
  3  5  2  0  0  0  0
  4  1  1  0  0  0  0
  4 17  1  0  0  0  0
  5  4  1  0  0  0  0
  6  9  1  0  0  0  0
  7 12  1  0  0  0  0
  7 10  2  0  0  0  0
  8 13  1  0  0  0  0
  9 11  2  0  0  0  0
  9  1  1  0  0  0  0
 12  8  2  0  0  0  0
 13 14  2  0  0  0  0
 14 16  1  0  0  0  0
 14 11  1  0  0  0  0
 15 10  1  6  0  0  0
 15 13  1  0  0  0  0
 15  6  1  0  0  0  0
 17 18  1  0  0  0  0
 19 20  2  0  0  0  0
 20 21  1  0  0  0  0
 20 18  1  0  0  0  0
 22  5  1  0  0  0  0
 23 31  1  1  0  0  0
 23 25  1  0  0  0  0
 23 24  1  0  0  0  0
 25 24  1  0  0  0  0
 25 22  1  1  0  0  0
 26 35  1  6  0  0  0
 26 32  1  0  0  0  0
 29 26  1  0  0  0  0
 29 33  1  0  0  0  0
 30 28  1  0  0  0  0
 30 31  1  0  0  0  0
 31 27  2  0  0  0  0
 32 36  1  6  0  0  0
 32 28  1  0  0  0  0
 33 30  1  0  0  0  0
 34 35  1  0  0  0  0
 37 36  1  0  0  0  0
M  END
>  <MODEL>
7

>  <REMARK>
 VINA RESULT:      -6.5      3.156      8.291
  Name = 
  9 active torsions:
  status: ('A' for Active; 'I' for Inactive)
    1  A    between atoms: C_2  and  C_12
    2  A    between atoms: C_4  and  C_20
    3  A    between atoms: C_5  and  C_6
    4  A    between atoms: C_5  and  N_26
    5  A    between atoms: C_6  and  C_23
    6  A    between atoms: C_10  and  C_29
    7  A    between atoms: O_18  and  C_22
    8  A    between atoms: O_18  and  C_37
    9  A    between atoms: C_27  and  C_34
                            x       y       z     vdW  Elec       q    Type
                         _______ _______ _______ _____ _____    ______ ____

>  <TORSDO>
F 9

$$$$
=
 OpenBabel11062418493D

 37 40  0  0  1  0  0  0  0  0999 V2000
  192.3690  175.0220  146.0970 C   0  0  0  0  0  0  0  0  0  0  0  0
  192.4180  175.2370  147.3400 O   0  0  0  0  0  0  0  0  0  0  0  0
  191.7940  172.7170  144.4540 O   0  0  0  0  0  0  0  0  0  0  0  0
  191.1090  174.6970  145.4820 N   0  0  0  0  0  0  0  0  0  0  0  0
  191.0360  173.7220  144.4270 C   0  0  0  0  0  0  0  0  0  0  0  0
  193.5330  175.7020  143.9980 O   0  0  0  0  0  0  0  0  0  0  0  0
  195.5620  176.0870  141.0390 C   0  0  0  0  0  3  0  0  0  0  0  0
  197.0430  175.3970  142.8240 N   0  0  0  0  0  0  0  0  0  0  0  0
  193.5970  175.1510  145.2860 C   0  0  0  0  0  0  0  0  0  0  0  0
  194.5240  176.2730  141.8610 C   0  0  0  0  0  3  0  0  0  0  0  0
  194.7780  174.7340  145.7630 C   0  0  0  0  0  3  0  0  0  0  0  0
  196.8890  175.7150  141.5720 C   0  0  0  0  0  3  0  0  0  0  0  0
  195.9330  175.4260  143.7310 C   0  0  0  0  0  0  0  0  0  0  0  0
  195.9890  174.8200  144.9250 C   0  0  0  0  0  0  0  0  0  0  0  0
  194.6990  176.2090  143.3500 C   0  0  2  0  0  3  0  0  0  0  0  0
  197.1800  174.1660  145.3520 N   0  0  0  0  0  1  0  0  0  0  0  0
  189.8690  175.1410  146.1110 C   0  0  0  0  0  2  0  0  0  0  0  0
  189.8150  176.6590  146.1570 C   0  0  0  0  0  2  0  0  0  0  0  0
  187.4140  176.3650  146.7480 O   0  0  0  0  0  0  0  0  0  0  0  0
  188.5870  177.0970  146.8690 C   0  0  0  0  0  0  0  0  0  0  0  0
  188.6000  178.1520  147.5570 O   0  0  0  0  0  1  0  0  0  0  0  0
  190.1420  173.8600  143.3600 O   0  0  0  0  0  0  0  0  0  0  0  0
  189.3680  174.9150  141.2670 C   0  0  2  0  0  3  0  0  0  0  0  0
  189.8640  173.5010  141.0070 C   0  0  0  0  0  2  0  0  0  0  0  0
  190.5360  174.3340  142.0760 C   0  0  2  0  0  3  0  0  0  0  0  0
  186.5660  178.4450  143.8060 C   0  0  2  0  0  3  0  0  0  0  0  0
  187.3290  173.8650  141.9300 O   0  0  0  0  0  0  0  0  0  0  0  0
  186.3160  175.9800  143.4550 C   0  0  0  0  0  2  0  0  0  0  0  0
  187.8810  178.4440  143.0250 C   0  0  0  0  0  2  0  0  0  0  0  0
  187.6160  176.0200  142.7840 N   0  0  0  0  0  0  0  0  0  0  0  0
  188.0440  174.9020  141.9880 C   0  0  0  0  0  0  0  0  0  0  0  0
  185.6110  177.3310  143.3400 C   0  0  2  0  0  3  0  0  0  0  0  0
  188.5540  177.0800  143.1520 C   0  0  0  0  0  2  0  0  0  0  0  0
  184.7250  179.7910  144.5970 O   0  0  0  0  0  1  0  0  0  0  0  0
  185.9270  179.8290  143.8880 C   0  0  0  0  0  2  0  0  0  0  0  0
  185.1080  177.5240  141.9140 C   0  0  0  0  0  2  0  0  0  0  0  0
  183.7700  177.9160  141.9290 O   0  0  0  0  0  1  0  0  0  0  0  0
  1  2  2  0  0  0  0
  4  1  1  0  0  0  0
  4 17  1  0  0  0  0
  5  3  2  0  0  0  0
  5  4  1  0  0  0  0
  6  9  1  0  0  0  0
  7 12  1  0  0  0  0
  7 10  2  0  0  0  0
  8 13  1  0  0  0  0
  9 11  2  0  0  0  0
  9  1  1  0  0  0  0
 12  8  2  0  0  0  0
 13 14  2  0  0  0  0
 14 16  1  0  0  0  0
 14 11  1  0  0  0  0
 15 10  1  6  0  0  0
 15 13  1  0  0  0  0
 15  6  1  0  0  0  0
 17 18  1  0  0  0  0
 18 20  1  0  0  0  0
 19 20  2  0  0  0  0
 20 21  1  0  0  0  0
 22  5  1  0  0  0  0
 23 31  1  1  0  0  0
 23 25  1  0  0  0  0
 24 23  1  0  0  0  0
 24 25  1  0  0  0  0
 25 22  1  1  0  0  0
 26 35  1  6  0  0  0
 27 31  2  0  0  0  0
 29 33  1  0  0  0  0
 29 26  1  0  0  0  0
 30 33  1  0  0  0  0
 30 28  1  0  0  0  0
 31 30  1  0  0  0  0
 32 36  1  6  0  0  0
 32 28  1  0  0  0  0
 32 26  1  0  0  0  0
 35 34  1  0  0  0  0
 36 37  1  0  0  0  0
M  END
>  <MODEL>
8

>  <REMARK>
 VINA RESULT:      -6.4      2.127      2.930
  Name = 
  9 active torsions:
  status: ('A' for Active; 'I' for Inactive)
    1  A    between atoms: C_2  and  C_12
    2  A    between atoms: C_4  and  C_20
    3  A    between atoms: C_5  and  C_6
    4  A    between atoms: C_5  and  N_26
    5  A    between atoms: C_6  and  C_23
    6  A    between atoms: C_10  and  C_29
    7  A    between atoms: O_18  and  C_22
    8  A    between atoms: O_18  and  C_37
    9  A    between atoms: C_27  and  C_34
                            x       y       z     vdW  Elec       q    Type
                         _______ _______ _______ _____ _____    ______ ____

>  <TORSDO>
F 9

$$$$
=
 OpenBabel11062418493D

 37 40  0  0  1  0  0  0  0  0999 V2000
  187.7560  175.7520  141.1710 C   0  0  0  0  0  0  0  0  0  0  0  0
  187.0940  176.3920  140.3070 O   0  0  0  0  0  0  0  0  0  0  0  0
  187.5560  173.1210  142.3440 O   0  0  0  0  0  0  0  0  0  0  0  0
  188.4890  174.5780  140.7780 N   0  0  0  0  0  0  0  0  0  0  0  0
  188.5540  173.4290  141.6410 C   0  0  0  0  0  0  0  0  0  0  0  0
  189.0380  176.5340  143.1630 O   0  0  0  0  0  0  0  0  0  0  0  0
  190.4440  177.2710  146.4030 C   0  0  0  0  0  3  0  0  0  0  0  0
  188.0430  177.4940  146.6100 N   0  0  0  0  0  0  0  0  0  0  0  0
  187.8040  176.2440  142.5630 C   0  0  0  0  0  0  0  0  0  0  0  0
  190.4000  177.1420  145.0730 C   0  0  0  0  0  3  0  0  0  0  0  0
  186.6760  176.4070  143.2690 C   0  0  0  0  0  3  0  0  0  0  0  0
  189.2140  177.5410  147.1760 C   0  0  0  0  0  3  0  0  0  0  0  0
  187.9150  177.2050  145.2120 C   0  0  0  0  0  0  0  0  0  0  0  0
  186.7390  176.8490  144.6760 C   0  0  0  0  0  0  0  0  0  0  0  0
  189.1220  177.3670  144.3190 C   0  0  2  0  0  3  0  0  0  0  0  0
  185.5630  176.7950  145.4760 N   0  0  0  0  0  1  0  0  0  0  0  0
  188.9270  174.4380  139.3930 C   0  0  0  0  0  2  0  0  0  0  0  0
  188.1920  173.2890  138.7210 C   0  0  0  0  0  2  0  0  0  0  0  0
  189.9180  171.4950  138.6610 O   0  0  0  0  0  1  0  0  0  0  0  0
  189.1580  172.4370  137.9810 C   0  0  0  0  0  0  0  0  0  0  0  0
  189.3130  172.5920  136.7410 O   0  0  0  0  0  0  0  0  0  0  0  0
  189.7050  172.6400  141.7270 O   0  0  0  0  0  0  0  0  0  0  0  0
  191.2510  171.3380  143.1440 C   0  0  2  0  0  3  0  0  0  0  0  0
  190.7220  170.4870  142.0000 C   0  0  0  0  0  2  0  0  0  0  0  0
  189.8230  171.5350  142.6180 C   0  0  2  0  0  3  0  0  0  0  0  0
  193.7120  175.3630  145.2660 C   0  0  2  0  0  3  0  0  0  0  0  0
  192.7250  172.2270  141.4890 O   0  0  0  0  0  0  0  0  0  0  0  0
  193.5820  174.4630  142.9350 C   0  0  0  0  0  2  0  0  0  0  0  0
  192.7450  174.2850  145.7590 C   0  0  0  0  0  2  0  0  0  0  0  0
  192.6010  173.5020  143.4420 N   0  0  0  0  0  0  0  0  0  0  0  0
  192.2440  172.3580  142.6470 C   0  0  0  0  0  0  0  0  0  0  0  0
  194.5330  174.8970  144.0500 C   0  0  2  0  0  3  0  0  0  0  0  0
  191.8170  173.8690  144.6220 C   0  0  0  0  0  2  0  0  0  0  0  0
  194.5660  177.3640  146.3130 O   0  0  0  0  0  1  0  0  0  0  0  0
  194.5460  175.9700  146.3920 C   0  0  0  0  0  2  0  0  0  0  0  0
  195.4960  173.7590  144.3700 C   0  0  0  0  0  2  0  0  0  0  0  0
  196.7940  174.1180  144.0110 O   0  0  0  0  0  1  0  0  0  0  0  0
  1  9  1  0  0  0  0
  2  1  2  0  0  0  0
  4  1  1  0  0  0  0
  4  5  1  0  0  0  0
  5 22  1  0  0  0  0
  5  3  2  0  0  0  0
  6 15  1  0  0  0  0
  7 12  1  0  0  0  0
  8 12  2  0  0  0  0
  9  6  1  0  0  0  0
  9 11  2  0  0  0  0
 10  7  2  0  0  0  0
 11 14  1  0  0  0  0
 13  8  1  0  0  0  0
 14 13  2  0  0  0  0
 14 16  1  0  0  0  0
 15 10  1  1  0  0  0
 15 13  1  0  0  0  0
 17  4  1  0  0  0  0
 18 17  1  0  0  0  0
 20 19  1  0  0  0  0
 20 18  1  0  0  0  0
 21 20  2  0  0  0  0
 23 31  1  6  0  0  0
 24 25  1  0  0  0  0
 24 23  1  0  0  0  0
 25 22  1  6  0  0  0
 25 23  1  0  0  0  0
 26 29  1  0  0  0  0
 26 35  1  1  0  0  0
 27 31  2  0  0  0  0
 28 30  1  0  0  0  0
 28 32  1  0  0  0  0
 30 33  1  0  0  0  0
 31 30  1  0  0  0  0
 32 36  1  1  0  0  0
 32 26  1  0  0  0  0
 33 29  1  0  0  0  0
 34 35  1  0  0  0  0
 37 36  1  0  0  0  0
M  END
>  <MODEL>
9

>  <REMARK>
 VINA RESULT:      -6.4      3.246      8.648
  Name = 
  9 active torsions:
  status: ('A' for Active; 'I' for Inactive)
    1  A    between atoms: C_2  and  C_12
    2  A    between atoms: C_4  and  C_20
    3  A    between atoms: C_5  and  C_6
    4  A    between atoms: C_5  and  N_26
    5  A    between atoms: C_6  and  C_23
    6  A    between atoms: C_10  and  C_29
    7  A    between atoms: O_18  and  C_22
    8  A    between atoms: O_18  and  C_37
    9  A    between atoms: C_27  and  C_34
                            x       y       z     vdW  Elec       q    Type
                         _______ _______ _______ _____ _____    ______ ____

>  <TORSDO>
F 9

$$$$
