=
 OpenBabel11072408283D

 34 37  0  0  1  0  0  0  0  0999 V2000
  187.2200  175.4670  143.1120 N   0  0  0  0  0  0  0  0  0  0  0  0
  188.8260  173.1470  140.8910 C   0  0  0  0  0  3  0  0  0  0  0  0
  184.4160  178.6430  143.0190 N   0  0  0  0  0  0  0  0  0  0  0  0
  188.4950  173.7810  139.5940 C   0  0  0  0  0  0  0  0  0  0  0  0
  186.6670  176.7960  140.7060 C   0  0  0  0  0  3  0  0  0  0  0  0
  186.4780  176.6670  143.0980 N   0  0  0  0  0  0  0  0  0  0  0  0
  184.9750  178.1810  141.7910 C   0  0  0  0  0  0  0  0  0  0  0  0
  184.8840  178.5170  146.6340 C   0  0  0  0  0  3  0  0  0  0  0  0
  186.8130  177.5130  145.4330 C   0  0  2  0  0  3  0  0  0  0  0  0
  187.8260  175.8500  140.7820 C   0  0  2  0  0  3  0  0  0  0  0  0
  188.4850  173.7200  142.0490 C   0  0  0  0  0  3  0  0  0  0  0  0
  186.0790  177.2190  141.8290 C   0  0  0  0  0  0  0  0  0  0  0  0
  184.7930  178.1920  144.1780 C   0  0  0  0  0  0  0  0  0  0  0  0
  184.5330  178.6240  140.6970 O   0  0  0  0  0  0  0  0  0  0  0  0
  184.2640  178.7820  145.3680 N   0  0  0  0  0  2  0  0  0  0  0  0
  187.9610  175.0090  139.5430 C   0  0  0  0  0  3  0  0  0  0  0  0
  187.7950  175.0160  142.0380 C   0  0  0  0  0  0  0  0  0  0  0  0
  186.0650  177.8890  146.6940 C   0  0  0  0  0  3  0  0  0  0  0  0
  185.8170  177.0810  144.3440 C   0  0  1  0  0  3  0  0  0  0  0  0
  189.2070  173.8460  137.2950 N   0  0  0  0  0  1  0  0  0  0  0  0
  188.6560  172.9980  138.3380 C   0  0  0  0  0  2  0  0  0  0  0  0
  187.7470  176.5060  145.7030 O   0  0  0  0  0  0  0  0  0  0  0  0
  188.6620  177.0850  146.5900 C   0  0  0  0  0  2  0  0  0  0  0  0
  190.0740  177.0250  146.0310 C   0  0  1  0  0  3  0  0  0  0  0  0
  190.9870  176.7700  147.0590 O   0  0  0  0  0  0  0  0  0  0  0  0
  191.9100  175.8700  146.5180 C   0  0  0  0  0  2  0  0  0  0  0  0
  193.3250  176.3330  146.8160 C   0  0  0  0  0  2  0  0  0  0  0  0
  193.6670  176.4660  144.4630 O   0  0  0  0  0  0  0  0  0  0  0  0
  193.9540  176.9190  145.6010 C   0  0  0  0  0  0  0  0  0  0  0  0
  194.8860  177.9410  145.7250 O   0  0  0  0  0  1  0  0  0  0  0  0
  190.1640  175.9420  144.9530 C   0  0  0  0  0  2  0  0  0  0  0  0
  190.4570  176.4940  143.6760 O   0  0  0  0  0  0  0  0  0  0  0  0
  190.2550  177.8470  143.4180 C   0  0  0  0  0  3  0  0  0  0  0  0
  189.5740  178.2010  142.4220 O   0  0  0  0  0  0  0  0  0  0  0  0
  2 11  2  0  0  0  0
  3 13  2  0  0  0  0
  4  2  1  0  0  0  0
  5 10  1  0  0  0  0
  5 12  2  0  0  0  0
  6  1  1  0  0  0  0
  6 19  1  0  0  0  0
  7 12  1  0  0  0  0
  7  3  1  0  0  0  0
  8 18  2  0  0  0  0
  9 22  1  1  0  0  0
  9 18  1  0  0  0  0
 10 16  1  6  0  0  0
 10 17  1  0  0  0  0
 12  6  1  0  0  0  0
 13 15  1  0  0  0  0
 14  7  2  0  0  0  0
 15  8  1  0  0  0  0
 16  4  2  0  0  0  0
 17 11  1  0  0  0  0
 17  1  2  0  0  0  0
 19 13  1  6  0  0  0
 19  9  1  0  0  0  0
 20 21  1  0  0  0  0
 21  4  1  0  0  0  0
 22 23  1  0  0  0  0
 24 31  1  6  0  0  0
 24 23  1  0  0  0  0
 24 25  1  0  0  0  0
 26 27  1  0  0  0  0
 26 25  1  0  0  0  0
 28 29  2  0  0  0  0
 29 30  1  0  0  0  0
 29 27  1  0  0  0  0
 32 31  1  0  0  0  0
 33 32  1  0  0  0  0
 34 33  2  0  0  0  0
M  END
>  <MODEL>
1

>  <REMARK>
 VINA RESULT:      -6.6      0.000      0.000
  Name = 
  11 active torsions:
  status: ('A' for Active; 'I' for Inactive)
    1  A    between atoms: C_1  and  O_28
    2  A    between atoms: O_4  and  C_17
    3  A    between atoms: O_4  and  C_21
    4  A    between atoms: C_6  and  C_24
    5  A    between atoms: C_10  and  C_15
    6  A    between atoms: C_13  and  O_26
    7  A    between atoms: C_15  and  C_17
    8  A    between atoms: C_21  and  C_23
    9  A    between atoms: C_21  and  C_25
   10  A    between atoms: C_23  and  O_26
   11  A    between atoms: C_25  and  O_28
                            x       y       z     vdW  Elec       q    Type
                         _______ _______ _______ _____ _____    ______ ____

>  <TORSDO>
F 11

$$$$
=
 OpenBabel11072408283D

 34 37  0  0  1  0  0  0  0  0999 V2000
  186.9530  175.2880  143.1480 N   0  0  0  0  0  0  0  0  0  0  0  0
  188.7740  172.7850  141.3290 C   0  0  0  0  0  3  0  0  0  0  0  0
  184.5550  178.7110  142.4490 N   0  0  0  0  0  0  0  0  0  0  0  0
  188.7970  173.4210  139.9920 C   0  0  0  0  0  0  0  0  0  0  0  0
  187.0680  176.6160  140.6820 C   0  0  0  0  0  3  0  0  0  0  0  0
  186.3510  176.5520  142.9740 N   0  0  0  0  0  0  0  0  0  0  0  0
  185.3210  178.1750  141.3720 C   0  0  0  0  0  0  0  0  0  0  0  0
  184.2100  178.6130  146.0780 C   0  0  0  0  0  3  0  0  0  0  0  0
  186.2490  177.4100  145.3270 C   0  0  2  0  0  3  0  0  0  0  0  0
  188.0860  175.5680  141.0080 C   0  0  2  0  0  3  0  0  0  0  0  0
  188.2460  173.4100  142.3860 C   0  0  0  0  0  3  0  0  0  0  0  0
  186.2930  177.1150  141.6490 C   0  0  0  0  0  0  0  0  0  0  0  0
  184.6250  178.2500  143.6620 C   0  0  0  0  0  0  0  0  0  0  0  0
  185.1730  178.6360  140.2090 O   0  0  0  0  0  0  0  0  0  0  0  0
  183.9090  178.9100  144.7070 N   0  0  0  0  0  2  0  0  0  0  0  0
  188.4070  174.6930  139.8270 C   0  0  0  0  0  3  0  0  0  0  0  0
  187.7030  174.7650  142.2260 C   0  0  0  0  0  0  0  0  0  0  0  0
  185.2840  177.8790  146.3940 C   0  0  0  0  0  3  0  0  0  0  0  0
  185.4780  177.0510  144.0460 C   0  0  1  0  0  3  0  0  0  0  0  0
  189.7670  173.4430  137.7890 N   0  0  0  0  0  1  0  0  0  0  0  0
  189.1510  172.6020  138.8010 C   0  0  0  0  0  2  0  0  0  0  0  0
  187.0010  176.3250  145.7930 O   0  0  0  0  0  0  0  0  0  0  0  0
  188.0050  176.8910  146.5870 C   0  0  0  0  0  2  0  0  0  0  0  0
  189.3820  176.4510  146.1170 C   0  0  1  0  0  3  0  0  0  0  0  0
  189.2880  175.2420  145.4200 O   0  0  0  0  0  0  0  0  0  0  0  0
  190.2790  174.4220  145.9690 C   0  0  0  0  0  2  0  0  0  0  0  0
  190.9520  173.6150  144.8720 C   0  0  0  0  0  2  0  0  0  0  0  0
  192.6870  175.2100  144.5180 O   0  0  0  0  0  1  0  0  0  0  0  0
  191.7850  174.4970  144.0070 C   0  0  0  0  0  0  0  0  0  0  0  0
  191.5410  174.5600  142.6420 O   0  0  0  0  0  0  0  0  0  0  0  0
  190.0030  177.5330  145.2310 C   0  0  0  0  0  2  0  0  0  0  0  0
  189.5300  177.4500  143.8920 O   0  0  0  0  0  0  0  0  0  0  0  0
  190.3120  177.8920  142.8300 C   0  0  0  0  0  3  0  0  0  0  0  0
  191.5650  177.9130  142.9380 O   0  0  0  0  0  0  0  0  0  0  0  0
  2 11  2  0  0  0  0
  3 13  2  0  0  0  0
  4  2  1  0  0  0  0
  5 10  1  0  0  0  0
  5 12  2  0  0  0  0
  6  1  1  0  0  0  0
  6 19  1  0  0  0  0
  7 12  1  0  0  0  0
  7  3  1  0  0  0  0
  8 18  2  0  0  0  0
  9 22  1  1  0  0  0
  9 18  1  0  0  0  0
 10 16  1  6  0  0  0
 10 17  1  0  0  0  0
 12  6  1  0  0  0  0
 13 15  1  0  0  0  0
 14  7  2  0  0  0  0
 15  8  1  0  0  0  0
 16  4  2  0  0  0  0
 17 11  1  0  0  0  0
 17  1  2  0  0  0  0
 19 13  1  6  0  0  0
 19  9  1  0  0  0  0
 20 21  1  0  0  0  0
 21  4  1  0  0  0  0
 22 23  1  0  0  0  0
 24 31  1  6  0  0  0
 24 23  1  0  0  0  0
 25 26  1  0  0  0  0
 25 24  1  0  0  0  0
 27 26  1  0  0  0  0
 29 28  1  0  0  0  0
 29 27  1  0  0  0  0
 30 29  2  0  0  0  0
 32 31  1  0  0  0  0
 33 34  2  0  0  0  0
 33 32  1  0  0  0  0
M  END
>  <MODEL>
2

>  <REMARK>
 VINA RESULT:      -6.6      1.460      1.682
  Name = 
  11 active torsions:
  status: ('A' for Active; 'I' for Inactive)
    1  A    between atoms: C_1  and  O_28
    2  A    between atoms: O_4  and  C_17
    3  A    between atoms: O_4  and  C_21
    4  A    between atoms: C_6  and  C_24
    5  A    between atoms: C_10  and  C_15
    6  A    between atoms: C_13  and  O_26
    7  A    between atoms: C_15  and  C_17
    8  A    between atoms: C_21  and  C_23
    9  A    between atoms: C_21  and  C_25
   10  A    between atoms: C_23  and  O_26
   11  A    between atoms: C_25  and  O_28
                            x       y       z     vdW  Elec       q    Type
                         _______ _______ _______ _____ _____    ______ ____

>  <TORSDO>
F 11

$$$$
=
 OpenBabel11072408283D

 34 37  0  0  1  0  0  0  0  0999 V2000
  189.1260  177.3950  143.8310 N   0  0  0  0  0  0  0  0  0  0  0  0
  192.5930  176.9530  144.6520 C   0  0  0  0  0  3  0  0  0  0  0  0
  185.3360  177.5570  145.7190 N   0  0  0  0  0  0  0  0  0  0  0  0
  192.4550  176.4500  146.0390 C   0  0  0  0  0  0  0  0  0  0  0  0
  188.7770  176.3240  146.3990 C   0  0  0  0  0  3  0  0  0  0  0  0
  187.8370  177.2250  144.3790 N   0  0  0  0  0  0  0  0  0  0  0  0
  186.4530  177.0670  146.4570 C   0  0  0  0  0  0  0  0  0  0  0  0
  184.2210  178.3140  142.3300 C   0  0  0  0  0  3  0  0  0  0  0  0
  186.4050  177.1320  142.3250 C   0  0  2  0  0  3  0  0  0  0  0  0
  190.0410  176.0470  145.6440 C   0  0  2  0  0  3  0  0  0  0  0  0
  191.5210  177.1940  143.8920 C   0  0  0  0  0  3  0  0  0  0  0  0
  187.7180  176.8290  145.7590 C   0  0  0  0  0  0  0  0  0  0  0  0
  185.4080  177.8770  144.4610 C   0  0  0  0  0  0  0  0  0  0  0  0
  186.3290  176.8190  147.6860 O   0  0  0  0  0  0  0  0  0  0  0  0
  184.2200  178.2570  143.7630 N   0  0  0  0  0  2  0  0  0  0  0  0
  191.2580  176.0970  146.5270 C   0  0  0  0  0  3  0  0  0  0  0  0
  190.1810  176.9290  144.4290 C   0  0  0  0  0  0  0  0  0  0  0  0
  185.2520  177.8250  141.6310 C   0  0  0  0  0  3  0  0  0  0  0  0
  186.7020  177.8250  143.6650 C   0  0  1  0  0  3  0  0  0  0  0  0
  194.7030  175.6440  146.3400 N   0  0  0  0  0  1  0  0  0  0  0  0
  193.6440  176.4410  146.9340 C   0  0  0  0  0  2  0  0  0  0  0  0
  187.5330  177.1150  141.4950 O   0  0  0  0  0  0  0  0  0  0  0  0
  187.5020  175.8670  140.8620 C   0  0  0  0  0  2  0  0  0  0  0  0
  188.6890  175.0150  141.2810 C   0  0  1  0  0  3  0  0  0  0  0  0
  188.3670  174.2700  142.4200 O   0  0  0  0  0  0  0  0  0  0  0  0
  189.2380  173.1760  142.4030 C   0  0  0  0  0  2  0  0  0  0  0  0
  189.9280  173.0400  143.7480 C   0  0  0  0  0  2  0  0  0  0  0  0
  191.8160  173.8880  142.5690 O   0  0  0  0  0  0  0  0  0  0  0  0
  191.3690  173.3970  143.6380 C   0  0  0  0  0  0  0  0  0  0  0  0
  192.2280  173.1540  144.7020 O   0  0  0  0  0  1  0  0  0  0  0  0
  189.0980  174.0890  140.1330 C   0  0  0  0  0  2  0  0  0  0  0  0
  188.1680  174.1420  139.0580 O   0  0  0  0  0  0  0  0  0  0  0  0
  188.5960  174.0500  137.7380 C   0  0  0  0  0  3  0  0  0  0  0  0
  189.8150  173.8770  137.4830 O   0  0  0  0  0  0  0  0  0  0  0  0
  1  6  1  0  0  0  0
  1 17  2  0  0  0  0
  2  4  1  0  0  0  0
  3  7  1  0  0  0  0
  4 16  2  0  0  0  0
  4 21  1  0  0  0  0
  6 12  1  0  0  0  0
  7 14  2  0  0  0  0
  8 15  1  0  0  0  0
  9 22  1  6  0  0  0
  9 19  1  0  0  0  0
 10  5  1  1  0  0  0
 10 16  1  0  0  0  0
 11 17  1  0  0  0  0
 11  2  2  0  0  0  0
 12  5  2  0  0  0  0
 12  7  1  0  0  0  0
 13  3  2  0  0  0  0
 15 13  1  0  0  0  0
 17 10  1  0  0  0  0
 18  9  1  0  0  0  0
 18  8  2  0  0  0  0
 19  6  1  0  0  0  0
 19 13  1  1  0  0  0
 20 21  1  0  0  0  0
 23 24  1  0  0  0  0
 23 22  1  0  0  0  0
 24 31  1  6  0  0  0
 24 25  1  0  0  0  0
 26 25  1  0  0  0  0
 26 27  1  0  0  0  0
 28 29  2  0  0  0  0
 29 27  1  0  0  0  0
 29 30  1  0  0  0  0
 32 31  1  0  0  0  0
 33 32  1  0  0  0  0
 34 33  2  0  0  0  0
M  END
>  <MODEL>
3

>  <REMARK>
 VINA RESULT:      -6.6      2.631      5.635
  Name = 
  11 active torsions:
  status: ('A' for Active; 'I' for Inactive)
    1  A    between atoms: C_1  and  O_28
    2  A    between atoms: O_4  and  C_17
    3  A    between atoms: O_4  and  C_21
    4  A    between atoms: C_6  and  C_24
    5  A    between atoms: C_10  and  C_15
    6  A    between atoms: C_13  and  O_26
    7  A    between atoms: C_15  and  C_17
    8  A    between atoms: C_21  and  C_23
    9  A    between atoms: C_21  and  C_25
   10  A    between atoms: C_23  and  O_26
   11  A    between atoms: C_25  and  O_28
                            x       y       z     vdW  Elec       q    Type
                         _______ _______ _______ _____ _____    ______ ____

>  <TORSDO>
F 11

$$$$
=
 OpenBabel11072408283D

 34 37  0  0  1  0  0  0  0  0999 V2000
  187.1090  175.3450  143.2550 N   0  0  0  0  0  0  0  0  0  0  0  0
  188.9360  172.8740  141.3990 C   0  0  0  0  0  3  0  0  0  0  0  0
  184.5210  178.6380  142.6080 N   0  0  0  0  0  0  0  0  0  0  0  0
  188.8530  173.4720  140.0470 C   0  0  0  0  0  0  0  0  0  0  0  0
  187.0220  176.6060  140.7530 C   0  0  0  0  0  3  0  0  0  0  0  0
  186.4410  176.5760  143.0840 N   0  0  0  0  0  0  0  0  0  0  0  0
  185.2480  178.1050  141.5030 C   0  0  0  0  0  0  0  0  0  0  0  0
  184.3890  178.6280  146.2520 C   0  0  0  0  0  3  0  0  0  0  0  0
  186.4340  177.4950  145.4150 C   0  0  2  0  0  3  0  0  0  0  0  0
  188.1040  175.6130  141.0460 C   0  0  2  0  0  3  0  0  0  0  0  0
  188.4400  173.5040  142.4680 C   0  0  0  0  0  3  0  0  0  0  0  0
  186.2820  177.0970  141.7500 C   0  0  0  0  0  0  0  0  0  0  0  0
  184.6820  178.2150  143.8260 C   0  0  0  0  0  0  0  0  0  0  0  0
  185.0130  178.5260  140.3380 O   0  0  0  0  0  0  0  0  0  0  0  0
  183.9970  178.8730  144.8940 N   0  0  0  0  0  2  0  0  0  0  0  0
  188.3970  174.7200  139.8720 C   0  0  0  0  0  3  0  0  0  0  0  0
  187.8280  174.8290  142.3050 C   0  0  0  0  0  0  0  0  0  0  0  0
  185.5110  177.9510  146.5240 C   0  0  0  0  0  3  0  0  0  0  0  0
  185.6080  177.0660  144.1910 C   0  0  1  0  0  3  0  0  0  0  0  0
  190.4470  173.0520  138.2920 N   0  0  0  0  0  1  0  0  0  0  0  0
  189.1760  172.6350  138.8580 C   0  0  0  0  0  2  0  0  0  0  0  0
  187.2600  176.4580  145.8650 O   0  0  0  0  0  0  0  0  0  0  0  0
  188.2990  177.0920  146.5560 C   0  0  0  0  0  2  0  0  0  0  0  0
  189.6380  176.8270  145.8880 C   0  0  1  0  0  3  0  0  0  0  0  0
  190.0470  177.9550  145.1690 O   0  0  0  0  0  0  0  0  0  0  0  0
  189.9210  177.5990  143.8220 C   0  0  0  0  0  2  0  0  0  0  0  0
  191.2470  177.7930  143.1070 C   0  0  0  0  0  2  0  0  0  0  0  0
  191.2870  175.4410  142.7310 O   0  0  0  0  0  0  0  0  0  0  0  0
  191.9490  176.4910  142.9400 C   0  0  0  0  0  0  0  0  0  0  0  0
  193.3310  176.4280  143.0500 O   0  0  0  0  0  1  0  0  0  0  0  0
  190.6840  176.4560  146.9420 C   0  0  0  0  0  2  0  0  0  0  0  0
  191.9680  176.2650  146.3630 O   0  0  0  0  0  0  0  0  0  0  0  0
  192.6770  175.0860  146.5700 C   0  0  0  0  0  3  0  0  0  0  0  0
  192.7760  174.2420  145.6430 O   0  0  0  0  0  0  0  0  0  0  0  0
  2 11  2  0  0  0  0
  3 13  2  0  0  0  0
  4  2  1  0  0  0  0
  5 10  1  0  0  0  0
  5 12  2  0  0  0  0
  6  1  1  0  0  0  0
  6 19  1  0  0  0  0
  7 12  1  0  0  0  0
  7  3  1  0  0  0  0
  8 18  2  0  0  0  0
  9 22  1  1  0  0  0
  9 18  1  0  0  0  0
 10 16  1  6  0  0  0
 10 17  1  0  0  0  0
 12  6  1  0  0  0  0
 13 15  1  0  0  0  0
 14  7  2  0  0  0  0
 15  8  1  0  0  0  0
 16  4  2  0  0  0  0
 17 11  1  0  0  0  0
 17  1  2  0  0  0  0
 19 13  1  6  0  0  0
 19  9  1  0  0  0  0
 20 21  1  0  0  0  0
 21  4  1  0  0  0  0
 22 23  1  0  0  0  0
 24 23  1  1  0  0  0
 24 31  1  0  0  0  0
 25 24  1  0  0  0  0
 26 25  1  0  0  0  0
 27 26  1  0  0  0  0
 28 29  2  0  0  0  0
 29 30  1  0  0  0  0
 29 27  1  0  0  0  0
 32 33  1  0  0  0  0
 32 31  1  0  0  0  0
 34 33  2  0  0  0  0
M  END
>  <MODEL>
4

>  <REMARK>
 VINA RESULT:      -6.5      1.164      2.138
  Name = 
  11 active torsions:
  status: ('A' for Active; 'I' for Inactive)
    1  A    between atoms: C_1  and  O_28
    2  A    between atoms: O_4  and  C_17
    3  A    between atoms: O_4  and  C_21
    4  A    between atoms: C_6  and  C_24
    5  A    between atoms: C_10  and  C_15
    6  A    between atoms: C_13  and  O_26
    7  A    between atoms: C_15  and  C_17
    8  A    between atoms: C_21  and  C_23
    9  A    between atoms: C_21  and  C_25
   10  A    between atoms: C_23  and  O_26
   11  A    between atoms: C_25  and  O_28
                            x       y       z     vdW  Elec       q    Type
                         _______ _______ _______ _____ _____    ______ ____

>  <TORSDO>
F 11

$$$$
=
 OpenBabel11072408283D

 34 37  0  0  1  0  0  0  0  0999 V2000
  188.3880  176.9480  143.2410 N   0  0  0  0  0  0  0  0  0  0  0  0
  186.3350  177.8130  140.4250 C   0  0  0  0  0  3  0  0  0  0  0  0
  188.0310  176.0420  147.3650 N   0  0  0  0  0  0  0  0  0  0  0  0
  185.0780  178.1500  141.1320 C   0  0  0  0  0  0  0  0  0  0  0  0
  186.0890  177.6970  144.6600 C   0  0  0  0  0  3  0  0  0  0  0  0
  188.3450  176.8710  144.6490 N   0  0  0  0  0  0  0  0  0  0  0  0
  186.9160  176.6170  146.6870 C   0  0  0  0  0  0  0  0  0  0  0  0
  191.6190  175.4680  147.0530 C   0  0  0  0  0  3  0  0  0  0  0  0
  190.7770  176.9540  145.2500 C   0  0  2  0  0  3  0  0  0  0  0  0
  186.3150  178.2300  143.2790 C   0  0  2  0  0  3  0  0  0  0  0  0
  187.4450  177.4920  141.0970 C   0  0  0  0  0  3  0  0  0  0  0  0
  187.0910  177.1060  145.3170 C   0  0  0  0  0  0  0  0  0  0  0  0
  189.1850  175.8630  146.7960 C   0  0  0  0  0  0  0  0  0  0  0  0
  185.8090  176.7210  147.2800 O   0  0  0  0  0  0  0  0  0  0  0  0
  190.2840  175.3820  147.5730 N   0  0  0  0  0  2  0  0  0  0  0  0
  185.0500  178.2730  142.4660 C   0  0  0  0  0  3  0  0  0  0  0  0
  187.4270  177.5030  142.5650 C   0  0  0  0  0  0  0  0  0  0  0  0
  191.8710  176.1700  145.9420 C   0  0  0  0  0  3  0  0  0  0  0  0
  189.4490  176.1830  145.3340 C   0  0  1  0  0  3  0  0  0  0  0  0
  182.6740  178.1910  141.2640 N   0  0  0  0  0  1  0  0  0  0  0  0
  183.8100  178.2460  140.3590 C   0  0  0  0  0  2  0  0  0  0  0  0
  191.1330  177.2190  143.9220 O   0  0  0  0  0  0  0  0  0  0  0  0
  192.3840  176.6160  143.7510 C   0  0  0  0  0  2  0  0  0  0  0  0
  192.4610  175.8870  142.4200 C   0  0  1  0  0  3  0  0  0  0  0  0
  193.7250  175.3100  142.2600 O   0  0  0  0  0  0  0  0  0  0  0  0
  194.5380  175.9340  143.2110 C   0  0  0  0  0  2  0  0  0  0  0  0
  195.5180  174.9320  143.7950 C   0  0  0  0  0  2  0  0  0  0  0  0
  195.4970  175.0380  146.1750 O   0  0  0  0  0  1  0  0  0  0  0  0
  195.0630  174.4740  145.1370 C   0  0  0  0  0  0  0  0  0  0  0  0
  194.1890  173.4010  145.2450 O   0  0  0  0  0  0  0  0  0  0  0  0
  191.3700  174.8160  142.3480 C   0  0  0  0  0  2  0  0  0  0  0  0
  191.5180  173.8450  143.3770 O   0  0  0  0  0  0  0  0  0  0  0  0
  190.4450  173.0530  143.7720 C   0  0  0  0  0  3  0  0  0  0  0  0
  190.6300  172.0930  144.5630 O   0  0  0  0  0  0  0  0  0  0  0  0
  1  6  1  0  0  0  0
  2 11  2  0  0  0  0
  2  4  1  0  0  0  0
  4 16  2  0  0  0  0
  5 12  2  0  0  0  0
  6 12  1  0  0  0  0
  6 19  1  0  0  0  0
  7 14  2  0  0  0  0
  7  3  1  0  0  0  0
  8 15  1  0  0  0  0
  9 22  1  6  0  0  0
  9 19  1  0  0  0  0
  9 18  1  0  0  0  0
 10 16  1  6  0  0  0
 10  5  1  0  0  0  0
 11 17  1  0  0  0  0
 12  7  1  0  0  0  0
 13  3  2  0  0  0  0
 13 15  1  0  0  0  0
 17  1  2  0  0  0  0
 17 10  1  0  0  0  0
 18  8  2  0  0  0  0
 19 13  1  1  0  0  0
 21  4  1  0  0  0  0
 21 20  1  0  0  0  0
 23 22  1  0  0  0  0
 24 31  1  1  0  0  0
 24 23  1  0  0  0  0
 25 24  1  0  0  0  0
 25 26  1  0  0  0  0
 26 27  1  0  0  0  0
 27 29  1  0  0  0  0
 29 30  2  0  0  0  0
 29 28  1  0  0  0  0
 31 32  1  0  0  0  0
 32 33  1  0  0  0  0
 33 34  2  0  0  0  0
M  END
>  <MODEL>
5

>  <REMARK>
 VINA RESULT:      -6.3      2.859      5.051
  Name = 
  11 active torsions:
  status: ('A' for Active; 'I' for Inactive)
    1  A    between atoms: C_1  and  O_28
    2  A    between atoms: O_4  and  C_17
    3  A    between atoms: O_4  and  C_21
    4  A    between atoms: C_6  and  C_24
    5  A    between atoms: C_10  and  C_15
    6  A    between atoms: C_13  and  O_26
    7  A    between atoms: C_15  and  C_17
    8  A    between atoms: C_21  and  C_23
    9  A    between atoms: C_21  and  C_25
   10  A    between atoms: C_23  and  O_26
   11  A    between atoms: C_25  and  O_28
                            x       y       z     vdW  Elec       q    Type
                         _______ _______ _______ _____ _____    ______ ____

>  <TORSDO>
F 11

$$$$
=
 OpenBabel11072408283D

 34 37  0  0  1  0  0  0  0  0999 V2000
  189.1920  175.0660  142.7220 N   0  0  0  0  0  0  0  0  0  0  0  0
  188.6960  173.6390  139.4650 C   0  0  0  0  0  3  0  0  0  0  0  0
  191.8960  174.8660  145.9780 N   0  0  0  0  0  0  0  0  0  0  0  0
  189.6460  172.5050  139.5470 C   0  0  0  0  0  0  0  0  0  0  0  0
  190.9090  172.8670  143.0020 C   0  0  0  0  0  3  0  0  0  0  0  0
  189.9250  174.8620  143.9100 N   0  0  0  0  0  0  0  0  0  0  0  0
  191.9630  173.8650  144.9650 C   0  0  0  0  0  0  0  0  0  0  0  0
  189.7530  177.5090  147.2910 C   0  0  0  0  0  3  0  0  0  0  0  0
  188.5720  176.1460  145.5840 C   0  0  2  0  0  3  0  0  0  0  0  0
  189.7970  172.8170  142.0010 C   0  0  2  0  0  3  0  0  0  0  0  0
  188.4790  174.4380  140.5130 C   0  0  0  0  0  3  0  0  0  0  0  0
  190.9160  173.8170  143.9420 C   0  0  0  0  0  0  0  0  0  0  0  0
  190.9840  175.7920  145.9950 C   0  0  0  0  0  0  0  0  0  0  0  0
  192.9010  173.0230  144.9790 O   0  0  0  0  0  0  0  0  0  0  0  0
  190.9180  176.6930  147.1030 N   0  0  0  0  0  2  0  0  0  0  0  0
  190.2160  172.1670  140.7110 C   0  0  0  0  0  3  0  0  0  0  0  0
  189.1710  174.1720  141.7800 C   0  0  0  0  0  0  0  0  0  0  0  0
  188.6500  177.2960  146.5650 C   0  0  0  0  0  3  0  0  0  0  0  0
  189.9360  175.9450  144.9050 C   0  0  1  0  0  3  0  0  0  0  0  0
  189.6940  170.3990  138.3800 N   0  0  0  0  0  1  0  0  0  0  0  0
  190.0540  171.8040  138.2980 C   0  0  0  0  0  2  0  0  0  0  0  0
  187.5600  176.3740  144.6440 O   0  0  0  0  0  0  0  0  0  0  0  0
  187.6220  177.7450  144.3650 C   0  0  0  0  0  2  0  0  0  0  0  0
  186.6800  178.1120  143.2300 C   0  0  1  0  0  3  0  0  0  0  0  0
  185.8130  179.1310  143.6370 O   0  0  0  0  0  0  0  0  0  0  0  0
  184.6470  178.4800  144.0520 C   0  0  0  0  0  2  0  0  0  0  0  0
  184.2010  179.0200  145.3990 C   0  0  0  0  0  2  0  0  0  0  0  0
  184.9460  178.6210  147.6260 O   0  0  0  0  0  1  0  0  0  0  0  0
  184.6650  178.1330  146.5010 C   0  0  0  0  0  0  0  0  0  0  0  0
  184.8240  176.7720  146.2770 O   0  0  0  0  0  0  0  0  0  0  0  0
  187.4850  178.5520  142.0050 C   0  0  0  0  0  2  0  0  0  0  0  0
  187.0980  177.8370  140.8380 O   0  0  0  0  0  0  0  0  0  0  0  0
  185.7570  177.5860  140.5650 C   0  0  0  0  0  3  0  0  0  0  0  0
  185.0060  178.5230  140.1910 O   0  0  0  0  0  0  0  0  0  0  0  0
  1  6  1  0  0  0  0
  2  4  1  0  0  0  0
  2 11  2  0  0  0  0
  3 13  2  0  0  0  0
  4 16  2  0  0  0  0
  5 12  2  0  0  0  0
  6 12  1  0  0  0  0
  6 19  1  0  0  0  0
  7 14  2  0  0  0  0
  7  3  1  0  0  0  0
  9 22  1  6  0  0  0
  9 18  1  0  0  0  0
 10 16  1  6  0  0  0
 10  5  1  0  0  0  0
 11 17  1  0  0  0  0
 12  7  1  0  0  0  0
 13 15  1  0  0  0  0
 15  8  1  0  0  0  0
 17 10  1  0  0  0  0
 17  1  2  0  0  0  0
 18  8  2  0  0  0  0
 19  9  1  0  0  0  0
 19 13  1  1  0  0  0
 21 20  1  0  0  0  0
 21  4  1  0  0  0  0
 23 22  1  0  0  0  0
 24 31  1  6  0  0  0
 24 25  1  0  0  0  0
 24 23  1  0  0  0  0
 25 26  1  0  0  0  0
 26 27  1  0  0  0  0
 27 29  1  0  0  0  0
 29 28  1  0  0  0  0
 30 29  2  0  0  0  0
 32 31  1  0  0  0  0
 33 32  1  0  0  0  0
 34 33  2  0  0  0  0
M  END
>  <MODEL>
6

>  <REMARK>
 VINA RESULT:      -6.2      2.642      5.932
  Name = 
  11 active torsions:
  status: ('A' for Active; 'I' for Inactive)
    1  A    between atoms: C_1  and  O_28
    2  A    between atoms: O_4  and  C_17
    3  A    between atoms: O_4  and  C_21
    4  A    between atoms: C_6  and  C_24
    5  A    between atoms: C_10  and  C_15
    6  A    between atoms: C_13  and  O_26
    7  A    between atoms: C_15  and  C_17
    8  A    between atoms: C_21  and  C_23
    9  A    between atoms: C_21  and  C_25
   10  A    between atoms: C_23  and  O_26
   11  A    between atoms: C_25  and  O_28
                            x       y       z     vdW  Elec       q    Type
                         _______ _______ _______ _____ _____    ______ ____

>  <TORSDO>
F 11

$$$$
=
 OpenBabel11072408283D

 34 37  0  0  1  0  0  0  0  0999 V2000
  189.8230  174.8400  142.9760 N   0  0  0  0  0  0  0  0  0  0  0  0
  188.3770  174.4010  139.7190 C   0  0  0  0  0  3  0  0  0  0  0  0
  193.5420  174.4200  144.9620 N   0  0  0  0  0  0  0  0  0  0  0  0
  189.4530  173.6110  139.0770 C   0  0  0  0  0  0  0  0  0  0  0  0
  191.8420  173.2370  141.8740 C   0  0  0  0  0  3  0  0  0  0  0  0
  190.9680  174.4970  143.7240 N   0  0  0  0  0  0  0  0  0  0  0  0
  193.3820  173.8390  143.6700 C   0  0  0  0  0  0  0  0  0  0  0  0
  191.6580  175.8190  147.7540 C   0  0  0  0  0  3  0  0  0  0  0  0
  190.1550  174.7710  146.0780 C   0  0  2  0  0  3  0  0  0  0  0  0
  190.4590  173.1860  141.3020 C   0  0  2  0  0  3  0  0  0  0  0  0
  188.4440  174.7460  141.0080 C   0  0  0  0  0  3  0  0  0  0  0  0
  192.0500  173.8150  143.0610 C   0  0  0  0  0  0  0  0  0  0  0  0
  192.5690  175.0010  145.5990 C   0  0  0  0  0  0  0  0  0  0  0  0
  194.3760  173.3330  143.0850 O   0  0  0  0  0  0  0  0  0  0  0  0
  192.7810  175.4620  146.9350 N   0  0  0  0  0  2  0  0  0  0  0  0
  190.4620  173.1070  139.8000 C   0  0  0  0  0  3  0  0  0  0  0  0
  189.5920  174.3090  141.8130 C   0  0  0  0  0  0  0  0  0  0  0  0
  190.4110  175.5380  147.3580 C   0  0  0  0  0  3  0  0  0  0  0  0
  191.1800  175.1800  145.0090 C   0  0  1  0  0  3  0  0  0  0  0  0
  190.7600  173.8900  137.0740 N   0  0  0  0  0  1  0  0  0  0  0  0
  189.4700  173.4710  137.5950 C   0  0  0  0  0  2  0  0  0  0  0  0
  188.8420  174.9830  145.6380 O   0  0  0  0  0  0  0  0  0  0  0  0
  188.4190  176.1430  146.2960 C   0  0  0  0  0  2  0  0  0  0  0  0
  187.3330  176.8520  145.5040 C   0  0  1  0  0  3  0  0  0  0  0  0
  186.5640  177.6540  146.3540 O   0  0  0  0  0  0  0  0  0  0  0  0
  185.2350  177.3490  146.0440 C   0  0  0  0  0  2  0  0  0  0  0  0
  184.4380  178.6290  145.8600 C   0  0  0  0  0  2  0  0  0  0  0  0
  183.9840  178.6710  143.5220 O   0  0  0  0  0  0  0  0  0  0  0  0
  184.6230  179.1690  144.4850 C   0  0  0  0  0  0  0  0  0  0  0  0
  185.5270  180.1980  144.2580 O   0  0  0  0  0  1  0  0  0  0  0  0
  187.9640  177.6980  144.3960 C   0  0  0  0  0  2  0  0  0  0  0  0
  187.3540  177.4520  143.1350 O   0  0  0  0  0  0  0  0  0  0  0  0
  187.7170  178.1860  142.0100 C   0  0  0  0  0  3  0  0  0  0  0  0
  188.9300  178.2890  141.6920 O   0  0  0  0  0  0  0  0  0  0  0  0
  1  6  1  0  0  0  0
  2 11  2  0  0  0  0
  3 13  2  0  0  0  0
  4  2  1  0  0  0  0
  4 16  2  0  0  0  0
  5 12  2  0  0  0  0
  6 19  1  0  0  0  0
  7  3  1  0  0  0  0
  9 22  1  6  0  0  0
  9 18  1  0  0  0  0
 10 16  1  6  0  0  0
 10 17  1  0  0  0  0
 10  5  1  0  0  0  0
 11 17  1  0  0  0  0
 12  7  1  0  0  0  0
 12  6  1  0  0  0  0
 13 15  1  0  0  0  0
 14  7  2  0  0  0  0
 15  8  1  0  0  0  0
 17  1  2  0  0  0  0
 18  8  2  0  0  0  0
 19 13  1  1  0  0  0
 19  9  1  0  0  0  0
 20 21  1  0  0  0  0
 21  4  1  0  0  0  0
 22 23  1  0  0  0  0
 24 31  1  6  0  0  0
 24 23  1  0  0  0  0
 24 25  1  0  0  0  0
 26 25  1  0  0  0  0
 27 26  1  0  0  0  0
 28 29  2  0  0  0  0
 29 27  1  0  0  0  0
 30 29  1  0  0  0  0
 32 31  1  0  0  0  0
 33 32  1  0  0  0  0
 34 33  2  0  0  0  0
M  END
>  <MODEL>
7

>  <REMARK>
 VINA RESULT:      -6.0      2.703      6.089
  Name = 
  11 active torsions:
  status: ('A' for Active; 'I' for Inactive)
    1  A    between atoms: C_1  and  O_28
    2  A    between atoms: O_4  and  C_17
    3  A    between atoms: O_4  and  C_21
    4  A    between atoms: C_6  and  C_24
    5  A    between atoms: C_10  and  C_15
    6  A    between atoms: C_13  and  O_26
    7  A    between atoms: C_15  and  C_17
    8  A    between atoms: C_21  and  C_23
    9  A    between atoms: C_21  and  C_25
   10  A    between atoms: C_23  and  O_26
   11  A    between atoms: C_25  and  O_28
                            x       y       z     vdW  Elec       q    Type
                         _______ _______ _______ _____ _____    ______ ____

>  <TORSDO>
F 11

$$$$
=
 OpenBabel11072408283D

 34 37  0  0  1  0  0  0  0  0999 V2000
  188.5640  177.3070  143.8140 N   0  0  0  0  0  0  0  0  0  0  0  0
  191.4410  176.7650  145.8930 C   0  0  0  0  0  3  0  0  0  0  0  0
  184.4320  178.1790  144.1500 N   0  0  0  0  0  0  0  0  0  0  0  0
  190.7680  176.5800  147.1990 C   0  0  0  0  0  0  0  0  0  0  0  0
  187.2110  176.8380  146.2240 C   0  0  0  0  0  3  0  0  0  0  0  0
  187.1560  177.3640  143.8800 N   0  0  0  0  0  0  0  0  0  0  0  0
  185.1450  177.7650  145.3130 C   0  0  0  0  0  0  0  0  0  0  0  0
  184.6540  178.2880  140.5110 C   0  0  0  0  0  3  0  0  0  0  0  0
  186.5050  176.9570  141.4950 C   0  0  2  0  0  3  0  0  0  0  0  0
  188.5980  176.3040  146.0350 C   0  0  2  0  0  3  0  0  0  0  0  0
  190.7380  176.9270  144.7680 C   0  0  0  0  0  3  0  0  0  0  0  0
  186.5200  177.2820  145.1700 C   0  0  0  0  0  0  0  0  0  0  0  0
  184.9720  178.2170  142.9690 C   0  0  0  0  0  0  0  0  0  0  0  0
  184.5780  177.7950  146.4380 O   0  0  0  0  0  0  0  0  0  0  0  0
  184.1610  178.5380  141.8360 N   0  0  0  0  0  2  0  0  0  0  0  0
  189.4380  176.4390  147.2750 C   0  0  0  0  0  3  0  0  0  0  0  0
  189.2720  176.8930  144.8210 C   0  0  0  0  0  0  0  0  0  0  0  0
  185.7730  177.5790  140.3250 C   0  0  0  0  0  3  0  0  0  0  0  0
  186.4340  177.8910  142.7140 C   0  0  1  0  0  3  0  0  0  0  0  0
  191.2990  177.9190  149.1290 N   0  0  0  0  0  1  0  0  0  0  0  0
  191.5700  176.6630  148.4510 C   0  0  0  0  0  2  0  0  0  0  0  0
  187.8300  176.6710  141.1440 O   0  0  0  0  0  0  0  0  0  0  0  0
  187.7530  175.5600  140.2960 C   0  0  0  0  0  2  0  0  0  0  0  0
  188.7700  174.5020  140.6910 C   0  0  1  0  0  3  0  0  0  0  0  0
  188.7870  174.3470  142.0810 O   0  0  0  0  0  0  0  0  0  0  0  0
  190.1390  174.2740  142.4280 C   0  0  0  0  0  2  0  0  0  0  0  0
  190.4820  172.8700  142.8920 C   0  0  0  0  0  2  0  0  0  0  0  0
  190.1860  173.3550  145.2050 O   0  0  0  0  0  1  0  0  0  0  0  0
  190.9330  172.8810  144.3110 C   0  0  0  0  0  0  0  0  0  0  0  0
  192.1930  172.4010  144.6430 O   0  0  0  0  0  0  0  0  0  0  0  0
  188.4340  173.1740  140.0080 C   0  0  0  0  0  2  0  0  0  0  0  0
  188.6300  173.2420  138.6020 O   0  0  0  0  0  0  0  0  0  0  0  0
  189.4030  172.2930  137.9400 C   0  0  0  0  0  3  0  0  0  0  0  0
  189.4110  171.1010  138.3400 O   0  0  0  0  0  0  0  0  0  0  0  0
  1  6  1  0  0  0  0
  1 17  2  0  0  0  0
  2  4  1  0  0  0  0
  3  7  1  0  0  0  0
  4 16  2  0  0  0  0
  4 21  1  0  0  0  0
  6 12  1  0  0  0  0
  7 14  2  0  0  0  0
  8 15  1  0  0  0  0
  9 22  1  6  0  0  0
  9 19  1  0  0  0  0
 10  5  1  1  0  0  0
 10 16  1  0  0  0  0
 11 17  1  0  0  0  0
 11  2  2  0  0  0  0
 12  7  1  0  0  0  0
 12  5  2  0  0  0  0
 13  3  2  0  0  0  0
 15 13  1  0  0  0  0
 17 10  1  0  0  0  0
 18  8  2  0  0  0  0
 18  9  1  0  0  0  0
 19 13  1  1  0  0  0
 19  6  1  0  0  0  0
 21 20  1  0  0  0  0
 23 24  1  0  0  0  0
 23 22  1  0  0  0  0
 24 31  1  6  0  0  0
 24 25  1  0  0  0  0
 25 26  1  0  0  0  0
 26 27  1  0  0  0  0
 27 29  1  0  0  0  0
 29 30  2  0  0  0  0
 29 28  1  0  0  0  0
 32 31  1  0  0  0  0
 33 34  2  0  0  0  0
 33 32  1  0  0  0  0
M  END
>  <MODEL>
8

>  <REMARK>
 VINA RESULT:      -6.0      2.833      6.001
  Name = 
  11 active torsions:
  status: ('A' for Active; 'I' for Inactive)
    1  A    between atoms: C_1  and  O_28
    2  A    between atoms: O_4  and  C_17
    3  A    between atoms: O_4  and  C_21
    4  A    between atoms: C_6  and  C_24
    5  A    between atoms: C_10  and  C_15
    6  A    between atoms: C_13  and  O_26
    7  A    between atoms: C_15  and  C_17
    8  A    between atoms: C_21  and  C_23
    9  A    between atoms: C_21  and  C_25
   10  A    between atoms: C_23  and  O_26
   11  A    between atoms: C_25  and  O_28
                            x       y       z     vdW  Elec       q    Type
                         _______ _______ _______ _____ _____    ______ ____

>  <TORSDO>
F 11

$$$$
=
 OpenBabel11072408283D

 34 37  0  0  1  0  0  0  0  0999 V2000
  188.4120  176.8600  143.3220 N   0  0  0  0  0  0  0  0  0  0  0  0
  186.3390  177.7640  140.5330 C   0  0  0  0  0  3  0  0  0  0  0  0
  188.1010  176.0250  147.4650 N   0  0  0  0  0  0  0  0  0  0  0  0
  185.1100  178.1590  141.2590 C   0  0  0  0  0  0  0  0  0  0  0  0
  186.1700  177.7150  144.7730 C   0  0  0  0  0  3  0  0  0  0  0  0
  188.3930  176.8040  144.7320 N   0  0  0  0  0  0  0  0  0  0  0  0
  186.9950  176.6320  146.7990 C   0  0  0  0  0  0  0  0  0  0  0  0
  191.6580  175.3110  147.0940 C   0  0  0  0  0  3  0  0  0  0  0  0
  190.8370  176.8020  145.2850 C   0  0  2  0  0  3  0  0  0  0  0  0
  186.3900  178.2210  143.3800 C   0  0  2  0  0  3  0  0  0  0  0  0
  187.4480  177.4100  141.1890 C   0  0  0  0  0  3  0  0  0  0  0  0
  187.1620  177.0960  145.4200 C   0  0  0  0  0  0  0  0  0  0  0  0
  189.2360  175.7940  146.8770 C   0  0  0  0  0  0  0  0  0  0  0  0
  185.9050  176.7870  147.4120 O   0  0  0  0  0  0  0  0  0  0  0  0
  190.3310  175.2830  147.6400 N   0  0  0  0  0  2  0  0  0  0  0  0
  185.1120  178.3000  142.5920 C   0  0  0  0  0  3  0  0  0  0  0  0
  187.4600  177.4420  142.6570 C   0  0  0  0  0  0  0  0  0  0  0  0
  191.9150  175.9870  145.9680 C   0  0  0  0  0  3  0  0  0  0  0  0
  189.4830  176.0840  145.4050 C   0  0  1  0  0  3  0  0  0  0  0  0
  182.7120  178.2800  141.4350 N   0  0  0  0  0  1  0  0  0  0  0  0
  183.8310  178.2920  140.5090 C   0  0  0  0  0  2  0  0  0  0  0  0
  191.1780  177.0360  143.9470 O   0  0  0  0  0  0  0  0  0  0  0  0
  192.4000  176.3810  143.7610 C   0  0  0  0  0  2  0  0  0  0  0  0
  192.2330  175.1560  142.8780 C   0  0  1  0  0  3  0  0  0  0  0  0
  191.1340  175.3230  142.0290 O   0  0  0  0  0  0  0  0  0  0  0  0
  190.9300  174.0710  141.4390 C   0  0  0  0  0  2  0  0  0  0  0  0
  189.5400  174.0030  140.8320 C   0  0  0  0  0  2  0  0  0  0  0  0
  187.4760  173.9300  142.0200 O   0  0  0  0  0  0  0  0  0  0  0  0
  188.5810  173.3770  141.7830 C   0  0  0  0  0  0  0  0  0  0  0  0
  188.9210  172.2000  142.4380 O   0  0  0  0  0  1  0  0  0  0  0  0
  193.5070  174.9210  142.0630 C   0  0  0  0  0  2  0  0  0  0  0  0
  194.4520  175.9670  142.2520 O   0  0  0  0  0  0  0  0  0  0  0  0
  195.7670  175.8280  141.8210 C   0  0  0  0  0  3  0  0  0  0  0  0
  196.3490  176.7920  141.2600 O   0  0  0  0  0  0  0  0  0  0  0  0
  1  6  1  0  0  0  0
  2 11  2  0  0  0  0
  2  4  1  0  0  0  0
  4 16  2  0  0  0  0
  5 12  2  0  0  0  0
  6 19  1  0  0  0  0
  6 12  1  0  0  0  0
  7 14  2  0  0  0  0
  7  3  1  0  0  0  0
  8 15  1  0  0  0  0
  9 22  1  6  0  0  0
  9 19  1  0  0  0  0
  9 18  1  0  0  0  0
 10 16  1  6  0  0  0
 10  5  1  0  0  0  0
 11 17  1  0  0  0  0
 12  7  1  0  0  0  0
 13  3  2  0  0  0  0
 13 15  1  0  0  0  0
 17  1  2  0  0  0  0
 17 10  1  0  0  0  0
 18  8  2  0  0  0  0
 19 13  1  1  0  0  0
 21  4  1  0  0  0  0
 21 20  1  0  0  0  0
 23 22  1  0  0  0  0
 24 31  1  6  0  0  0
 24 23  1  0  0  0  0
 25 24  1  0  0  0  0
 26 25  1  0  0  0  0
 27 26  1  0  0  0  0
 27 29  1  0  0  0  0
 29 28  2  0  0  0  0
 29 30  1  0  0  0  0
 31 32  1  0  0  0  0
 33 32  1  0  0  0  0
 34 33  2  0  0  0  0
M  END
>  <MODEL>
9

>  <REMARK>
 VINA RESULT:      -6.0      2.534      5.734
  Name = 
  11 active torsions:
  status: ('A' for Active; 'I' for Inactive)
    1  A    between atoms: C_1  and  O_28
    2  A    between atoms: O_4  and  C_17
    3  A    between atoms: O_4  and  C_21
    4  A    between atoms: C_6  and  C_24
    5  A    between atoms: C_10  and  C_15
    6  A    between atoms: C_13  and  O_26
    7  A    between atoms: C_15  and  C_17
    8  A    between atoms: C_21  and  C_23
    9  A    between atoms: C_21  and  C_25
   10  A    between atoms: C_23  and  O_26
   11  A    between atoms: C_25  and  O_28
                            x       y       z     vdW  Elec       q    Type
                         _______ _______ _______ _____ _____    ______ ____

>  <TORSDO>
F 11

$$$$
