=
 OpenBabel11072408443D

 36 40  0  0  1  0  0  0  0  0999 V2000
  190.9090  172.3910  142.2670 C   0  0  2  0  0  3  0  0  0  0  0  0
  192.3160  176.6530  146.5650 C   0  0  0  0  0  0  0  0  0  0  0  0
  191.1670  176.6140  147.5400 C   0  0  1  0  0  3  0  0  0  0  0  0
  190.4590  175.2880  147.5050 C   0  0  0  0  0  3  0  0  0  0  0  0
  193.5020  176.8340  146.9550 O   0  0  0  0  0  0  0  0  0  0  0  0
  189.9840  174.8200  146.3780 C   0  0  0  0  0  0  0  0  0  0  0  0
  190.0650  173.1420  144.5670 C   0  0  2  0  0  3  0  0  0  0  0  0
  193.0150  176.0460  144.2210 C   0  0  0  0  0  3  0  0  0  0  0  0
  191.5630  172.8920  144.7440 C   0  0  0  0  0  2  0  0  0  0  0  0
  191.3560  174.7650  143.1220 O   0  0  0  0  0  0  0  0  0  0  0  0
  192.0360  176.4070  145.1880 N   0  0  0  0  0  2  0  0  0  0  0  0
  191.0440  173.3970  143.4140 C   0  0  1  0  0  0  0  0  0  0  0  0
  189.5880  174.4190  145.1970 C   0  0  0  0  0  3  0  0  0  0  0  0
  191.6180  176.8900  148.8950 N   0  0  0  0  0  1  0  0  0  0  0  0
  192.6620  175.2690  143.2020 C   0  0  0  0  0  0  0  0  0  0  0  0
  193.6790  174.9110  142.1770 C   0  0  0  0  0  1  0  0  0  0  0  0
  191.9900  170.1890  142.8110 O   0  0  0  0  0  1  0  0  0  0  0  0
  192.0640  171.4400  142.2080 C   0  0  0  0  0  0  0  0  0  0  0  0
  193.1100  171.7700  141.5920 O   0  0  0  0  0  0  0  0  0  0  0  0
  190.6890  173.0920  140.9310 C   0  0  0  0  0  2  0  0  0  0  0  0
  189.3180  173.0210  140.5640 O   0  0  0  0  0  0  0  0  0  0  0  0
  187.4930  173.0650  141.9780 O   0  0  0  0  0  0  0  0  0  0  0  0
  188.3270  173.6950  141.2750 C   0  0  0  0  0  0  0  0  0  0  0  0
  188.2450  175.1790  141.1930 C   0  0  0  0  0  2  0  0  0  0  0  0
  187.8080  175.7470  142.5310 C   0  0  0  0  0  2  0  0  0  0  0  0
  184.5780  178.5130  147.5450 O   0  0  0  0  0  1  0  0  0  0  0  0
  186.5560  176.6960  145.0180 C   0  0  0  0  0  2  0  0  0  0  0  0
  184.8640  178.1790  146.2230 C   0  0  1  0  0  3  0  0  0  0  0  0
  185.5710  179.3870  144.1620 C   0  0  0  0  0  2  0  0  0  0  0  0
  186.3950  178.4450  143.3140 C   0  0  1  0  0  3  0  0  0  0  0  0
  185.8680  179.1760  145.6600 C   0  0  2  0  0  3  0  0  0  0  0  0
  185.9760  177.0800  143.6620 C   0  0  1  0  0  3  0  0  0  0  0  0
  186.3850  176.2920  142.4350 C   0  0  1  0  0  3  0  0  0  0  0  0
  186.3180  177.7660  146.1150 C   0  0  2  0  0  3  0  0  0  0  0  0
  186.0700  178.4700  141.8460 C   0  0  0  0  0  2  0  0  0  0  0  0
  186.2880  177.1700  141.3280 O   0  0  0  0  0  0  0  0  0  0  0  0
  1 20  1  6  0  0  0
  2  5  2  0  0  0  0
  2  3  1  0  0  0  0
  3 14  1  1  0  0  0
  4  3  1  0  0  0  0
  6  4  2  0  0  0  0
  7  9  1  1  0  0  0
  7 13  1  0  0  0  0
  8 11  1  0  0  0  0
 10 15  1  0  0  0  0
 10 12  1  0  0  0  0
 11  2  1  0  0  0  0
 12  1  1  6  0  0  0
 12  7  1  0  0  0  0
 12  9  1  0  0  0  0
 13  6  2  0  0  0  0
 15  8  2  0  0  0  0
 16 15  1  0  0  0  0
 18  1  1  0  0  0  0
 18 17  1  0  0  0  0
 19 18  2  0  0  0  0
 21 20  1  0  0  0  0
 21 23  1  0  0  0  0
 23 22  2  0  0  0  0
 24 23  1  0  0  0  0
 24 25  1  0  0  0  0
 28 26  1  1  0  0  0
 30 35  1  6  0  0  0
 30 32  1  0  0  0  0
 30 29  1  0  0  0  0
 31 29  1  6  0  0  0
 31 34  1  0  0  0  0
 31 28  1  0  0  0  0
 32 27  1  1  0  0  0
 33 25  1  1  0  0  0
 33 32  1  0  0  0  0
 34 27  1  6  0  0  0
 34 28  1  0  0  0  0
 36 35  1  0  0  0  0
 36 33  1  0  0  0  0
M  END
>  <MODEL>
1

>  <REMARK>
 VINA RESULT:      -7.6      0.000      0.000
  Name = 
  8 active torsions:
  status: ('A' for Active; 'I' for Inactive)
    1  A    between atoms: C_10  and  C_16
    2  A    between atoms: C_10  and  C_22
    3  A    between atoms: C_15  and  C_17
    4  A    between atoms: C_16  and  C_34
    5  A    between atoms: C_17  and  C_25
    6  A    between atoms: C_17  and  C_31
    7  A    between atoms: O_21  and  C_25
    8  A    between atoms: O_21  and  C_34
                            x       y       z     vdW  Elec       q    Type
                         _______ _______ _______ _____ _____    ______ ____

>  <TORSDO>
F 8

$$$$
=
 OpenBabel11072408443D

 36 40  0  0  1  0  0  0  0  0999 V2000
  190.1490  175.9970  144.8260 C   0  0  2  0  0  3  0  0  0  0  0  0
  194.8230  171.9090  145.0430 C   0  0  0  0  0  0  0  0  0  0  0  0
  196.0740  172.7450  144.9410 C   0  0  1  0  0  3  0  0  0  0  0  0
  195.8330  174.1560  145.3990 C   0  0  0  0  0  3  0  0  0  0  0  0
  194.7750  170.8870  145.7810 O   0  0  0  0  0  0  0  0  0  0  0  0
  194.8810  174.8740  144.8590 C   0  0  0  0  0  0  0  0  0  0  0  0
  192.7000  176.0170  145.0620 C   0  0  2  0  0  3  0  0  0  0  0  0
  192.3400  171.9040  144.6100 C   0  0  0  0  0  3  0  0  0  0  0  0
  192.1980  175.0600  146.1430 C   0  0  0  0  0  2  0  0  0  0  0  0
  191.5650  174.0440  143.9630 O   0  0  0  0  0  0  0  0  0  0  0  0
  193.6640  172.3470  144.3360 N   0  0  0  0  0  2  0  0  0  0  0  0
  191.4390  175.1740  144.8370 C   0  0  1  0  0  0  0  0  0  0  0  0
  193.8770  175.4930  144.2910 C   0  0  0  0  0  3  0  0  0  0  0  0
  197.1600  172.1600  145.7110 N   0  0  0  0  0  1  0  0  0  0  0  0
  191.3230  172.7320  144.3950 C   0  0  0  0  0  0  0  0  0  0  0  0
  189.9380  172.2620  144.6580 C   0  0  0  0  0  1  0  0  0  0  0  0
  188.7280  174.9380  146.6070 O   0  0  0  0  0  0  0  0  0  0  0  0
  189.4790  176.0220  146.1650 C   0  0  0  0  0  0  0  0  0  0  0  0
  189.6070  177.0300  146.9050 O   0  0  0  0  0  1  0  0  0  0  0  0
  189.1960  175.5320  143.7290 C   0  0  0  0  0  2  0  0  0  0  0  0
  189.5520  176.1280  142.4900 O   0  0  0  0  0  0  0  0  0  0  0  0
  189.4350  178.4190  142.2210 O   0  0  0  0  0  0  0  0  0  0  0  0
  188.9290  177.2830  142.0190 C   0  0  0  0  0  0  0  0  0  0  0  0
  187.6430  177.1720  141.2780 C   0  0  0  0  0  2  0  0  0  0  0  0
  186.6320  178.1500  141.8490 C   0  0  0  0  0  2  0  0  0  0  0  0
  185.8820  177.5600  148.3550 O   0  0  0  0  0  1  0  0  0  0  0  0
  186.7190  177.8590  144.7760 C   0  0  0  0  0  2  0  0  0  0  0  0
  185.5250  177.5300  147.0080 C   0  0  1  0  0  3  0  0  0  0  0  0
  183.9730  178.7830  145.5160 C   0  0  0  0  0  2  0  0  0  0  0  0
  184.5550  178.7960  144.1210 C   0  0  1  0  0  3  0  0  0  0  0  0
  185.0850  178.9220  146.5750 C   0  0  2  0  0  3  0  0  0  0  0  0
  185.4240  177.6160  144.0100 C   0  0  1  0  0  3  0  0  0  0  0  0
  185.4820  177.3950  142.5130 C   0  0  1  0  0  3  0  0  0  0  0  0
  186.4930  178.3870  146.2170 C   0  0  2  0  0  3  0  0  0  0  0  0
  183.5670  178.5180  143.0220 C   0  0  0  0  0  2  0  0  0  0  0  0
  184.2500  177.8450  141.9800 O   0  0  0  0  0  0  0  0  0  0  0  0
  1 20  1  6  0  0  0
  1 18  1  0  0  0  0
  2  5  2  0  0  0  0
  3  2  1  0  0  0  0
  3  4  1  0  0  0  0
  3 14  1  1  0  0  0
  6  4  2  0  0  0  0
  7 13  1  6  0  0  0
  7  9  1  0  0  0  0
 10 15  1  0  0  0  0
 10 12  1  0  0  0  0
 11  8  1  0  0  0  0
 11  2  1  0  0  0  0
 12  1  1  1  0  0  0
 12  7  1  0  0  0  0
 12  9  1  0  0  0  0
 13  6  2  0  0  0  0
 15  8  2  0  0  0  0
 15 16  1  0  0  0  0
 18 17  2  0  0  0  0
 18 19  1  0  0  0  0
 21 20  1  0  0  0  0
 23 22  2  0  0  0  0
 23 21  1  0  0  0  0
 24 25  1  0  0  0  0
 24 23  1  0  0  0  0
 28 26  1  1  0  0  0
 30 35  1  6  0  0  0
 30 29  1  0  0  0  0
 31 29  1  6  0  0  0
 31 28  1  0  0  0  0
 32 30  1  0  0  0  0
 32 27  1  6  0  0  0
 33 25  1  6  0  0  0
 33 32  1  0  0  0  0
 34 27  1  6  0  0  0
 34 31  1  0  0  0  0
 34 28  1  0  0  0  0
 36 33  1  0  0  0  0
 36 35  1  0  0  0  0
M  END
>  <MODEL>
2

>  <REMARK>
 VINA RESULT:      -7.4      2.546      4.291
  Name = 
  8 active torsions:
  status: ('A' for Active; 'I' for Inactive)
    1  A    between atoms: C_10  and  C_16
    2  A    between atoms: C_10  and  C_22
    3  A    between atoms: C_15  and  C_17
    4  A    between atoms: C_16  and  C_34
    5  A    between atoms: C_17  and  C_25
    6  A    between atoms: C_17  and  C_31
    7  A    between atoms: O_21  and  C_25
    8  A    between atoms: O_21  and  C_34
                            x       y       z     vdW  Elec       q    Type
                         _______ _______ _______ _____ _____    ______ ____

>  <TORSDO>
F 8

$$$$
=
 OpenBabel11072408443D

 36 40  0  0  1  0  0  0  0  0999 V2000
  192.5850  175.5540  145.4130 C   0  0  2  0  0  3  0  0  0  0  0  0
  189.6950  172.0300  141.1890 C   0  0  0  0  0  0  0  0  0  0  0  0
  188.5680  172.8890  140.6740 C   0  0  1  0  0  3  0  0  0  0  0  0
  188.8590  174.3520  140.8640 C   0  0  0  0  0  3  0  0  0  0  0  0
  190.3330  171.2560  140.4250 O   0  0  0  0  0  0  0  0  0  0  0  0
  189.1470  174.8200  142.0510 C   0  0  0  0  0  0  0  0  0  0  0  0
  190.7890  175.8190  143.6050 C   0  0  2  0  0  3  0  0  0  0  0  0
  191.3140  171.7290  143.0980 C   0  0  0  0  0  3  0  0  0  0  0  0
  191.9820  175.1710  142.9030 C   0  0  0  0  0  2  0  0  0  0  0  0
  191.2140  173.5420  144.6170 O   0  0  0  0  0  0  0  0  0  0  0  0
  190.0730  172.1690  142.5580 N   0  0  0  0  0  2  0  0  0  0  0  0
  191.7170  174.8600  144.3610 C   0  0  1  0  0  0  0  0  0  0  0  0
  189.4710  175.1820  143.2670 C   0  0  0  0  0  3  0  0  0  0  0  0
  188.3060  172.6220  139.2680 N   0  0  0  0  0  1  0  0  0  0  0  0
  191.8430  172.3900  144.1220 C   0  0  0  0  0  0  0  0  0  0  0  0
  193.1280  171.9170  144.7030 C   0  0  0  0  0  1  0  0  0  0  0  0
  194.6020  176.7820  144.5520 O   0  0  0  0  0  0  0  0  0  0  0  0
  194.0280  175.6030  145.0160 C   0  0  0  0  0  0  0  0  0  0  0  0
  194.7360  174.5680  145.1160 O   0  0  0  0  0  1  0  0  0  0  0  0
  192.4030  174.9300  146.7920 C   0  0  0  0  0  2  0  0  0  0  0  0
  191.4890  175.7010  147.5590 O   0  0  0  0  0  0  0  0  0  0  0  0
  189.4330  174.6780  147.3060 O   0  0  0  0  0  0  0  0  0  0  0  0
  190.1250  175.7310  147.2740 C   0  0  0  0  0  0  0  0  0  0  0  0
  189.4790  177.0230  146.9140 C   0  0  0  0  0  2  0  0  0  0  0  0
  187.9840  176.8240  146.7470 C   0  0  0  0  0  2  0  0  0  0  0  0
  185.4670  178.6470  140.9530 O   0  0  0  0  0  1  0  0  0  0  0  0
  187.1880  177.4370  143.9820 C   0  0  0  0  0  2  0  0  0  0  0  0
  185.6850  178.6710  142.3290 C   0  0  1  0  0  3  0  0  0  0  0  0
  184.3390  178.2520  144.3830 C   0  0  0  0  0  2  0  0  0  0  0  0
  185.2600  177.7290  145.4610 C   0  0  1  0  0  3  0  0  0  0  0  0
  184.7360  177.6900  143.0040 C   0  0  2  0  0  3  0  0  0  0  0  0
  186.6080  178.2260  145.1490 C   0  0  1  0  0  3  0  0  0  0  0  0
  187.2970  178.1650  146.4970 C   0  0  1  0  0  3  0  0  0  0  0  0
  186.2230  177.3260  142.7730 C   0  0  2  0  0  3  0  0  0  0  0  0
  185.0480  178.3340  146.8210 C   0  0  0  0  0  2  0  0  0  0  0  0
  186.3000  178.3770  147.4810 O   0  0  0  0  0  0  0  0  0  0  0  0
  1 20  1  1  0  0  0
  2 11  1  0  0  0  0
  3 14  1  6  0  0  0
  3  4  1  0  0  0  0
  3  2  1  0  0  0  0
  4  6  2  0  0  0  0
  5  2  2  0  0  0  0
  6 13  2  0  0  0  0
  7  9  1  6  0  0  0
  7 12  1  0  0  0  0
  8 15  2  0  0  0  0
  9 12  1  0  0  0  0
 11  8  1  0  0  0  0
 12 10  1  0  0  0  0
 12  1  1  1  0  0  0
 13  7  1  0  0  0  0
 15 10  1  0  0  0  0
 15 16  1  0  0  0  0
 17 18  2  0  0  0  0
 18 19  1  0  0  0  0
 18  1  1  0  0  0  0
 20 21  1  0  0  0  0
 23 22  2  0  0  0  0
 23 21  1  0  0  0  0
 24 23  1  0  0  0  0
 25 24  1  0  0  0  0
 28 26  1  6  0  0  0
 28 34  1  0  0  0  0
 28 31  1  0  0  0  0
 30 29  1  6  0  0  0
 30 35  1  0  0  0  0
 31 29  1  1  0  0  0
 32 27  1  6  0  0  0
 32 30  1  0  0  0  0
 32 33  1  0  0  0  0
 33 25  1  1  0  0  0
 33 36  1  0  0  0  0
 34 31  1  0  0  0  0
 34 27  1  1  0  0  0
 35 36  1  0  0  0  0
M  END
>  <MODEL>
3

>  <REMARK>
 VINA RESULT:      -7.4      2.347      5.404
  Name = 
  8 active torsions:
  status: ('A' for Active; 'I' for Inactive)
    1  A    between atoms: C_10  and  C_16
    2  A    between atoms: C_10  and  C_22
    3  A    between atoms: C_15  and  C_17
    4  A    between atoms: C_16  and  C_34
    5  A    between atoms: C_17  and  C_25
    6  A    between atoms: C_17  and  C_31
    7  A    between atoms: O_21  and  C_25
    8  A    between atoms: O_21  and  C_34
                            x       y       z     vdW  Elec       q    Type
                         _______ _______ _______ _____ _____    ______ ____

>  <TORSDO>
F 8

$$$$
=
 OpenBabel11072408443D

 36 40  0  0  1  0  0  0  0  0999 V2000
  190.0650  175.7010  145.8230 C   0  0  2  0  0  3  0  0  0  0  0  0
  185.3970  178.1700  142.5480 C   0  0  0  0  0  0  0  0  0  0  0  0
  185.9670  178.3960  141.1700 C   0  0  1  0  0  3  0  0  0  0  0  0
  187.1320  177.4840  140.8990 C   0  0  0  0  0  3  0  0  0  0  0  0
  184.2040  177.7960  142.7110 O   0  0  0  0  0  0  0  0  0  0  0  0
  188.1590  177.4630  141.7100 C   0  0  0  0  0  0  0  0  0  0  0  0
  189.5280  176.2660  143.3820 C   0  0  2  0  0  3  0  0  0  0  0  0
  186.0070  177.7980  144.9650 C   0  0  0  0  0  3  0  0  0  0  0  0
  188.3510  175.4230  143.8740 C   0  0  0  0  0  2  0  0  0  0  0  0
  188.3390  177.5020  145.2390 O   0  0  0  0  0  0  0  0  0  0  0  0
  186.2680  178.3200  143.6680 N   0  0  0  0  0  2  0  0  0  0  0  0
  189.0720  176.3350  144.8450 C   0  0  1  0  0  0  0  0  0  0  0  0
  189.1150  177.4820  142.6030 C   0  0  0  0  0  3  0  0  0  0  0  0
  184.9520  178.2100  140.1450 N   0  0  0  0  0  1  0  0  0  0  0  0
  187.0280  177.4320  145.7320 C   0  0  0  0  0  0  0  0  0  0  0  0
  186.7570  176.9090  147.0980 C   0  0  0  0  0  1  0  0  0  0  0  0
  189.5890  173.2340  145.8780 O   0  0  0  0  0  0  0  0  0  0  0  0
  189.5070  174.4810  146.4880 C   0  0  0  0  0  0  0  0  0  0  0  0
  188.9680  174.5820  147.6200 O   0  0  0  0  0  1  0  0  0  0  0  0
  190.5720  176.7150  146.8430 C   0  0  0  0  0  2  0  0  0  0  0  0
  191.9570  176.5100  147.0860 O   0  0  0  0  0  0  0  0  0  0  0  0
  192.9040  177.1370  145.0750 O   0  0  0  0  0  0  0  0  0  0  0  0
  192.8730  176.3390  146.0500 C   0  0  0  0  0  0  0  0  0  0  0  0
  193.8190  175.1910  146.0890 C   0  0  0  0  0  2  0  0  0  0  0  0
  193.1650  173.9630  145.4830 C   0  0  0  0  0  2  0  0  0  0  0  0
  190.1430  171.7210  140.0910 O   0  0  0  0  0  1  0  0  0  0  0  0
  191.5470  172.7650  143.3370 C   0  0  0  0  0  2  0  0  0  0  0  0
  191.1720  172.2550  140.8650 C   0  0  1  0  0  3  0  0  0  0  0  0
  192.4070  174.4140  140.9960 C   0  0  0  0  0  2  0  0  0  0  0  0
  192.8430  174.6310  142.4270 C   0  0  1  0  0  3  0  0  0  0  0  0
  191.0090  173.7670  140.9410 C   0  0  2  0  0  3  0  0  0  0  0  0
  192.9430  173.3020  143.0480 C   0  0  1  0  0  3  0  0  0  0  0  0
  193.8910  173.5550  144.2030 C   0  0  1  0  0  3  0  0  0  0  0  0
  190.5860  172.8620  142.1240 C   0  0  2  0  0  3  0  0  0  0  0  0
  194.2550  175.1210  142.5890 C   0  0  0  0  0  2  0  0  0  0  0  0
  194.7640  174.5950  143.8010 O   0  0  0  0  0  0  0  0  0  0  0  0
  1 18  1  0  0  0  0
  1 20  1  1  0  0  0
  2  5  2  0  0  0  0
  2 11  1  0  0  0  0
  3 14  1  6  0  0  0
  3  2  1  0  0  0  0
  4  3  1  0  0  0  0
  4  6  2  0  0  0  0
  6 13  2  0  0  0  0
  7 13  1  6  0  0  0
  7  9  1  0  0  0  0
  7 12  1  0  0  0  0
  8 15  2  0  0  0  0
  9 12  1  0  0  0  0
 10 15  1  0  0  0  0
 11  8  1  0  0  0  0
 12 10  1  0  0  0  0
 12  1  1  1  0  0  0
 15 16  1  0  0  0  0
 17 18  2  0  0  0  0
 18 19  1  0  0  0  0
 20 21  1  0  0  0  0
 22 23  2  0  0  0  0
 23 24  1  0  0  0  0
 23 21  1  0  0  0  0
 25 24  1  0  0  0  0
 28 26  1  6  0  0  0
 28 31  1  0  0  0  0
 28 34  1  0  0  0  0
 30 29  1  6  0  0  0
 30 35  1  0  0  0  0
 30 32  1  0  0  0  0
 31 29  1  1  0  0  0
 31 34  1  0  0  0  0
 32 27  1  1  0  0  0
 32 33  1  0  0  0  0
 33 25  1  1  0  0  0
 34 27  1  1  0  0  0
 35 36  1  0  0  0  0
 36 33  1  0  0  0  0
M  END
>  <MODEL>
4

>  <REMARK>
 VINA RESULT:      -7.3      2.688      7.549
  Name = 
  8 active torsions:
  status: ('A' for Active; 'I' for Inactive)
    1  A    between atoms: C_10  and  C_16
    2  A    between atoms: C_10  and  C_22
    3  A    between atoms: C_15  and  C_17
    4  A    between atoms: C_16  and  C_34
    5  A    between atoms: C_17  and  C_25
    6  A    between atoms: C_17  and  C_31
    7  A    between atoms: O_21  and  C_25
    8  A    between atoms: O_21  and  C_34
                            x       y       z     vdW  Elec       q    Type
                         _______ _______ _______ _____ _____    ______ ____

>  <TORSDO>
F 8

$$$$
=
 OpenBabel11072408443D

 36 40  0  0  1  0  0  0  0  0999 V2000
  188.7480  174.1110  141.9100 C   0  0  2  0  0  3  0  0  0  0  0  0
  193.9650  176.1650  144.5880 C   0  0  0  0  0  0  0  0  0  0  0  0
  193.4990  177.0130  145.7440 C   0  0  1  0  0  3  0  0  0  0  0  0
  192.1190  176.6200  146.1950 C   0  0  0  0  0  3  0  0  0  0  0  0
  194.9930  175.4390  144.6780 O   0  0  0  0  0  0  0  0  0  0  0  0
  191.1250  176.6030  145.3440 C   0  0  0  0  0  0  0  0  0  0  0  0
  189.4490  175.3270  144.0540 C   0  0  2  0  0  3  0  0  0  0  0  0
  193.2520  175.1500  142.3930 C   0  0  0  0  0  3  0  0  0  0  0  0
  190.3190  174.0720  143.9940 C   0  0  0  0  0  2  0  0  0  0  0  0
  190.9350  175.4420  142.0110 O   0  0  0  0  0  0  0  0  0  0  0  0
  193.1680  176.1470  143.4040 N   0  0  0  0  0  2  0  0  0  0  0  0
  189.8920  174.7440  142.7060 C   0  0  1  0  0  0  0  0  0  0  0  0
  190.2100  176.5720  144.4090 C   0  0  0  0  0  3  0  0  0  0  0  0
  194.4220  176.9240  146.8650 N   0  0  0  0  0  1  0  0  0  0  0  0
  192.1620  174.8380  141.7010 C   0  0  0  0  0  0  0  0  0  0  0  0
  192.2540  173.8130  140.6280 C   0  0  0  0  0  1  0  0  0  0  0  0
  189.3940  172.0860  140.5690 O   0  0  0  0  0  0  0  0  0  0  0  0
  188.9140  172.6310  141.7550 C   0  0  0  0  0  0  0  0  0  0  0  0
  188.6290  171.8700  142.7160 O   0  0  0  0  0  1  0  0  0  0  0  0
  188.5550  174.7980  140.5620 C   0  0  0  0  0  2  0  0  0  0  0  0
  187.3300  175.5180  140.5530 O   0  0  0  0  0  0  0  0  0  0  0  0
  186.7600  177.4460  139.4150 O   0  0  0  0  0  0  0  0  0  0  0  0
  187.2890  176.9060  140.4240 C   0  0  0  0  0  0  0  0  0  0  0  0
  187.8870  177.7590  141.4860 C   0  0  0  0  0  2  0  0  0  0  0  0
  186.8070  178.6000  142.1410 C   0  0  0  0  0  2  0  0  0  0  0  0
  185.9500  177.3170  148.5330 O   0  0  0  0  0  1  0  0  0  0  0  0
  186.8460  178.0280  145.0270 C   0  0  0  0  0  2  0  0  0  0  0  0
  185.6290  177.3950  147.1790 C   0  0  1  0  0  3  0  0  0  0  0  0
  184.0230  178.6760  145.7690 C   0  0  0  0  0  2  0  0  0  0  0  0
  184.6350  178.8680  144.4010 C   0  0  1  0  0  3  0  0  0  0  0  0
  185.0970  178.7880  146.8700 C   0  0  2  0  0  3  0  0  0  0  0  0
  185.5910  177.7700  144.2030 C   0  0  1  0  0  3  0  0  0  0  0  0
  185.7010  177.7030  142.6930 C   0  0  1  0  0  3  0  0  0  0  0  0
  186.5490  178.3920  146.5050 C   0  0  2  0  0  3  0  0  0  0  0  0
  183.6960  178.6310  143.2500 C   0  0  0  0  0  2  0  0  0  0  0  0
  184.4510  178.1150  142.1690 O   0  0  0  0  0  0  0  0  0  0  0  0
  1 20  1  6  0  0  0
  2  5  2  0  0  0  0
  2  3  1  0  0  0  0
  3  4  1  0  0  0  0
  3 14  1  1  0  0  0
  6  4  2  0  0  0  0
  7  9  1  1  0  0  0
  7 13  1  0  0  0  0
  8 11  1  0  0  0  0
 10 12  1  0  0  0  0
 11  2  1  0  0  0  0
 12  1  1  6  0  0  0
 12  9  1  0  0  0  0
 12  7  1  0  0  0  0
 13  6  2  0  0  0  0
 15 10  1  0  0  0  0
 15  8  2  0  0  0  0
 16 15  1  0  0  0  0
 17 18  2  0  0  0  0
 18  1  1  0  0  0  0
 18 19  1  0  0  0  0
 21 20  1  0  0  0  0
 22 23  2  0  0  0  0
 23 21  1  0  0  0  0
 23 24  1  0  0  0  0
 24 25  1  0  0  0  0
 28 26  1  1  0  0  0
 30 35  1  6  0  0  0
 30 29  1  0  0  0  0
 31 29  1  6  0  0  0
 31 28  1  0  0  0  0
 32 30  1  0  0  0  0
 32 27  1  1  0  0  0
 33 25  1  6  0  0  0
 33 32  1  0  0  0  0
 34 27  1  6  0  0  0
 34 31  1  0  0  0  0
 34 28  1  0  0  0  0
 36 33  1  0  0  0  0
 36 35  1  0  0  0  0
M  END
>  <MODEL>
5

>  <REMARK>
 VINA RESULT:      -7.3      1.879      2.643
  Name = 
  8 active torsions:
  status: ('A' for Active; 'I' for Inactive)
    1  A    between atoms: C_10  and  C_16
    2  A    between atoms: C_10  and  C_22
    3  A    between atoms: C_15  and  C_17
    4  A    between atoms: C_16  and  C_34
    5  A    between atoms: C_17  and  C_25
    6  A    between atoms: C_17  and  C_31
    7  A    between atoms: O_21  and  C_25
    8  A    between atoms: O_21  and  C_34
                            x       y       z     vdW  Elec       q    Type
                         _______ _______ _______ _____ _____    ______ ____

>  <TORSDO>
F 8

$$$$
=
 OpenBabel11072408443D

 36 40  0  0  1  0  0  0  0  0999 V2000
  193.2490  176.1330  144.6550 C   0  0  2  0  0  3  0  0  0  0  0  0
  188.1610  175.6630  141.1190 C   0  0  0  0  0  0  0  0  0  0  0  0
  187.5080  177.0190  141.1960 C   0  0  1  0  0  3  0  0  0  0  0  0
  188.5040  178.0910  141.5430 C   0  0  0  0  0  3  0  0  0  0  0  0
  188.1580  174.9920  140.0500 O   0  0  0  0  0  0  0  0  0  0  0  0
  189.2390  177.9880  142.6210 C   0  0  0  0  0  0  0  0  0  0  0  0
  191.4550  177.6730  143.6660 C   0  0  2  0  0  3  0  0  0  0  0  0
  189.8090  174.1300  142.2550 C   0  0  0  0  0  3  0  0  0  0  0  0
  191.9970  176.8670  142.4860 C   0  0  0  0  0  2  0  0  0  0  0  0
  190.9380  175.2250  144.0240 O   0  0  0  0  0  0  0  0  0  0  0  0
  188.8510  175.1830  142.2720 N   0  0  0  0  0  2  0  0  0  0  0  0
  191.9440  176.2330  143.8600 C   0  0  1  0  0  0  0  0  0  0  0  0
  189.9570  177.7710  143.6940 C   0  0  0  0  0  3  0  0  0  0  0  0
  186.8460  177.3550  139.9460 N   0  0  0  0  0  1  0  0  0  0  0  0
  190.8040  174.1480  143.1360 C   0  0  0  0  0  0  0  0  0  0  0  0
  191.7910  173.0360  143.1360 C   0  0  0  0  0  1  0  0  0  0  0  0
  195.1870  176.3640  143.0730 O   0  0  0  0  0  0  0  0  0  0  0  0
  194.3650  175.5500  143.8450 C   0  0  0  0  0  0  0  0  0  0  0  0
  194.5710  174.3100  143.8730 O   0  0  0  0  0  1  0  0  0  0  0  0
  193.0510  175.3770  145.9640 C   0  0  0  0  0  2  0  0  0  0  0  0
  192.1480  176.0840  146.8040 O   0  0  0  0  0  0  0  0  0  0  0  0
  191.1320  175.2310  148.6950 O   0  0  0  0  0  0  0  0  0  0  0  0
  191.0920  175.4480  147.4540 C   0  0  0  0  0  0  0  0  0  0  0  0
  189.9050  175.0100  146.6700 C   0  0  0  0  0  2  0  0  0  0  0  0
  188.6590  175.7020  147.1910 C   0  0  0  0  0  2  0  0  0  0  0  0
  184.4960  178.4260  142.8920 O   0  0  0  0  0  1  0  0  0  0  0  0
  186.8260  176.5560  145.0530 C   0  0  0  0  0  2  0  0  0  0  0  0
  185.4390  178.3720  143.9160 C   0  0  1  0  0  3  0  0  0  0  0  0
  185.5050  178.9050  146.3490 C   0  0  0  0  0  2  0  0  0  0  0  0
  186.5010  177.9830  147.0140 C   0  0  1  0  0  3  0  0  0  0  0  0
  184.7250  178.1640  145.2450 C   0  0  2  0  0  3  0  0  0  0  0  0
  187.4660  177.5810  145.9820 C   0  0  1  0  0  3  0  0  0  0  0  0
  188.6740  177.1790  146.8040 C   0  0  1  0  0  3  0  0  0  0  0  0
  185.4310  176.9860  144.5290 C   0  0  2  0  0  3  0  0  0  0  0  0
  187.4150  178.6510  148.0050 C   0  0  0  0  0  2  0  0  0  0  0  0
  188.6590  177.9750  147.9760 O   0  0  0  0  0  0  0  0  0  0  0  0
  1 20  1  1  0  0  0
  2  3  1  0  0  0  0
  2 11  1  0  0  0  0
  3 14  1  6  0  0  0
  3  4  1  0  0  0  0
  4  6  2  0  0  0  0
  5  2  2  0  0  0  0
  6 13  2  0  0  0  0
  7  9  1  6  0  0  0
  7 13  1  0  0  0  0
  7 12  1  0  0  0  0
  8 11  1  0  0  0  0
  8 15  2  0  0  0  0
  9 12  1  0  0  0  0
 12 10  1  0  0  0  0
 12  1  1  1  0  0  0
 15 16  1  0  0  0  0
 15 10  1  0  0  0  0
 17 18  2  0  0  0  0
 18 19  1  0  0  0  0
 18  1  1  0  0  0  0
 20 21  1  0  0  0  0
 21 23  1  0  0  0  0
 23 22  2  0  0  0  0
 24 25  1  0  0  0  0
 24 23  1  0  0  0  0
 28 26  1  6  0  0  0
 28 34  1  0  0  0  0
 28 31  1  0  0  0  0
 30 29  1  6  0  0  0
 30 35  1  0  0  0  0
 31 29  1  1  0  0  0
 32 27  1  1  0  0  0
 32 33  1  0  0  0  0
 32 30  1  0  0  0  0
 33 25  1  1  0  0  0
 33 36  1  0  0  0  0
 34 27  1  1  0  0  0
 34 31  1  0  0  0  0
 36 35  1  0  0  0  0
M  END
>  <MODEL>
6

>  <REMARK>
 VINA RESULT:      -7.1      2.456      5.331
  Name = 
  8 active torsions:
  status: ('A' for Active; 'I' for Inactive)
    1  A    between atoms: C_10  and  C_16
    2  A    between atoms: C_10  and  C_22
    3  A    between atoms: C_15  and  C_17
    4  A    between atoms: C_16  and  C_34
    5  A    between atoms: C_17  and  C_25
    6  A    between atoms: C_17  and  C_31
    7  A    between atoms: O_21  and  C_25
    8  A    between atoms: O_21  and  C_34
                            x       y       z     vdW  Elec       q    Type
                         _______ _______ _______ _____ _____    ______ ____

>  <TORSDO>
F 8

$$$$
=
 OpenBabel11072408443D

 36 40  0  0  1  0  0  0  0  0999 V2000
  190.1800  175.7560  145.0180 C   0  0  2  0  0  3  0  0  0  0  0  0
  185.1060  178.5210  142.7360 C   0  0  0  0  0  0  0  0  0  0  0  0
  185.3430  178.5990  141.2490 C   0  0  1  0  0  3  0  0  0  0  0  0
  186.3170  177.5500  140.7900 C   0  0  0  0  0  3  0  0  0  0  0  0
  183.9580  178.2910  143.2070 O   0  0  0  0  0  0  0  0  0  0  0  0
  187.5040  177.4650  141.3340 C   0  0  0  0  0  0  0  0  0  0  0  0
  189.1210  176.2280  142.7330 C   0  0  2  0  0  3  0  0  0  0  0  0
  186.2470  178.2320  144.9650 C   0  0  0  0  0  3  0  0  0  0  0  0
  188.0270  175.5510  143.5580 C   0  0  0  0  0  2  0  0  0  0  0  0
  188.5380  177.6970  144.7060 O   0  0  0  0  0  0  0  0  0  0  0  0
  186.2330  178.6420  143.6020 N   0  0  0  0  0  2  0  0  0  0  0  0
  189.0430  176.4350  144.2510 C   0  0  1  0  0  0  0  0  0  0  0  0
  188.6460  177.4320  141.9730 C   0  0  0  0  0  3  0  0  0  0  0  0
  184.0960  178.4640  140.5110 N   0  0  0  0  0  1  0  0  0  0  0  0
  187.3860  177.8020  145.4980 C   0  0  0  0  0  0  0  0  0  0  0  0
  187.4070  177.3960  146.9280 C   0  0  0  0  0  1  0  0  0  0  0  0
  189.1880  174.8200  147.1290 O   0  0  0  0  0  1  0  0  0  0  0  0
  189.6980  174.6090  145.8520 C   0  0  0  0  0  0  0  0  0  0  0  0
  189.7430  173.4410  145.3880 O   0  0  0  0  0  0  0  0  0  0  0  0
  190.9740  176.7590  145.8480 C   0  0  0  0  0  2  0  0  0  0  0  0
  192.1320  176.1380  146.3890 O   0  0  0  0  0  0  0  0  0  0  0  0
  194.1390  177.1660  146.8870 O   0  0  0  0  0  0  0  0  0  0  0  0
  193.4190  176.5530  146.0530 C   0  0  0  0  0  0  0  0  0  0  0  0
  193.9460  176.2800  144.6890 C   0  0  0  0  0  2  0  0  0  0  0  0
  195.0720  175.2650  144.7640 C   0  0  0  0  0  2  0  0  0  0  0  0
  197.6260  169.2670  145.6200 O   0  0  0  0  0  1  0  0  0  0  0  0
  196.5690  172.7820  145.2660 C   0  0  0  0  0  2  0  0  0  0  0  0
  196.7540  170.2400  145.1360 C   0  0  1  0  0  3  0  0  0  0  0  0
  194.3380  170.7940  145.3880 C   0  0  0  0  0  2  0  0  0  0  0  0
  194.1720  172.2890  145.2400 C   0  0  1  0  0  3  0  0  0  0  0  0
  195.6370  170.4600  146.1470 C   0  0  2  0  0  3  0  0  0  0  0  0
  195.2980  172.7650  144.4250 C   0  0  1  0  0  3  0  0  0  0  0  0
  194.7660  174.0690  143.8650 C   0  0  1  0  0  3  0  0  0  0  0  0
  196.8160  171.4580  146.0350 C   0  0  2  0  0  3  0  0  0  0  0  0
  193.0100  172.7130  144.3840 C   0  0  0  0  0  2  0  0  0  0  0  0
  193.3640  173.9210  143.7350 O   0  0  0  0  0  0  0  0  0  0  0  0
  1 20  1  1  0  0  0
  1 18  1  0  0  0  0
  2  5  2  0  0  0  0
  2 11  1  0  0  0  0
  3 14  1  6  0  0  0
  3  2  1  0  0  0  0
  4  3  1  0  0  0  0
  4  6  2  0  0  0  0
  6 13  2  0  0  0  0
  7 13  1  6  0  0  0
  7  9  1  0  0  0  0
  7 12  1  0  0  0  0
  8 15  2  0  0  0  0
  9 12  1  0  0  0  0
 10 15  1  0  0  0  0
 11  8  1  0  0  0  0
 12 10  1  0  0  0  0
 12  1  1  1  0  0  0
 15 16  1  0  0  0  0
 18 17  1  0  0  0  0
 19 18  2  0  0  0  0
 20 21  1  0  0  0  0
 23 21  1  0  0  0  0
 23 22  2  0  0  0  0
 24 25  1  0  0  0  0
 24 23  1  0  0  0  0
 28 26  1  1  0  0  0
 28 34  1  0  0  0  0
 28 31  1  0  0  0  0
 30 35  1  6  0  0  0
 30 29  1  0  0  0  0
 31 29  1  6  0  0  0
 32 30  1  0  0  0  0
 32 27  1  1  0  0  0
 33 32  1  0  0  0  0
 33 25  1  1  0  0  0
 34 27  1  6  0  0  0
 34 31  1  0  0  0  0
 36 33  1  0  0  0  0
 36 35  1  0  0  0  0
M  END
>  <MODEL>
7

>  <REMARK>
 VINA RESULT:      -7.1      3.430      8.712
  Name = 
  8 active torsions:
  status: ('A' for Active; 'I' for Inactive)
    1  A    between atoms: C_10  and  C_16
    2  A    between atoms: C_10  and  C_22
    3  A    between atoms: C_15  and  C_17
    4  A    between atoms: C_16  and  C_34
    5  A    between atoms: C_17  and  C_25
    6  A    between atoms: C_17  and  C_31
    7  A    between atoms: O_21  and  C_25
    8  A    between atoms: O_21  and  C_34
                            x       y       z     vdW  Elec       q    Type
                         _______ _______ _______ _____ _____    ______ ____

>  <TORSDO>
F 8

$$$$
=
 OpenBabel11072408443D

 36 40  0  0  1  0  0  0  0  0999 V2000
  188.4360  174.4530  142.2010 C   0  0  2  0  0  3  0  0  0  0  0  0
  194.4140  173.5020  143.6060 C   0  0  0  0  0  0  0  0  0  0  0  0
  194.5280  173.8480  145.0690 C   0  0  1  0  0  3  0  0  0  0  0  0
  193.2050  173.7180  145.7710 C   0  0  0  0  0  3  0  0  0  0  0  0
  195.0670  172.5470  143.1040 O   0  0  0  0  0  0  0  0  0  0  0  0
  192.1560  174.3670  145.3330 C   0  0  0  0  0  0  0  0  0  0  0  0
  189.9170  174.3390  144.2890 C   0  0  2  0  0  3  0  0  0  0  0  0
  192.9930  173.8130  141.5470 C   0  0  0  0  0  3  0  0  0  0  0  0
  190.1930  173.0460  143.5220 C   0  0  0  0  0  2  0  0  0  0  0  0
  190.9540  174.9030  142.0530 O   0  0  0  0  0  0  0  0  0  0  0  0
  193.4860  174.2400  142.8110 N   0  0  0  0  0  2  0  0  0  0  0  0
  189.8550  174.3080  142.7570 C   0  0  1  0  0  0  0  0  0  0  0  0
  191.1590  175.0180  144.7920 C   0  0  0  0  0  3  0  0  0  0  0  0
  195.5160  173.0110  145.7300 N   0  0  0  0  0  1  0  0  0  0  0  0
  191.7680  174.1700  141.1770 C   0  0  0  0  0  0  0  0  0  0  0  0
  191.2600  173.7450  139.8460 C   0  0  0  0  0  1  0  0  0  0  0  0
  187.1510  172.2950  142.1260 O   0  0  0  0  0  1  0  0  0  0  0  0
  187.9750  173.2180  141.4910 C   0  0  0  0  0  0  0  0  0  0  0  0
  188.3260  173.0190  140.3000 O   0  0  0  0  0  0  0  0  0  0  0  0
  188.3030  175.6910  141.3200 C   0  0  0  0  0  2  0  0  0  0  0  0
  187.0530  176.3240  141.5550 O   0  0  0  0  0  0  0  0  0  0  0  0
  187.0280  177.5140  139.5750 O   0  0  0  0  0  0  0  0  0  0  0  0
  186.5830  177.3560  140.7430 C   0  0  0  0  0  0  0  0  0  0  0  0
  185.5500  178.2890  141.2690 C   0  0  0  0  0  2  0  0  0  0  0  0
  185.9100  178.7170  142.6800 C   0  0  0  0  0  2  0  0  0  0  0  0
  188.8590  175.4880  147.5900 O   0  0  0  0  0  1  0  0  0  0  0  0
  187.5460  177.2060  144.6030 C   0  0  0  0  0  2  0  0  0  0  0  0
  187.8140  176.0620  146.8690 C   0  0  1  0  0  3  0  0  0  0  0  0
  186.2250  177.9560  147.1780 C   0  0  0  0  0  2  0  0  0  0  0  0
  185.8700  178.5100  145.8180 C   0  0  1  0  0  3  0  0  0  0  0  0
  187.7080  177.5380  147.2290 C   0  0  2  0  0  3  0  0  0  0  0  0
  186.0580  177.4200  144.8500 C   0  0  1  0  0  3  0  0  0  0  0  0
  185.1720  177.8510  143.6990 C   0  0  1  0  0  3  0  0  0  0  0  0
  188.3770  177.0890  145.9070 C   0  0  2  0  0  3  0  0  0  0  0  0
  184.4090  178.8090  145.6200 C   0  0  0  0  0  2  0  0  0  0  0  0
  184.0980  178.5870  144.2560 O   0  0  0  0  0  0  0  0  0  0  0  0
  1 20  1  6  0  0  0
  2  3  1  0  0  0  0
  3 14  1  1  0  0  0
  3  4  1  0  0  0  0
  5  2  2  0  0  0  0
  6  4  2  0  0  0  0
  7  9  1  6  0  0  0
  7 13  1  0  0  0  0
  8 11  1  0  0  0  0
 10 12  1  0  0  0  0
 11  2  1  0  0  0  0
 12  1  1  6  0  0  0
 12  9  1  0  0  0  0
 12  7  1  0  0  0  0
 13  6  2  0  0  0  0
 15  8  2  0  0  0  0
 15 10  1  0  0  0  0
 16 15  1  0  0  0  0
 18 17  1  0  0  0  0
 18  1  1  0  0  0  0
 19 18  2  0  0  0  0
 20 21  1  0  0  0  0
 22 23  2  0  0  0  0
 23 24  1  0  0  0  0
 23 21  1  0  0  0  0
 24 25  1  0  0  0  0
 28 31  1  0  0  0  0
 28 26  1  1  0  0  0
 30 35  1  1  0  0  0
 30 29  1  0  0  0  0
 31 29  1  6  0  0  0
 32 27  1  6  0  0  0
 32 30  1  0  0  0  0
 33 25  1  6  0  0  0
 33 36  1  0  0  0  0
 33 32  1  0  0  0  0
 34 27  1  6  0  0  0
 34 28  1  0  0  0  0
 34 31  1  0  0  0  0
 36 35  1  0  0  0  0
M  END
>  <MODEL>
8

>  <REMARK>
 VINA RESULT:      -7.1      2.275      3.721
  Name = 
  8 active torsions:
  status: ('A' for Active; 'I' for Inactive)
    1  A    between atoms: C_10  and  C_16
    2  A    between atoms: C_10  and  C_22
    3  A    between atoms: C_15  and  C_17
    4  A    between atoms: C_16  and  C_34
    5  A    between atoms: C_17  and  C_25
    6  A    between atoms: C_17  and  C_31
    7  A    between atoms: O_21  and  C_25
    8  A    between atoms: O_21  and  C_34
                            x       y       z     vdW  Elec       q    Type
                         _______ _______ _______ _____ _____    ______ ____

>  <TORSDO>
F 8

$$$$
=
 OpenBabel11072408443D

 36 40  0  0  1  0  0  0  0  0999 V2000
  189.9330  175.9730  145.2010 C   0  0  2  0  0  3  0  0  0  0  0  0
  184.9070  178.4420  142.5070 C   0  0  0  0  0  0  0  0  0  0  0  0
  185.2580  178.5370  141.0440 C   0  0  1  0  0  3  0  0  0  0  0  0
  186.3260  177.5480  140.6690 C   0  0  0  0  0  3  0  0  0  0  0  0
  183.7400  178.1440  142.8840 O   0  0  0  0  0  0  0  0  0  0  0  0
  187.4680  177.5320  141.3080 C   0  0  0  0  0  0  0  0  0  0  0  0
  189.0370  176.3880  142.8360 C   0  0  2  0  0  3  0  0  0  0  0  0
  185.8780  178.2140  144.8220 C   0  0  0  0  0  3  0  0  0  0  0  0
  187.9200  175.6460  143.5710 C   0  0  0  0  0  2  0  0  0  0  0  0
  188.2100  177.8160  144.7520 O   0  0  0  0  0  0  0  0  0  0  0  0
  185.9500  178.6260  143.4620 N   0  0  0  0  0  2  0  0  0  0  0  0
  188.8230  176.5860  144.3420 C   0  0  1  0  0  0  0  0  0  0  0  0
  188.5550  177.5640  142.0360 C   0  0  0  0  0  3  0  0  0  0  0  0
  184.0860  178.3310  140.2080 N   0  0  0  0  0  1  0  0  0  0  0  0
  186.9930  177.8510  145.4470 C   0  0  0  0  0  0  0  0  0  0  0  0
  186.9220  177.4430  146.8750 C   0  0  0  0  0  1  0  0  0  0  0  0
  189.8010  173.4770  145.4620 O   0  0  0  0  0  0  0  0  0  0  0  0
  189.4760  174.7470  145.9280 C   0  0  0  0  0  0  0  0  0  0  0  0
  188.8000  174.8650  146.9820 O   0  0  0  0  0  1  0  0  0  0  0  0
  190.5360  177.0000  146.1540 C   0  0  0  0  0  2  0  0  0  0  0  0
  191.6130  176.4210  146.8760 O   0  0  0  0  0  0  0  0  0  0  0  0
  193.5610  176.9160  145.7360 O   0  0  0  0  0  0  0  0  0  0  0  0
  192.8050  176.0500  146.2540 C   0  0  0  0  0  0  0  0  0  0  0  0
  193.1850  174.6130  146.1930 C   0  0  0  0  0  2  0  0  0  0  0  0
  193.2560  174.1590  144.7470 C   0  0  0  0  0  2  0  0  0  0  0  0
  197.2340  175.7740  139.7660 O   0  0  0  0  0  1  0  0  0  0  0  0
  194.6810  174.9430  142.2950 C   0  0  0  0  0  2  0  0  0  0  0  0
  196.8530  175.2040  140.9790 C   0  0  1  0  0  3  0  0  0  0  0  0
  197.4020  175.5320  143.3870 C   0  0  0  0  0  2  0  0  0  0  0  0
  196.1890  175.1610  144.2100 C   0  0  1  0  0  3  0  0  0  0  0  0
  196.9830  176.2430  142.0850 C   0  0  2  0  0  3  0  0  0  0  0  0
  195.4080  174.2050  143.4120 C   0  0  1  0  0  3  0  0  0  0  0  0
  194.5980  173.4840  144.4700 C   0  0  1  0  0  3  0  0  0  0  0  0
  195.6000  175.8920  141.4830 C   0  0  2  0  0  3  0  0  0  0  0  0
  196.4830  174.3320  145.4290 C   0  0  0  0  0  2  0  0  0  0  0  0
  195.3770  173.4760  145.6530 O   0  0  0  0  0  0  0  0  0  0  0  0
  1 18  1  0  0  0  0
  1 20  1  1  0  0  0
  2  5  2  0  0  0  0
  2 11  1  0  0  0  0
  3 14  1  6  0  0  0
  3  2  1  0  0  0  0
  4  3  1  0  0  0  0
  4  6  2  0  0  0  0
  6 13  2  0  0  0  0
  7 13  1  6  0  0  0
  7  9  1  0  0  0  0
  7 12  1  0  0  0  0
  8 15  2  0  0  0  0
  9 12  1  0  0  0  0
 10 15  1  0  0  0  0
 11  8  1  0  0  0  0
 12 10  1  0  0  0  0
 12  1  1  1  0  0  0
 15 16  1  0  0  0  0
 17 18  2  0  0  0  0
 18 19  1  0  0  0  0
 20 21  1  0  0  0  0
 22 23  2  0  0  0  0
 23 21  1  0  0  0  0
 24 23  1  0  0  0  0
 25 24  1  0  0  0  0
 28 26  1  6  0  0  0
 28 34  1  0  0  0  0
 28 31  1  0  0  0  0
 30 29  1  6  0  0  0
 30 35  1  0  0  0  0
 31 29  1  1  0  0  0
 32 27  1  6  0  0  0
 32 30  1  0  0  0  0
 32 33  1  0  0  0  0
 33 25  1  1  0  0  0
 33 36  1  0  0  0  0
 34 31  1  0  0  0  0
 34 27  1  1  0  0  0
 35 36  1  0  0  0  0
M  END
>  <MODEL>
9

>  <REMARK>
 VINA RESULT:      -7.0      3.237      8.654
  Name = 
  8 active torsions:
  status: ('A' for Active; 'I' for Inactive)
    1  A    between atoms: C_10  and  C_16
    2  A    between atoms: C_10  and  C_22
    3  A    between atoms: C_15  and  C_17
    4  A    between atoms: C_16  and  C_34
    5  A    between atoms: C_17  and  C_25
    6  A    between atoms: C_17  and  C_31
    7  A    between atoms: O_21  and  C_25
    8  A    between atoms: O_21  and  C_34
                            x       y       z     vdW  Elec       q    Type
                         _______ _______ _______ _____ _____    ______ ____

>  <TORSDO>
F 8

$$$$
