=
 OpenBabel11072409253D

 39 43  0  0  1  0  0  0  0  0999 V2000
  188.3290  176.7930  145.0930 C   0  0  2  0  0  3  0  0  0  0  0  0
  185.9980  177.8190  145.7280 C   0  0  2  0  0  3  0  0  0  0  0  0
  185.9000  176.6020  146.6420 C   0  0  0  0  0  2  0  0  0  0  0  0
  186.0310  177.3440  144.2880 C   0  0  2  0  0  3  0  0  0  0  0  0
  190.5810  175.3840  146.2080 C   0  0  0  0  0  2  0  0  0  0  0  0
  189.9320  177.4410  144.4600 S   0  0  0  0  0  0  0  0  0  0  0  0
  187.2940  177.9150  144.9040 C   0  0  2  0  0  3  0  0  0  0  0  0
  189.3890  175.6510  146.9930 N   0  0  0  0  0  0  0  0  0  0  0  0
  187.1730  176.3430  147.2920 N   0  0  0  0  0  2  0  0  0  0  0  0
  191.1130  176.6820  145.6340 C   0  0  2  0  0  3  0  0  0  0  0  0
  188.3640  176.2870  146.5170 C   0  0  0  0  0  0  0  0  0  0  0  0
  192.6660  175.9940  143.6770 C   0  0  0  0  0  0  0  0  0  0  0  0
  192.4270  176.4620  144.9500 C   0  0  0  0  0  0  0  0  0  0  0  0
  193.9520  176.0470  143.4440 O   0  0  0  0  0  0  0  0  0  0  0  0
  193.6720  176.8080  145.4380 C   0  0  0  0  0  3  0  0  0  0  0  0
  194.5840  176.5280  144.4790 N   0  0  0  0  0  0  0  0  0  0  0  0
  191.6830  175.5290  142.7550 N   0  0  0  0  0  2  0  0  0  0  0  0
  191.4880  173.0850  143.7510 O   0  0  0  0  0  0  0  0  0  0  0  0
  192.4700  173.3240  141.5100 O   0  0  0  0  0  0  0  0  0  0  0  0
  191.4200  173.8430  142.4560 S   0  0  0  0  0  0  0  0  0  0  0  0
  188.6170  174.1800  142.4800 C   0  0  0  0  0  2  0  0  0  0  0  0
  189.8060  173.6110  141.7310 C   0  0  0  0  0  0  0  0  0  0  0  0
  188.9040  172.6790  142.5100 C   0  0  0  0  0  2  0  0  0  0  0  0
  189.7420  173.4190  140.3100 O   0  0  0  0  0  0  0  0  0  0  0  0
  187.9730  172.3750  139.2150 O   0  0  0  0  0  0  0  0  0  0  0  0
  188.5910  173.4380  139.5030 C   0  0  0  0  0  0  0  0  0  0  0  0
  188.1200  174.6490  138.9920 O   0  0  0  0  0  0  0  0  0  0  0  0
  187.8010  174.7980  137.6190 C   0  0  0  0  0  1  0  0  0  0  0  0
  185.3590  178.3940  143.3950 C   0  0  1  0  0  3  0  0  0  0  0  0
  185.9540  179.6750  143.4460 O   0  0  0  0  0  0  0  0  0  0  0  0
  185.1150  180.4730  144.0830 O   0  0  0  0  0  1  0  0  0  0  0  0
  185.0840  177.9180  141.9600 C   0  0  1  0  0  3  0  0  0  0  0  0
  182.8620  178.5030  142.6270 O   0  0  0  0  0  1  0  0  0  0  0  0
  183.6440  178.1580  141.5240 C   0  0  0  0  0  2  0  0  0  0  0  0
  185.9600  178.5730  141.0780 O   0  0  0  0  0  0  0  0  0  0  0  0
  186.9210  177.5750  139.2370 F   0  0  0  0  0  0  0  0  0  0  0  0
  188.1840  177.9750  141.0880 F   0  0  0  0  0  0  0  0  0  0  0  0
  186.9150  177.6440  140.6240 C   0  0  0  0  0  0  0  0  0  0  0  0
  186.5800  176.3980  141.1210 F   0  0  0  0  0  0  0  0  0  0  0  0
  1  6  1  1  0  0  0
  1 11  1  0  0  0  0
  2  3  1  1  0  0  0
  3  9  1  0  0  0  0
  4 29  1  6  0  0  0
  4  7  1  0  0  0  0
  4  2  1  0  0  0  0
  5  8  1  0  0  0  0
  6 10  1  0  0  0  0
  7  1  1  0  0  0  0
  7  2  1  0  0  0  0
 10  5  1  0  0  0  0
 11  8  2  0  0  0  0
 11  9  1  0  0  0  0
 12 13  2  0  0  0  0
 13 15  1  0  0  0  0
 13 10  1  0  0  0  0
 14 12  1  0  0  0  0
 14 16  1  0  0  0  0
 16 15  2  0  0  0  0
 17 12  1  0  0  0  0
 19 20  2  0  0  0  0
 20 17  1  0  0  0  0
 20 18  2  0  0  0  0
 21 23  1  0  0  0  0
 22 20  1  0  0  0  0
 22 21  1  0  0  0  0
 22 23  1  0  0  0  0
 24 22  1  0  0  0  0
 25 26  2  0  0  0  0
 26 24  1  0  0  0  0
 27 26  1  0  0  0  0
 28 27  1  0  0  0  0
 29 30  1  0  0  0  0
 30 31  1  0  0  0  0
 32 29  1  0  0  0  0
 34 32  1  0  0  0  0
 34 33  1  0  0  0  0
 35 32  1  0  0  0  0
 36 38  1  0  0  0  0
 38 35  1  0  0  0  0
 38 37  1  0  0  0  0
 38 39  1  0  0  0  0
M  END
>  <MODEL>
1

>  <REMARK>
 VINA RESULT:      -6.9      0.000      0.000
  Name = 
  13 active torsions:
  status: ('A' for Active; 'I' for Inactive)
    1  A    between atoms: O_1  and  C_7
    2  A    between atoms: C_7  and  O_17
    3  A    between atoms: C_10  and  N_16
    4  A    between atoms: C_12  and  C_19
    5  A    between atoms: C_12  and  C_22
    6  A    between atoms: C_12  and  O_34
    7  A    between atoms: O_13  and  C_19
    8  A    between atoms: C_15  and  O_17
    9  A    between atoms: C_15  and  S_33
   10  A    between atoms: N_16  and  S_33
   11  A    between atoms: C_18  and  C_19
   12  A    between atoms: C_23  and  C_35
   13  A    between atoms: C_32  and  O_34
                            x       y       z     vdW  Elec       q    Type
                         _______ _______ _______ _____ _____    ______ ____

>  <TORSDO>
F 13

$$$$
=
 OpenBabel11072409253D

 39 43  0  0  1  0  0  0  0  0999 V2000
  191.1420  176.4040  144.9640 C   0  0  2  0  0  3  0  0  0  0  0  0
  189.0740  177.7470  145.8640 C   0  0  2  0  0  3  0  0  0  0  0  0
  189.2380  176.8520  147.0880 C   0  0  0  0  0  2  0  0  0  0  0  0
  188.7090  176.8820  144.6730 C   0  0  2  0  0  3  0  0  0  0  0  0
  193.6200  175.1980  145.8050 C   0  0  0  0  0  2  0  0  0  0  0  0
  192.5050  176.7170  143.7670 S   0  0  0  0  0  0  0  0  0  0  0  0
  190.0910  177.5030  144.7350 C   0  0  2  0  0  3  0  0  0  0  0  0
  192.6910  175.7710  146.7640 N   0  0  0  0  0  0  0  0  0  0  0  0
  190.6420  176.6900  147.4230 N   0  0  0  0  0  2  0  0  0  0  0  0
  193.9670  176.2340  144.7540 C   0  0  2  0  0  3  0  0  0  0  0  0
  191.5720  176.3220  146.4110 C   0  0  0  0  0  0  0  0  0  0  0  0
  195.0810  174.5470  143.1320 C   0  0  0  0  0  0  0  0  0  0  0  0
  195.0410  175.7260  143.8420 C   0  0  0  0  0  0  0  0  0  0  0  0
  196.1540  174.5410  142.3850 O   0  0  0  0  0  0  0  0  0  0  0  0
  196.1680  176.4170  143.4400 C   0  0  0  0  0  3  0  0  0  0  0  0
  196.8290  175.6450  142.5470 N   0  0  0  0  0  0  0  0  0  0  0  0
  194.1150  173.4990  143.1900 N   0  0  0  0  0  2  0  0  0  0  0  0
  193.0790  172.0380  141.2420 O   0  0  0  0  0  0  0  0  0  0  0  0
  192.9120  174.4830  141.0430 O   0  0  0  0  0  0  0  0  0  0  0  0
  192.8720  173.3210  141.9980 S   0  0  0  0  0  0  0  0  0  0  0  0
  191.2290  172.7440  144.2200 C   0  0  0  0  0  2  0  0  0  0  0  0
  191.2780  173.2710  142.8000 C   0  0  0  0  0  0  0  0  0  0  0  0
  190.7560  171.8750  143.0560 C   0  0  0  0  0  2  0  0  0  0  0  0
  190.2740  174.1830  142.3300 O   0  0  0  0  0  0  0  0  0  0  0  0
  187.9900  173.8230  142.0720 O   0  0  0  0  0  0  0  0  0  0  0  0
  189.1410  173.8710  141.5580 C   0  0  0  0  0  0  0  0  0  0  0  0
  189.2830  173.5940  140.1970 O   0  0  0  0  0  0  0  0  0  0  0  0
  188.3200  172.8250  139.4950 C   0  0  0  0  0  1  0  0  0  0  0  0
  187.8120  177.6830  143.7220 C   0  0  1  0  0  3  0  0  0  0  0  0
  187.5120  177.0280  142.5060 O   0  0  0  0  0  0  0  0  0  0  0  0
  188.3430  177.4980  141.5920 O   0  0  0  0  0  1  0  0  0  0  0  0
  186.5730  178.2980  144.3920 C   0  0  1  0  0  3  0  0  0  0  0  0
  185.4040  180.3700  144.1340 O   0  0  0  0  0  1  0  0  0  0  0  0
  185.7910  179.2120  143.4570 C   0  0  0  0  0  2  0  0  0  0  0  0
  185.7380  177.2690  144.8560 O   0  0  0  0  0  0  0  0  0  0  0  0
  185.8610  176.4490  147.0050 F   0  0  0  0  0  0  0  0  0  0  0  0
  186.0400  178.6890  146.6440 F   0  0  0  0  0  0  0  0  0  0  0  0
  185.4440  177.5090  146.2120 C   0  0  0  0  0  0  0  0  0  0  0  0
  184.0740  177.6390  146.3440 F   0  0  0  0  0  0  0  0  0  0  0  0
  1  6  1  6  0  0  0
  1 11  1  0  0  0  0
  2  3  1  1  0  0  0
  3  9  1  0  0  0  0
  4 29  1  6  0  0  0
  4  7  1  0  0  0  0
  4  2  1  0  0  0  0
  5  8  1  0  0  0  0
  6 10  1  0  0  0  0
  7  1  1  0  0  0  0
  7  2  1  0  0  0  0
 10  5  1  0  0  0  0
 11  8  2  0  0  0  0
 11  9  1  0  0  0  0
 12 17  1  0  0  0  0
 12 13  2  0  0  0  0
 13 10  1  0  0  0  0
 14 16  1  0  0  0  0
 14 12  1  0  0  0  0
 15 13  1  0  0  0  0
 16 15  2  0  0  0  0
 18 20  2  0  0  0  0
 19 20  2  0  0  0  0
 20 22  1  0  0  0  0
 20 17  1  0  0  0  0
 22 23  1  0  0  0  0
 22 21  1  0  0  0  0
 23 21  1  0  0  0  0
 24 22  1  0  0  0  0
 26 25  2  0  0  0  0
 26 24  1  0  0  0  0
 27 26  1  0  0  0  0
 28 27  1  0  0  0  0
 29 32  1  0  0  0  0
 30 29  1  0  0  0  0
 31 30  1  0  0  0  0
 32 35  1  0  0  0  0
 34 33  1  0  0  0  0
 34 32  1  0  0  0  0
 35 38  1  0  0  0  0
 38 39  1  0  0  0  0
 38 37  1  0  0  0  0
 38 36  1  0  0  0  0
M  END
>  <MODEL>
2

>  <REMARK>
 VINA RESULT:      -6.6      2.618      3.510
  Name = 
  13 active torsions:
  status: ('A' for Active; 'I' for Inactive)
    1  A    between atoms: O_1  and  C_7
    2  A    between atoms: C_7  and  O_17
    3  A    between atoms: C_10  and  N_16
    4  A    between atoms: C_12  and  C_19
    5  A    between atoms: C_12  and  C_22
    6  A    between atoms: C_12  and  O_34
    7  A    between atoms: O_13  and  C_19
    8  A    between atoms: C_15  and  O_17
    9  A    between atoms: C_15  and  S_33
   10  A    between atoms: N_16  and  S_33
   11  A    between atoms: C_18  and  C_19
   12  A    between atoms: C_23  and  C_35
   13  A    between atoms: C_32  and  O_34
                            x       y       z     vdW  Elec       q    Type
                         _______ _______ _______ _____ _____    ______ ____

>  <TORSDO>
F 13

$$$$
=
 OpenBabel11072409253D

 39 43  0  0  1  0  0  0  0  0999 V2000
  190.3310  175.2920  143.0880 C   0  0  2  0  0  3  0  0  0  0  0  0
  191.9440  174.0090  144.7130 C   0  0  2  0  0  3  0  0  0  0  0  0
  192.7840  175.2780  144.6100 C   0  0  0  0  0  2  0  0  0  0  0  0
  191.8840  173.3540  143.3460 C   0  0  2  0  0  3  0  0  0  0  0  0
  189.2900  177.9160  142.5080 C   0  0  0  0  0  2  0  0  0  0  0  0
  188.5310  175.2530  142.7060 S   0  0  0  0  0  0  0  0  0  0  0  0
  190.6390  174.0220  143.8990 C   0  0  2  0  0  3  0  0  0  0  0  0
  190.3240  177.7130  143.5080 N   0  0  0  0  0  0  0  0  0  0  0  0
  191.9390  176.4590  144.6460 N   0  0  0  0  0  2  0  0  0  0  0  0
  188.1020  177.0280  142.8200 C   0  0  2  0  0  3  0  0  0  0  0  0
  190.8060  176.5440  143.7910 C   0  0  0  0  0  0  0  0  0  0  0  0
  185.6320  177.5190  142.2070 C   0  0  0  0  0  0  0  0  0  0  0  0
  186.9600  177.3270  141.8980 C   0  0  0  0  0  0  0  0  0  0  0  0
  184.9890  177.8530  141.1180 O   0  0  0  0  0  0  0  0  0  0  0  0
  187.0470  177.5900  140.5450 C   0  0  0  0  0  3  0  0  0  0  0  0
  185.8070  177.9020  140.1030 N   0  0  0  0  0  0  0  0  0  0  0  0
  185.0420  177.3840  143.4990 N   0  0  0  0  0  2  0  0  0  0  0  0
  183.7180  178.9270  145.1920 O   0  0  0  0  0  0  0  0  0  0  0  0
  185.6730  179.8960  144.0600 O   0  0  0  0  0  0  0  0  0  0  0  0
  185.1030  178.6490  144.6800 S   0  0  0  0  0  0  0  0  0  0  0  0
  185.4580  177.4550  147.2130 C   0  0  0  0  0  2  0  0  0  0  0  0
  186.1350  178.1430  146.0450 C   0  0  0  0  0  0  0  0  0  0  0  0
  185.8960  178.9150  147.3230 C   0  0  0  0  0  2  0  0  0  0  0  0
  187.5230  177.9030  145.7690 O   0  0  0  0  0  0  0  0  0  0  0  0
  189.2910  177.6100  147.2540 O   0  0  0  0  0  0  0  0  0  0  0  0
  188.4080  177.1000  146.5100 C   0  0  0  0  0  0  0  0  0  0  0  0
  188.3280  175.7090  146.4170 O   0  0  0  0  0  0  0  0  0  0  0  0
  189.1840  174.8670  147.1700 C   0  0  0  0  0  1  0  0  0  0  0  0
  191.7870  171.8340  143.5190 C   0  0  1  0  0  3  0  0  0  0  0  0
  191.4240  171.1320  142.3470 O   0  0  0  0  0  0  0  0  0  0  0  0
  190.1290  170.8820  142.4230 O   0  0  0  0  0  1  0  0  0  0  0  0
  192.9840  171.2040  144.2470 C   0  0  1  0  0  3  0  0  0  0  0  0
  193.7920  169.0980  143.4490 O   0  0  0  0  0  1  0  0  0  0  0  0
  192.8890  169.6860  144.3350 C   0  0  0  0  0  2  0  0  0  0  0  0
  194.1710  171.5660  143.5890 O   0  0  0  0  0  0  0  0  0  0  0  0
  194.4780  172.1660  145.7920 F   0  0  0  0  0  0  0  0  0  0  0  0
  196.2140  171.2850  144.6130 F   0  0  0  0  0  0  0  0  0  0  0  0
  195.0730  172.0770  144.5410 C   0  0  0  0  0  0  0  0  0  0  0  0
  195.4490  173.3480  144.1470 F   0  0  0  0  0  0  0  0  0  0  0  0
  1  6  1  1  0  0  0
  1 11  1  0  0  0  0
  1  7  1  0  0  0  0
  2  3  1  6  0  0  0
  3  9  1  0  0  0  0
  4 29  1  1  0  0  0
  4  7  1  0  0  0  0
  4  2  1  0  0  0  0
  5 10  1  0  0  0  0
  5  8  1  0  0  0  0
  6 10  1  0  0  0  0
  7  2  1  0  0  0  0
  8 11  2  0  0  0  0
 11  9  1  0  0  0  0
 12 17  1  0  0  0  0
 13 12  2  0  0  0  0
 13 10  1  0  0  0  0
 14 12  1  0  0  0  0
 15 13  1  0  0  0  0
 16 15  2  0  0  0  0
 16 14  1  0  0  0  0
 17 20  1  0  0  0  0
 19 20  2  0  0  0  0
 20 18  2  0  0  0  0
 20 22  1  0  0  0  0
 21 23  1  0  0  0  0
 22 21  1  0  0  0  0
 22 23  1  0  0  0  0
 24 22  1  0  0  0  0
 24 26  1  0  0  0  0
 26 25  2  0  0  0  0
 27 26  1  0  0  0  0
 27 28  1  0  0  0  0
 29 32  1  0  0  0  0
 30 31  1  0  0  0  0
 30 29  1  0  0  0  0
 32 34  1  0  0  0  0
 33 34  1  0  0  0  0
 35 32  1  0  0  0  0
 35 38  1  0  0  0  0
 38 37  1  0  0  0  0
 38 36  1  0  0  0  0
 39 38  1  0  0  0  0
M  END
>  <MODEL>
3

>  <REMARK>
 VINA RESULT:      -6.6      4.135      8.573
  Name = 
  13 active torsions:
  status: ('A' for Active; 'I' for Inactive)
    1  A    between atoms: O_1  and  C_7
    2  A    between atoms: C_7  and  O_17
    3  A    between atoms: C_10  and  N_16
    4  A    between atoms: C_12  and  C_19
    5  A    between atoms: C_12  and  C_22
    6  A    between atoms: C_12  and  O_34
    7  A    between atoms: O_13  and  C_19
    8  A    between atoms: C_15  and  O_17
    9  A    between atoms: C_15  and  S_33
   10  A    between atoms: N_16  and  S_33
   11  A    between atoms: C_18  and  C_19
   12  A    between atoms: C_23  and  C_35
   13  A    between atoms: C_32  and  O_34
                            x       y       z     vdW  Elec       q    Type
                         _______ _______ _______ _____ _____    ______ ____

>  <TORSDO>
F 13

$$$$
=
 OpenBabel11072409253D

 39 43  0  0  1  0  0  0  0  0999 V2000
  189.9140  175.4590  144.2140 C   0  0  2  0  0  3  0  0  0  0  0  0
  188.9450  177.4670  145.5990 C   0  0  2  0  0  3  0  0  0  0  0  0
  189.1900  176.5460  146.7880 C   0  0  0  0  0  2  0  0  0  0  0  0
  187.8920  176.8390  144.7050 C   0  0  2  0  0  3  0  0  0  0  0  0
  191.9010  173.3750  144.3030 C   0  0  0  0  0  2  0  0  0  0  0  0
  190.7780  175.2590  142.6000 S   0  0  0  0  0  0  0  0  0  0  0  0
  189.3310  176.8830  144.2290 C   0  0  2  0  0  3  0  0  0  0  0  0
  191.6500  174.2340  145.4470 N   0  0  0  0  0  0  0  0  0  0  0  0
  190.4570  175.8490  146.6480 N   0  0  0  0  0  2  0  0  0  0  0  0
  192.2090  174.2270  143.0870 C   0  0  2  0  0  3  0  0  0  0  0  0
  190.7650  175.1810  145.4310 C   0  0  0  0  0  0  0  0  0  0  0  0
  193.8960  173.0640  141.5000 C   0  0  0  0  0  0  0  0  0  0  0  0
  192.6240  173.3710  141.9310 C   0  0  0  0  0  0  0  0  0  0  0  0
  193.8130  172.2070  140.5160 O   0  0  0  0  0  0  0  0  0  0  0  0
  191.7910  172.6130  141.1310 C   0  0  0  0  0  3  0  0  0  0  0  0
  192.5650  171.9170  140.2680 N   0  0  0  0  0  0  0  0  0  0  0  0
  195.1120  173.5860  142.0330 N   0  0  0  0  0  2  0  0  0  0  0  0
  197.3760  172.4040  142.7230 O   0  0  0  0  0  0  0  0  0  0  0  0
  195.2910  171.5020  143.6610 O   0  0  0  0  0  0  0  0  0  0  0  0
  196.0160  172.7570  143.2550 S   0  0  0  0  0  0  0  0  0  0  0  0
  197.6080  174.0070  145.2230 C   0  0  0  0  0  2  0  0  0  0  0  0
  196.2060  173.8160  144.6790 C   0  0  0  0  0  0  0  0  0  0  0  0
  196.6180  173.0910  145.9410 C   0  0  0  0  0  2  0  0  0  0  0  0
  195.2020  174.8190  144.8930 O   0  0  0  0  0  0  0  0  0  0  0  0
  195.8060  176.5970  143.5170 O   0  0  0  0  0  0  0  0  0  0  0  0
  195.3000  176.1910  144.6000 C   0  0  0  0  0  0  0  0  0  0  0  0
  194.8460  177.1330  145.5250 O   0  0  0  0  0  0  0  0  0  0  0  0
  194.0330  176.7580  146.6250 C   0  0  0  0  0  1  0  0  0  0  0  0
  187.0790  177.9480  144.0270 C   0  0  1  0  0  3  0  0  0  0  0  0
  186.4830  177.5730  142.8020 O   0  0  0  0  0  0  0  0  0  0  0  0
  186.1220  176.3060  142.9110 O   0  0  0  0  0  1  0  0  0  0  0  0
  186.1080  178.6810  144.9650 C   0  0  1  0  0  3  0  0  0  0  0  0
  183.8970  179.0700  144.1360 O   0  0  0  0  0  1  0  0  0  0  0  0
  185.1720  179.6280  144.2220 C   0  0  0  0  0  2  0  0  0  0  0  0
  185.3530  177.7380  145.6820 O   0  0  0  0  0  0  0  0  0  0  0  0
  184.2840  178.4670  147.5890 F   0  0  0  0  0  0  0  0  0  0  0  0
  185.9130  176.8840  147.7460 F   0  0  0  0  0  0  0  0  0  0  0  0
  185.4840  178.0130  147.0570 C   0  0  0  0  0  0  0  0  0  0  0  0
  186.4330  179.0070  147.2130 F   0  0  0  0  0  0  0  0  0  0  0  0
  1  6  1  6  0  0  0
  1  7  1  0  0  0  0
  1 11  1  0  0  0  0
  2  3  1  1  0  0  0
  4 29  1  6  0  0  0
  4  2  1  0  0  0  0
  5  8  1  0  0  0  0
  6 10  1  0  0  0  0
  7  4  1  0  0  0  0
  7  2  1  0  0  0  0
  9  3  1  0  0  0  0
 10  5  1  0  0  0  0
 11  8  2  0  0  0  0
 11  9  1  0  0  0  0
 12 13  2  0  0  0  0
 12 17  1  0  0  0  0
 13 10  1  0  0  0  0
 14 12  1  0  0  0  0
 15 13  1  0  0  0  0
 16 14  1  0  0  0  0
 16 15  2  0  0  0  0
 17 20  1  0  0  0  0
 18 20  2  0  0  0  0
 20 19  2  0  0  0  0
 20 22  1  0  0  0  0
 21 23  1  0  0  0  0
 22 24  1  0  0  0  0
 22 21  1  0  0  0  0
 22 23  1  0  0  0  0
 25 26  2  0  0  0  0
 26 24  1  0  0  0  0
 26 27  1  0  0  0  0
 27 28  1  0  0  0  0
 29 32  1  0  0  0  0
 30 31  1  0  0  0  0
 30 29  1  0  0  0  0
 32 35  1  0  0  0  0
 33 34  1  0  0  0  0
 34 32  1  0  0  0  0
 35 38  1  0  0  0  0
 38 39  1  0  0  0  0
 38 36  1  0  0  0  0
 38 37  1  0  0  0  0
M  END
>  <MODEL>
4

>  <REMARK>
 VINA RESULT:      -6.5      3.341      5.718
  Name = 
  13 active torsions:
  status: ('A' for Active; 'I' for Inactive)
    1  A    between atoms: O_1  and  C_7
    2  A    between atoms: C_7  and  O_17
    3  A    between atoms: C_10  and  N_16
    4  A    between atoms: C_12  and  C_19
    5  A    between atoms: C_12  and  C_22
    6  A    between atoms: C_12  and  O_34
    7  A    between atoms: O_13  and  C_19
    8  A    between atoms: C_15  and  O_17
    9  A    between atoms: C_15  and  S_33
   10  A    between atoms: N_16  and  S_33
   11  A    between atoms: C_18  and  C_19
   12  A    between atoms: C_23  and  C_35
   13  A    between atoms: C_32  and  O_34
                            x       y       z     vdW  Elec       q    Type
                         _______ _______ _______ _____ _____    ______ ____

>  <TORSDO>
F 13

$$$$
=
 OpenBabel11072409253D

 39 43  0  0  1  0  0  0  0  0999 V2000
  188.1590  176.0850  144.7050 C   0  0  2  0  0  3  0  0  0  0  0  0
  186.6150  177.9380  145.7410 C   0  0  2  0  0  3  0  0  0  0  0  0
  186.4920  176.9510  146.8970 C   0  0  0  0  0  2  0  0  0  0  0  0
  185.9960  177.3170  144.5030 C   0  0  2  0  0  3  0  0  0  0  0  0
  190.1360  174.1100  145.4040 C   0  0  0  0  0  2  0  0  0  0  0  0
  189.5500  176.0430  143.5000 S   0  0  0  0  0  0  0  0  0  0  0  0
  187.5040  177.4710  144.5750 C   0  0  2  0  0  3  0  0  0  0  0  0
  189.4340  174.8730  146.4200 N   0  0  0  0  0  0  0  0  0  0  0  0
  187.7750  176.3360  147.1880 N   0  0  0  0  0  2  0  0  0  0  0  0
  190.7890  175.0590  144.4180 C   0  0  2  0  0  3  0  0  0  0  0  0
  188.5430  175.7700  146.1320 C   0  0  0  0  0  0  0  0  0  0  0  0
  192.9430  173.8650  143.6110 C   0  0  0  0  0  0  0  0  0  0  0  0
  191.6500  174.3080  143.4490 C   0  0  0  0  0  0  0  0  0  0  0  0
  193.2850  173.1690  142.5580 O   0  0  0  0  0  0  0  0  0  0  0  0
  191.2560  173.8040  142.2250 C   0  0  0  0  0  3  0  0  0  0  0  0
  192.2980  173.1150  141.7060 N   0  0  0  0  0  0  0  0  0  0  0  0
  193.7810  174.1130  144.7380 N   0  0  0  0  0  2  0  0  0  0  0  0
  194.8870  175.8520  146.3980 O   0  0  0  0  0  0  0  0  0  0  0  0
  193.8530  176.7340  144.3490 O   0  0  0  0  0  0  0  0  0  0  0  0
  194.6480  175.5990  144.9360 S   0  0  0  0  0  0  0  0  0  0  0  0
  196.5670  176.5840  143.1150 C   0  0  0  0  0  2  0  0  0  0  0  0
  196.2220  175.4870  144.1020 C   0  0  0  0  0  0  0  0  0  0  0  0
  196.1190  175.2110  142.6180 C   0  0  0  0  0  2  0  0  0  0  0  0
  197.2630  174.7450  144.7540 O   0  0  0  0  0  0  0  0  0  0  0  0
  197.9390  172.6700  143.9470 O   0  0  0  0  0  0  0  0  0  0  0  0
  197.3740  173.3470  144.8500 C   0  0  0  0  0  0  0  0  0  0  0  0
  196.8390  172.6810  145.9550 O   0  0  0  0  0  0  0  0  0  0  0  0
  195.9200  171.6130  145.8000 C   0  0  0  0  0  1  0  0  0  0  0  0
  185.3950  178.4240  143.6300 C   0  0  1  0  0  3  0  0  0  0  0  0
  186.1040  179.6460  143.6600 O   0  0  0  0  0  0  0  0  0  0  0  0
  185.2670  180.5760  144.0860 O   0  0  0  0  0  1  0  0  0  0  0  0
  185.0330  177.9770  142.2050 C   0  0  1  0  0  3  0  0  0  0  0  0
  183.4160  178.2970  140.4700 O   0  0  0  0  0  1  0  0  0  0  0  0
  183.5740  178.2440  141.8550 C   0  0  0  0  0  2  0  0  0  0  0  0
  185.8670  178.6360  141.2860 O   0  0  0  0  0  0  0  0  0  0  0  0
  186.8410  177.6200  139.4620 F   0  0  0  0  0  0  0  0  0  0  0  0
  188.1120  178.1210  141.2830 F   0  0  0  0  0  0  0  0  0  0  0  0
  186.8510  177.7300  140.8460 C   0  0  0  0  0  0  0  0  0  0  0  0
  186.5690  176.4870  141.3830 F   0  0  0  0  0  0  0  0  0  0  0  0
  1  6  1  6  0  0  0
  1 11  1  0  0  0  0
  2  3  1  1  0  0  0
  3  9  1  0  0  0  0
  4 29  1  6  0  0  0
  4  7  1  0  0  0  0
  4  2  1  0  0  0  0
  5  8  1  0  0  0  0
  6 10  1  0  0  0  0
  7  1  1  0  0  0  0
  7  2  1  0  0  0  0
 10  5  1  0  0  0  0
 11  8  2  0  0  0  0
 11  9  1  0  0  0  0
 12 17  1  0  0  0  0
 13 12  2  0  0  0  0
 13 10  1  0  0  0  0
 14 12  1  0  0  0  0
 15 13  1  0  0  0  0
 16 15  2  0  0  0  0
 16 14  1  0  0  0  0
 17 20  1  0  0  0  0
 19 20  2  0  0  0  0
 20 18  2  0  0  0  0
 21 22  1  0  0  0  0
 22 24  1  0  0  0  0
 22 20  1  0  0  0  0
 23 21  1  0  0  0  0
 23 22  1  0  0  0  0
 24 26  1  0  0  0  0
 25 26  2  0  0  0  0
 26 27  1  0  0  0  0
 28 27  1  0  0  0  0
 29 30  1  0  0  0  0
 30 31  1  0  0  0  0
 32 29  1  0  0  0  0
 33 34  1  0  0  0  0
 34 32  1  0  0  0  0
 35 32  1  0  0  0  0
 36 38  1  0  0  0  0
 38 37  1  0  0  0  0
 38 35  1  0  0  0  0
 38 39  1  0  0  0  0
M  END
>  <MODEL>
5

>  <REMARK>
 VINA RESULT:      -6.5      2.476      4.866
  Name = 
  13 active torsions:
  status: ('A' for Active; 'I' for Inactive)
    1  A    between atoms: O_1  and  C_7
    2  A    between atoms: C_7  and  O_17
    3  A    between atoms: C_10  and  N_16
    4  A    between atoms: C_12  and  C_19
    5  A    between atoms: C_12  and  C_22
    6  A    between atoms: C_12  and  O_34
    7  A    between atoms: O_13  and  C_19
    8  A    between atoms: C_15  and  O_17
    9  A    between atoms: C_15  and  S_33
   10  A    between atoms: N_16  and  S_33
   11  A    between atoms: C_18  and  C_19
   12  A    between atoms: C_23  and  C_35
   13  A    between atoms: C_32  and  O_34
                            x       y       z     vdW  Elec       q    Type
                         _______ _______ _______ _____ _____    ______ ____

>  <TORSDO>
F 13

$$$$
=
 OpenBabel11072409253D

 39 43  0  0  1  0  0  0  0  0999 V2000
  191.2620  176.3890  144.8450 C   0  0  2  0  0  3  0  0  0  0  0  0
  189.1840  177.6140  145.8800 C   0  0  2  0  0  3  0  0  0  0  0  0
  189.3360  176.5770  146.9880 C   0  0  0  0  0  2  0  0  0  0  0  0
  188.8310  176.8990  144.5890 C   0  0  2  0  0  3  0  0  0  0  0  0
  193.7320  175.0900  145.5580 C   0  0  0  0  0  2  0  0  0  0  0  0
  192.6360  176.8450  143.7080 S   0  0  0  0  0  0  0  0  0  0  0  0
  190.2120  177.5080  144.7400 C   0  0  2  0  0  3  0  0  0  0  0  0
  192.7930  175.5420  146.5700 N   0  0  0  0  0  0  0  0  0  0  0  0
  190.7370  176.3750  147.3150 N   0  0  0  0  0  2  0  0  0  0  0  0
  194.0890  176.2450  144.6440 C   0  0  2  0  0  3  0  0  0  0  0  0
  191.6770  176.1330  146.2750 C   0  0  0  0  0  0  0  0  0  0  0  0
  195.1450  174.8850  142.7080 C   0  0  0  0  0  0  0  0  0  0  0  0
  195.1720  175.8510  143.6880 C   0  0  0  0  0  0  0  0  0  0  0  0
  196.2670  174.9340  142.0370 O   0  0  0  0  0  0  0  0  0  0  0  0
  196.3920  176.4800  143.5280 C   0  0  0  0  0  3  0  0  0  0  0  0
  197.0380  175.8770  142.5040 N   0  0  0  0  0  0  0  0  0  0  0  0
  194.0750  173.9770  142.4530 N   0  0  0  0  0  2  0  0  0  0  0  0
  194.1540  172.5190  140.2460 O   0  0  0  0  0  0  0  0  0  0  0  0
  193.6830  174.9210  140.0080 O   0  0  0  0  0  0  0  0  0  0  0  0
  193.4570  173.7010  140.8590 S   0  0  0  0  0  0  0  0  0  0  0  0
  191.2170  172.0640  140.3340 C   0  0  0  0  0  2  0  0  0  0  0  0
  191.7070  173.3600  140.9490 C   0  0  0  0  0  0  0  0  0  0  0  0
  190.9990  173.3940  139.6140 C   0  0  0  0  0  2  0  0  0  0  0  0
  190.9670  173.9850  142.0090 O   0  0  0  0  0  0  0  0  0  0  0  0
  190.8070  172.9940  144.1090 O   0  0  0  0  0  0  0  0  0  0  0  0
  190.2480  173.3430  143.0330 C   0  0  0  0  0  0  0  0  0  0  0  0
  188.8900  173.0660  142.8600 O   0  0  0  0  0  0  0  0  0  0  0  0
  188.0850  173.8330  141.9800 C   0  0  0  0  0  1  0  0  0  0  0  0
  187.9430  177.8100  143.7340 C   0  0  1  0  0  3  0  0  0  0  0  0
  187.7090  177.3380  142.4220 O   0  0  0  0  0  0  0  0  0  0  0  0
  188.5410  177.9780  141.6190 O   0  0  0  0  0  1  0  0  0  0  0  0
  186.6620  178.2840  144.4370 C   0  0  1  0  0  3  0  0  0  0  0  0
  185.4610  180.3230  144.0840 O   0  0  0  0  0  1  0  0  0  0  0  0
  185.7440  179.0800  143.5170 C   0  0  0  0  0  2  0  0  0  0  0  0
  185.9720  177.1700  144.9440 O   0  0  0  0  0  0  0  0  0  0  0  0
  186.1270  178.6420  146.7100 F   0  0  0  0  0  0  0  0  0  0  0  0
  184.1640  177.5590  146.3160 F   0  0  0  0  0  0  0  0  0  0  0  0
  185.5500  177.4640  146.2540 C   0  0  0  0  0  0  0  0  0  0  0  0
  185.9530  176.4330  147.0830 F   0  0  0  0  0  0  0  0  0  0  0  0
  1  6  1  6  0  0  0
  1 11  1  0  0  0  0
  2  3  1  1  0  0  0
  3  9  1  0  0  0  0
  4 29  1  6  0  0  0
  4  7  1  0  0  0  0
  4  2  1  0  0  0  0
  5  8  1  0  0  0  0
  6 10  1  0  0  0  0
  7  1  1  0  0  0  0
  7  2  1  0  0  0  0
 10  5  1  0  0  0  0
 11  8  2  0  0  0  0
 11  9  1  0  0  0  0
 12 13  2  0  0  0  0
 13 10  1  0  0  0  0
 14 16  1  0  0  0  0
 14 12  1  0  0  0  0
 15 13  1  0  0  0  0
 16 15  2  0  0  0  0
 17 12  1  0  0  0  0
 18 20  2  0  0  0  0
 19 20  2  0  0  0  0
 20 22  1  0  0  0  0
 20 17  1  0  0  0  0
 21 22  1  0  0  0  0
 22 24  1  0  0  0  0
 23 21  1  0  0  0  0
 23 22  1  0  0  0  0
 24 26  1  0  0  0  0
 26 25  2  0  0  0  0
 27 26  1  0  0  0  0
 28 27  1  0  0  0  0
 29 32  1  0  0  0  0
 30 29  1  0  0  0  0
 31 30  1  0  0  0  0
 32 35  1  0  0  0  0
 34 33  1  0  0  0  0
 34 32  1  0  0  0  0
 35 38  1  0  0  0  0
 38 37  1  0  0  0  0
 38 36  1  0  0  0  0
 38 39  1  0  0  0  0
M  END
>  <MODEL>
6

>  <REMARK>
 VINA RESULT:      -6.4      2.815      3.867
  Name = 
  13 active torsions:
  status: ('A' for Active; 'I' for Inactive)
    1  A    between atoms: O_1  and  C_7
    2  A    between atoms: C_7  and  O_17
    3  A    between atoms: C_10  and  N_16
    4  A    between atoms: C_12  and  C_19
    5  A    between atoms: C_12  and  C_22
    6  A    between atoms: C_12  and  O_34
    7  A    between atoms: O_13  and  C_19
    8  A    between atoms: C_15  and  O_17
    9  A    between atoms: C_15  and  S_33
   10  A    between atoms: N_16  and  S_33
   11  A    between atoms: C_18  and  C_19
   12  A    between atoms: C_23  and  C_35
   13  A    between atoms: C_32  and  O_34
                            x       y       z     vdW  Elec       q    Type
                         _______ _______ _______ _____ _____    ______ ____

>  <TORSDO>
F 13

$$$$
=
 OpenBabel11072409253D

 39 43  0  0  1  0  0  0  0  0999 V2000
  190.3340  175.3810  143.2720 C   0  0  2  0  0  3  0  0  0  0  0  0
  192.7210  174.3040  143.4440 C   0  0  2  0  0  3  0  0  0  0  0  0
  191.9510  173.0810  143.9310 C   0  0  0  0  0  2  0  0  0  0  0  0
  192.5360  175.4270  144.4470 C   0  0  2  0  0  3  0  0  0  0  0  0
  187.6020  174.7740  142.5870 C   0  0  0  0  0  2  0  0  0  0  0  0
  189.5550  176.7230  142.2810 S   0  0  0  0  0  0  0  0  0  0  0  0
  191.8550  175.5270  143.0960 C   0  0  2  0  0  3  0  0  0  0  0  0
  188.6190  173.7380  142.6400 N   0  0  0  0  0  0  0  0  0  0  0  0
  190.7400  172.8910  143.1510 N   0  0  0  0  0  2  0  0  0  0  0  0
  188.0550  175.8820  141.6570 C   0  0  2  0  0  3  0  0  0  0  0  0
  189.8550  173.9850  142.9420 C   0  0  0  0  0  0  0  0  0  0  0  0
  186.2960  177.6320  142.4060 C   0  0  0  0  0  0  0  0  0  0  0  0
  186.9630  176.8880  141.4590 C   0  0  0  0  0  0  0  0  0  0  0  0
  185.4860  178.4600  141.7990 O   0  0  0  0  0  0  0  0  0  0  0  0
  186.4920  177.3560  140.2480 C   0  0  0  0  0  3  0  0  0  0  0  0
  185.5770  178.3190  140.5050 N   0  0  0  0  0  0  0  0  0  0  0  0
  186.4560  177.5290  143.8200 N   0  0  0  0  0  2  0  0  0  0  0  0
  184.0550  178.3290  144.5930 O   0  0  0  0  0  0  0  0  0  0  0  0
  185.9160  179.9160  144.8380 O   0  0  0  0  0  0  0  0  0  0  0  0
  185.5130  178.4690  144.9280 S   0  0  0  0  0  0  0  0  0  0  0  0
  184.7730  178.2790  147.6450 C   0  0  0  0  0  2  0  0  0  0  0  0
  185.7860  177.8810  146.5900 C   0  0  0  0  0  0  0  0  0  0  0  0
  186.1360  178.9680  147.5830 C   0  0  0  0  0  2  0  0  0  0  0  0
  186.5650  176.6860  146.7480 O   0  0  0  0  0  0  0  0  0  0  0  0
  188.7260  177.5240  146.5320 O   0  0  0  0  0  0  0  0  0  0  0  0
  187.9430  176.5350  146.5090 C   0  0  0  0  0  0  0  0  0  0  0  0
  188.4640  175.2710  146.2230 O   0  0  0  0  0  0  0  0  0  0  0  0
  189.3120  174.5970  147.1380 C   0  0  0  0  0  1  0  0  0  0  0  0
  193.7970  176.2990  144.4680 C   0  0  1  0  0  3  0  0  0  0  0  0
  193.9580  177.0710  145.6400 O   0  0  0  0  0  0  0  0  0  0  0  0
  193.1430  176.5730  146.5540 O   0  0  0  0  0  1  0  0  0  0  0  0
  195.0810  175.5610  144.0560 C   0  0  1  0  0  3  0  0  0  0  0  0
  196.7670  177.1740  143.5260 O   0  0  0  0  0  1  0  0  0  0  0  0
  195.8520  176.2860  142.9600 C   0  0  0  0  0  2  0  0  0  0  0  0
  195.9030  175.3970  145.1830 O   0  0  0  0  0  0  0  0  0  0  0  0
  196.5580  173.4000  144.2360 F   0  0  0  0  0  0  0  0  0  0  0  0
  197.0030  173.8050  146.4310 F   0  0  0  0  0  0  0  0  0  0  0  0
  196.1030  174.0190  145.3930 C   0  0  0  0  0  0  0  0  0  0  0  0
  194.8910  173.4520  145.7430 F   0  0  0  0  0  0  0  0  0  0  0  0
  1  6  1  6  0  0  0
  2  3  1  1  0  0  0
  2  4  1  0  0  0  0
  4 29  1  6  0  0  0
  5  8  1  0  0  0  0
  7  1  1  0  0  0  0
  7  2  1  0  0  0  0
  7  4  1  0  0  0  0
  8 11  2  0  0  0  0
  9  3  1  0  0  0  0
 10  6  1  0  0  0  0
 10  5  1  0  0  0  0
 11  9  1  0  0  0  0
 11  1  1  0  0  0  0
 12 17  1  0  0  0  0
 13 10  1  0  0  0  0
 13 12  2  0  0  0  0
 14 12  1  0  0  0  0
 15 16  2  0  0  0  0
 15 13  1  0  0  0  0
 16 14  1  0  0  0  0
 17 20  1  0  0  0  0
 18 20  2  0  0  0  0
 19 20  2  0  0  0  0
 20 22  1  0  0  0  0
 22 24  1  0  0  0  0
 22 23  1  0  0  0  0
 22 21  1  0  0  0  0
 23 21  1  0  0  0  0
 26 25  2  0  0  0  0
 26 24  1  0  0  0  0
 27 26  1  0  0  0  0
 27 28  1  0  0  0  0
 29 30  1  0  0  0  0
 30 31  1  0  0  0  0
 32 29  1  0  0  0  0
 32 35  1  0  0  0  0
 34 33  1  0  0  0  0
 34 32  1  0  0  0  0
 35 38  1  0  0  0  0
 36 38  1  0  0  0  0
 38 39  1  0  0  0  0
 38 37  1  0  0  0  0
M  END
>  <MODEL>
7

>  <REMARK>
 VINA RESULT:      -6.4      4.096      8.480
  Name = 
  13 active torsions:
  status: ('A' for Active; 'I' for Inactive)
    1  A    between atoms: O_1  and  C_7
    2  A    between atoms: C_7  and  O_17
    3  A    between atoms: C_10  and  N_16
    4  A    between atoms: C_12  and  C_19
    5  A    between atoms: C_12  and  C_22
    6  A    between atoms: C_12  and  O_34
    7  A    between atoms: O_13  and  C_19
    8  A    between atoms: C_15  and  O_17
    9  A    between atoms: C_15  and  S_33
   10  A    between atoms: N_16  and  S_33
   11  A    between atoms: C_18  and  C_19
   12  A    between atoms: C_23  and  C_35
   13  A    between atoms: C_32  and  O_34
                            x       y       z     vdW  Elec       q    Type
                         _______ _______ _______ _____ _____    ______ ____

>  <TORSDO>
F 13

$$$$
=
 OpenBabel11072409253D

 39 43  0  0  1  0  0  0  0  0999 V2000
  190.8360  176.4530  144.9580 C   0  0  2  0  0  3  0  0  0  0  0  0
  188.5840  177.6800  145.5210 C   0  0  2  0  0  3  0  0  0  0  0  0
  188.7910  177.0660  146.9010 C   0  0  0  0  0  2  0  0  0  0  0  0
  188.3800  176.5610  144.5160 C   0  0  2  0  0  3  0  0  0  0  0  0
  193.3930  175.7490  146.0830 C   0  0  0  0  0  2  0  0  0  0  0  0
  192.2100  176.6940  143.7560 S   0  0  0  0  0  0  0  0  0  0  0  0
  189.6760  177.3490  144.4880 C   0  0  2  0  0  3  0  0  0  0  0  0
  192.3580  176.3780  146.8850 N   0  0  0  0  0  0  0  0  0  0  0  0
  190.1860  177.1470  147.2970 N   0  0  0  0  0  2  0  0  0  0  0  0
  193.6680  176.5960  144.8560 C   0  0  2  0  0  3  0  0  0  0  0  0
  191.2010  176.7080  146.4020 C   0  0  0  0  0  0  0  0  0  0  0  0
  194.9190  174.9040  143.3440 C   0  0  0  0  0  0  0  0  0  0  0  0
  194.8370  176.0580  144.0910 C   0  0  0  0  0  0  0  0  0  0  0  0
  196.0890  174.8600  142.7620 O   0  0  0  0  0  0  0  0  0  0  0  0
  196.0470  176.6940  143.8880 C   0  0  0  0  0  3  0  0  0  0  0  0
  196.7910  175.9160  143.0700 N   0  0  0  0  0  0  0  0  0  0  0  0
  193.9000  173.9140  143.2140 N   0  0  0  0  0  2  0  0  0  0  0  0
  193.9600  172.4290  145.4030 O   0  0  0  0  0  0  0  0  0  0  0  0
  195.3780  171.7340  143.5190 O   0  0  0  0  0  0  0  0  0  0  0  0
  194.0530  172.3340  143.9070 S   0  0  0  0  0  0  0  0  0  0  0  0
  193.1050  170.1870  142.3370 C   0  0  0  0  0  2  0  0  0  0  0  0
  192.7350  171.2900  143.3080 C   0  0  0  0  0  0  0  0  0  0  0  0
  192.4270  171.4620  141.8370 C   0  0  0  0  0  2  0  0  0  0  0  0
  191.5650  171.1680  144.1310 O   0  0  0  0  0  0  0  0  0  0  0  0
  190.6220  173.1080  145.0060 O   0  0  0  0  0  0  0  0  0  0  0  0
  190.5170  172.0980  144.2560 C   0  0  0  0  0  0  0  0  0  0  0  0
  189.3260  171.9010  143.5550 O   0  0  0  0  0  0  0  0  0  0  0  0
  188.9540  172.7460  142.4790 C   0  0  0  0  0  1  0  0  0  0  0  0
  187.4450  177.0460  143.4030 C   0  0  1  0  0  3  0  0  0  0  0  0
  186.8830  176.0140  142.6170 O   0  0  0  0  0  0  0  0  0  0  0  0
  187.4710  176.0560  141.4350 O   0  0  0  0  0  1  0  0  0  0  0  0
  186.4060  178.0830  143.8590 C   0  0  1  0  0  3  0  0  0  0  0  0
  184.7370  178.6580  142.2440 O   0  0  0  0  0  1  0  0  0  0  0  0
  185.9870  179.0280  142.7400 C   0  0  0  0  0  2  0  0  0  0  0  0
  185.2770  177.4180  144.3640 O   0  0  0  0  0  0  0  0  0  0  0  0
  183.6810  178.3290  145.7540 F   0  0  0  0  0  0  0  0  0  0  0  0
  185.2780  176.9580  146.6210 F   0  0  0  0  0  0  0  0  0  0  0  0
  185.0030  177.9170  145.6520 C   0  0  0  0  0  0  0  0  0  0  0  0
  185.8180  179.0110  145.8770 F   0  0  0  0  0  0  0  0  0  0  0  0
  1  6  1  6  0  0  0
  1 11  1  0  0  0  0
  2  3  1  1  0  0  0
  3  9  1  0  0  0  0
  4 29  1  6  0  0  0
  4  2  1  0  0  0  0
  5  8  1  0  0  0  0
  6 10  1  0  0  0  0
  7  4  1  0  0  0  0
  7  1  1  0  0  0  0
  7  2  1  0  0  0  0
 10  5  1  0  0  0  0
 11  8  2  0  0  0  0
 11  9  1  0  0  0  0
 12 13  2  0  0  0  0
 13 10  1  0  0  0  0
 14 16  1  0  0  0  0
 14 12  1  0  0  0  0
 15 13  1  0  0  0  0
 16 15  2  0  0  0  0
 17 12  1  0  0  0  0
 17 20  1  0  0  0  0
 19 20  2  0  0  0  0
 20 18  2  0  0  0  0
 21 22  1  0  0  0  0
 22 20  1  0  0  0  0
 22 24  1  0  0  0  0
 23 21  1  0  0  0  0
 23 22  1  0  0  0  0
 24 26  1  0  0  0  0
 26 25  2  0  0  0  0
 27 26  1  0  0  0  0
 28 27  1  0  0  0  0
 29 32  1  0  0  0  0
 30 29  1  0  0  0  0
 31 30  1  0  0  0  0
 32 35  1  0  0  0  0
 33 34  1  0  0  0  0
 34 32  1  0  0  0  0
 35 38  1  0  0  0  0
 38 36  1  0  0  0  0
 38 39  1  0  0  0  0
 38 37  1  0  0  0  0
M  END
>  <MODEL>
8

>  <REMARK>
 VINA RESULT:      -6.3      2.809      3.969
  Name = 
  13 active torsions:
  status: ('A' for Active; 'I' for Inactive)
    1  A    between atoms: O_1  and  C_7
    2  A    between atoms: C_7  and  O_17
    3  A    between atoms: C_10  and  N_16
    4  A    between atoms: C_12  and  C_19
    5  A    between atoms: C_12  and  C_22
    6  A    between atoms: C_12  and  O_34
    7  A    between atoms: O_13  and  C_19
    8  A    between atoms: C_15  and  O_17
    9  A    between atoms: C_15  and  S_33
   10  A    between atoms: N_16  and  S_33
   11  A    between atoms: C_18  and  C_19
   12  A    between atoms: C_23  and  C_35
   13  A    between atoms: C_32  and  O_34
                            x       y       z     vdW  Elec       q    Type
                         _______ _______ _______ _____ _____    ______ ____

>  <TORSDO>
F 13

$$$$
=
 OpenBabel11072409253D

 39 43  0  0  1  0  0  0  0  0999 V2000
  191.6590  173.0520  143.7210 C   0  0  2  0  0  3  0  0  0  0  0  0
  194.0010  171.9000  144.0000 C   0  0  2  0  0  3  0  0  0  0  0  0
  193.1700  170.6330  144.1720 C   0  0  0  0  0  2  0  0  0  0  0  0
  193.6970  172.8420  145.1490 C   0  0  2  0  0  3  0  0  0  0  0  0
  189.0320  172.6410  142.6120 C   0  0  0  0  0  2  0  0  0  0  0  0
  191.0180  174.5620  142.8850 S   0  0  0  0  0  0  0  0  0  0  0  0
  193.1910  173.1860  143.7610 C   0  0  2  0  0  3  0  0  0  0  0  0
  190.0300  171.5850  142.6130 N   0  0  0  0  0  0  0  0  0  0  0  0
  192.0660  170.6090  143.2280 N   0  0  0  0  0  2  0  0  0  0  0  0
  189.6040  173.8780  141.9470 C   0  0  2  0  0  3  0  0  0  0  0  0
  191.2200  171.7450  143.1020 C   0  0  0  0  0  0  0  0  0  0  0  0
  187.9510  175.6990  142.7630 C   0  0  0  0  0  0  0  0  0  0  0  0
  188.5510  174.9310  141.7910 C   0  0  0  0  0  0  0  0  0  0  0  0
  187.1570  176.5640  142.1870 O   0  0  0  0  0  0  0  0  0  0  0  0
  188.0570  175.4240  140.5990 C   0  0  0  0  0  3  0  0  0  0  0  0
  187.1940  176.4250  140.8910 N   0  0  0  0  0  0  0  0  0  0  0  0
  188.1570  175.5840  144.1700 N   0  0  0  0  0  2  0  0  0  0  0  0
  189.1880  178.0050  144.4480 O   0  0  0  0  0  0  0  0  0  0  0  0
  189.1250  176.5600  146.4360 O   0  0  0  0  0  0  0  0  0  0  0  0
  188.3920  176.9660  145.1860 S   0  0  0  0  0  0  0  0  0  0  0  0
  186.2540  177.3110  146.9980 C   0  0  0  0  0  2  0  0  0  0  0  0
  186.8070  177.6570  145.6300 C   0  0  0  0  0  0  0  0  0  0  0  0
  185.6960  176.6370  145.7460 C   0  0  0  0  0  2  0  0  0  0  0  0
  186.4090  178.8690  144.9730 O   0  0  0  0  0  0  0  0  0  0  0  0
  184.1450  179.4110  144.9710 O   0  0  0  0  0  0  0  0  0  0  0  0
  185.1880  179.1180  144.3220 C   0  0  0  0  0  0  0  0  0  0  0  0
  185.1110  179.0270  142.9300 O   0  0  0  0  0  0  0  0  0  0  0  0
  184.0900  178.2770  142.2940 C   0  0  0  0  0  1  0  0  0  0  0  0
  194.9500  173.6650  145.4720 C   0  0  1  0  0  3  0  0  0  0  0  0
  196.1640  173.0740  145.0540 O   0  0  0  0  0  0  0  0  0  0  0  0
  196.8950  172.8700  146.1360 O   0  0  0  0  0  1  0  0  0  0  0  0
  194.8450  175.1500  145.0910 C   0  0  1  0  0  3  0  0  0  0  0  0
  193.8210  177.1550  145.9000 O   0  0  0  0  0  1  0  0  0  0  0  0
  194.5750  176.0490  146.2910 C   0  0  0  0  0  2  0  0  0  0  0  0
  196.0320  175.5510  144.4560 O   0  0  0  0  0  0  0  0  0  0  0  0
  194.4030  176.2350  142.9770 F   0  0  0  0  0  0  0  0  0  0  0  0
  196.5560  176.9040  142.6680 F   0  0  0  0  0  0  0  0  0  0  0  0
  195.7360  175.8750  143.1190 C   0  0  0  0  0  0  0  0  0  0  0  0
  195.9710  174.7580  142.3390 F   0  0  0  0  0  0  0  0  0  0  0  0
  1  6  1  6  0  0  0
  1  7  1  0  0  0  0
  2  3  1  1  0  0  0
  2  4  1  0  0  0  0
  4 29  1  6  0  0  0
  5  8  1  0  0  0  0
  7  2  1  0  0  0  0
  7  4  1  0  0  0  0
  8 11  2  0  0  0  0
  9  3  1  0  0  0  0
 10  5  1  0  0  0  0
 10  6  1  0  0  0  0
 11  9  1  0  0  0  0
 11  1  1  0  0  0  0
 12 17  1  0  0  0  0
 13 10  1  0  0  0  0
 13 12  2  0  0  0  0
 14 12  1  0  0  0  0
 15 16  2  0  0  0  0
 15 13  1  0  0  0  0
 16 14  1  0  0  0  0
 17 20  1  0  0  0  0
 18 20  2  0  0  0  0
 20 22  1  0  0  0  0
 20 19  2  0  0  0  0
 22 23  1  0  0  0  0
 22 21  1  0  0  0  0
 23 21  1  0  0  0  0
 24 22  1  0  0  0  0
 26 25  2  0  0  0  0
 26 24  1  0  0  0  0
 27 26  1  0  0  0  0
 28 27  1  0  0  0  0
 30 29  1  0  0  0  0
 30 31  1  0  0  0  0
 32 29  1  0  0  0  0
 32 34  1  0  0  0  0
 33 34  1  0  0  0  0
 35 32  1  0  0  0  0
 36 38  1  0  0  0  0
 37 38  1  0  0  0  0
 38 35  1  0  0  0  0
 39 38  1  0  0  0  0
M  END
>  <MODEL>
9

>  <REMARK>
 VINA RESULT:      -6.1      3.587      8.243
  Name = 
  13 active torsions:
  status: ('A' for Active; 'I' for Inactive)
    1  A    between atoms: O_1  and  C_7
    2  A    between atoms: C_7  and  O_17
    3  A    between atoms: C_10  and  N_16
    4  A    between atoms: C_12  and  C_19
    5  A    between atoms: C_12  and  C_22
    6  A    between atoms: C_12  and  O_34
    7  A    between atoms: O_13  and  C_19
    8  A    between atoms: C_15  and  O_17
    9  A    between atoms: C_15  and  S_33
   10  A    between atoms: N_16  and  S_33
   11  A    between atoms: C_18  and  C_19
   12  A    between atoms: C_23  and  C_35
   13  A    between atoms: C_32  and  O_34
                            x       y       z     vdW  Elec       q    Type
                         _______ _______ _______ _____ _____    ______ ____

>  <TORSDO>
F 13

$$$$
