=
 OpenBabel11062418433D

 43 48  0  0  1  0  0  0  0  0999 V2000
  194.6430  175.6220  141.3170 N   0  0  0  0  0  0  0  0  0  0  0  0
  190.5980  175.8180  144.3680 C   0  0  2  0  0  3  0  0  0  0  0  0
  188.2120  175.1110  140.4380 C   0  0  0  0  0  0  0  0  0  0  0  0
  187.8170  174.9180  139.2580 O   0  0  0  0  0  0  0  0  0  0  0  0
  190.2530  173.6290  140.3850 C   0  0  0  0  0  0  0  0  0  0  0  0
  194.2170  173.9890  139.7190 O   0  0  0  0  0  0  0  0  0  0  0  0
  193.2780  175.4890  143.3030 C   0  0  1  0  0  3  0  0  0  0  0  0
  192.1140  174.9970  142.4570 C   0  0  0  0  0  0  0  0  0  0  0  0
  190.8030  171.6580  139.3160 O   0  0  0  0  0  0  0  0  0  0  0  0
  190.7240  175.2330  142.9800 C   0  0  0  0  0  0  0  0  0  0  0  0
  192.4490  174.3600  141.3020 C   0  0  0  0  0  0  0  0  0  0  0  0
  189.7600  172.5110  139.6090 C   0  0  0  0  0  0  0  0  0  0  0  0
  194.3830  176.1020  142.4930 C   0  0  0  0  0  3  0  0  0  0  0  0
  189.5930  175.1840  142.2390 C   0  0  0  0  0  0  0  0  0  0  0  0
  191.6640  176.7660  144.7020 N   0  0  0  0  0  2  0  0  0  0  0  0
  188.2780  175.7380  142.7170 C   0  0  0  0  0  2  0  0  0  0  0  0
  191.9960  172.1790  139.8900 C   0  0  0  0  0  2  0  0  0  0  0  0
  188.5640  172.2960  139.2800 O   0  0  0  0  0  0  0  0  0  0  0  0
  189.5010  174.7310  140.8970 N   0  0  0  0  0  0  0  0  0  0  0  0
  187.3820  175.7800  141.4790 C   0  0  1  0  0  3  0  0  0  0  0  0
  193.8140  174.6010  140.7440 C   0  0  0  0  0  0  0  0  0  0  0  0
  192.9560  176.0960  144.6790 C   0  0  2  0  0  3  0  0  0  0  0  0
  194.0380  177.0180  145.2220 C   0  0  0  0  0  1  0  0  0  0  0  0
  191.5450  173.4450  140.5780 C   0  0  0  0  0  0  0  0  0  0  0  0
  190.2390  174.8430  145.4630 C   0  0  0  0  0  0  0  0  0  0  0  0
  189.8840  172.3500  144.7690 C   0  0  0  0  0  3  0  0  0  0  0  0
  190.0590  173.5960  145.1130 C   0  0  0  0  0  0  0  0  0  0  0  0
  191.3940  174.9780  147.5520 F   0  0  0  0  0  0  0  0  0  0  0  0
  189.9040  176.5760  147.0540 F   0  0  0  0  0  0  0  0  0  0  0  0
  189.2050  174.4940  147.5640 F   0  0  0  0  0  0  0  0  0  0  0  0
  190.1840  175.2280  146.9240 C   0  0  0  0  0  0  0  0  0  0  0  0
  192.3290  172.2190  144.6620 C   0  0  0  0  0  1  0  0  0  0  0  0
  191.0310  171.5490  144.2660 C   0  0  0  0  0  2  0  0  0  0  0  0
  187.1170  177.2340  141.1100 C   0  0  0  0  0  2  0  0  0  0  0  0
  187.5250  178.1670  142.2370 C   0  0  0  0  0  2  0  0  0  0  0  0
  186.4110  178.9040  142.6770 O   0  0  0  0  0  0  0  0  0  0  0  0
  186.0790  178.4800  143.9800 C   0  0  0  0  0  3  0  0  0  0  0  0
  184.7230  179.0420  146.1050 C   0  0  0  0  0  2  0  0  0  0  0  0
  187.3180  178.1850  144.8510 C   0  0  0  0  0  2  0  0  0  0  0  0
  185.6880  176.6490  146.0940 C   0  0  0  0  0  2  0  0  0  0  0  0
  184.9680  179.3350  144.6230 C   0  0  0  0  0  2  0  0  0  0  0  0
  184.4890  177.5580  146.4070 C   0  0  0  0  0  2  0  0  0  0  0  0
  187.0250  177.3920  146.1360 C   0  0  0  0  0  2  0  0  0  0  0  0
  1 13  2  0  0  0  0
  2 15  1  0  0  0  0
  2 25  1  1  0  0  0
  3 19  1  0  0  0  0
  3 20  1  0  0  0  0
  4  3  2  0  0  0  0
  5 24  2  0  0  0  0
  5 19  1  0  0  0  0
  6 21  2  0  0  0  0
  7 13  1  6  0  0  0
  7 22  1  0  0  0  0
  8 10  1  0  0  0  0
  8  7  1  0  0  0  0
  9 12  1  0  0  0  0
  9 17  1  0  0  0  0
 10  2  1  0  0  0  0
 11  8  2  0  0  0  0
 12  5  1  0  0  0  0
 14 16  1  0  0  0  0
 14 10  2  0  0  0  0
 17 24  1  0  0  0  0
 18 12  2  0  0  0  0
 19 14  1  0  0  0  0
 20 34  1  6  0  0  0
 20 16  1  0  0  0  0
 21 11  1  0  0  0  0
 21  1  1  0  0  0  0
 22 15  1  0  0  0  0
 22 23  1  6  0  0  0
 24 11  1  0  0  0  0
 25 31  1  0  0  0  0
 26 27  2  0  0  0  0
 27 25  2  0  0  0  0
 31 29  1  0  0  0  0
 31 28  1  0  0  0  0
 31 30  1  0  0  0  0
 33 32  1  0  0  0  0
 33 26  1  0  0  0  0
 34 35  1  0  0  0  0
 35 36  1  0  0  0  0
 36 37  1  0  0  0  0
 37 41  1  0  0  0  0
 37 39  1  0  0  0  0
 38 42  1  0  0  0  0
 39 43  1  0  0  0  0
 40 43  1  0  0  0  0
 40 42  1  0  0  0  0
 41 38  1  0  0  0  0
M  END
>  <MODEL>
1

>  <REMARK>
 VINA RESULT:      -9.1      0.000      0.000
  Name = 
  7 active torsions:
  status: ('A' for Active; 'I' for Inactive)
    1  A    between atoms: C_1  and  O_31
    2  A    between atoms: C_3  and  C_11
    3  A    between atoms: C_11  and  C_34
    4  A    between atoms: C_16  and  C_28
    5  A    between atoms: C_16  and  O_31
    6  A    between atoms: C_18  and  C_26
    7  A    between atoms: C_28  and  C_39
                            x       y       z     vdW  Elec       q    Type
                         _______ _______ _______ _____ _____    ______ ____

>  <TORSDO>
F 7

$$$$
=
 OpenBabel11062418433D

 43 48  0  0  1  0  0  0  0  0999 V2000
  193.7340  169.8390  144.9260 N   0  0  0  0  0  0  0  0  0  0  0  0
  190.2890  173.0030  142.9710 C   0  0  2  0  0  3  0  0  0  0  0  0
  191.1600  175.5240  146.7810 C   0  0  0  0  0  0  0  0  0  0  0  0
  191.5730  176.0010  147.8710 O   0  0  0  0  0  0  0  0  0  0  0  0
  193.3580  174.6320  145.9210 C   0  0  0  0  0  0  0  0  0  0  0  0
  195.3910  171.1460  145.9000 O   0  0  0  0  0  0  0  0  0  0  0  0
  192.3430  170.9820  143.3190 C   0  0  1  0  0  3  0  0  0  0  0  0
  192.4530  172.2540  144.1450 C   0  0  0  0  0  0  0  0  0  0  0  0
  195.5630  175.2910  146.1050 O   0  0  0  0  0  0  0  0  0  0  0  0
  191.3510  173.2680  144.0140 C   0  0  0  0  0  0  0  0  0  0  0  0
  193.5690  172.3640  144.9170 C   0  0  0  0  0  0  0  0  0  0  0  0
  194.2620  175.6850  146.3340 C   0  0  0  0  0  0  0  0  0  0  0  0
  192.7680  169.7510  144.0650 C   0  0  0  0  0  3  0  0  0  0  0  0
  191.1000  174.2670  144.8920 C   0  0  0  0  0  0  0  0  0  0  0  0
  189.9850  171.5820  142.7930 N   0  0  0  0  0  2  0  0  0  0  0  0
  189.8120  175.0450  144.8990 C   0  0  0  0  0  2  0  0  0  0  0  0
  195.5540  173.9880  145.5330 C   0  0  0  0  0  2  0  0  0  0  0  0
  193.9410  176.8130  146.7890 O   0  0  0  0  0  0  0  0  0  0  0  0
  191.9310  174.6390  145.9820 N   0  0  0  0  0  0  0  0  0  0  0  0
  189.8110  175.8150  146.2200 C   0  0  1  0  0  3  0  0  0  0  0  0
  194.3110  171.1110  145.2520 C   0  0  0  0  0  0  0  0  0  0  0  0
  191.1680  170.8690  142.3320 C   0  0  2  0  0  3  0  0  0  0  0  0
  190.8090  169.4410  141.9510 C   0  0  0  0  0  1  0  0  0  0  0  0
  194.0860  173.6470  145.4330 C   0  0  0  0  0  0  0  0  0  0  0  0
  190.4100  173.8000  141.6940 C   0  0  0  0  0  0  0  0  0  0  0  0
  192.8210  174.3510  140.8550 C   0  0  0  0  0  3  0  0  0  0  0  0
  191.6180  174.0770  141.2770 C   0  0  0  0  0  0  0  0  0  0  0  0
  188.7920  175.4720  141.1430 F   0  0  0  0  0  0  0  0  0  0  0  0
  189.5450  174.1380  139.5060 F   0  0  0  0  0  0  0  0  0  0  0  0
  188.1700  173.3190  141.0940 F   0  0  0  0  0  0  0  0  0  0  0  0
  189.2170  174.1860  140.8490 C   0  0  0  0  0  0  0  0  0  0  0  0
  194.8350  173.0670  141.4010 C   0  0  0  0  0  1  0  0  0  0  0  0
  193.7170  173.2570  140.3990 C   0  0  0  0  0  2  0  0  0  0  0  0
  188.7180  175.2520  147.1180 C   0  0  0  0  0  2  0  0  0  0  0  0
  187.4210  176.0250  146.9520 C   0  0  0  0  0  2  0  0  0  0  0  0
  187.6970  177.3890  146.7500 O   0  0  0  0  0  0  0  0  0  0  0  0
  186.7920  177.8930  145.7940 C   0  0  0  0  0  3  0  0  0  0  0  0
  184.5190  179.0680  145.4480 C   0  0  0  0  0  2  0  0  0  0  0  0
  186.4170  176.8550  144.7140 C   0  0  0  0  0  2  0  0  0  0  0  0
  185.9600  178.9480  143.3100 C   0  0  0  0  0  2  0  0  0  0  0  0
  185.6290  178.6830  146.4280 C   0  0  0  0  0  2  0  0  0  0  0  0
  185.0280  179.7910  144.1960 C   0  0  0  0  0  2  0  0  0  0  0  0
  185.7320  177.4430  143.4700 C   0  0  0  0  0  2  0  0  0  0  0  0
  1 21  1  0  0  0  0
  2 25  1  6  0  0  0
  2 10  1  0  0  0  0
  3  4  2  0  0  0  0
  5 19  1  0  0  0  0
  5 12  1  0  0  0  0
  7 13  1  1  0  0  0
  7  8  1  0  0  0  0
  8 11  2  0  0  0  0
  9 12  1  0  0  0  0
 10  8  1  0  0  0  0
 10 14  2  0  0  0  0
 11 21  1  0  0  0  0
 11 24  1  0  0  0  0
 12 18  2  0  0  0  0
 13  1  2  0  0  0  0
 14 16  1  0  0  0  0
 14 19  1  0  0  0  0
 15  2  1  0  0  0  0
 16 20  1  0  0  0  0
 17  9  1  0  0  0  0
 19  3  1  0  0  0  0
 20  3  1  0  0  0  0
 20 34  1  1  0  0  0
 21  6  2  0  0  0  0
 22 23  1  1  0  0  0
 22 15  1  0  0  0  0
 22  7  1  0  0  0  0
 24 17  1  0  0  0  0
 24  5  2  0  0  0  0
 26 27  2  0  0  0  0
 27 25  2  0  0  0  0
 29 31  1  0  0  0  0
 31 30  1  0  0  0  0
 31 28  1  0  0  0  0
 31 25  1  0  0  0  0
 33 26  1  0  0  0  0
 33 32  1  0  0  0  0
 35 34  1  0  0  0  0
 36 35  1  0  0  0  0
 37 41  1  0  0  0  0
 37 36  1  0  0  0  0
 38 41  1  0  0  0  0
 39 37  1  0  0  0  0
 40 43  1  0  0  0  0
 40 42  1  0  0  0  0
 42 38  1  0  0  0  0
 43 39  1  0  0  0  0
M  END
>  <MODEL>
2

>  <REMARK>
 VINA RESULT:      -8.6      3.553      5.739
  Name = 
  7 active torsions:
  status: ('A' for Active; 'I' for Inactive)
    1  A    between atoms: C_1  and  O_31
    2  A    between atoms: C_3  and  C_11
    3  A    between atoms: C_11  and  C_34
    4  A    between atoms: C_16  and  C_28
    5  A    between atoms: C_16  and  O_31
    6  A    between atoms: C_18  and  C_26
    7  A    between atoms: C_28  and  C_39
                            x       y       z     vdW  Elec       q    Type
                         _______ _______ _______ _____ _____    ______ ____

>  <TORSDO>
F 7

$$$$
=
 OpenBabel11062418433D

 43 48  0  0  1  0  0  0  0  0999 V2000
  193.7560  169.5340  144.9700 N   0  0  0  0  0  0  0  0  0  0  0  0
  190.4740  172.7740  142.8630 C   0  0  2  0  0  3  0  0  0  0  0  0
  191.3250  175.3360  146.6510 C   0  0  0  0  0  0  0  0  0  0  0  0
  191.7230  175.8190  147.7440 O   0  0  0  0  0  0  0  0  0  0  0  0
  193.5140  174.3560  145.8690 C   0  0  0  0  0  0  0  0  0  0  0  0
  195.4280  170.8040  145.9670 O   0  0  0  0  0  0  0  0  0  0  0  0
  192.4480  170.6920  143.3050 C   0  0  1  0  0  3  0  0  0  0  0  0
  192.5790  171.9750  144.1100 C   0  0  0  0  0  0  0  0  0  0  0  0
  195.7340  174.9440  146.1030 O   0  0  0  0  0  0  0  0  0  0  0  0
  191.5150  173.0230  143.9310 C   0  0  0  0  0  0  0  0  0  0  0  0
  193.6760  172.0630  144.9120 C   0  0  0  0  0  0  0  0  0  0  0  0
  194.4410  175.3850  146.2880 C   0  0  0  0  0  0  0  0  0  0  0  0
  192.8120  169.4630  144.0850 C   0  0  0  0  0  3  0  0  0  0  0  0
  191.2740  174.0450  144.7840 C   0  0  0  0  0  0  0  0  0  0  0  0
  190.1270  171.3600  142.7020 N   0  0  0  0  0  2  0  0  0  0  0  0
  190.0130  174.8660  144.7410 C   0  0  0  0  0  2  0  0  0  0  0  0
  195.6970  173.6320  145.5540 C   0  0  0  0  0  2  0  0  0  0  0  0
  194.1450  176.5320  146.7140 O   0  0  0  0  0  0  0  0  0  0  0  0
  192.0870  174.4100  145.8890 N   0  0  0  0  0  0  0  0  0  0  0  0
  190.0020  175.6600  146.0480 C   0  0  1  0  0  3  0  0  0  0  0  0
  194.3660  170.7920  145.2900 C   0  0  0  0  0  0  0  0  0  0  0  0
  191.2980  170.6000  142.2870 C   0  0  2  0  0  3  0  0  0  0  0  0
  190.9020  169.1780  141.9220 C   0  0  0  0  0  1  0  0  0  0  0  0
  194.2220  173.3370  145.4190 C   0  0  0  0  0  0  0  0  0  0  0  0
  190.6560  173.5420  141.5760 C   0  0  0  0  0  0  0  0  0  0  0  0
  188.5130  174.5510  140.4770 C   0  0  0  0  0  3  0  0  0  0  0  0
  189.5810  174.0440  141.0260 C   0  0  0  0  0  0  0  0  0  0  0  0
  191.8930  174.2990  139.6750 F   0  0  0  0  0  0  0  0  0  0  0  0
  192.6730  174.7920  141.7190 F   0  0  0  0  0  0  0  0  0  0  0  0
  192.7680  172.6740  140.9490 F   0  0  0  0  0  0  0  0  0  0  0  0
  192.0130  173.8300  140.9740 C   0  0  0  0  0  0  0  0  0  0  0  0
  188.7510  176.6030  141.7950 C   0  0  0  0  0  1  0  0  0  0  0  0
  187.7700  175.6400  141.1630 C   0  0  0  0  0  2  0  0  0  0  0  0
  188.8660  175.1500  146.9250 C   0  0  0  0  0  2  0  0  0  0  0  0
  187.6690  176.0840  146.8680 C   0  0  0  0  0  2  0  0  0  0  0  0
  188.0610  177.3370  146.3630 O   0  0  0  0  0  0  0  0  0  0  0  0
  187.0090  177.8530  145.5800 C   0  0  0  0  0  3  0  0  0  0  0  0
  184.7380  179.0830  145.6360 C   0  0  0  0  0  2  0  0  0  0  0  0
  186.4190  176.8140  144.6030 C   0  0  0  0  0  2  0  0  0  0  0  0
  185.7610  178.9020  143.2740 C   0  0  0  0  0  2  0  0  0  0  0  0
  186.0000  178.6800  146.4030 C   0  0  0  0  0  2  0  0  0  0  0  0
  185.0270  179.7790  144.3010 C   0  0  0  0  0  2  0  0  0  0  0  0
  185.5310  177.4060  143.4950 C   0  0  0  0  0  2  0  0  0  0  0  0
  1 21  1  0  0  0  0
  2 25  1  6  0  0  0
  2 10  1  0  0  0  0
  3  4  2  0  0  0  0
  5 19  1  0  0  0  0
  5 12  1  0  0  0  0
  7 13  1  1  0  0  0
  7  8  1  0  0  0  0
  8 11  2  0  0  0  0
  9 12  1  0  0  0  0
 10  8  1  0  0  0  0
 10 14  2  0  0  0  0
 11 21  1  0  0  0  0
 11 24  1  0  0  0  0
 12 18  2  0  0  0  0
 13  1  2  0  0  0  0
 14 19  1  0  0  0  0
 15  2  1  0  0  0  0
 16 14  1  0  0  0  0
 16 20  1  0  0  0  0
 17  9  1  0  0  0  0
 19  3  1  0  0  0  0
 20  3  1  0  0  0  0
 20 34  1  1  0  0  0
 21  6  2  0  0  0  0
 22 23  1  1  0  0  0
 22 15  1  0  0  0  0
 22  7  1  0  0  0  0
 24 17  1  0  0  0  0
 24  5  2  0  0  0  0
 26 27  2  0  0  0  0
 26 33  1  0  0  0  0
 27 25  2  0  0  0  0
 28 31  1  0  0  0  0
 30 31  1  0  0  0  0
 31 25  1  0  0  0  0
 31 29  1  0  0  0  0
 33 32  1  0  0  0  0
 35 34  1  0  0  0  0
 36 35  1  0  0  0  0
 37 36  1  0  0  0  0
 37 41  1  0  0  0  0
 38 41  1  0  0  0  0
 39 37  1  0  0  0  0
 40 43  1  0  0  0  0
 40 42  1  0  0  0  0
 42 38  1  0  0  0  0
 43 39  1  0  0  0  0
M  END
>  <MODEL>
3

>  <REMARK>
 VINA RESULT:      -8.4      3.569      5.865
  Name = 
  7 active torsions:
  status: ('A' for Active; 'I' for Inactive)
    1  A    between atoms: C_1  and  O_31
    2  A    between atoms: C_3  and  C_11
    3  A    between atoms: C_11  and  C_34
    4  A    between atoms: C_16  and  C_28
    5  A    between atoms: C_16  and  O_31
    6  A    between atoms: C_18  and  C_26
    7  A    between atoms: C_28  and  C_39
                            x       y       z     vdW  Elec       q    Type
                         _______ _______ _______ _____ _____    ______ ____

>  <TORSDO>
F 7

$$$$
=
 OpenBabel11062418433D

 43 48  0  0  1  0  0  0  0  0999 V2000
  195.2240  174.4740  139.7370 N   0  0  0  0  0  0  0  0  0  0  0  0
  193.0330  175.9260  144.0720 C   0  0  2  0  0  3  0  0  0  0  0  0
  189.0740  175.2760  141.7190 C   0  0  0  0  0  0  0  0  0  0  0  0
  188.1730  175.0290  140.8750 O   0  0  0  0  0  0  0  0  0  0  0  0
  190.6440  173.3890  141.1360 C   0  0  0  0  0  0  0  0  0  0  0  0
  193.9030  172.7870  138.8330 O   0  0  0  0  0  0  0  0  0  0  0  0
  194.8820  174.8890  142.0890 C   0  0  1  0  0  3  0  0  0  0  0  0
  193.4070  174.5630  141.9220 C   0  0  0  0  0  0  0  0  0  0  0  0
  190.3730  171.2280  140.3680 O   0  0  0  0  0  0  0  0  0  0  0  0
  192.4440  175.1600  142.9100 C   0  0  0  0  0  0  0  0  0  0  0  0
  193.0970  173.7300  140.8900 C   0  0  0  0  0  0  0  0  0  0  0  0
  189.7030  172.3180  140.8830 C   0  0  0  0  0  0  0  0  0  0  0  0
  195.5860  175.1400  140.7880 C   0  0  0  0  0  3  0  0  0  0  0  0
  191.1070  175.2680  142.7310 C   0  0  0  0  0  0  0  0  0  0  0  0
  194.2590  176.6520  143.7320 N   0  0  0  0  0  2  0  0  0  0  0  0
  190.2360  176.1510  143.5830 C   0  0  0  0  0  2  0  0  0  0  0  0
  191.7580  171.5420  140.2770 C   0  0  0  0  0  2  0  0  0  0  0  0
  188.4690  172.3300  141.1290 O   0  0  0  0  0  0  0  0  0  0  0  0
  190.3640  174.6830  141.6720 N   0  0  0  0  0  0  0  0  0  0  0  0
  188.8990  176.2340  142.8470 C   0  0  1  0  0  3  0  0  0  0  0  0
  194.0900  173.5950  139.7810 C   0  0  0  0  0  0  0  0  0  0  0  0
  195.2970  175.7180  143.3170 C   0  0  2  0  0  3  0  0  0  0  0  0
  196.6260  176.4420  143.1600 C   0  0  0  0  0  1  0  0  0  0  0  0
  191.8450  172.9520  140.8110 C   0  0  0  0  0  0  0  0  0  0  0  0
  193.0640  175.1960  145.3930 C   0  0  0  0  0  0  0  0  0  0  0  0
  193.9090  172.7260  145.3720 C   0  0  0  0  0  3  0  0  0  0  0  0
  193.4850  173.9580  145.3800 C   0  0  0  0  0  0  0  0  0  0  0  0
  193.8330  176.5310  147.2220 F   0  0  0  0  0  0  0  0  0  0  0  0
  191.7130  176.7810  146.5390 F   0  0  0  0  0  0  0  0  0  0  0  0
  192.3400  174.9100  147.6300 F   0  0  0  0  0  0  0  0  0  0  0  0
  192.7330  175.8630  146.7100 C   0  0  0  0  0  0  0  0  0  0  0  0
  196.2360  173.3500  145.8230 C   0  0  0  0  0  1  0  0  0  0  0  0
  195.3270  172.4290  145.0380 C   0  0  0  0  0  2  0  0  0  0  0  0
  188.7090  177.6530  142.3280 C   0  0  0  0  0  2  0  0  0  0  0  0
  187.4200  178.2600  142.8550 C   0  0  0  0  0  2  0  0  0  0  0  0
  186.5850  177.2490  143.3630 O   0  0  0  0  0  0  0  0  0  0  0  0
  186.2230  177.5880  144.6830 C   0  0  0  0  0  3  0  0  0  0  0  0
  186.2580  176.8190  147.1480 C   0  0  0  0  0  2  0  0  0  0  0  0
  184.7300  177.9570  144.8220 C   0  0  0  0  0  2  0  0  0  0  0  0
  185.5720  179.2880  146.8410 C   0  0  0  0  0  2  0  0  0  0  0  0
  186.7940  176.6110  145.7300 C   0  0  0  0  0  2  0  0  0  0  0  0
  186.3870  178.2630  147.6470 C   0  0  0  0  0  2  0  0  0  0  0  0
  184.3650  178.6670  146.1360 C   0  0  0  0  0  2  0  0  0  0  0  0
  1 21  1  0  0  0  0
  1 13  2  0  0  0  0
  2 25  1  1  0  0  0
  3 20  1  0  0  0  0
  4  3  2  0  0  0  0
  5 19  1  0  0  0  0
  6 21  2  0  0  0  0
  7 13  1  6  0  0  0
  7 22  1  0  0  0  0
  8  7  1  0  0  0  0
  8 10  1  0  0  0  0
  9 12  1  0  0  0  0
 10  2  1  0  0  0  0
 11  8  2  0  0  0  0
 12 18  2  0  0  0  0
 12  5  1  0  0  0  0
 14 10  2  0  0  0  0
 14 16  1  0  0  0  0
 15  2  1  0  0  0  0
 17  9  1  0  0  0  0
 17 24  1  0  0  0  0
 19  3  1  0  0  0  0
 19 14  1  0  0  0  0
 20 34  1  6  0  0  0
 20 16  1  0  0  0  0
 21 11  1  0  0  0  0
 22 23  1  6  0  0  0
 22 15  1  0  0  0  0
 24 11  1  0  0  0  0
 24  5  2  0  0  0  0
 25 31  1  0  0  0  0
 26 27  2  0  0  0  0
 27 25  2  0  0  0  0
 29 31  1  0  0  0  0
 31 28  1  0  0  0  0
 31 30  1  0  0  0  0
 33 26  1  0  0  0  0
 33 32  1  0  0  0  0
 34 35  1  0  0  0  0
 35 36  1  0  0  0  0
 36 37  1  0  0  0  0
 37 39  1  0  0  0  0
 37 41  1  0  0  0  0
 38 42  1  0  0  0  0
 39 43  1  0  0  0  0
 40 42  1  0  0  0  0
 41 38  1  0  0  0  0
 43 40  1  0  0  0  0
M  END
>  <MODEL>
4

>  <REMARK>
 VINA RESULT:      -8.1      1.698      2.387
  Name = 
  7 active torsions:
  status: ('A' for Active; 'I' for Inactive)
    1  A    between atoms: C_1  and  O_31
    2  A    between atoms: C_3  and  C_11
    3  A    between atoms: C_11  and  C_34
    4  A    between atoms: C_16  and  C_28
    5  A    between atoms: C_16  and  O_31
    6  A    between atoms: C_18  and  C_26
    7  A    between atoms: C_28  and  C_39
                            x       y       z     vdW  Elec       q    Type
                         _______ _______ _______ _____ _____    ______ ____

>  <TORSDO>
F 7

$$$$
=
 OpenBabel11062418433D

 43 48  0  0  1  0  0  0  0  0999 V2000
  195.6930  175.3210  139.6180 N   0  0  0  0  0  0  0  0  0  0  0  0
  192.9620  175.4270  143.8880 C   0  0  2  0  0  3  0  0  0  0  0  0
  189.3850  174.5670  141.0430 C   0  0  0  0  0  0  0  0  0  0  0  0
  188.6110  174.3400  140.0750 O   0  0  0  0  0  0  0  0  0  0  0  0
  191.3350  173.1580  140.2860 C   0  0  0  0  0  0  0  0  0  0  0  0
  194.8010  173.6460  138.2760 O   0  0  0  0  0  0  0  0  0  0  0  0
  195.1130  175.1740  141.9560 C   0  0  1  0  0  3  0  0  0  0  0  0
  193.7480  174.6270  141.5720 C   0  0  0  0  0  0  0  0  0  0  0  0
  191.5550  171.1890  139.1000 O   0  0  0  0  0  0  0  0  0  0  0  0
  192.6190  174.8220  142.5460 C   0  0  0  0  0  0  0  0  0  0  0  0
  193.6830  173.9820  140.3750 C   0  0  0  0  0  0  0  0  0  0  0  0
  190.6470  172.0090  139.7360 C   0  0  0  0  0  0  0  0  0  0  0  0
  195.8410  175.8110  140.8090 C   0  0  0  0  0  3  0  0  0  0  0  0
  191.3030  174.7210  142.2470 C   0  0  0  0  0  0  0  0  0  0  0  0
  194.0390  176.4180  143.8250 N   0  0  0  0  0  2  0  0  0  0  0  0
  190.2170  175.2350  143.1520 C   0  0  0  0  0  2  0  0  0  0  0  0
  192.8520  171.7610  139.2190 C   0  0  0  0  0  2  0  0  0  0  0  0
  189.4210  171.7460  139.8450 O   0  0  0  0  0  0  0  0  0  0  0  0
  190.7670  174.2410  141.0230 N   0  0  0  0  0  0  0  0  0  0  0  0
  188.9440  175.2240  142.3050 C   0  0  1  0  0  3  0  0  0  0  0  0
  194.7570  174.2610  139.3740 C   0  0  0  0  0  0  0  0  0  0  0  0
  195.2680  175.7940  143.3550 C   0  0  2  0  0  3  0  0  0  0  0  0
  196.4340  176.7630  143.4820 C   0  0  0  0  0  1  0  0  0  0  0  0
  192.6200  173.0230  140.0160 C   0  0  0  0  0  0  0  0  0  0  0  0
  193.0460  174.4590  145.0430 C   0  0  0  0  0  0  0  0  0  0  0  0
  192.0650  175.2460  147.3320 C   0  0  0  0  0  3  0  0  0  0  0  0
  192.5570  174.8560  146.1890 C   0  0  0  0  0  0  0  0  0  0  0  0
  194.7610  173.0240  144.1950 F   0  0  0  0  0  0  0  0  0  0  0  0
  193.7900  172.4870  146.1430 F   0  0  0  0  0  0  0  0  0  0  0  0
  192.6470  172.2780  144.2110 F   0  0  0  0  0  0  0  0  0  0  0  0
  193.5660  173.0460  144.8980 C   0  0  0  0  0  0  0  0  0  0  0  0
  190.2450  176.8270  146.8930 C   0  0  0  0  0  1  0  0  0  0  0  0
  190.6040  175.4760  147.4740 C   0  0  0  0  0  2  0  0  0  0  0  0
  188.5110  176.6610  142.0460 C   0  0  0  0  0  2  0  0  0  0  0  0
  186.9970  176.7860  142.0530 C   0  0  0  0  0  2  0  0  0  0  0  0
  186.4550  175.9970  143.0820 O   0  0  0  0  0  0  0  0  0  0  0  0
  185.9870  176.8500  144.1030 C   0  0  0  0  0  3  0  0  0  0  0  0
  185.2900  179.2680  144.6830 C   0  0  0  0  0  2  0  0  0  0  0  0
  186.8580  176.7980  145.3760 C   0  0  0  0  0  2  0  0  0  0  0  0
  184.6880  177.5480  146.5110 C   0  0  0  0  0  2  0  0  0  0  0  0
  185.6030  178.2500  143.5840 C   0  0  0  0  0  2  0  0  0  0  0  0
  184.2500  178.7760  145.6970 C   0  0  0  0  0  2  0  0  0  0  0  0
  186.2090  177.4200  146.6240 C   0  0  0  0  0  2  0  0  0  0  0  0
  1 13  2  0  0  0  0
  2 25  1  1  0  0  0
  3 20  1  0  0  0  0
  4  3  2  0  0  0  0
  5 19  1  0  0  0  0
  6 21  2  0  0  0  0
  7 13  1  6  0  0  0
  7 22  1  0  0  0  0
  8  7  1  0  0  0  0
  8 10  1  0  0  0  0
  9 17  1  0  0  0  0
  9 12  1  0  0  0  0
 10  2  1  0  0  0  0
 11  8  2  0  0  0  0
 12 18  2  0  0  0  0
 12  5  1  0  0  0  0
 14 10  2  0  0  0  0
 14 16  1  0  0  0  0
 15  2  1  0  0  0  0
 17 24  1  0  0  0  0
 19  3  1  0  0  0  0
 19 14  1  0  0  0  0
 20 34  1  6  0  0  0
 20 16  1  0  0  0  0
 21  1  1  0  0  0  0
 21 11  1  0  0  0  0
 22 23  1  6  0  0  0
 22 15  1  0  0  0  0
 24  5  2  0  0  0  0
 24 11  1  0  0  0  0
 25 27  2  0  0  0  0
 26 33  1  0  0  0  0
 27 26  2  0  0  0  0
 28 31  1  0  0  0  0
 30 31  1  0  0  0  0
 31 25  1  0  0  0  0
 31 29  1  0  0  0  0
 32 33  1  0  0  0  0
 34 35  1  0  0  0  0
 35 36  1  0  0  0  0
 36 37  1  0  0  0  0
 37 39  1  0  0  0  0
 38 42  1  0  0  0  0
 39 43  1  0  0  0  0
 40 43  1  0  0  0  0
 41 37  1  0  0  0  0
 41 38  1  0  0  0  0
 42 40  1  0  0  0  0
M  END
>  <MODEL>
5

>  <REMARK>
 VINA RESULT:      -8.0      1.965      2.694
  Name = 
  7 active torsions:
  status: ('A' for Active; 'I' for Inactive)
    1  A    between atoms: C_1  and  O_31
    2  A    between atoms: C_3  and  C_11
    3  A    between atoms: C_11  and  C_34
    4  A    between atoms: C_16  and  C_28
    5  A    between atoms: C_16  and  O_31
    6  A    between atoms: C_18  and  C_26
    7  A    between atoms: C_28  and  C_39
                            x       y       z     vdW  Elec       q    Type
                         _______ _______ _______ _____ _____    ______ ____

>  <TORSDO>
F 7

$$$$
=
 OpenBabel11062418433D

 43 48  0  0  1  0  0  0  0  0999 V2000
  194.9720  174.9790  139.4740 N   0  0  0  0  0  0  0  0  0  0  0  0
  192.7900  175.5530  144.0140 C   0  0  2  0  0  3  0  0  0  0  0  0
  188.8300  175.4690  141.5770 C   0  0  0  0  0  0  0  0  0  0  0  0
  187.9280  175.4160  140.7000 O   0  0  0  0  0  0  0  0  0  0  0  0
  190.3680  173.7130  140.6200 C   0  0  0  0  0  0  0  0  0  0  0  0
  193.6260  173.5370  138.2450 O   0  0  0  0  0  0  0  0  0  0  0  0
  194.6290  174.9110  141.8620 C   0  0  1  0  0  3  0  0  0  0  0  0
  193.1480  174.6520  141.6310 C   0  0  0  0  0  0  0  0  0  0  0  0
  190.0630  171.7600  139.4270 O   0  0  0  0  0  0  0  0  0  0  0  0
  192.1920  175.0510  142.7200 C   0  0  0  0  0  0  0  0  0  0  0  0
  192.8280  174.0530  140.4510 C   0  0  0  0  0  0  0  0  0  0  0  0
  189.4100  172.7340  140.1530 C   0  0  0  0  0  0  0  0  0  0  0  0
  195.3420  175.4090  140.6400 C   0  0  0  0  0  3  0  0  0  0  0  0
  190.8580  175.2180  142.5660 C   0  0  0  0  0  0  0  0  0  0  0  0
  194.0300  176.3110  143.8310 N   0  0  0  0  0  2  0  0  0  0  0  0
  189.9990  175.9230  143.5810 C   0  0  0  0  0  2  0  0  0  0  0  0
  191.4530  172.0610  139.4020 C   0  0  0  0  0  2  0  0  0  0  0  0
  188.1750  172.7170  140.3960 O   0  0  0  0  0  0  0  0  0  0  0  0
  190.1090  174.8750  141.4090 N   0  0  0  0  0  0  0  0  0  0  0  0
  188.6670  176.1790  142.8760 C   0  0  1  0  0  3  0  0  0  0  0  0
  193.8240  174.1300  139.3380 C   0  0  0  0  0  0  0  0  0  0  0  0
  195.0520  175.4630  143.2330 C   0  0  2  0  0  3  0  0  0  0  0  0
  196.3940  176.1790  143.2290 C   0  0  0  0  0  1  0  0  0  0  0  0
  191.5630  173.3310  140.2130 C   0  0  0  0  0  0  0  0  0  0  0  0
  192.8020  174.5680  145.1580 C   0  0  0  0  0  0  0  0  0  0  0  0
  191.9070  175.4070  147.4630 C   0  0  0  0  0  3  0  0  0  0  0  0
  192.3560  174.9910  146.3130 C   0  0  0  0  0  0  0  0  0  0  0  0
  192.2080  172.3950  144.3580 F   0  0  0  0  0  0  0  0  0  0  0  0
  194.3560  173.0250  144.2340 F   0  0  0  0  0  0  0  0  0  0  0  0
  193.4260  172.5520  146.2340 F   0  0  0  0  0  0  0  0  0  0  0  0
  193.2030  173.1200  144.9940 C   0  0  0  0  0  0  0  0  0  0  0  0
  189.6150  174.6250  147.0880 C   0  0  0  0  0  1  0  0  0  0  0  0
  190.4700  175.7550  147.6200 C   0  0  0  0  0  2  0  0  0  0  0  0
  188.5030  177.6770  142.6580 C   0  0  0  0  0  2  0  0  0  0  0  0
  187.0680  178.1120  142.8980 C   0  0  0  0  0  2  0  0  0  0  0  0
  186.3650  177.0980  143.5740 O   0  0  0  0  0  0  0  0  0  0  0  0
  186.1370  177.5180  144.9000 C   0  0  0  0  0  3  0  0  0  0  0  0
  186.4150  176.8980  147.3920 C   0  0  0  0  0  2  0  0  0  0  0  0
  184.6670  177.9090  145.1640 C   0  0  0  0  0  2  0  0  0  0  0  0
  185.7100  179.3500  147.0060 C   0  0  0  0  0  2  0  0  0  0  0  0
  186.8070  176.6000  145.9430 C   0  0  0  0  0  2  0  0  0  0  0  0
  186.5970  178.3680  147.7870 C   0  0  0  0  0  2  0  0  0  0  0  0
  184.4360  178.6990  146.4620 C   0  0  0  0  0  2  0  0  0  0  0  0
  1 13  2  0  0  0  0
  2 25  1  1  0  0  0
  3 20  1  0  0  0  0
  4  3  2  0  0  0  0
  5 19  1  0  0  0  0
  6 21  2  0  0  0  0
  7 13  1  6  0  0  0
  7 22  1  0  0  0  0
  8  7  1  0  0  0  0
  8 10  1  0  0  0  0
  9 12  1  0  0  0  0
 10  2  1  0  0  0  0
 11  8  2  0  0  0  0
 12 18  2  0  0  0  0
 12  5  1  0  0  0  0
 14 10  2  0  0  0  0
 14 16  1  0  0  0  0
 15  2  1  0  0  0  0
 17  9  1  0  0  0  0
 17 24  1  0  0  0  0
 19  3  1  0  0  0  0
 19 14  1  0  0  0  0
 20 34  1  6  0  0  0
 20 16  1  0  0  0  0
 21  1  1  0  0  0  0
 21 11  1  0  0  0  0
 22 23  1  6  0  0  0
 22 15  1  0  0  0  0
 24 11  1  0  0  0  0
 24  5  2  0  0  0  0
 25 27  2  0  0  0  0
 26 33  1  0  0  0  0
 27 26  2  0  0  0  0
 28 31  1  0  0  0  0
 29 31  1  0  0  0  0
 31 25  1  0  0  0  0
 31 30  1  0  0  0  0
 32 33  1  0  0  0  0
 34 35  1  0  0  0  0
 35 36  1  0  0  0  0
 36 37  1  0  0  0  0
 37 39  1  0  0  0  0
 37 41  1  0  0  0  0
 38 42  1  0  0  0  0
 39 43  1  0  0  0  0
 40 42  1  0  0  0  0
 41 38  1  0  0  0  0
 43 40  1  0  0  0  0
M  END
>  <MODEL>
6

>  <REMARK>
 VINA RESULT:      -8.0      1.855      2.709
  Name = 
  7 active torsions:
  status: ('A' for Active; 'I' for Inactive)
    1  A    between atoms: C_1  and  O_31
    2  A    between atoms: C_3  and  C_11
    3  A    between atoms: C_11  and  C_34
    4  A    between atoms: C_16  and  C_28
    5  A    between atoms: C_16  and  O_31
    6  A    between atoms: C_18  and  C_26
    7  A    between atoms: C_28  and  C_39
                            x       y       z     vdW  Elec       q    Type
                         _______ _______ _______ _____ _____    ______ ____

>  <TORSDO>
F 7

$$$$
=
 OpenBabel11062418433D

 43 48  0  0  1  0  0  0  0  0999 V2000
  196.5420  173.8680  145.6380 N   0  0  0  0  0  0  0  0  0  0  0  0
  191.9620  175.6040  144.3320 C   0  0  2  0  0  3  0  0  0  0  0  0
  191.9740  171.9990  141.3920 C   0  0  0  0  0  0  0  0  0  0  0  0
  192.2280  170.9750  140.7050 O   0  0  0  0  0  0  0  0  0  0  0  0
  192.9550  171.2200  143.5810 C   0  0  0  0  0  0  0  0  0  0  0  0
  196.4290  171.5470  145.6090 O   0  0  0  0  0  0  0  0  0  0  0  0
  194.4120  174.9940  145.7640 C   0  0  1  0  0  3  0  0  0  0  0  0
  193.7920  173.8930  144.9180 C   0  0  0  0  0  0  0  0  0  0  0  0
  193.1620  169.1750  144.6330 O   0  0  0  0  0  0  0  0  0  0  0  0
  192.5620  174.2330  144.1210 C   0  0  0  0  0  0  0  0  0  0  0  0
  194.4060  172.6800  144.9810 C   0  0  0  0  0  0  0  0  0  0  0  0
  192.5570  169.8280  143.5800 C   0  0  0  0  0  0  0  0  0  0  0  0
  195.9110  174.9970  145.7280 C   0  0  0  0  0  3  0  0  0  0  0  0
  192.0860  173.5170  143.0760 C   0  0  0  0  0  0  0  0  0  0  0  0
  192.9570  176.6450  144.6000 N   0  0  0  0  0  2  0  0  0  0  0  0
  191.0610  174.0570  142.1160 C   0  0  0  0  0  2  0  0  0  0  0  0
  193.9590  170.1070  145.3550 C   0  0  0  0  0  2  0  0  0  0  0  0
  191.7490  169.2800  142.7860 O   0  0  0  0  0  0  0  0  0  0  0  0
  192.5510  172.2400  142.6670 N   0  0  0  0  0  0  0  0  0  0  0  0
  191.0610  173.0840  140.9360 C   0  0  1  0  0  3  0  0  0  0  0  0
  195.8230  172.6400  145.4560 C   0  0  0  0  0  0  0  0  0  0  0  0
  193.6780  176.3440  145.8290 C   0  0  2  0  0  3  0  0  0  0  0  0
  194.5650  177.5170  146.2200 C   0  0  0  0  0  1  0  0  0  0  0  0
  193.7520  171.4080  144.6160 C   0  0  0  0  0  0  0  0  0  0  0  0
  190.7280  175.6550  145.2010 C   0  0  0  0  0  0  0  0  0  0  0  0
  188.9960  177.5440  144.7030 C   0  0  0  0  0  3  0  0  0  0  0  0
  189.8630  176.6030  144.9520 C   0  0  0  0  0  0  0  0  0  0  0  0
  189.2600  174.9310  146.9430 F   0  0  0  0  0  0  0  0  0  0  0  0
  190.2390  173.3750  145.6610 F   0  0  0  0  0  0  0  0  0  0  0  0
  191.4570  174.5410  147.1590 F   0  0  0  0  0  0  0  0  0  0  0  0
  190.4180  174.6130  146.2520 C   0  0  0  0  0  0  0  0  0  0  0  0
  189.2070  177.6480  142.2630 C   0  0  0  0  0  1  0  0  0  0  0  0
  188.2400  177.5400  143.4230 C   0  0  0  0  0  2  0  0  0  0  0  0
  191.6280  173.7920  139.7130 C   0  0  0  0  0  2  0  0  0  0  0  0
  193.1350  173.6250  139.6330 C   0  0  0  0  0  2  0  0  0  0  0  0
  193.7520  174.8820  139.5010 O   0  0  0  0  0  0  0  0  0  0  0  0
  194.8080  174.9630  140.4310 C   0  0  0  0  0  3  0  0  0  0  0  0
  196.3090  173.6210  142.0480 C   0  0  0  0  0  2  0  0  0  0  0  0
  194.5570  176.0110  141.5370 C   0  0  0  0  0  2  0  0  0  0  0  0
  197.1160  176.0410  141.6510 C   0  0  0  0  0  2  0  0  0  0  0  0
  195.3110  173.5790  140.8890 C   0  0  0  0  0  2  0  0  0  0  0  0
  197.4970  174.5590  141.8010 C   0  0  0  0  0  2  0  0  0  0  0  0
  195.8020  176.3910  142.3550 C   0  0  0  0  0  2  0  0  0  0  0  0
  1 13  2  0  0  0  0
  2 15  1  0  0  0  0
  2 25  1  1  0  0  0
  3 19  1  0  0  0  0
  4  3  2  0  0  0  0
  5 24  2  0  0  0  0
  7 13  1  6  0  0  0
  7 22  1  0  0  0  0
  8 11  2  0  0  0  0
  8  7  1  0  0  0  0
  9 17  1  0  0  0  0
 10  2  1  0  0  0  0
 10  8  1  0  0  0  0
 11 21  1  0  0  0  0
 12  5  1  0  0  0  0
 12  9  1  0  0  0  0
 14 10  2  0  0  0  0
 15 22  1  0  0  0  0
 16 14  1  0  0  0  0
 18 12  2  0  0  0  0
 19 14  1  0  0  0  0
 19  5  1  0  0  0  0
 20 34  1  6  0  0  0
 20  3  1  0  0  0  0
 20 16  1  0  0  0  0
 21  6  2  0  0  0  0
 21  1  1  0  0  0  0
 22 23  1  6  0  0  0
 24 11  1  0  0  0  0
 24 17  1  0  0  0  0
 25 31  1  0  0  0  0
 26 27  2  0  0  0  0
 27 25  2  0  0  0  0
 29 31  1  0  0  0  0
 31 28  1  0  0  0  0
 31 30  1  0  0  0  0
 32 33  1  0  0  0  0
 33 26  1  0  0  0  0
 35 34  1  0  0  0  0
 36 35  1  0  0  0  0
 36 37  1  0  0  0  0
 37 41  1  0  0  0  0
 37 39  1  0  0  0  0
 39 43  1  0  0  0  0
 40 42  1  0  0  0  0
 40 43  1  0  0  0  0
 41 38  1  0  0  0  0
 42 38  1  0  0  0  0
M  END
>  <MODEL>
7

>  <REMARK>
 VINA RESULT:      -7.3      2.816      6.373
  Name = 
  7 active torsions:
  status: ('A' for Active; 'I' for Inactive)
    1  A    between atoms: C_1  and  O_31
    2  A    between atoms: C_3  and  C_11
    3  A    between atoms: C_11  and  C_34
    4  A    between atoms: C_16  and  C_28
    5  A    between atoms: C_16  and  O_31
    6  A    between atoms: C_18  and  C_26
    7  A    between atoms: C_28  and  C_39
                            x       y       z     vdW  Elec       q    Type
                         _______ _______ _______ _____ _____    ______ ____

>  <TORSDO>
F 7

$$$$
=
 OpenBabel11062418433D

 43 48  0  0  1  0  0  0  0  0999 V2000
  184.8160  177.5910  144.7240 N   0  0  0  0  0  0  0  0  0  0  0  0
  189.6710  176.1440  144.9300 C   0  0  2  0  0  3  0  0  0  0  0  0
  188.5620  173.6040  141.1950 C   0  0  0  0  0  0  0  0  0  0  0  0
  188.0100  173.0270  140.2200 O   0  0  0  0  0  0  0  0  0  0  0  0
  187.4490  175.8550  140.9610 C   0  0  0  0  0  0  0  0  0  0  0  0
  184.2610  177.8100  142.4780 O   0  0  0  0  0  0  0  0  0  0  0  0
  187.1820  177.6130  145.1990 C   0  0  1  0  0  3  0  0  0  0  0  0
  187.4420  176.8940  143.8850 C   0  0  0  0  0  0  0  0  0  0  0  0
  186.6910  177.1170  139.1810 O   0  0  0  0  0  0  0  0  0  0  0  0
  188.6990  176.0760  143.7740 C   0  0  0  0  0  0  0  0  0  0  0  0
  186.5080  177.0810  142.9120 C   0  0  0  0  0  0  0  0  0  0  0  0
  187.4330  176.0050  139.5210 C   0  0  0  0  0  0  0  0  0  0  0  0
  185.7450  177.5660  145.6280 C   0  0  0  0  0  3  0  0  0  0  0  0
  188.9270  175.1160  142.8470 C   0  0  0  0  0  0  0  0  0  0  0  0
  189.0200  176.2920  146.2340 N   0  0  0  0  0  2  0  0  0  0  0  0
  190.0410  174.1120  142.9680 C   0  0  0  0  0  2  0  0  0  0  0  0
  186.2110  177.7290  140.3730 C   0  0  0  0  0  2  0  0  0  0  0  0
  188.0330  175.2810  138.6850 O   0  0  0  0  0  0  0  0  0  0  0  0
  188.1070  174.8420  141.7210 N   0  0  0  0  0  0  0  0  0  0  0  0
  189.7360  173.0420  141.9190 C   0  0  1  0  0  3  0  0  0  0  0  0
  185.1500  177.5460  143.3300 C   0  0  0  0  0  0  0  0  0  0  0  0
  188.2720  177.5410  146.2820 C   0  0  2  0  0  3  0  0  0  0  0  0
  187.7660  177.7980  147.6930 C   0  0  0  0  0  1  0  0  0  0  0  0
  186.7630  176.8580  141.4760 C   0  0  0  0  0  0  0  0  0  0  0  0
  190.8870  177.0120  144.7150 C   0  0  0  0  0  0  0  0  0  0  0  0
  192.9540  176.5690  146.2490 C   0  0  0  0  0  3  0  0  0  0  0  0
  191.9200  176.7910  145.4860 C   0  0  0  0  0  0  0  0  0  0  0  0
  191.9420  178.9920  143.8880 F   0  0  0  0  0  0  0  0  0  0  0  0
  191.3400  177.4120  142.4170 F   0  0  0  0  0  0  0  0  0  0  0  0
  189.7700  178.6660  143.4400 F   0  0  0  0  0  0  0  0  0  0  0  0
  190.9860  178.0300  143.6020 C   0  0  0  0  0  0  0  0  0  0  0  0
  195.0450  175.5410  145.4910 C   0  0  0  0  0  1  0  0  0  0  0  0
  193.7000  175.2890  146.1380 C   0  0  0  0  0  2  0  0  0  0  0  0
  189.3670  171.7460  142.6290 C   0  0  0  0  0  2  0  0  0  0  0  0
  190.6000  170.9050  142.9100 C   0  0  0  0  0  2  0  0  0  0  0  0
  191.6250  171.2380  142.0060 O   0  0  0  0  0  0  0  0  0  0  0  0
  192.7930  171.5300  142.7390 C   0  0  0  0  0  3  0  0  0  0  0  0
  193.7720  171.8810  145.1030 C   0  0  0  0  0  2  0  0  0  0  0  0
  193.4990  172.8160  142.2580 C   0  0  0  0  0  2  0  0  0  0  0  0
  195.5650  171.6770  143.2570 C   0  0  0  0  0  2  0  0  0  0  0  0
  192.5990  171.3750  144.2620 C   0  0  0  0  0  2  0  0  0  0  0  0
  195.1260  171.2980  144.6810 C   0  0  0  0  0  2  0  0  0  0  0  0
  194.9390  172.9860  142.7700 C   0  0  0  0  0  2  0  0  0  0  0  0
  1 13  2  0  0  0  0
  2 25  1  6  0  0  0
  2 15  1  0  0  0  0
  3 19  1  0  0  0  0
  3 20  1  0  0  0  0
  4  3  2  0  0  0  0
  5 24  2  0  0  0  0
  5 19  1  0  0  0  0
  6 21  2  0  0  0  0
  7 13  1  1  0  0  0
  7 22  1  0  0  0  0
  8  7  1  0  0  0  0
  9 12  1  0  0  0  0
  9 17  1  0  0  0  0
 10  8  1  0  0  0  0
 10  2  1  0  0  0  0
 11 21  1  0  0  0  0
 11  8  2  0  0  0  0
 12  5  1  0  0  0  0
 14 16  1  0  0  0  0
 14 10  2  0  0  0  0
 15 22  1  0  0  0  0
 17 24  1  0  0  0  0
 18 12  2  0  0  0  0
 19 14  1  0  0  0  0
 20 34  1  1  0  0  0
 20 16  1  0  0  0  0
 21  1  1  0  0  0  0
 22 23  1  1  0  0  0
 24 11  1  0  0  0  0
 25 27  2  0  0  0  0
 27 26  2  0  0  0  0
 29 31  1  0  0  0  0
 30 31  1  0  0  0  0
 31 28  1  0  0  0  0
 31 25  1  0  0  0  0
 32 33  1  0  0  0  0
 33 26  1  0  0  0  0
 34 35  1  0  0  0  0
 36 37  1  0  0  0  0
 36 35  1  0  0  0  0
 37 41  1  0  0  0  0
 39 37  1  0  0  0  0
 39 43  1  0  0  0  0
 40 42  1  0  0  0  0
 41 38  1  0  0  0  0
 42 38  1  0  0  0  0
 43 40  1  0  0  0  0
M  END
>  <MODEL>
8

>  <REMARK>
 VINA RESULT:      -7.3      2.542      6.863
  Name = 
  7 active torsions:
  status: ('A' for Active; 'I' for Inactive)
    1  A    between atoms: C_1  and  O_31
    2  A    between atoms: C_3  and  C_11
    3  A    between atoms: C_11  and  C_34
    4  A    between atoms: C_16  and  C_28
    5  A    between atoms: C_16  and  O_31
    6  A    between atoms: C_18  and  C_26
    7  A    between atoms: C_28  and  C_39
                            x       y       z     vdW  Elec       q    Type
                         _______ _______ _______ _____ _____    ______ ____

>  <TORSDO>
F 7

$$$$
=
 OpenBabel11062418433D

 43 48  0  0  1  0  0  0  0  0999 V2000
  195.0280  176.2270  145.0420 N   0  0  0  0  0  0  0  0  0  0  0  0
  190.6250  175.2670  142.7200 C   0  0  2  0  0  3  0  0  0  0  0  0
  192.8190  171.4590  141.1990 C   0  0  0  0  0  0  0  0  0  0  0  0
  193.6260  170.5290  140.9330 O   0  0  0  0  0  0  0  0  0  0  0  0
  193.4460  171.8020  143.6180 C   0  0  0  0  0  0  0  0  0  0  0  0
  195.8660  174.1920  145.7900 O   0  0  0  0  0  0  0  0  0  0  0  0
  192.6680  176.2380  144.5390 C   0  0  1  0  0  3  0  0  0  0  0  0
  192.7760  174.8010  144.0530 C   0  0  0  0  0  0  0  0  0  0  0  0
  194.1840  170.4240  145.3170 O   0  0  0  0  0  0  0  0  0  0  0  0
  191.7560  174.3230  143.0560 C   0  0  0  0  0  0  0  0  0  0  0  0
  193.7880  174.0670  144.5920 C   0  0  0  0  0  0  0  0  0  0  0  0
  193.6530  170.4340  144.0440 C   0  0  0  0  0  0  0  0  0  0  0  0
  193.9970  176.9210  144.6720 C   0  0  0  0  0  3  0  0  0  0  0  0
  191.8860  173.2300  142.2690 C   0  0  0  0  0  0  0  0  0  0  0  0
  191.0170  176.6780  142.7290 N   0  0  0  0  0  2  0  0  0  0  0  0
  191.0080  172.9740  141.0740 C   0  0  0  0  0  2  0  0  0  0  0  0
  194.3310  171.7670  145.7640 C   0  0  0  0  0  2  0  0  0  0  0  0
  193.3600  169.3950  143.3980 O   0  0  0  0  0  0  0  0  0  0  0  0
  192.9100  172.2520  142.3730 N   0  0  0  0  0  0  0  0  0  0  0  0
  191.6940  171.8460  140.3020 C   0  0  1  0  0  3  0  0  0  0  0  0
  194.9330  174.8050  145.2080 C   0  0  0  0  0  0  0  0  0  0  0  0
  191.4640  177.0660  144.0590 C   0  0  2  0  0  3  0  0  0  0  0  0
  191.6770  178.5710  144.1260 C   0  0  0  0  0  1  0  0  0  0  0  0
  193.8130  172.5910  144.6090 C   0  0  0  0  0  0  0  0  0  0  0  0
  189.2990  174.9650  143.3770 C   0  0  0  0  0  0  0  0  0  0  0  0
  189.3160  174.5290  145.9510 C   0  0  0  0  0  3  0  0  0  0  0  0
  189.3100  174.7440  144.6650 C   0  0  0  0  0  0  0  0  0  0  0  0
  187.0150  175.6700  143.3740 F   0  0  0  0  0  0  0  0  0  0  0  0
  188.1340  175.6760  141.4310 F   0  0  0  0  0  0  0  0  0  0  0  0
  187.5390  173.7240  142.3910 F   0  0  0  0  0  0  0  0  0  0  0  0
  187.9830  175.0100  142.6340 C   0  0  0  0  0  0  0  0  0  0  0  0
  190.9520  175.2880  147.6110 C   0  0  0  0  0  1  0  0  0  0  0  0
  189.6660  175.6280  146.8880 C   0  0  0  0  0  2  0  0  0  0  0  0
  192.2170  172.3990  138.9830 C   0  0  0  0  0  2  0  0  0  0  0  0
  192.9170  173.7310  139.1860 C   0  0  0  0  0  2  0  0  0  0  0  0
  194.2870  173.6030  138.8970 O   0  0  0  0  0  0  0  0  0  0  0  0
  195.0210  174.2950  139.8820 C   0  0  0  0  0  3  0  0  0  0  0  0
  196.4780  174.0430  141.9990 C   0  0  0  0  0  2  0  0  0  0  0  0
  194.1970  175.3960  140.5830 C   0  0  0  0  0  2  0  0  0  0  0  0
  196.5070  176.4210  140.9980 C   0  0  0  0  0  2  0  0  0  0  0  0
  195.8360  173.3550  140.7930 C   0  0  0  0  0  2  0  0  0  0  0  0
  197.3120  175.2750  141.6300 C   0  0  0  0  0  2  0  0  0  0  0  0
  195.0300  176.4010  141.3960 C   0  0  0  0  0  2  0  0  0  0  0  0
  1 21  1  0  0  0  0
  2 15  1  0  0  0  0
  2 10  1  0  0  0  0
  2 25  1  1  0  0  0
  3 19  1  0  0  0  0
  4  3  2  0  0  0  0
  5 12  1  0  0  0  0
  5 24  2  0  0  0  0
  7 13  1  6  0  0  0
  8  7  1  0  0  0  0
  8 11  2  0  0  0  0
  9 17  1  0  0  0  0
 10  8  1  0  0  0  0
 11 24  1  0  0  0  0
 11 21  1  0  0  0  0
 12  9  1  0  0  0  0
 13  1  2  0  0  0  0
 14 19  1  0  0  0  0
 14 10  2  0  0  0  0
 15 22  1  0  0  0  0
 16 14  1  0  0  0  0
 18 12  2  0  0  0  0
 19  5  1  0  0  0  0
 20 34  1  6  0  0  0
 20 16  1  0  0  0  0
 20  3  1  0  0  0  0
 21  6  2  0  0  0  0
 22 23  1  6  0  0  0
 22  7  1  0  0  0  0
 24 17  1  0  0  0  0
 25 27  2  0  0  0  0
 26 33  1  0  0  0  0
 27 26  2  0  0  0  0
 29 31  1  0  0  0  0
 30 31  1  0  0  0  0
 31 28  1  0  0  0  0
 31 25  1  0  0  0  0
 33 32  1  0  0  0  0
 34 35  1  0  0  0  0
 36 35  1  0  0  0  0
 36 37  1  0  0  0  0
 37 39  1  0  0  0  0
 37 41  1  0  0  0  0
 39 43  1  0  0  0  0
 40 43  1  0  0  0  0
 40 42  1  0  0  0  0
 41 38  1  0  0  0  0
 42 38  1  0  0  0  0
M  END
>  <MODEL>
9

>  <REMARK>
 VINA RESULT:      -7.0      3.500      6.608
  Name = 
  7 active torsions:
  status: ('A' for Active; 'I' for Inactive)
    1  A    between atoms: C_1  and  O_31
    2  A    between atoms: C_3  and  C_11
    3  A    between atoms: C_11  and  C_34
    4  A    between atoms: C_16  and  C_28
    5  A    between atoms: C_16  and  O_31
    6  A    between atoms: C_18  and  C_26
    7  A    between atoms: C_28  and  C_39
                            x       y       z     vdW  Elec       q    Type
                         _______ _______ _______ _____ _____    ______ ____

>  <TORSDO>
F 7

$$$$
