=
 OpenBabel11062420303D

 53 59  0  0  1  0  0  0  0  0999 V2000
  197.0270  172.1330  143.4320 C   0  0  0  0  0  2  0  0  0  0  0  0
  194.6850  171.5470  144.8600 C   0  0  2  0  0  3  0  0  0  0  0  0
  196.2250  173.9840  139.1970 C   0  0  2  0  0  3  0  0  0  0  0  0
  192.8080  172.3500  143.3710 C   0  0  0  0  0  3  0  0  0  0  0  0
  193.9130  173.2000  139.6970 C   0  0  0  0  0  2  0  0  0  0  0  0
  195.0500  174.1020  140.1510 C   0  0  1  0  0  3  0  0  0  0  0  0
  197.4750  173.7920  140.0450 C   0  0  1  0  0  3  0  0  0  0  0  0
  196.7970  173.0450  144.6450 C   0  0  1  0  0  3  0  0  0  0  0  0
  195.5450  173.6330  141.4880 C   0  0  0  0  0  2  0  0  0  0  0  0
  195.5430  173.8760  144.4800 C   0  0  1  0  0  3  0  0  0  0  0  0
  197.1990  175.1310  139.3850 C   0  0  1  0  0  3  0  0  0  0  0  0
  197.8150  172.7920  142.2980 C   0  0  0  0  0  2  0  0  0  0  0  0
  195.5260  172.6990  145.4410 C   0  0  1  0  0  3  0  0  0  0  0  0
  193.0830  171.5760  142.3150 C   0  0  0  0  0  3  0  0  0  0  0  0
  193.2090  171.9250  144.7580 C   0  0  0  0  0  2  0  0  0  0  0  0
  192.8600  173.2420  140.6170 O   0  0  0  0  0  0  0  0  0  0  0  0
  192.5860  171.9020  140.9240 C   0  0  2  0  0  3  0  0  0  0  0  0
  197.0440  173.8440  141.4970 C   0  0  1  0  0  3  0  0  0  0  0  0
  194.7550  175.5080  146.3160 C   0  0  0  0  0  2  0  0  0  0  0  0
  194.1050  176.8270  145.9120 C   0  0  2  0  0  3  0  0  0  0  0  0
  196.6990  176.7940  143.6380 O   0  0  0  0  0  1  0  0  0  0  0  0
  193.0340  176.6860  143.5790 C   0  0  0  0  0  2  0  0  0  0  0  0
  192.7960  176.6030  145.0970 C   0  0  1  0  0  3  0  0  0  0  0  0
  194.4190  176.1500  143.1650 C   0  0  0  0  0  2  0  0  0  0  0  0
  195.0500  177.4730  145.0880 O   0  0  0  0  0  0  0  0  0  0  0  0
  195.7260  175.2340  145.1750 C   0  0  2  0  0  3  0  0  0  0  0  0
  195.4980  176.4310  144.2480 C   0  0  2  0  0  0  0  0  0  0  0  0
  192.0550  175.3100  145.4560 C   0  0  0  0  0  2  0  0  0  0  0  0
  188.0040  175.7970  146.7310 N   0  0  0  0  0  0  0  0  0  0  0  0
  188.8160  174.9080  147.3640 C   0  0  0  0  0  3  0  0  0  0  0  0
  189.7630  176.4300  145.2490 C   0  0  0  0  0  3  0  0  0  0  0  0
  190.6220  175.5100  145.8740 C   0  0  0  0  0  0  0  0  0  0  0  0
  190.1400  174.7500  146.9470 C   0  0  0  0  0  3  0  0  0  0  0  0
  188.4490  176.5740  145.7060 C   0  0  0  0  0  0  0  0  0  0  0  0
  187.5370  177.5510  145.0540 C   0  0  0  0  0  2  0  0  0  0  0  0
  184.4630  178.8610  146.4820 O   0  0  0  0  0  0  0  0  0  0  0  0
  185.4300  179.5870  144.4400 C   0  0  0  0  0  1  0  0  0  0  0  0
  186.2730  177.5930  145.7750 N   0  0  0  0  0  2  0  0  0  0  0  0
  185.3360  178.6570  145.5990 C   0  0  0  0  0  0  0  0  0  0  0  0
  194.0010  169.1650  145.2140 C   0  0  0  0  0  1  0  0  0  0  0  0
  194.8130  170.3220  145.7560 C   0  0  0  0  0  2  0  0  0  0  0  0
  197.6970  174.1230  137.4460 C   0  0  0  0  0  1  0  0  0  0  0  0
  197.9410  175.2750  138.2120 O   0  0  0  0  0  0  0  0  0  0  0  0
  191.0790  171.5920  140.7570 C   0  0  2  0  0  3  0  0  0  0  0  0
  190.2990  169.4660  139.6760 O   0  0  0  0  0  1  0  0  0  0  0  0
  191.1490  171.1760  138.4040 O   0  0  0  0  0  0  0  0  0  0  0  0
  190.8480  170.7350  139.5440 C   0  0  0  0  0  0  0  0  0  0  0  0
  190.2360  172.8750  140.6470 C   0  0  2  0  0  3  0  0  0  0  0  0
  190.1090  173.4880  141.8930 O   0  0  0  0  0  1  0  0  0  0  0  0
  188.8360  172.5710  140.1220 C   0  0  0  0  0  2  0  0  0  0  0  0
  188.4860  173.3510  137.8990 O   0  0  0  0  0  0  0  0  0  0  0  0
  188.0660  174.8790  139.5560 O   0  0  0  0  0  1  0  0  0  0  0  0
  188.4170  173.6030  139.1320 C   0  0  0  0  0  0  0  0  0  0  0  0
  1  8  1  0  0  0  0
  2 13  1  0  0  0  0
  2 41  1  1  0  0  0
  3 11  1  0  0  0  0
  3  7  1  0  0  0  0
  3  6  1  0  0  0  0
  4 15  1  0  0  0  0
  5  6  1  0  0  0  0
  5 16  1  0  0  0  0
  6  9  1  0  0  0  0
  7 18  1  0  0  0  0
  8 13  1  0  0  0  0
  9 18  1  0  0  0  0
 10  8  1  0  0  0  0
 10 26  1  0  0  0  0
 10 13  1  0  0  0  0
 11  7  1  0  0  0  0
 12  1  1  0  0  0  0
 14  4  2  0  0  0  0
 15  2  1  0  0  0  0
 16 17  1  0  0  0  0
 17 14  1  0  0  0  0
 18 12  1  0  0  0  0
 20 19  1  0  0  0  0
 21 27  1  0  0  0  0
 22 23  1  0  0  0  0
 23 28  1  0  0  0  0
 23 20  1  0  0  0  0
 24 22  1  0  0  0  0
 24 27  1  0  0  0  0
 25 20  1  0  0  0  0
 26 19  1  0  0  0  0
 27 25  1  0  0  0  0
 27 26  1  0  0  0  0
 28 32  1  0  0  0  0
 29 30  1  0  0  0  0
 31 34  1  0  0  0  0
 31 32  2  0  0  0  0
 32 33  1  0  0  0  0
 33 30  2  0  0  0  0
 34 29  2  0  0  0  0
 35 34  1  0  0  0  0
 35 38  1  0  0  0  0
 37 39  1  0  0  0  0
 39 38  1  0  0  0  0
 39 36  2  0  0  0  0
 40 41  1  0  0  0  0
 42 43  1  0  0  0  0
 43 11  1  0  0  0  0
 44 17  1  0  0  0  0
 46 47  2  0  0  0  0
 47 45  1  0  0  0  0
 47 44  1  0  0  0  0
 48 44  1  0  0  0  0
 48 49  1  0  0  0  0
 50 48  1  0  0  0  0
 51 53  2  0  0  0  0
 53 52  1  0  0  0  0
 53 50  1  0  0  0  0
M  END
>  <MODEL>
1

>  <REMARK>
 VINA RESULT:      -7.7      0.000      0.000
  Name = 
  12 active torsions:
  status: ('A' for Active; 'I' for Inactive)
    1  A    between atoms: C_4  and  C_52
    2  A    between atoms: C_14  and  C_41
    3  A    between atoms: C_14  and  C_45
    4  A    between atoms: C_14  and  C_48
    5  A    between atoms: N_15  and  C_47
    6  A    between atoms: C_20  and  C_51
    7  A    between atoms: C_25  and  C_35
    8  A    between atoms: C_28  and  O_50
    9  A    between atoms: C_32  and  C_44
   10  A    between atoms: C_37  and  C_51
   11  A    between atoms: C_41  and  C_44
   12  A    between atoms: C_47  and  C_49
                            x       y       z     vdW  Elec       q    Type
                         _______ _______ _______ _____ _____    ______ ____

>  <TORSDO>
F 12

$$$$
=
 OpenBabel11062420303D

 53 59  0  0  1  0  0  0  0  0999 V2000
  191.6810  171.2590  143.7810 C   0  0  0  0  0  2  0  0  0  0  0  0
  190.5620  173.2610  142.1680 C   0  0  2  0  0  3  0  0  0  0  0  0
  196.3490  171.5440  144.1540 C   0  0  2  0  0  3  0  0  0  0  0  0
  192.5200  174.7100  141.4930 C   0  0  0  0  0  3  0  0  0  0  0  0
  196.0360  173.1310  142.2590 C   0  0  0  0  0  2  0  0  0  0  0  0
  195.6890  172.8370  143.7100 C   0  0  1  0  0  3  0  0  0  0  0  0
  195.2830  170.7130  144.8550 C   0  0  1  0  0  3  0  0  0  0  0  0
  190.8570  172.2930  144.5610 C   0  0  1  0  0  3  0  0  0  0  0  0
  194.2090  172.6140  143.8250 C   0  0  0  0  0  2  0  0  0  0  0  0
  191.4750  173.6710  144.4710 C   0  0  1  0  0  3  0  0  0  0  0  0
  196.3530  171.4240  145.6660 C   0  0  1  0  0  3  0  0  0  0  0  0
  192.8100  170.6230  144.5950 C   0  0  0  0  0  2  0  0  0  0  0  0
  190.2210  173.3710  143.6660 C   0  0  1  0  0  3  0  0  0  0  0  0
  193.2310  173.7610  140.8740 C   0  0  0  0  0  3  0  0  0  0  0  0
  191.0220  174.6010  141.5970 C   0  0  0  0  0  2  0  0  0  0  0  0
  195.3640  174.2770  141.8200 O   0  0  0  0  0  0  0  0  0  0  0  0
  194.7190  173.8940  140.6360 C   0  0  2  0  0  3  0  0  0  0  0  0
  194.0100  171.5340  144.8660 C   0  0  1  0  0  3  0  0  0  0  0  0
  189.7780  174.9730  145.9140 C   0  0  0  0  0  2  0  0  0  0  0  0
  189.9790  176.4680  146.1350 C   0  0  2  0  0  3  0  0  0  0  0  0
  193.2390  175.4250  146.5610 O   0  0  0  0  0  1  0  0  0  0  0  0
  191.3460  177.5350  144.2370 C   0  0  0  0  0  2  0  0  0  0  0  0
  189.9380  177.2630  144.7940 C   0  0  1  0  0  3  0  0  0  0  0  0
  192.3370  176.3940  144.5400 C   0  0  0  0  0  2  0  0  0  0  0  0
  191.2660  176.5940  146.6990 O   0  0  0  0  0  0  0  0  0  0  0  0
  191.2000  174.4480  145.7670 C   0  0  2  0  0  3  0  0  0  0  0  0
  192.0420  175.7190  145.9090 C   0  0  2  0  0  0  0  0  0  0  0  0
  189.0480  176.6250  143.7220 C   0  0  0  0  0  2  0  0  0  0  0  0
  185.4510  178.7610  142.8380 N   0  0  0  0  0  0  0  0  0  0  0  0
  186.3930  178.5800  141.8720 C   0  0  0  0  0  3  0  0  0  0  0  0
  186.7720  177.5620  144.4230 C   0  0  0  0  0  3  0  0  0  0  0  0
  187.7690  177.3730  143.4500 C   0  0  0  0  0  0  0  0  0  0  0  0
  187.5670  177.8820  142.1610 C   0  0  0  0  0  3  0  0  0  0  0  0
  185.6010  178.2520  144.0910 C   0  0  0  0  0  0  0  0  0  0  0  0
  184.5400  178.4500  145.1130 C   0  0  0  0  0  2  0  0  0  0  0  0
  186.0230  177.0270  148.1100 O   0  0  0  0  0  0  0  0  0  0  0  0
  185.8770  179.3470  147.6370 C   0  0  0  0  0  1  0  0  0  0  0  0
  184.7650  177.5450  146.2310 N   0  0  0  0  0  2  0  0  0  0  0  0
  185.5430  177.9220  147.3670 C   0  0  0  0  0  0  0  0  0  0  0  0
  188.1250  172.7070  142.3080 C   0  0  0  0  0  1  0  0  0  0  0  0
  189.3310  172.8010  141.3980 C   0  0  0  0  0  2  0  0  0  0  0  0
  196.7660  169.5440  146.8150 C   0  0  0  0  0  1  0  0  0  0  0  0
  197.3710  170.5440  146.0350 O   0  0  0  0  0  0  0  0  0  0  0  0
  195.0390  174.8800  139.4860 C   0  0  2  0  0  3  0  0  0  0  0  0
  194.3150  173.2630  137.7080 O   0  0  0  0  0  0  0  0  0  0  0  0
  193.4970  175.4070  137.7370 O   0  0  0  0  0  1  0  0  0  0  0  0
  194.2410  174.5370  138.2600 C   0  0  0  0  0  0  0  0  0  0  0  0
  196.5380  174.8900  139.1370 C   0  0  2  0  0  3  0  0  0  0  0  0
  197.2300  175.7730  139.9670 O   0  0  0  0  0  1  0  0  0  0  0  0
  196.7640  175.3200  137.6910 C   0  0  0  0  0  2  0  0  0  0  0  0
  197.9410  174.5220  135.7820 O   0  0  0  0  0  0  0  0  0  0  0  0
  197.8090  173.0570  137.5400 O   0  0  0  0  0  1  0  0  0  0  0  0
  197.5700  174.2980  136.9650 C   0  0  0  0  0  0  0  0  0  0  0  0
  1  8  1  0  0  0  0
  1 12  1  0  0  0  0
  2 41  1  6  0  0  0
  2 13  1  0  0  0  0
  3  7  1  0  0  0  0
  3 11  1  0  0  0  0
  4 15  1  0  0  0  0
  5  6  1  0  0  0  0
  6  9  1  0  0  0  0
  6  3  1  0  0  0  0
  7 18  1  0  0  0  0
  7 11  1  0  0  0  0
  9 18  1  0  0  0  0
 10  8  1  0  0  0  0
 10 26  1  0  0  0  0
 11 43  1  0  0  0  0
 12 18  1  0  0  0  0
 13 10  1  0  0  0  0
 13  8  1  0  0  0  0
 14  4  2  0  0  0  0
 15  2  1  0  0  0  0
 16  5  1  0  0  0  0
 17 14  1  0  0  0  0
 17 16  1  0  0  0  0
 19 20  1  0  0  0  0
 20 25  1  0  0  0  0
 22 24  1  0  0  0  0
 22 23  1  0  0  0  0
 23 20  1  0  0  0  0
 24 27  1  0  0  0  0
 26 27  1  0  0  0  0
 26 19  1  0  0  0  0
 27 21  1  0  0  0  0
 27 25  1  0  0  0  0
 28 23  1  0  0  0  0
 29 34  1  0  0  0  0
 30 33  1  0  0  0  0
 30 29  2  0  0  0  0
 32 28  1  0  0  0  0
 32 31  1  0  0  0  0
 33 32  2  0  0  0  0
 34 31  2  0  0  0  0
 34 35  1  0  0  0  0
 35 38  1  0  0  0  0
 38 39  1  0  0  0  0
 39 37  1  0  0  0  0
 39 36  2  0  0  0  0
 41 40  1  0  0  0  0
 43 42  1  0  0  0  0
 44 17  1  0  0  0  0
 45 47  2  0  0  0  0
 46 47  1  0  0  0  0
 47 44  1  0  0  0  0
 48 44  1  0  0  0  0
 48 49  1  0  0  0  0
 50 48  1  0  0  0  0
 51 53  2  0  0  0  0
 53 52  1  0  0  0  0
 53 50  1  0  0  0  0
M  END
>  <MODEL>
2

>  <REMARK>
 VINA RESULT:      -7.4      2.430      5.576
  Name = 
  12 active torsions:
  status: ('A' for Active; 'I' for Inactive)
    1  A    between atoms: C_4  and  C_52
    2  A    between atoms: C_14  and  C_41
    3  A    between atoms: C_14  and  C_45
    4  A    between atoms: C_14  and  C_48
    5  A    between atoms: N_15  and  C_47
    6  A    between atoms: C_20  and  C_51
    7  A    between atoms: C_25  and  C_35
    8  A    between atoms: C_28  and  O_50
    9  A    between atoms: C_32  and  C_44
   10  A    between atoms: C_37  and  C_51
   11  A    between atoms: C_41  and  C_44
   12  A    between atoms: C_47  and  C_49
                            x       y       z     vdW  Elec       q    Type
                         _______ _______ _______ _____ _____    ______ ____

>  <TORSDO>
F 12

$$$$
=
 OpenBabel11062420303D

 53 59  0  0  1  0  0  0  0  0999 V2000
  191.7740  170.9700  143.5990 C   0  0  0  0  0  2  0  0  0  0  0  0
  190.9790  172.9720  141.8030 C   0  0  2  0  0  3  0  0  0  0  0  0
  196.3860  170.9490  144.4590 C   0  0  2  0  0  3  0  0  0  0  0  0
  193.0970  174.2510  141.2890 C   0  0  0  0  0  3  0  0  0  0  0  0
  196.3890  172.4690  142.4840 C   0  0  0  0  0  2  0  0  0  0  0  0
  195.8720  172.2640  143.8990 C   0  0  1  0  0  3  0  0  0  0  0  0
  195.1950  170.2250  145.0710 C   0  0  1  0  0  3  0  0  0  0  0  0
  190.9510  172.0910  144.2470 C   0  0  1  0  0  3  0  0  0  0  0  0
  194.3760  172.1490  143.8630 C   0  0  0  0  0  2  0  0  0  0  0  0
  191.6740  173.4190  144.1740 C   0  0  1  0  0  3  0  0  0  0  0  0
  196.2230  170.8960  145.9650 C   0  0  1  0  0  3  0  0  0  0  0  0
  192.7630  170.2940  144.5510 C   0  0  0  0  0  2  0  0  0  0  0  0
  190.4920  173.1710  143.2500 C   0  0  1  0  0  3  0  0  0  0  0  0
  193.7970  173.2290  140.7850 C   0  0  0  0  0  3  0  0  0  0  0  0
  191.5920  174.2500  141.2360 C   0  0  0  0  0  2  0  0  0  0  0  0
  195.8510  173.6380  141.9340 O   0  0  0  0  0  0  0  0  0  0  0  0
  195.3070  173.2490  140.7020 C   0  0  2  0  0  3  0  0  0  0  0  0
  193.9910  171.1310  144.9160 C   0  0  1  0  0  3  0  0  0  0  0  0
  189.8930  174.7910  145.4390 C   0  0  0  0  0  2  0  0  0  0  0  0
  190.0750  176.2990  145.5810 C   0  0  2  0  0  3  0  0  0  0  0  0
  193.3100  175.3050  146.2520 O   0  0  0  0  0  1  0  0  0  0  0  0
  191.5430  177.2610  143.7030 C   0  0  0  0  0  2  0  0  0  0  0  0
  190.1070  177.0120  144.1960 C   0  0  1  0  0  3  0  0  0  0  0  0
  192.5200  176.1470  144.1300 C   0  0  0  0  0  2  0  0  0  0  0  0
  191.3280  176.4670  146.2090 O   0  0  0  0  0  0  0  0  0  0  0  0
  191.3230  174.2690  145.4040 C   0  0  2  0  0  3  0  0  0  0  0  0
  192.1510  175.5520  145.5170 C   0  0  2  0  0  0  0  0  0  0  0  0
  189.2820  176.3060  143.1150 C   0  0  0  0  0  2  0  0  0  0  0  0
  185.8810  178.4610  141.6780 N   0  0  0  0  0  0  0  0  0  0  0  0
  186.6470  177.7410  140.8150 C   0  0  0  0  0  3  0  0  0  0  0  0
  187.2590  177.8200  143.5180 C   0  0  0  0  0  3  0  0  0  0  0  0
  188.0770  177.0790  142.6480 C   0  0  0  0  0  0  0  0  0  0  0  0
  187.7580  177.0360  141.2850 C   0  0  0  0  0  3  0  0  0  0  0  0
  186.1440  178.4980  143.0130 C   0  0  0  0  0  0  0  0  0  0  0  0
  185.2700  179.2780  143.9290 C   0  0  0  0  0  2  0  0  0  0  0  0
  185.8050  179.4520  147.5190 O   0  0  0  0  0  0  0  0  0  0  0  0
  184.3360  177.9360  146.4360 C   0  0  0  0  0  1  0  0  0  0  0  0
  185.9480  179.4680  145.2040 N   0  0  0  0  0  2  0  0  0  0  0  0
  185.4140  178.9620  146.4280 C   0  0  0  0  0  0  0  0  0  0  0  0
  188.4940  172.6950  141.6700 C   0  0  0  0  0  1  0  0  0  0  0  0
  189.8040  172.5630  140.9230 C   0  0  0  0  0  2  0  0  0  0  0  0
  196.3650  168.9670  147.0980 C   0  0  0  0  0  1  0  0  0  0  0  0
  197.1310  169.9650  146.4730 O   0  0  0  0  0  0  0  0  0  0  0  0
  195.8160  174.1590  139.5580 C   0  0  2  0  0  3  0  0  0  0  0  0
  197.3110  176.0390  140.2850 O   0  0  0  0  0  1  0  0  0  0  0  0
  195.0320  176.3080  140.2510 O   0  0  0  0  0  0  0  0  0  0  0  0
  196.0260  175.5620  140.0530 C   0  0  0  0  0  0  0  0  0  0  0  0
  194.8470  174.1760  138.3630 C   0  0  2  0  0  3  0  0  0  0  0  0
  194.6700  172.8890  137.8540 O   0  0  0  0  0  1  0  0  0  0  0  0
  195.3740  175.0620  137.2390 C   0  0  0  0  0  2  0  0  0  0  0  0
  193.1040  175.7460  137.0170 O   0  0  0  0  0  1  0  0  0  0  0  0
  194.4100  176.0520  135.1580 O   0  0  0  0  0  0  0  0  0  0  0  0
  194.2430  175.6730  136.4840 C   0  0  0  0  0  0  0  0  0  0  0  0
  1  8  1  0  0  0  0
  1 12  1  0  0  0  0
  2 41  1  6  0  0  0
  2 13  1  0  0  0  0
  3  7  1  0  0  0  0
  3 11  1  0  0  0  0
  5  6  1  0  0  0  0
  6  3  1  0  0  0  0
  7 11  1  0  0  0  0
  9  6  1  0  0  0  0
  9 18  1  0  0  0  0
 10  8  1  0  0  0  0
 10 26  1  0  0  0  0
 11 43  1  0  0  0  0
 12 18  1  0  0  0  0
 13 10  1  0  0  0  0
 13  8  1  0  0  0  0
 14  4  2  0  0  0  0
 15  4  1  0  0  0  0
 15  2  1  0  0  0  0
 16  5  1  0  0  0  0
 17 14  1  0  0  0  0
 17 16  1  0  0  0  0
 18  7  1  0  0  0  0
 19 20  1  0  0  0  0
 20 25  1  0  0  0  0
 22 24  1  0  0  0  0
 22 23  1  0  0  0  0
 23 20  1  0  0  0  0
 24 27  1  0  0  0  0
 26 19  1  0  0  0  0
 26 27  1  0  0  0  0
 27 25  1  0  0  0  0
 27 21  1  0  0  0  0
 28 23  1  0  0  0  0
 29 34  1  0  0  0  0
 30 33  1  0  0  0  0
 30 29  2  0  0  0  0
 32 28  1  0  0  0  0
 32 31  1  0  0  0  0
 33 32  2  0  0  0  0
 34 31  2  0  0  0  0
 34 35  1  0  0  0  0
 35 38  1  0  0  0  0
 38 39  1  0  0  0  0
 39 37  1  0  0  0  0
 39 36  2  0  0  0  0
 41 40  1  0  0  0  0
 43 42  1  0  0  0  0
 44 47  1  0  0  0  0
 44 17  1  0  0  0  0
 47 46  2  0  0  0  0
 47 45  1  0  0  0  0
 48 44  1  0  0  0  0
 49 48  1  0  0  0  0
 50 48  1  0  0  0  0
 52 53  2  0  0  0  0
 53 51  1  0  0  0  0
 53 50  1  0  0  0  0
M  END
>  <MODEL>
3

>  <REMARK>
 VINA RESULT:      -7.2      2.477      5.478
  Name = 
  12 active torsions:
  status: ('A' for Active; 'I' for Inactive)
    1  A    between atoms: C_4  and  C_52
    2  A    between atoms: C_14  and  C_41
    3  A    between atoms: C_14  and  C_45
    4  A    between atoms: C_14  and  C_48
    5  A    between atoms: N_15  and  C_47
    6  A    between atoms: C_20  and  C_51
    7  A    between atoms: C_25  and  C_35
    8  A    between atoms: C_28  and  O_50
    9  A    between atoms: C_32  and  C_44
   10  A    between atoms: C_37  and  C_51
   11  A    between atoms: C_41  and  C_44
   12  A    between atoms: C_47  and  C_49
                            x       y       z     vdW  Elec       q    Type
                         _______ _______ _______ _____ _____    ______ ____

>  <TORSDO>
F 12

$$$$
=
 OpenBabel11062420303D

 53 59  0  0  1  0  0  0  0  0999 V2000
  194.9620  170.3620  141.4260 C   0  0  0  0  0  2  0  0  0  0  0  0
  193.2990  170.3870  143.6850 C   0  0  2  0  0  3  0  0  0  0  0  0
  194.1090  173.8740  138.4340 C   0  0  2  0  0  3  0  0  0  0  0  0
  191.8830  172.4620  143.4160 C   0  0  0  0  0  3  0  0  0  0  0  0
  192.0660  174.0910  139.8450 C   0  0  0  0  0  2  0  0  0  0  0  0
  193.5860  174.1230  139.8380 C   0  0  1  0  0  3  0  0  0  0  0  0
  195.2050  172.8220  138.5430 C   0  0  1  0  0  3  0  0  0  0  0  0
  195.6920  170.7200  142.7280 C   0  0  1  0  0  3  0  0  0  0  0  0
  194.1050  172.9970  140.6850 C   0  0  0  0  0  2  0  0  0  0  0  0
  195.1740  172.0160  143.3130 C   0  0  1  0  0  3  0  0  0  0  0  0
  195.5650  174.2790  138.3130 C   0  0  1  0  0  3  0  0  0  0  0  0
  195.5850  170.9820  140.1730 C   0  0  0  0  0  2  0  0  0  0  0  0
  194.7800  170.7020  143.9680 C   0  0  1  0  0  3  0  0  0  0  0  0
  191.3150  172.1340  142.2510 C   0  0  0  0  0  3  0  0  0  0  0  0
  192.3720  171.3960  144.3590 C   0  0  0  0  0  2  0  0  0  0  0  0
  191.5820  174.2370  141.1490 O   0  0  0  0  0  0  0  0  0  0  0  0
  190.6960  173.1670  141.3360 C   0  0  2  0  0  3  0  0  0  0  0  0
  195.3610  172.4870  140.0120 C   0  0  1  0  0  3  0  0  0  0  0  0
  196.0920  172.9550  145.5330 C   0  0  0  0  0  2  0  0  0  0  0  0
  196.2380  174.4640  145.7010 C   0  0  2  0  0  3  0  0  0  0  0  0
  197.4690  174.1630  142.4920 O   0  0  0  0  0  1  0  0  0  0  0  0
  194.6230  175.7520  144.1710 C   0  0  0  0  0  2  0  0  0  0  0  0
  194.8670  175.1960  145.5840 C   0  0  1  0  0  3  0  0  0  0  0  0
  195.2290  174.8620  143.0680 C   0  0  0  0  0  2  0  0  0  0  0  0
  197.0680  174.8800  144.6380 O   0  0  0  0  0  0  0  0  0  0  0  0
  196.3120  172.7470  144.0400 C   0  0  2  0  0  3  0  0  0  0  0  0
  196.5430  174.1740  143.5350 C   0  0  2  0  0  0  0  0  0  0  0  0
  193.6720  174.3530  146.0440 C   0  0  0  0  0  2  0  0  0  0  0  0
  190.3790  176.7000  147.4310 N   0  0  0  0  0  0  0  0  0  0  0  0
  191.6410  176.9720  147.8620 C   0  0  0  0  0  3  0  0  0  0  0  0
  191.1750  174.9080  146.0710 C   0  0  0  0  0  3  0  0  0  0  0  0
  192.4860  175.1560  146.5100 C   0  0  0  0  0  0  0  0  0  0  0  0
  192.7170  176.2050  147.4080 C   0  0  0  0  0  3  0  0  0  0  0  0
  190.1250  175.7090  146.5340 C   0  0  0  0  0  0  0  0  0  0  0  0
  188.7360  175.4580  146.0670 C   0  0  0  0  0  2  0  0  0  0  0  0
  186.3890  178.0250  145.0180 O   0  0  0  0  0  0  0  0  0  0  0  0
  186.3310  176.9050  147.1080 C   0  0  0  0  0  1  0  0  0  0  0  0
  188.2150  176.6530  145.4200 N   0  0  0  0  0  2  0  0  0  0  0  0
  186.9800  177.2520  145.8140 C   0  0  0  0  0  0  0  0  0  0  0  0
  193.8960  168.6010  145.3340 C   0  0  0  0  0  1  0  0  0  0  0  0
  192.9660  168.9950  144.2070 C   0  0  0  0  0  2  0  0  0  0  0  0
  194.7030  175.1440  136.4340 C   0  0  0  0  0  1  0  0  0  0  0  0
  195.8440  174.5220  136.9680 O   0  0  0  0  0  0  0  0  0  0  0  0
  189.3270  173.6640  141.8590 C   0  0  2  0  0  3  0  0  0  0  0  0
  188.1990  173.1090  139.6880 O   0  0  0  0  0  0  0  0  0  0  0  0
  187.2740  172.4540  141.6830 O   0  0  0  0  0  1  0  0  0  0  0  0
  188.2060  173.0430  141.0760 C   0  0  0  0  0  0  0  0  0  0  0  0
  189.2100  175.1970  141.7960 C   0  0  2  0  0  3  0  0  0  0  0  0
  190.0400  175.7940  142.7460 O   0  0  0  0  0  1  0  0  0  0  0  0
  187.7780  175.6510  142.0650 C   0  0  0  0  0  2  0  0  0  0  0  0
  187.0870  176.7820  140.0870 O   0  0  0  0  0  0  0  0  0  0  0  0
  187.7110  178.1370  141.8290 O   0  0  0  0  0  1  0  0  0  0  0  0
  187.4680  176.8820  141.2840 C   0  0  0  0  0  0  0  0  0  0  0  0
  1  8  1  0  0  0  0
  2 13  1  0  0  0  0
  2 41  1  1  0  0  0
  2 15  1  0  0  0  0
  3  7  1  0  0  0  0
  3  6  1  0  0  0  0
  4 15  1  0  0  0  0
  5 16  1  0  0  0  0
  6  5  1  0  0  0  0
  6  9  1  0  0  0  0
  7 18  1  0  0  0  0
  8 10  1  0  0  0  0
  8 13  1  0  0  0  0
 10 13  1  0  0  0  0
 10 26  1  0  0  0  0
 11  3  1  0  0  0  0
 11  7  1  0  0  0  0
 12  1  1  0  0  0  0
 14  4  2  0  0  0  0
 16 17  1  0  0  0  0
 17 44  1  0  0  0  0
 17 14  1  0  0  0  0
 18 12  1  0  0  0  0
 18  9  1  0  0  0  0
 19 20  1  0  0  0  0
 21 27  1  0  0  0  0
 22 23  1  0  0  0  0
 23 20  1  0  0  0  0
 23 28  1  0  0  0  0
 24 27  1  0  0  0  0
 24 22  1  0  0  0  0
 25 20  1  0  0  0  0
 26 19  1  0  0  0  0
 27 26  1  0  0  0  0
 27 25  1  0  0  0  0
 28 32  1  0  0  0  0
 29 30  1  0  0  0  0
 31 32  2  0  0  0  0
 31 34  1  0  0  0  0
 32 33  1  0  0  0  0
 33 30  2  0  0  0  0
 34 29  2  0  0  0  0
 35 34  1  0  0  0  0
 36 39  2  0  0  0  0
 38 39  1  0  0  0  0
 38 35  1  0  0  0  0
 39 37  1  0  0  0  0
 41 40  1  0  0  0  0
 42 43  1  0  0  0  0
 43 11  1  0  0  0  0
 45 47  2  0  0  0  0
 47 46  1  0  0  0  0
 47 44  1  0  0  0  0
 48 44  1  0  0  0  0
 48 50  1  0  0  0  0
 48 49  1  0  0  0  0
 51 53  2  0  0  0  0
 53 52  1  0  0  0  0
 53 50  1  0  0  0  0
M  END
>  <MODEL>
4

>  <REMARK>
 VINA RESULT:      -7.1      1.997      2.819
  Name = 
  12 active torsions:
  status: ('A' for Active; 'I' for Inactive)
    1  A    between atoms: C_4  and  C_52
    2  A    between atoms: C_14  and  C_41
    3  A    between atoms: C_14  and  C_45
    4  A    between atoms: C_14  and  C_48
    5  A    between atoms: N_15  and  C_47
    6  A    between atoms: C_20  and  C_51
    7  A    between atoms: C_25  and  C_35
    8  A    between atoms: C_28  and  O_50
    9  A    between atoms: C_32  and  C_44
   10  A    between atoms: C_37  and  C_51
   11  A    between atoms: C_41  and  C_44
   12  A    between atoms: C_47  and  C_49
                            x       y       z     vdW  Elec       q    Type
                         _______ _______ _______ _____ _____    ______ ____

>  <TORSDO>
F 12

$$$$
=
 OpenBabel11062420303D

 53 59  0  0  1  0  0  0  0  0999 V2000
  191.8270  171.1650  143.8010 C   0  0  0  0  0  2  0  0  0  0  0  0
  190.1840  172.9970  142.4550 C   0  0  2  0  0  3  0  0  0  0  0  0
  196.2800  171.2050  142.3250 C   0  0  2  0  0  3  0  0  0  0  0  0
  191.7390  174.2150  140.8780 C   0  0  0  0  0  3  0  0  0  0  0  0
  195.2700  172.5380  140.4770 C   0  0  0  0  0  2  0  0  0  0  0  0
  195.5060  172.4650  141.9770 C   0  0  1  0  0  3  0  0  0  0  0  0
  195.5610  170.5450  143.4940 C   0  0  1  0  0  3  0  0  0  0  0  0
  191.3720  172.3450  144.6720 C   0  0  1  0  0  3  0  0  0  0  0  0
  194.1830  172.3530  142.6780 C   0  0  0  0  0  2  0  0  0  0  0  0
  191.9150  173.6570  144.1500 C   0  0  1  0  0  3  0  0  0  0  0  0
  196.8640  171.2910  143.7210 C   0  0  1  0  0  3  0  0  0  0  0  0
  193.1780  170.5760  144.2090 C   0  0  0  0  0  2  0  0  0  0  0  0
  190.4470  173.3300  143.9350 C   0  0  1  0  0  3  0  0  0  0  0  0
  192.1510  173.1490  140.1850 C   0  0  0  0  0  3  0  0  0  0  0  0
  190.3960  174.2160  141.5590 C   0  0  0  0  0  2  0  0  0  0  0  0
  194.4870  173.6530  140.1610 O   0  0  0  0  0  0  0  0  0  0  0  0
  193.4330  173.1550  139.3820 C   0  0  2  0  0  3  0  0  0  0  0  0
  194.3950  171.4380  143.8650 C   0  0  1  0  0  3  0  0  0  0  0  0
  190.9100  175.1250  146.0170 C   0  0  0  0  0  2  0  0  0  0  0  0
  191.0510  176.6410  145.9320 C   0  0  2  0  0  3  0  0  0  0  0  0
  194.2500  175.7530  144.9930 O   0  0  0  0  0  1  0  0  0  0  0  0
  191.3510  177.4340  143.5050 C   0  0  0  0  0  2  0  0  0  0  0  0
  190.3590  177.2180  144.6610 C   0  0  1  0  0  3  0  0  0  0  0  0
  192.4730  176.3780  143.4790 C   0  0  0  0  0  2  0  0  0  0  0  0
  192.4390  176.8830  145.8440 O   0  0  0  0  0  0  0  0  0  0  0  0
  192.1660  174.6170  145.3210 C   0  0  2  0  0  3  0  0  0  0  0  0
  192.8670  175.9150  144.9100 C   0  0  2  0  0  0  0  0  0  0  0  0
  189.1510  176.4020  144.1880 C   0  0  0  0  0  2  0  0  0  0  0  0
  185.3930  177.8010  145.6680 N   0  0  0  0  0  0  0  0  0  0  0  0
  186.1280  176.9200  146.3990 C   0  0  0  0  0  3  0  0  0  0  0  0
  187.0470  177.8390  143.9490 C   0  0  0  0  0  3  0  0  0  0  0  0
  187.8220  176.9170  144.6740 C   0  0  0  0  0  0  0  0  0  0  0  0
  187.3570  176.4640  145.9150 C   0  0  0  0  0  3  0  0  0  0  0  0
  185.8300  178.2870  144.4750 C   0  0  0  0  0  0  0  0  0  0  0  0
  185.0090  179.2670  143.7170 C   0  0  0  0  0  2  0  0  0  0  0  0
  182.6220  178.0510  141.2610 O   0  0  0  0  0  0  0  0  0  0  0  0
  184.9530  178.2870  140.8890 C   0  0  0  0  0  1  0  0  0  0  0  0
  183.8440  178.5960  143.1560 N   0  0  0  0  0  2  0  0  0  0  0  0
  183.7520  178.2730  141.7680 C   0  0  0  0  0  0  0  0  0  0  0  0
  188.2200  172.8480  140.9100 C   0  0  0  0  0  1  0  0  0  0  0  0
  188.7490  172.5140  142.2880 C   0  0  0  0  0  2  0  0  0  0  0  0
  197.8380  169.7720  145.0510 C   0  0  0  0  0  1  0  0  0  0  0  0
  197.9410  170.4070  143.8020 O   0  0  0  0  0  0  0  0  0  0  0  0
  193.2910  173.9540  138.0640 C   0  0  2  0  0  3  0  0  0  0  0  0
  191.0180  174.5410  137.1790 O   0  0  0  0  0  1  0  0  0  0  0  0
  191.8530  172.4180  136.9300 O   0  0  0  0  0  0  0  0  0  0  0  0
  192.0150  173.5900  137.3610 C   0  0  0  0  0  0  0  0  0  0  0  0
  194.4830  173.7200  137.1180 C   0  0  2  0  0  3  0  0  0  0  0  0
  195.0230  172.4480  137.3140 O   0  0  0  0  0  1  0  0  0  0  0  0
  195.5860  174.7460  137.3580 C   0  0  0  0  0  2  0  0  0  0  0  0
  196.6670  176.3940  136.0210 O   0  0  0  0  0  1  0  0  0  0  0  0
  195.8540  174.5780  134.8810 O   0  0  0  0  0  0  0  0  0  0  0  0
  196.1010  175.2690  136.0610 C   0  0  0  0  0  0  0  0  0  0  0  0
  1 12  1  0  0  0  0
  1  8  1  0  0  0  0
  2 41  1  1  0  0  0
  2 13  1  0  0  0  0
  3  7  1  0  0  0  0
  3 11  1  0  0  0  0
  4 15  1  0  0  0  0
  5  6  1  0  0  0  0
  6  3  1  0  0  0  0
  6  9  1  0  0  0  0
  7 11  1  0  0  0  0
  7 18  1  0  0  0  0
  9 18  1  0  0  0  0
 10  8  1  0  0  0  0
 10 26  1  0  0  0  0
 11 43  1  0  0  0  0
 13 10  1  0  0  0  0
 13  8  1  0  0  0  0
 14  4  2  0  0  0  0
 15  2  1  0  0  0  0
 16  5  1  0  0  0  0
 17 16  1  0  0  0  0
 17 14  1  0  0  0  0
 18 12  1  0  0  0  0
 20 19  1  0  0  0  0
 22 23  1  0  0  0  0
 23 20  1  0  0  0  0
 24 22  1  0  0  0  0
 24 27  1  0  0  0  0
 25 20  1  0  0  0  0
 26 19  1  0  0  0  0
 27 21  1  0  0  0  0
 27 26  1  0  0  0  0
 27 25  1  0  0  0  0
 28 23  1  0  0  0  0
 28 32  1  0  0  0  0
 29 30  1  0  0  0  0
 31 34  1  0  0  0  0
 31 32  2  0  0  0  0
 32 33  1  0  0  0  0
 33 30  2  0  0  0  0
 34 29  2  0  0  0  0
 35 34  1  0  0  0  0
 36 39  2  0  0  0  0
 37 39  1  0  0  0  0
 38 35  1  0  0  0  0
 39 38  1  0  0  0  0
 40 41  1  0  0  0  0
 43 42  1  0  0  0  0
 44 17  1  0  0  0  0
 45 47  1  0  0  0  0
 46 47  2  0  0  0  0
 47 44  1  0  0  0  0
 48 49  1  0  0  0  0
 48 50  1  0  0  0  0
 48 44  1  0  0  0  0
 51 53  1  0  0  0  0
 52 53  2  0  0  0  0
 53 50  1  0  0  0  0
M  END
>  <MODEL>
5

>  <REMARK>
 VINA RESULT:      -6.5      2.341      4.857
  Name = 
  12 active torsions:
  status: ('A' for Active; 'I' for Inactive)
    1  A    between atoms: C_4  and  C_52
    2  A    between atoms: C_14  and  C_41
    3  A    between atoms: C_14  and  C_45
    4  A    between atoms: C_14  and  C_48
    5  A    between atoms: N_15  and  C_47
    6  A    between atoms: C_20  and  C_51
    7  A    between atoms: C_25  and  C_35
    8  A    between atoms: C_28  and  O_50
    9  A    between atoms: C_32  and  C_44
   10  A    between atoms: C_37  and  C_51
   11  A    between atoms: C_41  and  C_44
   12  A    between atoms: C_47  and  C_49
                            x       y       z     vdW  Elec       q    Type
                         _______ _______ _______ _____ _____    ______ ____

>  <TORSDO>
F 12

$$$$
=
 OpenBabel11062420303D

 53 59  0  0  1  0  0  0  0  0999 V2000
  194.6960  176.4100  143.2060 C   0  0  0  0  0  2  0  0  0  0  0  0
  193.2810  174.8300  145.0400 C   0  0  2  0  0  3  0  0  0  0  0  0
  197.1390  173.9130  140.0740 C   0  0  2  0  0  3  0  0  0  0  0  0
  193.7150  172.4510  144.3070 C   0  0  0  0  0  3  0  0  0  0  0  0
  196.6070  172.0760  141.6720 C   0  0  0  0  0  2  0  0  0  0  0  0
  196.0240  173.1320  140.7470 C   0  0  1  0  0  3  0  0  0  0  0  0
  196.7990  175.3910  140.2120 C   0  0  1  0  0  3  0  0  0  0  0  0
  193.1730  176.4600  143.0200 C   0  0  1  0  0  3  0  0  0  0  0  0
  195.2480  174.1250  141.5630 C   0  0  0  0  0  2  0  0  0  0  0  0
  192.6200  175.1050  142.6340 C   0  0  1  0  0  3  0  0  0  0  0  0
  196.6200  174.6870  138.8780 C   0  0  1  0  0  3  0  0  0  0  0  0
  195.4870  176.6420  141.9170 C   0  0  0  0  0  2  0  0  0  0  0  0
  192.4020  175.6140  144.0490 C   0  0  1  0  0  3  0  0  0  0  0  0
  195.0460  172.4740  144.4280 C   0  0  0  0  0  3  0  0  0  0  0  0
  192.8540  173.3670  145.1340 C   0  0  0  0  0  2  0  0  0  0  0  0
  195.5850  171.4100  142.3570 O   0  0  0  0  0  0  0  0  0  0  0  0
  195.9390  171.4840  143.7110 C   0  0  2  0  0  3  0  0  0  0  0  0
  195.4630  175.4790  140.9210 C   0  0  1  0  0  3  0  0  0  0  0  0
  190.2880  176.1540  142.2960 C   0  0  0  0  0  2  0  0  0  0  0  0
  189.0640  175.2470  142.2310 C   0  0  2  0  0  3  0  0  0  0  0  0
  191.2070  173.3960  140.2600 O   0  0  0  0  0  1  0  0  0  0  0  0
  189.4600  173.0250  143.4630 C   0  0  0  0  0  2  0  0  0  0  0  0
  188.8680  174.4420  143.5510 C   0  0  1  0  0  3  0  0  0  0  0  0
  190.7290  172.9650  142.5890 C   0  0  0  0  0  2  0  0  0  0  0  0
  189.3260  174.3410  141.1810 O   0  0  0  0  0  0  0  0  0  0  0  0
  191.3980  175.2850  141.7210 C   0  0  2  0  0  3  0  0  0  0  0  0
  190.6690  173.9750  141.4090 C   0  0  2  0  0  0  0  0  0  0  0  0
  189.3830  175.1640  144.8010 C   0  0  0  0  0  2  0  0  0  0  0  0
  186.5330  177.6550  146.7880 N   0  0  0  0  0  0  0  0  0  0  0  0
  187.2210  176.7120  147.4880 C   0  0  0  0  0  3  0  0  0  0  0  0
  187.6560  177.0520  144.7710 C   0  0  0  0  0  3  0  0  0  0  0  0
  188.3710  176.0600  145.4650 C   0  0  0  0  0  0  0  0  0  0  0  0
  188.1530  175.8990  146.8380 C   0  0  0  0  0  3  0  0  0  0  0  0
  186.7440  177.8590  145.4600 C   0  0  0  0  0  0  0  0  0  0  0  0
  185.9900  178.9160  144.7340 C   0  0  0  0  0  2  0  0  0  0  0  0
  183.3950  178.0790  142.3320 O   0  0  0  0  0  0  0  0  0  0  0  0
  185.7000  178.3070  141.8170 C   0  0  0  0  0  1  0  0  0  0  0  0
  184.7680  178.3490  144.1820 N   0  0  0  0  0  2  0  0  0  0  0  0
  184.5650  178.2090  142.7760 C   0  0  0  0  0  0  0  0  0  0  0  0
  191.9420  174.9640  147.1510 C   0  0  0  0  0  1  0  0  0  0  0  0
  193.1740  175.4590  146.4240 C   0  0  0  0  0  2  0  0  0  0  0  0
  197.1340  175.3810  136.8100 C   0  0  0  0  0  1  0  0  0  0  0  0
  197.6920  174.9480  138.0250 O   0  0  0  0  0  0  0  0  0  0  0  0
  195.9050  170.0850  144.3710 C   0  0  2  0  0  3  0  0  0  0  0  0
  194.0810  169.0900  142.9640 O   0  0  0  0  0  0  0  0  0  0  0  0
  193.8300  169.2730  145.2380 O   0  0  0  0  0  1  0  0  0  0  0  0
  194.5450  169.4630  144.2200 C   0  0  0  0  0  0  0  0  0  0  0  0
  196.2790  170.1440  145.8630 C   0  0  2  0  0  3  0  0  0  0  0  0
  197.1860  171.1760  146.1020 O   0  0  0  0  0  1  0  0  0  0  0  0
  196.9160  168.8360  146.3230 C   0  0  0  0  0  2  0  0  0  0  0  0
  197.3220  168.4040  148.6290 O   0  0  0  0  0  1  0  0  0  0  0  0
  195.1440  168.1710  147.9530 O   0  0  0  0  0  0  0  0  0  0  0  0
  196.4710  168.4990  147.7050 C   0  0  0  0  0  0  0  0  0  0  0  0
  2 15  1  0  0  0  0
  2 41  1  1  0  0  0
  3  7  1  0  0  0  0
  3  6  1  0  0  0  0
  4 14  2  0  0  0  0
  4 15  1  0  0  0  0
  5 16  1  0  0  0  0
  6  9  1  0  0  0  0
  6  5  1  0  0  0  0
  7 18  1  0  0  0  0
  8  1  1  0  0  0  0
  8 13  1  0  0  0  0
 10  8  1  0  0  0  0
 10 13  1  0  0  0  0
 11  3  1  0  0  0  0
 11  7  1  0  0  0  0
 12  1  1  0  0  0  0
 13  2  1  0  0  0  0
 16 17  1  0  0  0  0
 17 44  1  0  0  0  0
 17 14  1  0  0  0  0
 18  9  1  0  0  0  0
 18 12  1  0  0  0  0
 20 19  1  0  0  0  0
 20 23  1  0  0  0  0
 21 27  1  0  0  0  0
 22 23  1  0  0  0  0
 23 28  1  0  0  0  0
 24 22  1  0  0  0  0
 25 27  1  0  0  0  0
 25 20  1  0  0  0  0
 26 19  1  0  0  0  0
 26 10  1  0  0  0  0
 27 26  1  0  0  0  0
 27 24  1  0  0  0  0
 28 32  1  0  0  0  0
 29 30  1  0  0  0  0
 31 34  1  0  0  0  0
 31 32  2  0  0  0  0
 32 33  1  0  0  0  0
 33 30  2  0  0  0  0
 34 29  2  0  0  0  0
 35 34  1  0  0  0  0
 36 39  2  0  0  0  0
 37 39  1  0  0  0  0
 38 35  1  0  0  0  0
 39 38  1  0  0  0  0
 41 40  1  0  0  0  0
 42 43  1  0  0  0  0
 43 11  1  0  0  0  0
 44 48  1  0  0  0  0
 45 47  2  0  0  0  0
 47 44  1  0  0  0  0
 47 46  1  0  0  0  0
 48 49  1  0  0  0  0
 48 50  1  0  0  0  0
 50 53  1  0  0  0  0
 53 52  2  0  0  0  0
 53 51  1  0  0  0  0
M  END
>  <MODEL>
6

>  <REMARK>
 VINA RESULT:      -6.5      2.928      5.575
  Name = 
  12 active torsions:
  status: ('A' for Active; 'I' for Inactive)
    1  A    between atoms: C_4  and  C_52
    2  A    between atoms: C_14  and  C_41
    3  A    between atoms: C_14  and  C_45
    4  A    between atoms: C_14  and  C_48
    5  A    between atoms: N_15  and  C_47
    6  A    between atoms: C_20  and  C_51
    7  A    between atoms: C_25  and  C_35
    8  A    between atoms: C_28  and  O_50
    9  A    between atoms: C_32  and  C_44
   10  A    between atoms: C_37  and  C_51
   11  A    between atoms: C_41  and  C_44
   12  A    between atoms: C_47  and  C_49
                            x       y       z     vdW  Elec       q    Type
                         _______ _______ _______ _____ _____    ______ ____

>  <TORSDO>
F 12

$$$$
=
 OpenBabel11062420303D

 53 59  0  0  1  0  0  0  0  0999 V2000
  193.2580  171.0620  143.3670 C   0  0  0  0  0  2  0  0  0  0  0  0
  190.8400  172.4720  143.5520 C   0  0  2  0  0  3  0  0  0  0  0  0
  195.6090  171.8900  139.3930 C   0  0  2  0  0  3  0  0  0  0  0  0
  190.7610  173.8880  141.4610 C   0  0  0  0  0  3  0  0  0  0  0  0
  193.4280  172.9080  138.7460 C   0  0  0  0  0  2  0  0  0  0  0  0
  194.5840  172.9570  139.7330 C   0  0  1  0  0  3  0  0  0  0  0  0
  195.9470  171.1630  140.6870 C   0  0  1  0  0  3  0  0  0  0  0  0
  193.2690  172.1730  144.4260 C   0  0  1  0  0  3  0  0  0  0  0  0
  194.0720  172.6260  141.1050 C   0  0  0  0  0  2  0  0  0  0  0  0
  193.1010  173.5380  143.7950 C   0  0  1  0  0  3  0  0  0  0  0  0
  196.9280  172.1570  140.0910 C   0  0  1  0  0  3  0  0  0  0  0  0
  194.6320  170.7670  142.7610 C   0  0  0  0  0  2  0  0  0  0  0  0
  191.9300  172.9230  144.5430 C   0  0  1  0  0  3  0  0  0  0  0  0
  190.8130  172.8880  140.5740 C   0  0  0  0  0  3  0  0  0  0  0  0
  190.2020  173.6620  142.8400 C   0  0  0  0  0  2  0  0  0  0  0  0
  192.4420  173.8330  139.1040 O   0  0  0  0  0  0  0  0  0  0  0  0
  191.2470  173.1020  139.1410 C   0  0  2  0  0  3  0  0  0  0  0  0
  195.1590  171.8300  141.7950 C   0  0  1  0  0  3  0  0  0  0  0  0
  193.2440  174.9400  145.9550 C   0  0  0  0  0  2  0  0  0  0  0  0
  193.0760  176.4540  145.8750 C   0  0  2  0  0  3  0  0  0  0  0  0
  195.1180  175.9970  143.1320 O   0  0  0  0  0  1  0  0  0  0  0  0
  191.7060  177.1520  143.8140 C   0  0  0  0  0  2  0  0  0  0  0  0
  191.6740  176.8540  145.3230 C   0  0  1  0  0  3  0  0  0  0  0  0
  192.7200  176.2720  143.0560 C   0  0  0  0  0  2  0  0  0  0  0  0
  194.0640  176.8920  144.9670 O   0  0  0  0  0  0  0  0  0  0  0  0
  193.8690  174.5860  144.6130 C   0  0  2  0  0  3  0  0  0  0  0  0
  193.9700  175.9490  143.9210 C   0  0  2  0  0  0  0  0  0  0  0  0
  190.5680  175.8450  145.6500 C   0  0  0  0  0  2  0  0  0  0  0  0
  186.6790  177.5860  145.9930 N   0  0  0  0  0  0  0  0  0  0  0  0
  187.5970  177.7690  146.9790 C   0  0  0  0  0  3  0  0  0  0  0  0
  188.2230  176.2820  144.7250 C   0  0  0  0  0  3  0  0  0  0  0  0
  189.1870  176.4410  145.7340 C   0  0  0  0  0  0  0  0  0  0  0  0
  188.8690  177.2000  146.8670 C   0  0  0  0  0  3  0  0  0  0  0  0
  186.9660  176.8810  144.8650 C   0  0  0  0  0  0  0  0  0  0  0  0
  185.9430  176.7230  143.7980 C   0  0  0  0  0  2  0  0  0  0  0  0
  185.8390  178.2500  140.5020 O   0  0  0  0  0  0  0  0  0  0  0  0
  184.0620  178.2870  142.0730 C   0  0  0  0  0  1  0  0  0  0  0  0
  186.3890  177.4050  142.5910 N   0  0  0  0  0  2  0  0  0  0  0  0
  185.4720  178.0140  141.6820 C   0  0  0  0  0  0  0  0  0  0  0  0
  189.3080  172.4740  145.5320 C   0  0  0  0  0  1  0  0  0  0  0  0
  189.7530  171.7120  144.3020 C   0  0  0  0  0  2  0  0  0  0  0  0
  197.6460  171.6770  138.0230 C   0  0  0  0  0  1  0  0  0  0  0  0
  197.9390  171.5030  139.3860 O   0  0  0  0  0  0  0  0  0  0  0  0
  190.1480  173.7920  138.2960 C   0  0  2  0  0  3  0  0  0  0  0  0
  188.2720  172.3170  139.0720 O   0  0  0  0  0  0  0  0  0  0  0  0
  188.1460  174.5940  139.3270 O   0  0  0  0  0  1  0  0  0  0  0  0
  188.7980  173.5950  138.9250 C   0  0  0  0  0  0  0  0  0  0  0  0
  190.1220  173.2680  136.8490 C   0  0  2  0  0  3  0  0  0  0  0  0
  188.9600  173.6820  136.1970 O   0  0  0  0  0  1  0  0  0  0  0  0
  190.1670  171.7430  136.8150 C   0  0  0  0  0  2  0  0  0  0  0  0
  191.5780  172.1110  134.9320 O   0  0  0  0  0  0  0  0  0  0  0  0
  191.2630  169.9150  135.5120 O   0  0  0  0  0  1  0  0  0  0  0  0
  191.0720  171.2740  135.7270 C   0  0  0  0  0  0  0  0  0  0  0  0
  1  8  1  0  0  0  0
  2 41  1  1  0  0  0
  2 13  1  0  0  0  0
  3  6  1  0  0  0  0
  3 11  1  0  0  0  0
  3  7  1  0  0  0  0
  4 15  1  0  0  0  0
  5 16  1  0  0  0  0
  5  6  1  0  0  0  0
  6  9  1  0  0  0  0
  7 18  1  0  0  0  0
  8 13  1  0  0  0  0
  9 18  1  0  0  0  0
 10  8  1  0  0  0  0
 10 13  1  0  0  0  0
 10 26  1  0  0  0  0
 11  7  1  0  0  0  0
 12  1  1  0  0  0  0
 14  4  2  0  0  0  0
 15  2  1  0  0  0  0
 16 17  1  0  0  0  0
 17 14  1  0  0  0  0
 18 12  1  0  0  0  0
 20 19  1  0  0  0  0
 21 27  1  0  0  0  0
 22 23  1  0  0  0  0
 23 28  1  0  0  0  0
 23 20  1  0  0  0  0
 24 22  1  0  0  0  0
 24 27  1  0  0  0  0
 25 20  1  0  0  0  0
 26 19  1  0  0  0  0
 27 26  1  0  0  0  0
 27 25  1  0  0  0  0
 28 32  1  0  0  0  0
 29 30  1  0  0  0  0
 31 34  1  0  0  0  0
 31 32  2  0  0  0  0
 32 33  1  0  0  0  0
 33 30  2  0  0  0  0
 34 29  2  0  0  0  0
 35 34  1  0  0  0  0
 36 39  2  0  0  0  0
 38 35  1  0  0  0  0
 39 37  1  0  0  0  0
 39 38  1  0  0  0  0
 41 40  1  0  0  0  0
 42 43  1  0  0  0  0
 43 11  1  0  0  0  0
 44 47  1  0  0  0  0
 44 17  1  0  0  0  0
 47 45  2  0  0  0  0
 47 46  1  0  0  0  0
 48 44  1  0  0  0  0
 49 48  1  0  0  0  0
 50 48  1  0  0  0  0
 51 53  2  0  0  0  0
 52 53  1  0  0  0  0
 53 50  1  0  0  0  0
M  END
>  <MODEL>
7

>  <REMARK>
 VINA RESULT:      -6.4      2.142      3.358
  Name = 
  12 active torsions:
  status: ('A' for Active; 'I' for Inactive)
    1  A    between atoms: C_4  and  C_52
    2  A    between atoms: C_14  and  C_41
    3  A    between atoms: C_14  and  C_45
    4  A    between atoms: C_14  and  C_48
    5  A    between atoms: N_15  and  C_47
    6  A    between atoms: C_20  and  C_51
    7  A    between atoms: C_25  and  C_35
    8  A    between atoms: C_28  and  O_50
    9  A    between atoms: C_32  and  C_44
   10  A    between atoms: C_37  and  C_51
   11  A    between atoms: C_41  and  C_44
   12  A    between atoms: C_47  and  C_49
                            x       y       z     vdW  Elec       q    Type
                         _______ _______ _______ _____ _____    ______ ____

>  <TORSDO>
F 12

$$$$
=
 OpenBabel11062420303D

 53 59  0  0  1  0  0  0  0  0999 V2000
  190.9000  170.9870  141.1590 C   0  0  0  0  0  2  0  0  0  0  0  0
  191.1350  172.8770  143.2170 C   0  0  2  0  0  3  0  0  0  0  0  0
  188.9220  172.6960  137.2640 C   0  0  2  0  0  3  0  0  0  0  0  0
  190.2610  175.0270  142.2170 C   0  0  0  0  0  3  0  0  0  0  0  0
  188.3570  174.5660  138.8110 C   0  0  0  0  0  2  0  0  0  0  0  0
  189.4860  173.7630  138.1840 C   0  0  1  0  0  3  0  0  0  0  0  0
  189.6270  171.3900  137.6030 C   0  0  1  0  0  3  0  0  0  0  0  0
  192.3470  171.4110  141.4480 C   0  0  1  0  0  3  0  0  0  0  0  0
  190.2300  173.0350  139.2660 C   0  0  0  0  0  2  0  0  0  0  0  0
  192.5610  172.8790  141.1510 C   0  0  1  0  0  3  0  0  0  0  0  0
  189.9930  172.1490  136.3400 C   0  0  1  0  0  3  0  0  0  0  0  0
  190.6550  170.5580  139.7110 C   0  0  0  0  0  2  0  0  0  0  0  0
  192.4710  172.4260  142.5990 C   0  0  1  0  0  3  0  0  0  0  0  0
  189.0280  174.5950  141.9300 C   0  0  0  0  0  3  0  0  0  0  0  0
  191.0540  174.3990  143.3310 C   0  0  0  0  0  2  0  0  0  0  0  0
  188.8680  175.4950  139.7230 O   0  0  0  0  0  0  0  0  0  0  0  0
  188.1500  175.2820  140.9080 C   0  0  2  0  0  3  0  0  0  0  0  0
  190.6390  171.6970  138.6890 C   0  0  1  0  0  3  0  0  0  0  0  0
  195.0810  172.7980  141.6950 C   0  0  0  0  0  2  0  0  0  0  0  0
  195.8690  174.1010  141.7740 C   0  0  2  0  0  3  0  0  0  0  0  0
  194.0120  174.7730  138.9460 O   0  0  0  0  0  1  0  0  0  0  0  0
  194.3540  176.0970  142.3470 C   0  0  0  0  0  2  0  0  0  0  0  0
  195.3280  175.0390  142.8950 C   0  0  1  0  0  3  0  0  0  0  0  0
  193.5100  175.5740  141.1680 C   0  0  0  0  0  2  0  0  0  0  0  0
  195.6810  174.7290  140.5250 O   0  0  0  0  0  0  0  0  0  0  0  0
  194.0010  173.1060  140.6670 C   0  0  2  0  0  3  0  0  0  0  0  0
  194.2990  174.5610  140.2940 C   0  0  2  0  0  0  0  0  0  0  0  0
  194.7040  174.2950  144.0800 C   0  0  0  0  0  2  0  0  0  0  0  0
  193.4840  176.9030  147.2400 N   0  0  0  0  0  0  0  0  0  0  0  0
  194.5650  177.2160  146.4760 C   0  0  0  0  0  3  0  0  0  0  0  0
  193.1220  174.8970  145.9990 C   0  0  0  0  0  3  0  0  0  0  0  0
  194.2430  175.1870  145.2030 C   0  0  0  0  0  0  0  0  0  0  0  0
  194.9630  176.3640  145.4430 C   0  0  0  0  0  3  0  0  0  0  0  0
  192.7440  175.7840  147.0130 C   0  0  0  0  0  0  0  0  0  0  0  0
  191.5540  175.4880  147.8550 C   0  0  0  0  0  2  0  0  0  0  0  0
  188.8620  177.6660  146.7540 O   0  0  0  0  0  0  0  0  0  0  0  0
  188.8570  175.3010  146.5690 C   0  0  0  0  0  1  0  0  0  0  0  0
  190.6380  176.6180  147.8170 N   0  0  0  0  0  2  0  0  0  0  0  0
  189.4230  176.5840  147.0680 C   0  0  0  0  0  0  0  0  0  0  0  0
  189.5330  172.1250  144.9880 C   0  0  0  0  0  1  0  0  0  0  0  0
  190.9910  172.2770  144.6100 C   0  0  0  0  0  2  0  0  0  0  0  0
  190.3360  170.8050  134.5790 C   0  0  0  0  0  1  0  0  0  0  0  0
  189.3680  171.5940  135.2230 O   0  0  0  0  0  0  0  0  0  0  0  0
  187.5580  176.6070  141.4450 C   0  0  2  0  0  3  0  0  0  0  0  0
  187.8210  177.1940  143.8700 O   0  0  0  0  0  1  0  0  0  0  0  0
  186.2300  175.6800  143.2030 O   0  0  0  0  0  0  0  0  0  0  0  0
  187.1640  176.4620  142.8880 C   0  0  0  0  0  0  0  0  0  0  0  0
  186.3390  177.0660  140.6240 C   0  0  2  0  0  3  0  0  0  0  0  0
  186.7030  177.3090  139.2990 O   0  0  0  0  0  1  0  0  0  0  0  0
  185.7420  178.3490  141.1960 C   0  0  0  0  0  2  0  0  0  0  0  0
  183.7730  177.9690  142.4790 O   0  0  0  0  0  1  0  0  0  0  0  0
  183.4440  178.2330  140.2260 O   0  0  0  0  0  0  0  0  0  0  0  0
  184.2660  178.2120  141.3450 C   0  0  0  0  0  0  0  0  0  0  0  0
  1  8  1  0  0  0  0
  2 15  1  0  0  0  0
  2 41  1  1  0  0  0
  3  7  1  0  0  0  0
  3  6  1  0  0  0  0
  4 15  1  0  0  0  0
  5 16  1  0  0  0  0
  6  5  1  0  0  0  0
  6  9  1  0  0  0  0
  7 18  1  0  0  0  0
  8 13  1  0  0  0  0
 10  8  1  0  0  0  0
 10 13  1  0  0  0  0
 11  3  1  0  0  0  0
 11  7  1  0  0  0  0
 12  1  1  0  0  0  0
 13  2  1  0  0  0  0
 14  4  2  0  0  0  0
 16 17  1  0  0  0  0
 17 44  1  0  0  0  0
 17 14  1  0  0  0  0
 18  9  1  0  0  0  0
 18 12  1  0  0  0  0
 19 20  1  0  0  0  0
 20 23  1  0  0  0  0
 21 27  1  0  0  0  0
 22 23  1  0  0  0  0
 23 28  1  0  0  0  0
 24 22  1  0  0  0  0
 25 20  1  0  0  0  0
 26 10  1  0  0  0  0
 26 19  1  0  0  0  0
 27 25  1  0  0  0  0
 27 26  1  0  0  0  0
 27 24  1  0  0  0  0
 28 32  1  0  0  0  0
 30 29  2  0  0  0  0
 31 34  2  0  0  0  0
 32 33  2  0  0  0  0
 32 31  1  0  0  0  0
 33 30  1  0  0  0  0
 34 29  1  0  0  0  0
 34 35  1  0  0  0  0
 36 39  2  0  0  0  0
 37 39  1  0  0  0  0
 38 35  1  0  0  0  0
 39 38  1  0  0  0  0
 41 40  1  0  0  0  0
 42 43  1  0  0  0  0
 43 11  1  0  0  0  0
 44 47  1  0  0  0  0
 47 46  2  0  0  0  0
 47 45  1  0  0  0  0
 48 50  1  0  0  0  0
 48 44  1  0  0  0  0
 49 48  1  0  0  0  0
 50 53  1  0  0  0  0
 52 53  2  0  0  0  0
 53 51  1  0  0  0  0
M  END
>  <MODEL>
8

>  <REMARK>
 VINA RESULT:      -6.3      2.673      5.912
  Name = 
  12 active torsions:
  status: ('A' for Active; 'I' for Inactive)
    1  A    between atoms: C_4  and  C_52
    2  A    between atoms: C_14  and  C_41
    3  A    between atoms: C_14  and  C_45
    4  A    between atoms: C_14  and  C_48
    5  A    between atoms: N_15  and  C_47
    6  A    between atoms: C_20  and  C_51
    7  A    between atoms: C_25  and  C_35
    8  A    between atoms: C_28  and  O_50
    9  A    between atoms: C_32  and  C_44
   10  A    between atoms: C_37  and  C_51
   11  A    between atoms: C_41  and  C_44
   12  A    between atoms: C_47  and  C_49
                            x       y       z     vdW  Elec       q    Type
                         _______ _______ _______ _____ _____    ______ ____

>  <TORSDO>
F 12

$$$$
=
 OpenBabel11062420303D

 53 59  0  0  1  0  0  0  0  0999 V2000
  197.0880  171.5490  140.7500 C   0  0  0  0  0  2  0  0  0  0  0  0
  195.1170  171.0340  142.6770 C   0  0  2  0  0  3  0  0  0  0  0  0
  195.5360  174.0710  137.1110 C   0  0  2  0  0  3  0  0  0  0  0  0
  193.0670  172.2510  141.8390 C   0  0  0  0  0  3  0  0  0  0  0  0
  193.3330  173.4910  138.1200 C   0  0  0  0  0  2  0  0  0  0  0  0
  194.6670  174.1830  138.3500 C   0  0  1  0  0  3  0  0  0  0  0  0
  196.9150  173.6180  137.5690 C   0  0  1  0  0  3  0  0  0  0  0  0
  197.3050  172.2980  142.0720 C   0  0  1  0  0  3  0  0  0  0  0  0
  195.4050  173.4730  139.4470 C   0  0  0  0  0  2  0  0  0  0  0  0
  196.1860  173.2810  142.3390 C   0  0  1  0  0  3  0  0  0  0  0  0
  196.6840  175.0610  137.1570 C   0  0  1  0  0  3  0  0  0  0  0  0
  197.6560  172.2720  139.5260 C   0  0  0  0  0  2  0  0  0  0  0  0
  196.2370  171.9870  143.1350 C   0  0  1  0  0  3  0  0  0  0  0  0
  192.9530  171.6110  140.6710 C   0  0  0  0  0  3  0  0  0  0  0  0
  193.7340  171.5890  143.0140 C   0  0  0  0  0  2  0  0  0  0  0  0
  192.5610  173.5190  139.2860 O   0  0  0  0  0  0  0  0  0  0  0  0
  192.1770  172.1890  139.5070 C   0  0  2  0  0  3  0  0  0  0  0  0
  196.8730  173.5080  139.0790 C   0  0  1  0  0  3  0  0  0  0  0  0
  196.1350  174.7070  144.4890 C   0  0  0  0  0  2  0  0  0  0  0  0
  195.6030  176.1350  144.4240 C   0  0  2  0  0  3  0  0  0  0  0  0
  197.5040  176.1420  141.5450 O   0  0  0  0  0  1  0  0  0  0  0  0
  193.9680  176.4540  142.4650 C   0  0  0  0  0  2  0  0  0  0  0  0
  194.1120  176.1780  143.9720 C   0  0  1  0  0  3  0  0  0  0  0  0
  195.1100  175.8320  141.6360 C   0  0  0  0  0  2  0  0  0  0  0  0
  196.3920  176.7840  143.4510 O   0  0  0  0  0  0  0  0  0  0  0  0
  196.7340  174.4940  143.1050 C   0  0  2  0  0  3  0  0  0  0  0  0
  196.4560  175.8310  142.4120 C   0  0  2  0  0  0  0  0  0  0  0  0
  193.3050  174.9380  144.3720 C   0  0  0  0  0  2  0  0  0  0  0  0
  190.3110  175.6550  147.3370 N   0  0  0  0  0  0  0  0  0  0  0  0
  191.5590  175.2610  147.7090 C   0  0  0  0  0  3  0  0  0  0  0  0
  190.9300  175.6210  145.0330 C   0  0  0  0  0  3  0  0  0  0  0  0
  192.2230  175.2000  145.3860 C   0  0  0  0  0  0  0  0  0  0  0  0
  192.5370  175.0280  146.7400 C   0  0  0  0  0  3  0  0  0  0  0  0
  189.9810  175.8630  146.0340 C   0  0  0  0  0  0  0  0  0  0  0  0
  188.6140  176.3160  145.6680 C   0  0  0  0  0  2  0  0  0  0  0  0
  185.9650  177.4060  147.9040 O   0  0  0  0  0  0  0  0  0  0  0  0
  185.7280  177.1060  145.5620 C   0  0  0  0  0  1  0  0  0  0  0  0
  187.8030  176.4400  146.8710 N   0  0  0  0  0  2  0  0  0  0  0  0
  186.4780  176.9700  146.8410 C   0  0  0  0  0  0  0  0  0  0  0  0
  194.4330  169.6070  144.6160 C   0  0  0  0  0  1  0  0  0  0  0  0
  195.2830  169.6860  143.3660 C   0  0  0  0  0  2  0  0  0  0  0  0
  196.6380  176.5540  135.4860 C   0  0  0  0  0  1  0  0  0  0  0  0
  197.1220  175.2870  135.8520 O   0  0  0  0  0  0  0  0  0  0  0  0
  190.6480  172.0790  139.7140 C   0  0  2  0  0  3  0  0  0  0  0  0
  189.8160  172.1400  137.3470 O   0  0  0  0  0  0  0  0  0  0  0  0
  189.6300  170.2260  138.5990 O   0  0  0  0  0  1  0  0  0  0  0  0
  190.0000  171.4270  138.5260 C   0  0  0  0  0  0  0  0  0  0  0  0
  190.0010  173.4540  139.9600 C   0  0  2  0  0  3  0  0  0  0  0  0
  190.5180  174.0410  141.1160 O   0  0  0  0  0  1  0  0  0  0  0  0
  188.4900  173.3300  140.1270 C   0  0  0  0  0  2  0  0  0  0  0  0
  187.8510  174.6000  142.0370 O   0  0  0  0  0  0  0  0  0  0  0  0
  188.1640  172.3590  142.4050 O   0  0  0  0  0  1  0  0  0  0  0  0
  188.1120  173.4620  141.5630 C   0  0  0  0  0  0  0  0  0  0  0  0
  1  8  1  0  0  0  0
  2 15  1  0  0  0  0
  2 13  1  0  0  0  0
  2 41  1  1  0  0  0
  3 11  1  0  0  0  0
  3  7  1  0  0  0  0
  3  6  1  0  0  0  0
  4 15  1  0  0  0  0
  5  6  1  0  0  0  0
  5 16  1  0  0  0  0
  6  9  1  0  0  0  0
  7 18  1  0  0  0  0
  8 10  1  0  0  0  0
  8 13  1  0  0  0  0
 10 26  1  0  0  0  0
 10 13  1  0  0  0  0
 11  7  1  0  0  0  0
 12  1  1  0  0  0  0
 14  4  2  0  0  0  0
 16 17  1  0  0  0  0
 17 44  1  0  0  0  0
 17 14  1  0  0  0  0
 18  9  1  0  0  0  0
 18 12  1  0  0  0  0
 20 19  1  0  0  0  0
 21 27  1  0  0  0  0
 22 23  1  0  0  0  0
 23 28  1  0  0  0  0
 23 20  1  0  0  0  0
 24 27  1  0  0  0  0
 24 22  1  0  0  0  0
 25 20  1  0  0  0  0
 26 19  1  0  0  0  0
 27 26  1  0  0  0  0
 27 25  1  0  0  0  0
 28 32  1  0  0  0  0
 29 30  1  0  0  0  0
 31 32  2  0  0  0  0
 31 34  1  0  0  0  0
 32 33  1  0  0  0  0
 33 30  2  0  0  0  0
 34 29  2  0  0  0  0
 35 34  1  0  0  0  0
 35 38  1  0  0  0  0
 37 39  1  0  0  0  0
 39 38  1  0  0  0  0
 39 36  2  0  0  0  0
 41 40  1  0  0  0  0
 42 43  1  0  0  0  0
 43 11  1  0  0  0  0
 44 48  1  0  0  0  0
 45 47  2  0  0  0  0
 47 46  1  0  0  0  0
 47 44  1  0  0  0  0
 48 50  1  0  0  0  0
 48 49  1  0  0  0  0
 50 53  1  0  0  0  0
 53 51  2  0  0  0  0
 53 52  1  0  0  0  0
M  END
>  <MODEL>
9

>  <REMARK>
 VINA RESULT:      -6.2      1.589      2.255
  Name = 
  12 active torsions:
  status: ('A' for Active; 'I' for Inactive)
    1  A    between atoms: C_4  and  C_52
    2  A    between atoms: C_14  and  C_41
    3  A    between atoms: C_14  and  C_45
    4  A    between atoms: C_14  and  C_48
    5  A    between atoms: N_15  and  C_47
    6  A    between atoms: C_20  and  C_51
    7  A    between atoms: C_25  and  C_35
    8  A    between atoms: C_28  and  O_50
    9  A    between atoms: C_32  and  C_44
   10  A    between atoms: C_37  and  C_51
   11  A    between atoms: C_41  and  C_44
   12  A    between atoms: C_47  and  C_49
                            x       y       z     vdW  Elec       q    Type
                         _______ _______ _______ _____ _____    ______ ____

>  <TORSDO>
F 12

$$$$
