=
 OpenBabel11062419563D

 28 29  0  0  1  0  0  0  0  0999 V2000
  189.2560  176.7720  144.1350 C   0  0  0  0  0  0  0  0  0  0  0  0
  190.3410  176.6090  146.3090 C   0  0  0  0  0  0  0  0  0  0  0  0
  190.4150  176.6860  144.9100 C   0  0  0  0  0  3  0  0  0  0  0  0
  188.0050  176.8080  144.7550 C   0  0  0  0  0  3  0  0  0  0  0  0
  187.9130  176.7410  146.1470 C   0  0  0  0  0  0  0  0  0  0  0  0
  189.0760  176.6470  146.9190 C   0  0  0  0  0  3  0  0  0  0  0  0
  191.5350  176.5420  147.1160 N   0  0  0  0  0  0  0  0  0  0  0  0
  191.5090  177.0540  148.4780 C   0  0  0  0  0  1  0  0  0  0  0  0
  192.7600  176.0300  146.6430 N   0  0  0  0  0  2  0  0  0  0  0  0
  193.9940  176.7460  146.6930 C   0  0  0  0  0  3  0  0  0  0  0  0
  194.5630  177.1640  145.5740 C   0  0  0  0  0  2  0  0  0  0  0  0
  186.5730  176.7850  146.8040 C   0  0  0  0  0  2  0  0  0  0  0  0
  185.4620  177.1080  145.8060 C   0  0  0  0  0  2  0  0  0  0  0  0
  185.7010  179.3120  146.6800 O   0  0  0  0  0  1  0  0  0  0  0  0
  183.7030  178.2970  146.9420 F   0  0  0  0  0  0  0  0  0  0  0  0
  184.7800  178.4570  146.0760 C   0  0  2  0  0  0  0  0  0  0  0  0
  184.3670  179.0480  144.8610 O   0  0  0  0  0  0  0  0  0  0  0  0
  185.3900  179.8880  144.3900 C   0  0  0  0  0  1  0  0  0  0  0  0
  189.3600  176.8720  142.6520 C   0  0  0  0  0  2  0  0  0  0  0  0
  188.1070  175.6750  140.8200 C   0  0  0  0  0  0  0  0  0  0  0  0
  188.0610  174.3990  138.7460 O   0  0  0  0  0  1  0  0  0  0  0  0
  187.2090  176.5540  140.4790 N   0  0  0  0  0  0  0  0  0  0  0  0
  189.6440  174.4390  141.9630 C   0  0  0  0  0  3  0  0  0  0  0  0
  188.8400  175.6630  142.0250 N   0  0  0  0  0  0  0  0  0  0  0  0
  189.4500  173.8090  140.6380 N   0  0  0  0  0  0  0  0  0  0  0  0
  188.4410  174.5700  140.0330 N   0  0  0  0  0  0  0  0  0  0  0  0
  185.5960  177.3100  142.0590 N   0  0  0  0  0  1  0  0  0  0  0  0
  186.7920  177.6700  141.3160 C   0  0  0  0  0  2  0  0  0  0  0  0
  1  4  2  0  0  0  0
  1  3  1  0  0  0  0
  2  6  1  0  0  0  0
  2  7  1  0  0  0  0
  3  2  2  0  0  0  0
  4  5  1  0  0  0  0
  5 12  1  0  0  0  0
  5  6  2  0  0  0  0
  7  8  1  0  0  0  0
  9 10  1  0  0  0  0
  9  7  1  0  0  0  0
 11 10  2  0  0  0  0
 13 16  1  0  0  0  0
 13 12  1  0  0  0  0
 16 14  1  1  0  0  0
 16 15  1  0  0  0  0
 17 16  1  0  0  0  0
 18 17  1  0  0  0  0
 19  1  1  0  0  0  0
 20 24  1  0  0  0  0
 21 26  1  0  0  0  0
 22 20  2  0  0  0  0
 22 28  1  0  0  0  0
 23 24  1  0  0  0  0
 24 19  1  0  0  0  0
 25 23  2  0  0  0  0
 26 25  1  0  0  0  0
 26 20  1  0  0  0  0
 28 27  1  0  0  0  0
M  END
>  <MODEL>
1

>  <REMARK>
 VINA RESULT:      -6.6      0.000      0.000
  Name = 
  10 active torsions:
  status: ('A' for Active; 'I' for Inactive)
    1  A    between atoms: C_4  and  C_25
    2  A    between atoms: C_4  and  C_26
    3  A    between atoms: C_5  and  C_19
    4  A    between atoms: C_7  and  N_8
    5  A    between atoms: N_8  and  N_23
    6  A    between atoms: O_9  and  C_20
    7  A    between atoms: N_10  and  C_11
    8  A    between atoms: N_13  and  C_19
    9  A    between atoms: C_14  and  N_23
   10  A    between atoms: C_20  and  C_26
                            x       y       z     vdW  Elec       q    Type
                         _______ _______ _______ _____ _____    ______ ____

>  <TORSDO>
F 10

$$$$
=
 OpenBabel11062419563D

 28 29  0  0  1  0  0  0  0  0999 V2000
  189.3270  177.1780  144.2570 C   0  0  0  0  0  0  0  0  0  0  0  0
  188.0070  177.4610  146.2840 C   0  0  0  0  0  0  0  0  0  0  0  0
  188.1090  177.4520  144.8850 C   0  0  0  0  0  3  0  0  0  0  0  0
  190.4560  176.8840  145.0260 C   0  0  0  0  0  3  0  0  0  0  0  0
  190.3700  176.8790  146.4210 C   0  0  0  0  0  0  0  0  0  0  0  0
  189.1490  177.1610  147.0450 C   0  0  0  0  0  3  0  0  0  0  0  0
  186.7470  177.7210  146.9380 N   0  0  0  0  0  0  0  0  0  0  0  0
  186.7070  178.6140  148.0860 C   0  0  0  0  0  1  0  0  0  0  0  0
  185.5330  177.1240  146.5420 N   0  0  0  0  0  2  0  0  0  0  0  0
  184.3140  177.8440  146.3590 C   0  0  0  0  0  3  0  0  0  0  0  0
  184.2230  178.7590  145.4080 C   0  0  0  0  0  2  0  0  0  0  0  0
  191.5780  176.5590  147.2360 C   0  0  0  0  0  2  0  0  0  0  0  0
  192.5690  175.6900  146.4640 C   0  0  0  0  0  2  0  0  0  0  0  0
  194.9330  175.3840  146.4600 O   0  0  0  0  0  1  0  0  0  0  0  0
  194.1360  177.3460  147.2390 F   0  0  0  0  0  0  0  0  0  0  0  0
  193.9440  176.3510  146.2870 C   0  0  2  0  0  0  0  0  0  0  0  0
  194.0700  176.8730  144.9800 O   0  0  0  0  0  0  0  0  0  0  0  0
  195.2910  176.4470  144.4320 C   0  0  0  0  0  1  0  0  0  0  0  0
  189.4080  177.1560  142.7700 C   0  0  0  0  0  2  0  0  0  0  0  0
  188.1470  175.8110  141.0510 C   0  0  0  0  0  0  0  0  0  0  0  0
  188.0920  174.3560  139.0980 O   0  0  0  0  0  1  0  0  0  0  0  0
  187.2550  176.6620  140.6330 N   0  0  0  0  0  0  0  0  0  0  0  0
  189.6750  174.6700  142.3000 C   0  0  0  0  0  3  0  0  0  0  0  0
  188.8800  175.9000  142.2520 N   0  0  0  0  0  0  0  0  0  0  0  0
  189.4760  173.9260  141.0350 N   0  0  0  0  0  0  0  0  0  0  0  0
  188.4720  174.6380  140.3650 N   0  0  0  0  0  0  0  0  0  0  0  0
  185.5210  178.2650  140.9350 N   0  0  0  0  0  1  0  0  0  0  0  0
  186.8460  177.8510  141.3670 C   0  0  0  0  0  2  0  0  0  0  0  0
  1  3  2  0  0  0  0
  1  4  1  0  0  0  0
  2  7  1  0  0  0  0
  2  6  2  0  0  0  0
  3  2  1  0  0  0  0
  4  5  2  0  0  0  0
  5  6  1  0  0  0  0
  5 12  1  0  0  0  0
  7  8  1  0  0  0  0
  9  7  1  0  0  0  0
 10  9  1  0  0  0  0
 11 10  2  0  0  0  0
 13 12  1  0  0  0  0
 16 14  1  1  0  0  0
 16 13  1  0  0  0  0
 16 15  1  0  0  0  0
 17 16  1  0  0  0  0
 18 17  1  0  0  0  0
 19  1  1  0  0  0  0
 20 24  1  0  0  0  0
 21 26  1  0  0  0  0
 22 20  2  0  0  0  0
 22 28  1  0  0  0  0
 24 23  1  0  0  0  0
 24 19  1  0  0  0  0
 25 23  2  0  0  0  0
 26 25  1  0  0  0  0
 26 20  1  0  0  0  0
 27 28  1  0  0  0  0
M  END
>  <MODEL>
2

>  <REMARK>
 VINA RESULT:      -6.4      3.550      5.738
  Name = 
  10 active torsions:
  status: ('A' for Active; 'I' for Inactive)
    1  A    between atoms: C_4  and  C_25
    2  A    between atoms: C_4  and  C_26
    3  A    between atoms: C_5  and  C_19
    4  A    between atoms: C_7  and  N_8
    5  A    between atoms: N_8  and  N_23
    6  A    between atoms: O_9  and  C_20
    7  A    between atoms: N_10  and  C_11
    8  A    between atoms: N_13  and  C_19
    9  A    between atoms: C_14  and  N_23
   10  A    between atoms: C_20  and  C_26
                            x       y       z     vdW  Elec       q    Type
                         _______ _______ _______ _____ _____    ______ ____

>  <TORSDO>
F 10

$$$$
=
 OpenBabel11062419563D

 28 29  0  0  1  0  0  0  0  0999 V2000
  188.8710  175.6730  145.7680 C   0  0  0  0  0  0  0  0  0  0  0  0
  187.2460  177.4830  145.8990 C   0  0  0  0  0  0  0  0  0  0  0  0
  187.8590  176.3490  146.4550 C   0  0  0  0  0  3  0  0  0  0  0  0
  189.3010  176.1410  144.5250 C   0  0  0  0  0  3  0  0  0  0  0  0
  188.7080  177.2730  143.9600 C   0  0  0  0  0  0  0  0  0  0  0  0
  187.6900  177.9430  144.6480 C   0  0  0  0  0  3  0  0  0  0  0  0
  186.2150  178.1980  146.6120 N   0  0  0  0  0  0  0  0  0  0  0  0
  185.9460  177.8680  148.0030 C   0  0  0  0  0  1  0  0  0  0  0  0
  185.4150  179.1950  146.0180 N   0  0  0  0  0  2  0  0  0  0  0  0
  184.1680  178.9350  145.3740 C   0  0  0  0  0  3  0  0  0  0  0  0
  184.1010  178.8940  144.0530 C   0  0  0  0  0  2  0  0  0  0  0  0
  189.1760  177.7710  142.6330 C   0  0  0  0  0  2  0  0  0  0  0  0
  188.0150  177.9680  141.6600 C   0  0  0  0  0  2  0  0  0  0  0  0
  186.8750  176.8590  139.8850 O   0  0  0  0  0  1  0  0  0  0  0  0
  186.4080  176.2060  141.9940 F   0  0  0  0  0  0  0  0  0  0  0  0
  187.4220  176.6460  141.1500 C   0  0  2  0  0  0  0  0  0  0  0  0
  188.4360  175.6700  141.0280 O   0  0  0  0  0  0  0  0  0  0  0  0
  187.9800  174.4640  141.5860 C   0  0  0  0  0  1  0  0  0  0  0  0
  189.5200  174.4830  146.3860 C   0  0  0  0  0  2  0  0  0  0  0  0
  191.9760  174.9020  146.0020 C   0  0  0  0  0  0  0  0  0  0  0  0
  193.8570  176.4120  145.6630 O   0  0  0  0  0  1  0  0  0  0  0  0
  192.2420  174.1010  145.0110 N   0  0  0  0  0  0  0  0  0  0  0  0
  191.0630  175.8830  147.8470 C   0  0  0  0  0  3  0  0  0  0  0  0
  190.8570  174.8220  146.8560 N   0  0  0  0  0  0  0  0  0  0  0  0
  192.2660  176.6580  147.4690 N   0  0  0  0  0  0  0  0  0  0  0  0
  192.8120  175.9530  146.3890 N   0  0  0  0  0  0  0  0  0  0  0  0
  192.2780  171.8220  144.3220 N   0  0  0  0  0  1  0  0  0  0  0  0
  191.4240  172.9560  144.6370 C   0  0  0  0  0  2  0  0  0  0  0  0
  1 19  1  0  0  0  0
  1  3  1  0  0  0  0
  2  3  2  0  0  0  0
  2  7  1  0  0  0  0
  4  1  2  0  0  0  0
  5  4  1  0  0  0  0
  5  6  2  0  0  0  0
  6  2  1  0  0  0  0
  7  8  1  0  0  0  0
  9  7  1  0  0  0  0
 10  9  1  0  0  0  0
 11 10  2  0  0  0  0
 12  5  1  0  0  0  0
 13 12  1  0  0  0  0
 16 14  1  6  0  0  0
 16 13  1  0  0  0  0
 16 15  1  0  0  0  0
 17 16  1  0  0  0  0
 17 18  1  0  0  0  0
 19 24  1  0  0  0  0
 20 26  1  0  0  0  0
 20 24  1  0  0  0  0
 21 26  1  0  0  0  0
 22 20  2  0  0  0  0
 24 23  1  0  0  0  0
 25 23  2  0  0  0  0
 26 25  1  0  0  0  0
 27 28  1  0  0  0  0
 28 22  1  0  0  0  0
M  END
>  <MODEL>
3

>  <REMARK>
 VINA RESULT:      -6.1      3.418      6.467
  Name = 
  10 active torsions:
  status: ('A' for Active; 'I' for Inactive)
    1  A    between atoms: C_4  and  C_25
    2  A    between atoms: C_4  and  C_26
    3  A    between atoms: C_5  and  C_19
    4  A    between atoms: C_7  and  N_8
    5  A    between atoms: N_8  and  N_23
    6  A    between atoms: O_9  and  C_20
    7  A    between atoms: N_10  and  C_11
    8  A    between atoms: N_13  and  C_19
    9  A    between atoms: C_14  and  N_23
   10  A    between atoms: C_20  and  C_26
                            x       y       z     vdW  Elec       q    Type
                         _______ _______ _______ _____ _____    ______ ____

>  <TORSDO>
F 10

$$$$
=
 OpenBabel11062419563D

 28 29  0  0  1  0  0  0  0  0999 V2000
  189.6210  175.4780  144.3410 C   0  0  0  0  0  0  0  0  0  0  0  0
  187.9870  176.4100  142.7930 C   0  0  0  0  0  0  0  0  0  0  0  0
  189.1980  175.7420  143.0350 C   0  0  0  0  0  3  0  0  0  0  0  0
  188.8230  175.8580  145.4220 C   0  0  0  0  0  3  0  0  0  0  0  0
  187.6110  176.5160  145.1990 C   0  0  0  0  0  0  0  0  0  0  0  0
  187.1940  176.7850  143.8900 C   0  0  0  0  0  3  0  0  0  0  0  0
  187.5340  176.6670  141.4480 N   0  0  0  0  0  0  0  0  0  0  0  0
  187.7170  175.6490  140.4240 C   0  0  0  0  0  1  0  0  0  0  0  0
  186.9420  177.8830  141.0500 N   0  0  0  0  0  2  0  0  0  0  0  0
  185.6620  177.9770  140.4260 C   0  0  0  0  0  3  0  0  0  0  0  0
  184.5790  178.1710  141.1620 C   0  0  0  0  0  2  0  0  0  0  0  0
  186.7600  176.9140  146.3590 C   0  0  0  0  0  2  0  0  0  0  0  0
  185.2930  177.0650  145.9610 C   0  0  0  0  0  2  0  0  0  0  0  0
  185.7820  179.3010  146.6260 O   0  0  0  0  0  1  0  0  0  0  0  0
  183.8000  178.4320  147.2660 F   0  0  0  0  0  0  0  0  0  0  0  0
  184.7330  178.4690  146.2360 C   0  0  2  0  0  0  0  0  0  0  0  0
  184.1650  179.0070  145.0600 O   0  0  0  0  0  0  0  0  0  0  0  0
  185.1260  179.7960  144.4060 C   0  0  0  0  0  1  0  0  0  0  0  0
  190.9010  174.7510  144.5730 C   0  0  0  0  0  2  0  0  0  0  0  0
  193.1120  175.6590  145.3760 C   0  0  0  0  0  0  0  0  0  0  0  0
  195.5410  175.7810  145.2540 O   0  0  0  0  0  1  0  0  0  0  0  0
  193.0310  175.4850  146.6640 N   0  0  0  0  0  0  0  0  0  0  0  0
  192.6290  175.9850  143.1720 C   0  0  0  0  0  3  0  0  0  0  0  0
  192.0300  175.6670  144.4710 N   0  0  0  0  0  0  0  0  0  0  0  0
  194.1010  176.0380  143.3270 N   0  0  0  0  0  0  0  0  0  0  0  0
  194.3110  175.9140  144.7070 N   0  0  0  0  0  0  0  0  0  0  0  0
  191.3470  176.5560  147.9620 N   0  0  0  0  0  1  0  0  0  0  0  0
  191.7850  175.2930  147.3920 C   0  0  0  0  0  2  0  0  0  0  0  0
  1 19  1  0  0  0  0
  1  4  1  0  0  0  0
  2  3  1  0  0  0  0
  2  6  2  0  0  0  0
  3  1  2  0  0  0  0
  5  4  2  0  0  0  0
  5 12  1  0  0  0  0
  6  5  1  0  0  0  0
  7  2  1  0  0  0  0
  8  7  1  0  0  0  0
  9  7  1  0  0  0  0
 10  9  1  0  0  0  0
 10 11  2  0  0  0  0
 13 16  1  0  0  0  0
 13 12  1  0  0  0  0
 16 14  1  1  0  0  0
 16 15  1  0  0  0  0
 17 16  1  0  0  0  0
 18 17  1  0  0  0  0
 20 22  2  0  0  0  0
 22 28  1  0  0  0  0
 23 25  2  0  0  0  0
 23 24  1  0  0  0  0
 24 19  1  0  0  0  0
 24 20  1  0  0  0  0
 25 26  1  0  0  0  0
 26 21  1  0  0  0  0
 26 20  1  0  0  0  0
 28 27  1  0  0  0  0
M  END
>  <MODEL>
4

>  <REMARK>
 VINA RESULT:      -6.1      2.442      5.847
  Name = 
  10 active torsions:
  status: ('A' for Active; 'I' for Inactive)
    1  A    between atoms: C_4  and  C_25
    2  A    between atoms: C_4  and  C_26
    3  A    between atoms: C_5  and  C_19
    4  A    between atoms: C_7  and  N_8
    5  A    between atoms: N_8  and  N_23
    6  A    between atoms: O_9  and  C_20
    7  A    between atoms: N_10  and  C_11
    8  A    between atoms: N_13  and  C_19
    9  A    between atoms: C_14  and  N_23
   10  A    between atoms: C_20  and  C_26
                            x       y       z     vdW  Elec       q    Type
                         _______ _______ _______ _____ _____    ______ ____

>  <TORSDO>
F 10

$$$$
=
 OpenBabel11062419563D

 28 29  0  0  1  0  0  0  0  0999 V2000
  189.3560  177.0050  143.4950 C   0  0  0  0  0  0  0  0  0  0  0  0
  188.2420  175.2940  142.1660 C   0  0  0  0  0  0  0  0  0  0  0  0
  189.4130  175.8700  142.6810 C   0  0  0  0  0  3  0  0  0  0  0  0
  188.1190  177.5640  143.8240 C   0  0  0  0  0  3  0  0  0  0  0  0
  186.9420  176.9980  143.3270 C   0  0  0  0  0  0  0  0  0  0  0  0
  187.0040  175.8660  142.5060 C   0  0  0  0  0  3  0  0  0  0  0  0
  188.2930  174.1100  141.3430 N   0  0  0  0  0  0  0  0  0  0  0  0
  188.4510  174.2450  139.9020 C   0  0  0  0  0  1  0  0  0  0  0  0
  188.1640  172.8050  141.8580 N   0  0  0  0  0  2  0  0  0  0  0  0
  189.2350  172.0770  142.4580 C   0  0  0  0  0  3  0  0  0  0  0  0
  189.4280  172.1400  143.7660 C   0  0  0  0  0  2  0  0  0  0  0  0
  185.6220  177.5970  143.6860 C   0  0  0  0  0  2  0  0  0  0  0  0
  185.7790  178.7890  144.6290 C   0  0  0  0  0  2  0  0  0  0  0  0
  183.7230  178.8770  145.8310 O   0  0  0  0  0  1  0  0  0  0  0  0
  185.6050  179.4480  146.9390 F   0  0  0  0  0  0  0  0  0  0  0  0
  185.0790  178.5870  145.9810 C   0  0  2  0  0  0  0  0  0  0  0  0
  185.1940  177.2410  146.3940 O   0  0  0  0  0  0  0  0  0  0  0  0
  186.1700  177.1530  147.4010 C   0  0  0  0  0  1  0  0  0  0  0  0
  190.6110  177.5880  144.0460 C   0  0  0  0  0  2  0  0  0  0  0  0
  192.6080  176.4130  145.0390 C   0  0  0  0  0  0  0  0  0  0  0  0
  194.3330  176.2070  146.7460 O   0  0  0  0  0  1  0  0  0  0  0  0
  193.3950  176.2850  144.0100 N   0  0  0  0  0  0  0  0  0  0  0  0
  190.7900  176.6340  146.3980 C   0  0  0  0  0  3  0  0  0  0  0  0
  191.2220  176.6680  144.9970 N   0  0  0  0  0  0  0  0  0  0  0  0
  191.9840  176.4760  147.2590 N   0  0  0  0  0  0  0  0  0  0  0  0
  193.0380  176.2650  146.3600 N   0  0  0  0  0  0  0  0  0  0  0  0
  194.0990  176.2450  141.7360 N   0  0  0  0  0  1  0  0  0  0  0  0
  192.9540  176.3610  142.6240 C   0  0  0  0  0  2  0  0  0  0  0  0
  1  4  1  0  0  0  0
  1 19  1  0  0  0  0
  2  6  2  0  0  0  0
  2  3  1  0  0  0  0
  3  1  2  0  0  0  0
  5 12  1  0  0  0  0
  5  4  2  0  0  0  0
  6  5  1  0  0  0  0
  7  9  1  0  0  0  0
  7  2  1  0  0  0  0
  8  7  1  0  0  0  0
  9 10  1  0  0  0  0
 10 11  2  0  0  0  0
 12 13  1  0  0  0  0
 13 16  1  0  0  0  0
 16 14  1  6  0  0  0
 16 17  1  0  0  0  0
 16 15  1  0  0  0  0
 17 18  1  0  0  0  0
 19 24  1  0  0  0  0
 20 26  1  0  0  0  0
 22 20  2  0  0  0  0
 23 25  2  0  0  0  0
 24 20  1  0  0  0  0
 24 23  1  0  0  0  0
 26 21  1  0  0  0  0
 26 25  1  0  0  0  0
 27 28  1  0  0  0  0
 28 22  1  0  0  0  0
M  END
>  <MODEL>
5

>  <REMARK>
 VINA RESULT:      -6.1      2.636      5.682
  Name = 
  10 active torsions:
  status: ('A' for Active; 'I' for Inactive)
    1  A    between atoms: C_4  and  C_25
    2  A    between atoms: C_4  and  C_26
    3  A    between atoms: C_5  and  C_19
    4  A    between atoms: C_7  and  N_8
    5  A    between atoms: N_8  and  N_23
    6  A    between atoms: O_9  and  C_20
    7  A    between atoms: N_10  and  C_11
    8  A    between atoms: N_13  and  C_19
    9  A    between atoms: C_14  and  N_23
   10  A    between atoms: C_20  and  C_26
                            x       y       z     vdW  Elec       q    Type
                         _______ _______ _______ _____ _____    ______ ____

>  <TORSDO>
F 10

$$$$
=
 OpenBabel11062419563D

 28 29  0  0  1  0  0  0  0  0999 V2000
  188.6740  177.2810  144.1330 C   0  0  0  0  0  0  0  0  0  0  0  0
  186.2730  177.4110  143.7470 C   0  0  0  0  0  0  0  0  0  0  0  0
  187.4520  177.9380  144.2960 C   0  0  0  0  0  3  0  0  0  0  0  0
  188.7350  176.0970  143.3940 C   0  0  0  0  0  3  0  0  0  0  0  0
  187.5720  175.5630  142.8330 C   0  0  0  0  0  0  0  0  0  0  0  0
  186.3490  176.2200  143.0050 C   0  0  0  0  0  3  0  0  0  0  0  0
  185.0110  178.0960  143.8940 N   0  0  0  0  0  0  0  0  0  0  0  0
  184.0960  178.1600  142.7640 C   0  0  0  0  0  1  0  0  0  0  0  0
  184.6200  178.7490  145.0800 N   0  0  0  0  0  2  0  0  0  0  0  0
  184.3990  178.0790  146.3210 C   0  0  0  0  0  3  0  0  0  0  0  0
  185.0670  178.4480  147.4010 C   0  0  0  0  0  2  0  0  0  0  0  0
  187.6450  174.3000  142.0400 C   0  0  0  0  0  2  0  0  0  0  0  0
  189.0890  173.8930  141.7530 C   0  0  0  0  0  2  0  0  0  0  0  0
  189.9090  171.6820  141.4110 O   0  0  0  0  0  1  0  0  0  0  0  0
  188.3930  171.9910  143.0550 F   0  0  0  0  0  0  0  0  0  0  0  0
  189.4840  172.5610  142.4070 C   0  0  2  0  0  0  0  0  0  0  0  0
  190.5580  172.7560  143.3030 O   0  0  0  0  0  0  0  0  0  0  0  0
  190.0670  172.7350  144.6190 C   0  0  0  0  0  1  0  0  0  0  0  0
  189.9160  177.8690  144.7090 C   0  0  0  0  0  2  0  0  0  0  0  0
  192.0190  176.6740  145.4200 C   0  0  0  0  0  0  0  0  0  0  0  0
  193.8720  176.3510  146.9670 O   0  0  0  0  0  1  0  0  0  0  0  0
  192.7310  176.6930  144.3300 N   0  0  0  0  0  0  0  0  0  0  0  0
  190.3010  176.6690  146.9190 C   0  0  0  0  0  3  0  0  0  0  0  0
  190.6260  176.8750  145.5040 N   0  0  0  0  0  0  0  0  0  0  0  0
  191.5600  176.4650  147.6700 N   0  0  0  0  0  0  0  0  0  0  0  0
  192.5510  176.3980  146.6820 N   0  0  0  0  0  0  0  0  0  0  0  0
  192.1720  175.6480  142.2650 N   0  0  0  0  0  1  0  0  0  0  0  0
  192.1870  176.9050  142.9960 C   0  0  0  0  0  2  0  0  0  0  0  0
  1  3  1  0  0  0  0
  1 19  1  0  0  0  0
  2  7  1  0  0  0  0
  2  3  2  0  0  0  0
  4  1  2  0  0  0  0
  5  6  2  0  0  0  0
  5  4  1  0  0  0  0
  6  2  1  0  0  0  0
  7  9  1  0  0  0  0
  8  7  1  0  0  0  0
  9 10  1  0  0  0  0
 10 11  2  0  0  0  0
 12  5  1  0  0  0  0
 13 12  1  0  0  0  0
 13 16  1  0  0  0  0
 16 14  1  6  0  0  0
 16 15  1  0  0  0  0
 16 17  1  0  0  0  0
 17 18  1  0  0  0  0
 19 24  1  0  0  0  0
 20 24  1  0  0  0  0
 20 26  1  0  0  0  0
 22 20  2  0  0  0  0
 23 25  2  0  0  0  0
 24 23  1  0  0  0  0
 26 21  1  0  0  0  0
 26 25  1  0  0  0  0
 27 28  1  0  0  0  0
 28 22  1  0  0  0  0
M  END
>  <MODEL>
6

>  <REMARK>
 VINA RESULT:      -6.1      3.644      7.074
  Name = 
  10 active torsions:
  status: ('A' for Active; 'I' for Inactive)
    1  A    between atoms: C_4  and  C_25
    2  A    between atoms: C_4  and  C_26
    3  A    between atoms: C_5  and  C_19
    4  A    between atoms: C_7  and  N_8
    5  A    between atoms: N_8  and  N_23
    6  A    between atoms: O_9  and  C_20
    7  A    between atoms: N_10  and  C_11
    8  A    between atoms: N_13  and  C_19
    9  A    between atoms: C_14  and  N_23
   10  A    between atoms: C_20  and  C_26
                            x       y       z     vdW  Elec       q    Type
                         _______ _______ _______ _____ _____    ______ ____

>  <TORSDO>
F 10

$$$$
=
 OpenBabel11062419563D

 28 29  0  0  1  0  0  0  0  0999 V2000
  189.4440  177.2200  144.1870 C   0  0  0  0  0  0  0  0  0  0  0  0
  190.1160  176.8180  146.4940 C   0  0  0  0  0  0  0  0  0  0  0  0
  190.4180  176.8630  145.1240 C   0  0  0  0  0  3  0  0  0  0  0  0
  188.1590  177.5610  144.6150 C   0  0  0  0  0  3  0  0  0  0  0  0
  187.8430  177.5290  145.9760 C   0  0  0  0  0  0  0  0  0  0  0  0
  188.8200  177.1650  146.9100 C   0  0  0  0  0  3  0  0  0  0  0  0
  191.1230  176.4720  147.4680 N   0  0  0  0  0  0  0  0  0  0  0  0
  191.3390  177.3410  148.6140 C   0  0  0  0  0  1  0  0  0  0  0  0
  191.9500  175.3360  147.3540 N   0  0  0  0  0  2  0  0  0  0  0  0
  193.1040  175.2730  146.5170 C   0  0  0  0  0  3  0  0  0  0  0  0
  193.9670  176.2760  146.5030 C   0  0  0  0  0  2  0  0  0  0  0  0
  186.4690  177.9000  146.4260 C   0  0  0  0  0  2  0  0  0  0  0  0
  185.4070  177.4860  145.4090 C   0  0  0  0  0  2  0  0  0  0  0  0
  185.3710  179.7640  144.7080 O   0  0  0  0  0  1  0  0  0  0  0  0
  183.5990  179.0050  145.8820 F   0  0  0  0  0  0  0  0  0  0  0  0
  184.5450  178.6600  144.9230 C   0  0  2  0  0  0  0  0  0  0  0  0
  183.9250  178.3360  143.6960 O   0  0  0  0  0  0  0  0  0  0  0  0
  184.9160  178.0990  142.7290 C   0  0  0  0  0  1  0  0  0  0  0  0
  189.7920  177.2800  142.7400 C   0  0  0  0  0  2  0  0  0  0  0  0
  189.8270  174.8100  142.2340 C   0  0  0  0  0  0  0  0  0  0  0  0
  188.9760  172.5520  142.5600 O   0  0  0  0  0  1  0  0  0  0  0  0
  191.0890  174.5190  142.3630 N   0  0  0  0  0  0  0  0  0  0  0  0
  187.8490  175.8860  141.8730 C   0  0  0  0  0  3  0  0  0  0  0  0
  189.2880  176.1010  142.0480 N   0  0  0  0  0  0  0  0  0  0  0  0
  187.5530  174.4500  142.0860 N   0  0  0  0  0  0  0  0  0  0  0  0
  188.8120  173.8500  142.2170 N   0  0  0  0  0  0  0  0  0  0  0  0
  193.1610  175.0780  141.3330 N   0  0  0  0  0  1  0  0  0  0  0  0
  192.1680  175.4950  142.3080 C   0  0  0  0  0  2  0  0  0  0  0  0
  1  4  2  0  0  0  0
  1  3  1  0  0  0  0
  2  6  1  0  0  0  0
  2  7  1  0  0  0  0
  3  2  2  0  0  0  0
  4  5  1  0  0  0  0
  5 12  1  0  0  0  0
  5  6  2  0  0  0  0
  7  8  1  0  0  0  0
  9  7  1  0  0  0  0
 10  9  1  0  0  0  0
 11 10  2  0  0  0  0
 13 12  1  0  0  0  0
 16 14  1  6  0  0  0
 16 13  1  0  0  0  0
 16 15  1  0  0  0  0
 17 16  1  0  0  0  0
 18 17  1  0  0  0  0
 19  1  1  0  0  0  0
 20 22  2  0  0  0  0
 23 24  1  0  0  0  0
 23 25  2  0  0  0  0
 24 20  1  0  0  0  0
 24 19  1  0  0  0  0
 25 26  1  0  0  0  0
 26 20  1  0  0  0  0
 26 21  1  0  0  0  0
 27 28  1  0  0  0  0
 28 22  1  0  0  0  0
M  END
>  <MODEL>
7

>  <REMARK>
 VINA RESULT:      -6.0      1.670      2.595
  Name = 
  10 active torsions:
  status: ('A' for Active; 'I' for Inactive)
    1  A    between atoms: C_4  and  C_25
    2  A    between atoms: C_4  and  C_26
    3  A    between atoms: C_5  and  C_19
    4  A    between atoms: C_7  and  N_8
    5  A    between atoms: N_8  and  N_23
    6  A    between atoms: O_9  and  C_20
    7  A    between atoms: N_10  and  C_11
    8  A    between atoms: N_13  and  C_19
    9  A    between atoms: C_14  and  N_23
   10  A    between atoms: C_20  and  C_26
                            x       y       z     vdW  Elec       q    Type
                         _______ _______ _______ _____ _____    ______ ____

>  <TORSDO>
F 10

$$$$
=
 OpenBabel11062419563D

 28 29  0  0  1  0  0  0  0  0999 V2000
  188.7650  176.3920  142.7480 C   0  0  0  0  0  0  0  0  0  0  0  0
  186.7210  177.2360  141.7260 C   0  0  0  0  0  0  0  0  0  0  0  0
  188.0610  176.8290  141.6230 C   0  0  0  0  0  3  0  0  0  0  0  0
  188.1270  176.3340  143.9890 C   0  0  0  0  0  3  0  0  0  0  0  0
  186.7920  176.7270  144.1090 C   0  0  0  0  0  0  0  0  0  0  0  0
  186.0920  177.1700  142.9800 C   0  0  0  0  0  3  0  0  0  0  0  0
  185.9820  177.6670  140.5640 N   0  0  0  0  0  0  0  0  0  0  0  0
  186.3420  177.1480  139.2530 C   0  0  0  0  0  1  0  0  0  0  0  0
  184.9320  178.6060  140.6210 N   0  0  0  0  0  2  0  0  0  0  0  0
  183.5510  178.2620  140.5150 C   0  0  0  0  0  3  0  0  0  0  0  0
  182.7770  178.2920  141.5880 C   0  0  0  0  0  2  0  0  0  0  0  0
  186.1140  176.6570  145.4370 C   0  0  0  0  0  2  0  0  0  0  0  0
  186.6190  177.7400  146.3890 C   0  0  0  0  0  2  0  0  0  0  0  0
  184.3790  178.5500  146.4450 O   0  0  0  0  0  1  0  0  0  0  0  0
  185.9040  179.7760  145.3200 F   0  0  0  0  0  0  0  0  0  0  0  0
  185.7070  178.9740  146.4390 C   0  0  2  0  0  0  0  0  0  0  0  0
  185.9360  179.7030  147.6280 O   0  0  0  0  0  0  0  0  0  0  0  0
  186.8830  179.0200  148.4090 C   0  0  0  0  0  1  0  0  0  0  0  0
  190.1800  175.9470  142.6120 C   0  0  0  0  0  2  0  0  0  0  0  0
  190.3340  173.8550  144.0100 C   0  0  0  0  0  0  0  0  0  0  0  0
  189.3120  171.9150  145.0710 O   0  0  0  0  0  1  0  0  0  0  0  0
  191.0000  174.2650  145.0510 N   0  0  0  0  0  0  0  0  0  0  0  0
  189.4780  173.6040  141.9120 C   0  0  0  0  0  3  0  0  0  0  0  0
  190.2720  174.5000  142.7580 N   0  0  0  0  0  0  0  0  0  0  0  0
  188.9790  172.4850  142.7430 N   0  0  0  0  0  0  0  0  0  0  0  0
  189.6080  172.6610  143.9820 N   0  0  0  0  0  0  0  0  0  0  0  0
  191.2790  176.4140  146.0380 N   0  0  0  0  0  1  0  0  0  0  0  0
  191.8230  175.4660  145.0790 C   0  0  0  0  0  2  0  0  0  0  0  0
  1  4  1  0  0  0  0
  2  6  2  0  0  0  0
  3  2  1  0  0  0  0
  3  1  2  0  0  0  0
  4  5  2  0  0  0  0
  5 12  1  0  0  0  0
  6  5  1  0  0  0  0
  7  9  1  0  0  0  0
  7  2  1  0  0  0  0
  8  7  1  0  0  0  0
 10  9  1  0  0  0  0
 10 11  2  0  0  0  0
 12 13  1  0  0  0  0
 13 16  1  0  0  0  0
 16 15  1  6  0  0  0
 16 14  1  0  0  0  0
 16 17  1  0  0  0  0
 17 18  1  0  0  0  0
 19  1  1  0  0  0  0
 19 24  1  0  0  0  0
 20 22  2  0  0  0  0
 22 28  1  0  0  0  0
 23 25  2  0  0  0  0
 23 24  1  0  0  0  0
 24 20  1  0  0  0  0
 25 26  1  0  0  0  0
 26 20  1  0  0  0  0
 26 21  1  0  0  0  0
 28 27  1  0  0  0  0
M  END
>  <MODEL>
8

>  <REMARK>
 VINA RESULT:      -6.0      2.420      5.859
  Name = 
  10 active torsions:
  status: ('A' for Active; 'I' for Inactive)
    1  A    between atoms: C_4  and  C_25
    2  A    between atoms: C_4  and  C_26
    3  A    between atoms: C_5  and  C_19
    4  A    between atoms: C_7  and  N_8
    5  A    between atoms: N_8  and  N_23
    6  A    between atoms: O_9  and  C_20
    7  A    between atoms: N_10  and  C_11
    8  A    between atoms: N_13  and  C_19
    9  A    between atoms: C_14  and  N_23
   10  A    between atoms: C_20  and  C_26
                            x       y       z     vdW  Elec       q    Type
                         _______ _______ _______ _____ _____    ______ ____

>  <TORSDO>
F 10

$$$$
=
 OpenBabel11062419563D

 28 29  0  0  1  0  0  0  0  0999 V2000
  188.1840  177.5050  142.6880 C   0  0  0  0  0  0  0  0  0  0  0  0
  189.2830  175.4260  142.0540 C   0  0  0  0  0  0  0  0  0  0  0  0
  188.2900  176.3960  141.8450 C   0  0  0  0  0  3  0  0  0  0  0  0
  189.0870  177.6690  143.7400 C   0  0  0  0  0  3  0  0  0  0  0  0
  190.0870  176.7180  143.9580 C   0  0  0  0  0  0  0  0  0  0  0  0
  190.1860  175.6050  143.1150 C   0  0  0  0  0  3  0  0  0  0  0  0
  189.4120  174.2900  141.1740 N   0  0  0  0  0  0  0  0  0  0  0  0
  188.5390  174.1790  140.0150 C   0  0  0  0  0  1  0  0  0  0  0  0
  190.3310  173.2430  141.3930 N   0  0  0  0  0  2  0  0  0  0  0  0
  190.0240  172.0560  142.1230 C   0  0  0  0  0  3  0  0  0  0  0  0
  189.0310  172.0550  142.9980 C   0  0  0  0  0  2  0  0  0  0  0  0
  191.0530  176.9020  145.0810 C   0  0  0  0  0  2  0  0  0  0  0  0
  190.3810  176.7280  146.4420 C   0  0  0  0  0  2  0  0  0  0  0  0
  191.1510  175.4170  148.2760 O   0  0  0  0  0  1  0  0  0  0  0  0
  191.3640  174.5430  146.2060 F   0  0  0  0  0  0  0  0  0  0  0  0
  190.5470  175.3170  147.0230 C   0  0  2  0  0  0  0  0  0  0  0  0
  189.2840  174.7080  147.1960 O   0  0  0  0  0  0  0  0  0  0  0  0
  188.2790  175.6640  146.9730 C   0  0  0  0  0  1  0  0  0  0  0  0
  187.1340  178.5320  142.4350 C   0  0  0  0  0  2  0  0  0  0  0  0
  184.6790  177.9850  142.6070 C   0  0  0  0  0  0  0  0  0  0  0  0
  182.3540  178.3960  142.0110 O   0  0  0  0  0  1  0  0  0  0  0  0
  184.4990  177.9220  143.8950 N   0  0  0  0  0  0  0  0  0  0  0  0
  185.5790  177.9370  140.5120 C   0  0  0  0  0  3  0  0  0  0  0  0
  185.9180  177.9020  141.9380 N   0  0  0  0  0  0  0  0  0  0  0  0
  184.1220  178.1680  140.3760 N   0  0  0  0  0  0  0  0  0  0  0  0
  183.6340  178.1020  141.6880 N   0  0  0  0  0  0  0  0  0  0  0  0
  185.0080  177.2590  146.1240 N   0  0  0  0  0  1  0  0  0  0  0  0
  185.5660  177.7260  144.8660 C   0  0  0  0  0  2  0  0  0  0  0  0
  1  4  1  0  0  0  0
  2  6  2  0  0  0  0
  3  2  1  0  0  0  0
  3  1  2  0  0  0  0
  4  5  2  0  0  0  0
  5 12  1  0  0  0  0
  6  5  1  0  0  0  0
  7  9  1  0  0  0  0
  7  2  1  0  0  0  0
  8  7  1  0  0  0  0
  9 10  1  0  0  0  0
 10 11  2  0  0  0  0
 12 13  1  0  0  0  0
 13 16  1  0  0  0  0
 16 15  1  6  0  0  0
 16 17  1  0  0  0  0
 16 14  1  0  0  0  0
 18 17  1  0  0  0  0
 19  1  1  0  0  0  0
 20 22  2  0  0  0  0
 22 28  1  0  0  0  0
 23 24  1  0  0  0  0
 24 19  1  0  0  0  0
 24 20  1  0  0  0  0
 25 23  2  0  0  0  0
 25 26  1  0  0  0  0
 26 21  1  0  0  0  0
 26 20  1  0  0  0  0
 28 27  1  0  0  0  0
M  END
>  <MODEL>
9

>  <REMARK>
 VINA RESULT:      -5.9      3.449      5.756
  Name = 
  10 active torsions:
  status: ('A' for Active; 'I' for Inactive)
    1  A    between atoms: C_4  and  C_25
    2  A    between atoms: C_4  and  C_26
    3  A    between atoms: C_5  and  C_19
    4  A    between atoms: C_7  and  N_8
    5  A    between atoms: N_8  and  N_23
    6  A    between atoms: O_9  and  C_20
    7  A    between atoms: N_10  and  C_11
    8  A    between atoms: N_13  and  C_19
    9  A    between atoms: C_14  and  N_23
   10  A    between atoms: C_20  and  C_26
                            x       y       z     vdW  Elec       q    Type
                         _______ _______ _______ _____ _____    ______ ____

>  <TORSDO>
F 10

$$$$
