=
 OpenBabel11062420063D

 35 38  0  0  1  0  0  0  0  0999 V2000
  192.4640  175.6270  144.4280 C   0  0  2  0  0  3  0  0  0  0  0  0
  190.5210  172.7330  142.7440 C   0  0  0  0  0  3  0  0  0  0  0  0
  192.9120  175.7870  146.8190 O   0  0  0  0  0  0  0  0  0  0  0  0
  193.2610  175.0980  145.6160 C   0  0  2  0  0  0  0  0  0  0  0  0
  191.5890  175.7650  147.2870 C   0  0  0  0  0  0  0  0  0  0  0  0
  192.0920  174.5780  143.3870 C   0  0  1  0  0  3  0  0  0  0  0  0
  193.9610  175.8910  144.5310 C   0  0  0  0  0  2  0  0  0  0  0  0
  188.9910  174.1400  141.5060 C   0  0  0  0  0  0  0  0  0  0  0  0
  191.1260  176.8460  148.2040 C   0  0  0  0  0  1  0  0  0  0  0  0
  188.6140  177.0850  146.6630 O   0  0  0  0  0  1  0  0  0  0  0  0
  193.6450  173.6300  145.7030 C   0  0  0  0  0  1  0  0  0  0  0  0
  190.7350  173.8920  143.7010 C   0  0  1  0  0  3  0  0  0  0  0  0
  189.6910  172.9190  141.7150 C   0  0  0  0  0  0  0  0  0  0  0  0
  192.1350  175.2320  142.0090 C   0  0  0  0  0  1  0  0  0  0  0  0
  189.3360  174.8250  146.9290 C   0  0  0  0  0  2  0  0  0  0  0  0
  188.7140  175.8710  145.9760 C   0  0  2  0  0  3  0  0  0  0  0  0
  188.9130  175.0850  142.3910 N   0  0  0  0  0  0  0  0  0  0  0  0
  190.7870  174.8440  146.8380 N   0  0  0  0  0  0  0  0  0  0  0  0
  189.5080  176.0580  144.6500 C   0  0  1  0  0  3  0  0  0  0  0  0
  189.5210  172.0880  140.5810 N   0  0  0  0  0  0  0  0  0  0  0  0
  189.4640  174.8230  143.7320 C   0  0  2  0  0  3  0  0  0  0  0  0
  188.4400  174.1410  140.2470 O   0  0  0  0  0  0  0  0  0  0  0  0
  188.6720  172.8570  139.6400 C   0  0  0  0  0  3  0  0  0  0  0  0
  189.2460  177.3880  143.9140 C   0  0  2  0  0  3  0  0  0  0  0  0
  190.1560  178.3670  144.3260 O   0  0  0  0  0  1  0  0  0  0  0  0
  187.8210  177.8990  144.0620 C   0  0  0  0  0  2  0  0  0  0  0  0
  187.3450  178.3260  142.8190 O   0  0  0  0  0  0  0  0  0  0  0  0
  186.0240  178.7310  143.0460 C   0  0  1  0  0  3  0  0  0  0  0  0
  185.1650  178.3540  141.8750 C   0  0  0  0  0  0  0  0  0  0  0  0
  183.8450  177.9720  142.0750 O   0  0  0  0  0  1  0  0  0  0  0  0
  185.6480  178.3410  140.7100 O   0  0  0  0  0  0  0  0  0  0  0  0
  185.5210  178.0890  144.3000 C   0  0  0  0  0  3  0  0  0  0  0  0
  184.8490  178.8000  145.2040 C   0  0  0  0  0  3  0  0  0  0  0  0
  184.3470  178.1540  146.4520 C   0  0  0  0  0  2  0  0  0  0  0  0
  184.8310  176.8440  146.5280 O   0  0  0  0  0  1  0  0  0  0  0  0
  1  7  1  6  0  0  0
  1  4  1  0  0  0  0
  3  5  1  0  0  0  0
  4 11  1  1  0  0  0
  4  3  1  0  0  0  0
  5  9  1  0  0  0  0
  6 14  1  6  0  0  0
  6 12  1  0  0  0  0
  6  1  1  0  0  0  0
  7  4  1  0  0  0  0
  8 13  1  0  0  0  0
  8 17  2  0  0  0  0
 12  2  1  6  0  0  0
 12 21  1  0  0  0  0
 13  2  2  0  0  0  0
 16 10  1  1  0  0  0
 16 15  1  0  0  0  0
 18 15  1  0  0  0  0
 18  5  2  0  0  0  0
 19 24  1  6  0  0  0
 19 16  1  0  0  0  0
 20 13  1  0  0  0  0
 21 17  1  6  0  0  0
 21 19  1  0  0  0  0
 22  8  1  0  0  0  0
 23 22  1  0  0  0  0
 23 20  2  0  0  0  0
 24 26  1  0  0  0  0
 24 25  1  1  0  0  0
 27 28  1  0  0  0  0
 27 26  1  0  0  0  0
 28 32  1  1  0  0  0
 29 30  1  0  0  0  0
 29 28  1  0  0  0  0
 31 29  2  0  0  0  0
 32 33  2  0  0  0  0
 33 34  1  0  0  0  0
 34 35  1  0  0  0  0
M  END
>  <MODEL>
1

>  <REMARK>
 VINA RESULT:      -7.9      0.000      0.000
  Name = 
  7 active torsions:
  status: ('A' for Active; 'I' for Inactive)
    1  A    between atoms: C_5  and  C_29
    2  A    between atoms: C_5  and  C_30
    3  A    between atoms: C_7  and  C_9
    4  A    between atoms: O_8  and  C_9
    5  A    between atoms: O_8  and  C_30
    6  A    between atoms: C_9  and  C_15
    7  A    between atoms: C_11  and  C_17
                            x       y       z     vdW  Elec       q    Type
                         _______ _______ _______ _____ _____    ______ ____

>  <TORSDO>
F 7

$$$$
=
 OpenBabel11062420063D

 35 38  0  0  1  0  0  0  0  0999 V2000
  192.5490  175.9180  144.3610 C   0  0  2  0  0  3  0  0  0  0  0  0
  191.5810  172.4190  143.0170 C   0  0  0  0  0  3  0  0  0  0  0  0
  192.7600  176.4840  146.7230 O   0  0  0  0  0  0  0  0  0  0  0  0
  193.3680  175.7770  145.6400 C   0  0  2  0  0  0  0  0  0  0  0  0
  191.4600  176.1570  147.1390 C   0  0  0  0  0  0  0  0  0  0  0  0
  192.5500  174.6890  143.4610 C   0  0  1  0  0  3  0  0  0  0  0  0
  193.9100  176.5930  144.4840 C   0  0  0  0  0  2  0  0  0  0  0  0
  189.8270  173.1910  141.5390 C   0  0  0  0  0  0  0  0  0  0  0  0
  190.6580  177.1720  147.8800 C   0  0  0  0  0  1  0  0  0  0  0  0
  188.2950  176.5230  146.2250 O   0  0  0  0  0  1  0  0  0  0  0  0
  194.1220  174.4920  145.9420 C   0  0  0  0  0  1  0  0  0  0  0  0
  191.4060  173.7000  143.8130 C   0  0  1  0  0  3  0  0  0  0  0  0
  190.8100  172.2450  141.9410 C   0  0  0  0  0  0  0  0  0  0  0  0
  192.5190  175.1570  142.0080 C   0  0  0  0  0  1  0  0  0  0  0  0
  189.5720  174.5980  146.8270 C   0  0  0  0  0  2  0  0  0  0  0  0
  188.7660  175.3100  145.7160 C   0  0  2  0  0  3  0  0  0  0  0  0
  189.4330  174.1790  142.2830 N   0  0  0  0  0  0  0  0  0  0  0  0
  190.9680  175.0030  146.7890 N   0  0  0  0  0  0  0  0  0  0  0  0
  189.5780  175.5440  144.4080 C   0  0  1  0  0  3  0  0  0  0  0  0
  190.9530  171.2670  140.9260 N   0  0  0  0  0  0  0  0  0  0  0  0
  189.9340  174.2430  143.6670 C   0  0  2  0  0  3  0  0  0  0  0  0
  189.3910  172.8880  140.2720 O   0  0  0  0  0  0  0  0  0  0  0  0
  190.0020  171.6530  139.8560 C   0  0  0  0  0  3  0  0  0  0  0  0
  189.0260  176.6520  143.4870 C   0  0  2  0  0  3  0  0  0  0  0  0
  189.3680  177.9160  143.9770 O   0  0  0  0  0  1  0  0  0  0  0  0
  187.5240  176.5650  143.2590 C   0  0  0  0  0  2  0  0  0  0  0  0
  187.0090  177.8460  143.0430 O   0  0  0  0  0  0  0  0  0  0  0  0
  185.7990  177.8840  143.7470 C   0  0  1  0  0  3  0  0  0  0  0  0
  185.7740  179.0790  144.6560 C   0  0  0  0  0  0  0  0  0  0  0  0
  185.5690  180.3480  144.1320 O   0  0  0  0  0  0  0  0  0  0  0  0
  185.9810  178.9410  145.8930 O   0  0  0  0  0  1  0  0  0  0  0  0
  184.6640  177.9350  142.7750 C   0  0  0  0  0  3  0  0  0  0  0  0
  184.8810  178.2140  141.4910 C   0  0  0  0  0  3  0  0  0  0  0  0
  183.7450  178.2600  140.5240 C   0  0  0  0  0  2  0  0  0  0  0  0
  182.5400  178.0770  141.2110 O   0  0  0  0  0  1  0  0  0  0  0  0
  1  7  1  6  0  0  0
  1  4  1  0  0  0  0
  3  5  1  0  0  0  0
  4 11  1  1  0  0  0
  4  3  1  0  0  0  0
  5  9  1  0  0  0  0
  6 14  1  6  0  0  0
  6 12  1  0  0  0  0
  6  1  1  0  0  0  0
  7  4  1  0  0  0  0
  8 13  1  0  0  0  0
  8 17  2  0  0  0  0
 12  2  1  6  0  0  0
 13  2  2  0  0  0  0
 16 10  1  1  0  0  0
 16 15  1  0  0  0  0
 18 15  1  0  0  0  0
 18  5  2  0  0  0  0
 19 24  1  6  0  0  0
 19 16  1  0  0  0  0
 20 13  1  0  0  0  0
 21 17  1  6  0  0  0
 21 12  1  0  0  0  0
 21 19  1  0  0  0  0
 22  8  1  0  0  0  0
 23 22  1  0  0  0  0
 23 20  2  0  0  0  0
 24 25  1  1  0  0  0
 26 24  1  0  0  0  0
 27 26  1  0  0  0  0
 27 28  1  0  0  0  0
 28 32  1  6  0  0  0
 28 29  1  0  0  0  0
 29 31  1  0  0  0  0
 30 29  2  0  0  0  0
 33 32  2  0  0  0  0
 34 35  1  0  0  0  0
 34 33  1  0  0  0  0
M  END
>  <MODEL>
2

>  <REMARK>
 VINA RESULT:      -7.1      1.178      2.158
  Name = 
  7 active torsions:
  status: ('A' for Active; 'I' for Inactive)
    1  A    between atoms: C_5  and  C_29
    2  A    between atoms: C_5  and  C_30
    3  A    between atoms: C_7  and  C_9
    4  A    between atoms: O_8  and  C_9
    5  A    between atoms: O_8  and  C_30
    6  A    between atoms: C_9  and  C_15
    7  A    between atoms: C_11  and  C_17
                            x       y       z     vdW  Elec       q    Type
                         _______ _______ _______ _____ _____    ______ ____

>  <TORSDO>
F 7

$$$$
=
 OpenBabel11062420063D

 35 38  0  0  1  0  0  0  0  0999 V2000
  193.5500  175.0150  143.7940 C   0  0  2  0  0  3  0  0  0  0  0  0
  191.1830  172.2800  142.4140 C   0  0  0  0  0  3  0  0  0  0  0  0
  194.0600  175.3420  146.1550 O   0  0  0  0  0  0  0  0  0  0  0  0
  194.2850  174.4960  145.0260 C   0  0  2  0  0  0  0  0  0  0  0  0
  192.7560  175.5590  146.6280 C   0  0  0  0  0  0  0  0  0  0  0  0
  193.0140  173.9330  142.8650 C   0  0  1  0  0  3  0  0  0  0  0  0
  195.0720  175.0680  143.8650 C   0  0  0  0  0  2  0  0  0  0  0  0
  189.8490  173.7660  141.0470 C   0  0  0  0  0  0  0  0  0  0  0  0
  192.4690  176.7800  147.4340 C   0  0  0  0  0  1  0  0  0  0  0  0
  189.9900  177.2270  145.8850 O   0  0  0  0  0  1  0  0  0  0  0  0
  194.4550  173.0030  145.2580 C   0  0  0  0  0  1  0  0  0  0  0  0
  191.5780  173.4850  143.2500 C   0  0  1  0  0  3  0  0  0  0  0  0
  190.3700  172.4830  141.3750 C   0  0  0  0  0  0  0  0  0  0  0  0
  193.1260  174.4350  141.4280 C   0  0  0  0  0  1  0  0  0  0  0  0
  190.3850  174.9240  146.3740 C   0  0  0  0  0  2  0  0  0  0  0  0
  189.9030  175.9500  145.3220 C   0  0  2  0  0  3  0  0  0  0  0  0
  189.9220  174.7950  141.8330 N   0  0  0  0  0  0  0  0  0  0  0  0
  191.8220  174.7230  146.2760 N   0  0  0  0  0  0  0  0  0  0  0  0
  190.6920  175.8890  143.9820 C   0  0  1  0  0  3  0  0  0  0  0  0
  190.0620  171.5770  140.3300 N   0  0  0  0  0  0  0  0  0  0  0  0
  190.4550  174.5880  143.1920 C   0  0  2  0  0  3  0  0  0  0  0  0
  189.2820  173.7220  139.7970 O   0  0  0  0  0  0  0  0  0  0  0  0
  189.3160  172.3640  139.3190 C   0  0  0  0  0  3  0  0  0  0  0  0
  190.6110  177.1630  143.1170 C   0  0  2  0  0  3  0  0  0  0  0  0
  191.7030  177.9990  143.3690 O   0  0  0  0  0  1  0  0  0  0  0  0
  189.3100  177.9340  143.2840 C   0  0  0  0  0  2  0  0  0  0  0  0
  188.8120  178.2920  142.0280 O   0  0  0  0  0  0  0  0  0  0  0  0
  187.4260  178.1120  142.1120 C   0  0  1  0  0  3  0  0  0  0  0  0
  187.0540  176.7500  141.6040 C   0  0  0  0  0  0  0  0  0  0  0  0
  187.0930  176.4810  140.2430 O   0  0  0  0  0  0  0  0  0  0  0  0
  186.6640  175.8570  142.4060 O   0  0  0  0  0  1  0  0  0  0  0  0
  186.9920  178.2850  143.5330 C   0  0  0  0  0  3  0  0  0  0  0  0
  185.8990  178.9840  143.8290 C   0  0  0  0  0  3  0  0  0  0  0  0
  185.4690  179.1510  145.2490 C   0  0  0  0  0  2  0  0  0  0  0  0
  184.0800  179.0090  145.3360 O   0  0  0  0  0  1  0  0  0  0  0  0
  1  7  1  6  0  0  0
  1  4  1  0  0  0  0
  3  5  1  0  0  0  0
  4 11  1  1  0  0  0
  4  3  1  0  0  0  0
  5  9  1  0  0  0  0
  6 14  1  6  0  0  0
  6 12  1  0  0  0  0
  6  1  1  0  0  0  0
  7  4  1  0  0  0  0
  8 13  1  0  0  0  0
  8 17  2  0  0  0  0
 12  2  1  6  0  0  0
 13  2  2  0  0  0  0
 16 10  1  1  0  0  0
 16 15  1  0  0  0  0
 18 15  1  0  0  0  0
 18  5  2  0  0  0  0
 19 24  1  6  0  0  0
 19 16  1  0  0  0  0
 20 13  1  0  0  0  0
 21 17  1  6  0  0  0
 21 12  1  0  0  0  0
 21 19  1  0  0  0  0
 22  8  1  0  0  0  0
 23 22  1  0  0  0  0
 23 20  2  0  0  0  0
 24 26  1  0  0  0  0
 24 25  1  1  0  0  0
 27 28  1  0  0  0  0
 27 26  1  0  0  0  0
 28 32  1  1  0  0  0
 29 28  1  0  0  0  0
 29 31  1  0  0  0  0
 30 29  2  0  0  0  0
 32 33  2  0  0  0  0
 33 34  1  0  0  0  0
 34 35  1  0  0  0  0
M  END
>  <MODEL>
3

>  <REMARK>
 VINA RESULT:      -7.1      1.467      1.677
  Name = 
  7 active torsions:
  status: ('A' for Active; 'I' for Inactive)
    1  A    between atoms: C_5  and  C_29
    2  A    between atoms: C_5  and  C_30
    3  A    between atoms: C_7  and  C_9
    4  A    between atoms: O_8  and  C_9
    5  A    between atoms: O_8  and  C_30
    6  A    between atoms: C_9  and  C_15
    7  A    between atoms: C_11  and  C_17
                            x       y       z     vdW  Elec       q    Type
                         _______ _______ _______ _____ _____    ______ ____

>  <TORSDO>
F 7

$$$$
=
 OpenBabel11062420063D

 35 38  0  0  1  0  0  0  0  0999 V2000
  190.9980  175.1140  146.4640 C   0  0  2  0  0  3  0  0  0  0  0  0
  188.8330  177.9190  144.9040 C   0  0  0  0  0  3  0  0  0  0  0  0
  193.4250  174.9790  146.2870 O   0  0  0  0  0  0  0  0  0  0  0  0
  192.3440  175.6790  146.9060 C   0  0  2  0  0  0  0  0  0  0  0  0
  193.5370  174.9440  144.8890 C   0  0  0  0  0  0  0  0  0  0  0  0
  189.8830  176.1440  146.3310 C   0  0  1  0  0  3  0  0  0  0  0  0
  191.4860  174.9160  147.8940 C   0  0  0  0  0  2  0  0  0  0  0  0
  187.2600  176.4440  143.8050 C   0  0  0  0  0  0  0  0  0  0  0  0
  194.3170  173.8470  144.2490 C   0  0  0  0  0  1  0  0  0  0  0  0
  192.1840  173.4970  142.2320 O   0  0  0  0  0  1  0  0  0  0  0  0
  192.5080  177.1630  147.1930 C   0  0  0  0  0  1  0  0  0  0  0  0
  189.8280  176.7720  144.9120 C   0  0  1  0  0  3  0  0  0  0  0  0
  187.6270  177.6950  144.3760 C   0  0  0  0  0  0  0  0  0  0  0  0
  188.5710  175.4900  146.7550 C   0  0  0  0  0  1  0  0  0  0  0  0
  192.5980  175.7860  142.7670 C   0  0  0  0  0  2  0  0  0  0  0  0
  191.5310  174.7120  142.4560 C   0  0  2  0  0  3  0  0  0  0  0  0
  188.1080  175.4990  143.5390 N   0  0  0  0  0  0  0  0  0  0  0  0
  192.8840  175.8300  144.1920 N   0  0  0  0  0  0  0  0  0  0  0  0
  190.4560  174.5570  143.5720 C   0  0  1  0  0  3  0  0  0  0  0  0
  186.4770  178.5160  144.4710 N   0  0  0  0  0  0  0  0  0  0  0  0
  189.5420  175.7870  143.7150 C   0  0  2  0  0  3  0  0  0  0  0  0
  185.9030  176.4180  143.5980 O   0  0  0  0  0  0  0  0  0  0  0  0
  185.3590  177.7100  143.9250 C   0  0  0  0  0  3  0  0  0  0  0  0
  189.6950  173.2150  143.5640 C   0  0  2  0  0  3  0  0  0  0  0  0
  190.2230  172.3430  144.5210 O   0  0  0  0  0  1  0  0  0  0  0  0
  189.6590  172.5410  142.2010 C   0  0  0  0  0  2  0  0  0  0  0  0
  188.4050  172.7330  141.6150 O   0  0  0  0  0  0  0  0  0  0  0  0
  188.6210  172.6420  140.2350 C   0  0  1  0  0  3  0  0  0  0  0  0
  188.5830  174.0100  139.6190 C   0  0  0  0  0  0  0  0  0  0  0  0
  188.1910  175.1040  140.3780 O   0  0  0  0  0  1  0  0  0  0  0  0
  188.8640  174.1660  138.3990 O   0  0  0  0  0  0  0  0  0  0  0  0
  189.9410  171.9850  139.9850 C   0  0  0  0  0  3  0  0  0  0  0  0
  190.0680  171.0530  139.0420 C   0  0  0  0  0  3  0  0  0  0  0  0
  191.3880  170.4020  138.7950 C   0  0  0  0  0  2  0  0  0  0  0  0
  191.5210  169.2850  139.6260 O   0  0  0  0  0  1  0  0  0  0  0  0
  1  4  1  0  0  0  0
  1  7  1  1  0  0  0
  3  4  1  0  0  0  0
  4 11  1  1  0  0  0
  4  7  1  0  0  0  0
  5  3  1  0  0  0  0
  6  1  1  0  0  0  0
  6 14  1  6  0  0  0
  8 13  1  0  0  0  0
  9  5  1  0  0  0  0
 12  2  1  1  0  0  0
 12  6  1  0  0  0  0
 13 20  1  0  0  0  0
 13  2  2  0  0  0  0
 15 18  1  0  0  0  0
 16 10  1  1  0  0  0
 16 15  1  0  0  0  0
 16 19  1  0  0  0  0
 17  8  2  0  0  0  0
 18  5  2  0  0  0  0
 19 24  1  6  0  0  0
 19 21  1  0  0  0  0
 21 17  1  1  0  0  0
 21 12  1  0  0  0  0
 22  8  1  0  0  0  0
 22 23  1  0  0  0  0
 23 20  2  0  0  0  0
 24 25  1  1  0  0  0
 26 24  1  0  0  0  0
 27 26  1  0  0  0  0
 28 32  1  1  0  0  0
 28 27  1  0  0  0  0
 29 28  1  0  0  0  0
 29 30  1  0  0  0  0
 31 29  2  0  0  0  0
 33 32  2  0  0  0  0
 34 33  1  0  0  0  0
 34 35  1  0  0  0  0
M  END
>  <MODEL>
4

>  <REMARK>
 VINA RESULT:      -6.5      2.234      6.056
  Name = 
  7 active torsions:
  status: ('A' for Active; 'I' for Inactive)
    1  A    between atoms: C_5  and  C_29
    2  A    between atoms: C_5  and  C_30
    3  A    between atoms: C_7  and  C_9
    4  A    between atoms: O_8  and  C_9
    5  A    between atoms: O_8  and  C_30
    6  A    between atoms: C_9  and  C_15
    7  A    between atoms: C_11  and  C_17
                            x       y       z     vdW  Elec       q    Type
                         _______ _______ _______ _____ _____    ______ ____

>  <TORSDO>
F 7

$$$$
=
 OpenBabel11062420063D

 35 38  0  0  1  0  0  0  0  0999 V2000
  194.5480  175.6720  142.1770 C   0  0  2  0  0  3  0  0  0  0  0  0
  193.6240  171.9510  141.6410 C   0  0  0  0  0  3  0  0  0  0  0  0
  195.8170  176.5230  144.0760 O   0  0  0  0  0  0  0  0  0  0  0  0
  195.9070  175.7790  142.8600 C   0  0  2  0  0  0  0  0  0  0  0  0
  194.9740  176.0880  145.1100 C   0  0  0  0  0  0  0  0  0  0  0  0
  194.2980  174.3590  141.4470 C   0  0  1  0  0  3  0  0  0  0  0  0
  195.6550  176.5190  141.5620 C   0  0  0  0  0  2  0  0  0  0  0  0
  191.2670  172.3290  141.2450 C   0  0  0  0  0  0  0  0  0  0  0  0
  194.4970  177.0740  146.1230 C   0  0  0  0  0  1  0  0  0  0  0  0
  191.7670  175.9560  145.9360 O   0  0  0  0  0  1  0  0  0  0  0  0
  196.9100  174.6390  142.7770 C   0  0  0  0  0  1  0  0  0  0  0  0
  193.6650  173.2830  142.3700 C   0  0  1  0  0  3  0  0  0  0  0  0
  192.4590  171.5620  141.1180 C   0  0  0  0  0  0  0  0  0  0  0  0
  193.4680  174.6520  140.2000 C   0  0  0  0  0  1  0  0  0  0  0  0
  193.4680  174.2840  145.8640 C   0  0  0  0  0  2  0  0  0  0  0  0
  192.1110  174.7600  145.2990 C   0  0  2  0  0  3  0  0  0  0  0  0
  191.1430  173.3380  142.0500 N   0  0  0  0  0  0  0  0  0  0  0  0
  194.5700  174.8500  145.1020 N   0  0  0  0  0  0  0  0  0  0  0  0
  192.1070  174.9430  143.7530 C   0  0  1  0  0  3  0  0  0  0  0  0
  192.2320  170.5000  140.2080 N   0  0  0  0  0  0  0  0  0  0  0  0
  192.2510  173.6200  142.9790 C   0  0  2  0  0  3  0  0  0  0  0  0
  190.3120  171.8320  140.3910 O   0  0  0  0  0  0  0  0  0  0  0  0
  190.8250  170.6430  139.7640 C   0  0  0  0  0  3  0  0  0  0  0  0
  190.9950  175.8630  143.2070 C   0  0  2  0  0  3  0  0  0  0  0  0
  191.4130  177.1970  143.2110 O   0  0  0  0  0  1  0  0  0  0  0  0
  189.6710  175.7240  143.9430 C   0  0  0  0  0  2  0  0  0  0  0  0
  189.1300  176.9910  144.1760 O   0  0  0  0  0  0  0  0  0  0  0  0
  188.0080  176.7740  144.9840 C   0  0  1  0  0  3  0  0  0  0  0  0
  188.4280  176.6310  146.4180 C   0  0  0  0  0  0  0  0  0  0  0  0
  189.1860  177.6250  147.0220 O   0  0  0  0  0  0  0  0  0  0  0  0
  188.1330  175.5910  147.0670 O   0  0  0  0  0  1  0  0  0  0  0  0
  187.0550  177.9160  144.8220 C   0  0  0  0  0  3  0  0  0  0  0  0
  186.0340  178.0720  145.6610 C   0  0  0  0  0  3  0  0  0  0  0  0
  185.0880  179.2150  145.4970 C   0  0  0  0  0  2  0  0  0  0  0  0
  183.7800  178.7770  145.7340 O   0  0  0  0  0  1  0  0  0  0  0  0
  1  7  1  6  0  0  0
  1  4  1  0  0  0  0
  3  5  1  0  0  0  0
  4 11  1  6  0  0  0
  4  3  1  0  0  0  0
  5  9  1  0  0  0  0
  6 14  1  6  0  0  0
  6  1  1  0  0  0  0
  6 12  1  0  0  0  0
  7  4  1  0  0  0  0
  8 17  2  0  0  0  0
 12  2  1  6  0  0  0
 12 21  1  0  0  0  0
 13  8  1  0  0  0  0
 13  2  2  0  0  0  0
 16 15  1  0  0  0  0
 16 10  1  1  0  0  0
 18  5  2  0  0  0  0
 18 15  1  0  0  0  0
 19 24  1  6  0  0  0
 19 16  1  0  0  0  0
 20 13  1  0  0  0  0
 21 17  1  6  0  0  0
 21 19  1  0  0  0  0
 22  8  1  0  0  0  0
 23 20  2  0  0  0  0
 23 22  1  0  0  0  0
 24 25  1  1  0  0  0
 24 26  1  0  0  0  0
 26 27  1  0  0  0  0
 27 28  1  0  0  0  0
 28 32  1  1  0  0  0
 28 29  1  0  0  0  0
 29 30  2  0  0  0  0
 29 31  1  0  0  0  0
 32 33  2  0  0  0  0
 34 33  1  0  0  0  0
 34 35  1  0  0  0  0
M  END
>  <MODEL>
5

>  <REMARK>
 VINA RESULT:      -6.5      2.282      3.652
  Name = 
  7 active torsions:
  status: ('A' for Active; 'I' for Inactive)
    1  A    between atoms: C_5  and  C_29
    2  A    between atoms: C_5  and  C_30
    3  A    between atoms: C_7  and  C_9
    4  A    between atoms: O_8  and  C_9
    5  A    between atoms: O_8  and  C_30
    6  A    between atoms: C_9  and  C_15
    7  A    between atoms: C_11  and  C_17
                            x       y       z     vdW  Elec       q    Type
                         _______ _______ _______ _____ _____    ______ ____

>  <TORSDO>
F 7

$$$$
=
 OpenBabel11062420063D

 35 38  0  0  1  0  0  0  0  0999 V2000
  190.7540  175.1330  146.0890 C   0  0  2  0  0  3  0  0  0  0  0  0
  190.0400  177.6790  143.2620 C   0  0  0  0  0  3  0  0  0  0  0  0
  192.9800  174.5160  146.8670 O   0  0  0  0  0  0  0  0  0  0  0  0
  191.9960  175.5530  146.8680 C   0  0  2  0  0  0  0  0  0  0  0  0
  193.5070  174.0430  145.6560 C   0  0  0  0  0  0  0  0  0  0  0  0
  190.0640  176.2570  145.3270 C   0  0  1  0  0  3  0  0  0  0  0  0
  190.6990  175.2900  147.6040 C   0  0  0  0  0  2  0  0  0  0  0  0
  188.5460  176.2490  142.0040 C   0  0  0  0  0  0  0  0  0  0  0  0
  194.1150  172.6820  145.6110 C   0  0  0  0  0  1  0  0  0  0  0  0
  192.7060  172.1300  143.0700 O   0  0  0  0  0  1  0  0  0  0  0  0
  192.4630  176.9990  146.8650 C   0  0  0  0  0  1  0  0  0  0  0  0
  190.6280  176.4280  143.8910 C   0  0  1  0  0  3  0  0  0  0  0  0
  189.0460  177.5260  142.3840 C   0  0  0  0  0  0  0  0  0  0  0  0
  188.5580  176.0080  145.3610 C   0  0  0  0  0  1  0  0  0  0  0  0
  193.5450  174.3600  143.2090 C   0  0  0  0  0  2  0  0  0  0  0  0
  192.3750  173.4530  142.7630 C   0  0  2  0  0  3  0  0  0  0  0  0
  189.1400  175.1310  142.2880 N   0  0  0  0  0  0  0  0  0  0  0  0
  193.3730  174.7790  144.5910 N   0  0  0  0  0  0  0  0  0  0  0  0
  191.0080  173.8370  143.4010 C   0  0  1  0  0  3  0  0  0  0  0  0
  188.1950  178.5310  141.8590 N   0  0  0  0  0  0  0  0  0  0  0  0
  190.4690  175.1970  142.9200 C   0  0  2  0  0  3  0  0  0  0  0  0
  187.3680  176.4060  141.3150 O   0  0  0  0  0  0  0  0  0  0  0  0
  187.1260  177.8120  141.1260 C   0  0  0  0  0  3  0  0  0  0  0  0
  189.9490  172.7150  143.4010 C   0  0  2  0  0  3  0  0  0  0  0  0
  189.9010  172.0830  144.6480 O   0  0  0  0  0  1  0  0  0  0  0  0
  190.1480  171.6870  142.2980 C   0  0  0  0  0  2  0  0  0  0  0  0
  189.2920  171.9730  141.2310 O   0  0  0  0  0  0  0  0  0  0  0  0
  190.1280  172.3530  140.1750 C   0  0  1  0  0  3  0  0  0  0  0  0
  190.7620  171.1390  139.5600 C   0  0  0  0  0  0  0  0  0  0  0  0
  192.1440  171.0380  139.4880 O   0  0  0  0  0  1  0  0  0  0  0  0
  190.0430  170.2270  139.0670 O   0  0  0  0  0  0  0  0  0  0  0  0
  189.3270  173.1040  139.1590 C   0  0  0  0  0  3  0  0  0  0  0  0
  189.8750  173.4790  138.0050 C   0  0  0  0  0  3  0  0  0  0  0  0
  189.0700  174.2260  136.9930 C   0  0  0  0  0  2  0  0  0  0  0  0
  187.8180  174.5410  137.5320 O   0  0  0  0  0  1  0  0  0  0  0  0
  1  4  1  0  0  0  0
  1  7  1  1  0  0  0
  3  4  1  0  0  0  0
  4 11  1  6  0  0  0
  4  7  1  0  0  0  0
  5  3  1  0  0  0  0
  6 14  1  6  0  0  0
  6  1  1  0  0  0  0
  8 17  2  0  0  0  0
  8 13  1  0  0  0  0
  9  5  1  0  0  0  0
 12  2  1  6  0  0  0
 12  6  1  0  0  0  0
 13  2  2  0  0  0  0
 15 18  1  0  0  0  0
 16 10  1  1  0  0  0
 16 15  1  0  0  0  0
 16 19  1  0  0  0  0
 18  5  2  0  0  0  0
 19 24  1  6  0  0  0
 20 13  1  0  0  0  0
 21 17  1  1  0  0  0
 21 19  1  0  0  0  0
 21 12  1  0  0  0  0
 22  8  1  0  0  0  0
 23 22  1  0  0  0  0
 23 20  2  0  0  0  0
 24 25  1  1  0  0  0
 26 24  1  0  0  0  0
 27 26  1  0  0  0  0
 28 32  1  6  0  0  0
 28 27  1  0  0  0  0
 29 28  1  0  0  0  0
 30 29  1  0  0  0  0
 31 29  2  0  0  0  0
 33 32  2  0  0  0  0
 34 35  1  0  0  0  0
 34 33  1  0  0  0  0
M  END
>  <MODEL>
6

>  <REMARK>
 VINA RESULT:      -6.3      2.659      6.133
  Name = 
  7 active torsions:
  status: ('A' for Active; 'I' for Inactive)
    1  A    between atoms: C_5  and  C_29
    2  A    between atoms: C_5  and  C_30
    3  A    between atoms: C_7  and  C_9
    4  A    between atoms: O_8  and  C_9
    5  A    between atoms: O_8  and  C_30
    6  A    between atoms: C_9  and  C_15
    7  A    between atoms: C_11  and  C_17
                            x       y       z     vdW  Elec       q    Type
                         _______ _______ _______ _____ _____    ______ ____

>  <TORSDO>
F 7

$$$$
=
 OpenBabel11062420063D

 35 38  0  0  1  0  0  0  0  0999 V2000
  193.9840  176.2720  144.5270 C   0  0  2  0  0  3  0  0  0  0  0  0
  193.1240  172.9730  142.6940 C   0  0  0  0  0  3  0  0  0  0  0  0
  193.8840  176.5800  146.9430 O   0  0  0  0  0  0  0  0  0  0  0  0
  194.6170  175.9670  145.8810 C   0  0  2  0  0  0  0  0  0  0  0  0
  192.5320  176.2620  147.1440 C   0  0  0  0  0  0  0  0  0  0  0  0
  194.0780  175.1450  143.5070 C   0  0  1  0  0  3  0  0  0  0  0  0
  195.3320  176.8770  144.9030 C   0  0  0  0  0  2  0  0  0  0  0  0
  191.6070  173.9620  141.0890 C   0  0  0  0  0  0  0  0  0  0  0  0
  191.6610  177.2250  147.8780 C   0  0  0  0  0  1  0  0  0  0  0  0
  189.5310  176.8440  145.8630 O   0  0  0  0  0  1  0  0  0  0  0  0
  195.2920  174.6290  146.1400 C   0  0  0  0  0  1  0  0  0  0  0  0
  192.8730  174.1700  143.5950 C   0  0  1  0  0  3  0  0  0  0  0  0
  192.5030  172.9410  141.5130 C   0  0  0  0  0  0  0  0  0  0  0  0
  194.2570  175.7620  142.1230 C   0  0  0  0  0  1  0  0  0  0  0  0
  190.6670  174.8190  146.4170 C   0  0  0  0  0  2  0  0  0  0  0  0
  190.0380  175.6730  145.2920 C   0  0  2  0  0  3  0  0  0  0  0  0
  191.1400  174.8810  141.8760 N   0  0  0  0  0  0  0  0  0  0  0  0
  192.0650  175.1710  146.6100 N   0  0  0  0  0  0  0  0  0  0  0  0
  191.0260  176.0120  144.1370 C   0  0  1  0  0  3  0  0  0  0  0  0
  192.7600  172.0700  140.4260 N   0  0  0  0  0  0  0  0  0  0  0  0
  191.4480  174.7810  143.3130 C   0  0  2  0  0  3  0  0  0  0  0  0
  191.3410  173.8100  139.7500 O   0  0  0  0  0  0  0  0  0  0  0  0
  191.9730  172.6020  139.2870 C   0  0  0  0  0  3  0  0  0  0  0  0
  190.6320  177.2300  143.2760 C   0  0  2  0  0  3  0  0  0  0  0  0
  191.4190  178.3390  143.6030 O   0  0  0  0  0  1  0  0  0  0  0  0
  189.1570  177.5880  143.3630 C   0  0  0  0  0  2  0  0  0  0  0  0
  188.5140  177.2170  142.1780 O   0  0  0  0  0  0  0  0  0  0  0  0
  187.2100  176.8750  142.5540 C   0  0  1  0  0  3  0  0  0  0  0  0
  186.2200  177.6490  141.7320 C   0  0  0  0  0  0  0  0  0  0  0  0
  186.2270  177.5370  140.3480 O   0  0  0  0  0  0  0  0  0  0  0  0
  185.4080  178.4370  142.2890 O   0  0  0  0  0  1  0  0  0  0  0  0
  187.0140  175.4030  142.3710 C   0  0  0  0  0  3  0  0  0  0  0  0
  188.0240  174.6270  141.9850 C   0  0  0  0  0  3  0  0  0  0  0  0
  187.8240  173.1590  141.8060 C   0  0  0  0  0  2  0  0  0  0  0  0
  188.1840  172.7930  140.5050 O   0  0  0  0  0  1  0  0  0  0  0  0
  1  7  1  6  0  0  0
  1  4  1  0  0  0  0
  3  5  1  0  0  0  0
  4 11  1  1  0  0  0
  4  3  1  0  0  0  0
  5  9  1  0  0  0  0
  6 14  1  6  0  0  0
  6 12  1  0  0  0  0
  6  1  1  0  0  0  0
  7  4  1  0  0  0  0
  8 13  1  0  0  0  0
  8 17  2  0  0  0  0
 12  2  1  6  0  0  0
 13  2  2  0  0  0  0
 15 18  1  0  0  0  0
 16 10  1  1  0  0  0
 16 15  1  0  0  0  0
 18  5  2  0  0  0  0
 19 24  1  6  0  0  0
 19 16  1  0  0  0  0
 20 13  1  0  0  0  0
 21 17  1  6  0  0  0
 21 12  1  0  0  0  0
 21 19  1  0  0  0  0
 22  8  1  0  0  0  0
 23 22  1  0  0  0  0
 23 20  2  0  0  0  0
 24 26  1  0  0  0  0
 24 25  1  1  0  0  0
 27 28  1  0  0  0  0
 27 26  1  0  0  0  0
 28 32  1  6  0  0  0
 29 31  1  0  0  0  0
 29 28  1  0  0  0  0
 30 29  2  0  0  0  0
 33 32  2  0  0  0  0
 34 33  1  0  0  0  0
 35 34  1  0  0  0  0
M  END
>  <MODEL>
7

>  <REMARK>
 VINA RESULT:      -6.3      2.048      2.941
  Name = 
  7 active torsions:
  status: ('A' for Active; 'I' for Inactive)
    1  A    between atoms: C_5  and  C_29
    2  A    between atoms: C_5  and  C_30
    3  A    between atoms: C_7  and  C_9
    4  A    between atoms: O_8  and  C_9
    5  A    between atoms: O_8  and  C_30
    6  A    between atoms: C_9  and  C_15
    7  A    between atoms: C_11  and  C_17
                            x       y       z     vdW  Elec       q    Type
                         _______ _______ _______ _____ _____    ______ ____

>  <TORSDO>
F 7

$$$$
=
 OpenBabel11062420063D

 35 38  0  0  1  0  0  0  0  0999 V2000
  189.2070  176.7930  142.4960 C   0  0  2  0  0  3  0  0  0  0  0  0
  189.2840  176.3410  146.3400 C   0  0  0  0  0  3  0  0  0  0  0  0
  187.9080  175.4110  140.9650 O   0  0  0  0  0  0  0  0  0  0  0  0
  187.8260  176.4370  141.9570 C   0  0  2  0  0  0  0  0  0  0  0  0
  188.4580  174.1600  141.2870 C   0  0  0  0  0  0  0  0  0  0  0  0
  189.2420  177.1670  143.9730 C   0  0  1  0  0  3  0  0  0  0  0  0
  188.4390  177.7830  141.6280 C   0  0  0  0  0  2  0  0  0  0  0  0
  191.6950  176.3230  146.5460 C   0  0  0  0  0  0  0  0  0  0  0  0
  188.9980  173.3030  140.1930 C   0  0  0  0  0  1  0  0  0  0  0  0
  191.3790  172.6960  141.8390 O   0  0  0  0  0  1  0  0  0  0  0  0
  186.6040  176.4800  142.8600 C   0  0  0  0  0  1  0  0  0  0  0  0
  189.4540  175.9310  144.8880 C   0  0  1  0  0  3  0  0  0  0  0  0
  190.3880  176.5240  147.0690 C   0  0  0  0  0  0  0  0  0  0  0  0
  190.2960  178.2530  144.1700 C   0  0  0  0  0  1  0  0  0  0  0  0
  189.3570  172.7580  143.1070 C   0  0  0  0  0  2  0  0  0  0  0  0
  190.8590  173.1240  143.0640 C   0  0  2  0  0  3  0  0  0  0  0  0
  191.9350  175.7390  145.4120 N   0  0  0  0  0  0  0  0  0  0  0  0
  188.5500  173.8270  142.5420 N   0  0  0  0  0  0  0  0  0  0  0  0
  191.1380  174.6410  143.2760 C   0  0  1  0  0  3  0  0  0  0  0  0
  190.4880  177.1270  148.3470 N   0  0  0  0  0  0  0  0  0  0  0  0
  190.7990  175.1320  144.6950 C   0  0  2  0  0  3  0  0  0  0  0  0
  192.6210  176.8420  147.4170 O   0  0  0  0  0  0  0  0  0  0  0  0
  191.9390  177.2970  148.6010 C   0  0  0  0  0  3  0  0  0  0  0  0
  192.5060  175.1310  142.7600 C   0  0  2  0  0  3  0  0  0  0  0  0
  192.4760  175.3040  141.3720 O   0  0  0  0  0  1  0  0  0  0  0  0
  193.6670  174.2290  143.1520 C   0  0  0  0  0  2  0  0  0  0  0  0
  194.5630  174.1280  142.0850 O   0  0  0  0  0  0  0  0  0  0  0  0
  195.7970  174.5490  142.5940 C   0  0  1  0  0  3  0  0  0  0  0  0
  195.8860  176.0470  142.5500 C   0  0  0  0  0  0  0  0  0  0  0  0
  195.7070  176.7190  141.3480 O   0  0  0  0  0  0  0  0  0  0  0  0
  196.1660  176.6990  143.5930 O   0  0  0  0  0  1  0  0  0  0  0  0
  195.9480  174.0510  143.9960 C   0  0  0  0  0  3  0  0  0  0  0  0
  196.8850  173.1570  144.3020 C   0  0  0  0  0  3  0  0  0  0  0  0
  197.0320  172.6650  145.7040 C   0  0  0  0  0  2  0  0  0  0  0  0
  197.0690  173.7550  146.5800 O   0  0  0  0  0  1  0  0  0  0  0  0
  1  7  1  6  0  0  0
  1  6  1  0  0  0  0
  2 13  2  0  0  0  0
  3  5  1  0  0  0  0
  3  4  1  0  0  0  0
  4  1  1  0  0  0  0
  4 11  1  1  0  0  0
  5 18  2  0  0  0  0
  6 14  1  6  0  0  0
  6 12  1  0  0  0  0
  7  4  1  0  0  0  0
  8 13  1  0  0  0  0
  8 22  1  0  0  0  0
  9  5  1  0  0  0  0
 12  2  1  1  0  0  0
 13 20  1  0  0  0  0
 16 10  1  6  0  0  0
 16 15  1  0  0  0  0
 16 19  1  0  0  0  0
 17  8  2  0  0  0  0
 18 15  1  0  0  0  0
 19 24  1  1  0  0  0
 19 21  1  0  0  0  0
 20 23  2  0  0  0  0
 21 12  1  0  0  0  0
 21 17  1  6  0  0  0
 22 23  1  0  0  0  0
 24 25  1  6  0  0  0
 24 26  1  0  0  0  0
 27 28  1  0  0  0  0
 27 26  1  0  0  0  0
 28 32  1  1  0  0  0
 29 28  1  0  0  0  0
 29 31  1  0  0  0  0
 30 29  2  0  0  0  0
 32 33  2  0  0  0  0
 33 34  1  0  0  0  0
 34 35  1  0  0  0  0
M  END
>  <MODEL>
8

>  <REMARK>
 VINA RESULT:      -6.2      2.644      7.985
  Name = 
  7 active torsions:
  status: ('A' for Active; 'I' for Inactive)
    1  A    between atoms: C_5  and  C_29
    2  A    between atoms: C_5  and  C_30
    3  A    between atoms: C_7  and  C_9
    4  A    between atoms: O_8  and  C_9
    5  A    between atoms: O_8  and  C_30
    6  A    between atoms: C_9  and  C_15
    7  A    between atoms: C_11  and  C_17
                            x       y       z     vdW  Elec       q    Type
                         _______ _______ _______ _____ _____    ______ ____

>  <TORSDO>
F 7

$$$$
=
 OpenBabel11062420063D

 35 38  0  0  1  0  0  0  0  0999 V2000
  193.6820  175.4130  145.2180 C   0  0  2  0  0  3  0  0  0  0  0  0
  190.7830  177.7400  144.1370 C   0  0  0  0  0  3  0  0  0  0  0  0
  196.0030  175.6780  144.5220 O   0  0  0  0  0  0  0  0  0  0  0  0
  194.9720  176.2160  145.3530 C   0  0  2  0  0  0  0  0  0  0  0  0
  195.8200  175.5970  143.1320 C   0  0  0  0  0  0  0  0  0  0  0  0
  192.4030  176.2350  145.3190 C   0  0  1  0  0  3  0  0  0  0  0  0
  194.4890  175.3670  146.5110 C   0  0  0  0  0  2  0  0  0  0  0  0
  189.2940  175.9730  143.4180 C   0  0  0  0  0  0  0  0  0  0  0  0
  196.6270  174.6160  142.3500 C   0  0  0  0  0  1  0  0  0  0  0  0
  194.2090  173.8200  140.8450 O   0  0  0  0  0  1  0  0  0  0  0  0
  194.9330  177.7180  145.5830 C   0  0  0  0  0  1  0  0  0  0  0  0
  191.9410  176.7770  143.9400 C   0  0  1  0  0  3  0  0  0  0  0  0
  189.5510  177.2920  143.8840 C   0  0  0  0  0  0  0  0  0  0  0  0
  191.3440  175.3910  146.0240 C   0  0  0  0  0  1  0  0  0  0  0  0
  194.3230  176.1680  141.2560 C   0  0  0  0  0  2  0  0  0  0  0  0
  193.4170  174.9180  141.1940 C   0  0  2  0  0  3  0  0  0  0  0  0
  190.2170  175.1710  142.9850 N   0  0  0  0  0  0  0  0  0  0  0  0
  194.8920  176.3260  142.5850 N   0  0  0  0  0  0  0  0  0  0  0  0
  192.6460  174.6380  142.5170 C   0  0  1  0  0  3  0  0  0  0  0  0
  188.3220  177.9130  144.2170 N   0  0  0  0  0  0  0  0  0  0  0  0
  191.5840  175.7030  142.8430 C   0  0  2  0  0  3  0  0  0  0  0  0
  187.9490  175.7090  143.5100 O   0  0  0  0  0  0  0  0  0  0  0  0
  187.2710  176.9060  143.9350 C   0  0  0  0  0  3  0  0  0  0  0  0
  192.1450  173.1890  142.6870 C   0  0  2  0  0  3  0  0  0  0  0  0
  193.1220  172.3980  143.3000 O   0  0  0  0  0  1  0  0  0  0  0  0
  191.6860  172.5440  141.3880 C   0  0  0  0  0  2  0  0  0  0  0  0
  190.4400  171.9410  141.5790 O   0  0  0  0  0  0  0  0  0  0  0  0
  189.6980  172.2490  140.4330 C   0  0  1  0  0  3  0  0  0  0  0  0
  188.5590  173.1590  140.7890 C   0  0  0  0  0  0  0  0  0  0  0  0
  187.5760  172.7300  141.6710 O   0  0  0  0  0  1  0  0  0  0  0  0
  188.4640  174.2980  140.2560 O   0  0  0  0  0  0  0  0  0  0  0  0
  190.5950  172.8930  139.4230 C   0  0  0  0  0  3  0  0  0  0  0  0
  190.5010  172.5770  138.1330 C   0  0  0  0  0  3  0  0  0  0  0  0
  191.3970  173.2250  137.1300 C   0  0  0  0  0  2  0  0  0  0  0  0
  192.2070  174.1700  137.7680 O   0  0  0  0  0  1  0  0  0  0  0  0
  1  6  1  0  0  0  0
  1  4  1  0  0  0  0
  1  7  1  1  0  0  0
  3  4  1  0  0  0  0
  4 11  1  1  0  0  0
  4  7  1  0  0  0  0
  5  3  1  0  0  0  0
  6 14  1  6  0  0  0
  8 22  1  0  0  0  0
  8 13  1  0  0  0  0
  9  5  1  0  0  0  0
 12  2  1  1  0  0  0
 12  6  1  0  0  0  0
 13  2  2  0  0  0  0
 13 20  1  0  0  0  0
 15 18  1  0  0  0  0
 16 10  1  1  0  0  0
 16 15  1  0  0  0  0
 16 19  1  0  0  0  0
 17  8  2  0  0  0  0
 18  5  2  0  0  0  0
 19 24  1  6  0  0  0
 19 21  1  0  0  0  0
 21 17  1  1  0  0  0
 21 12  1  0  0  0  0
 22 23  1  0  0  0  0
 23 20  2  0  0  0  0
 24 25  1  6  0  0  0
 26 27  1  0  0  0  0
 26 24  1  0  0  0  0
 28 32  1  6  0  0  0
 28 29  1  0  0  0  0
 28 27  1  0  0  0  0
 29 30  1  0  0  0  0
 31 29  2  0  0  0  0
 33 32  2  0  0  0  0
 34 35  1  0  0  0  0
 34 33  1  0  0  0  0
M  END
>  <MODEL>
9

>  <REMARK>
 VINA RESULT:      -6.1      2.668      6.372
  Name = 
  7 active torsions:
  status: ('A' for Active; 'I' for Inactive)
    1  A    between atoms: C_5  and  C_29
    2  A    between atoms: C_5  and  C_30
    3  A    between atoms: C_7  and  C_9
    4  A    between atoms: O_8  and  C_9
    5  A    between atoms: O_8  and  C_30
    6  A    between atoms: C_9  and  C_15
    7  A    between atoms: C_11  and  C_17
                            x       y       z     vdW  Elec       q    Type
                         _______ _______ _______ _____ _____    ______ ____

>  <TORSDO>
F 7

$$$$
