=
 OpenBabel11062420003D

 42 45  0  0  1  0  0  0  0  0999 V2000
  189.3170  173.1620  142.3010 C   0  0  1  0  0  3  0  0  0  0  0  0
  190.5610  170.9900  142.1700 C   0  0  0  0  0  2  0  0  0  0  0  0
  188.9040  172.8330  140.8610 C   0  0  0  0  0  2  0  0  0  0  0  0
  190.0680  172.2210  140.0820 C   0  0  0  0  0  2  0  0  0  0  0  0
  190.5390  170.9690  140.6960 N   0  0  0  0  0  2  0  0  0  0  0  0
  190.5710  172.4040  142.7540 C   0  0  2  0  0  3  0  0  0  0  0  0
  189.4920  174.6390  142.4840 C   0  0  0  0  0  0  0  0  0  0  0  0
  190.5880  175.1840  142.1790 O   0  0  0  0  0  0  0  0  0  0  0  0
  187.2000  175.1160  142.8520 O   0  0  0  0  0  0  0  0  0  0  0  0
  188.4030  175.4440  143.0530 C   0  0  0  0  0  0  0  0  0  0  0  0
  188.7200  176.6360  143.9150 C   0  0  1  0  0  3  0  0  0  0  0  0
  187.5520  177.5840  144.1010 C   0  0  0  0  0  0  0  0  0  0  0  0
  185.6740  178.4360  145.5360 C   0  0  1  0  0  3  0  0  0  0  0  0
  185.9220  179.1000  143.0530 C   0  0  0  0  0  3  0  0  0  0  0  0
  184.6690  177.6600  146.1160 O   0  0  0  0  0  1  0  0  0  0  0  0
  187.0430  178.3850  142.9630 C   0  0  0  0  0  3  0  0  0  0  0  0
  186.8790  177.5720  145.2630 C   0  0  0  0  0  3  0  0  0  0  0  0
  184.0750  179.7710  144.3540 O   0  0  0  0  0  0  0  0  0  0  0  0
  185.1550  179.1250  144.3040 C   0  0  0  0  0  0  0  0  0  0  0  0
  188.8170  175.1950  145.9620 C   0  0  0  0  0  3  0  0  0  0  0  0
  189.3910  176.2070  145.1910 C   0  0  0  0  0  0  0  0  0  0  0  0
  191.1400  176.4210  146.8100 N   0  0  0  0  0  0  0  0  0  0  0  0
  190.5930  175.4350  147.5700 C   0  0  0  0  0  3  0  0  0  0  0  0
  189.4180  174.8020  147.1580 C   0  0  0  0  0  3  0  0  0  0  0  0
  190.5680  176.8190  145.6420 C   0  0  0  0  0  3  0  0  0  0  0  0
  190.6330  172.3590  144.2750 C   0  0  0  0  0  2  0  0  0  0  0  0
  191.7760  173.2150  144.7990 C   0  0  0  0  0  2  0  0  0  0  0  0
  193.1270  172.6230  144.4200 C   0  0  0  0  0  2  0  0  0  0  0  0
  196.1890  174.3760  142.8290 C   0  0  1  0  0  3  0  0  0  0  0  0
  193.6360  175.0290  143.8250 C   0  0  0  0  0  2  0  0  0  0  0  0
  193.8860  173.5540  143.4790 C   0  0  1  0  0  3  0  0  0  0  0  0
  197.4970  173.9810  142.5400 O   0  0  0  0  0  1  0  0  0  0  0  0
  195.3640  173.1690  143.2670 C   0  0  2  0  0  3  0  0  0  0  0  0
  196.1950  175.4700  143.9070 C   0  0  2  0  0  3  0  0  0  0  0  0
  194.8080  175.7320  144.5300 C   0  0  2  0  0  3  0  0  0  0  0  0
  195.9190  172.5880  144.4110 O   0  0  0  0  0  1  0  0  0  0  0  0
  194.7890  175.5610  146.0520 C   0  0  0  0  0  0  0  0  0  0  0  0
  195.9020  174.8440  146.4520 F   0  0  0  0  0  0  0  0  0  0  0  0
  194.7930  176.7860  146.6900 F   0  0  0  0  0  0  0  0  0  0  0  0
  193.6560  174.8630  146.4310 F   0  0  0  0  0  0  0  0  0  0  0  0
  196.1520  177.0250  142.0970 F   0  0  0  0  0  0  0  0  0  0  0  0
  196.7470  176.7580  143.3180 C   0  0  0  0  0  2  0  0  0  0  0  0
  1  7  1  6  0  0  0
  1  6  1  0  0  0  0
  2  6  1  0  0  0  0
  3  1  1  0  0  0  0
  4  5  1  0  0  0  0
  4  3  1  0  0  0  0
  5  2  1  0  0  0  0
  6 26  1  1  0  0  0
  7 10  1  0  0  0  0
  8  7  2  0  0  0  0
  9 10  2  0  0  0  0
 11 10  1  1  0  0  0
 11 12  1  0  0  0  0
 11 21  1  0  0  0  0
 12 17  2  0  0  0  0
 13 15  1  6  0  0  0
 14 19  1  0  0  0  0
 16 14  2  0  0  0  0
 16 12  1  0  0  0  0
 17 13  1  0  0  0  0
 19 18  2  0  0  0  0
 19 13  1  0  0  0  0
 20 24  1  0  0  0  0
 21 25  1  0  0  0  0
 21 20  2  0  0  0  0
 22 23  1  0  0  0  0
 24 23  2  0  0  0  0
 25 22  2  0  0  0  0
 26 27  1  0  0  0  0
 28 27  1  0  0  0  0
 29 32  1  1  0  0  0
 29 33  1  0  0  0  0
 29 34  1  0  0  0  0
 30 35  1  0  0  0  0
 31 30  1  0  0  0  0
 31 28  1  1  0  0  0
 33 31  1  0  0  0  0
 33 36  1  1  0  0  0
 34 42  1  6  0  0  0
 34 35  1  0  0  0  0
 35 37  1  1  0  0  0
 37 40  1  0  0  0  0
 37 38  1  0  0  0  0
 37 39  1  0  0  0  0
 41 42  1  0  0  0  0
M  END
>  <MODEL>
1

>  <REMARK>
 VINA RESULT:      -7.8      0.000      0.000
  Name = 
  11 active torsions:
  status: ('A' for Active; 'I' for Inactive)
    1  A    between atoms: C_2  and  C_14
    2  A    between atoms: C_5  and  C_17
    3  A    between atoms: C_5  and  C_37
    4  A    between atoms: C_6  and  C_15
    5  A    between atoms: C_7  and  C_36
    6  A    between atoms: C_10  and  C_14
    7  A    between atoms: C_14  and  C_22
    8  A    between atoms: C_15  and  C_22
    9  A    between atoms: C_17  and  C_41
   10  A    between atoms: C_18  and  C_35
   11  A    between atoms: C_20  and  C_41
                            x       y       z     vdW  Elec       q    Type
                         _______ _______ _______ _____ _____    ______ ____

>  <TORSDO>
F 11

$$$$
=
 OpenBabel11062420003D

 42 45  0  0  1  0  0  0  0  0999 V2000
  191.2080  175.6150  146.2800 C   0  0  1  0  0  3  0  0  0  0  0  0
  188.7030  175.5940  146.3730 C   0  0  0  0  0  2  0  0  0  0  0  0
  191.0900  176.5170  147.5150 C   0  0  0  0  0  2  0  0  0  0  0  0
  189.9270  177.4970  147.3710 C   0  0  0  0  0  2  0  0  0  0  0  0
  188.6390  176.8000  147.2170 N   0  0  0  0  0  2  0  0  0  0  0  0
  189.9210  175.5670  145.4470 C   0  0  2  0  0  3  0  0  0  0  0  0
  192.3760  176.0180  145.4320 C   0  0  0  0  0  0  0  0  0  0  0  0
  192.1850  176.6610  144.3640 O   0  0  0  0  0  0  0  0  0  0  0  0
  194.3010  176.1980  146.8030 O   0  0  0  0  0  0  0  0  0  0  0  0
  193.7380  175.6310  145.8250 C   0  0  0  0  0  0  0  0  0  0  0  0
  194.4470  174.5250  145.0910 C   0  0  1  0  0  3  0  0  0  0  0  0
  193.5210  173.6340  144.2890 C   0  0  0  0  0  0  0  0  0  0  0  0
  192.1690  171.5220  144.1210 C   0  0  1  0  0  3  0  0  0  0  0  0
  192.6000  173.0480  142.0830 C   0  0  0  0  0  3  0  0  0  0  0  0
  192.6440  170.2270  144.3330 O   0  0  0  0  0  1  0  0  0  0  0  0
  193.2740  173.9020  142.8520 C   0  0  0  0  0  3  0  0  0  0  0  0
  193.0550  172.5040  144.8450 C   0  0  0  0  0  3  0  0  0  0  0  0
  191.4680  170.9900  141.8940 O   0  0  0  0  0  0  0  0  0  0  0  0
  192.0640  171.8040  142.6470 C   0  0  0  0  0  0  0  0  0  0  0  0
  196.7480  174.2590  144.1380 C   0  0  0  0  0  3  0  0  0  0  0  0
  195.6220  175.0640  144.3230 C   0  0  0  0  0  0  0  0  0  0  0  0
  196.7150  176.8310  143.1350 N   0  0  0  0  0  0  0  0  0  0  0  0
  197.8170  176.0580  142.9450 C   0  0  0  0  0  3  0  0  0  0  0  0
  197.8530  174.7530  143.4450 C   0  0  0  0  0  3  0  0  0  0  0  0
  195.6280  176.3670  143.8090 C   0  0  0  0  0  3  0  0  0  0  0  0
  189.9090  174.3190  144.5750 C   0  0  0  0  0  2  0  0  0  0  0  0
  189.5100  174.6560  143.1460 C   0  0  0  0  0  2  0  0  0  0  0  0
  188.9490  176.0680  143.0480 C   0  0  0  0  0  2  0  0  0  0  0  0
  185.9210  177.4310  141.0610 C   0  0  1  0  0  3  0  0  0  0  0  0
  186.4570  176.0960  143.4830 C   0  0  0  0  0  2  0  0  0  0  0  0
  187.5610  176.0610  142.4160 C   0  0  1  0  0  3  0  0  0  0  0  0
  185.7800  178.2530  139.9420 O   0  0  0  0  0  1  0  0  0  0  0  0
  187.3890  177.0650  141.2580 C   0  0  2  0  0  3  0  0  0  0  0  0
  185.3460  178.1260  142.3030 C   0  0  2  0  0  3  0  0  0  0  0  0
  185.7490  177.4530  143.6320 C   0  0  2  0  0  3  0  0  0  0  0  0
  188.1570  178.2170  141.4510 O   0  0  0  0  0  1  0  0  0  0  0  0
  186.4610  178.4060  144.5970 C   0  0  0  0  0  0  0  0  0  0  0  0
  186.0950  178.1090  145.8970 F   0  0  0  0  0  0  0  0  0  0  0  0
  187.8330  178.2950  144.4820 F   0  0  0  0  0  0  0  0  0  0  0  0
  186.0950  179.7110  144.3230 F   0  0  0  0  0  0  0  0  0  0  0  0
  183.2890  178.7870  143.3170 F   0  0  0  0  0  0  0  0  0  0  0  0
  183.8300  178.1850  142.1950 C   0  0  0  0  0  2  0  0  0  0  0  0
  1  7  1  6  0  0  0
  1  3  1  0  0  0  0
  2  5  1  0  0  0  0
  4  3  1  0  0  0  0
  5  4  1  0  0  0  0
  6 26  1  1  0  0  0
  6  1  1  0  0  0  0
  6  2  1  0  0  0  0
  7 10  1  0  0  0  0
  8  7  2  0  0  0  0
 10  9  2  0  0  0  0
 11 10  1  6  0  0  0
 12 17  2  0  0  0  0
 12 11  1  0  0  0  0
 13 15  1  6  0  0  0
 13 17  1  0  0  0  0
 14 19  1  0  0  0  0
 14 16  2  0  0  0  0
 16 12  1  0  0  0  0
 18 19  2  0  0  0  0
 19 13  1  0  0  0  0
 20 21  1  0  0  0  0
 21 11  1  0  0  0  0
 22 25  1  0  0  0  0
 23 22  2  0  0  0  0
 23 24  1  0  0  0  0
 24 20  2  0  0  0  0
 25 21  2  0  0  0  0
 27 26  1  0  0  0  0
 28 27  1  0  0  0  0
 29 32  1  6  0  0  0
 29 33  1  0  0  0  0
 29 34  1  0  0  0  0
 30 35  1  0  0  0  0
 31 28  1  1  0  0  0
 31 30  1  0  0  0  0
 33 36  1  1  0  0  0
 33 31  1  0  0  0  0
 34 42  1  6  0  0  0
 34 35  1  0  0  0  0
 35 37  1  6  0  0  0
 37 38  1  0  0  0  0
 39 37  1  0  0  0  0
 40 37  1  0  0  0  0
 42 41  1  0  0  0  0
M  END
>  <MODEL>
2

>  <REMARK>
 VINA RESULT:      -7.8      3.627      8.484
  Name = 
  11 active torsions:
  status: ('A' for Active; 'I' for Inactive)
    1  A    between atoms: C_2  and  C_14
    2  A    between atoms: C_5  and  C_17
    3  A    between atoms: C_5  and  C_37
    4  A    between atoms: C_6  and  C_15
    5  A    between atoms: C_7  and  C_36
    6  A    between atoms: C_10  and  C_14
    7  A    between atoms: C_14  and  C_22
    8  A    between atoms: C_15  and  C_22
    9  A    between atoms: C_17  and  C_41
   10  A    between atoms: C_18  and  C_35
   11  A    between atoms: C_20  and  C_41
                            x       y       z     vdW  Elec       q    Type
                         _______ _______ _______ _____ _____    ______ ____

>  <TORSDO>
F 11

$$$$
=
 OpenBabel11062420003D

 42 45  0  0  1  0  0  0  0  0999 V2000
  191.4810  172.9080  141.7700 C   0  0  1  0  0  3  0  0  0  0  0  0
  189.6230  173.6340  140.2520 C   0  0  0  0  0  2  0  0  0  0  0  0
  192.1930  172.5370  140.4630 C   0  0  0  0  0  2  0  0  0  0  0  0
  191.2190  171.9170  139.4620 C   0  0  0  0  0  2  0  0  0  0  0  0
  190.1280  172.8430  139.1160 N   0  0  0  0  0  2  0  0  0  0  0  0
  189.9590  173.0200  141.6130 C   0  0  2  0  0  3  0  0  0  0  0  0
  191.8330  171.9460  142.8630 C   0  0  0  0  0  0  0  0  0  0  0  0
  191.2760  170.8150  142.9090 O   0  0  0  0  0  0  0  0  0  0  0  0
  193.2040  171.4820  144.7410 O   0  0  0  0  0  0  0  0  0  0  0  0
  192.7980  172.3340  143.9020 C   0  0  0  0  0  0  0  0  0  0  0  0
  193.3390  173.7370  143.9390 C   0  0  1  0  0  3  0  0  0  0  0  0
  192.5200  174.6850  144.7920 C   0  0  0  0  0  0  0  0  0  0  0  0
  190.6910  175.0360  146.4790 C   0  0  1  0  0  3  0  0  0  0  0  0
  191.7880  176.9980  145.2070 C   0  0  0  0  0  3  0  0  0  0  0  0
  189.3770  174.5760  146.3690 O   0  0  0  0  0  1  0  0  0  0  0  0
  192.6100  176.1510  144.5890 C   0  0  0  0  0  3  0  0  0  0  0  0
  191.5920  174.1830  145.6220 C   0  0  0  0  0  3  0  0  0  0  0  0
  189.9660  177.3110  146.6690 O   0  0  0  0  0  0  0  0  0  0  0  0
  190.7620  176.4970  146.1300 C   0  0  0  0  0  0  0  0  0  0  0  0
  195.2450  173.9600  145.5490 C   0  0  0  0  0  3  0  0  0  0  0  0
  194.8120  173.7330  144.2410 C   0  0  0  0  0  0  0  0  0  0  0  0
  197.0920  173.5550  143.5380 N   0  0  0  0  0  0  0  0  0  0  0  0
  197.5290  173.7720  144.8070 C   0  0  0  0  0  3  0  0  0  0  0  0
  196.6090  173.9790  145.8390 C   0  0  0  0  0  3  0  0  0  0  0  0
  195.7670  173.5330  143.2350 C   0  0  0  0  0  3  0  0  0  0  0  0
  189.3790  173.8600  142.7420 C   0  0  0  0  0  2  0  0  0  0  0  0
  189.6360  175.3410  142.5080 C   0  0  0  0  0  2  0  0  0  0  0  0
  188.6640  176.2020  143.3030 C   0  0  0  0  0  2  0  0  0  0  0  0
  185.6540  177.5690  141.2900 C   0  0  1  0  0  3  0  0  0  0  0  0
  186.1690  176.2390  143.7190 C   0  0  0  0  0  2  0  0  0  0  0  0
  187.2800  176.1980  142.6600 C   0  0  1  0  0  3  0  0  0  0  0  0
  185.5230  178.3890  140.1680 O   0  0  0  0  0  1  0  0  0  0  0  0
  187.1200  177.1990  141.4980 C   0  0  2  0  0  3  0  0  0  0  0  0
  185.0720  178.2690  142.5260 C   0  0  2  0  0  3  0  0  0  0  0  0
  185.4630  177.5990  143.8590 C   0  0  2  0  0  3  0  0  0  0  0  0
  187.8900  178.3500  141.6940 O   0  0  0  0  0  1  0  0  0  0  0  0
  186.1720  178.5510  144.8270 C   0  0  0  0  0  0  0  0  0  0  0  0
  185.6210  178.4250  146.0890 F   0  0  0  0  0  0  0  0  0  0  0  0
  187.5230  178.2730  144.8980 F   0  0  0  0  0  0  0  0  0  0  0  0
  186.0070  179.8580  144.4030 F   0  0  0  0  0  0  0  0  0  0  0  0
  183.0190  179.0510  143.4600 F   0  0  0  0  0  0  0  0  0  0  0  0
  183.5580  178.3330  142.4070 C   0  0  0  0  0  2  0  0  0  0  0  0
  1  7  1  1  0  0  0
  2  6  1  0  0  0  0
  3  1  1  0  0  0  0
  4  3  1  0  0  0  0
  5  4  1  0  0  0  0
  5  2  1  0  0  0  0
  6  1  1  0  0  0  0
  6 26  1  1  0  0  0
  7  8  2  0  0  0  0
  7 10  1  0  0  0  0
 10  9  2  0  0  0  0
 11 10  1  1  0  0  0
 11 21  1  0  0  0  0
 11 12  1  0  0  0  0
 12 17  2  0  0  0  0
 13 15  1  6  0  0  0
 14 19  1  0  0  0  0
 16 12  1  0  0  0  0
 16 14  2  0  0  0  0
 17 13  1  0  0  0  0
 19 13  1  0  0  0  0
 19 18  2  0  0  0  0
 20 24  1  0  0  0  0
 21 20  2  0  0  0  0
 22 23  1  0  0  0  0
 23 24  2  0  0  0  0
 25 22  2  0  0  0  0
 25 21  1  0  0  0  0
 27 26  1  0  0  0  0
 27 28  1  0  0  0  0
 29 32  1  6  0  0  0
 29 33  1  0  0  0  0
 29 34  1  0  0  0  0
 30 35  1  0  0  0  0
 31 28  1  1  0  0  0
 31 30  1  0  0  0  0
 33 36  1  1  0  0  0
 33 31  1  0  0  0  0
 34 42  1  6  0  0  0
 34 35  1  0  0  0  0
 35 37  1  6  0  0  0
 37 39  1  0  0  0  0
 37 38  1  0  0  0  0
 40 37  1  0  0  0  0
 42 41  1  0  0  0  0
M  END
>  <MODEL>
3

>  <REMARK>
 VINA RESULT:      -7.6      3.746      7.491
  Name = 
  11 active torsions:
  status: ('A' for Active; 'I' for Inactive)
    1  A    between atoms: C_2  and  C_14
    2  A    between atoms: C_5  and  C_17
    3  A    between atoms: C_5  and  C_37
    4  A    between atoms: C_6  and  C_15
    5  A    between atoms: C_7  and  C_36
    6  A    between atoms: C_10  and  C_14
    7  A    between atoms: C_14  and  C_22
    8  A    between atoms: C_15  and  C_22
    9  A    between atoms: C_17  and  C_41
   10  A    between atoms: C_18  and  C_35
   11  A    between atoms: C_20  and  C_41
                            x       y       z     vdW  Elec       q    Type
                         _______ _______ _______ _____ _____    ______ ____

>  <TORSDO>
F 11

$$$$
=
 OpenBabel11062420003D

 42 45  0  0  1  0  0  0  0  0999 V2000
  191.0420  172.9450  142.5970 C   0  0  1  0  0  3  0  0  0  0  0  0
  189.5870  174.4390  141.2070 C   0  0  0  0  0  2  0  0  0  0  0  0
  190.1470  171.8260  142.0490 C   0  0  0  0  0  2  0  0  0  0  0  0
  188.6870  172.2710  141.9850 C   0  0  0  0  0  2  0  0  0  0  0  0
  188.5090  173.4390  141.1070 N   0  0  0  0  0  2  0  0  0  0  0  0
  190.3940  174.3310  142.5030 C   0  0  2  0  0  3  0  0  0  0  0  0
  191.4670  172.6500  144.0030 C   0  0  0  0  0  0  0  0  0  0  0  0
  190.7260  172.9870  144.9670 O   0  0  0  0  0  0  0  0  0  0  0  0
  192.8040  170.8430  144.7540 O   0  0  0  0  0  0  0  0  0  0  0  0
  192.7610  172.0040  144.2600 C   0  0  0  0  0  0  0  0  0  0  0  0
  194.0390  172.7090  143.8930 C   0  0  1  0  0  3  0  0  0  0  0  0
  194.1250  174.1290  144.4140 C   0  0  0  0  0  0  0  0  0  0  0  0
  194.9440  176.4870  144.1240 C   0  0  1  0  0  3  0  0  0  0  0  0
  193.8940  175.6540  146.3310 C   0  0  0  0  0  3  0  0  0  0  0  0
  196.2680  176.8730  143.9020 O   0  0  0  0  0  1  0  0  0  0  0  0
  193.6800  174.4560  145.7890 C   0  0  0  0  0  3  0  0  0  0  0  0
  194.7580  175.0590  143.6800 C   0  0  0  0  0  3  0  0  0  0  0  0
  194.8050  177.8170  146.1120 O   0  0  0  0  0  0  0  0  0  0  0  0
  194.5740  176.7050  145.5660 C   0  0  0  0  0  0  0  0  0  0  0  0
  195.8050  171.9130  145.4820 C   0  0  0  0  0  3  0  0  0  0  0  0
  195.2320  171.8500  144.2100 C   0  0  0  0  0  0  0  0  0  0  0  0
  196.8930  170.2540  143.5630 N   0  0  0  0  0  0  0  0  0  0  0  0
  197.4600  170.3030  144.7980 C   0  0  0  0  0  3  0  0  0  0  0  0
  196.9240  171.1370  145.7820 C   0  0  0  0  0  3  0  0  0  0  0  0
  195.8030  171.0030  143.2500 C   0  0  0  0  0  3  0  0  0  0  0  0
  191.4640  175.4130  142.5640 C   0  0  0  0  0  2  0  0  0  0  0  0
  190.9680  176.6280  143.3330 C   0  0  0  0  0  2  0  0  0  0  0  0
  190.4970  176.2430  144.7280 C   0  0  0  0  0  2  0  0  0  0  0  0
  187.4490  177.7240  146.5990 C   0  0  1  0  0  3  0  0  0  0  0  0
  188.8960  178.1350  144.2170 C   0  0  0  0  0  2  0  0  0  0  0  0
  189.5940  177.3220  145.3180 C   0  0  1  0  0  3  0  0  0  0  0  0
  186.6900  177.3200  147.6990 O   0  0  0  0  0  1  0  0  0  0  0  0
  188.6750  176.8270  146.4530 C   0  0  2  0  0  3  0  0  0  0  0  0
  186.5880  177.7050  145.3280 C   0  0  2  0  0  3  0  0  0  0  0  0
  187.4060  177.8090  144.0240 C   0  0  2  0  0  3  0  0  0  0  0  0
  188.2870  175.4970  146.2640 O   0  0  0  0  0  1  0  0  0  0  0  0
  187.1610  176.6400  143.0650 C   0  0  0  0  0  0  0  0  0  0  0  0
  187.8300  176.8660  141.8760 F   0  0  0  0  0  0  0  0  0  0  0  0
  187.6050  175.4500  143.6090 F   0  0  0  0  0  0  0  0  0  0  0  0
  185.8080  176.5310  142.7960 F   0  0  0  0  0  0  0  0  0  0  0  0
  185.8800  179.8140  144.4620 F   0  0  0  0  0  0  0  0  0  0  0  0
  185.5710  178.8330  145.3890 C   0  0  0  0  0  2  0  0  0  0  0  0
  1  7  1  1  0  0  0
  2  6  1  0  0  0  0
  3  1  1  0  0  0  0
  4  3  1  0  0  0  0
  5  2  1  0  0  0  0
  5  4  1  0  0  0  0
  6 26  1  6  0  0  0
  6  1  1  0  0  0  0
  7 10  1  0  0  0  0
  7  8  2  0  0  0  0
 10  9  2  0  0  0  0
 11 21  1  0  0  0  0
 11 10  1  1  0  0  0
 11 12  1  0  0  0  0
 12 16  1  0  0  0  0
 13 15  1  1  0  0  0
 13 19  1  0  0  0  0
 16 14  2  0  0  0  0
 17 13  1  0  0  0  0
 17 12  2  0  0  0  0
 19 18  2  0  0  0  0
 19 14  1  0  0  0  0
 20 24  1  0  0  0  0
 21 20  2  0  0  0  0
 22 23  1  0  0  0  0
 23 24  2  0  0  0  0
 25 22  2  0  0  0  0
 25 21  1  0  0  0  0
 26 27  1  0  0  0  0
 27 28  1  0  0  0  0
 29 32  1  1  0  0  0
 30 31  1  0  0  0  0
 31 28  1  6  0  0  0
 31 33  1  0  0  0  0
 33 36  1  6  0  0  0
 33 29  1  0  0  0  0
 34 42  1  1  0  0  0
 34 29  1  0  0  0  0
 35 37  1  1  0  0  0
 35 30  1  0  0  0  0
 35 34  1  0  0  0  0
 37 39  1  0  0  0  0
 38 37  1  0  0  0  0
 40 37  1  0  0  0  0
 41 42  1  0  0  0  0
M  END
>  <MODEL>
4

>  <REMARK>
 VINA RESULT:      -7.6      3.441      7.805
  Name = 
  11 active torsions:
  status: ('A' for Active; 'I' for Inactive)
    1  A    between atoms: C_2  and  C_14
    2  A    between atoms: C_5  and  C_17
    3  A    between atoms: C_5  and  C_37
    4  A    between atoms: C_6  and  C_15
    5  A    between atoms: C_7  and  C_36
    6  A    between atoms: C_10  and  C_14
    7  A    between atoms: C_14  and  C_22
    8  A    between atoms: C_15  and  C_22
    9  A    between atoms: C_17  and  C_41
   10  A    between atoms: C_18  and  C_35
   11  A    between atoms: C_20  and  C_41
                            x       y       z     vdW  Elec       q    Type
                         _______ _______ _______ _____ _____    ______ ____

>  <TORSDO>
F 11

$$$$
=
 OpenBabel11062420003D

 42 45  0  0  1  0  0  0  0  0999 V2000
  191.8660  172.1300  141.9140 C   0  0  1  0  0  3  0  0  0  0  0  0
  190.2270  171.8750  140.0350 C   0  0  0  0  0  2  0  0  0  0  0  0
  192.8800  171.5960  140.8940 C   0  0  0  0  0  2  0  0  0  0  0  0
  192.2710  170.4810  140.0450 C   0  0  0  0  0  2  0  0  0  0  0  0
  191.0980  170.9490  139.2880 N   0  0  0  0  0  2  0  0  0  0  0  0
  190.4150  171.7910  141.5510 C   0  0  2  0  0  3  0  0  0  0  0  0
  192.1950  171.6530  143.2950 C   0  0  0  0  0  0  0  0  0  0  0  0
  191.9650  170.4550  143.6180 O   0  0  0  0  0  0  0  0  0  0  0  0
  193.4300  172.1550  145.2550 O   0  0  0  0  0  0  0  0  0  0  0  0
  192.7470  172.5880  144.2850 C   0  0  0  0  0  0  0  0  0  0  0  0
  192.5380  174.0690  144.1180 C   0  0  1  0  0  3  0  0  0  0  0  0
  192.2500  174.7950  145.4160 C   0  0  0  0  0  0  0  0  0  0  0  0
  190.6400  175.3580  147.2620 C   0  0  1  0  0  3  0  0  0  0  0  0
  192.9060  176.5670  146.9930 C   0  0  0  0  0  3  0  0  0  0  0  0
  189.3620  175.8940  147.0980 O   0  0  0  0  0  1  0  0  0  0  0  0
  193.2040  175.7970  145.9470 C   0  0  0  0  0  3  0  0  0  0  0  0
  191.0490  174.6450  145.9980 C   0  0  0  0  0  3  0  0  0  0  0  0
  191.3300  177.2030  148.6260 O   0  0  0  0  0  0  0  0  0  0  0  0
  191.6090  176.4350  147.6670 C   0  0  0  0  0  0  0  0  0  0  0  0
  193.3310  175.6500  142.3440 C   0  0  0  0  0  3  0  0  0  0  0  0
  193.6400  174.6720  143.2920 C   0  0  0  0  0  0  0  0  0  0  0  0
  195.9430  174.8110  142.6540 N   0  0  0  0  0  0  0  0  0  0  0  0
  195.6570  175.7650  141.7290 C   0  0  0  0  0  3  0  0  0  0  0  0
  194.3410  176.2030  141.5570 C   0  0  0  0  0  3  0  0  0  0  0  0
  194.9720  174.2590  143.4300 C   0  0  0  0  0  3  0  0  0  0  0  0
  189.4630  172.7400  142.2660 C   0  0  0  0  0  2  0  0  0  0  0  0
  188.5160  173.4080  141.2800 C   0  0  0  0  0  2  0  0  0  0  0  0
  188.6000  174.9250  141.3750 C   0  0  0  0  0  2  0  0  0  0  0  0
  186.0580  177.5410  142.6700 C   0  0  1  0  0  3  0  0  0  0  0  0
  187.8810  175.6510  143.6900 C   0  0  0  0  0  2  0  0  0  0  0  0
  187.4610  175.4830  142.2230 C   0  0  1  0  0  3  0  0  0  0  0  0
  185.3310  178.5720  142.0720 O   0  0  0  0  0  1  0  0  0  0  0  0
  186.7460  176.6990  141.5990 C   0  0  2  0  0  3  0  0  0  0  0  0
  187.0750  178.1200  143.6640 C   0  0  2  0  0  3  0  0  0  0  0  0
  188.1410  177.1040  144.1220 C   0  0  2  0  0  3  0  0  0  0  0  0
  187.6240  177.4870  140.8470 O   0  0  0  0  0  1  0  0  0  0  0  0
  189.5740  177.5700  143.8470 C   0  0  0  0  0  0  0  0  0  0  0  0
  189.5700  178.5080  142.8300 F   0  0  0  0  0  0  0  0  0  0  0  0
  190.1380  178.1350  144.9740 F   0  0  0  0  0  0  0  0  0  0  0  0
  190.3490  176.4950  143.4510 F   0  0  0  0  0  0  0  0  0  0  0  0
  187.0350  178.3880  146.0360 F   0  0  0  0  0  0  0  0  0  0  0  0
  186.3400  178.6750  144.8750 C   0  0  0  0  0  2  0  0  0  0  0  0
  1  7  1  1  0  0  0
  2  6  1  0  0  0  0
  3  1  1  0  0  0  0
  4  3  1  0  0  0  0
  5  2  1  0  0  0  0
  5  4  1  0  0  0  0
  6  1  1  0  0  0  0
  6 26  1  1  0  0  0
  7  8  2  0  0  0  0
  7 10  1  0  0  0  0
 10  9  2  0  0  0  0
 11 10  1  1  0  0  0
 11 12  1  0  0  0  0
 12 16  1  0  0  0  0
 12 17  2  0  0  0  0
 13 15  1  6  0  0  0
 13 19  1  0  0  0  0
 14 19  1  0  0  0  0
 16 14  2  0  0  0  0
 17 13  1  0  0  0  0
 19 18  2  0  0  0  0
 20 21  1  0  0  0  0
 21 25  2  0  0  0  0
 21 11  1  0  0  0  0
 22 25  1  0  0  0  0
 23 22  2  0  0  0  0
 24 23  1  0  0  0  0
 24 20  2  0  0  0  0
 27 28  1  0  0  0  0
 27 26  1  0  0  0  0
 29 32  1  6  0  0  0
 29 34  1  0  0  0  0
 30 35  1  0  0  0  0
 31 28  1  6  0  0  0
 31 30  1  0  0  0  0
 33 36  1  1  0  0  0
 33 31  1  0  0  0  0
 33 29  1  0  0  0  0
 34 35  1  0  0  0  0
 34 42  1  1  0  0  0
 35 37  1  6  0  0  0
 37 39  1  0  0  0  0
 38 37  1  0  0  0  0
 40 37  1  0  0  0  0
 42 41  1  0  0  0  0
M  END
>  <MODEL>
5

>  <REMARK>
 VINA RESULT:      -7.6      3.002      6.805
  Name = 
  11 active torsions:
  status: ('A' for Active; 'I' for Inactive)
    1  A    between atoms: C_2  and  C_14
    2  A    between atoms: C_5  and  C_17
    3  A    between atoms: C_5  and  C_37
    4  A    between atoms: C_6  and  C_15
    5  A    between atoms: C_7  and  C_36
    6  A    between atoms: C_10  and  C_14
    7  A    between atoms: C_14  and  C_22
    8  A    between atoms: C_15  and  C_22
    9  A    between atoms: C_17  and  C_41
   10  A    between atoms: C_18  and  C_35
   11  A    between atoms: C_20  and  C_41
                            x       y       z     vdW  Elec       q    Type
                         _______ _______ _______ _____ _____    ______ ____

>  <TORSDO>
F 11

$$$$
=
 OpenBabel11062420003D

 42 45  0  0  1  0  0  0  0  0999 V2000
  188.9560  174.9160  142.7530 C   0  0  1  0  0  3  0  0  0  0  0  0
  188.6850  172.4850  142.2070 C   0  0  0  0  0  2  0  0  0  0  0  0
  188.1140  175.1330  141.4890 C   0  0  0  0  0  2  0  0  0  0  0  0
  188.5140  174.1510  140.3880 C   0  0  0  0  0  2  0  0  0  0  0  0
  188.3200  172.7530  140.8050 N   0  0  0  0  0  2  0  0  0  0  0  0
  189.6260  173.5370  142.7990 C   0  0  2  0  0  3  0  0  0  0  0  0
  189.9710  176.0060  142.9130 C   0  0  0  0  0  0  0  0  0  0  0  0
  191.1970  175.7510  142.7600 O   0  0  0  0  0  0  0  0  0  0  0  0
  189.4740  178.2690  142.4100 O   0  0  0  0  0  0  0  0  0  0  0  0
  189.5420  177.3620  143.2860 C   0  0  0  0  0  0  0  0  0  0  0  0
  189.1370  177.6590  144.7040 C   0  0  1  0  0  3  0  0  0  0  0  0
  187.6400  177.7820  144.9000 C   0  0  0  0  0  0  0  0  0  0  0  0
  185.3400  177.9410  143.9000 C   0  0  1  0  0  3  0  0  0  0  0  0
  185.7840  178.3590  146.4090 C   0  0  0  0  0  3  0  0  0  0  0  0
  184.9260  178.8670  142.9410 O   0  0  0  0  0  1  0  0  0  0  0  0
  187.0760  178.0840  146.2370 C   0  0  0  0  0  3  0  0  0  0  0  0
  186.8360  177.7760  143.8230 C   0  0  0  0  0  3  0  0  0  0  0  0
  183.6560  178.6630  145.4430 O   0  0  0  0  0  0  0  0  0  0  0  0
  184.8650  178.3580  145.2650 C   0  0  0  0  0  0  0  0  0  0  0  0
  189.0620  175.7790  146.3590 C   0  0  0  0  0  3  0  0  0  0  0  0
  189.8210  176.7210  145.6610 C   0  0  0  0  0  0  0  0  0  0  0  0
  191.7860  175.9340  146.7760 N   0  0  0  0  0  0  0  0  0  0  0  0
  191.0600  175.0110  147.4620 C   0  0  0  0  0  3  0  0  0  0  0  0
  189.6800  174.9170  147.2650 C   0  0  0  0  0  3  0  0  0  0  0  0
  191.2020  176.7840  145.8900 C   0  0  0  0  0  3  0  0  0  0  0  0
  189.9960  173.1850  144.2330 C   0  0  0  0  0  2  0  0  0  0  0  0
  191.0880  172.1260  144.2690 C   0  0  0  0  0  2  0  0  0  0  0  0
  192.2300  172.4780  143.3260 C   0  0  0  0  0  2  0  0  0  0  0  0
  195.5420  174.3990  143.8930 C   0  0  1  0  0  3  0  0  0  0  0  0
  193.5920  173.0200  145.3880 C   0  0  0  0  0  2  0  0  0  0  0  0
  193.1900  173.4700  143.9760 C   0  0  1  0  0  3  0  0  0  0  0  0
  196.5400  174.8910  143.0500 O   0  0  0  0  0  1  0  0  0  0  0  0
  194.3550  173.9100  143.0670 C   0  0  2  0  0  3  0  0  0  0  0  0
  196.1050  173.2810  144.7810 C   0  0  2  0  0  3  0  0  0  0  0  0
  195.0180  172.4540  145.5000 C   0  0  2  0  0  3  0  0  0  0  0  0
  194.7530  172.8860  142.2010 O   0  0  0  0  0  1  0  0  0  0  0  0
  195.1010  170.9560  145.1940 C   0  0  0  0  0  0  0  0  0  0  0  0
  195.9160  170.3360  146.1240 F   0  0  0  0  0  0  0  0  0  0  0  0
  193.8500  170.3710  145.2350 F   0  0  0  0  0  0  0  0  0  0  0  0
  195.6430  170.7640  143.9360 F   0  0  0  0  0  0  0  0  0  0  0  0
  197.1900  173.0330  146.8920 F   0  0  0  0  0  0  0  0  0  0  0  0
  197.0580  173.8770  145.8040 C   0  0  0  0  0  2  0  0  0  0  0  0
  1  6  1  0  0  0  0
  1  7  1  6  0  0  0
  2  6  1  0  0  0  0
  3  1  1  0  0  0  0
  4  5  1  0  0  0  0
  4  3  1  0  0  0  0
  5  2  1  0  0  0  0
  6 26  1  1  0  0  0
  7 10  1  0  0  0  0
  8  7  2  0  0  0  0
  9 10  2  0  0  0  0
 11 10  1  6  0  0  0
 11 12  1  0  0  0  0
 11 21  1  0  0  0  0
 12 16  1  0  0  0  0
 13 15  1  6  0  0  0
 13 19  1  0  0  0  0
 16 14  2  0  0  0  0
 17 13  1  0  0  0  0
 17 12  2  0  0  0  0
 19 18  2  0  0  0  0
 19 14  1  0  0  0  0
 20 24  1  0  0  0  0
 21 25  1  0  0  0  0
 21 20  2  0  0  0  0
 22 23  1  0  0  0  0
 24 23  2  0  0  0  0
 25 22  2  0  0  0  0
 26 27  1  0  0  0  0
 28 27  1  0  0  0  0
 29 32  1  6  0  0  0
 29 34  1  0  0  0  0
 30 35  1  0  0  0  0
 31 28  1  6  0  0  0
 31 30  1  0  0  0  0
 33 36  1  1  0  0  0
 33 29  1  0  0  0  0
 33 31  1  0  0  0  0
 34 35  1  0  0  0  0
 34 42  1  1  0  0  0
 35 37  1  6  0  0  0
 37 39  1  0  0  0  0
 37 38  1  0  0  0  0
 40 37  1  0  0  0  0
 42 41  1  0  0  0  0
M  END
>  <MODEL>
6

>  <REMARK>
 VINA RESULT:      -7.5      2.046      2.734
  Name = 
  11 active torsions:
  status: ('A' for Active; 'I' for Inactive)
    1  A    between atoms: C_2  and  C_14
    2  A    between atoms: C_5  and  C_17
    3  A    between atoms: C_5  and  C_37
    4  A    between atoms: C_6  and  C_15
    5  A    between atoms: C_7  and  C_36
    6  A    between atoms: C_10  and  C_14
    7  A    between atoms: C_14  and  C_22
    8  A    between atoms: C_15  and  C_22
    9  A    between atoms: C_17  and  C_41
   10  A    between atoms: C_18  and  C_35
   11  A    between atoms: C_20  and  C_41
                            x       y       z     vdW  Elec       q    Type
                         _______ _______ _______ _____ _____    ______ ____

>  <TORSDO>
F 11

$$$$
=
 OpenBabel11062420003D

 42 45  0  0  1  0  0  0  0  0999 V2000
  190.8570  172.7920  141.1770 C   0  0  1  0  0  3  0  0  0  0  0  0
  189.7890  173.4990  139.0230 C   0  0  0  0  0  2  0  0  0  0  0  0
  192.0870  172.5280  140.2990 C   0  0  0  0  0  2  0  0  0  0  0  0
  191.6850  171.9120  138.9600 C   0  0  0  0  0  2  0  0  0  0  0  0
  190.7880  172.7960  138.1980 N   0  0  0  0  0  2  0  0  0  0  0  0
  189.5480  172.8320  140.3790 C   0  0  2  0  0  3  0  0  0  0  0  0
  190.7710  171.7940  142.2910 C   0  0  0  0  0  0  0  0  0  0  0  0
  190.2070  170.6820  142.0960 O   0  0  0  0  0  0  0  0  0  0  0  0
  190.5450  172.1510  144.6230 O   0  0  0  0  0  0  0  0  0  0  0  0
  191.3090  172.1240  143.6180 C   0  0  0  0  0  0  0  0  0  0  0  0
  192.7800  172.3850  143.7890 C   0  0  1  0  0  3  0  0  0  0  0  0
  193.0960  173.7570  144.3510 C   0  0  0  0  0  0  0  0  0  0  0  0
  194.2120  175.9920  144.0850 C   0  0  1  0  0  3  0  0  0  0  0  0
  193.2030  175.2140  146.3310 C   0  0  0  0  0  3  0  0  0  0  0  0
  195.5590  176.2050  143.7830 O   0  0  0  0  0  1  0  0  0  0  0  0
  192.7910  174.0810  145.7650 C   0  0  0  0  0  3  0  0  0  0  0  0
  193.8020  174.6230  143.6060 C   0  0  0  0  0  3  0  0  0  0  0  0
  194.3880  177.2410  146.1220 O   0  0  0  0  0  0  0  0  0  0  0  0
  193.9710  176.1960  145.5560 C   0  0  0  0  0  0  0  0  0  0  0  0
  194.5190  171.5020  145.3620 C   0  0  0  0  0  3  0  0  0  0  0  0
  193.4450  171.2440  144.5090 C   0  0  0  0  0  0  0  0  0  0  0  0
  193.6630  168.9070  144.9750 N   0  0  0  0  0  0  0  0  0  0  0  0
  194.7090  169.1440  145.8100 C   0  0  0  0  0  3  0  0  0  0  0  0
  195.1570  170.4500  146.0190 C   0  0  0  0  0  3  0  0  0  0  0  0
  193.0290  169.9180  144.3240 C   0  0  0  0  0  3  0  0  0  0  0  0
  188.4810  173.5800  141.1660 C   0  0  0  0  0  2  0  0  0  0  0  0
  188.9090  175.0140  141.4390 C   0  0  0  0  0  2  0  0  0  0  0  0
  187.8450  175.7670  142.2270 C   0  0  0  0  0  2  0  0  0  0  0  0
  188.0810  176.8870  145.9240 C   0  0  1  0  0  3  0  0  0  0  0  0
  189.5620  175.3950  144.0480 C   0  0  0  0  0  2  0  0  0  0  0  0
  188.0780  175.6300  143.7280 C   0  0  1  0  0  3  0  0  0  0  0  0
  187.3740  177.7940  146.7140 O   0  0  0  0  0  1  0  0  0  0  0  0
  187.3850  176.7150  144.5770 C   0  0  2  0  0  3  0  0  0  0  0  0
  189.5310  177.3590  145.7480 C   0  0  2  0  0  3  0  0  0  0  0  0
  190.2940  176.6140  144.6330 C   0  0  2  0  0  3  0  0  0  0  0  0
  187.3190  177.9380  143.9020 O   0  0  0  0  0  1  0  0  0  0  0  0
  190.8600  177.5510  143.5610 C   0  0  0  0  0  0  0  0  0  0  0  0
  191.8280  178.3650  144.1200 F   0  0  0  0  0  0  0  0  0  0  0  0
  191.4220  176.8360  142.5220 F   0  0  0  0  0  0  0  0  0  0  0  0
  189.8500  178.3510  143.0570 F   0  0  0  0  0  0  0  0  0  0  0  0
  190.0140  175.9790  147.6350 F   0  0  0  0  0  0  0  0  0  0  0  0
  190.2750  177.2130  147.0660 C   0  0  0  0  0  2  0  0  0  0  0  0
  1  7  1  1  0  0  0
  2  6  1  0  0  0  0
  3  1  1  0  0  0  0
  4  3  1  0  0  0  0
  5  4  1  0  0  0  0
  5  2  1  0  0  0  0
  6 26  1  1  0  0  0
  6  1  1  0  0  0  0
  7 10  1  0  0  0  0
  8  7  2  0  0  0  0
 10  9  2  0  0  0  0
 11 10  1  1  0  0  0
 11 12  1  0  0  0  0
 11 21  1  0  0  0  0
 12 16  1  0  0  0  0
 13 15  1  1  0  0  0
 13 19  1  0  0  0  0
 16 14  2  0  0  0  0
 17 13  1  0  0  0  0
 17 12  2  0  0  0  0
 19 18  2  0  0  0  0
 19 14  1  0  0  0  0
 20 24  1  0  0  0  0
 21 20  2  0  0  0  0
 22 23  1  0  0  0  0
 23 24  2  0  0  0  0
 25 21  1  0  0  0  0
 25 22  2  0  0  0  0
 26 27  1  0  0  0  0
 27 28  1  0  0  0  0
 29 32  1  1  0  0  0
 30 35  1  0  0  0  0
 31 28  1  6  0  0  0
 31 30  1  0  0  0  0
 31 33  1  0  0  0  0
 33 36  1  6  0  0  0
 33 29  1  0  0  0  0
 34 29  1  0  0  0  0
 34 42  1  1  0  0  0
 35 37  1  6  0  0  0
 35 34  1  0  0  0  0
 37 38  1  0  0  0  0
 39 37  1  0  0  0  0
 40 37  1  0  0  0  0
 42 41  1  0  0  0  0
M  END
>  <MODEL>
7

>  <REMARK>
 VINA RESULT:      -7.4      2.789      6.889
  Name = 
  11 active torsions:
  status: ('A' for Active; 'I' for Inactive)
    1  A    between atoms: C_2  and  C_14
    2  A    between atoms: C_5  and  C_17
    3  A    between atoms: C_5  and  C_37
    4  A    between atoms: C_6  and  C_15
    5  A    between atoms: C_7  and  C_36
    6  A    between atoms: C_10  and  C_14
    7  A    between atoms: C_14  and  C_22
    8  A    between atoms: C_15  and  C_22
    9  A    between atoms: C_17  and  C_41
   10  A    between atoms: C_18  and  C_35
   11  A    between atoms: C_20  and  C_41
                            x       y       z     vdW  Elec       q    Type
                         _______ _______ _______ _____ _____    ______ ____

>  <TORSDO>
F 11

$$$$
=
 OpenBabel11062420003D

 42 45  0  0  1  0  0  0  0  0999 V2000
  190.2760  173.1040  141.0350 C   0  0  1  0  0  3  0  0  0  0  0  0
  188.5860  174.1010  139.4760 C   0  0  0  0  0  2  0  0  0  0  0  0
  190.6620  172.2510  139.8200 C   0  0  0  0  0  2  0  0  0  0  0  0
  189.4230  171.8160  139.0380 C   0  0  0  0  0  2  0  0  0  0  0  0
  188.6600  172.9700  138.5350 N   0  0  0  0  0  2  0  0  0  0  0  0
  188.8680  173.7010  140.9260 C   0  0  2  0  0  3  0  0  0  0  0  0
  190.4270  172.3240  142.3050 C   0  0  0  0  0  0  0  0  0  0  0  0
  189.6970  171.3170  142.5150 O   0  0  0  0  0  0  0  0  0  0  0  0
  191.8360  171.9290  144.1710 O   0  0  0  0  0  0  0  0  0  0  0  0
  191.3970  172.7550  143.3220 C   0  0  0  0  0  0  0  0  0  0  0  0
  191.9050  174.1710  143.3240 C   0  0  1  0  0  3  0  0  0  0  0  0
  191.8950  174.8220  144.6920 C   0  0  0  0  0  0  0  0  0  0  0  0
  191.0200  174.8790  147.0470 C   0  0  1  0  0  3  0  0  0  0  0  0
  192.4290  176.8010  146.0540 C   0  0  0  0  0  3  0  0  0  0  0  0
  189.6750  174.9110  147.4210 O   0  0  0  0  0  1  0  0  0  0  0  0
  192.5590  176.1290  144.9110 C   0  0  0  0  0  3  0  0  0  0  0  0
  191.1410  174.2860  145.6670 C   0  0  0  0  0  3  0  0  0  0  0  0
  191.4760  176.9250  148.2060 O   0  0  0  0  0  0  0  0  0  0  0  0
  191.6220  176.2530  147.1500 C   0  0  0  0  0  0  0  0  0  0  0  0
  194.3090  173.5240  143.0390 C   0  0  0  0  0  3  0  0  0  0  0  0
  193.2150  174.2690  142.5920 C   0  0  0  0  0  0  0  0  0  0  0  0
  194.5790  175.1910  140.8550 N   0  0  0  0  0  0  0  0  0  0  0  0
  195.6520  174.4710  141.2780 C   0  0  0  0  0  3  0  0  0  0  0  0
  195.5350  173.6220  142.3820 C   0  0  0  0  0  3  0  0  0  0  0  0
  193.3760  175.1110  141.4830 C   0  0  0  0  0  3  0  0  0  0  0  0
  188.7370  174.9020  141.8530 C   0  0  0  0  0  2  0  0  0  0  0  0
  187.3110  175.0440  142.3620 C   0  0  0  0  0  2  0  0  0  0  0  0
  186.7220  176.3950  141.9810 C   0  0  0  0  0  2  0  0  0  0  0  0
  185.0690  178.9530  144.3710 C   0  0  1  0  0  3  0  0  0  0  0  0
  186.1540  176.3540  144.4460 C   0  0  0  0  0  2  0  0  0  0  0  0
  185.7750  176.9040  143.0640 C   0  0  1  0  0  3  0  0  0  0  0  0
  184.7330  180.3040  144.2710 O   0  0  0  0  0  1  0  0  0  0  0  0
  185.5100  178.4230  143.0090 C   0  0  2  0  0  3  0  0  0  0  0  0
  186.1660  178.7590  145.4280 C   0  0  2  0  0  3  0  0  0  0  0  0
  186.8360  177.3700  145.3780 C   0  0  2  0  0  3  0  0  0  0  0  0
  186.6260  179.1280  142.5490 O   0  0  0  0  0  1  0  0  0  0  0  0
  188.3540  177.4410  145.1900 C   0  0  0  0  0  0  0  0  0  0  0  0
  188.6540  178.3080  144.1550 F   0  0  0  0  0  0  0  0  0  0  0  0
  188.9770  177.8840  146.3400 F   0  0  0  0  0  0  0  0  0  0  0  0
  188.8450  176.1870  144.8710 F   0  0  0  0  0  0  0  0  0  0  0  0
  184.2890  178.5160  146.8830 F   0  0  0  0  0  0  0  0  0  0  0  0
  185.5830  179.0000  146.8120 C   0  0  0  0  0  2  0  0  0  0  0  0
  1  7  1  1  0  0  0
  2  6  1  0  0  0  0
  3  1  1  0  0  0  0
  4  3  1  0  0  0  0
  5  4  1  0  0  0  0
  5  2  1  0  0  0  0
  6  1  1  0  0  0  0
  6 26  1  1  0  0  0
  7  8  2  0  0  0  0
  7 10  1  0  0  0  0
 10  9  2  0  0  0  0
 11 10  1  1  0  0  0
 11 12  1  0  0  0  0
 12 16  1  0  0  0  0
 12 17  2  0  0  0  0
 13 19  1  0  0  0  0
 13 15  1  6  0  0  0
 14 19  1  0  0  0  0
 16 14  2  0  0  0  0
 17 13  1  0  0  0  0
 19 18  2  0  0  0  0
 21 20  1  0  0  0  0
 21 11  1  0  0  0  0
 22 23  2  0  0  0  0
 22 25  1  0  0  0  0
 23 24  1  0  0  0  0
 24 20  2  0  0  0  0
 25 21  2  0  0  0  0
 26 27  1  0  0  0  0
 28 27  1  0  0  0  0
 29 32  1  6  0  0  0
 29 34  1  0  0  0  0
 30 35  1  0  0  0  0
 31 28  1  6  0  0  0
 31 30  1  0  0  0  0
 33 36  1  1  0  0  0
 33 31  1  0  0  0  0
 33 29  1  0  0  0  0
 34 42  1  1  0  0  0
 35 37  1  6  0  0  0
 35 34  1  0  0  0  0
 37 39  1  0  0  0  0
 38 37  1  0  0  0  0
 40 37  1  0  0  0  0
 42 41  1  0  0  0  0
M  END
>  <MODEL>
8

>  <REMARK>
 VINA RESULT:      -7.4      3.148      7.389
  Name = 
  11 active torsions:
  status: ('A' for Active; 'I' for Inactive)
    1  A    between atoms: C_2  and  C_14
    2  A    between atoms: C_5  and  C_17
    3  A    between atoms: C_5  and  C_37
    4  A    between atoms: C_6  and  C_15
    5  A    between atoms: C_7  and  C_36
    6  A    between atoms: C_10  and  C_14
    7  A    between atoms: C_14  and  C_22
    8  A    between atoms: C_15  and  C_22
    9  A    between atoms: C_17  and  C_41
   10  A    between atoms: C_18  and  C_35
   11  A    between atoms: C_20  and  C_41
                            x       y       z     vdW  Elec       q    Type
                         _______ _______ _______ _____ _____    ______ ____

>  <TORSDO>
F 11

$$$$
=
 OpenBabel11062420003D

 42 45  0  0  1  0  0  0  0  0999 V2000
  191.0430  174.3960  146.0620 C   0  0  1  0  0  3  0  0  0  0  0  0
  191.0210  176.3520  147.6300 C   0  0  0  0  0  2  0  0  0  0  0  0
  192.5610  174.6110  146.0650 C   0  0  0  0  0  2  0  0  0  0  0  0
  192.9070  176.1000  146.0490 C   0  0  0  0  0  2  0  0  0  0  0  0
  192.3660  176.7990  147.2270 N   0  0  0  0  0  2  0  0  0  0  0  0
  190.2610  175.6370  146.5100 C   0  0  2  0  0  3  0  0  0  0  0  0
  190.5710  173.9270  144.7200 C   0  0  0  0  0  0  0  0  0  0  0  0
  189.7970  172.9340  144.6380 O   0  0  0  0  0  0  0  0  0  0  0  0
  190.7930  175.8210  143.3110 O   0  0  0  0  0  0  0  0  0  0  0  0
  191.0410  174.5970  143.4990 C   0  0  0  0  0  0  0  0  0  0  0  0
  191.8600  173.8360  142.4920 C   0  0  1  0  0  3  0  0  0  0  0  0
  191.2520  173.8120  141.1040 C   0  0  0  0  0  0  0  0  0  0  0  0
  189.2080  173.7450  139.6450 C   0  0  1  0  0  3  0  0  0  0  0  0
  191.5870  173.4170  138.6980 C   0  0  0  0  0  3  0  0  0  0  0  0
  188.1810  172.8020  139.7170 O   0  0  0  0  0  1  0  0  0  0  0  0
  192.1070  173.6060  139.9100 C   0  0  0  0  0  3  0  0  0  0  0  0
  189.9160  173.8150  140.9740 C   0  0  0  0  0  3  0  0  0  0  0  0
  189.6610  173.1970  137.3570 O   0  0  0  0  0  0  0  0  0  0  0  0
  190.1330  173.4210  138.5040 C   0  0  0  0  0  0  0  0  0  0  0  0
  193.6280  175.5970  142.2660 C   0  0  0  0  0  3  0  0  0  0  0  0
  193.3000  174.2670  142.5390 C   0  0  0  0  0  0  0  0  0  0  0  0
  195.6230  173.7780  142.8430 N   0  0  0  0  0  0  0  0  0  0  0  0
  195.9560  175.0700  142.5810 C   0  0  0  0  0  3  0  0  0  0  0  0
  194.9610  176.0050  142.2870 C   0  0  0  0  0  3  0  0  0  0  0  0
  194.3290  173.3600  142.8260 C   0  0  0  0  0  3  0  0  0  0  0  0
  188.8670  175.2360  146.9750 C   0  0  0  0  0  2  0  0  0  0  0  0
  187.8240  176.2330  146.4930 C   0  0  0  0  0  2  0  0  0  0  0  0
  188.2470  176.8850  145.1840 C   0  0  0  0  0  2  0  0  0  0  0  0
  186.5040  177.1660  141.7390 C   0  0  1  0  0  3  0  0  0  0  0  0
  185.8290  176.7820  144.4470 C   0  0  0  0  0  2  0  0  0  0  0  0
  187.2890  176.5150  144.0550 C   0  0  1  0  0  3  0  0  0  0  0  0
  186.9220  177.5490  140.4640 O   0  0  0  0  0  1  0  0  0  0  0  0
  187.7080  177.0510  142.6700 C   0  0  2  0  0  3  0  0  0  0  0  0
  185.4730  178.1680  142.2790 C   0  0  2  0  0  3  0  0  0  0  0  0
  185.2030  178.0240  143.7910 C   0  0  2  0  0  3  0  0  0  0  0  0
  188.3690  178.2790  142.7670 O   0  0  0  0  0  1  0  0  0  0  0  0
  185.4590  179.3160  144.5740 C   0  0  0  0  0  0  0  0  0  0  0  0
  185.9050  180.3000  143.7120 F   0  0  0  0  0  0  0  0  0  0  0  0
  184.3080  179.7550  145.1980 F   0  0  0  0  0  0  0  0  0  0  0  0
  186.4310  179.0970  145.5340 F   0  0  0  0  0  0  0  0  0  0  0  0
  183.1020  177.9110  142.3800 F   0  0  0  0  0  0  0  0  0  0  0  0
  184.1710  178.0200  141.5080 C   0  0  0  0  0  2  0  0  0  0  0  0
  1  7  1  6  0  0  0
  1  3  1  0  0  0  0
  1  6  1  0  0  0  0
  4  3  1  0  0  0  0
  4  5  1  0  0  0  0
  5  2  1  0  0  0  0
  6 26  1  1  0  0  0
  6  2  1  0  0  0  0
  8  7  2  0  0  0  0
  9 10  2  0  0  0  0
 10  7  1  0  0  0  0
 11 21  1  0  0  0  0
 11 10  1  1  0  0  0
 12 11  1  0  0  0  0
 13 15  1  1  0  0  0
 13 17  1  0  0  0  0
 14 16  2  0  0  0  0
 16 12  1  0  0  0  0
 17 12  2  0  0  0  0
 18 19  2  0  0  0  0
 19 14  1  0  0  0  0
 19 13  1  0  0  0  0
 20 24  2  0  0  0  0
 20 21  1  0  0  0  0
 21 25  2  0  0  0  0
 23 22  2  0  0  0  0
 24 23  1  0  0  0  0
 25 22  1  0  0  0  0
 27 26  1  0  0  0  0
 28 27  1  0  0  0  0
 29 32  1  6  0  0  0
 29 34  1  0  0  0  0
 29 33  1  0  0  0  0
 31 30  1  0  0  0  0
 31 28  1  1  0  0  0
 33 36  1  1  0  0  0
 33 31  1  0  0  0  0
 34 42  1  6  0  0  0
 34 35  1  0  0  0  0
 35 30  1  0  0  0  0
 35 37  1  1  0  0  0
 37 39  1  0  0  0  0
 37 40  1  0  0  0  0
 38 37  1  0  0  0  0
 42 41  1  0  0  0  0
M  END
>  <MODEL>
9

>  <REMARK>
 VINA RESULT:      -7.3      3.872      8.117
  Name = 
  11 active torsions:
  status: ('A' for Active; 'I' for Inactive)
    1  A    between atoms: C_2  and  C_14
    2  A    between atoms: C_5  and  C_17
    3  A    between atoms: C_5  and  C_37
    4  A    between atoms: C_6  and  C_15
    5  A    between atoms: C_7  and  C_36
    6  A    between atoms: C_10  and  C_14
    7  A    between atoms: C_14  and  C_22
    8  A    between atoms: C_15  and  C_22
    9  A    between atoms: C_17  and  C_41
   10  A    between atoms: C_18  and  C_35
   11  A    between atoms: C_20  and  C_41
                            x       y       z     vdW  Elec       q    Type
                         _______ _______ _______ _____ _____    ______ ____

>  <TORSDO>
F 11

$$$$
