=
 OpenBabel11072408283D

 34 37  0  0  1  0  0  0  0  0999 V2000
  189.6210  176.6620  144.4020 C   0  0  2  0  0  3  0  0  0  0  0  0
  184.4660  178.4820  147.5210 O   0  0  0  0  0  0  0  0  0  0  0  0
  185.1430  178.8290  146.3640 N   0  0  2  0  0  0  0  0  0  0  0  0
  188.3810  175.9360  146.4120 C   0  0  0  0  0  3  0  0  0  0  0  0
  187.2140  177.4450  144.7750 C   0  0  2  0  0  3  0  0  0  0  0  0
  189.3540  175.5090  145.3580 C   0  0  0  0  0  2  0  0  0  0  0  0
  188.3050  177.0970  143.7510 C   0  0  1  0  0  3  0  0  0  0  0  0
  187.3630  176.7690  146.1520 C   0  0  0  0  0  0  0  0  0  0  0  0
  188.5200  178.1950  142.9150 O   0  0  0  0  0  1  0  0  0  0  0  0
  184.2950  178.7460  145.1910 C   0  0  0  0  0  2  0  0  0  0  0  0
  185.1100  177.4810  146.8700 C   0  0  1  0  0  3  0  0  0  0  0  0
  186.5170  177.1900  147.3330 C   0  0  0  0  0  2  0  0  0  0  0  0
  185.1840  178.4150  143.9820 C   0  0  1  0  0  3  0  0  0  0  0  0
  185.9070  177.1540  144.1810 N   0  0  0  0  0  2  0  0  0  0  0  0
  182.2470  178.5590  141.5690 C   0  0  0  0  0  0  0  0  0  0  0  0
  182.9940  178.6260  142.7490 C   0  0  0  0  0  3  0  0  0  0  0  0
  182.8730  178.2110  140.3680 C   0  0  0  0  0  3  0  0  0  0  0  0
  184.3680  178.3490  142.7320 C   0  0  0  0  0  0  0  0  0  0  0  0
  184.9900  178.0050  141.5270 C   0  0  0  0  0  3  0  0  0  0  0  0
  184.2440  177.9360  140.3460 C   0  0  0  0  0  3  0  0  0  0  0  0
  180.5250  178.8960  141.5970 S   0  0  0  0  0  0  0  0  0  0  0  0
  179.7640  177.6740  141.1640 O   0  0  0  0  0  0  0  0  0  0  0  0
  180.1670  180.1920  140.5110 N   0  0  0  0  0  1  0  0  0  0  0  0
  180.1110  179.2810  142.9890 O   0  0  0  0  0  0  0  0  0  0  0  0
  190.6750  176.2750  143.3650 C   0  0  0  0  0  2  0  0  0  0  0  0
  191.5040  174.7000  143.7620 S   0  0  0  0  0  0  0  0  0  0  0  0
  193.0850  175.2840  143.0690 C   0  0  0  0  0  2  0  0  0  0  0  0
  195.2130  176.2770  143.6220 O   0  0  0  0  0  1  0  0  0  0  0  0
  193.9060  176.0820  144.0780 C   0  0  2  0  0  3  0  0  0  0  0  0
  195.0950  174.8310  145.7700 O   0  0  0  0  0  1  0  0  0  0  0  0
  193.8820  175.4570  145.4730 C   0  0  1  0  0  3  0  0  0  0  0  0
  193.5650  176.4870  146.5070 C   0  0  0  0  0  0  0  0  0  0  0  0
  194.4000  177.3870  146.7920 O   0  0  0  0  0  0  0  0  0  0  0  0
  192.3270  176.4720  147.1340 O   0  0  0  0  0  1  0  0  0  0  0  0
  1 25  1  6  0  0  0
  1  6  1  0  0  0  0
  3 10  1  6  0  0  0
  3 11  1  0  0  0  0
  3  2  1  0  0  0  0
  5 14  1  6  0  0  0
  5  8  1  0  0  0  0
  6  4  1  0  0  0  0
  7  9  1  1  0  0  0
  7  1  1  0  0  0  0
  7  5  1  0  0  0  0
  8  4  2  0  0  0  0
  8 12  1  0  0  0  0
 11 12  1  1  0  0  0
 11  2  1  0  0  0  0
 13 18  1  6  0  0  0
 13 14  1  0  0  0  0
 13 10  1  0  0  0  0
 15 21  1  0  0  0  0
 15 16  1  0  0  0  0
 17 15  2  0  0  0  0
 18 16  2  0  0  0  0
 19 18  1  0  0  0  0
 20 17  1  0  0  0  0
 20 19  2  0  0  0  0
 21 24  2  0  0  0  0
 22 21  2  0  0  0  0
 23 21  1  0  0  0  0
 25 26  1  0  0  0  0
 27 26  1  0  0  0  0
 27 29  1  0  0  0  0
 29 28  1  6  0  0  0
 29 31  1  0  0  0  0
 31 30  1  1  0  0  0
 31 32  1  0  0  0  0
 32 33  2  0  0  0  0
 32 34  1  0  0  0  0
M  END
>  <MODEL>
1

>  <REMARK>
 VINA RESULT:      -7.9      0.000      0.000
  Name = 
  8 active torsions:
  status: ('A' for Active; 'I' for Inactive)
    1  A    between atoms: C_1  and  S_9
    2  A    between atoms: C_4  and  C_11
    3  A    between atoms: C_5  and  C_32
    4  A    between atoms: C_8  and  C_18
    5  A    between atoms: C_11  and  S_27
    6  A    between atoms: C_18  and  C_33
    7  A    between atoms: S_27  and  C_30
    8  A    between atoms: C_30  and  C_33
                            x       y       z     vdW  Elec       q    Type
                         _______ _______ _______ _____ _____    ______ ____

>  <TORSDO>
F 8

$$$$
=
 OpenBabel11072408283D

 34 37  0  0  1  0  0  0  0  0999 V2000
  189.6480  176.3570  144.5610 C   0  0  2  0  0  3  0  0  0  0  0  0
  184.6150  178.6330  147.5800 O   0  0  0  0  0  0  0  0  0  0  0  0
  185.3210  178.8940  146.4180 N   0  0  2  0  0  0  0  0  0  0  0  0
  188.3480  175.7840  146.5820 C   0  0  0  0  0  3  0  0  0  0  0  0
  187.2990  177.3180  144.8900 C   0  0  2  0  0  3  0  0  0  0  0  0
  189.2940  175.2560  145.5500 C   0  0  0  0  0  2  0  0  0  0  0  0
  188.3690  176.8620  143.8860 C   0  0  1  0  0  3  0  0  0  0  0  0
  187.3920  176.6780  146.2880 C   0  0  0  0  0  0  0  0  0  0  0  0
  188.6650  177.9150  143.0180 O   0  0  0  0  0  1  0  0  0  0  0  0
  184.4770  178.8340  145.2420 C   0  0  0  0  0  2  0  0  0  0  0  0
  185.1920  177.5690  146.9660 C   0  0  1  0  0  3  0  0  0  0  0  0
  186.5720  177.1950  147.4490 C   0  0  0  0  0  2  0  0  0  0  0  0
  185.3470  178.4030  144.0500 C   0  0  1  0  0  3  0  0  0  0  0  0
  185.9780  177.1010  144.2950 N   0  0  0  0  0  2  0  0  0  0  0  0
  182.4180  178.5790  141.6300 C   0  0  0  0  0  0  0  0  0  0  0  0
  183.1610  178.6290  142.8140 C   0  0  0  0  0  3  0  0  0  0  0  0
  183.0500  178.2500  140.4260 C   0  0  0  0  0  3  0  0  0  0  0  0
  184.5360  178.3550  142.7970 C   0  0  0  0  0  0  0  0  0  0  0  0
  185.1620  178.0300  141.5890 C   0  0  0  0  0  3  0  0  0  0  0  0
  184.4210  177.9770  140.4050 C   0  0  0  0  0  3  0  0  0  0  0  0
  180.6960  178.9120  141.6570 S   0  0  0  0  0  0  0  0  0  0  0  0
  179.9330  177.6570  141.3400 O   0  0  0  0  0  0  0  0  0  0  0  0
  180.3160  180.1110  140.4710 N   0  0  0  0  0  1  0  0  0  0  0  0
  180.3030  179.4120  143.0180 O   0  0  0  0  0  0  0  0  0  0  0  0
  190.6770  175.8640  143.5440 C   0  0  0  0  0  2  0  0  0  0  0  0
  192.2450  176.7930  143.6290 S   0  0  0  0  0  0  0  0  0  0  0  0
  192.9720  175.5840  144.7820 C   0  0  0  0  0  2  0  0  0  0  0  0
  194.3700  177.3680  145.6080 O   0  0  0  0  0  1  0  0  0  0  0  0
  194.3490  176.0090  145.2840 C   0  0  2  0  0  3  0  0  0  0  0  0
  196.0800  176.7890  143.7870 O   0  0  0  0  0  1  0  0  0  0  0  0
  195.4630  175.6460  144.3020 C   0  0  1  0  0  3  0  0  0  0  0  0
  196.4750  174.7630  144.9550 C   0  0  0  0  0  0  0  0  0  0  0  0
  196.1990  174.1550  146.0240 O   0  0  0  0  0  1  0  0  0  0  0  0
  197.7170  174.5840  144.3620 O   0  0  0  0  0  0  0  0  0  0  0  0
  1 25  1  6  0  0  0
  1  6  1  0  0  0  0
  3 10  1  6  0  0  0
  3 11  1  0  0  0  0
  3  2  1  0  0  0  0
  5 14  1  6  0  0  0
  5  8  1  0  0  0  0
  6  4  1  0  0  0  0
  7  9  1  6  0  0  0
  7  1  1  0  0  0  0
  7  5  1  0  0  0  0
  8  4  2  0  0  0  0
  8 12  1  0  0  0  0
 11 12  1  1  0  0  0
 11  2  1  0  0  0  0
 13 18  1  6  0  0  0
 13 14  1  0  0  0  0
 13 10  1  0  0  0  0
 15 21  1  0  0  0  0
 15 16  1  0  0  0  0
 17 15  2  0  0  0  0
 18 16  2  0  0  0  0
 19 18  1  0  0  0  0
 20 17  1  0  0  0  0
 20 19  2  0  0  0  0
 21 24  2  0  0  0  0
 22 21  2  0  0  0  0
 23 21  1  0  0  0  0
 25 26  1  0  0  0  0
 26 27  1  0  0  0  0
 27 29  1  0  0  0  0
 29 28  1  6  0  0  0
 31 30  1  1  0  0  0
 31 32  1  0  0  0  0
 31 29  1  0  0  0  0
 32 33  1  0  0  0  0
 34 32  2  0  0  0  0
M  END
>  <MODEL>
2

>  <REMARK>
 VINA RESULT:      -7.8      0.961      1.697
  Name = 
  8 active torsions:
  status: ('A' for Active; 'I' for Inactive)
    1  A    between atoms: C_1  and  S_9
    2  A    between atoms: C_4  and  C_11
    3  A    between atoms: C_5  and  C_32
    4  A    between atoms: C_8  and  C_18
    5  A    between atoms: C_11  and  S_27
    6  A    between atoms: C_18  and  C_33
    7  A    between atoms: S_27  and  C_30
    8  A    between atoms: C_30  and  C_33
                            x       y       z     vdW  Elec       q    Type
                         _______ _______ _______ _____ _____    ______ ____

>  <TORSDO>
F 8

$$$$
=
 OpenBabel11072408283D

 34 37  0  0  1  0  0  0  0  0999 V2000
  189.6960  176.3490  144.6490 C   0  0  2  0  0  3  0  0  0  0  0  0
  184.5920  178.5210  147.6240 O   0  0  0  0  0  0  0  0  0  0  0  0
  185.3140  178.8100  146.4780 N   0  0  2  0  0  0  0  0  0  0  0  0
  188.3700  175.7280  146.6380 C   0  0  0  0  0  3  0  0  0  0  0  0
  187.3330  177.2800  144.9560 C   0  0  2  0  0  3  0  0  0  0  0  0
  189.3390  175.2270  145.6130 C   0  0  0  0  0  2  0  0  0  0  0  0
  188.4240  176.8530  143.9610 C   0  0  1  0  0  3  0  0  0  0  0  0
  187.4100  176.6170  146.3440 C   0  0  0  0  0  0  0  0  0  0  0  0
  188.7230  177.9240  143.1170 O   0  0  0  0  0  1  0  0  0  0  0  0
  184.4890  178.7610  145.2870 C   0  0  0  0  0  2  0  0  0  0  0  0
  185.1900  177.4740  147.0000 C   0  0  1  0  0  3  0  0  0  0  0  0
  186.5650  177.1050  147.5000 C   0  0  0  0  0  2  0  0  0  0  0  0
  185.3830  178.3590  144.1030 C   0  0  1  0  0  3  0  0  0  0  0  0
  186.0240  177.0600  144.3360 N   0  0  0  0  0  2  0  0  0  0  0  0
  182.5060  178.6110  141.6280 C   0  0  0  0  0  0  0  0  0  0  0  0
  183.2290  178.6490  142.8250 C   0  0  0  0  0  3  0  0  0  0  0  0
  183.1460  178.2440  140.4400 C   0  0  0  0  0  3  0  0  0  0  0  0
  184.5930  178.3250  142.8360 C   0  0  0  0  0  0  0  0  0  0  0  0
  185.2280  177.9620  141.6430 C   0  0  0  0  0  3  0  0  0  0  0  0
  184.5070  177.9210  140.4460 C   0  0  0  0  0  3  0  0  0  0  0  0
  180.7970  179.0080  141.6200 S   0  0  0  0  0  0  0  0  0  0  0  0
  180.3820  179.4850  142.9830 O   0  0  0  0  0  0  0  0  0  0  0  0
  179.8750  177.6030  141.2150 N   0  0  0  0  0  1  0  0  0  0  0  0
  180.5370  180.0860  140.6070 O   0  0  0  0  0  0  0  0  0  0  0  0
  190.7480  175.8840  143.6410 C   0  0  0  0  0  2  0  0  0  0  0  0
  190.8720  174.0670  143.5470 S   0  0  0  0  0  0  0  0  0  0  0  0
  190.9620  174.1040  141.7270 C   0  0  0  0  0  2  0  0  0  0  0  0
  190.7990  172.1030  140.3890 O   0  0  0  0  0  1  0  0  0  0  0  0
  190.0530  173.0660  141.0750 C   0  0  2  0  0  3  0  0  0  0  0  0
  188.2190  172.7320  139.5360 O   0  0  0  0  0  1  0  0  0  0  0  0
  188.9920  173.7030  140.1780 C   0  0  1  0  0  3  0  0  0  0  0  0
  188.1180  174.6220  140.9650 C   0  0  0  0  0  0  0  0  0  0  0  0
  187.9100  175.8020  140.5710 O   0  0  0  0  0  0  0  0  0  0  0  0
  187.5040  174.1640  142.1220 O   0  0  0  0  0  1  0  0  0  0  0  0
  1 25  1  6  0  0  0
  1  6  1  0  0  0  0
  3 10  1  6  0  0  0
  3 11  1  0  0  0  0
  3  2  1  0  0  0  0
  5 14  1  6  0  0  0
  5  8  1  0  0  0  0
  6  4  1  0  0  0  0
  7  9  1  1  0  0  0
  7  1  1  0  0  0  0
  7  5  1  0  0  0  0
  8  4  2  0  0  0  0
  8 12  1  0  0  0  0
 11 12  1  1  0  0  0
 11  2  1  0  0  0  0
 13 18  1  6  0  0  0
 13 14  1  0  0  0  0
 13 10  1  0  0  0  0
 15 16  1  0  0  0  0
 16 18  2  0  0  0  0
 17 20  1  0  0  0  0
 17 15  2  0  0  0  0
 19 18  1  0  0  0  0
 20 19  2  0  0  0  0
 21 15  1  0  0  0  0
 21 22  2  0  0  0  0
 23 21  1  0  0  0  0
 24 21  2  0  0  0  0
 26 25  1  0  0  0  0
 27 26  1  0  0  0  0
 29 28  1  6  0  0  0
 29 27  1  0  0  0  0
 31 30  1  1  0  0  0
 31 32  1  0  0  0  0
 31 29  1  0  0  0  0
 32 34  1  0  0  0  0
 33 32  2  0  0  0  0
M  END
>  <MODEL>
3

>  <REMARK>
 VINA RESULT:      -7.7      2.658      3.670
  Name = 
  8 active torsions:
  status: ('A' for Active; 'I' for Inactive)
    1  A    between atoms: C_1  and  S_9
    2  A    between atoms: C_4  and  C_11
    3  A    between atoms: C_5  and  C_32
    4  A    between atoms: C_8  and  C_18
    5  A    between atoms: C_11  and  S_27
    6  A    between atoms: C_18  and  C_33
    7  A    between atoms: S_27  and  C_30
    8  A    between atoms: C_30  and  C_33
                            x       y       z     vdW  Elec       q    Type
                         _______ _______ _______ _____ _____    ______ ____

>  <TORSDO>
F 8

$$$$
=
 OpenBabel11072408283D

 34 37  0  0  1  0  0  0  0  0999 V2000
  192.1210  174.6440  142.7490 C   0  0  2  0  0  3  0  0  0  0  0  0
  191.7920  176.5570  148.7370 O   0  0  0  0  0  0  0  0  0  0  0  0
  191.3630  176.9920  147.4940 N   0  0  2  0  0  0  0  0  0  0  0  0
  192.8050  173.7740  144.9580 C   0  0  0  0  0  3  0  0  0  0  0  0
  191.1120  175.6310  144.8830 C   0  0  2  0  0  3  0  0  0  0  0  0
  192.4890  173.4000  143.5430 C   0  0  0  0  0  2  0  0  0  0  0  0
  190.9050  175.3170  143.3930 C   0  0  1  0  0  3  0  0  0  0  0  0
  192.1470  174.7470  145.6060 C   0  0  0  0  0  0  0  0  0  0  0  0
  190.5880  176.4950  142.7140 O   0  0  0  0  0  1  0  0  0  0  0  0
  189.9260  177.1800  147.4490 C   0  0  0  0  0  2  0  0  0  0  0  0
  191.4860  175.5960  147.8280 C   0  0  1  0  0  3  0  0  0  0  0  0
  192.6360  175.0830  146.9970 C   0  0  0  0  0  2  0  0  0  0  0  0
  189.4570  176.9320  146.0070 C   0  0  1  0  0  3  0  0  0  0  0  0
  189.8110  175.5820  145.5560 N   0  0  0  0  0  2  0  0  0  0  0  0
  186.0590  178.0870  144.7460 C   0  0  0  0  0  0  0  0  0  0  0  0
  187.4420  177.8990  144.8390 C   0  0  0  0  0  3  0  0  0  0  0  0
  185.2140  177.5240  145.7080 C   0  0  0  0  0  3  0  0  0  0  0  0
  187.9830  177.1450  145.8890 C   0  0  0  0  0  0  0  0  0  0  0  0
  187.1320  176.5810  146.8470 C   0  0  0  0  0  3  0  0  0  0  0  0
  185.7500  176.7700  146.7570 C   0  0  0  0  0  3  0  0  0  0  0  0
  185.3870  179.0400  143.4350 S   0  0  0  0  0  0  0  0  0  0  0  0
  185.2000  180.4610  143.8880 O   0  0  0  0  0  0  0  0  0  0  0  0
  183.8520  178.3940  142.9730 N   0  0  0  0  0  1  0  0  0  0  0  0
  186.3200  179.0040  142.2580 O   0  0  0  0  0  0  0  0  0  0  0  0
  191.8740  174.2980  141.2800 C   0  0  0  0  0  2  0  0  0  0  0  0
  190.8860  172.7780  141.0760 S   0  0  0  0  0  0  0  0  0  0  0  0
  190.1380  173.3960  139.5340 C   0  0  0  0  0  2  0  0  0  0  0  0
  188.0890  174.1120  138.4790 O   0  0  0  0  0  1  0  0  0  0  0  0
  188.6640  173.7560  139.7020 C   0  0  2  0  0  3  0  0  0  0  0  0
  187.8140  175.9580  140.2240 O   0  0  0  0  0  1  0  0  0  0  0  0
  188.4450  174.8340  140.7640 C   0  0  1  0  0  3  0  0  0  0  0  0
  187.6510  174.2950  141.9070 C   0  0  0  0  0  0  0  0  0  0  0  0
  187.1470  175.0740  142.7610 O   0  0  0  0  0  1  0  0  0  0  0  0
  187.4390  172.9270  142.0130 O   0  0  0  0  0  0  0  0  0  0  0  0
  1 25  1  6  0  0  0
  1  7  1  0  0  0  0
  1  6  1  0  0  0  0
  3 10  1  1  0  0  0
  3 11  1  0  0  0  0
  3  2  1  0  0  0  0
  4  8  2  0  0  0  0
  5 14  1  1  0  0  0
  5  8  1  0  0  0  0
  6  4  1  0  0  0  0
  7  9  1  6  0  0  0
  7  5  1  0  0  0  0
  8 12  1  0  0  0  0
 11 12  1  6  0  0  0
 11  2  1  0  0  0  0
 13 18  1  1  0  0  0
 13 10  1  0  0  0  0
 14 13  1  0  0  0  0
 15 16  2  0  0  0  0
 15 17  1  0  0  0  0
 16 18  1  0  0  0  0
 17 20  2  0  0  0  0
 18 19  2  0  0  0  0
 20 19  1  0  0  0  0
 21 22  2  0  0  0  0
 21 15  1  0  0  0  0
 23 21  1  0  0  0  0
 24 21  2  0  0  0  0
 26 25  1  0  0  0  0
 27 29  1  0  0  0  0
 27 26  1  0  0  0  0
 29 28  1  6  0  0  0
 29 31  1  0  0  0  0
 31 30  1  6  0  0  0
 31 32  1  0  0  0  0
 32 34  2  0  0  0  0
 32 33  1  0  0  0  0
M  END
>  <MODEL>
4

>  <REMARK>
 VINA RESULT:      -7.2      3.338      6.013
  Name = 
  8 active torsions:
  status: ('A' for Active; 'I' for Inactive)
    1  A    between atoms: C_1  and  S_9
    2  A    between atoms: C_4  and  C_11
    3  A    between atoms: C_5  and  C_32
    4  A    between atoms: C_8  and  C_18
    5  A    between atoms: C_11  and  S_27
    6  A    between atoms: C_18  and  C_33
    7  A    between atoms: S_27  and  C_30
    8  A    between atoms: C_30  and  C_33
                            x       y       z     vdW  Elec       q    Type
                         _______ _______ _______ _____ _____    ______ ____

>  <TORSDO>
F 8

$$$$
=
 OpenBabel11072408283D

 34 37  0  0  1  0  0  0  0  0999 V2000
  188.6350  177.5040  145.9000 C   0  0  2  0  0  3  0  0  0  0  0  0
  185.0350  178.4460  140.8230 O   0  0  0  0  0  0  0  0  0  0  0  0
  186.3540  178.1320  141.1030 N   0  0  2  0  0  0  0  0  0  0  0  0
  186.2490  177.9510  145.4410 C   0  0  0  0  0  3  0  0  0  0  0  0
  187.6930  177.1500  143.5470 C   0  0  2  0  0  3  0  0  0  0  0  0
  187.2170  177.4010  146.4410 C   0  0  0  0  0  2  0  0  0  0  0  0
  188.7370  176.7180  144.5900 C   0  0  1  0  0  3  0  0  0  0  0  0
  186.4160  177.7940  144.1200 C   0  0  0  0  0  0  0  0  0  0  0  0
  190.0150  176.8500  144.0450 O   0  0  0  0  0  1  0  0  0  0  0  0
  186.7660  176.8940  140.4710 C   0  0  0  0  0  2  0  0  0  0  0  0
  185.2610  177.7090  141.9390 C   0  0  1  0  0  3  0  0  0  0  0  0
  185.4120  178.4850  143.2250 C   0  0  0  0  0  2  0  0  0  0  0  0
  187.8580  176.2530  141.3420 C   0  0  1  0  0  3  0  0  0  0  0  0
  187.3720  175.9970  142.7020 N   0  0  0  0  0  2  0  0  0  0  0  0
  189.5290  172.8690  140.8710 C   0  0  0  0  0  0  0  0  0  0  0  0
  189.0790  174.0500  141.4690 C   0  0  0  0  0  3  0  0  0  0  0  0
  189.2540  172.6240  139.5210 C   0  0  0  0  0  3  0  0  0  0  0  0
  188.3480  174.9860  140.7220 C   0  0  0  0  0  0  0  0  0  0  0  0
  188.0730  174.7330  139.3740 C   0  0  0  0  0  3  0  0  0  0  0  0
  188.5250  173.5530  138.7740 C   0  0  0  0  0  3  0  0  0  0  0  0
  190.4510  171.7060  141.8050 S   0  0  0  0  0  0  0  0  0  0  0  0
  189.7410  171.4180  143.0980 O   0  0  0  0  0  0  0  0  0  0  0  0
  192.0150  172.3500  142.1580 N   0  0  0  0  0  1  0  0  0  0  0  0
  190.6000  170.4350  141.0180 O   0  0  0  0  0  0  0  0  0  0  0  0
  189.6490  177.0240  146.9380 C   0  0  0  0  0  2  0  0  0  0  0  0
  189.7800  175.2060  147.0000 S   0  0  0  0  0  0  0  0  0  0  0  0
  191.5690  175.2830  147.3350 C   0  0  0  0  0  2  0  0  0  0  0  0
  193.2360  174.0790  146.0730 O   0  0  0  0  0  1  0  0  0  0  0  0
  192.4070  175.2040  146.0620 C   0  0  2  0  0  3  0  0  0  0  0  0
  194.0670  176.7680  146.8640 O   0  0  0  0  0  1  0  0  0  0  0  0
  193.1990  176.4860  145.8050 C   0  0  1  0  0  3  0  0  0  0  0  0
  193.9600  176.3880  144.5250 C   0  0  0  0  0  0  0  0  0  0  0  0
  195.2160  176.4930  144.5170 O   0  0  0  0  0  1  0  0  0  0  0  0
  193.2810  176.1460  143.3380 O   0  0  0  0  0  0  0  0  0  0  0  0
  1  6  1  0  0  0  0
  1 25  1  1  0  0  0
  2  3  1  0  0  0  0
  2 11  1  0  0  0  0
  3 10  1  6  0  0  0
  3 11  1  0  0  0  0
  4  6  1  0  0  0  0
  5 14  1  1  0  0  0
  5  8  1  0  0  0  0
  5  7  1  0  0  0  0
  7  9  1  6  0  0  0
  7  1  1  0  0  0  0
  8  4  2  0  0  0  0
 10 13  1  0  0  0  0
 11 12  1  1  0  0  0
 12  8  1  0  0  0  0
 13 18  1  6  0  0  0
 13 14  1  0  0  0  0
 15 16  1  0  0  0  0
 15 21  1  0  0  0  0
 17 15  2  0  0  0  0
 18 16  2  0  0  0  0
 19 18  1  0  0  0  0
 20 19  2  0  0  0  0
 20 17  1  0  0  0  0
 21 23  1  0  0  0  0
 21 22  2  0  0  0  0
 24 21  2  0  0  0  0
 25 26  1  0  0  0  0
 26 27  1  0  0  0  0
 29 28  1  1  0  0  0
 29 27  1  0  0  0  0
 31 29  1  0  0  0  0
 31 30  1  1  0  0  0
 32 31  1  0  0  0  0
 33 32  1  0  0  0  0
 34 32  2  0  0  0  0
M  END
>  <MODEL>
5

>  <REMARK>
 VINA RESULT:      -7.2      3.488      6.231
  Name = 
  8 active torsions:
  status: ('A' for Active; 'I' for Inactive)
    1  A    between atoms: C_1  and  S_9
    2  A    between atoms: C_4  and  C_11
    3  A    between atoms: C_5  and  C_32
    4  A    between atoms: C_8  and  C_18
    5  A    between atoms: C_11  and  S_27
    6  A    between atoms: C_18  and  C_33
    7  A    between atoms: S_27  and  C_30
    8  A    between atoms: C_30  and  C_33
                            x       y       z     vdW  Elec       q    Type
                         _______ _______ _______ _____ _____    ______ ____

>  <TORSDO>
F 8

$$$$
=
 OpenBabel11072408283D

 34 37  0  0  1  0  0  0  0  0999 V2000
  191.0020  172.2460  142.6250 C   0  0  2  0  0  3  0  0  0  0  0  0
  193.0340  176.4420  146.8540 O   0  0  0  0  0  0  0  0  0  0  0  0
  192.1880  176.4150  145.7570 N   0  0  2  0  0  0  0  0  0  0  0  0
  192.4260  172.2240  144.6440 C   0  0  0  0  0  3  0  0  0  0  0  0
  190.9140  174.1980  144.2770 C   0  0  2  0  0  3  0  0  0  0  0  0
  191.5860  171.3830  143.7350 C   0  0  0  0  0  2  0  0  0  0  0  0
  190.1490  173.3580  143.2420 C   0  0  1  0  0  3  0  0  0  0  0  0
  192.1040  173.4890  144.9520 C   0  0  0  0  0  0  0  0  0  0  0  0
  189.6520  174.1970  142.2430 O   0  0  0  0  0  1  0  0  0  0  0  0
  190.8500  176.8620  146.0890 C   0  0  0  0  0  2  0  0  0  0  0  0
  192.3660  175.2820  146.6280 C   0  0  1  0  0  3  0  0  0  0  0  0
  193.0950  174.2500  145.8040 C   0  0  0  0  0  2  0  0  0  0  0  0
  189.8630  176.1550  145.1480 C   0  0  1  0  0  3  0  0  0  0  0  0
  189.9610  174.6960  145.2710 N   0  0  0  0  0  2  0  0  0  0  0  0
  186.4480  177.7850  144.7620 C   0  0  0  0  0  0  0  0  0  0  0  0
  187.7570  177.3750  144.4890 C   0  0  0  0  0  3  0  0  0  0  0  0
  185.8450  177.4250  145.9720 C   0  0  0  0  0  3  0  0  0  0  0  0
  188.4640  176.6020  145.4200 C   0  0  0  0  0  0  0  0  0  0  0  0
  187.8530  176.2420  146.6270 C   0  0  0  0  0  3  0  0  0  0  0  0
  186.5460  176.6530  146.9030 C   0  0  0  0  0  3  0  0  0  0  0  0
  185.5700  178.7610  143.5980 S   0  0  0  0  0  0  0  0  0  0  0  0
  184.1560  178.2650  143.4860 O   0  0  0  0  0  0  0  0  0  0  0  0
  186.3280  178.6430  142.0490 N   0  0  0  0  0  1  0  0  0  0  0  0
  185.5670  180.1950  144.0460 O   0  0  0  0  0  0  0  0  0  0  0  0
  190.2060  171.3930  141.6370 C   0  0  0  0  0  2  0  0  0  0  0  0
  191.2780  170.4710  140.4860 S   0  0  0  0  0  0  0  0  0  0  0  0
  191.5480  171.9480  139.4540 C   0  0  0  0  0  2  0  0  0  0  0  0
  190.8810  171.6520  137.1540 O   0  0  0  0  0  1  0  0  0  0  0  0
  190.4610  172.1300  138.3980 C   0  0  2  0  0  3  0  0  0  0  0  0
  190.1820  174.1080  137.0360 O   0  0  0  0  0  1  0  0  0  0  0  0
  189.9710  173.5760  138.3100 C   0  0  1  0  0  3  0  0  0  0  0  0
  188.5250  173.6650  138.6740 C   0  0  0  0  0  0  0  0  0  0  0  0
  187.8370  174.6620  138.3240 O   0  0  0  0  0  0  0  0  0  0  0  0
  187.9280  172.6270  139.3750 O   0  0  0  0  0  1  0  0  0  0  0  0
  1 25  1  6  0  0  0
  1  7  1  0  0  0  0
  1  6  1  0  0  0  0
  3 10  1  1  0  0  0
  3 11  1  0  0  0  0
  3  2  1  0  0  0  0
  4  8  2  0  0  0  0
  5  8  1  1  0  0  0
  5 14  1  0  0  0  0
  6  4  1  0  0  0  0
  7  9  1  6  0  0  0
  7  5  1  0  0  0  0
  8 12  1  0  0  0  0
 11 12  1  6  0  0  0
 11  2  1  0  0  0  0
 13 14  1  0  0  0  0
 13 18  1  1  0  0  0
 13 10  1  0  0  0  0
 15 17  1  0  0  0  0
 16 15  2  0  0  0  0
 16 18  1  0  0  0  0
 17 20  2  0  0  0  0
 18 19  2  0  0  0  0
 19 20  1  0  0  0  0
 21 24  2  0  0  0  0
 21 15  1  0  0  0  0
 22 21  2  0  0  0  0
 23 21  1  0  0  0  0
 26 25  1  0  0  0  0
 27 26  1  0  0  0  0
 29 28  1  6  0  0  0
 29 27  1  0  0  0  0
 31 30  1  6  0  0  0
 31 29  1  0  0  0  0
 31 32  1  0  0  0  0
 32 34  1  0  0  0  0
 33 32  2  0  0  0  0
M  END
>  <MODEL>
6

>  <REMARK>
 VINA RESULT:      -7.1      4.309      6.791
  Name = 
  8 active torsions:
  status: ('A' for Active; 'I' for Inactive)
    1  A    between atoms: C_1  and  S_9
    2  A    between atoms: C_4  and  C_11
    3  A    between atoms: C_5  and  C_32
    4  A    between atoms: C_8  and  C_18
    5  A    between atoms: C_11  and  S_27
    6  A    between atoms: C_18  and  C_33
    7  A    between atoms: S_27  and  C_30
    8  A    between atoms: C_30  and  C_33
                            x       y       z     vdW  Elec       q    Type
                         _______ _______ _______ _____ _____    ______ ____

>  <TORSDO>
F 8

$$$$
=
 OpenBabel11072408283D

 34 37  0  0  1  0  0  0  0  0999 V2000
  191.6900  173.9470  142.7920 C   0  0  2  0  0  3  0  0  0  0  0  0
  191.9050  176.6470  148.4740 O   0  0  0  0  0  0  0  0  0  0  0  0
  191.3930  176.9320  147.2190 N   0  0  2  0  0  0  0  0  0  0  0  0
  192.5180  173.3470  145.0410 C   0  0  0  0  0  3  0  0  0  0  0  0
  190.8890  175.2510  144.8420 C   0  0  2  0  0  3  0  0  0  0  0  0
  192.0780  172.8030  143.7180 C   0  0  0  0  0  2  0  0  0  0  0  0
  190.5530  174.7520  143.4270 C   0  0  1  0  0  3  0  0  0  0  0  0
  191.9470  174.4250  145.5980 C   0  0  0  0  0  0  0  0  0  0  0  0
  190.2240  175.8430  142.6200 O   0  0  0  0  0  1  0  0  0  0  0  0
  189.9640  177.1760  147.2560 C   0  0  0  0  0  2  0  0  0  0  0  0
  191.4940  175.5890  147.7280 C   0  0  1  0  0  3  0  0  0  0  0  0
  192.5570  174.9190  146.8910 C   0  0  0  0  0  2  0  0  0  0  0  0
  189.3740  176.7610  145.8990 C   0  0  1  0  0  3  0  0  0  0  0  0
  189.6450  175.3490  145.6090 N   0  0  0  0  0  2  0  0  0  0  0  0
  185.9460  177.9970  144.8090 C   0  0  0  0  0  0  0  0  0  0  0  0
  187.3250  177.7640  144.8240 C   0  0  0  0  0  3  0  0  0  0  0  0
  185.1430  177.4930  145.8370 C   0  0  0  0  0  3  0  0  0  0  0  0
  187.9030  177.0220  145.8640 C   0  0  0  0  0  0  0  0  0  0  0  0
  187.0940  176.5160  146.8870 C   0  0  0  0  0  3  0  0  0  0  0  0
  185.7160  176.7510  146.8740 C   0  0  0  0  0  3  0  0  0  0  0  0
  185.2270  178.9350  143.5120 S   0  0  0  0  0  0  0  0  0  0  0  0
  183.8170  178.4710  143.2730 O   0  0  0  0  0  0  0  0  0  0  0  0
  186.1400  178.7180  142.0600 N   0  0  0  0  0  1  0  0  0  0  0  0
  185.2220  180.3900  143.8870 O   0  0  0  0  0  0  0  0  0  0  0  0
  191.3160  173.4200  141.4060 C   0  0  0  0  0  2  0  0  0  0  0  0
  192.7550  173.2940  140.2930 S   0  0  0  0  0  0  0  0  0  0  0  0
  193.4170  174.8920  140.8660 C   0  0  0  0  0  2  0  0  0  0  0  0
  195.1700  173.4390  141.6660 O   0  0  0  0  0  1  0  0  0  0  0  0
  194.8360  174.7730  141.4160 C   0  0  2  0  0  3  0  0  0  0  0  0
  195.2940  174.8750  143.7880 O   0  0  0  0  0  1  0  0  0  0  0  0
  195.0570  175.6500  142.6490 C   0  0  1  0  0  3  0  0  0  0  0  0
  196.1870  176.5990  142.4250 C   0  0  0  0  0  0  0  0  0  0  0  0
  196.3980  177.0860  141.2820 O   0  0  0  0  0  0  0  0  0  0  0  0
  196.9930  176.9730  143.4930 O   0  0  0  0  0  1  0  0  0  0  0  0
  1 25  1  6  0  0  0
  1  7  1  0  0  0  0
  1  6  1  0  0  0  0
  3 10  1  1  0  0  0
  3 11  1  0  0  0  0
  3  2  1  0  0  0  0
  4  8  2  0  0  0  0
  5  8  1  1  0  0  0
  5 14  1  0  0  0  0
  6  4  1  0  0  0  0
  7  9  1  6  0  0  0
  7  5  1  0  0  0  0
  8 12  1  0  0  0  0
 11 12  1  6  0  0  0
 11  2  1  0  0  0  0
 13 18  1  1  0  0  0
 13 10  1  0  0  0  0
 14 13  1  0  0  0  0
 15 16  2  0  0  0  0
 15 17  1  0  0  0  0
 16 18  1  0  0  0  0
 17 20  2  0  0  0  0
 18 19  2  0  0  0  0
 20 19  1  0  0  0  0
 21 24  2  0  0  0  0
 21 15  1  0  0  0  0
 22 21  2  0  0  0  0
 23 21  1  0  0  0  0
 26 27  1  0  0  0  0
 26 25  1  0  0  0  0
 27 29  1  0  0  0  0
 29 28  1  1  0  0  0
 29 31  1  0  0  0  0
 31 30  1  1  0  0  0
 32 31  1  0  0  0  0
 32 34  1  0  0  0  0
 33 32  2  0  0  0  0
M  END
>  <MODEL>
7

>  <REMARK>
 VINA RESULT:      -7.0      3.108      5.030
  Name = 
  8 active torsions:
  status: ('A' for Active; 'I' for Inactive)
    1  A    between atoms: C_1  and  S_9
    2  A    between atoms: C_4  and  C_11
    3  A    between atoms: C_5  and  C_32
    4  A    between atoms: C_8  and  C_18
    5  A    between atoms: C_11  and  S_27
    6  A    between atoms: C_18  and  C_33
    7  A    between atoms: S_27  and  C_30
    8  A    between atoms: C_30  and  C_33
                            x       y       z     vdW  Elec       q    Type
                         _______ _______ _______ _____ _____    ______ ____

>  <TORSDO>
F 8

$$$$
=
 OpenBabel11072408283D

 34 37  0  0  1  0  0  0  0  0999 V2000
  193.3730  174.8450  142.6400 C   0  0  2  0  0  3  0  0  0  0  0  0
  191.3390  176.1830  148.4450 O   0  0  0  0  0  0  0  0  0  0  0  0
  191.3690  176.7910  147.2000 N   0  0  2  0  0  0  0  0  0  0  0  0
  193.2370  173.6790  144.8140 C   0  0  0  0  0  3  0  0  0  0  0  0
  191.8350  175.7390  144.4790 C   0  0  2  0  0  3  0  0  0  0  0  0
  193.3530  173.4910  143.3340 C   0  0  0  0  0  2  0  0  0  0  0  0
  192.0840  175.6030  142.9680 C   0  0  1  0  0  3  0  0  0  0  0  0
  192.5000  174.6600  145.3560 C   0  0  0  0  0  0  0  0  0  0  0  0
  192.1100  176.8740  142.3900 O   0  0  0  0  0  1  0  0  0  0  0  0
  190.0450  177.1680  146.7460 C   0  0  0  0  0  2  0  0  0  0  0  0
  191.2500  175.3650  147.3650 C   0  0  1  0  0  3  0  0  0  0  0  0
  192.5510  174.7900  146.8620 C   0  0  0  0  0  2  0  0  0  0  0  0
  190.0380  177.1270  145.2100 C   0  0  1  0  0  3  0  0  0  0  0  0
  190.3900  175.7930  144.7110 N   0  0  0  0  0  2  0  0  0  0  0  0
  186.3580  178.0710  145.0160 C   0  0  0  0  0  0  0  0  0  0  0  0
  187.5990  177.6830  145.5310 C   0  0  0  0  0  3  0  0  0  0  0  0
  186.2190  178.3140  143.6450 C   0  0  0  0  0  3  0  0  0  0  0  0
  188.7040  177.5410  144.6800 C   0  0  0  0  0  0  0  0  0  0  0  0
  188.5590  177.7880  143.3100 C   0  0  0  0  0  3  0  0  0  0  0  0
  187.3190  178.1740  142.7930 C   0  0  0  0  0  3  0  0  0  0  0  0
  184.9760  178.2380  146.0830 S   0  0  0  0  0  0  0  0  0  0  0  0
  184.5010  176.8780  146.5130 O   0  0  0  0  0  0  0  0  0  0  0  0
  183.6910  179.0410  145.2510 N   0  0  0  0  0  1  0  0  0  0  0  0
  185.3680  179.0410  147.2910 O   0  0  0  0  0  0  0  0  0  0  0  0
  193.5750  174.6800  141.1330 C   0  0  0  0  0  2  0  0  0  0  0  0
  193.3230  172.9610  140.5770 S   0  0  0  0  0  0  0  0  0  0  0  0
  191.7650  173.3950  139.7370 C   0  0  0  0  0  2  0  0  0  0  0  0
  190.4110  171.7680  140.8960 O   0  0  0  0  0  1  0  0  0  0  0  0
  190.5380  173.1300  140.6050 C   0  0  2  0  0  3  0  0  0  0  0  0
  188.4030  172.6780  139.5660 O   0  0  0  0  0  1  0  0  0  0  0  0
  189.2580  173.6980  139.9930 C   0  0  1  0  0  3  0  0  0  0  0  0
  188.5570  174.5860  140.9670 C   0  0  0  0  0  0  0  0  0  0  0  0
  188.6560  174.3810  142.2070 O   0  0  0  0  0  1  0  0  0  0  0  0
  187.8160  175.6650  140.5040 O   0  0  0  0  0  0  0  0  0  0  0  0
  1 25  1  6  0  0  0
  1  7  1  0  0  0  0
  1  6  1  0  0  0  0
  3 10  1  1  0  0  0
  3 11  1  0  0  0  0
  3  2  1  0  0  0  0
  4  8  2  0  0  0  0
  5 14  1  6  0  0  0
  5  8  1  0  0  0  0
  6  4  1  0  0  0  0
  7  9  1  1  0  0  0
  7  5  1  0  0  0  0
  8 12  1  0  0  0  0
 11 12  1  6  0  0  0
 11  2  1  0  0  0  0
 13 18  1  1  0  0  0
 13 10  1  0  0  0  0
 14 13  1  0  0  0  0
 15 16  1  0  0  0  0
 15 21  1  0  0  0  0
 17 15  2  0  0  0  0
 18 16  2  0  0  0  0
 19 18  1  0  0  0  0
 20 19  2  0  0  0  0
 20 17  1  0  0  0  0
 21 22  2  0  0  0  0
 21 24  2  0  0  0  0
 23 21  1  0  0  0  0
 26 25  1  0  0  0  0
 27 26  1  0  0  0  0
 27 29  1  0  0  0  0
 29 28  1  6  0  0  0
 31 30  1  1  0  0  0
 31 29  1  0  0  0  0
 31 32  1  0  0  0  0
 32 33  1  0  0  0  0
 34 32  2  0  0  0  0
M  END
>  <MODEL>
8

>  <REMARK>
 VINA RESULT:      -7.0      3.341      5.951
  Name = 
  8 active torsions:
  status: ('A' for Active; 'I' for Inactive)
    1  A    between atoms: C_1  and  S_9
    2  A    between atoms: C_4  and  C_11
    3  A    between atoms: C_5  and  C_32
    4  A    between atoms: C_8  and  C_18
    5  A    between atoms: C_11  and  S_27
    6  A    between atoms: C_18  and  C_33
    7  A    between atoms: S_27  and  C_30
    8  A    between atoms: C_30  and  C_33
                            x       y       z     vdW  Elec       q    Type
                         _______ _______ _______ _____ _____    ______ ____

>  <TORSDO>
F 8

$$$$
=
 OpenBabel11072408283D

 34 37  0  0  1  0  0  0  0  0999 V2000
  192.9690  173.8360  142.6760 C   0  0  2  0  0  3  0  0  0  0  0  0
  191.4580  176.3000  148.2680 O   0  0  0  0  0  0  0  0  0  0  0  0
  191.4850  176.6990  146.9420 N   0  0  2  0  0  0  0  0  0  0  0  0
  192.8260  173.0470  145.0120 C   0  0  0  0  0  3  0  0  0  0  0  0
  191.6600  175.1900  144.4080 C   0  0  2  0  0  3  0  0  0  0  0  0
  192.8310  172.6190  143.5780 C   0  0  0  0  0  2  0  0  0  0  0  0
  191.8000  174.7920  142.9300 C   0  0  1  0  0  3  0  0  0  0  0  0
  192.2440  174.1850  145.4190 C   0  0  0  0  0  0  0  0  0  0  0  0
  191.9400  175.9450  142.1540 O   0  0  0  0  0  1  0  0  0  0  0  0
  190.1890  177.1650  146.4880 C   0  0  0  0  0  2  0  0  0  0  0  0
  191.2090  175.3430  147.3380 C   0  0  1  0  0  3  0  0  0  0  0  0
  192.4010  174.5380  146.8810 C   0  0  0  0  0  2  0  0  0  0  0  0
  190.0850  176.8890  144.9790 C   0  0  1  0  0  3  0  0  0  0  0  0
  190.2470  175.4600  144.6870 N   0  0  0  0  0  2  0  0  0  0  0  0
  186.4850  178.1000  144.7790 C   0  0  0  0  0  0  0  0  0  0  0  0
  187.6990  177.6400  145.2990 C   0  0  0  0  0  3  0  0  0  0  0  0
  186.3470  178.2940  143.4010 C   0  0  0  0  0  3  0  0  0  0  0  0
  188.7790  177.3800  144.4440 C   0  0  0  0  0  0  0  0  0  0  0  0
  188.6370  177.5800  143.0670 C   0  0  0  0  0  3  0  0  0  0  0  0
  187.4230  178.0370  142.5450 C   0  0  0  0  0  3  0  0  0  0  0  0
  185.1320  178.4150  145.8500 S   0  0  0  0  0  0  0  0  0  0  0  0
  184.6990  177.1350  146.5090 O   0  0  0  0  0  0  0  0  0  0  0  0
  183.8060  179.0530  144.9430 N   0  0  0  0  0  1  0  0  0  0  0  0
  185.5440  179.4080  146.9000 O   0  0  0  0  0  0  0  0  0  0  0  0
  193.0580  173.4170  141.2080 C   0  0  0  0  0  2  0  0  0  0  0  0
  194.5520  174.0630  140.3850 S   0  0  0  0  0  0  0  0  0  0  0  0
  195.3710  174.3780  141.9820 C   0  0  0  0  0  2  0  0  0  0  0  0
  196.6330  176.1960  141.0190 O   0  0  0  0  0  1  0  0  0  0  0  0
  195.8540  175.8200  142.1170 C   0  0  2  0  0  3  0  0  0  0  0  0
  197.1880  177.3280  143.4550 O   0  0  0  0  0  1  0  0  0  0  0  0
  196.5830  176.0680  143.4380 C   0  0  1  0  0  3  0  0  0  0  0  0
  195.6460  175.9300  144.5920 C   0  0  0  0  0  0  0  0  0  0  0  0
  194.6870  176.7340  144.7390 O   0  0  0  0  0  0  0  0  0  0  0  0
  195.8130  174.8860  145.4920 O   0  0  0  0  0  1  0  0  0  0  0  0
  1 25  1  6  0  0  0
  1  7  1  0  0  0  0
  1  6  1  0  0  0  0
  3 10  1  1  0  0  0
  3 11  1  0  0  0  0
  3  2  1  0  0  0  0
  4  8  2  0  0  0  0
  5 14  1  1  0  0  0
  5  8  1  0  0  0  0
  6  4  1  0  0  0  0
  7  9  1  6  0  0  0
  7  5  1  0  0  0  0
  8 12  1  0  0  0  0
 11 12  1  6  0  0  0
 11  2  1  0  0  0  0
 13 18  1  1  0  0  0
 13 10  1  0  0  0  0
 14 13  1  0  0  0  0
 15 16  1  0  0  0  0
 15 21  1  0  0  0  0
 17 15  2  0  0  0  0
 18 16  2  0  0  0  0
 19 18  1  0  0  0  0
 20 19  2  0  0  0  0
 20 17  1  0  0  0  0
 21 22  2  0  0  0  0
 21 24  2  0  0  0  0
 23 21  1  0  0  0  0
 26 25  1  0  0  0  0
 26 27  1  0  0  0  0
 27 29  1  0  0  0  0
 29 28  1  6  0  0  0
 29 31  1  0  0  0  0
 31 30  1  6  0  0  0
 31 32  1  0  0  0  0
 32 33  2  0  0  0  0
 32 34  1  0  0  0  0
M  END
>  <MODEL>
9

>  <REMARK>
 VINA RESULT:      -7.0      3.220      5.046
  Name = 
  8 active torsions:
  status: ('A' for Active; 'I' for Inactive)
    1  A    between atoms: C_1  and  S_9
    2  A    between atoms: C_4  and  C_11
    3  A    between atoms: C_5  and  C_32
    4  A    between atoms: C_8  and  C_18
    5  A    between atoms: C_11  and  S_27
    6  A    between atoms: C_18  and  C_33
    7  A    between atoms: S_27  and  C_30
    8  A    between atoms: C_30  and  C_33
                            x       y       z     vdW  Elec       q    Type
                         _______ _______ _______ _____ _____    ______ ____

>  <TORSDO>
F 8

$$$$
