=
 OpenBabel11062420333D

 32 35  0  0  1  0  0  0  0  0999 V2000
  189.8400  173.2640  141.2390 C   0  0  0  0  0  2  0  0  0  0  0  0
  192.1160  173.9820  141.0250 F   0  0  0  0  0  0  0  0  0  0  0  0
  189.3090  174.5590  141.0680 O   0  0  0  0  0  0  0  0  0  0  0  0
  185.3430  178.6700  143.1730 N   0  0  0  0  0  2  0  0  0  0  0  0
  185.6670  179.5440  145.4030 C   0  0  0  0  0  2  0  0  0  0  0  0
  190.7280  176.2530  144.0920 C   0  0  2  0  0  3  0  0  0  0  0  0
  191.3750  176.3750  142.7180 C   0  0  0  0  0  2  0  0  0  0  0  0
  189.1210  175.0740  142.3630 C   0  0  1  0  0  3  0  0  0  0  0  0
  190.0280  176.4840  146.9270 C   0  0  0  0  0  2  0  0  0  0  0  0
  184.6510  179.0430  144.3940 C   0  0  0  0  0  2  0  0  0  0  0  0
  187.5530  176.4220  143.7380 C   0  0  0  0  0  2  0  0  0  0  0  0
  188.5980  176.1160  146.5620 C   0  0  0  0  0  2  0  0  0  0  0  0
  185.6850  178.6580  146.6420 C   0  0  1  0  0  3  0  0  0  0  0  0
  187.1960  176.3140  141.3040 C   0  0  0  0  0  2  0  0  0  0  0  0
  186.8390  177.7200  140.8610 C   0  0  0  0  0  2  0  0  0  0  0  0
  190.9770  175.3990  146.4290 C   0  0  0  0  0  2  0  0  0  0  0  0
  187.8250  177.3460  146.0810 C   0  0  2  0  0  3  0  0  0  0  0  0
  191.2300  173.9740  143.1470 O   0  0  0  0  0  0  0  0  0  0  0  0
  191.7180  175.8320  145.1660 C   0  0  0  0  0  2  0  0  0  0  0  0
  183.3960  178.2750  141.9470 O   0  0  0  0  0  0  0  0  0  0  0  0
  185.3930  177.8730  140.8300 N   0  0  0  0  0  2  0  0  0  0  0  0
  184.6550  178.2680  141.9870 C   0  0  0  0  0  0  0  0  0  0  0  0
  190.4980  175.1790  143.0460 C   0  0  2  0  0  0  0  0  0  0  0  0
  191.6990  172.0340  142.0520 F   0  0  0  0  0  0  0  0  0  0  0  0
  186.3150  177.2770  146.3970 C   0  0  1  0  0  3  0  0  0  0  0  0
  188.2630  176.3520  142.3900 C   0  0  2  0  0  3  0  0  0  0  0  0
  191.2450  173.3280  141.8800 C   0  0  0  0  0  0  0  0  0  0  0  0
  188.0690  177.5820  144.5860 C   0  0  0  0  0  2  0  0  0  0  0  0
  186.0550  176.4520  147.4950 O   0  0  0  0  0  1  0  0  0  0  0  0
  186.0260  180.5870  148.0060 O   0  0  0  0  0  0  0  0  0  0  0  0
  187.1710  178.7150  148.6650 O   0  0  0  0  0  1  0  0  0  0  0  0
  186.3060  179.3770  147.8020 C   0  0  0  0  0  0  0  0  0  0  0  0
  1 27  1  0  0  0  0
  2 27  1  0  0  0  0
  3  1  1  0  0  0  0
  4 10  1  0  0  0  0
  5 13  1  0  0  0  0
  6  7  1  6  0  0  0
  6 19  1  0  0  0  0
  8  3  1  6  0  0  0
  8 26  1  0  0  0  0
  8 23  1  0  0  0  0
 10  5  1  0  0  0  0
 11 28  1  0  0  0  0
 12  9  1  0  0  0  0
 13 32  1  1  0  0  0
 15 14  1  0  0  0  0
 16  9  1  0  0  0  0
 17 28  1  6  0  0  0
 17 25  1  0  0  0  0
 17 12  1  0  0  0  0
 19 16  1  0  0  0  0
 20 22  2  0  0  0  0
 21 15  1  0  0  0  0
 21 22  1  0  0  0  0
 22  4  1  0  0  0  0
 23  7  1  6  0  0  0
 23 18  1  0  0  0  0
 23  6  1  0  0  0  0
 25 13  1  0  0  0  0
 25 29  1  1  0  0  0
 26 14  1  6  0  0  0
 26 11  1  0  0  0  0
 27 24  1  0  0  0  0
 27 18  1  0  0  0  0
 32 30  2  0  0  0  0
 32 31  1  0  0  0  0
M  END
>  <MODEL>
1

>  <REMARK>
 VINA RESULT:      -9.1      0.000      0.000
  Name = 
  1 active torsions:
  status: ('A' for Active; 'I' for Inactive)
    1  A    between atoms: C_14  and  C_26
                            x       y       z     vdW  Elec       q    Type
                         _______ _______ _______ _____ _____    ______ ____

>  <TORSDO>
F 1

$$$$
=
 OpenBabel11062420333D

 32 35  0  0  1  0  0  0  0  0999 V2000
  187.0400  177.5560  145.4710 C   0  0  0  0  0  2  0  0  0  0  0  0
  186.6210  176.5070  147.5840 F   0  0  0  0  0  0  0  0  0  0  0  0
  187.2740  176.3400  144.7980 O   0  0  0  0  0  0  0  0  0  0  0  0
  190.9360  173.3590  140.9550 N   0  0  0  0  0  2  0  0  0  0  0  0
  193.2220  172.9520  141.6270 C   0  0  0  0  0  2  0  0  0  0  0  0
  190.3300  175.1630  146.6170 C   0  0  2  0  0  3  0  0  0  0  0  0
  188.9350  174.6600  146.9680 C   0  0  0  0  0  2  0  0  0  0  0  0
  188.6670  176.1480  144.8200 C   0  0  1  0  0  3  0  0  0  0  0  0
  193.2140  175.6480  146.4670 C   0  0  0  0  0  2  0  0  0  0  0  0
  192.3100  173.3560  140.4840 C   0  0  0  0  0  2  0  0  0  0  0  0
  190.5680  175.3540  143.4320 C   0  0  0  0  0  2  0  0  0  0  0  0
  193.0200  176.1200  145.0340 C   0  0  0  0  0  2  0  0  0  0  0  0
  194.1940  174.0750  141.9690 C   0  0  1  0  0  3  0  0  0  0  0  0
  188.2750  174.9810  142.6170 C   0  0  0  0  0  2  0  0  0  0  0  0
  188.2460  173.5740  142.0510 C   0  0  0  0  0  2  0  0  0  0  0  0
  192.3200  176.4610  147.3970 C   0  0  0  0  0  2  0  0  0  0  0  0
  192.9830  174.9320  144.0700 C   0  0  2  0  0  3  0  0  0  0  0  0
  188.7980  177.0940  147.1340 O   0  0  0  0  0  0  0  0  0  0  0  0
  191.0890  175.6680  147.8330 C   0  0  0  0  0  2  0  0  0  0  0  0
  189.9990  173.7390  138.8510 O   0  0  0  0  0  0  0  0  0  0  0  0
  188.4970  173.6150  140.6190 N   0  0  0  0  0  2  0  0  0  0  0  0
  189.8220  173.5840  140.0880 C   0  0  0  0  0  0  0  0  0  0  0  0
  189.1120  176.0070  146.2880 C   0  0  2  0  0  0  0  0  0  0  0  0
  187.2110  178.6690  147.5590 F   0  0  0  0  0  0  0  0  0  0  0  0
  193.5240  175.2720  142.6650 C   0  0  1  0  0  3  0  0  0  0  0  0
  189.1420  175.0340  143.8680 C   0  0  2  0  0  3  0  0  0  0  0  0
  187.4310  177.4430  146.9620 C   0  0  0  0  0  0  0  0  0  0  0  0
  191.5680  174.3470  143.9940 C   0  0  0  0  0  2  0  0  0  0  0  0
  194.4220  176.3420  142.7030 O   0  0  0  0  0  1  0  0  0  0  0  0
  195.2240  172.5440  143.4830 O   0  0  0  0  0  1  0  0  0  0  0  0
  196.6200  174.1380  142.6120 O   0  0  0  0  0  0  0  0  0  0  0  0
  195.3680  173.5460  142.7360 C   0  0  0  0  0  0  0  0  0  0  0  0
  1 27  1  0  0  0  0
  3  1  1  0  0  0  0
  5 13  1  0  0  0  0
  6  7  1  1  0  0  0
  6 19  1  0  0  0  0
  8  3  1  1  0  0  0
  8 23  1  0  0  0  0
  9 16  1  0  0  0  0
 10  4  1  0  0  0  0
 10  5  1  0  0  0  0
 11 26  1  0  0  0  0
 11 28  1  0  0  0  0
 12  9  1  0  0  0  0
 13 25  1  0  0  0  0
 13 32  1  1  0  0  0
 15 14  1  0  0  0  0
 16 19  1  0  0  0  0
 17 28  1  6  0  0  0
 17 12  1  0  0  0  0
 20 22  2  0  0  0  0
 21 15  1  0  0  0  0
 22 21  1  0  0  0  0
 22  4  1  0  0  0  0
 23  6  1  0  0  0  0
 23  7  1  1  0  0  0
 23 18  1  0  0  0  0
 25 29  1  1  0  0  0
 25 17  1  0  0  0  0
 26 14  1  6  0  0  0
 26  8  1  0  0  0  0
 27 18  1  0  0  0  0
 27 24  1  0  0  0  0
 27  2  1  0  0  0  0
 31 32  2  0  0  0  0
 32 30  1  0  0  0  0
M  END
>  <MODEL>
2

>  <REMARK>
 VINA RESULT:      -8.8      3.551      7.296
  Name = 
  1 active torsions:
  status: ('A' for Active; 'I' for Inactive)
    1  A    between atoms: C_14  and  C_26
                            x       y       z     vdW  Elec       q    Type
                         _______ _______ _______ _____ _____    ______ ____

>  <TORSDO>
F 1

$$$$
=
 OpenBabel11062420333D

 32 35  0  0  1  0  0  0  0  0999 V2000
  186.2050  178.7310  142.5010 C   0  0  0  0  0  2  0  0  0  0  0  0
  184.6370  178.2450  144.2460 F   0  0  0  0  0  0  0  0  0  0  0  0
  186.5170  177.3770  142.2640 O   0  0  0  0  0  0  0  0  0  0  0  0
  190.9900  173.3340  141.4180 N   0  0  0  0  0  2  0  0  0  0  0  0
  192.5500  172.9500  143.2240 C   0  0  0  0  0  2  0  0  0  0  0  0
  188.0450  176.4700  145.5620 C   0  0  2  0  0  3  0  0  0  0  0  0
  186.5910  176.1570  145.2310 C   0  0  0  0  0  2  0  0  0  0  0  0
  187.6660  177.1050  143.0290 C   0  0  1  0  0  3  0  0  0  0  0  0
  190.6740  176.7160  146.8290 C   0  0  0  0  0  2  0  0  0  0  0  0
  192.3940  173.1300  141.7250 C   0  0  0  0  0  2  0  0  0  0  0  0
  189.8260  175.8820  142.9710 C   0  0  0  0  0  2  0  0  0  0  0  0
  191.2850  176.8450  145.4420 C   0  0  0  0  0  2  0  0  0  0  0  0
  193.4150  174.0560  143.8160 C   0  0  1  0  0  3  0  0  0  0  0  0
  188.1910  175.4760  141.1760 C   0  0  0  0  0  2  0  0  0  0  0  0
  188.1920  173.9790  140.9270 C   0  0  0  0  0  2  0  0  0  0  0  0
  189.6010  177.7830  147.0140 C   0  0  0  0  0  2  0  0  0  0  0  0
  191.5110  175.4660  144.8170 C   0  0  2  0  0  3  0  0  0  0  0  0
  186.8230  178.5650  144.8810 O   0  0  0  0  0  0  0  0  0  0  0  0
  188.1950  177.2000  146.8880 C   0  0  0  0  0  2  0  0  0  0  0  0
  191.2740  173.2630  139.1030 O   0  0  0  0  0  0  0  0  0  0  0  0
  189.1090  173.6620  139.8430 N   0  0  0  0  0  2  0  0  0  0  0  0
  190.4960  173.4190  140.0800 C   0  0  0  0  0  0  0  0  0  0  0  0
  187.3100  177.2890  144.5170 C   0  0  2  0  0  0  0  0  0  0  0  0
  185.5370  180.2960  144.1550 F   0  0  0  0  0  0  0  0  0  0  0  0
  192.7150  175.4260  143.8520 C   0  0  1  0  0  3  0  0  0  0  0  0
  188.3370  175.7680  142.6630 C   0  0  2  0  0  3  0  0  0  0  0  0
  185.7970  178.9510  143.9760 C   0  0  0  0  0  0  0  0  0  0  0  0
  190.2320  174.9740  144.1290 C   0  0  0  0  0  2  0  0  0  0  0  0
  193.6560  176.4140  144.1600 O   0  0  0  0  0  1  0  0  0  0  0  0
  193.4410  172.6770  145.7630 O   0  0  0  0  0  1  0  0  0  0  0  0
  195.0350  174.3230  145.7160 O   0  0  0  0  0  0  0  0  0  0  0  0
  193.9560  173.6500  145.1530 C   0  0  0  0  0  0  0  0  0  0  0  0
  1 27  1  0  0  0  0
  3  1  1  0  0  0  0
  4 10  1  0  0  0  0
  5 13  1  0  0  0  0
  6  7  1  1  0  0  0
  6 19  1  0  0  0  0
  8  3  1  6  0  0  0
  8 23  1  0  0  0  0
  9 16  1  0  0  0  0
 10  5  1  0  0  0  0
 11 28  1  0  0  0  0
 12  9  1  0  0  0  0
 13 25  1  0  0  0  0
 13 32  1  1  0  0  0
 15 14  1  0  0  0  0
 17 28  1  6  0  0  0
 17 12  1  0  0  0  0
 19 16  1  0  0  0  0
 20 22  2  0  0  0  0
 21 22  1  0  0  0  0
 21 15  1  0  0  0  0
 22  4  1  0  0  0  0
 23 18  1  0  0  0  0
 23  7  1  1  0  0  0
 23  6  1  0  0  0  0
 25 29  1  1  0  0  0
 25 17  1  0  0  0  0
 26 14  1  6  0  0  0
 26 11  1  0  0  0  0
 26  8  1  0  0  0  0
 27 24  1  0  0  0  0
 27  2  1  0  0  0  0
 27 18  1  0  0  0  0
 32 31  2  0  0  0  0
 32 30  1  0  0  0  0
M  END
>  <MODEL>
3

>  <REMARK>
 VINA RESULT:      -8.8      3.497      6.817
  Name = 
  1 active torsions:
  status: ('A' for Active; 'I' for Inactive)
    1  A    between atoms: C_14  and  C_26
                            x       y       z     vdW  Elec       q    Type
                         _______ _______ _______ _____ _____    ______ ____

>  <TORSDO>
F 1

$$$$
=
 OpenBabel11062420333D

 32 35  0  0  1  0  0  0  0  0999 V2000
  188.1420  172.5750  139.0700 C   0  0  0  0  0  2  0  0  0  0  0  0
  190.1830  172.4590  137.8210 F   0  0  0  0  0  0  0  0  0  0  0  0
  188.3550  173.9040  139.4900 O   0  0  0  0  0  0  0  0  0  0  0  0
  188.2650  177.7470  144.2110 N   0  0  0  0  0  2  0  0  0  0  0  0
  189.7980  177.3600  146.0390 C   0  0  0  0  0  2  0  0  0  0  0  0
  191.4510  173.4520  141.5490 C   0  0  2  0  0  3  0  0  0  0  0  0
  191.5030  173.9370  140.1060 C   0  0  0  0  0  2  0  0  0  0  0  0
  188.9610  173.8170  140.7560 C   0  0  1  0  0  3  0  0  0  0  0  0
  192.0840  172.6270  144.2870 C   0  0  0  0  0  2  0  0  0  0  0  0
  188.3830  177.7540  145.6580 C   0  0  0  0  0  2  0  0  0  0  0  0
  188.9790  174.8670  143.0070 C   0  0  0  0  0  2  0  0  0  0  0  0
  190.6610  172.9890  144.6820 C   0  0  0  0  0  2  0  0  0  0  0  0
  189.8020  176.0720  146.8530 C   0  0  1  0  0  3  0  0  0  0  0  0
  187.7500  175.9870  141.1920 C   0  0  0  0  0  2  0  0  0  0  0  0
  188.0550  177.4680  141.3180 C   0  0  0  0  0  2  0  0  0  0  0  0
  192.0550  171.6210  143.1410 C   0  0  0  0  0  2  0  0  0  0  0  0
  190.5400  174.4880  144.9660 C   0  0  2  0  0  3  0  0  0  0  0  0
  190.2840  171.8200  140.0270 O   0  0  0  0  0  0  0  0  0  0  0  0
  192.3840  172.2790  141.8030 C   0  0  0  0  0  2  0  0  0  0  0  0
  186.1140  178.6540  144.1770 O   0  0  0  0  0  0  0  0  0  0  0  0
  187.0180  178.1170  142.1050 N   0  0  0  0  0  2  0  0  0  0  0  0
  187.0880  178.1870  143.5290 C   0  0  0  0  0  0  0  0  0  0  0  0
  190.3230  173.1150  140.5930 C   0  0  2  0  0  0  0  0  0  0  0  0
  189.2160  170.5450  138.4730 F   0  0  0  0  0  0  0  0  0  0  0  0
  189.4650  174.8230  146.0220 C   0  0  1  0  0  3  0  0  0  0  0  0
  188.9880  175.1600  141.5100 C   0  0  2  0  0  3  0  0  0  0  0  0
  189.4880  171.8470  138.8500 C   0  0  0  0  0  0  0  0  0  0  0  0
  190.2990  175.2620  143.6650 C   0  0  0  0  0  2  0  0  0  0  0  0
  189.2360  173.7460  146.8850 O   0  0  0  0  0  1  0  0  0  0  0  0
  191.1350  175.1580  148.6080 O   0  0  0  0  0  1  0  0  0  0  0  0
  192.2230  176.6230  147.2230 O   0  0  0  0  0  0  0  0  0  0  0  0
  191.0850  175.9290  147.6150 C   0  0  0  0  0  0  0  0  0  0  0  0
  1  3  1  0  0  0  0
  2 27  1  0  0  0  0
  4 10  1  0  0  0  0
  5 13  1  0  0  0  0
  6  7  1  6  0  0  0
  6 19  1  0  0  0  0
  8  3  1  6  0  0  0
  8 26  1  0  0  0  0
  9 12  1  0  0  0  0
 10  5  1  0  0  0  0
 11 28  1  0  0  0  0
 12 17  1  0  0  0  0
 13 32  1  6  0  0  0
 14 15  1  0  0  0  0
 15 21  1  0  0  0  0
 16  9  1  0  0  0  0
 17 28  1  6  0  0  0
 17 25  1  0  0  0  0
 18 23  1  0  0  0  0
 19 16  1  0  0  0  0
 21 22  1  0  0  0  0
 22 20  2  0  0  0  0
 22  4  1  0  0  0  0
 23  7  1  6  0  0  0
 23  8  1  0  0  0  0
 23  6  1  0  0  0  0
 24 27  1  0  0  0  0
 25 13  1  0  0  0  0
 25 29  1  1  0  0  0
 26 14  1  6  0  0  0
 26 11  1  0  0  0  0
 27  1  1  0  0  0  0
 27 18  1  0  0  0  0
 31 32  2  0  0  0  0
 32 30  1  0  0  0  0
M  END
>  <MODEL>
4

>  <REMARK>
 VINA RESULT:      -8.2      2.555      3.987
  Name = 
  1 active torsions:
  status: ('A' for Active; 'I' for Inactive)
    1  A    between atoms: C_14  and  C_26
                            x       y       z     vdW  Elec       q    Type
                         _______ _______ _______ _____ _____    ______ ____

>  <TORSDO>
F 1

$$$$
=
 OpenBabel11062420333D

 32 35  0  0  1  0  0  0  0  0999 V2000
  188.1910  176.3760  146.8880 C   0  0  0  0  0  2  0  0  0  0  0  0
  187.1570  178.2130  145.7500 F   0  0  0  0  0  0  0  0  0  0  0  0
  189.4980  176.7430  146.5070 O   0  0  0  0  0  0  0  0  0  0  0  0
  194.8020  174.7810  144.2520 N   0  0  0  0  0  2  0  0  0  0  0  0
  194.8390  173.8940  142.0040 C   0  0  0  0  0  2  0  0  0  0  0  0
  189.2290  176.3580  142.7900 C   0  0  2  0  0  3  0  0  0  0  0  0
  189.0870  177.7110  143.4760 C   0  0  0  0  0  2  0  0  0  0  0  0
  189.7840  176.0030  145.3450 C   0  0  1  0  0  3  0  0  0  0  0  0
  189.4250  174.1660  140.8580 C   0  0  0  0  0  2  0  0  0  0  0  0
  195.3490  173.7230  143.4230 C   0  0  0  0  0  2  0  0  0  0  0  0
  191.6010  174.7460  144.2090 C   0  0  0  0  0  2  0  0  0  0  0  0
  190.2120  173.3770  141.8930 C   0  0  0  0  0  2  0  0  0  0  0  0
  194.0050  172.6930  141.5770 C   0  0  1  0  0  3  0  0  0  0  0  0
  192.1580  176.0880  146.1960 C   0  0  0  0  0  2  0  0  0  0  0  0
  193.4670  176.7910  145.8850 C   0  0  0  0  0  2  0  0  0  0  0  0
  188.0830  174.5860  141.4490 C   0  0  0  0  0  2  0  0  0  0  0  0
  191.6900  173.7740  141.8710 C   0  0  2  0  0  3  0  0  0  0  0  0
  187.4260  176.2720  144.5470 O   0  0  0  0  0  0  0  0  0  0  0  0
  188.0760  176.0610  141.8450 C   0  0  0  0  0  2  0  0  0  0  0  0
  196.0660  174.2370  146.1380 O   0  0  0  0  0  0  0  0  0  0  0  0
  194.5790  176.0040  146.3930 N   0  0  0  0  0  2  0  0  0  0  0  0
  195.1840  174.9690  145.6170 C   0  0  0  0  0  0  0  0  0  0  0  0
  188.7980  176.4320  144.2430 C   0  0  2  0  0  0  0  0  0  0  0  0
  185.9100  176.4160  146.2380 F   0  0  0  0  0  0  0  0  0  0  0  0
  192.6350  172.6220  142.2730 C   0  0  1  0  0  3  0  0  0  0  0  0
  191.2740  176.0340  144.9580 C   0  0  2  0  0  3  0  0  0  0  0  0
  187.1620  176.8300  145.8280 C   0  0  0  0  0  0  0  0  0  0  0  0
  191.9250  175.0140  142.7420 C   0  0  0  0  0  2  0  0  0  0  0  0
  192.0590  171.3720  142.0260 O   0  0  0  0  0  1  0  0  0  0  0  0
  193.9680  173.6800  139.4060 O   0  0  0  0  0  0  0  0  0  0  0  0
  193.7430  171.4000  139.4410 O   0  0  0  0  0  1  0  0  0  0  0  0
  193.8970  172.6230  140.0840 C   0  0  0  0  0  0  0  0  0  0  0  0
  2 27  1  0  0  0  0
  3  1  1  0  0  0  0
  4 22  1  0  0  0  0
  5 10  1  0  0  0  0
  6 19  1  6  0  0  0
  6  7  1  0  0  0  0
  6 23  1  0  0  0  0
  8  3  1  1  0  0  0
  9 16  1  0  0  0  0
  9 12  1  0  0  0  0
 10  4  1  0  0  0  0
 13 32  1  6  0  0  0
 13  5  1  0  0  0  0
 13 25  1  0  0  0  0
 15 14  1  0  0  0  0
 15 21  1  0  0  0  0
 16 19  1  0  0  0  0
 17 12  1  1  0  0  0
 17 25  1  0  0  0  0
 17 28  1  0  0  0  0
 18 27  1  0  0  0  0
 22 20  2  0  0  0  0
 22 21  1  0  0  0  0
 23  7  1  1  0  0  0
 23 18  1  0  0  0  0
 23  8  1  0  0  0  0
 25 29  1  6  0  0  0
 26 11  1  1  0  0  0
 26  8  1  0  0  0  0
 26 14  1  0  0  0  0
 27 24  1  0  0  0  0
 27  1  1  0  0  0  0
 28 11  1  0  0  0  0
 30 32  2  0  0  0  0
 31 32  1  0  0  0  0
M  END
>  <MODEL>
5

>  <REMARK>
 VINA RESULT:      -7.9      4.136      8.514
  Name = 
  1 active torsions:
  status: ('A' for Active; 'I' for Inactive)
    1  A    between atoms: C_14  and  C_26
                            x       y       z     vdW  Elec       q    Type
                         _______ _______ _______ _____ _____    ______ ____

>  <TORSDO>
F 1

$$$$
=
 OpenBabel11062420333D

 32 35  0  0  1  0  0  0  0  0999 V2000
  188.1910  175.6590  147.2720 C   0  0  0  0  0  2  0  0  0  0  0  0
  188.4690  178.0380  147.3230 F   0  0  0  0  0  0  0  0  0  0  0  0
  189.4180  175.4270  146.6170 O   0  0  0  0  0  0  0  0  0  0  0  0
  192.2050  172.4570  142.0920 N   0  0  0  0  0  2  0  0  0  0  0  0
  191.5570  172.9550  139.8180 C   0  0  0  0  0  2  0  0  0  0  0  0
  188.7630  177.1700  143.3660 C   0  0  2  0  0  3  0  0  0  0  0  0
  189.5340  177.8350  144.5000 C   0  0  0  0  0  2  0  0  0  0  0  0
  189.1160  175.3510  145.2460 C   0  0  1  0  0  3  0  0  0  0  0  0
  187.4420  176.5240  140.8340 C   0  0  0  0  0  2  0  0  0  0  0  0
  191.9260  171.8590  140.7990 C   0  0  0  0  0  2  0  0  0  0  0  0
  189.6850  174.1130  143.1690 C   0  0  0  0  0  2  0  0  0  0  0  0
  187.6210  175.0500  141.1630 C   0  0  0  0  0  2  0  0  0  0  0  0
  190.1330  172.7710  139.3060 C   0  0  1  0  0  3  0  0  0  0  0  0
  191.0670  173.7530  145.1750 C   0  0  0  0  0  2  0  0  0  0  0  0
  192.5080  173.7180  144.7010 C   0  0  0  0  0  2  0  0  0  0  0  0
  186.6910  177.2130  141.9690 C   0  0  0  0  0  2  0  0  0  0  0  0
  189.0190  174.5700  140.7680 C   0  0  2  0  0  3  0  0  0  0  0  0
  187.4020  177.1610  145.4850 O   0  0  0  0  0  0  0  0  0  0  0  0
  187.6280  178.0380  142.8490 C   0  0  0  0  0  2  0  0  0  0  0  0
  192.9550  170.4780  143.0760 O   0  0  0  0  0  0  0  0  0  0  0  0
  192.9120  172.3420  144.4620 N   0  0  0  0  0  2  0  0  0  0  0  0
  192.6950  171.7030  143.2030 C   0  0  0  0  0  0  0  0  0  0  0  0
  188.5540  176.7140  144.7980 C   0  0  2  0  0  0  0  0  0  0  0  0
  186.4020  177.1950  147.5290 F   0  0  0  0  0  0  0  0  0  0  0  0
  189.0590  173.0810  140.3630 C   0  0  1  0  0  3  0  0  0  0  0  0
  190.2760  174.7970  144.3980 C   0  0  2  0  0  3  0  0  0  0  0  0
  187.6150  177.0400  146.8860 C   0  0  0  0  0  0  0  0  0  0  0  0
  190.0240  174.8680  141.8870 C   0  0  0  0  0  2  0  0  0  0  0  0
  187.8170  172.6390  139.8980 O   0  0  0  0  0  1  0  0  0  0  0  0
  190.8820  174.1650  137.5210 O   0  0  0  0  0  1  0  0  0  0  0  0
  188.6870  173.5190  137.3950 O   0  0  0  0  0  0  0  0  0  0  0  0
  189.9240  173.5290  138.0310 C   0  0  0  0  0  0  0  0  0  0  0  0
  3  1  1  0  0  0  0
  4 22  1  0  0  0  0
  5 10  1  0  0  0  0
  6 19  1  1  0  0  0
  6  7  1  0  0  0  0
  6 23  1  0  0  0  0
  8  3  1  1  0  0  0
  9 12  1  0  0  0  0
  9 16  1  0  0  0  0
 10  4  1  0  0  0  0
 13 32  1  6  0  0  0
 13  5  1  0  0  0  0
 13 25  1  0  0  0  0
 15 14  1  0  0  0  0
 16 19  1  0  0  0  0
 17 12  1  1  0  0  0
 17 28  1  0  0  0  0
 18 27  1  0  0  0  0
 20 22  2  0  0  0  0
 21 15  1  0  0  0  0
 22 21  1  0  0  0  0
 23  7  1  1  0  0  0
 23  8  1  0  0  0  0
 23 18  1  0  0  0  0
 25 29  1  6  0  0  0
 25 17  1  0  0  0  0
 26 11  1  6  0  0  0
 26 14  1  0  0  0  0
 26  8  1  0  0  0  0
 27  1  1  0  0  0  0
 27  2  1  0  0  0  0
 27 24  1  0  0  0  0
 28 11  1  0  0  0  0
 30 32  1  0  0  0  0
 31 32  2  0  0  0  0
M  END
>  <MODEL>
6

>  <REMARK>
 VINA RESULT:      -7.7      3.878      8.022
  Name = 
  1 active torsions:
  status: ('A' for Active; 'I' for Inactive)
    1  A    between atoms: C_14  and  C_26
                            x       y       z     vdW  Elec       q    Type
                         _______ _______ _______ _____ _____    ______ ____

>  <TORSDO>
F 1

$$$$
=
 OpenBabel11062420333D

 32 35  0  0  1  0  0  0  0  0999 V2000
  188.0020  176.3740  143.4500 C   0  0  0  0  0  2  0  0  0  0  0  0
  186.9370  176.3230  145.5950 F   0  0  0  0  0  0  0  0  0  0  0  0
  188.4190  175.0290  143.5110 O   0  0  0  0  0  0  0  0  0  0  0  0
  193.0540  171.1700  142.6810 N   0  0  0  0  0  2  0  0  0  0  0  0
  195.0140  171.4100  144.0750 C   0  0  0  0  0  2  0  0  0  0  0  0
  190.7450  175.1960  146.4420 C   0  0  2  0  0  3  0  0  0  0  0  0
  189.3040  174.7200  146.5790 C   0  0  0  0  0  2  0  0  0  0  0  0
  189.7340  175.0530  144.0090 C   0  0  1  0  0  3  0  0  0  0  0  0
  193.5400  175.9420  146.9010 C   0  0  0  0  0  2  0  0  0  0  0  0
  194.5060  171.1420  142.6710 C   0  0  0  0  0  2  0  0  0  0  0  0
  191.9610  173.9870  143.7410 C   0  0  0  0  0  2  0  0  0  0  0  0
  193.8050  175.7000  145.4230 C   0  0  0  0  0  2  0  0  0  0  0  0
  195.8450  172.6860  144.1180 C   0  0  1  0  0  3  0  0  0  0  0  0
  190.0290  172.9920  142.5840 C   0  0  0  0  0  2  0  0  0  0  0  0
  190.1590  171.4890  142.7500 C   0  0  0  0  0  2  0  0  0  0  0  0
  192.4110  176.9560  147.0580 C   0  0  0  0  0  2  0  0  0  0  0  0
  194.0540  174.2150  145.1500 C   0  0  2  0  0  3  0  0  0  0  0  0
  189.1530  176.9340  145.5560 O   0  0  0  0  0  0  0  0  0  0  0  0
  191.0960  176.2830  147.4450 C   0  0  0  0  0  2  0  0  0  0  0  0
  192.8200  170.4530  140.4730 O   0  0  0  0  0  0  0  0  0  0  0  0
  190.8430  170.9260  141.5960 N   0  0  0  0  0  2  0  0  0  0  0  0
  192.2670  170.8390  141.5350 C   0  0  0  0  0  0  0  0  0  0  0  0
  189.7000  175.6370  145.4340 C   0  0  2  0  0  0  0  0  0  0  0  0
  187.5320  178.3090  144.7410 F   0  0  0  0  0  0  0  0  0  0  0  0
  195.0080  173.9660  143.9620 C   0  0  1  0  0  3  0  0  0  0  0  0
  190.4660  173.7070  143.8550 C   0  0  2  0  0  3  0  0  0  0  0  0
  187.9110  176.9860  144.8660 C   0  0  0  0  0  0  0  0  0  0  0  0
  192.7250  173.4750  144.9590 C   0  0  0  0  0  2  0  0  0  0  0  0
  195.8630  175.0520  143.7520 O   0  0  0  0  0  1  0  0  0  0  0  0
  197.3450  173.7630  145.6290 O   0  0  0  0  0  0  0  0  0  0  0  0
  196.8230  171.5950  146.1570 O   0  0  0  0  0  1  0  0  0  0  0  0
  196.7180  172.7120  145.3360 C   0  0  0  0  0  0  0  0  0  0  0  0
  1  3  1  0  0  0  0
  1 27  1  0  0  0  0
  5 13  1  0  0  0  0
  6  7  1  1  0  0  0
  6 19  1  0  0  0  0
  8  3  1  1  0  0  0
  8 23  1  0  0  0  0
  9 16  1  0  0  0  0
 10  4  1  0  0  0  0
 10  5  1  0  0  0  0
 11 26  1  0  0  0  0
 11 28  1  0  0  0  0
 12  9  1  0  0  0  0
 13 32  1  1  0  0  0
 14 15  1  0  0  0  0
 16 19  1  0  0  0  0
 17 28  1  6  0  0  0
 17 12  1  0  0  0  0
 20 22  2  0  0  0  0
 21 15  1  0  0  0  0
 22 21  1  0  0  0  0
 22  4  1  0  0  0  0
 23 18  1  0  0  0  0
 23  6  1  0  0  0  0
 23  7  1  1  0  0  0
 24 27  1  0  0  0  0
 25 29  1  1  0  0  0
 25 13  1  0  0  0  0
 25 17  1  0  0  0  0
 26 14  1  6  0  0  0
 26  8  1  0  0  0  0
 27 18  1  0  0  0  0
 27  2  1  0  0  0  0
 32 30  2  0  0  0  0
 32 31  1  0  0  0  0
M  END
>  <MODEL>
7

>  <REMARK>
 VINA RESULT:      -7.7      4.416      8.107
  Name = 
  1 active torsions:
  status: ('A' for Active; 'I' for Inactive)
    1  A    between atoms: C_14  and  C_26
                            x       y       z     vdW  Elec       q    Type
                         _______ _______ _______ _____ _____    ______ ____

>  <TORSDO>
F 1

$$$$
=
 OpenBabel11062420333D

 32 35  0  0  1  0  0  0  0  0999 V2000
  184.9380  177.7930  144.6230 C   0  0  0  0  0  2  0  0  0  0  0  0
  184.9650  179.5010  142.9430 F   0  0  0  0  0  0  0  0  0  0  0  0
  186.2870  177.9850  144.9850 O   0  0  0  0  0  0  0  0  0  0  0  0
  191.5950  175.2530  146.1790 N   0  0  0  0  0  2  0  0  0  0  0  0
  192.6750  174.0130  144.4070 C   0  0  0  0  0  2  0  0  0  0  0  0
  187.9670  177.0260  141.7770 C   0  0  2  0  0  3  0  0  0  0  0  0
  187.6980  178.4790  142.1470 C   0  0  0  0  0  2  0  0  0  0  0  0
  187.0230  177.0450  144.2410 C   0  0  1  0  0  3  0  0  0  0  0  0
  188.8070  174.5410  140.4750 C   0  0  0  0  0  2  0  0  0  0  0  0
  192.3230  174.0320  145.8830 C   0  0  0  0  0  2  0  0  0  0  0  0
  188.9410  175.4750  144.4000 C   0  0  0  0  0  2  0  0  0  0  0  0
  188.7920  173.8690  141.8390 C   0  0  0  0  0  2  0  0  0  0  0  0
  192.0160  172.8310  143.7070 C   0  0  1  0  0  3  0  0  0  0  0  0
  188.5670  177.0710  146.2370 C   0  0  0  0  0  2  0  0  0  0  0  0
  189.9340  177.6040  146.6260 C   0  0  0  0  0  2  0  0  0  0  0  0
  187.4410  175.1600  140.1970 C   0  0  0  0  0  2  0  0  0  0  0  0
  190.0990  174.1330  142.5900 C   0  0  2  0  0  3  0  0  0  0  0  0
  185.5210  177.3750  142.2660 O   0  0  0  0  0  0  0  0  0  0  0  0
  187.4590  176.6760  140.3880 C   0  0  0  0  0  2  0  0  0  0  0  0
  191.5660  174.9190  148.4890 O   0  0  0  0  0  0  0  0  0  0  0  0
  190.4700  176.8210  147.7290 N   0  0  0  0  0  2  0  0  0  0  0  0
  191.2220  175.6280  147.5060 C   0  0  0  0  0  0  0  0  0  0  0  0
  186.8510  177.3700  142.7450 C   0  0  2  0  0  0  0  0  0  0  0  0
  183.3840  177.9160  142.8340 F   0  0  0  0  0  0  0  0  0  0  0  0
  190.4940  172.9870  143.5460 C   0  0  1  0  0  3  0  0  0  0  0  0
  188.4760  176.8910  144.7280 C   0  0  2  0  0  3  0  0  0  0  0  0
  184.7110  178.1540  143.1370 C   0  0  0  0  0  0  0  0  0  0  0  0
  190.0300  175.4740  143.3300 C   0  0  0  0  0  2  0  0  0  0  0  0
  189.9480  171.7650  143.1410 O   0  0  0  0  0  1  0  0  0  0  0  0
  193.2690  173.4570  141.7760 O   0  0  0  0  0  0  0  0  0  0  0  0
  192.7440  171.2310  141.9140 O   0  0  0  0  0  1  0  0  0  0  0  0
  192.7040  172.5290  142.4100 C   0  0  0  0  0  0  0  0  0  0  0  0
  1  3  1  0  0  0  0
  2 27  1  0  0  0  0
  4 22  1  0  0  0  0
  5 10  1  0  0  0  0
  6 19  1  6  0  0  0
  6  7  1  0  0  0  0
  6 23  1  0  0  0  0
  8 26  1  0  0  0  0
  8  3  1  1  0  0  0
  9 12  1  0  0  0  0
 10  4  1  0  0  0  0
 13 32  1  6  0  0  0
 13  5  1  0  0  0  0
 14 15  1  0  0  0  0
 15 21  1  0  0  0  0
 16 19  1  0  0  0  0
 16  9  1  0  0  0  0
 17 12  1  1  0  0  0
 17 28  1  0  0  0  0
 17 25  1  0  0  0  0
 18 23  1  0  0  0  0
 18 27  1  0  0  0  0
 22 21  1  0  0  0  0
 22 20  2  0  0  0  0
 23  7  1  1  0  0  0
 23  8  1  0  0  0  0
 24 27  1  0  0  0  0
 25 29  1  6  0  0  0
 25 13  1  0  0  0  0
 26 11  1  1  0  0  0
 26 14  1  0  0  0  0
 27  1  1  0  0  0  0
 28 11  1  0  0  0  0
 30 32  2  0  0  0  0
 31 32  1  0  0  0  0
M  END
>  <MODEL>
8

>  <REMARK>
 VINA RESULT:      -7.6      3.669      7.535
  Name = 
  1 active torsions:
  status: ('A' for Active; 'I' for Inactive)
    1  A    between atoms: C_14  and  C_26
                            x       y       z     vdW  Elec       q    Type
                         _______ _______ _______ _____ _____    ______ ____

>  <TORSDO>
F 1

$$$$
=
 OpenBabel11062420333D

 32 35  0  0  1  0  0  0  0  0999 V2000
  193.5030  174.6340  138.5180 C   0  0  0  0  0  2  0  0  0  0  0  0
  193.2830  172.2900  138.0750 F   0  0  0  0  0  0  0  0  0  0  0  0
  193.9570  174.4460  139.8390 O   0  0  0  0  0  0  0  0  0  0  0  0
  193.3660  176.1870  145.6430 N   0  0  0  0  0  2  0  0  0  0  0  0
  191.2550  175.7960  146.7520 C   0  0  0  0  0  2  0  0  0  0  0  0
  190.9360  172.8230  141.3470 C   0  0  2  0  0  3  0  0  0  0  0  0
  192.1310  172.0130  140.8570 C   0  0  0  0  0  2  0  0  0  0  0  0
  192.8170  174.5410  140.6580 C   0  0  1  0  0  3  0  0  0  0  0  0
  188.3910  173.7120  142.4910 C   0  0  0  0  0  2  0  0  0  0  0  0
  192.3950  176.7760  146.5480 C   0  0  0  0  0  2  0  0  0  0  0  0
  192.0250  175.4390  142.8340 C   0  0  0  0  0  2  0  0  0  0  0  0
  189.0210  175.0750  142.7300 C   0  0  0  0  0  2  0  0  0  0  0  0
  189.9390  176.3800  146.2530 C   0  0  1  0  0  3  0  0  0  0  0  0
  194.4400  175.4610  142.3570 C   0  0  0  0  0  2  0  0  0  0  0  0
  195.1320  175.0290  143.6370 C   0  0  0  0  0  2  0  0  0  0  0  0
  188.5130  173.3450  141.0160 C   0  0  0  0  0  2  0  0  0  0  0  0
  189.8220  175.0840  144.0340 C   0  0  2  0  0  3  0  0  0  0  0  0
  191.4370  173.3560  138.9370 O   0  0  0  0  0  0  0  0  0  0  0  0
  189.6200  172.3190  140.7780 C   0  0  0  0  0  2  0  0  0  0  0  0
  194.9410  177.8910  145.8980 O   0  0  0  0  0  0  0  0  0  0  0  0
  195.5120  176.2020  144.4090 N   0  0  0  0  0  2  0  0  0  0  0  0
  194.6150  176.8110  145.3380 C   0  0  0  0  0  0  0  0  0  0  0  0
  191.8580  173.3940  140.2860 C   0  0  2  0  0  0  0  0  0  0  0  0
  192.1330  173.7330  136.8030 F   0  0  0  0  0  0  0  0  0  0  0  0
  189.8530  176.4670  144.7190 C   0  0  1  0  0  3  0  0  0  0  0  0
  193.1540  174.6710  142.1550 C   0  0  2  0  0  3  0  0  0  0  0  0
  192.5720  173.4780  138.0880 C   0  0  0  0  0  0  0  0  0  0  0  0
  191.2390  174.5510  143.7960 C   0  0  0  0  0  2  0  0  0  0  0  0
  188.7450  177.2430  144.3650 O   0  0  0  0  0  1  0  0  0  0  0  0
  188.9410  174.5180  147.3610 O   0  0  0  0  0  1  0  0  0  0  0  0
  187.5130  176.2440  146.8820 O   0  0  0  0  0  0  0  0  0  0  0  0
  188.7730  175.6580  146.8560 C   0  0  0  0  0  0  0  0  0  0  0  0
  1  3  1  0  0  0  0
  2 27  1  0  0  0  0
  4 10  1  0  0  0  0
  6 19  1  6  0  0  0
  7  6  1  0  0  0  0
  8  3  1  6  0  0  0
  8 26  1  0  0  0  0
  9 12  1  0  0  0  0
 10  5  1  0  0  0  0
 11 28  1  0  0  0  0
 13  5  1  0  0  0  0
 13 32  1  6  0  0  0
 14 15  1  0  0  0  0
 15 21  1  0  0  0  0
 16  9  1  0  0  0  0
 17 12  1  6  0  0  0
 17 25  1  0  0  0  0
 18 23  1  0  0  0  0
 19 16  1  0  0  0  0
 21 22  1  0  0  0  0
 22  4  1  0  0  0  0
 22 20  2  0  0  0  0
 23  8  1  0  0  0  0
 23  7  1  6  0  0  0
 23  6  1  0  0  0  0
 24 27  1  0  0  0  0
 25 29  1  1  0  0  0
 25 13  1  0  0  0  0
 26 14  1  6  0  0  0
 26 11  1  0  0  0  0
 27  1  1  0  0  0  0
 27 18  1  0  0  0  0
 28 17  1  0  0  0  0
 32 31  2  0  0  0  0
 32 30  1  0  0  0  0
M  END
>  <MODEL>
9

>  <REMARK>
 VINA RESULT:      -7.4      3.884      6.233
  Name = 
  1 active torsions:
  status: ('A' for Active; 'I' for Inactive)
    1  A    between atoms: C_14  and  C_26
                            x       y       z     vdW  Elec       q    Type
                         _______ _______ _______ _____ _____    ______ ____

>  <TORSDO>
F 1

$$$$
