=
 OpenBabel11062419313D

 40 45  0  0  1  0  0  0  0  0999 V2000
  192.1630  176.6320  147.1580 C   0  0  0  0  0  3  0  0  0  0  0  0
  190.4380  175.1340  146.0860 C   0  0  0  0  0  0  0  0  0  0  0  0
  193.2190  176.3610  146.1470 C   0  0  0  0  0  2  0  0  0  0  0  0
  192.6490  173.9870  145.7740 C   0  0  0  0  0  3  0  0  0  0  0  0
  193.5420  174.9100  146.1230 C   0  0  0  0  0  3  0  0  0  0  0  0
  190.9430  176.1000  147.0980 C   0  0  0  0  0  3  0  0  0  0  0  0
  191.2310  174.2420  145.4200 C   0  0  0  0  0  0  0  0  0  0  0  0
  186.5700  178.0250  143.5820 C   0  0  0  0  0  0  0  0  0  0  0  0
  189.0720  177.7380  142.9900 C   0  0  0  0  0  0  0  0  0  0  0  0
  185.2490  178.0820  143.1210 C   0  0  0  0  0  3  0  0  0  0  0  0
  185.9990  177.9160  140.8320 C   0  0  0  0  0  3  0  0  0  0  0  0
  189.9160  178.5240  142.4850 O   0  0  0  0  0  0  0  0  0  0  0  0
  189.5380  176.6370  143.7820 N   0  0  0  0  0  2  0  0  0  0  0  0
  184.9630  178.0230  141.7570 C   0  0  0  0  0  3  0  0  0  0  0  0
  186.4970  177.1160  147.2640 C   0  0  0  0  0  1  0  0  0  0  0  0
  186.7610  178.2200  145.0630 C   0  0  0  0  0  2  0  0  0  0  0  0
  188.9420  175.1940  145.8440 C   0  0  1  0  0  3  0  0  0  0  0  0
  187.6340  177.8920  142.6380 C   0  0  0  0  0  0  0  0  0  0  0  0
  187.3220  177.8510  141.2710 C   0  0  0  0  0  3  0  0  0  0  0  0
  188.4130  176.6200  145.7940 C   0  0  1  0  0  3  0  0  0  0  0  0
  188.5650  175.8500  144.5120 C   0  0  1  0  0  3  0  0  0  0  0  0
  186.9350  176.9080  145.8300 C   0  0  1  0  0  3  0  0  0  0  0  0
  190.6970  173.3630  144.3550 C   0  0  0  0  0  0  0  0  0  0  0  0
  189.3180  171.5600  143.7330 N   0  0  0  0  0  0  0  0  0  0  0  0
  189.7920  172.3940  144.6610 N   0  0  0  0  0  0  0  0  0  0  0  0
  189.7280  171.6330  142.4410 C   0  0  0  0  0  3  0  0  0  0  0  0
  190.6700  172.5950  142.0650 C   0  0  0  0  0  0  0  0  0  0  0  0
  191.1600  173.4610  143.0390 C   0  0  0  0  0  3  0  0  0  0  0  0
  190.3290  173.0070  139.5500 C   0  0  0  0  0  0  0  0  0  0  0  0
  191.0070  173.2590  138.2670 C   0  0  0  0  0  3  0  0  0  0  0  0
  191.1260  172.7390  140.7120 N   0  0  0  0  0  2  0  0  0  0  0  0
  190.3290  173.7710  137.2360 C   0  0  0  0  0  0  0  0  0  0  0  0
  189.0290  173.0580  139.6170 N   0  0  0  0  0  0  0  0  0  0  0  0
  188.8830  174.1660  137.4190 C   0  0  0  0  0  2  0  0  0  0  0  0
  188.1950  173.2440  138.4280 C   0  0  0  0  0  2  0  0  0  0  0  0
  191.0010  173.9830  136.0270 O   0  0  0  0  0  0  0  0  0  0  0  0
  192.3160  175.7650  136.6610 F   0  0  0  0  0  0  0  0  0  0  0  0
  191.5480  175.2410  135.6360 C   0  0  0  0  0  0  0  0  0  0  0  0
  190.5280  176.1220  135.3200 F   0  0  0  0  0  0  0  0  0  0  0  0
  192.3460  175.0590  134.5230 F   0  0  0  0  0  0  0  0  0  0  0  0
  2  6  1  0  0  0  0
  3  1  1  0  0  0  0
  4  5  2  0  0  0  0
  5  3  1  0  0  0  0
  6  1  2  0  0  0  0
  7  4  1  0  0  0  0
  7  2  2  0  0  0  0
  8 16  1  0  0  0  0
  9 13  1  0  0  0  0
 10  8  1  0  0  0  0
 11 19  2  0  0  0  0
 11 14  1  0  0  0  0
 12  9  2  0  0  0  0
 13 21  1  0  0  0  0
 14 10  2  0  0  0  0
 16 22  1  0  0  0  0
 17  2  1  6  0  0  0
 18  9  1  0  0  0  0
 18  8  2  0  0  0  0
 19 18  1  0  0  0  0
 20 22  1  0  0  0  0
 20 17  1  0  0  0  0
 21 20  1  0  0  0  0
 21 17  1  0  0  0  0
 22 15  1  0  0  0  0
 23 25  1  0  0  0  0
 23  7  1  0  0  0  0
 24 25  2  0  0  0  0
 26 24  1  0  0  0  0
 27 26  2  0  0  0  0
 27 28  1  0  0  0  0
 28 23  2  0  0  0  0
 29 33  2  0  0  0  0
 29 31  1  0  0  0  0
 30 29  1  0  0  0  0
 31 27  1  0  0  0  0
 32 34  1  0  0  0  0
 32 30  2  0  0  0  0
 34 35  1  0  0  0  0
 35 33  1  0  0  0  0
 36 32  1  0  0  0  0
 38 36  1  0  0  0  0
 38 37  1  0  0  0  0
 39 38  1  0  0  0  0
 40 38  1  0  0  0  0
M  END
>  <MODEL>
1

>  <REMARK>
 VINA RESULT:      -9.0      0.000      0.000
  Name = 
  5 active torsions:
  status: ('A' for Active; 'I' for Inactive)
    1  A    between atoms: C_3  and  C_30
    2  A    between atoms: C_4  and  C_35
    3  A    between atoms: C_13  and  O_23
    4  A    between atoms: N_19  and  C_37
    5  A    between atoms: O_23  and  C_26
                            x       y       z     vdW  Elec       q    Type
                         _______ _______ _______ _____ _____    ______ ____

>  <TORSDO>
F 5

$$$$
=
 OpenBabel11062419313D

 40 45  0  0  1  0  0  0  0  0999 V2000
  194.3240  176.1350  146.3150 C   0  0  0  0  0  3  0  0  0  0  0  0
  192.6950  174.3200  145.6630 C   0  0  0  0  0  0  0  0  0  0  0  0
  195.3670  175.7340  145.3340 C   0  0  0  0  0  2  0  0  0  0  0  0
  194.9820  173.2990  145.4930 C   0  0  0  0  0  3  0  0  0  0  0  0
  195.8070  174.3390  145.5980 C   0  0  0  0  0  3  0  0  0  0  0  0
  193.1500  175.5130  146.4260 C   0  0  0  0  0  3  0  0  0  0  0  0
  193.5380  173.3680  145.1610 C   0  0  0  0  0  0  0  0  0  0  0  0
  188.2750  177.2270  144.4010 C   0  0  0  0  0  0  0  0  0  0  0  0
  190.7410  177.5680  143.6980 C   0  0  0  0  0  0  0  0  0  0  0  0
  186.9290  177.2230  144.0140 C   0  0  0  0  0  3  0  0  0  0  0  0
  187.5240  177.9730  141.7970 C   0  0  0  0  0  3  0  0  0  0  0  0
  191.4220  178.6050  143.4830 O   0  0  0  0  0  0  0  0  0  0  0  0
  191.4190  176.3530  144.0470 N   0  0  0  0  0  2  0  0  0  0  0  0
  186.5540  177.5890  142.7210 C   0  0  0  0  0  3  0  0  0  0  0  0
  188.6070  175.1150  147.5340 C   0  0  0  0  0  1  0  0  0  0  0  0
  188.5450  176.9320  145.8520 C   0  0  0  0  0  2  0  0  0  0  0  0
  191.1920  174.2160  145.4860 C   0  0  1  0  0  3  0  0  0  0  0  0
  189.2740  177.5990  143.4490 C   0  0  0  0  0  0  0  0  0  0  0  0
  188.8700  177.9770  142.1610 C   0  0  0  0  0  3  0  0  0  0  0  0
  190.4600  175.4680  145.9470 C   0  0  1  0  0  3  0  0  0  0  0  0
  190.6270  175.2170  144.4740 C   0  0  1  0  0  3  0  0  0  0  0  0
  188.9630  175.4830  146.1090 C   0  0  1  0  0  3  0  0  0  0  0  0
  193.0460  172.2460  144.3300 C   0  0  0  0  0  0  0  0  0  0  0  0
  192.8760  169.9260  143.9740 N   0  0  0  0  0  0  0  0  0  0  0  0
  193.2730  170.9600  144.7170 N   0  0  0  0  0  0  0  0  0  0  0  0
  192.2380  170.1080  142.7900 C   0  0  0  0  0  3  0  0  0  0  0  0
  191.9910  171.4040  142.3270 C   0  0  0  0  0  0  0  0  0  0  0  0
  192.4080  172.4790  143.1080 C   0  0  0  0  0  3  0  0  0  0  0  0
  190.1540  172.5050  140.9050 C   0  0  0  0  0  0  0  0  0  0  0  0
  189.6770  172.7510  139.5330 C   0  0  0  0  0  3  0  0  0  0  0  0
  191.3000  171.6640  141.0980 N   0  0  0  0  0  2  0  0  0  0  0  0
  188.7970  173.7270  139.2910 C   0  0  0  0  0  0  0  0  0  0  0  0
  189.5520  173.0710  141.9120 N   0  0  0  0  0  0  0  0  0  0  0  0
  188.3560  174.6280  140.4200 C   0  0  0  0  0  2  0  0  0  0  0  0
  188.3310  173.8620  141.7440 C   0  0  0  0  0  2  0  0  0  0  0  0
  188.3530  173.9220  137.9790 O   0  0  0  0  0  0  0  0  0  0  0  0
  189.3730  172.8290  136.2260 F   0  0  0  0  0  0  0  0  0  0  0  0
  189.2270  174.0510  136.8590 C   0  0  0  0  0  0  0  0  0  0  0  0
  190.4650  174.5100  137.2760 F   0  0  0  0  0  0  0  0  0  0  0  0
  188.6880  174.9580  135.9680 F   0  0  0  0  0  0  0  0  0  0  0  0
  1  6  2  0  0  0  0
  2  6  1  0  0  0  0
  3  5  1  0  0  0  0
  3  1  1  0  0  0  0
  4  5  2  0  0  0  0
  7  4  1  0  0  0  0
  7  2  2  0  0  0  0
  8 16  1  0  0  0  0
  9 13  1  0  0  0  0
 10  8  1  0  0  0  0
 11 19  2  0  0  0  0
 11 14  1  0  0  0  0
 12  9  2  0  0  0  0
 13 21  1  0  0  0  0
 14 10  2  0  0  0  0
 16 22  1  0  0  0  0
 17  2  1  1  0  0  0
 17 20  1  0  0  0  0
 18  9  1  0  0  0  0
 18  8  2  0  0  0  0
 19 18  1  0  0  0  0
 20 22  1  0  0  0  0
 21 17  1  0  0  0  0
 21 20  1  0  0  0  0
 22 15  1  0  0  0  0
 23 25  1  0  0  0  0
 23  7  1  0  0  0  0
 24 25  2  0  0  0  0
 26 24  1  0  0  0  0
 27 26  2  0  0  0  0
 27 28  1  0  0  0  0
 28 23  2  0  0  0  0
 29 31  1  0  0  0  0
 29 33  2  0  0  0  0
 30 29  1  0  0  0  0
 31 27  1  0  0  0  0
 32 30  2  0  0  0  0
 32 34  1  0  0  0  0
 34 35  1  0  0  0  0
 35 33  1  0  0  0  0
 36 32  1  0  0  0  0
 37 38  1  0  0  0  0
 38 39  1  0  0  0  0
 38 36  1  0  0  0  0
 40 38  1  0  0  0  0
M  END
>  <MODEL>
2

>  <REMARK>
 VINA RESULT:      -8.9      1.912      2.545
  Name = 
  5 active torsions:
  status: ('A' for Active; 'I' for Inactive)
    1  A    between atoms: C_3  and  C_30
    2  A    between atoms: C_4  and  C_35
    3  A    between atoms: C_13  and  O_23
    4  A    between atoms: N_19  and  C_37
    5  A    between atoms: O_23  and  C_26
                            x       y       z     vdW  Elec       q    Type
                         _______ _______ _______ _____ _____    ______ ____

>  <TORSDO>
F 5

$$$$
=
 OpenBabel11062419313D

 40 45  0  0  1  0  0  0  0  0999 V2000
  196.0920  170.6650  144.0190 C   0  0  0  0  0  3  0  0  0  0  0  0
  195.4030  173.0470  143.5440 C   0  0  0  0  0  0  0  0  0  0  0  0
  195.8250  170.7410  145.4800 C   0  0  0  0  0  2  0  0  0  0  0  0
  196.5470  173.0850  145.7780 C   0  0  0  0  0  3  0  0  0  0  0  0
  196.6670  171.7980  146.0990 C   0  0  0  0  0  3  0  0  0  0  0  0
  195.8780  171.6830  143.1860 C   0  0  0  0  0  3  0  0  0  0  0  0
  195.6280  173.6410  144.7540 C   0  0  0  0  0  0  0  0  0  0  0  0
  190.7160  173.0040  140.7840 C   0  0  0  0  0  0  0  0  0  0  0  0
  191.2340  172.1940  143.1860 C   0  0  0  0  0  0  0  0  0  0  0  0
  189.8380  173.6900  139.9350 C   0  0  0  0  0  3  0  0  0  0  0  0
  188.2690  173.9990  141.7450 C   0  0  0  0  0  3  0  0  0  0  0  0
  190.7800  171.2410  143.8720 O   0  0  0  0  0  0  0  0  0  0  0  0
  192.5270  172.7260  143.5080 N   0  0  0  0  0  2  0  0  0  0  0  0
  188.6250  174.1890  140.4110 C   0  0  0  0  0  3  0  0  0  0  0  0
  194.1420  172.9670  139.1560 C   0  0  0  0  0  1  0  0  0  0  0  0
  191.9340  172.4080  140.1300 C   0  0  0  0  0  2  0  0  0  0  0  0
  194.6440  173.7630  142.4430 C   0  0  1  0  0  3  0  0  0  0  0  0
  190.3640  172.8280  142.1580 C   0  0  0  0  0  0  0  0  0  0  0  0
  189.1320  173.3240  142.6080 C   0  0  0  0  0  3  0  0  0  0  0  0
  193.8090  172.8150  141.5940 C   0  0  1  0  0  3  0  0  0  0  0  0
  193.1220  173.6900  142.6040 C   0  0  1  0  0  3  0  0  0  0  0  0
  193.1910  173.2640  140.2970 C   0  0  1  0  0  3  0  0  0  0  0  0
  195.0570  174.9630  145.0960 C   0  0  0  0  0  0  0  0  0  0  0  0
  195.2950  177.3030  145.1630 N   0  0  0  0  0  0  0  0  0  0  0  0
  195.7620  176.0980  144.8350 N   0  0  0  0  0  0  0  0  0  0  0  0
  194.0970  177.4520  145.7860 C   0  0  0  0  0  3  0  0  0  0  0  0
  193.3330  176.3250  146.0990 C   0  0  0  0  0  0  0  0  0  0  0  0
  193.8280  175.0700  145.7530 C   0  0  0  0  0  3  0  0  0  0  0  0
  190.7740  176.5810  146.0980 C   0  0  0  0  0  0  0  0  0  0  0  0
  189.5560  176.5110  146.9230 C   0  0  0  0  0  3  0  0  0  0  0  0
  192.0500  176.4160  146.7340 N   0  0  0  0  0  2  0  0  0  0  0  0
  188.3580  176.3900  146.3450 C   0  0  0  0  0  0  0  0  0  0  0  0
  190.6780  176.7610  144.8120 N   0  0  0  0  0  0  0  0  0  0  0  0
  188.2670  176.2420  144.8450 C   0  0  0  0  0  2  0  0  0  0  0  0
  189.3930  177.0170  144.1570 C   0  0  0  0  0  2  0  0  0  0  0  0
  187.2200  176.3430  147.1580 O   0  0  0  0  0  0  0  0  0  0  0  0
  185.0430  176.7750  146.5420 F   0  0  0  0  0  0  0  0  0  0  0  0
  186.1790  177.3160  147.1180 C   0  0  0  0  0  0  0  0  0  0  0  0
  186.5900  178.4200  146.3900 F   0  0  0  0  0  0  0  0  0  0  0  0
  185.8840  177.7140  148.4080 F   0  0  0  0  0  0  0  0  0  0  0  0
  1  3  1  0  0  0  0
  2  7  2  0  0  0  0
  3  5  1  0  0  0  0
  4  5  2  0  0  0  0
  6  2  1  0  0  0  0
  6  1  2  0  0  0  0
  7 23  1  0  0  0  0
  7  4  1  0  0  0  0
  8 18  1  0  0  0  0
  9 13  1  0  0  0  0
  9 12  2  0  0  0  0
 10 14  1  0  0  0  0
 10  8  2  0  0  0  0
 11 19  1  0  0  0  0
 14 11  2  0  0  0  0
 15 22  1  0  0  0  0
 16 22  1  0  0  0  0
 16  8  1  0  0  0  0
 17 21  1  0  0  0  0
 17  2  1  1  0  0  0
 18 19  2  0  0  0  0
 18  9  1  0  0  0  0
 20 17  1  0  0  0  0
 20 21  1  0  0  0  0
 21 13  1  0  0  0  0
 22 20  1  0  0  0  0
 23 28  1  0  0  0  0
 24 26  2  0  0  0  0
 25 23  2  0  0  0  0
 25 24  1  0  0  0  0
 26 27  1  0  0  0  0
 27 31  1  0  0  0  0
 28 27  2  0  0  0  0
 29 31  1  0  0  0  0
 29 30  1  0  0  0  0
 32 30  2  0  0  0  0
 32 36  1  0  0  0  0
 33 29  2  0  0  0  0
 34 32  1  0  0  0  0
 35 33  1  0  0  0  0
 35 34  1  0  0  0  0
 37 38  1  0  0  0  0
 38 36  1  0  0  0  0
 38 40  1  0  0  0  0
 39 38  1  0  0  0  0
M  END
>  <MODEL>
3

>  <REMARK>
 VINA RESULT:      -8.3      4.649      8.012
  Name = 
  5 active torsions:
  status: ('A' for Active; 'I' for Inactive)
    1  A    between atoms: C_3  and  C_30
    2  A    between atoms: C_4  and  C_35
    3  A    between atoms: C_13  and  O_23
    4  A    between atoms: N_19  and  C_37
    5  A    between atoms: O_23  and  C_26
                            x       y       z     vdW  Elec       q    Type
                         _______ _______ _______ _____ _____    ______ ____

>  <TORSDO>
F 5

$$$$
=
 OpenBabel11062419313D

 40 45  0  0  1  0  0  0  0  0999 V2000
  195.1000  174.9480  140.5570 C   0  0  0  0  0  3  0  0  0  0  0  0
  193.0280  173.7290  141.3240 C   0  0  0  0  0  0  0  0  0  0  0  0
  194.4420  175.6100  139.3990 C   0  0  0  0  0  2  0  0  0  0  0  0
  192.9460  173.7330  138.8150 C   0  0  0  0  0  3  0  0  0  0  0  0
  193.9050  174.5870  138.4640 C   0  0  0  0  0  3  0  0  0  0  0  0
  194.4540  174.1450  141.4010 C   0  0  0  0  0  3  0  0  0  0  0  0
  192.3220  173.6340  140.1570 C   0  0  0  0  0  0  0  0  0  0  0  0
  191.4310  175.9280  146.0350 C   0  0  0  0  0  0  0  0  0  0  0  0
  191.6190  176.9950  143.6860 C   0  0  0  0  0  0  0  0  0  0  0  0
  190.6810  175.7900  147.2100 C   0  0  0  0  0  3  0  0  0  0  0  0
  189.0610  177.3930  146.4110 C   0  0  0  0  0  3  0  0  0  0  0  0
  191.9290  178.1550  143.3080 O   0  0  0  0  0  0  0  0  0  0  0  0
  191.7800  175.9020  142.7710 N   0  0  0  0  0  2  0  0  0  0  0  0
  189.5030  176.5120  147.3970 C   0  0  0  0  0  3  0  0  0  0  0  0
  193.7570  172.9450  145.7620 C   0  0  0  0  0  1  0  0  0  0  0  0
  192.7440  175.1920  146.0000 C   0  0  0  0  0  2  0  0  0  0  0  0
  192.3930  173.3910  142.6600 C   0  0  1  0  0  3  0  0  0  0  0  0
  190.9700  176.8130  145.0120 C   0  0  0  0  0  0  0  0  0  0  0  0
  189.7900  177.5400  145.2310 C   0  0  0  0  0  3  0  0  0  0  0  0
  192.9650  174.2150  143.8050 C   0  0  1  0  0  3  0  0  0  0  0  0
  191.6010  174.5520  143.2690 C   0  0  1  0  0  3  0  0  0  0  0  0
  192.6750  173.8660  145.2400 C   0  0  1  0  0  3  0  0  0  0  0  0
  190.8790  173.3040  140.1400 C   0  0  0  0  0  0  0  0  0  0  0  0
  189.0850  172.1670  139.1260 N   0  0  0  0  0  0  0  0  0  0  0  0
  190.3850  172.4580  139.1950 N   0  0  0  0  0  0  0  0  0  0  0  0
  188.1910  172.7140  139.9900 C   0  0  0  0  0  3  0  0  0  0  0  0
  188.6320  173.6050  140.9730 C   0  0  0  0  0  0  0  0  0  0  0  0
  189.9900  173.9030  141.0380 C   0  0  0  0  0  3  0  0  0  0  0  0
  187.5550  175.5940  142.1950 C   0  0  0  0  0  0  0  0  0  0  0  0
  186.4880  176.0030  143.1250 C   0  0  0  0  0  3  0  0  0  0  0  0
  187.7430  174.1970  141.9300 N   0  0  0  0  0  2  0  0  0  0  0  0
  186.1060  177.2820  143.1910 C   0  0  0  0  0  0  0  0  0  0  0  0
  188.2880  176.4980  141.6110 N   0  0  0  0  0  0  0  0  0  0  0  0
  186.7190  178.2910  142.2490 C   0  0  0  0  0  2  0  0  0  0  0  0
  188.1700  177.9220  141.9320 C   0  0  0  0  0  2  0  0  0  0  0  0
  185.1010  177.6380  144.0960 O   0  0  0  0  0  0  0  0  0  0  0  0
  184.1850  178.4400  146.0510 F   0  0  0  0  0  0  0  0  0  0  0  0
  185.3500  177.9910  145.4550 C   0  0  0  0  0  0  0  0  0  0  0  0
  186.3170  178.9800  145.5180 F   0  0  0  0  0  0  0  0  0  0  0  0
  185.8020  176.8760  146.1350 F   0  0  0  0  0  0  0  0  0  0  0  0
  1  6  2  0  0  0  0
  2  6  1  0  0  0  0
  3  1  1  0  0  0  0
  4  7  1  0  0  0  0
  5  4  2  0  0  0  0
  5  3  1  0  0  0  0
  7  2  2  0  0  0  0
  8 10  1  0  0  0  0
  9 18  1  0  0  0  0
 10 14  2  0  0  0  0
 11 14  1  0  0  0  0
 12  9  2  0  0  0  0
 13 21  1  0  0  0  0
 13  9  1  0  0  0  0
 16  8  1  0  0  0  0
 17  2  1  6  0  0  0
 17 21  1  0  0  0  0
 17 20  1  0  0  0  0
 18 19  1  0  0  0  0
 18  8  2  0  0  0  0
 19 11  2  0  0  0  0
 20 22  1  0  0  0  0
 21 20  1  0  0  0  0
 22 15  1  0  0  0  0
 22 16  1  0  0  0  0
 23  7  1  0  0  0  0
 23 28  1  0  0  0  0
 24 25  1  0  0  0  0
 24 26  2  0  0  0  0
 25 23  2  0  0  0  0
 26 27  1  0  0  0  0
 27 28  2  0  0  0  0
 27 31  1  0  0  0  0
 29 30  1  0  0  0  0
 30 32  2  0  0  0  0
 31 29  1  0  0  0  0
 32 36  1  0  0  0  0
 33 35  1  0  0  0  0
 33 29  2  0  0  0  0
 34 32  1  0  0  0  0
 35 34  1  0  0  0  0
 36 38  1  0  0  0  0
 38 39  1  0  0  0  0
 38 37  1  0  0  0  0
 38 40  1  0  0  0  0
M  END
>  <MODEL>
4

>  <REMARK>
 VINA RESULT:      -8.2      3.997      6.812
  Name = 
  5 active torsions:
  status: ('A' for Active; 'I' for Inactive)
    1  A    between atoms: C_3  and  C_30
    2  A    between atoms: C_4  and  C_35
    3  A    between atoms: C_13  and  O_23
    4  A    between atoms: N_19  and  C_37
    5  A    between atoms: O_23  and  C_26
                            x       y       z     vdW  Elec       q    Type
                         _______ _______ _______ _____ _____    ______ ____

>  <TORSDO>
F 5

$$$$
=
 OpenBabel11062419313D

 40 45  0  0  1  0  0  0  0  0999 V2000
  195.4970  176.2340  144.6610 C   0  0  0  0  0  3  0  0  0  0  0  0
  193.6870  174.4750  144.7080 C   0  0  0  0  0  0  0  0  0  0  0  0
  195.8080  176.0630  143.2170 C   0  0  0  0  0  2  0  0  0  0  0  0
  195.4500  173.6200  143.1390 C   0  0  0  0  0  3  0  0  0  0  0  0
  196.2490  174.6680  142.9520 C   0  0  0  0  0  3  0  0  0  0  0  0
  194.5460  175.5410  145.2890 C   0  0  0  0  0  3  0  0  0  0  0  0
  194.0660  173.6680  143.6720 C   0  0  0  0  0  0  0  0  0  0  0  0
  189.1250  177.1890  145.8960 C   0  0  0  0  0  0  0  0  0  0  0  0
  190.8120  177.5420  143.9660 C   0  0  0  0  0  0  0  0  0  0  0  0
  187.7840  177.1280  146.2920 C   0  0  0  0  0  3  0  0  0  0  0  0
  187.0600  177.7490  144.0730 C   0  0  0  0  0  3  0  0  0  0  0  0
  191.2150  178.5790  143.3760 O   0  0  0  0  0  0  0  0  0  0  0  0
  191.6360  176.3690  143.9460 N   0  0  0  0  0  2  0  0  0  0  0  0
  186.7560  177.4010  145.3880 C   0  0  0  0  0  3  0  0  0  0  0  0
  191.1950  175.2910  148.4460 C   0  0  0  0  0  1  0  0  0  0  0  0
  190.1450  176.9940  146.9870 C   0  0  0  0  0  2  0  0  0  0  0  0
  192.3300  174.3240  145.3700 C   0  0  1  0  0  3  0  0  0  0  0  0
  189.4400  177.5220  144.5420 C   0  0  0  0  0  0  0  0  0  0  0  0
  188.3900  177.8080  143.6570 C   0  0  0  0  0  3  0  0  0  0  0  0
  191.8910  175.5850  146.1000 C   0  0  1  0  0  3  0  0  0  0  0  0
  191.2580  175.2450  144.7790 C   0  0  1  0  0  3  0  0  0  0  0  0
  190.7140  175.5750  147.0390 C   0  0  1  0  0  3  0  0  0  0  0  0
  193.1420  172.6820  143.0680 C   0  0  0  0  0  0  0  0  0  0  0  0
  192.3350  170.4730  142.9730 N   0  0  0  0  0  0  0  0  0  0  0  0
  193.1280  171.3970  143.5180 N   0  0  0  0  0  0  0  0  0  0  0  0
  191.5130  170.7700  141.9340 C   0  0  0  0  0  3  0  0  0  0  0  0
  191.4930  172.0670  141.4140 C   0  0  0  0  0  0  0  0  0  0  0  0
  192.3240  173.0260  141.9870 C   0  0  0  0  0  3  0  0  0  0  0  0
  189.5260  173.3650  140.3860 C   0  0  0  0  0  0  0  0  0  0  0  0
  188.8500  173.7320  139.1300 C   0  0  0  0  0  3  0  0  0  0  0  0
  190.6310  172.4510  140.3340 N   0  0  0  0  0  2  0  0  0  0  0  0
  188.0080  174.7690  139.0970 C   0  0  0  0  0  0  0  0  0  0  0  0
  189.1340  173.8890  141.5110 N   0  0  0  0  0  0  0  0  0  0  0  0
  187.8160  175.6110  140.3360 C   0  0  0  0  0  2  0  0  0  0  0  0
  187.9570  174.7560  141.5970 C   0  0  0  0  0  2  0  0  0  0  0  0
  187.3710  175.0810  137.8910 O   0  0  0  0  0  0  0  0  0  0  0  0
  187.3370  177.0240  136.6560 F   0  0  0  0  0  0  0  0  0  0  0  0
  186.6910  176.3110  137.6510 C   0  0  0  0  0  0  0  0  0  0  0  0
  186.6500  177.0640  138.8120 F   0  0  0  0  0  0  0  0  0  0  0  0
  185.3990  176.0410  137.2450 F   0  0  0  0  0  0  0  0  0  0  0  0
  1  6  2  0  0  0  0
  2  6  1  0  0  0  0
  3  1  1  0  0  0  0
  4  7  1  0  0  0  0
  5  4  2  0  0  0  0
  5  3  1  0  0  0  0
  7  2  2  0  0  0  0
  8 10  1  0  0  0  0
  8 16  1  0  0  0  0
  9 18  1  0  0  0  0
 11 14  1  0  0  0  0
 12  9  2  0  0  0  0
 13  9  1  0  0  0  0
 13 21  1  0  0  0  0
 14 10  2  0  0  0  0
 16 22  1  0  0  0  0
 17  2  1  6  0  0  0
 17 20  1  0  0  0  0
 18  8  2  0  0  0  0
 19 11  2  0  0  0  0
 19 18  1  0  0  0  0
 20 22  1  0  0  0  0
 21 17  1  0  0  0  0
 21 20  1  0  0  0  0
 22 15  1  0  0  0  0
 23 25  1  0  0  0  0
 23  7  1  0  0  0  0
 24 25  2  0  0  0  0
 26 24  1  0  0  0  0
 27 26  2  0  0  0  0
 27 28  1  0  0  0  0
 28 23  2  0  0  0  0
 29 33  2  0  0  0  0
 30 29  1  0  0  0  0
 31 29  1  0  0  0  0
 31 27  1  0  0  0  0
 32 30  2  0  0  0  0
 32 34  1  0  0  0  0
 33 35  1  0  0  0  0
 34 35  1  0  0  0  0
 36 32  1  0  0  0  0
 37 38  1  0  0  0  0
 38 36  1  0  0  0  0
 38 39  1  0  0  0  0
 40 38  1  0  0  0  0
M  END
>  <MODEL>
5

>  <REMARK>
 VINA RESULT:      -8.1      2.510      3.633
  Name = 
  5 active torsions:
  status: ('A' for Active; 'I' for Inactive)
    1  A    between atoms: C_3  and  C_30
    2  A    between atoms: C_4  and  C_35
    3  A    between atoms: C_13  and  O_23
    4  A    between atoms: N_19  and  C_37
    5  A    between atoms: O_23  and  C_26
                            x       y       z     vdW  Elec       q    Type
                         _______ _______ _______ _____ _____    ______ ____

>  <TORSDO>
F 5

$$$$
=
 OpenBabel11062419313D

 40 45  0  0  1  0  0  0  0  0999 V2000
  194.2430  176.2330  146.3460 C   0  0  0  0  0  3  0  0  0  0  0  0
  192.6710  174.3830  145.6560 C   0  0  0  0  0  0  0  0  0  0  0  0
  195.2740  175.9180  145.3220 C   0  0  0  0  0  2  0  0  0  0  0  0
  194.9910  173.4650  145.3830 C   0  0  0  0  0  3  0  0  0  0  0  0
  195.7770  174.5320  145.5120 C   0  0  0  0  0  3  0  0  0  0  0  0
  193.0990  175.5600  146.4590 C   0  0  0  0  0  3  0  0  0  0  0  0
  193.5370  173.4890  145.0920 C   0  0  0  0  0  0  0  0  0  0  0  0
  188.1190  177.1350  144.5200 C   0  0  0  0  0  0  0  0  0  0  0  0
  190.5540  177.5700  143.7620 C   0  0  0  0  0  0  0  0  0  0  0  0
  186.7660  177.0850  144.1640 C   0  0  0  0  0  3  0  0  0  0  0  0
  187.2810  177.8710  141.9390 C   0  0  0  0  0  3  0  0  0  0  0  0
  191.1920  178.6330  143.5390 O   0  0  0  0  0  0  0  0  0  0  0  0
  191.2840  176.3790  144.0860 N   0  0  0  0  0  2  0  0  0  0  0  0
  186.3470  177.4450  142.8830 C   0  0  0  0  0  3  0  0  0  0  0  0
  188.6020  175.0150  147.6280 C   0  0  0  0  0  1  0  0  0  0  0  0
  188.4340  176.8400  145.9620 C   0  0  0  0  0  2  0  0  0  0  0  0
  191.1690  174.2250  145.5130 C   0  0  1  0  0  3  0  0  0  0  0  0
  189.0820  177.5490  143.5480 C   0  0  0  0  0  0  0  0  0  0  0  0
  188.6340  177.9220  142.2720 C   0  0  0  0  0  3  0  0  0  0  0  0
  190.4030  175.4460  146.0010 C   0  0  1  0  0  3  0  0  0  0  0  0
  190.5440  175.2120  144.5230 C   0  0  1  0  0  3  0  0  0  0  0  0
  188.9110  175.4060  146.1980 C   0  0  1  0  0  3  0  0  0  0  0  0
  193.0670  172.3840  144.2250 C   0  0  0  0  0  0  0  0  0  0  0  0
  192.9510  170.0740  143.7900 N   0  0  0  0  0  0  0  0  0  0  0  0
  193.3260  171.0920  144.5660 N   0  0  0  0  0  0  0  0  0  0  0  0
  192.3020  170.2820  142.6160 C   0  0  0  0  0  3  0  0  0  0  0  0
  192.0220  171.5860  142.1990 C   0  0  0  0  0  0  0  0  0  0  0  0
  192.4170  172.6440  143.0140 C   0  0  0  0  0  3  0  0  0  0  0  0
  191.8820  172.0670  139.6770 C   0  0  0  0  0  0  0  0  0  0  0  0
  190.9740  172.2130  138.5260 C   0  0  0  0  0  3  0  0  0  0  0  0
  191.3190  171.8720  140.9820 N   0  0  0  0  0  2  0  0  0  0  0  0
  191.4470  172.1260  137.2800 C   0  0  0  0  0  0  0  0  0  0  0  0
  193.1710  172.0900  139.4930 N   0  0  0  0  0  0  0  0  0  0  0  0
  192.9040  171.7970  137.0590 C   0  0  0  0  0  2  0  0  0  0  0  0
  193.7650  172.3730  138.1840 C   0  0  0  0  0  2  0  0  0  0  0  0
  190.5590  172.2850  136.2100 O   0  0  0  0  0  0  0  0  0  0  0  0
  190.8550  170.4700  134.8230 F   0  0  0  0  0  0  0  0  0  0  0  0
  189.9230  171.1970  135.5430 C   0  0  0  0  0  0  0  0  0  0  0  0
  188.9430  171.6740  134.6890 F   0  0  0  0  0  0  0  0  0  0  0  0
  189.3370  170.3720  136.4830 F   0  0  0  0  0  0  0  0  0  0  0  0
  1  6  2  0  0  0  0
  2  6  1  0  0  0  0
  3  5  1  0  0  0  0
  3  1  1  0  0  0  0
  4  5  2  0  0  0  0
  7  4  1  0  0  0  0
  7  2  2  0  0  0  0
  8 16  1  0  0  0  0
  9 13  1  0  0  0  0
 10  8  1  0  0  0  0
 11 19  2  0  0  0  0
 11 14  1  0  0  0  0
 12  9  2  0  0  0  0
 13 21  1  0  0  0  0
 14 10  2  0  0  0  0
 16 22  1  0  0  0  0
 17  2  1  6  0  0  0
 17 20  1  0  0  0  0
 18  9  1  0  0  0  0
 18  8  2  0  0  0  0
 19 18  1  0  0  0  0
 20 22  1  0  0  0  0
 21 17  1  0  0  0  0
 21 20  1  0  0  0  0
 22 15  1  0  0  0  0
 23 25  1  0  0  0  0
 23  7  1  0  0  0  0
 24 25  2  0  0  0  0
 26 24  1  0  0  0  0
 27 26  2  0  0  0  0
 27 28  1  0  0  0  0
 28 23  2  0  0  0  0
 29 31  1  0  0  0  0
 30 29  1  0  0  0  0
 31 27  1  0  0  0  0
 32 30  2  0  0  0  0
 33 29  2  0  0  0  0
 34 32  1  0  0  0  0
 34 35  1  0  0  0  0
 35 33  1  0  0  0  0
 36 32  1  0  0  0  0
 37 38  1  0  0  0  0
 38 36  1  0  0  0  0
 38 40  1  0  0  0  0
 39 38  1  0  0  0  0
M  END
>  <MODEL>
6

>  <REMARK>
 VINA RESULT:      -8.1      2.291      2.953
  Name = 
  5 active torsions:
  status: ('A' for Active; 'I' for Inactive)
    1  A    between atoms: C_3  and  C_30
    2  A    between atoms: C_4  and  C_35
    3  A    between atoms: C_13  and  O_23
    4  A    between atoms: N_19  and  C_37
    5  A    between atoms: O_23  and  C_26
                            x       y       z     vdW  Elec       q    Type
                         _______ _______ _______ _____ _____    ______ ____

>  <TORSDO>
F 5

$$$$
=
 OpenBabel11062419313D

 40 45  0  0  1  0  0  0  0  0999 V2000
  192.1800  176.6690  147.1730 C   0  0  0  0  0  3  0  0  0  0  0  0
  190.4220  175.1830  146.1390 C   0  0  0  0  0  0  0  0  0  0  0  0
  193.1990  176.4210  146.1180 C   0  0  0  0  0  2  0  0  0  0  0  0
  192.6240  174.0510  145.7240 C   0  0  0  0  0  3  0  0  0  0  0  0
  193.5260  174.9720  146.0560 C   0  0  0  0  0  3  0  0  0  0  0  0
  190.9610  176.1320  147.1490 C   0  0  0  0  0  3  0  0  0  0  0  0
  191.1930  174.3060  145.4280 C   0  0  0  0  0  0  0  0  0  0  0  0
  186.4580  178.0540  143.7670 C   0  0  0  0  0  0  0  0  0  0  0  0
  188.9360  177.7650  143.0800 C   0  0  0  0  0  0  0  0  0  0  0  0
  185.1200  178.1070  143.3560 C   0  0  0  0  0  3  0  0  0  0  0  0
  185.7820  177.9260  141.0410 C   0  0  0  0  0  3  0  0  0  0  0  0
  189.7590  178.5480  142.5380 O   0  0  0  0  0  0  0  0  0  0  0  0
  189.4330  176.6690  143.8610 N   0  0  0  0  0  2  0  0  0  0  0  0
  184.7820  178.0380  142.0050 C   0  0  0  0  0  3  0  0  0  0  0  0
  186.5270  177.1700  147.4540 C   0  0  0  0  0  1  0  0  0  0  0  0
  186.7060  178.2590  145.2370 C   0  0  0  0  0  2  0  0  0  0  0  0
  188.9170  175.2400  145.9540 C   0  0  1  0  0  3  0  0  0  0  0  0
  187.4860  177.9150  142.7830 C   0  0  0  0  0  0  0  0  0  0  0  0
  187.1210  177.8650  141.4290 C   0  0  0  0  0  3  0  0  0  0  0  0
  188.3850  176.6650  145.9150 C   0  0  1  0  0  3  0  0  0  0  0  0
  188.4890  175.8860  144.6340 C   0  0  1  0  0  3  0  0  0  0  0  0
  186.9100  176.9520  146.0060 C   0  0  1  0  0  3  0  0  0  0  0  0
  190.6230  173.4440  144.3680 C   0  0  0  0  0  0  0  0  0  0  0  0
  189.3700  171.5420  143.7750 N   0  0  0  0  0  0  0  0  0  0  0  0
  189.8680  172.3620  144.7020 N   0  0  0  0  0  0  0  0  0  0  0  0
  189.6040  171.7440  142.4530 C   0  0  0  0  0  3  0  0  0  0  0  0
  190.3880  172.8270  142.0450 C   0  0  0  0  0  0  0  0  0  0  0  0
  190.9050  173.6780  143.0180 C   0  0  0  0  0  3  0  0  0  0  0  0
  191.8300  173.7140  140.1090 C   0  0  0  0  0  0  0  0  0  0  0  0
  191.9670  173.7900  138.6440 C   0  0  0  0  0  3  0  0  0  0  0  0
  190.6530  173.1090  140.6630 N   0  0  0  0  0  2  0  0  0  0  0  0
  193.1450  174.0930  138.0930 C   0  0  0  0  0  0  0  0  0  0  0  0
  192.7810  174.1690  140.8730 N   0  0  0  0  0  0  0  0  0  0  0  0
  194.3540  174.2790  138.9780 C   0  0  0  0  0  2  0  0  0  0  0  0
  193.9480  174.8670  140.3310 C   0  0  0  0  0  2  0  0  0  0  0  0
  193.2350  174.1720  136.6990 O   0  0  0  0  0  0  0  0  0  0  0  0
  192.9620  171.9570  136.1280 F   0  0  0  0  0  0  0  0  0  0  0  0
  193.6960  173.1030  135.8750 C   0  0  0  0  0  0  0  0  0  0  0  0
  195.0370  172.8610  136.1200 F   0  0  0  0  0  0  0  0  0  0  0  0
  193.5380  173.4560  134.5490 F   0  0  0  0  0  0  0  0  0  0  0  0
  2  6  1  0  0  0  0
  3  1  1  0  0  0  0
  4  5  2  0  0  0  0
  5  3  1  0  0  0  0
  6  1  2  0  0  0  0
  7  4  1  0  0  0  0
  7  2  2  0  0  0  0
  8 16  1  0  0  0  0
  9 13  1  0  0  0  0
 10  8  1  0  0  0  0
 11 19  2  0  0  0  0
 11 14  1  0  0  0  0
 12  9  2  0  0  0  0
 13 21  1  0  0  0  0
 14 10  2  0  0  0  0
 16 22  1  0  0  0  0
 17  2  1  6  0  0  0
 18  9  1  0  0  0  0
 18  8  2  0  0  0  0
 19 18  1  0  0  0  0
 20 17  1  0  0  0  0
 20 22  1  0  0  0  0
 21 20  1  0  0  0  0
 21 17  1  0  0  0  0
 22 15  1  0  0  0  0
 23 25  1  0  0  0  0
 23  7  1  0  0  0  0
 24 25  2  0  0  0  0
 26 24  1  0  0  0  0
 27 26  2  0  0  0  0
 27 28  1  0  0  0  0
 28 23  2  0  0  0  0
 29 31  1  0  0  0  0
 29 33  2  0  0  0  0
 30 29  1  0  0  0  0
 31 27  1  0  0  0  0
 32 30  2  0  0  0  0
 32 34  1  0  0  0  0
 34 35  1  0  0  0  0
 35 33  1  0  0  0  0
 36 32  1  0  0  0  0
 38 39  1  0  0  0  0
 38 37  1  0  0  0  0
 38 36  1  0  0  0  0
 40 38  1  0  0  0  0
M  END
>  <MODEL>
7

>  <REMARK>
 VINA RESULT:      -7.8      1.500      2.053
  Name = 
  5 active torsions:
  status: ('A' for Active; 'I' for Inactive)
    1  A    between atoms: C_3  and  C_30
    2  A    between atoms: C_4  and  C_35
    3  A    between atoms: C_13  and  O_23
    4  A    between atoms: N_19  and  C_37
    5  A    between atoms: O_23  and  C_26
                            x       y       z     vdW  Elec       q    Type
                         _______ _______ _______ _____ _____    ______ ____

>  <TORSDO>
F 5

$$$$
=
 OpenBabel11062419313D

 40 45  0  0  1  0  0  0  0  0999 V2000
  186.4280  178.0050  147.3170 C   0  0  0  0  0  3  0  0  0  0  0  0
  187.0540  178.1660  144.8760 C   0  0  0  0  0  0  0  0  0  0  0  0
  185.0270  177.5750  147.0640 C   0  0  0  0  0  2  0  0  0  0  0  0
  184.6720  178.9440  145.0390 C   0  0  0  0  0  3  0  0  0  0  0  0
  184.3090  178.6100  146.2760 C   0  0  0  0  0  3  0  0  0  0  0  0
  187.3060  178.2370  146.3410 C   0  0  0  0  0  3  0  0  0  0  0  0
  185.8360  178.3960  144.3000 C   0  0  0  0  0  0  0  0  0  0  0  0
  191.5730  175.1410  144.8330 C   0  0  0  0  0  0  0  0  0  0  0  0
  189.3170  174.7350  146.0300 C   0  0  0  0  0  0  0  0  0  0  0  0
  192.6250  174.5980  144.0840 C   0  0  0  0  0  3  0  0  0  0  0  0
  191.6670  172.3880  144.2700 C   0  0  0  0  0  3  0  0  0  0  0  0
  189.0310  174.2010  147.1340 O   0  0  0  0  0  0  0  0  0  0  0  0
  188.3930  175.6660  145.4510 N   0  0  0  0  0  2  0  0  0  0  0  0
  192.6710  173.2330  143.7990 C   0  0  0  0  0  3  0  0  0  0  0  0
  191.5170  178.8870  144.2410 C   0  0  0  0  0  1  0  0  0  0  0  0
  191.6960  176.6010  145.1780 C   0  0  0  0  0  2  0  0  0  0  0  0
  188.2730  177.8300  144.0390 C   0  0  1  0  0  3  0  0  0  0  0  0
  190.5300  174.2820  145.2980 C   0  0  0  0  0  0  0  0  0  0  0  0
  190.6080  172.9110  145.0130 C   0  0  0  0  0  3  0  0  0  0  0  0
  189.5170  177.5970  144.8830 C   0  0  1  0  0  3  0  0  0  0  0  0
  188.8080  176.4160  144.2820 C   0  0  1  0  0  3  0  0  0  0  0  0
  190.8840  177.5120  144.2550 C   0  0  1  0  0  3  0  0  0  0  0  0
  185.6130  178.2250  142.8460 C   0  0  0  0  0  0  0  0  0  0  0  0
  184.2750  178.6260  140.9520 N   0  0  0  0  0  0  0  0  0  0  0  0
  184.5270  178.7900  142.2520 N   0  0  0  0  0  0  0  0  0  0  0  0
  185.0860  177.8750  140.1640 C   0  0  0  0  0  3  0  0  0  0  0  0
  186.2080  177.2520  140.7170 C   0  0  0  0  0  0  0  0  0  0  0  0
  186.4650  177.4280  142.0740 C   0  0  0  0  0  3  0  0  0  0  0  0
  187.8160  175.2810  140.3410 C   0  0  0  0  0  0  0  0  0  0  0  0
  188.6000  174.5400  139.3380 C   0  0  0  0  0  3  0  0  0  0  0  0
  187.1180  176.4660  139.9340 N   0  0  0  0  0  2  0  0  0  0  0  0
  189.0370  173.3050  139.6030 C   0  0  0  0  0  0  0  0  0  0  0  0
  187.7470  174.8410  141.5640 N   0  0  0  0  0  0  0  0  0  0  0  0
  188.6530  172.6440  140.9060 C   0  0  0  0  0  2  0  0  0  0  0  0
  188.5200  173.6840  142.0200 C   0  0  0  0  0  2  0  0  0  0  0  0
  189.7920  172.6360  138.6340 O   0  0  0  0  0  0  0  0  0  0  0  0
  190.9480  173.9890  137.1710 F   0  0  0  0  0  0  0  0  0  0  0  0
  191.0790  173.0690  138.1960 C   0  0  0  0  0  0  0  0  0  0  0  0
  191.8180  171.9840  137.7570 F   0  0  0  0  0  0  0  0  0  0  0  0
  191.7380  173.6630  139.2550 F   0  0  0  0  0  0  0  0  0  0  0  0
  2  6  1  0  0  0  0
  3  1  1  0  0  0  0
  4  5  2  0  0  0  0
  5  3  1  0  0  0  0
  6  1  2  0  0  0  0
  7  2  2  0  0  0  0
  7  4  1  0  0  0  0
  8 16  1  0  0  0  0
  8 18  1  0  0  0  0
  9 12  2  0  0  0  0
 10  8  2  0  0  0  0
 11 19  1  0  0  0  0
 13  9  1  0  0  0  0
 14 10  1  0  0  0  0
 14 11  2  0  0  0  0
 15 22  1  0  0  0  0
 17 21  1  0  0  0  0
 17  2  1  1  0  0  0
 17 20  1  0  0  0  0
 18  9  1  0  0  0  0
 19 18  2  0  0  0  0
 21 20  1  0  0  0  0
 21 13  1  0  0  0  0
 22 20  1  0  0  0  0
 22 16  1  0  0  0  0
 23  7  1  0  0  0  0
 24 25  2  0  0  0  0
 25 23  1  0  0  0  0
 26 27  2  0  0  0  0
 26 24  1  0  0  0  0
 27 28  1  0  0  0  0
 28 23  2  0  0  0  0
 29 33  2  0  0  0  0
 30 32  2  0  0  0  0
 30 29  1  0  0  0  0
 31 29  1  0  0  0  0
 31 27  1  0  0  0  0
 32 34  1  0  0  0  0
 33 35  1  0  0  0  0
 34 35  1  0  0  0  0
 36 32  1  0  0  0  0
 37 38  1  0  0  0  0
 38 36  1  0  0  0  0
 38 40  1  0  0  0  0
 39 38  1  0  0  0  0
M  END
>  <MODEL>
8

>  <REMARK>
 VINA RESULT:      -7.7      2.562      5.939
  Name = 
  5 active torsions:
  status: ('A' for Active; 'I' for Inactive)
    1  A    between atoms: C_3  and  C_30
    2  A    between atoms: C_4  and  C_35
    3  A    between atoms: C_13  and  O_23
    4  A    between atoms: N_19  and  C_37
    5  A    between atoms: O_23  and  C_26
                            x       y       z     vdW  Elec       q    Type
                         _______ _______ _______ _____ _____    ______ ____

>  <TORSDO>
F 5

$$$$
=
 OpenBabel11062419313D

 40 45  0  0  1  0  0  0  0  0999 V2000
  190.7560  171.4710  139.1920 C   0  0  0  0  0  3  0  0  0  0  0  0
  189.2730  173.0920  140.4350 C   0  0  0  0  0  0  0  0  0  0  0  0
  190.8600  172.3030  137.9640 C   0  0  0  0  0  2  0  0  0  0  0  0
  188.5570  173.1920  138.0310 C   0  0  0  0  0  3  0  0  0  0  0  0
  189.5100  172.5260  137.3830 C   0  0  0  0  0  3  0  0  0  0  0  0
  190.0720  171.8480  140.2720 C   0  0  0  0  0  3  0  0  0  0  0  0
  188.6660  173.7490  139.4010 C   0  0  0  0  0  0  0  0  0  0  0  0
  192.2210  174.3880  144.8170 C   0  0  0  0  0  0  0  0  0  0  0  0
  192.8550  174.4610  142.3100 C   0  0  0  0  0  0  0  0  0  0  0  0
  192.2690  175.0240  146.0640 C   0  0  0  0  0  3  0  0  0  0  0  0
  193.6420  176.7900  145.1540 C   0  0  0  0  0  3  0  0  0  0  0  0
  193.9390  174.2470  141.7070 O   0  0  0  0  0  0  0  0  0  0  0  0
  191.6230  174.3230  141.5900 N   0  0  0  0  0  2  0  0  0  0  0  0
  192.9690  176.2190  146.2320 C   0  0  0  0  0  3  0  0  0  0  0  0
  189.3250  171.9390  144.8520 C   0  0  0  0  0  1  0  0  0  0  0  0
  191.5400  173.0460  144.7870 C   0  0  0  0  0  2  0  0  0  0  0  0
  189.1570  173.5900  141.8630 C   0  0  1  0  0  3  0  0  0  0  0  0
  192.8910  174.9830  143.7030 C   0  0  0  0  0  0  0  0  0  0  0  0
  193.6010  176.1750  143.9020 C   0  0  0  0  0  3  0  0  0  0  0  0
  190.1940  172.9650  142.7860 C   0  0  1  0  0  3  0  0  0  0  0  0
  190.3790  174.3860  142.3310 C   0  0  1  0  0  3  0  0  0  0  0  0
  190.0970  173.1100  144.2820 C   0  0  1  0  0  3  0  0  0  0  0  0
  187.9570  175.0340  139.5990 C   0  0  0  0  0  0  0  0  0  0  0  0
  186.6440  176.7690  138.7030 N   0  0  0  0  0  0  0  0  0  0  0  0
  187.2630  175.5950  138.5710 N   0  0  0  0  0  0  0  0  0  0  0  0
  186.6880  177.4650  139.8680 C   0  0  0  0  0  3  0  0  0  0  0  0
  187.3990  176.9520  140.9560 C   0  0  0  0  0  0  0  0  0  0  0  0
  188.0430  175.7260  140.8110 C   0  0  0  0  0  3  0  0  0  0  0  0
  186.3660  178.1260  142.9980 C   0  0  0  0  0  0  0  0  0  0  0  0
  186.6350  178.6660  144.3420 C   0  0  0  0  0  3  0  0  0  0  0  0
  187.4640  177.6260  142.2210 N   0  0  0  0  0  2  0  0  0  0  0  0
  185.6290  178.8880  145.1920 C   0  0  0  0  0  0  0  0  0  0  0  0
  185.1450  178.0850  142.5480 N   0  0  0  0  0  0  0  0  0  0  0  0
  184.2230  178.5060  144.7960 C   0  0  0  0  0  2  0  0  0  0  0  0
  184.0230  178.6680  143.2880 C   0  0  0  0  0  2  0  0  0  0  0  0
  185.9190  179.4160  146.4550 O   0  0  0  0  0  0  0  0  0  0  0  0
  184.8200  178.6500  148.3280 F   0  0  0  0  0  0  0  0  0  0  0  0
  186.0190  178.6270  147.6380 C   0  0  0  0  0  0  0  0  0  0  0  0
  187.0330  179.1120  148.4470 F   0  0  0  0  0  0  0  0  0  0  0  0
  186.3110  177.3230  147.2860 F   0  0  0  0  0  0  0  0  0  0  0  0
  1  6  2  0  0  0  0
  3  1  1  0  0  0  0
  4  7  1  0  0  0  0
  5  3  1  0  0  0  0
  5  4  2  0  0  0  0
  6  2  1  0  0  0  0
  7 23  1  0  0  0  0
  7  2  2  0  0  0  0
  8 10  1  0  0  0  0
  9 18  1  0  0  0  0
 10 14  2  0  0  0  0
 11 14  1  0  0  0  0
 12  9  2  0  0  0  0
 13  9  1  0  0  0  0
 13 21  1  0  0  0  0
 16  8  1  0  0  0  0
 17  2  1  6  0  0  0
 17 21  1  0  0  0  0
 17 20  1  0  0  0  0
 18 19  1  0  0  0  0
 18  8  2  0  0  0  0
 19 11  2  0  0  0  0
 20 22  1  0  0  0  0
 21 20  1  0  0  0  0
 22 16  1  0  0  0  0
 22 15  1  0  0  0  0
 23 28  1  0  0  0  0
 24 26  2  0  0  0  0
 25 24  1  0  0  0  0
 25 23  2  0  0  0  0
 26 27  1  0  0  0  0
 27 31  1  0  0  0  0
 28 27  2  0  0  0  0
 29 30  1  0  0  0  0
 30 32  2  0  0  0  0
 31 29  1  0  0  0  0
 32 36  1  0  0  0  0
 33 29  2  0  0  0  0
 33 35  1  0  0  0  0
 34 32  1  0  0  0  0
 35 34  1  0  0  0  0
 36 38  1  0  0  0  0
 38 37  1  0  0  0  0
 38 39  1  0  0  0  0
 40 38  1  0  0  0  0
M  END
>  <MODEL>
9

>  <REMARK>
 VINA RESULT:      -7.7      4.302      8.389
  Name = 
  5 active torsions:
  status: ('A' for Active; 'I' for Inactive)
    1  A    between atoms: C_3  and  C_30
    2  A    between atoms: C_4  and  C_35
    3  A    between atoms: C_13  and  O_23
    4  A    between atoms: N_19  and  C_37
    5  A    between atoms: O_23  and  C_26
                            x       y       z     vdW  Elec       q    Type
                         _______ _______ _______ _____ _____    ______ ____

>  <TORSDO>
F 5

$$$$
