=
 OpenBabel11062423113D

 28 29  0  0  1  0  0  0  0  0999 V2000
  187.8010  177.2350  141.6280 C   0  0  2  0  0  3  0  0  0  0  0  0
  185.0360  178.0140  143.9770 N   0  0  0  0  0  0  0  0  0  0  0  0
  186.5000  177.6820  142.1260 N   0  0  0  0  0  0  0  0  0  0  0  0
  186.2000  177.6620  143.5290 C   0  0  0  0  0  3  0  0  0  0  0  0
  185.5290  178.0700  141.1880 C   0  0  0  0  0  0  0  0  0  0  0  0
  184.7300  178.3890  140.4160 N   0  0  0  0  0  0  0  0  0  0  0  0
  184.7150  178.0050  145.3710 C   0  0  0  0  0  0  0  0  0  0  0  0
  184.0580  178.9620  145.8570 O   0  0  0  0  0  0  0  0  0  0  0  0
  185.1280  176.8730  146.2660 C   0  0  0  0  0  2  0  0  0  0  0  0
  185.7320  177.8570  148.3310 F   0  0  0  0  0  0  0  0  0  0  0  0
  186.2650  177.2710  147.1990 C   0  0  0  0  0  0  0  0  0  0  0  0
  186.9910  176.1530  147.5700 F   0  0  0  0  0  0  0  0  0  0  0  0
  187.1020  178.1790  146.5750 F   0  0  0  0  0  0  0  0  0  0  0  0
  188.0170  175.7410  141.8410 C   0  0  0  0  0  2  0  0  0  0  0  0
  188.2070  175.0800  140.5610 N   0  0  0  0  0  1  0  0  0  0  0  0
  188.9570  178.0900  142.1630 C   0  0  0  0  0  2  0  0  0  0  0  0
  189.6450  177.5130  143.4000 C   0  0  0  0  0  2  0  0  0  0  0  0
  191.1560  177.4410  143.2260 C   0  0  0  0  0  2  0  0  0  0  0  0
  190.9400  174.5590  145.3070 C   0  0  2  0  0  3  0  0  0  0  0  0
  190.1190  175.0690  147.5260 C   0  0  0  0  0  2  0  0  0  0  0  0
  190.6560  175.2100  144.0430 N   0  0  0  0  0  2  0  0  0  0  0  0
  191.7310  176.1730  143.8430 C   0  0  2  0  0  3  0  0  0  0  0  0
  189.6920  174.5560  146.1700 C   0  0  0  0  0  2  0  0  0  0  0  0
  191.9720  175.4000  146.0220 C   0  0  2  0  0  3  0  0  0  0  0  0
  191.2970  175.9740  147.2520 C   0  0  0  0  0  2  0  0  0  0  0  0
  192.3610  176.4740  145.1250 N   0  0  0  0  0  0  0  0  0  0  0  0
  193.7990  176.3620  144.9290 C   0  0  0  0  0  2  0  0  0  0  0  0
  194.5190  177.2960  145.8800 C   0  0  0  0  0  1  0  0  0  0  0  0
  1 14  1  1  0  0  0
  1  3  1  0  0  0  0
  1 16  1  0  0  0  0
  2  7  1  0  0  0  0
  3  4  1  0  0  0  0
  4  2  2  0  0  0  0
  5  3  1  0  0  0  0
  6  5  3  0  0  0  0
  7  8  2  0  0  0  0
  7  9  1  0  0  0  0
  9 11  1  0  0  0  0
 11 12  1  0  0  0  0
 11 10  1  0  0  0  0
 13 11  1  0  0  0  0
 15 14  1  0  0  0  0
 16 17  1  0  0  0  0
 18 17  1  0  0  0  0
 19 24  1  0  0  0  0
 19 23  1  1  0  0  0
 21 19  1  0  0  0  0
 22 18  1  1  0  0  0
 22 21  1  0  0  0  0
 22 26  1  0  0  0  0
 23 20  1  0  0  0  0
 24 25  1  1  0  0  0
 25 20  1  0  0  0  0
 26 24  1  0  0  0  0
 27 26  1  0  0  0  0
 27 28  1  0  0  0  0
M  END
>  <MODEL>
1

>  <REMARK>
 VINA RESULT:      -6.6      0.000      0.000
  Name = 
  11 active torsions:
  status: ('A' for Active; 'I' for Inactive)
    1  A    between atoms: C_1  and  C_6
    2  A    between atoms: C_2  and  C_6
    3  A    between atoms: C_2  and  C_7
    4  A    between atoms: C_3  and  N_10
    5  A    between atoms: C_6  and  N_10
    6  A    between atoms: C_7  and  C_25
    7  A    between atoms: N_8  and  C_9
    8  A    between atoms: C_9  and  C_12
    9  A    between atoms: C_12  and  C_13
   10  A    between atoms: C_15  and  C_25
   11  A    between atoms: C_17  and  N_28
                            x       y       z     vdW  Elec       q    Type
                         _______ _______ _______ _____ _____    ______ ____

>  <TORSDO>
F 11

$$$$
=
 OpenBabel11062423113D

 28 29  0  0  1  0  0  0  0  0999 V2000
  188.5340  177.0550  142.0460 C   0  0  2  0  0  3  0  0  0  0  0  0
  185.3770  177.9190  143.7940 N   0  0  0  0  0  0  0  0  0  0  0  0
  187.1560  177.4940  142.2670 N   0  0  0  0  0  0  0  0  0  0  0  0
  186.6080  177.5740  143.5900 C   0  0  0  0  0  3  0  0  0  0  0  0
  186.3620  177.7730  141.1420 C   0  0  0  0  0  0  0  0  0  0  0  0
  185.7080  178.0020  140.2160 N   0  0  0  0  0  0  0  0  0  0  0  0
  184.8100  178.0070  145.1050 C   0  0  0  0  0  0  0  0  0  0  0  0
  184.0610  178.9800  145.3860 O   0  0  0  0  0  0  0  0  0  0  0  0
  185.0730  176.9610  146.1480 C   0  0  0  0  0  2  0  0  0  0  0  0
  185.1840  178.3880  148.0310 F   0  0  0  0  0  0  0  0  0  0  0  0
  185.9320  177.4960  147.2870 C   0  0  0  0  0  0  0  0  0  0  0  0
  186.3400  176.4580  148.1040 F   0  0  0  0  0  0  0  0  0  0  0  0
  187.0410  178.1510  146.7830 F   0  0  0  0  0  0  0  0  0  0  0  0
  188.7120  175.5630  142.3070 C   0  0  0  0  0  2  0  0  0  0  0  0
  188.5620  174.8210  141.0670 N   0  0  0  0  0  1  0  0  0  0  0  0
  189.5510  177.9210  142.8010 C   0  0  0  0  0  2  0  0  0  0  0  0
  190.4000  177.1540  143.8140 C   0  0  0  0  0  2  0  0  0  0  0  0
  190.0040  177.4780  145.2480 C   0  0  0  0  0  2  0  0  0  0  0  0
  192.5420  175.6370  146.9360 C   0  0  2  0  0  3  0  0  0  0  0  0
  194.2430  174.7970  145.4320 C   0  0  0  0  0  2  0  0  0  0  0  0
  191.7240  176.8290  146.8340 N   0  0  0  0  0  2  0  0  0  0  0  0
  190.4760  176.4020  146.2160 C   0  0  2  0  0  3  0  0  0  0  0  0
  193.9300  175.9230  146.3920 C   0  0  0  0  0  2  0  0  0  0  0  0
  191.9210  174.5900  146.0410 C   0  0  2  0  0  3  0  0  0  0  0  0
  192.9010  174.3360  144.9130 C   0  0  0  0  0  2  0  0  0  0  0  0
  190.6880  175.1420  145.5100 N   0  0  0  0  0  0  0  0  0  0  0  0
  189.6140  174.2440  145.9100 C   0  0  0  0  0  2  0  0  0  0  0  0
  189.0830  174.6570  147.2680 C   0  0  0  0  0  1  0  0  0  0  0  0
  1  3  1  0  0  0  0
  1 14  1  1  0  0  0
  1 16  1  0  0  0  0
  2  7  1  0  0  0  0
  3  4  1  0  0  0  0
  4  2  2  0  0  0  0
  5  3  1  0  0  0  0
  6  5  3  0  0  0  0
  7  8  2  0  0  0  0
  7  9  1  0  0  0  0
  9 11  1  0  0  0  0
 11 10  1  0  0  0  0
 11 12  1  0  0  0  0
 13 11  1  0  0  0  0
 15 14  1  0  0  0  0
 16 17  1  0  0  0  0
 17 18  1  0  0  0  0
 19 23  1  6  0  0  0
 20 23  1  0  0  0  0
 21 19  1  0  0  0  0
 22 18  1  6  0  0  0
 22 21  1  0  0  0  0
 24 25  1  6  0  0  0
 24 19  1  0  0  0  0
 25 20  1  0  0  0  0
 26 27  1  0  0  0  0
 26 24  1  0  0  0  0
 26 22  1  0  0  0  0
 27 28  1  0  0  0  0
M  END
>  <MODEL>
2

>  <REMARK>
 VINA RESULT:      -6.4      1.053      2.374
  Name = 
  11 active torsions:
  status: ('A' for Active; 'I' for Inactive)
    1  A    between atoms: C_1  and  C_6
    2  A    between atoms: C_2  and  C_6
    3  A    between atoms: C_2  and  C_7
    4  A    between atoms: C_3  and  N_10
    5  A    between atoms: C_6  and  N_10
    6  A    between atoms: C_7  and  C_25
    7  A    between atoms: N_8  and  C_9
    8  A    between atoms: C_9  and  C_12
    9  A    between atoms: C_12  and  C_13
   10  A    between atoms: C_15  and  C_25
   11  A    between atoms: C_17  and  N_28
                            x       y       z     vdW  Elec       q    Type
                         _______ _______ _______ _____ _____    ______ ____

>  <TORSDO>
F 11

$$$$
=
 OpenBabel11062423113D

 28 29  0  0  1  0  0  0  0  0999 V2000
  188.5480  175.5840  141.6520 C   0  0  2  0  0  3  0  0  0  0  0  0
  185.5780  177.5750  142.6430 N   0  0  0  0  0  0  0  0  0  0  0  0
  187.3800  176.4580  141.5540 N   0  0  0  0  0  0  0  0  0  0  0  0
  186.6390  176.8370  142.7230 C   0  0  0  0  0  3  0  0  0  0  0  0
  186.9630  176.8660  140.2760 C   0  0  0  0  0  0  0  0  0  0  0  0
  186.6210  177.2010  139.2230 N   0  0  0  0  0  0  0  0  0  0  0  0
  184.8260  177.9660  143.7950 C   0  0  0  0  0  0  0  0  0  0  0  0
  183.8800  178.7860  143.6620 O   0  0  0  0  0  0  0  0  0  0  0  0
  185.1250  177.4100  145.1560 C   0  0  0  0  0  2  0  0  0  0  0  0
  185.2980  177.8990  147.4640 F   0  0  0  0  0  0  0  0  0  0  0  0
  184.9510  178.4580  146.2490 C   0  0  0  0  0  0  0  0  0  0  0  0
  185.7700  179.5450  146.0030 F   0  0  0  0  0  0  0  0  0  0  0  0
  183.6340  178.8760  146.3070 F   0  0  0  0  0  0  0  0  0  0  0  0
  188.3700  174.2920  140.8620 C   0  0  0  0  0  2  0  0  0  0  0  0
  187.9290  173.2260  141.7460 N   0  0  0  0  0  1  0  0  0  0  0  0
  188.9770  175.3430  143.1050 C   0  0  0  0  0  2  0  0  0  0  0  0
  190.4890  175.2560  143.3080 C   0  0  0  0  0  2  0  0  0  0  0  0
  190.8890  173.9980  144.0660 C   0  0  0  0  0  2  0  0  0  0  0  0
  189.3580  175.1090  147.0840 C   0  0  2  0  0  3  0  0  0  0  0  0
  188.4640  177.3510  146.9060 C   0  0  0  0  0  2  0  0  0  0  0  0
  189.5110  174.0900  146.0630 N   0  0  0  0  0  2  0  0  0  0  0  0
  190.8760  174.2230  145.5720 C   0  0  2  0  0  3  0  0  0  0  0  0
  188.0810  175.8900  146.8360 C   0  0  0  0  0  2  0  0  0  0  0  0
  190.5090  176.0760  146.9270 C   0  0  2  0  0  3  0  0  0  0  0  0
  189.9140  177.3990  146.4870 C   0  0  0  0  0  2  0  0  0  0  0  0
  191.3810  175.5560  145.8890 N   0  0  0  0  0  0  0  0  0  0  0  0
  192.6950  175.3820  146.4890 C   0  0  0  0  0  2  0  0  0  0  0  0
  193.7170  176.2050  145.7300 C   0  0  0  0  0  1  0  0  0  0  0  0
  1 14  1  1  0  0  0
  1 16  1  0  0  0  0
  2  4  2  0  0  0  0
  2  7  1  0  0  0  0
  3  1  1  0  0  0  0
  3  4  1  0  0  0  0
  5  3  1  0  0  0  0
  6  5  3  0  0  0  0
  7  9  1  0  0  0  0
  8  7  2  0  0  0  0
  9 11  1  0  0  0  0
 11 13  1  0  0  0  0
 11 10  1  0  0  0  0
 12 11  1  0  0  0  0
 14 15  1  0  0  0  0
 16 17  1  0  0  0  0
 17 18  1  0  0  0  0
 19 23  1  6  0  0  0
 21 19  1  0  0  0  0
 22 18  1  6  0  0  0
 22 26  1  0  0  0  0
 22 21  1  0  0  0  0
 23 20  1  0  0  0  0
 24 25  1  6  0  0  0
 24 19  1  0  0  0  0
 25 20  1  0  0  0  0
 26 27  1  0  0  0  0
 26 24  1  0  0  0  0
 28 27  1  0  0  0  0
M  END
>  <MODEL>
3

>  <REMARK>
 VINA RESULT:      -6.3      1.684      2.294
  Name = 
  11 active torsions:
  status: ('A' for Active; 'I' for Inactive)
    1  A    between atoms: C_1  and  C_6
    2  A    between atoms: C_2  and  C_6
    3  A    between atoms: C_2  and  C_7
    4  A    between atoms: C_3  and  N_10
    5  A    between atoms: C_6  and  N_10
    6  A    between atoms: C_7  and  C_25
    7  A    between atoms: N_8  and  C_9
    8  A    between atoms: C_9  and  C_12
    9  A    between atoms: C_12  and  C_13
   10  A    between atoms: C_15  and  C_25
   11  A    between atoms: C_17  and  N_28
                            x       y       z     vdW  Elec       q    Type
                         _______ _______ _______ _____ _____    ______ ____

>  <TORSDO>
F 11

$$$$
=
 OpenBabel11062423113D

 28 29  0  0  1  0  0  0  0  0999 V2000
  186.5760  178.2330  141.7960 C   0  0  2  0  0  3  0  0  0  0  0  0
  185.3540  178.2390  145.3000 N   0  0  0  0  0  0  0  0  0  0  0  0
  185.6640  178.3000  142.9370 N   0  0  0  0  0  0  0  0  0  0  0  0
  186.1560  178.2250  144.2830 C   0  0  0  0  0  3  0  0  0  0  0  0
  184.2850  178.3740  142.6800 C   0  0  0  0  0  0  0  0  0  0  0  0
  183.1490  178.4350  142.4690 N   0  0  0  0  0  0  0  0  0  0  0  0
  185.8230  178.1680  146.6490 C   0  0  0  0  0  0  0  0  0  0  0  0
  185.8760  179.2210  147.3380 O   0  0  0  0  0  0  0  0  0  0  0  0
  186.2380  176.8670  147.2710 C   0  0  0  0  0  2  0  0  0  0  0  0
  188.0850  175.4380  147.6510 F   0  0  0  0  0  0  0  0  0  0  0  0
  187.6230  176.4320  146.8080 C   0  0  0  0  0  0  0  0  0  0  0  0
  187.5620  175.9350  145.5190 F   0  0  0  0  0  0  0  0  0  0  0  0
  188.5000  177.5000  146.8500 F   0  0  0  0  0  0  0  0  0  0  0  0
  185.8380  178.0020  140.4810 C   0  0  0  0  0  2  0  0  0  0  0  0
  186.7320  177.3920  139.5120 N   0  0  0  0  0  1  0  0  0  0  0  0
  187.7230  177.2400  142.0220 C   0  0  0  0  0  2  0  0  0  0  0  0
  189.0890  177.8940  142.2300 C   0  0  0  0  0  2  0  0  0  0  0  0
  189.5970  177.7060  143.6530 C   0  0  0  0  0  2  0  0  0  0  0  0
  191.0640  174.5030  143.1310 C   0  0  2  0  0  3  0  0  0  0  0  0
  189.7280  172.7040  144.0450 C   0  0  0  0  0  2  0  0  0  0  0  0
  190.6480  175.7870  142.6000 N   0  0  0  0  0  2  0  0  0  0  0  0
  190.7630  176.7280  143.7060 C   0  0  2  0  0  3  0  0  0  0  0  0
  190.0390  173.4450  142.7640 C   0  0  0  0  0  2  0  0  0  0  0  0
  191.0640  174.6190  144.6370 C   0  0  2  0  0  3  0  0  0  0  0  0
  189.9690  173.7050  145.1500 C   0  0  0  0  0  2  0  0  0  0  0  0
  190.7550  175.9980  144.9710 N   0  0  0  0  0  0  0  0  0  0  0  0
  191.8680  176.5030  145.7600 C   0  0  0  0  0  2  0  0  0  0  0  0
  191.5670  176.3310  147.2360 C   0  0  0  0  0  1  0  0  0  0  0  0
  1 14  1  6  0  0  0
  1 16  1  0  0  0  0
  1  3  1  0  0  0  0
  2  7  1  0  0  0  0
  3  4  1  0  0  0  0
  4  2  2  0  0  0  0
  5  3  1  0  0  0  0
  6  5  3  0  0  0  0
  7  9  1  0  0  0  0
  7  8  2  0  0  0  0
 11 13  1  0  0  0  0
 11  9  1  0  0  0  0
 11 10  1  0  0  0  0
 12 11  1  0  0  0  0
 15 14  1  0  0  0  0
 16 17  1  0  0  0  0
 17 18  1  0  0  0  0
 19 23  1  1  0  0  0
 19 24  1  0  0  0  0
 20 25  1  0  0  0  0
 21 19  1  0  0  0  0
 21 22  1  0  0  0  0
 22 18  1  1  0  0  0
 22 26  1  0  0  0  0
 23 20  1  0  0  0  0
 24 26  1  0  0  0  0
 24 25  1  1  0  0  0
 26 27  1  0  0  0  0
 27 28  1  0  0  0  0
M  END
>  <MODEL>
4

>  <REMARK>
 VINA RESULT:      -6.1      1.616      2.313
  Name = 
  11 active torsions:
  status: ('A' for Active; 'I' for Inactive)
    1  A    between atoms: C_1  and  C_6
    2  A    between atoms: C_2  and  C_6
    3  A    between atoms: C_2  and  C_7
    4  A    between atoms: C_3  and  N_10
    5  A    between atoms: C_6  and  N_10
    6  A    between atoms: C_7  and  C_25
    7  A    between atoms: N_8  and  C_9
    8  A    between atoms: C_9  and  C_12
    9  A    between atoms: C_12  and  C_13
   10  A    between atoms: C_15  and  C_25
   11  A    between atoms: C_17  and  N_28
                            x       y       z     vdW  Elec       q    Type
                         _______ _______ _______ _____ _____    ______ ____

>  <TORSDO>
F 11

$$$$
=
 OpenBabel11062423113D

 28 29  0  0  1  0  0  0  0  0999 V2000
  188.9010  173.8260  142.5130 C   0  0  2  0  0  3  0  0  0  0  0  0
  190.3420  174.9180  145.7520 N   0  0  0  0  0  0  0  0  0  0  0  0
  189.8290  174.4050  143.4820 N   0  0  0  0  0  0  0  0  0  0  0  0
  189.5480  174.3690  144.8880 C   0  0  0  0  0  3  0  0  0  0  0  0
  190.9740  175.0570  142.9950 C   0  0  0  0  0  0  0  0  0  0  0  0
  191.9170  175.5930  142.5930 N   0  0  0  0  0  0  0  0  0  0  0  0
  190.0830  174.8920  147.1590 C   0  0  0  0  0  0  0  0  0  0  0  0
  188.9690  174.4750  147.5710 O   0  0  0  0  0  0  0  0  0  0  0  0
  191.1130  175.3330  148.1570 C   0  0  0  0  0  2  0  0  0  0  0  0
  191.6870  177.3550  149.2430 F   0  0  0  0  0  0  0  0  0  0  0  0
  191.4680  176.8060  147.9940 C   0  0  0  0  0  0  0  0  0  0  0  0
  192.6170  176.9390  147.2360 F   0  0  0  0  0  0  0  0  0  0  0  0
  190.4300  177.4850  147.3810 F   0  0  0  0  0  0  0  0  0  0  0  0
  189.5760  172.8000  141.6080 C   0  0  0  0  0  2  0  0  0  0  0  0
  189.8060  171.5670  142.3410 N   0  0  0  0  0  1  0  0  0  0  0  0
  188.1280  174.8960  141.7310 C   0  0  0  0  0  2  0  0  0  0  0  0
  186.9890  175.5470  142.5140 C   0  0  0  0  0  2  0  0  0  0  0  0
  186.5020  176.8270  141.8490 C   0  0  0  0  0  2  0  0  0  0  0  0
  186.9580  178.2890  145.0630 C   0  0  2  0  0  3  0  0  0  0  0  0
  186.3450  176.7940  146.8650 C   0  0  0  0  0  2  0  0  0  0  0  0
  187.4790  177.9850  143.7450 N   0  0  0  0  0  2  0  0  0  0  0  0
  186.3230  177.9510  142.8600 C   0  0  2  0  0  3  0  0  0  0  0  0
  187.5260  177.3100  146.0740 C   0  0  0  0  0  2  0  0  0  0  0  0
  185.4650  178.0650  145.0170 C   0  0  2  0  0  3  0  0  0  0  0  0
  185.1680  176.8860  145.9230 C   0  0  0  0  0  2  0  0  0  0  0  0
  185.1120  177.7370  143.6470 N   0  0  0  0  0  0  0  0  0  0  0  0
  184.1410  178.7290  143.2110 C   0  0  0  0  0  2  0  0  0  0  0  0
  183.3030  178.1620  142.0820 C   0  0  0  0  0  1  0  0  0  0  0  0
  1 14  1  6  0  0  0
  1  3  1  0  0  0  0
  2  7  1  0  0  0  0
  3  4  1  0  0  0  0
  4  2  2  0  0  0  0
  5  3  1  0  0  0  0
  6  5  3  0  0  0  0
  7  8  2  0  0  0  0
  7  9  1  0  0  0  0
 11  9  1  0  0  0  0
 11 10  1  0  0  0  0
 12 11  1  0  0  0  0
 13 11  1  0  0  0  0
 14 15  1  0  0  0  0
 16  1  1  0  0  0  0
 16 17  1  0  0  0  0
 18 17  1  0  0  0  0
 19 23  1  1  0  0  0
 21 19  1  0  0  0  0
 22 18  1  6  0  0  0
 22 26  1  0  0  0  0
 22 21  1  0  0  0  0
 23 20  1  0  0  0  0
 24 19  1  0  0  0  0
 24 25  1  1  0  0  0
 25 20  1  0  0  0  0
 26 24  1  0  0  0  0
 27 26  1  0  0  0  0
 28 27  1  0  0  0  0
M  END
>  <MODEL>
5

>  <REMARK>
 VINA RESULT:      -6.1      2.670      6.049
  Name = 
  11 active torsions:
  status: ('A' for Active; 'I' for Inactive)
    1  A    between atoms: C_1  and  C_6
    2  A    between atoms: C_2  and  C_6
    3  A    between atoms: C_2  and  C_7
    4  A    between atoms: C_3  and  N_10
    5  A    between atoms: C_6  and  N_10
    6  A    between atoms: C_7  and  C_25
    7  A    between atoms: N_8  and  C_9
    8  A    between atoms: C_9  and  C_12
    9  A    between atoms: C_12  and  C_13
   10  A    between atoms: C_15  and  C_25
   11  A    between atoms: C_17  and  N_28
                            x       y       z     vdW  Elec       q    Type
                         _______ _______ _______ _____ _____    ______ ____

>  <TORSDO>
F 11

$$$$
=
 OpenBabel11062423113D

 28 29  0  0  1  0  0  0  0  0999 V2000
  186.6240  177.8430  141.2770 C   0  0  2  0  0  3  0  0  0  0  0  0
  184.4250  178.0550  144.2590 N   0  0  0  0  0  0  0  0  0  0  0  0
  185.4220  178.0090  142.0950 N   0  0  0  0  0  0  0  0  0  0  0  0
  185.4890  177.9530  143.5270 C   0  0  0  0  0  3  0  0  0  0  0  0
  184.1900  178.1600  141.4380 C   0  0  0  0  0  0  0  0  0  0  0  0
  183.1750  178.2840  140.8970 N   0  0  0  0  0  0  0  0  0  0  0  0
  184.4680  178.0050  145.6880 C   0  0  0  0  0  0  0  0  0  0  0  0
  183.9420  178.9360  146.3520 O   0  0  0  0  0  0  0  0  0  0  0  0
  185.1100  176.8600  146.4160 C   0  0  0  0  0  2  0  0  0  0  0  0
  186.0020  177.9210  148.3330 F   0  0  0  0  0  0  0  0  0  0  0  0
  186.3680  177.2920  147.1580 C   0  0  0  0  0  0  0  0  0  0  0  0
  187.1450  176.1890  147.4620 F   0  0  0  0  0  0  0  0  0  0  0  0
  187.1010  178.1750  146.3860 F   0  0  0  0  0  0  0  0  0  0  0  0
  186.2940  177.6340  139.8030 C   0  0  0  0  0  2  0  0  0  0  0  0
  187.0560  176.5140  139.2780 N   0  0  0  0  0  1  0  0  0  0  0  0
  187.5680  176.7710  141.8370 C   0  0  0  0  0  2  0  0  0  0  0  0
  188.9550  177.2900  142.2140 C   0  0  0  0  0  2  0  0  0  0  0  0
  189.2050  177.2020  143.7130 C   0  0  0  0  0  2  0  0  0  0  0  0
  190.4570  174.7280  145.9470 C   0  0  2  0  0  3  0  0  0  0  0  0
  191.0860  175.6430  148.0980 C   0  0  0  0  0  2  0  0  0  0  0  0
  189.4360  175.1670  145.0170 N   0  0  0  0  0  2  0  0  0  0  0  0
  190.1150  176.0320  144.0620 C   0  0  2  0  0  3  0  0  0  0  0  0
  189.9700  174.9270  147.3710 C   0  0  0  0  0  2  0  0  0  0  0  0
  191.6550  175.6290  145.7560 C   0  0  2  0  0  3  0  0  0  0  0  0
  191.8080  176.4330  147.0320 C   0  0  0  0  0  2  0  0  0  0  0  0
  191.3630  176.5160  144.6440 N   0  0  0  0  0  0  0  0  0  0  0  0
  192.4060  176.3060  143.6510 C   0  0  0  0  0  2  0  0  0  0  0  0
  193.7660  176.3770  144.3150 C   0  0  0  0  0  1  0  0  0  0  0  0
  1 14  1  6  0  0  0
  1 16  1  0  0  0  0
  1  3  1  0  0  0  0
  2  7  1  0  0  0  0
  3  4  1  0  0  0  0
  4  2  2  0  0  0  0
  5  3  1  0  0  0  0
  6  5  3  0  0  0  0
  7  8  2  0  0  0  0
  7  9  1  0  0  0  0
  9 11  1  0  0  0  0
 11 12  1  0  0  0  0
 11 10  1  0  0  0  0
 13 11  1  0  0  0  0
 15 14  1  0  0  0  0
 16 17  1  0  0  0  0
 17 18  1  0  0  0  0
 19 23  1  1  0  0  0
 21 19  1  0  0  0  0
 22 18  1  1  0  0  0
 22 26  1  0  0  0  0
 22 21  1  0  0  0  0
 23 20  1  0  0  0  0
 24 19  1  0  0  0  0
 24 25  1  1  0  0  0
 25 20  1  0  0  0  0
 26 24  1  0  0  0  0
 27 28  1  0  0  0  0
 27 26  1  0  0  0  0
M  END
>  <MODEL>
6

>  <REMARK>
 VINA RESULT:      -6.0      1.001      1.380
  Name = 
  11 active torsions:
  status: ('A' for Active; 'I' for Inactive)
    1  A    between atoms: C_1  and  C_6
    2  A    between atoms: C_2  and  C_6
    3  A    between atoms: C_2  and  C_7
    4  A    between atoms: C_3  and  N_10
    5  A    between atoms: C_6  and  N_10
    6  A    between atoms: C_7  and  C_25
    7  A    between atoms: N_8  and  C_9
    8  A    between atoms: C_9  and  C_12
    9  A    between atoms: C_12  and  C_13
   10  A    between atoms: C_15  and  C_25
   11  A    between atoms: C_17  and  N_28
                            x       y       z     vdW  Elec       q    Type
                         _______ _______ _______ _____ _____    ______ ____

>  <TORSDO>
F 11

$$$$
=
 OpenBabel11062423113D

 28 29  0  0  1  0  0  0  0  0999 V2000
  190.0920  173.3880  142.3060 C   0  0  2  0  0  3  0  0  0  0  0  0
  187.8360  176.0090  140.9600 N   0  0  0  0  0  0  0  0  0  0  0  0
  189.1430  174.0710  141.4280 N   0  0  0  0  0  0  0  0  0  0  0  0
  188.7090  175.4100  141.7060 C   0  0  0  0  0  3  0  0  0  0  0  0
  188.6150  173.3570  140.3390 C   0  0  0  0  0  0  0  0  0  0  0  0
  188.1820  172.7680  139.4420 N   0  0  0  0  0  0  0  0  0  0  0  0
  187.3910  177.3440  141.2180 C   0  0  0  0  0  0  0  0  0  0  0  0
  188.2390  178.2300  141.5030 O   0  0  0  0  0  0  0  0  0  0  0  0
  185.9410  177.7190  141.1390 C   0  0  0  0  0  2  0  0  0  0  0  0
  185.7630  178.7980  143.2370 F   0  0  0  0  0  0  0  0  0  0  0  0
  185.2800  177.7260  142.5120 C   0  0  0  0  0  0  0  0  0  0  0  0
  183.9080  177.8510  142.3810 F   0  0  0  0  0  0  0  0  0  0  0  0
  185.5730  176.5560  143.1910 F   0  0  0  0  0  0  0  0  0  0  0  0
  191.1150  172.5700  141.5240 C   0  0  0  0  0  2  0  0  0  0  0  0
  192.0990  173.4520  140.9200 N   0  0  0  0  0  1  0  0  0  0  0  0
  189.3930  172.5790  143.4060 C   0  0  0  0  0  2  0  0  0  0  0  0
  189.6940  173.0570  144.8260 C   0  0  0  0  0  2  0  0  0  0  0  0
  191.0430  173.7580  144.9150 C   0  0  0  0  0  2  0  0  0  0  0  0
  189.3250  176.2040  146.8510 C   0  0  2  0  0  3  0  0  0  0  0  0
  187.6970  177.4420  145.5580 C   0  0  0  0  0  2  0  0  0  0  0  0
  189.7900  174.8400  146.6900 N   0  0  0  0  0  2  0  0  0  0  0  0
  191.0040  174.9260  145.8910 C   0  0  2  0  0  3  0  0  0  0  0  0
  187.8470  176.2810  146.5140 C   0  0  0  0  0  2  0  0  0  0  0  0
  190.0580  177.0490  145.8350 C   0  0  2  0  0  3  0  0  0  0  0  0
  189.0230  177.5390  144.8410 C   0  0  0  0  0  2  0  0  0  0  0  0
  191.0210  176.1930  145.1650 N   0  0  0  0  0  0  0  0  0  0  0  0
  192.3330  176.7860  145.3750 C   0  0  0  0  0  2  0  0  0  0  0  0
  192.9170  176.2850  146.6800 C   0  0  0  0  0  1  0  0  0  0  0  0
  1 14  1  6  0  0  0
  1 16  1  0  0  0  0
  2  7  1  0  0  0  0
  2  4  2  0  0  0  0
  3  4  1  0  0  0  0
  3  1  1  0  0  0  0
  5  3  1  0  0  0  0
  6  5  3  0  0  0  0
  7  8  2  0  0  0  0
  9  7  1  0  0  0  0
  9 11  1  0  0  0  0
 11 13  1  0  0  0  0
 11 10  1  0  0  0  0
 12 11  1  0  0  0  0
 15 14  1  0  0  0  0
 16 17  1  0  0  0  0
 17 18  1  0  0  0  0
 19 23  1  6  0  0  0
 20 23  1  0  0  0  0
 21 19  1  0  0  0  0
 22 18  1  6  0  0  0
 22 21  1  0  0  0  0
 24 25  1  6  0  0  0
 24 19  1  0  0  0  0
 25 20  1  0  0  0  0
 26 27  1  0  0  0  0
 26 24  1  0  0  0  0
 26 22  1  0  0  0  0
 27 28  1  0  0  0  0
M  END
>  <MODEL>
7

>  <REMARK>
 VINA RESULT:      -5.9      2.723      4.347
  Name = 
  11 active torsions:
  status: ('A' for Active; 'I' for Inactive)
    1  A    between atoms: C_1  and  C_6
    2  A    between atoms: C_2  and  C_6
    3  A    between atoms: C_2  and  C_7
    4  A    between atoms: C_3  and  N_10
    5  A    between atoms: C_6  and  N_10
    6  A    between atoms: C_7  and  C_25
    7  A    between atoms: N_8  and  C_9
    8  A    between atoms: C_9  and  C_12
    9  A    between atoms: C_12  and  C_13
   10  A    between atoms: C_15  and  C_25
   11  A    between atoms: C_17  and  N_28
                            x       y       z     vdW  Elec       q    Type
                         _______ _______ _______ _____ _____    ______ ____

>  <TORSDO>
F 11

$$$$
=
 OpenBabel11062423113D

 28 29  0  0  1  0  0  0  0  0999 V2000
  189.5400  175.7080  144.6340 C   0  0  2  0  0  3  0  0  0  0  0  0
  186.7130  178.0240  143.9900 N   0  0  0  0  0  0  0  0  0  0  0  0
  188.4610  176.4040  143.9340 N   0  0  0  0  0  0  0  0  0  0  0  0
  187.6990  177.4310  144.5850 C   0  0  0  0  0  3  0  0  0  0  0  0
  188.1460  175.9950  142.6280 C   0  0  0  0  0  0  0  0  0  0  0  0
  187.8870  175.6580  141.5520 N   0  0  0  0  0  0  0  0  0  0  0  0
  185.9410  179.0520  144.6190 C   0  0  0  0  0  0  0  0  0  0  0  0
  185.4200  179.9510  143.9080 O   0  0  0  0  0  0  0  0  0  0  0  0
  185.7240  179.0750  146.1030 C   0  0  0  0  0  2  0  0  0  0  0  0
  184.2280  178.5080  147.8470 F   0  0  0  0  0  0  0  0  0  0  0  0
  184.4930  178.2750  146.5100 C   0  0  0  0  0  0  0  0  0  0  0  0
  183.3990  178.6670  145.7600 F   0  0  0  0  0  0  0  0  0  0  0  0
  184.7170  176.9220  146.3260 F   0  0  0  0  0  0  0  0  0  0  0  0
  189.4350  175.8550  146.1480 C   0  0  0  0  0  2  0  0  0  0  0  0
  189.3130  174.5460  146.7660 N   0  0  0  0  0  1  0  0  0  0  0  0
  190.9250  176.0830  144.0910 C   0  0  0  0  0  2  0  0  0  0  0  0
  191.6760  174.9260  143.4320 C   0  0  0  0  0  2  0  0  0  0  0  0
  191.8090  173.7310  144.3650 C   0  0  0  0  0  2  0  0  0  0  0  0
  194.2910  175.3240  146.3620 C   0  0  2  0  0  3  0  0  0  0  0  0
  194.9360  177.4900  145.4970 C   0  0  0  0  0  2  0  0  0  0  0  0
  193.0210  174.6300  146.2670 N   0  0  0  0  0  2  0  0  0  0  0  0
  193.1360  173.7500  145.1130 C   0  0  2  0  0  3  0  0  0  0  0  0
  194.0470  176.8140  146.5160 C   0  0  0  0  0  2  0  0  0  0  0  0
  195.0100  175.1240  145.0480 C   0  0  2  0  0  3  0  0  0  0  0  0
  195.0970  176.4840  144.3830 C   0  0  0  0  0  2  0  0  0  0  0  0
  194.2030  174.2280  144.2390 N   0  0  0  0  0  0  0  0  0  0  0  0
  195.0380  173.0800  143.9190 C   0  0  0  0  0  2  0  0  0  0  0  0
  195.3110  172.2800  145.1780 C   0  0  0  0  0  1  0  0  0  0  0  0
  1 16  1  6  0  0  0
  1 14  1  0  0  0  0
  2  4  2  0  0  0  0
  2  7  1  0  0  0  0
  3  4  1  0  0  0  0
  3  1  1  0  0  0  0
  5  3  1  0  0  0  0
  6  5  3  0  0  0  0
  7  9  1  0  0  0  0
  8  7  2  0  0  0  0
  9 11  1  0  0  0  0
 11 10  1  0  0  0  0
 12 11  1  0  0  0  0
 13 11  1  0  0  0  0
 14 15  1  0  0  0  0
 17 16  1  0  0  0  0
 17 18  1  0  0  0  0
 19 23  1  6  0  0  0
 20 23  1  0  0  0  0
 21 19  1  0  0  0  0
 22 18  1  6  0  0  0
 22 21  1  0  0  0  0
 24 25  1  6  0  0  0
 24 19  1  0  0  0  0
 25 20  1  0  0  0  0
 26 24  1  0  0  0  0
 26 22  1  0  0  0  0
 27 26  1  0  0  0  0
 27 28  1  0  0  0  0
M  END
>  <MODEL>
8

>  <REMARK>
 VINA RESULT:      -5.8      2.164      3.707
  Name = 
  11 active torsions:
  status: ('A' for Active; 'I' for Inactive)
    1  A    between atoms: C_1  and  C_6
    2  A    between atoms: C_2  and  C_6
    3  A    between atoms: C_2  and  C_7
    4  A    between atoms: C_3  and  N_10
    5  A    between atoms: C_6  and  N_10
    6  A    between atoms: C_7  and  C_25
    7  A    between atoms: N_8  and  C_9
    8  A    between atoms: C_9  and  C_12
    9  A    between atoms: C_12  and  C_13
   10  A    between atoms: C_15  and  C_25
   11  A    between atoms: C_17  and  N_28
                            x       y       z     vdW  Elec       q    Type
                         _______ _______ _______ _____ _____    ______ ____

>  <TORSDO>
F 11

$$$$
=
 OpenBabel11062423113D

 28 29  0  0  1  0  0  0  0  0999 V2000
  190.1950  176.3380  144.8130 C   0  0  2  0  0  3  0  0  0  0  0  0
  186.6650  176.5740  145.9330 N   0  0  0  0  0  0  0  0  0  0  0  0
  188.9690  176.0850  145.5690 N   0  0  0  0  0  0  0  0  0  0  0  0
  187.7450  176.7580  145.2420 C   0  0  0  0  0  3  0  0  0  0  0  0
  189.0370  175.2120  146.6680 C   0  0  0  0  0  0  0  0  0  0  0  0
  189.0930  174.4920  147.5720 N   0  0  0  0  0  0  0  0  0  0  0  0
  185.4340  177.2330  145.6230 C   0  0  0  0  0  0  0  0  0  0  0  0
  184.5510  177.3370  146.5150 O   0  0  0  0  0  0  0  0  0  0  0  0
  185.1740  177.8190  144.2670 C   0  0  0  0  0  2  0  0  0  0  0  0
  185.9950  179.7290  143.1360 F   0  0  0  0  0  0  0  0  0  0  0  0
  185.3060  179.3370  144.2680 C   0  0  0  0  0  0  0  0  0  0  0  0
  184.0540  179.9250  144.2580 F   0  0  0  0  0  0  0  0  0  0  0  0
  186.0040  179.7570  145.3860 F   0  0  0  0  0  0  0  0  0  0  0  0
  190.4130  177.8250  144.5500 C   0  0  0  0  0  2  0  0  0  0  0  0
  190.6450  178.0500  143.1340 N   0  0  0  0  0  1  0  0  0  0  0  0
  190.2830  175.4870  143.5400 C   0  0  0  0  0  2  0  0  0  0  0  0
  191.5270  174.6030  143.4600 C   0  0  0  0  0  2  0  0  0  0  0  0
  191.5850  173.6000  144.6030 C   0  0  0  0  0  2  0  0  0  0  0  0
  194.0790  175.3120  146.4820 C   0  0  2  0  0  3  0  0  0  0  0  0
  194.7140  177.4240  145.4840 C   0  0  0  0  0  2  0  0  0  0  0  0
  192.8100  174.6130  146.4390 N   0  0  0  0  0  2  0  0  0  0  0  0
  192.9170  173.6640  145.3380 C   0  0  2  0  0  3  0  0  0  0  0  0
  193.8340  176.8080  146.5490 C   0  0  0  0  0  2  0  0  0  0  0  0
  194.7880  175.0350  145.1770 C   0  0  2  0  0  3  0  0  0  0  0  0
  194.8670  176.3520  144.4310 C   0  0  0  0  0  2  0  0  0  0  0  0
  193.9770  174.0910  144.4290 N   0  0  0  0  0  0  0  0  0  0  0  0
  194.8110  172.9270  144.1720 C   0  0  0  0  0  2  0  0  0  0  0  0
  194.7590  171.9880  145.3610 C   0  0  0  0  0  1  0  0  0  0  0  0
  1 16  1  6  0  0  0
  1  3  1  0  0  0  0
  3  5  1  0  0  0  0
  4  3  1  0  0  0  0
  4  2  2  0  0  0  0
  5  6  3  0  0  0  0
  7  2  1  0  0  0  0
  7  8  2  0  0  0  0
  9 11  1  0  0  0  0
  9  7  1  0  0  0  0
 10 11  1  0  0  0  0
 11 13  1  0  0  0  0
 12 11  1  0  0  0  0
 14  1  1  0  0  0  0
 15 14  1  0  0  0  0
 17 16  1  0  0  0  0
 17 18  1  0  0  0  0
 19 23  1  6  0  0  0
 20 23  1  0  0  0  0
 21 19  1  0  0  0  0
 22 18  1  6  0  0  0
 22 21  1  0  0  0  0
 24 25  1  6  0  0  0
 24 19  1  0  0  0  0
 25 20  1  0  0  0  0
 26 24  1  0  0  0  0
 26 22  1  0  0  0  0
 27 26  1  0  0  0  0
 27 28  1  0  0  0  0
M  END
>  <MODEL>
9

>  <REMARK>
 VINA RESULT:      -5.7      2.693      4.328
  Name = 
  11 active torsions:
  status: ('A' for Active; 'I' for Inactive)
    1  A    between atoms: C_1  and  C_6
    2  A    between atoms: C_2  and  C_6
    3  A    between atoms: C_2  and  C_7
    4  A    between atoms: C_3  and  N_10
    5  A    between atoms: C_6  and  N_10
    6  A    between atoms: C_7  and  C_25
    7  A    between atoms: N_8  and  C_9
    8  A    between atoms: C_9  and  C_12
    9  A    between atoms: C_12  and  C_13
   10  A    between atoms: C_15  and  C_25
   11  A    between atoms: C_17  and  N_28
                            x       y       z     vdW  Elec       q    Type
                         _______ _______ _______ _____ _____    ______ ____

>  <TORSDO>
F 11

$$$$
