=
 OpenBabel11062423103D

 28 32  0  0  1  0  0  0  0  0999 V2000
  186.5960  176.9470  145.5370 C   0  0  2  0  0  3  0  0  0  0  0  0
  184.7050  179.0470  146.3560 C   0  0  0  0  0  2  0  0  0  0  0  0
  192.3150  175.9030  143.9850 C   0  0  0  0  0  0  0  0  0  0  0  0
  188.6860  177.0790  144.8330 C   0  0  2  0  0  3  0  0  0  0  0  0
  190.3450  176.0080  146.3480 C   0  0  0  0  0  3  0  0  0  0  0  0
  185.9320  176.7810  141.7650 O   0  0  0  0  0  0  0  0  0  0  0  0
  187.0200  178.2050  143.3530 C   0  0  1  0  0  3  0  0  0  0  0  0
  188.5840  175.4930  142.0720 O   0  0  0  0  0  1  0  0  0  0  0  0
  190.1630  176.9100  145.1630 C   0  0  1  0  0  3  0  0  0  0  0  0
  188.4900  178.1830  143.7840 C   0  0  2  0  0  3  0  0  0  0  0  0
  191.5330  175.9030  146.9320 C   0  0  0  0  0  0  0  0  0  0  0  0
  192.7010  176.6590  146.3700 C   0  0  1  0  0  3  0  0  0  0  0  0
  185.3630  178.1340  147.3810 C   0  0  0  0  0  2  0  0  0  0  0  0
  187.8830  177.3350  145.9510 O   0  0  0  0  0  0  0  0  0  0  0  0
  190.8570  176.3610  143.8950 C   0  0  1  0  0  3  0  0  0  0  0  0
  184.9790  180.1490  144.2150 N   0  0  0  0  0  1  0  0  0  0  0  0
  186.9710  177.2020  142.2480 C   0  0  0  0  0  0  0  0  0  0  0  0
  190.6910  177.3490  142.7310 C   0  0  0  0  0  2  0  0  0  0  0  0
  193.7800  176.6230  147.2540 O   0  0  0  0  0  1  0  0  0  0  0  0
  186.0190  177.9480  144.5050 C   0  0  2  0  0  3  0  0  0  0  0  0
  188.3200  176.8240  141.7360 C   0  0  1  0  0  3  0  0  0  0  0  0
  191.6890  175.0630  148.0280 O   0  0  0  0  0  1  0  0  0  0  0  0
  185.6720  176.7830  146.7440 C   0  0  0  0  0  2  0  0  0  0  0  0
  185.6400  179.2790  145.1730 C   0  0  2  0  0  3  0  0  0  0  0  0
  193.1040  176.0590  145.0600 C   0  0  0  0  0  3  0  0  0  0  0  0
  189.2330  177.7870  142.5060 C   0  0  1  0  0  3  0  0  0  0  0  0
  194.0620  175.7200  142.2310 C   0  0  0  0  0  1  0  0  0  0  0  0
  192.9000  175.2450  142.8970 O   0  0  0  0  0  0  0  0  0  0  0  0
  1 14  1  0  0  0  0
  1 23  1  1  0  0  0
  2 13  1  0  0  0  0
  3 25  2  0  0  0  0
  4  9  1  0  0  0  0
  4 14  1  1  0  0  0
  5 11  2  0  0  0  0
  6 17  2  0  0  0  0
  7 17  1  6  0  0  0
  7 10  1  0  0  0  0
  7 20  1  0  0  0  0
  9  5  1  1  0  0  0
 10  4  1  0  0  0  0
 11 22  1  0  0  0  0
 12 11  1  0  0  0  0
 12 19  1  0  0  0  0
 15  3  1  0  0  0  0
 15  9  1  0  0  0  0
 16 24  1  0  0  0  0
 18 15  1  0  0  0  0
 20 24  1  0  0  0  0
 20  1  1  0  0  0  0
 21  8  1  0  0  0  0
 21 17  1  0  0  0  0
 21 26  1  0  0  0  0
 23 13  1  0  0  0  0
 24  2  1  0  0  0  0
 25 12  1  0  0  0  0
 26 18  1  0  0  0  0
 26 10  1  0  0  0  0
 27 28  1  0  0  0  0
 28  3  1  0  0  0  0
M  END
>  <MODEL>
1

>  <REMARK>
 VINA RESULT:      -8.5      0.000      0.000
  Name = 
  1 active torsions:
  status: ('A' for Active; 'I' for Inactive)
    1  A    between atoms: C_3  and  O_18
                            x       y       z     vdW  Elec       q    Type
                         _______ _______ _______ _____ _____    ______ ____

>  <TORSDO>
F 1

$$$$
=
 OpenBabel11062423103D

 28 32  0  0  1  0  0  0  0  0999 V2000
  192.0520  174.6940  144.4320 C   0  0  2  0  0  3  0  0  0  0  0  0
  194.9200  175.3490  144.4150 C   0  0  0  0  0  2  0  0  0  0  0  0
  186.5590  176.9270  143.4120 C   0  0  0  0  0  0  0  0  0  0  0  0
  190.2750  175.9790  144.1600 C   0  0  2  0  0  3  0  0  0  0  0  0
  188.9370  175.4560  142.1280 C   0  0  0  0  0  3  0  0  0  0  0  0
  191.1870  175.2490  148.1260 O   0  0  0  0  0  0  0  0  0  0  0  0
  191.6600  176.5340  146.1620 C   0  0  1  0  0  3  0  0  0  0  0  0
  188.5550  175.3350  146.7630 O   0  0  0  0  0  1  0  0  0  0  0  0
  189.1600  176.4440  143.2330 C   0  0  1  0  0  3  0  0  0  0  0  0
  190.6650  177.0940  145.1410 C   0  0  2  0  0  3  0  0  0  0  0  0
  188.1650  175.7720  141.0930 C   0  0  0  0  0  0  0  0  0  0  0  0
  187.4840  177.1080  141.0640 C   0  0  1  0  0  3  0  0  0  0  0  0
  194.2700  174.6180  143.2490 C   0  0  0  0  0  2  0  0  0  0  0  0
  191.4120  175.5160  143.4870 O   0  0  0  0  0  0  0  0  0  0  0  0
  187.8970  176.6490  144.1020 C   0  0  1  0  0  3  0  0  0  0  0  0
  194.5740  176.9760  146.1780 N   0  0  0  0  0  1  0  0  0  0  0  0
  190.7790  175.9640  147.2230 C   0  0  0  0  0  0  0  0  0  0  0  0
  188.1610  177.7120  145.1780 C   0  0  0  0  0  2  0  0  0  0  0  0
  186.9350  177.3500  139.8030 O   0  0  0  0  0  1  0  0  0  0  0  0
  192.6840  175.5390  145.5670 C   0  0  2  0  0  3  0  0  0  0  0  0
  189.3620  176.4180  147.1200 C   0  0  1  0  0  3  0  0  0  0  0  0
  187.9660  174.8470  140.0760 O   0  0  0  0  0  1  0  0  0  0  0  0
  193.0860  173.7980  143.7500 C   0  0  0  0  0  2  0  0  0  0  0  0
  193.9230  176.3000  145.0680 C   0  0  2  0  0  3  0  0  0  0  0  0
  186.4030  177.1440  142.0970 C   0  0  0  0  0  3  0  0  0  0  0  0
  189.4430  177.4520  145.9900 C   0  0  1  0  0  3  0  0  0  0  0  0
  184.5770  178.0990  144.3400 C   0  0  0  0  0  1  0  0  0  0  0  0
  185.3820  176.9410  144.1710 O   0  0  0  0  0  0  0  0  0  0  0  0
  1 23  1  6  0  0  0
  1 20  1  0  0  0  0
  2 24  1  0  0  0  0
  3 15  1  0  0  0  0
  3 28  1  0  0  0  0
  4 14  1  6  0  0  0
  4 10  1  0  0  0  0
  7 17  1  1  0  0  0
  8 21  1  0  0  0  0
  9  5  1  6  0  0  0
  9 15  1  0  0  0  0
  9  4  1  0  0  0  0
 10 26  1  0  0  0  0
 10  7  1  0  0  0  0
 11  5  2  0  0  0  0
 12 11  1  0  0  0  0
 12 25  1  0  0  0  0
 13 23  1  0  0  0  0
 13  2  1  0  0  0  0
 14  1  1  0  0  0  0
 15 18  1  0  0  0  0
 17  6  2  0  0  0  0
 18 26  1  0  0  0  0
 19 12  1  0  0  0  0
 20  7  1  0  0  0  0
 21 17  1  0  0  0  0
 22 11  1  0  0  0  0
 24 20  1  0  0  0  0
 24 16  1  0  0  0  0
 25  3  2  0  0  0  0
 26 21  1  0  0  0  0
 28 27  1  0  0  0  0
M  END
>  <MODEL>
2

>  <REMARK>
 VINA RESULT:      -8.1      2.577      7.056
  Name = 
  1 active torsions:
  status: ('A' for Active; 'I' for Inactive)
    1  A    between atoms: C_3  and  O_18
                            x       y       z     vdW  Elec       q    Type
                         _______ _______ _______ _____ _____    ______ ____

>  <TORSDO>
F 1

$$$$
=
 OpenBabel11062423103D

 28 32  0  0  1  0  0  0  0  0999 V2000
  187.0220  178.1070  144.7410 C   0  0  2  0  0  3  0  0  0  0  0  0
  184.5680  178.5380  146.3050 C   0  0  0  0  0  2  0  0  0  0  0  0
  190.5870  173.8770  142.3720 C   0  0  0  0  0  0  0  0  0  0  0  0
  188.1180  176.2500  144.2550 C   0  0  2  0  0  3  0  0  0  0  0  0
  188.1650  175.6980  141.8290 C   0  0  0  0  0  3  0  0  0  0  0  0
  189.6920  178.2910  147.4870 O   0  0  0  0  0  0  0  0  0  0  0  0
  188.0110  176.7830  146.6920 C   0  0  1  0  0  3  0  0  0  0  0  0
  191.0700  176.9120  145.2540 O   0  0  0  0  0  1  0  0  0  0  0  0
  188.4400  175.1880  143.2120 C   0  0  1  0  0  3  0  0  0  0  0  0
  188.1680  175.6540  145.6680 C   0  0  2  0  0  3  0  0  0  0  0  0
  188.1700  174.8620  140.7950 C   0  0  0  0  0  0  0  0  0  0  0  0
  188.4990  173.4160  141.0190 C   0  0  1  0  0  3  0  0  0  0  0  0
  184.5660  178.6480  144.7870 C   0  0  0  0  0  2  0  0  0  0  0  0
  186.8890  176.8900  144.0490 O   0  0  0  0  0  0  0  0  0  0  0  0
  189.9210  174.7880  143.4070 C   0  0  1  0  0  3  0  0  0  0  0  0
  185.5700  177.4300  148.2130 N   0  0  0  0  0  1  0  0  0  0  0  0
  189.4100  177.2640  146.8890 C   0  0  0  0  0  0  0  0  0  0  0  0
  190.1340  174.2180  144.8180 C   0  0  0  0  0  2  0  0  0  0  0  0
  188.2080  172.6660  139.8780 O   0  0  0  0  0  1  0  0  0  0  0  0
  187.0020  177.8800  146.2740 C   0  0  2  0  0  3  0  0  0  0  0  0
  190.4370  176.3250  146.3530 C   0  0  1  0  0  3  0  0  0  0  0  0
  187.9160  175.3470  139.5180 O   0  0  0  0  0  1  0  0  0  0  0  0
  185.9420  179.0940  144.3010 C   0  0  0  0  0  2  0  0  0  0  0  0
  185.5930  177.5060  146.7620 C   0  0  2  0  0  3  0  0  0  0  0  0
  189.9490  173.2760  141.3560 C   0  0  0  0  0  3  0  0  0  0  0  0
  189.5800  175.1250  145.9310 C   0  0  1  0  0  3  0  0  0  0  0  0
  192.9330  174.6870  142.3570 C   0  0  0  0  0  1  0  0  0  0  0  0
  191.9660  173.6490  142.4400 O   0  0  0  0  0  0  0  0  0  0  0  0
  1 23  1  1  0  0  0
  1 20  1  0  0  0  0
  2 24  1  0  0  0  0
  3 28  1  0  0  0  0
  3 15  1  0  0  0  0
  4 14  1  6  0  0  0
  4 10  1  0  0  0  0
  7 17  1  6  0  0  0
  8 21  1  0  0  0  0
  9  5  1  6  0  0  0
  9 15  1  0  0  0  0
  9  4  1  0  0  0  0
 10 26  1  0  0  0  0
 10  7  1  0  0  0  0
 11 12  1  0  0  0  0
 11  5  2  0  0  0  0
 12 25  1  0  0  0  0
 13  2  1  0  0  0  0
 14  1  1  0  0  0  0
 15 18  1  0  0  0  0
 17  6  2  0  0  0  0
 18 26  1  0  0  0  0
 19 12  1  0  0  0  0
 20  7  1  0  0  0  0
 20 24  1  0  0  0  0
 21 17  1  0  0  0  0
 22 11  1  0  0  0  0
 23 13  1  0  0  0  0
 24 16  1  0  0  0  0
 25  3  2  0  0  0  0
 26 21  1  0  0  0  0
 27 28  1  0  0  0  0
M  END
>  <MODEL>
3

>  <REMARK>
 VINA RESULT:      -8.1      2.285      4.706
  Name = 
  1 active torsions:
  status: ('A' for Active; 'I' for Inactive)
    1  A    between atoms: C_3  and  O_18
                            x       y       z     vdW  Elec       q    Type
                         _______ _______ _______ _____ _____    ______ ____

>  <TORSDO>
F 1

$$$$
=
 OpenBabel11062423103D

 28 32  0  0  1  0  0  0  0  0999 V2000
  187.5030  176.1910  143.9030 C   0  0  2  0  0  3  0  0  0  0  0  0
  186.1120  178.1570  142.2130 C   0  0  0  0  0  2  0  0  0  0  0  0
  192.9220  174.0110  145.3530 C   0  0  0  0  0  0  0  0  0  0  0  0
  189.6250  175.5730  143.9520 C   0  0  2  0  0  3  0  0  0  0  0  0
  190.8000  176.1210  146.0760 C   0  0  0  0  0  3  0  0  0  0  0  0
  187.2200  173.0310  141.7500 O   0  0  0  0  0  0  0  0  0  0  0  0
  188.4510  175.0840  141.8030 C   0  0  1  0  0  3  0  0  0  0  0  0
  189.4270  172.4100  143.6290 O   0  0  0  0  0  1  0  0  0  0  0  0
  190.9710  175.6680  144.6570 C   0  0  1  0  0  3  0  0  0  0  0  0
  189.8170  175.3460  142.4460 C   0  0  2  0  0  3  0  0  0  0  0  0
  191.8580  176.4770  146.7960 C   0  0  0  0  0  0  0  0  0  0  0  0
  193.2280  176.3790  146.1930 C   0  0  1  0  0  3  0  0  0  0  0  0
  186.4140  178.4460  143.6770 C   0  0  0  0  0  2  0  0  0  0  0  0
  188.7960  176.6800  144.1660 O   0  0  0  0  0  0  0  0  0  0  0  0
  191.6390  174.2760  144.5610 C   0  0  1  0  0  3  0  0  0  0  0  0
  186.8720  177.0060  140.2210 N   0  0  0  0  0  1  0  0  0  0  0  0
  188.2740  173.6100  141.9610 C   0  0  0  0  0  0  0  0  0  0  0  0
  191.8440  173.8880  143.0890 C   0  0  0  0  0  2  0  0  0  0  0  0
  194.1660  177.0260  146.9980 O   0  0  0  0  0  1  0  0  0  0  0  0
  187.3020  175.9400  142.3870 C   0  0  2  0  0  3  0  0  0  0  0  0
  189.5350  172.9010  142.3260 C   0  0  1  0  0  3  0  0  0  0  0  0
  191.6870  176.8940  148.1100 O   0  0  0  0  0  1  0  0  0  0  0  0
  186.4460  177.1410  144.4650 C   0  0  0  0  0  2  0  0  0  0  0  0
  187.1940  177.2650  141.6150 C   0  0  2  0  0  3  0  0  0  0  0  0
  193.6070  174.9410  146.0370 C   0  0  0  0  0  3  0  0  0  0  0  0
  190.5700  174.0300  142.2370 C   0  0  1  0  0  3  0  0  0  0  0  0
  194.8280  172.4280  145.4990 C   0  0  0  0  0  1  0  0  0  0  0  0
  193.4380  172.7110  145.4150 O   0  0  0  0  0  0  0  0  0  0  0  0
  1 14  1  0  0  0  0
  1 23  1  6  0  0  0
  2 13  1  0  0  0  0
  3 28  1  0  0  0  0
  3 25  2  0  0  0  0
  4 14  1  6  0  0  0
  4  9  1  0  0  0  0
  5 11  2  0  0  0  0
  6 17  2  0  0  0  0
  7 17  1  1  0  0  0
  7 20  1  0  0  0  0
  7 10  1  0  0  0  0
  9  5  1  1  0  0  0
 10  4  1  0  0  0  0
 11 22  1  0  0  0  0
 12 11  1  0  0  0  0
 12 19  1  0  0  0  0
 13 23  1  0  0  0  0
 15  9  1  0  0  0  0
 15  3  1  0  0  0  0
 16 24  1  0  0  0  0
 17 21  1  0  0  0  0
 18 15  1  0  0  0  0
 20  1  1  0  0  0  0
 21  8  1  0  0  0  0
 24  2  1  0  0  0  0
 24 20  1  0  0  0  0
 25 12  1  0  0  0  0
 26 21  1  0  0  0  0
 26 10  1  0  0  0  0
 26 18  1  0  0  0  0
 28 27  1  0  0  0  0
M  END
>  <MODEL>
4

>  <REMARK>
 VINA RESULT:      -7.7      2.373      3.182
  Name = 
  1 active torsions:
  status: ('A' for Active; 'I' for Inactive)
    1  A    between atoms: C_3  and  O_18
                            x       y       z     vdW  Elec       q    Type
                         _______ _______ _______ _____ _____    ______ ____

>  <TORSDO>
F 1

$$$$
=
 OpenBabel11062423103D

 28 32  0  0  1  0  0  0  0  0999 V2000
  188.9690  173.6260  141.8100 C   0  0  2  0  0  3  0  0  0  0  0  0
  190.6560  173.1840  139.4400 C   0  0  0  0  0  2  0  0  0  0  0  0
  187.2690  177.7430  145.8560 C   0  0  0  0  0  0  0  0  0  0  0  0
  188.8100  175.3640  143.1660 C   0  0  2  0  0  3  0  0  0  0  0  0
  186.5920  176.4910  143.1280 C   0  0  0  0  0  3  0  0  0  0  0  0
  191.2770  172.3740  144.6050 O   0  0  0  0  0  0  0  0  0  0  0  0
  191.0510  174.2620  143.1500 C   0  0  1  0  0  3  0  0  0  0  0  0
  189.2880  174.0490  146.0280 O   0  0  0  0  0  1  0  0  0  0  0  0
  188.0160  176.5930  143.5860 C   0  0  1  0  0  3  0  0  0  0  0  0
  190.3100  175.5750  143.4210 C   0  0  2  0  0  3  0  0  0  0  0  0
  185.7890  177.5470  143.1980 C   0  0  0  0  0  0  0  0  0  0  0  0
  186.3060  178.8280  143.7830 C   0  0  1  0  0  3  0  0  0  0  0  0
  189.1640  173.4570  139.3080 C   0  0  0  0  0  2  0  0  0  0  0  0
  188.6010  174.9830  141.8350 O   0  0  0  0  0  0  0  0  0  0  0  0
  188.1310  176.7110  145.1240 C   0  0  1  0  0  3  0  0  0  0  0  0
  192.6440  173.6220  140.7540 N   0  0  0  0  0  1  0  0  0  0  0  0
  190.9710  173.5470  144.4580 C   0  0  0  0  0  0  0  0  0  0  0  0
  189.6020  176.8730  145.5340 C   0  0  0  0  0  2  0  0  0  0  0  0
  185.4130  179.8730  143.5400 O   0  0  0  0  0  1  0  0  0  0  0  0
  190.5050  173.4650  141.9420 C   0  0  2  0  0  3  0  0  0  0  0  0
  190.5580  174.4300  145.5870 C   0  0  1  0  0  3  0  0  0  0  0  0
  184.4710  177.4390  142.7720 O   0  0  0  0  0  1  0  0  0  0  0  0
  188.4360  172.9490  140.5480 C   0  0  0  0  0  2  0  0  0  0  0  0
  191.2220  173.9080  140.6570 C   0  0  2  0  0  3  0  0  0  0  0  0
  186.5010  178.6660  145.2560 C   0  0  0  0  0  3  0  0  0  0  0  0
  190.5280  175.8090  144.9170 C   0  0  1  0  0  3  0  0  0  0  0  0
  186.4260  178.6320  148.0150 C   0  0  0  0  0  1  0  0  0  0  0  0
  187.2320  177.7420  147.2560 O   0  0  0  0  0  0  0  0  0  0  0  0
  1 23  1  6  0  0  0
  1 14  1  0  0  0  0
  1 20  1  0  0  0  0
  2 24  1  0  0  0  0
  3 28  1  0  0  0  0
  4 14  1  6  0  0  0
  4 10  1  0  0  0  0
  4  9  1  0  0  0  0
  5 11  2  0  0  0  0
  7 10  1  0  0  0  0
  7 17  1  1  0  0  0
  9  5  1  1  0  0  0
  9 15  1  0  0  0  0
 10 26  1  0  0  0  0
 11 12  1  0  0  0  0
 12 25  1  0  0  0  0
 13  2  1  0  0  0  0
 13 23  1  0  0  0  0
 15 18  1  0  0  0  0
 15  3  1  0  0  0  0
 17  6  2  0  0  0  0
 17 21  1  0  0  0  0
 19 12  1  0  0  0  0
 20  7  1  0  0  0  0
 21  8  1  0  0  0  0
 22 11  1  0  0  0  0
 24 16  1  0  0  0  0
 24 20  1  0  0  0  0
 25  3  2  0  0  0  0
 26 18  1  0  0  0  0
 26 21  1  0  0  0  0
 28 27  1  0  0  0  0
M  END
>  <MODEL>
5

>  <REMARK>
 VINA RESULT:      -7.5      3.199      6.917
  Name = 
  1 active torsions:
  status: ('A' for Active; 'I' for Inactive)
    1  A    between atoms: C_3  and  O_18
                            x       y       z     vdW  Elec       q    Type
                         _______ _______ _______ _____ _____    ______ ____

>  <TORSDO>
F 1

$$$$
=
 OpenBabel11062423103D

 28 32  0  0  1  0  0  0  0  0999 V2000
  190.7140  176.7550  145.9460 C   0  0  2  0  0  3  0  0  0  0  0  0
  192.2370  174.5860  147.2220 C   0  0  0  0  0  2  0  0  0  0  0  0
  185.3260  178.2390  143.7140 C   0  0  0  0  0  0  0  0  0  0  0  0
  188.6870  176.7730  145.0640 C   0  0  2  0  0  3  0  0  0  0  0  0
  187.0700  178.2470  146.2500 C   0  0  0  0  0  3  0  0  0  0  0  0
  191.6930  176.2840  142.2680 O   0  0  0  0  0  0  0  0  0  0  0  0
  190.3020  175.2510  143.9210 C   0  0  1  0  0  3  0  0  0  0  0  0
  189.2190  177.9120  142.1370 O   0  0  0  0  0  1  0  0  0  0  0  0
  187.2240  177.1650  145.2220 C   0  0  1  0  0  3  0  0  0  0  0  0
  188.8190  175.5110  144.1990 C   0  0  2  0  0  3  0  0  0  0  0  0
  185.8630  178.5780  146.6960 C   0  0  0  0  0  0  0  0  0  0  0  0
  184.6540  177.8940  146.1290 C   0  0  1  0  0  3  0  0  0  0  0  0
  191.6260  175.7130  148.0440 C   0  0  0  0  0  2  0  0  0  0  0  0
  189.3570  176.5900  146.2800 O   0  0  0  0  0  0  0  0  0  0  0  0
  186.7130  177.6010  143.8290 C   0  0  1  0  0  3  0  0  0  0  0  0
  191.9910  173.2230  145.2340 N   0  0  0  0  0  1  0  0  0  0  0  0
  190.5720  176.0670  142.7000 C   0  0  0  0  0  0  0  0  0  0  0  0
  186.8390  176.4400  142.8320 C   0  0  0  0  0  2  0  0  0  0  0  0
  183.5220  178.1890  146.8900 O   0  0  0  0  0  1  0  0  0  0  0  0
  191.2330  175.5520  145.1190 C   0  0  2  0  0  3  0  0  0  0  0  0
  189.3300  176.5250  142.0120 C   0  0  1  0  0  3  0  0  0  0  0  0
  185.7330  179.5830  147.6460 O   0  0  0  0  0  1  0  0  0  0  0  0
  191.5520  176.9830  147.2030 C   0  0  0  0  0  2  0  0  0  0  0  0
  191.3770  174.2980  145.9960 C   0  0  2  0  0  3  0  0  0  0  0  0
  184.4400  178.3380  144.7170 C   0  0  0  0  0  3  0  0  0  0  0  0
  188.2390  175.8020  142.8120 C   0  0  1  0  0  3  0  0  0  0  0  0
  183.8380  178.2910  141.7270 C   0  0  0  0  0  1  0  0  0  0  0  0
  184.9230  178.7960  142.4940 O   0  0  0  0  0  0  0  0  0  0  0  0
  1 14  1  0  0  0  0
  1 23  1  1  0  0  0
  2 13  1  0  0  0  0
  3 15  1  0  0  0  0
  3 25  2  0  0  0  0
  4  9  1  0  0  0  0
  4 14  1  1  0  0  0
  5 11  2  0  0  0  0
  6 17  2  0  0  0  0
  7 17  1  6  0  0  0
  7 10  1  0  0  0  0
  7 20  1  0  0  0  0
  9  5  1  1  0  0  0
 10  4  1  0  0  0  0
 11 22  1  0  0  0  0
 12 11  1  0  0  0  0
 12 19  1  0  0  0  0
 15  9  1  0  0  0  0
 16 24  1  0  0  0  0
 18 15  1  0  0  0  0
 20  1  1  0  0  0  0
 20 24  1  0  0  0  0
 21  8  1  0  0  0  0
 21 17  1  0  0  0  0
 21 26  1  0  0  0  0
 23 13  1  0  0  0  0
 24  2  1  0  0  0  0
 25 12  1  0  0  0  0
 26 18  1  0  0  0  0
 26 10  1  0  0  0  0
 27 28  1  0  0  0  0
 28  3  1  0  0  0  0
M  END
>  <MODEL>
6

>  <REMARK>
 VINA RESULT:      -7.3      2.618      6.287
  Name = 
  1 active torsions:
  status: ('A' for Active; 'I' for Inactive)
    1  A    between atoms: C_3  and  O_18
                            x       y       z     vdW  Elec       q    Type
                         _______ _______ _______ _____ _____    ______ ____

>  <TORSDO>
F 1

$$$$
=
 OpenBabel11062423103D

 28 32  0  0  1  0  0  0  0  0999 V2000
  193.8150  174.8440  142.2660 C   0  0  2  0  0  3  0  0  0  0  0  0
  196.2450  175.9090  140.9950 C   0  0  0  0  0  2  0  0  0  0  0  0
  188.7720  176.3980  145.1580 C   0  0  0  0  0  0  0  0  0  0  0  0
  192.2440  175.8510  143.4510 C   0  0  2  0  0  3  0  0  0  0  0  0
  189.9920  175.8280  142.3910 C   0  0  0  0  0  3  0  0  0  0  0  0
  195.1220  174.0000  145.7710 O   0  0  0  0  0  0  0  0  0  0  0  0
  194.5200  175.9210  144.4750 C   0  0  1  0  0  3  0  0  0  0  0  0
  192.1810  174.1190  146.1240 O   0  0  0  0  0  1  0  0  0  0  0  0
  190.8310  176.4160  143.4870 C   0  0  1  0  0  3  0  0  0  0  0  0
  193.1610  176.6240  144.4090 C   0  0  2  0  0  3  0  0  0  0  0  0
  188.8010  176.3440  142.1100 C   0  0  0  0  0  0  0  0  0  0  0  0
  188.2820  177.4900  142.9280 C   0  0  1  0  0  3  0  0  0  0  0  0
  195.0290  175.5140  140.1680 C   0  0  0  0  0  2  0  0  0  0  0  0
  192.8080  175.8220  142.1700 O   0  0  0  0  0  0  0  0  0  0  0  0
  190.2530  176.1200  144.8910 C   0  0  1  0  0  3  0  0  0  0  0  0
  196.9950  176.7840  143.1260 N   0  0  0  0  0  1  0  0  0  0  0  0
  194.3280  174.9000  145.5470 C   0  0  0  0  0  0  0  0  0  0  0  0
  191.1140  176.7940  145.9700 C   0  0  0  0  0  2  0  0  0  0  0  0
  187.1510  178.0470  142.3300 O   0  0  0  0  0  1  0  0  0  0  0  0
  195.0040  175.3530  143.1190 C   0  0  2  0  0  3  0  0  0  0  0  0
  193.1070  175.1350  146.3720 C   0  0  1  0  0  3  0  0  0  0  0  0
  188.0330  175.7890  141.0930 O   0  0  0  0  0  1  0  0  0  0  0  0
  194.2650  174.3990  140.8750 C   0  0  0  0  0  2  0  0  0  0  0  0
  195.8120  176.4210  142.3650 C   0  0  2  0  0  3  0  0  0  0  0  0
  187.9390  177.0110  144.3020 C   0  0  0  0  0  3  0  0  0  0  0  0
  192.6160  176.4840  145.8330 C   0  0  1  0  0  3  0  0  0  0  0  0
  187.0460  176.5810  146.9330 C   0  0  0  0  0  1  0  0  0  0  0  0
  188.1970  175.9740  146.3620 O   0  0  0  0  0  0  0  0  0  0  0  0
  1 23  1  6  0  0  0
  1 20  1  0  0  0  0
  2 24  1  0  0  0  0
  3 28  1  0  0  0  0
  4 14  1  6  0  0  0
  4  9  1  0  0  0  0
  4 10  1  0  0  0  0
  7 17  1  1  0  0  0
  8 21  1  0  0  0  0
  9  5  1  6  0  0  0
  9 15  1  0  0  0  0
 10  7  1  0  0  0  0
 10 26  1  0  0  0  0
 11  5  2  0  0  0  0
 11 12  1  0  0  0  0
 12 25  1  0  0  0  0
 13 23  1  0  0  0  0
 13  2  1  0  0  0  0
 14  1  1  0  0  0  0
 15  3  1  0  0  0  0
 15 18  1  0  0  0  0
 17  6  2  0  0  0  0
 17 21  1  0  0  0  0
 19 12  1  0  0  0  0
 20  7  1  0  0  0  0
 22 11  1  0  0  0  0
 24 20  1  0  0  0  0
 24 16  1  0  0  0  0
 25  3  2  0  0  0  0
 26 18  1  0  0  0  0
 26 21  1  0  0  0  0
 28 27  1  0  0  0  0
M  END
>  <MODEL>
7

>  <REMARK>
 VINA RESULT:      -7.1      2.883      7.729
  Name = 
  1 active torsions:
  status: ('A' for Active; 'I' for Inactive)
    1  A    between atoms: C_3  and  O_18
                            x       y       z     vdW  Elec       q    Type
                         _______ _______ _______ _____ _____    ______ ____

>  <TORSDO>
F 1

$$$$
=
 OpenBabel11062423103D

 28 32  0  0  1  0  0  0  0  0999 V2000
  188.8240  177.3510  143.0760 C   0  0  2  0  0  3  0  0  0  0  0  0
  186.1910  178.6580  142.9570 C   0  0  0  0  0  2  0  0  0  0  0  0
  191.5820  172.0510  143.7920 C   0  0  0  0  0  0  0  0  0  0  0  0
  189.3850  175.2760  143.5910 C   0  0  2  0  0  3  0  0  0  0  0  0
  190.4110  174.0000  141.7180 C   0  0  0  0  0  3  0  0  0  0  0  0
  189.7650  177.9160  146.7500 O   0  0  0  0  0  0  0  0  0  0  0  0
  188.2970  176.5470  145.4450 C   0  0  1  0  0  3  0  0  0  0  0  0
  191.5390  175.6990  145.8990 O   0  0  0  0  0  1  0  0  0  0  0  0
  189.8190  173.9050  143.0920 C   0  0  1  0  0  3  0  0  0  0  0  0
  188.5660  175.1470  144.8840 C   0  0  2  0  0  3  0  0  0  0  0  0
  190.6510  172.8980  141.0150 C   0  0  0  0  0  0  0  0  0  0  0  0
  190.3680  171.5580  141.6270 C   0  0  1  0  0  3  0  0  0  0  0  0
  186.9490  178.2910  141.6890 C   0  0  0  0  0  2  0  0  0  0  0  0
  188.6690  176.0210  142.6460 O   0  0  0  0  0  0  0  0  0  0  0  0
  190.8210  173.3370  144.1250 C   0  0  1  0  0  3  0  0  0  0  0  0
  185.7630  178.0410  145.2610 N   0  0  0  0  0  1  0  0  0  0  0  0
  189.5020  176.8190  146.2830 C   0  0  0  0  0  0  0  0  0  0  0  0
  190.1470  173.2050  145.4990 C   0  0  0  0  0  2  0  0  0  0  0  0
  190.4420  170.5530  140.6610 O   0  0  0  0  0  1  0  0  0  0  0  0
  188.0050  177.6160  144.3650 C   0  0  2  0  0  3  0  0  0  0  0  0
  190.3130  175.5980  146.5620 C   0  0  1  0  0  3  0  0  0  0  0  0
  191.2010  172.9990  139.7440 O   0  0  0  0  0  1  0  0  0  0  0  0
  188.4500  178.3230  141.9580 C   0  0  0  0  0  2  0  0  0  0  0  0
  186.4980  177.6580  144.0670 C   0  0  2  0  0  3  0  0  0  0  0  0
  191.3570  171.2830  142.7150 C   0  0  0  0  0  3  0  0  0  0  0  0
  189.4390  174.4920  145.9570 C   0  0  1  0  0  3  0  0  0  0  0  0
  193.7300  172.4330  144.9750 C   0  0  0  0  0  1  0  0  0  0  0  0
  192.6140  171.6220  144.6350 O   0  0  0  0  0  0  0  0  0  0  0  0
  1 23  1  6  0  0  0
  1 20  1  0  0  0  0
  2 24  1  0  0  0  0
  3 15  1  0  0  0  0
  3 28  1  0  0  0  0
  4 14  1  6  0  0  0
  4 10  1  0  0  0  0
  7 17  1  6  0  0  0
  8 21  1  0  0  0  0
  9  5  1  6  0  0  0
  9  4  1  0  0  0  0
  9 15  1  0  0  0  0
 10  7  1  0  0  0  0
 10 26  1  0  0  0  0
 11 12  1  0  0  0  0
 11  5  2  0  0  0  0
 12 25  1  0  0  0  0
 13 23  1  0  0  0  0
 13  2  1  0  0  0  0
 14  1  1  0  0  0  0
 15 18  1  0  0  0  0
 17 21  1  0  0  0  0
 17  6  2  0  0  0  0
 18 26  1  0  0  0  0
 19 12  1  0  0  0  0
 20  7  1  0  0  0  0
 22 11  1  0  0  0  0
 24 20  1  0  0  0  0
 24 16  1  0  0  0  0
 25  3  2  0  0  0  0
 26 21  1  0  0  0  0
 28 27  1  0  0  0  0
M  END
>  <MODEL>
8

>  <REMARK>
 VINA RESULT:      -6.9      2.903      5.008
  Name = 
  1 active torsions:
  status: ('A' for Active; 'I' for Inactive)
    1  A    between atoms: C_3  and  O_18
                            x       y       z     vdW  Elec       q    Type
                         _______ _______ _______ _____ _____    ______ ____

>  <TORSDO>
F 1

$$$$
=
 OpenBabel11062423103D

 28 32  0  0  1  0  0  0  0  0999 V2000
  187.4270  177.2840  142.3580 C   0  0  2  0  0  3  0  0  0  0  0  0
  185.0220  177.7470  143.9880 C   0  0  0  0  0  2  0  0  0  0  0  0
  191.3200  173.0700  140.5400 C   0  0  0  0  0  0  0  0  0  0  0  0
  188.6990  175.4900  142.1360 C   0  0  2  0  0  3  0  0  0  0  0  0
  188.6850  174.5040  139.8510 C   0  0  0  0  0  3  0  0  0  0  0  0
  190.1950  178.2440  144.8320 O   0  0  0  0  0  0  0  0  0  0  0  0
  188.6560  176.4530  144.4390 C   0  0  1  0  0  3  0  0  0  0  0  0
  191.6040  176.6200  142.7900 O   0  0  0  0  0  1  0  0  0  0  0  0
  189.0850  174.2910  141.2800 C   0  0  1  0  0  3  0  0  0  0  0  0
  188.8870  175.1740  143.6260 C   0  0  2  0  0  3  0  0  0  0  0  0
  188.7310  173.4960  138.9860 C   0  0  0  0  0  0  0  0  0  0  0  0
  189.2310  172.1570  139.4410 C   0  0  1  0  0  3  0  0  0  0  0  0
  184.9320  177.5730  142.4780 C   0  0  0  0  0  2  0  0  0  0  0  0
  187.3970  175.9520  141.9060 O   0  0  0  0  0  0  0  0  0  0  0  0
  190.6100  174.0850  141.4390 C   0  0  1  0  0  3  0  0  0  0  0  0
  186.2390  177.1210  145.9880 N   0  0  0  0  0  1  0  0  0  0  0  0
  190.0010  177.1010  144.4480 C   0  0  0  0  0  0  0  0  0  0  0  0
  190.9560  173.8120  142.9110 C   0  0  0  0  0  2  0  0  0  0  0  0
  188.9690  171.1820  138.4770 O   0  0  0  0  0  1  0  0  0  0  0  0
  187.5110  177.3440  143.9040 C   0  0  2  0  0  3  0  0  0  0  0  0
  191.0980  176.1870  144.0190 C   0  0  1  0  0  3  0  0  0  0  0  0
  188.3600  173.7060  137.6640 O   0  0  0  0  0  1  0  0  0  0  0  0
  186.2220  178.0580  141.8250 C   0  0  0  0  0  2  0  0  0  0  0  0
  186.1790  176.9270  144.5480 C   0  0  2  0  0  3  0  0  0  0  0  0
  190.7030  172.2290  139.6950 C   0  0  0  0  0  3  0  0  0  0  0  0
  190.3610  174.8490  143.8800 C   0  0  1  0  0  3  0  0  0  0  0  0
  193.4360  171.7960  140.7860 C   0  0  0  0  0  1  0  0  0  0  0  0
  192.7180  172.9990  140.5500 O   0  0  0  0  0  0  0  0  0  0  0  0
  1 23  1  1  0  0  0
  1 20  1  0  0  0  0
  2 24  1  0  0  0  0
  3 28  1  0  0  0  0
  3 15  1  0  0  0  0
  4 14  1  1  0  0  0
  4 10  1  0  0  0  0
  7 17  1  6  0  0  0
  8 21  1  0  0  0  0
  9  5  1  6  0  0  0
  9 15  1  0  0  0  0
  9  4  1  0  0  0  0
 10 26  1  0  0  0  0
 10  7  1  0  0  0  0
 11 12  1  0  0  0  0
 11  5  2  0  0  0  0
 12 25  1  0  0  0  0
 13  2  1  0  0  0  0
 14  1  1  0  0  0  0
 15 18  1  0  0  0  0
 17  6  2  0  0  0  0
 18 26  1  0  0  0  0
 19 12  1  0  0  0  0
 20  7  1  0  0  0  0
 20 24  1  0  0  0  0
 21 17  1  0  0  0  0
 22 11  1  0  0  0  0
 23 13  1  0  0  0  0
 24 16  1  0  0  0  0
 25  3  2  0  0  0  0
 26 21  1  0  0  0  0
 28 27  1  0  0  0  0
M  END
>  <MODEL>
9

>  <REMARK>
 VINA RESULT:      -6.9      3.041      5.399
  Name = 
  1 active torsions:
  status: ('A' for Active; 'I' for Inactive)
    1  A    between atoms: C_3  and  O_18
                            x       y       z     vdW  Elec       q    Type
                         _______ _______ _______ _____ _____    ______ ____

>  <TORSDO>
F 1

$$$$
