=
 OpenBabel11062422113D

 44 46  0  0  1  0  0  0  0  0999 V2000
  191.5010  172.9270  141.3040 C   0  0  2  0  0  3  0  0  0  0  0  0
  191.0110  173.2080  139.9180 C   0  0  0  0  0  0  0  0  0  0  0  0
  191.7460  173.7880  139.0780 O   0  0  0  0  0  0  0  0  0  0  0  0
  189.6920  172.8230  139.5470 N   0  0  0  0  0  1  0  0  0  0  0  0
  192.5440  171.8030  141.3320 C   0  0  0  0  0  2  0  0  0  0  0  0
  193.7180  172.0230  142.2840 C   0  0  0  0  0  2  0  0  0  0  0  0
  194.6210  171.7810  144.5360 N   0  0  0  0  0  0  0  0  0  0  0  0
  194.5270  170.4380  143.8880 C   0  0  0  0  0  2  0  0  0  0  0  0
  195.2840  172.7410  145.3600 C   0  0  0  0  0  0  0  0  0  0  0  0
  196.3070  172.3780  145.9980 O   0  0  0  0  0  0  0  0  0  0  0  0
  193.5230  171.3440  143.6240 C   0  0  2  0  0  3  0  0  0  0  0  0
  194.7640  174.1350  145.4510 C   0  0  0  0  0  0  0  0  0  0  0  0
  193.6640  176.7160  145.7380 C   0  0  0  0  0  3  0  0  0  0  0  0
  193.0750  175.6320  146.3860 C   0  0  0  0  0  3  0  0  0  0  0  0
  193.6220  174.3560  146.2410 C   0  0  0  0  0  3  0  0  0  0  0  0
  194.7960  176.5250  144.9470 C   0  0  0  0  0  3  0  0  0  0  0  0
  195.3580  175.2510  144.7940 C   0  0  0  0  0  0  0  0  0  0  0  0
  196.8060  175.1260  143.7300 S   0  0  0  0  0  0  0  0  0  0  0  0
  196.5200  176.7590  142.9830 C   0  0  0  0  0  2  0  0  0  0  0  0
  196.2820  176.6170  141.4920 C   0  0  0  0  0  2  0  0  0  0  0  0
  194.8520  176.5560  141.2430 N   0  0  0  0  0  2  0  0  0  0  0  0
  195.4000  174.6880  139.7420 C   0  0  0  0  0  3  0  0  0  0  0  0
  195.0980  173.5350  139.2490 N   0  0  0  0  0  2  0  0  0  0  0  0
  194.5640  175.2820  140.7320 N   0  0  0  0  0  2  0  0  0  0  0  0
  190.3400  172.7900  142.3040 C   0  0  0  0  0  2  0  0  0  0  0  0
  190.4890  173.2100  144.7890 C   0  0  0  0  0  1  0  0  0  0  0  0
  191.4360  174.8100  143.1730 C   0  0  0  0  0  1  0  0  0  0  0  0
  190.2920  173.8430  143.4180 C   0  0  0  0  0  0  0  0  0  0  0  0
  188.4310  174.9670  142.2030 C   0  0  0  0  0  3  0  0  0  0  0  0
  188.9890  174.5870  143.3520 C   0  0  0  0  0  3  0  0  0  0  0  0
  187.1160  175.6670  142.2070 C   0  0  0  0  0  2  0  0  0  0  0  0
  187.3160  177.1720  142.0920 C   0  0  0  0  0  2  0  0  0  0  0  0
  186.1510  177.8890  142.6040 N   0  0  0  0  0  0  0  0  0  0  0  0
  185.0980  178.3210  141.7370 C   0  0  0  0  0  3  0  0  0  0  0  0
  185.1440  178.0950  140.5000 O   0  0  0  0  0  0  0  0  0  0  0  0
  186.0330  178.2090  144.3020 S   0  0  0  0  0  0  0  0  0  0  0  0
  186.0330  179.6940  144.5470 O   0  0  0  0  0  0  0  0  0  0  0  0
  184.7450  177.6290  144.8250 O   0  0  0  0  0  0  0  0  0  0  0  0
  188.6920  177.9570  144.9020 C   0  0  0  0  0  3  0  0  0  0  0  0
  187.1850  176.4810  146.0950 C   0  0  0  0  0  3  0  0  0  0  0  0
  189.7780  177.3980  145.5850 C   0  0  0  0  0  3  0  0  0  0  0  0
  187.3930  177.5000  145.1550 C   0  0  0  0  0  0  0  0  0  0  0  0
  189.5670  176.3810  146.5240 C   0  0  0  0  0  3  0  0  0  0  0  0
  188.2710  175.9230  146.7790 C   0  0  0  0  0  3  0  0  0  0  0  0
  1  5  1  6  0  0  0
  1 25  1  0  0  0  0
  2  1  1  0  0  0  0
  3  2  2  0  0  0  0
  4  2  1  0  0  0  0
  5  6  1  0  0  0  0
  7  9  1  0  0  0  0
  8  7  1  0  0  0  0
  9 12  1  0  0  0  0
  9 10  2  0  0  0  0
 11  6  1  6  0  0  0
 11  8  1  0  0  0  0
 11  7  1  0  0  0  0
 12 15  1  0  0  0  0
 13 14  1  0  0  0  0
 15 14  2  0  0  0  0
 16 13  2  0  0  0  0
 17 16  1  0  0  0  0
 17 12  2  0  0  0  0
 18 17  1  0  0  0  0
 19 18  1  0  0  0  0
 20 19  1  0  0  0  0
 21 20  1  0  0  0  0
 22 24  1  0  0  0  0
 23 22  2  0  0  0  0
 24 21  1  0  0  0  0
 25 28  1  0  0  0  0
 27 28  1  0  0  0  0
 28 26  1  0  0  0  0
 29 31  1  0  0  0  0
 29 30  2  0  0  0  0
 30 28  1  0  0  0  0
 32 31  1  0  0  0  0
 32 33  1  0  0  0  0
 33 36  1  0  0  0  0
 34 33  1  0  0  0  0
 35 34  2  0  0  0  0
 36 37  2  0  0  0  0
 36 38  2  0  0  0  0
 36 42  1  0  0  0  0
 39 42  2  0  0  0  0
 39 41  1  0  0  0  0
 40 44  2  0  0  0  0
 41 43  2  0  0  0  0
 42 40  1  0  0  0  0
 43 44  1  0  0  0  0
M  END
>  <MODEL>
1

>  <REMARK>
 VINA RESULT:      -5.9      0.000      0.000
  Name = 
  18 active torsions:
  status: ('A' for Active; 'I' for Inactive)
    1  A    between atoms: C_1  and  C_30
    2  A    between atoms: S_3  and  N_10
    3  A    between atoms: S_3  and  C_22
    4  A    between atoms: N_5  and  N_17
    5  A    between atoms: N_5  and  C_19
    6  A    between atoms: N_10  and  C_20
    7  A    between atoms: C_16  and  C_20
    8  A    between atoms: C_16  and  C_34
    9  A    between atoms: C_18  and  C_28
   10  A    between atoms: C_19  and  C_25
   11  A    between atoms: C_25  and  S_37
   12  A    between atoms: C_26  and  S_37
   13  A    between atoms: C_28  and  C_31
   14  A    between atoms: C_28  and  C_43
   15  A    between atoms: C_31  and  C_35
   16  A    between atoms: C_32  and  C_38
   17  A    between atoms: C_32  and  C_43
   18  A    between atoms: C_35  and  C_39
                            x       y       z     vdW  Elec       q    Type
                         _______ _______ _______ _____ _____    ______ ____

>  <TORSDO>
F 18

$$$$
=
 OpenBabel11062422113D

 44 46  0  0  1  0  0  0  0  0999 V2000
  187.4750  177.4940  145.9720 C   0  0  2  0  0  3  0  0  0  0  0  0
  186.4190  177.6040  147.0270 C   0  0  0  0  0  0  0  0  0  0  0  0
  185.6320  176.6490  147.2550 O   0  0  0  0  0  0  0  0  0  0  0  0
  186.2960  178.8070  147.7760 N   0  0  0  0  0  1  0  0  0  0  0  0
  187.1830  178.3930  144.7650 C   0  0  0  0  0  2  0  0  0  0  0  0
  185.7100  178.5050  144.3750 C   0  0  0  0  0  2  0  0  0  0  0  0
  185.8790  177.5100  142.1560 N   0  0  0  0  0  0  0  0  0  0  0  0
  184.4460  177.7990  142.4660 C   0  0  0  0  0  2  0  0  0  0  0  0
  186.9920  177.4620  141.2610 C   0  0  0  0  0  0  0  0  0  0  0  0
  186.7880  177.6910  140.0390 O   0  0  0  0  0  0  0  0  0  0  0  0
  185.2460  177.3600  143.4990 C   0  0  2  0  0  3  0  0  0  0  0  0
  188.3540  177.1460  141.7770 C   0  0  0  0  0  0  0  0  0  0  0  0
  190.9460  176.7130  142.8000 C   0  0  0  0  0  3  0  0  0  0  0  0
  190.4120  177.9990  142.7770 C   0  0  0  0  0  3  0  0  0  0  0  0
  189.1290  178.2110  142.2700 C   0  0  0  0  0  3  0  0  0  0  0  0
  190.2000  175.6390  142.3150 C   0  0  0  0  0  3  0  0  0  0  0  0
  188.9100  175.8350  141.8050 C   0  0  0  0  0  0  0  0  0  0  0  0
  188.0520  174.3760  141.1880 S   0  0  0  0  0  0  0  0  0  0  0  0
  189.5230  173.7590  140.3150 C   0  0  0  0  0  2  0  0  0  0  0  0
  189.1210  173.1200  138.9990 C   0  0  0  0  0  2  0  0  0  0  0  0
  190.3040  172.9510  138.1720 N   0  0  0  0  0  2  0  0  0  0  0  0
  189.7620  170.5540  138.1240 C   0  0  0  0  0  3  0  0  0  0  0  0
  190.1380  169.3280  138.2640 N   0  0  0  0  0  2  0  0  0  0  0  0
  190.7060  171.6120  138.2740 N   0  0  0  0  0  2  0  0  0  0  0  0
  187.8110  176.0270  145.6520 C   0  0  0  0  0  2  0  0  0  0  0  0
  190.1560  176.6500  146.3510 C   0  0  0  0  0  1  0  0  0  0  0  0
  188.8850  174.9250  147.5680 C   0  0  0  0  0  1  0  0  0  0  0  0
  189.1510  175.5160  146.1950 C   0  0  0  0  0  0  0  0  0  0  0  0
  189.6050  173.1470  145.5780 C   0  0  0  0  0  3  0  0  0  0  0  0
  189.6870  174.4450  145.2890 C   0  0  0  0  0  3  0  0  0  0  0  0
  190.1210  172.1330  144.6150 C   0  0  0  0  0  2  0  0  0  0  0  0
  190.9630  172.8060  143.5400 C   0  0  0  0  0  2  0  0  0  0  0  0
  192.1080  171.9710  143.1830 N   0  0  0  0  0  0  0  0  0  0  0  0
  192.0050  170.9440  142.1930 C   0  0  0  0  0  3  0  0  0  0  0  0
  190.9190  170.7250  141.5970 O   0  0  0  0  0  0  0  0  0  0  0  0
  193.6300  172.2450  143.9630 S   0  0  0  0  0  0  0  0  0  0  0  0
  193.8030  171.2790  145.1050 O   0  0  0  0  0  0  0  0  0  0  0  0
  194.7400  172.0280  142.9690 O   0  0  0  0  0  0  0  0  0  0  0  0
  193.3930  174.1270  145.9370 C   0  0  0  0  0  3  0  0  0  0  0  0
  194.0960  174.9410  143.7640 C   0  0  0  0  0  3  0  0  0  0  0  0
  193.4620  175.4290  146.4450 C   0  0  0  0  0  3  0  0  0  0  0  0
  193.7100  173.8810  144.5950 C   0  0  0  0  0  0  0  0  0  0  0  0
  193.8490  176.4870  145.6130 C   0  0  0  0  0  3  0  0  0  0  0  0
  194.1660  176.2430  144.2730 C   0  0  0  0  0  3  0  0  0  0  0  0
  1  5  1  6  0  0  0
  1  2  1  0  0  0  0
  2  3  2  0  0  0  0
  2  4  1  0  0  0  0
  6  5  1  0  0  0  0
  7  8  1  0  0  0  0
  7 11  1  0  0  0  0
  8 11  1  0  0  0  0
  9 12  1  0  0  0  0
  9  7  1  0  0  0  0
 10  9  2  0  0  0  0
 11  6  1  1  0  0  0
 12 17  2  0  0  0  0
 12 15  1  0  0  0  0
 14 13  1  0  0  0  0
 15 14  2  0  0  0  0
 16 13  2  0  0  0  0
 17 16  1  0  0  0  0
 18 17  1  0  0  0  0
 19 18  1  0  0  0  0
 20 19  1  0  0  0  0
 21 24  1  0  0  0  0
 21 20  1  0  0  0  0
 22 23  2  0  0  0  0
 22 24  1  0  0  0  0
 25  1  1  0  0  0  0
 25 28  1  0  0  0  0
 28 26  1  0  0  0  0
 28 27  1  0  0  0  0
 30 29  2  0  0  0  0
 30 28  1  0  0  0  0
 31 29  1  0  0  0  0
 32 31  1  0  0  0  0
 33 32  1  0  0  0  0
 33 36  1  0  0  0  0
 34 33  1  0  0  0  0
 35 34  2  0  0  0  0
 36 42  1  0  0  0  0
 36 37  2  0  0  0  0
 38 36  2  0  0  0  0
 39 41  1  0  0  0  0
 40 44  2  0  0  0  0
 40 42  1  0  0  0  0
 42 39  2  0  0  0  0
 43 41  2  0  0  0  0
 44 43  1  0  0  0  0
M  END
>  <MODEL>
2

>  <REMARK>
 VINA RESULT:      -5.9      2.567      8.044
  Name = 
  18 active torsions:
  status: ('A' for Active; 'I' for Inactive)
    1  A    between atoms: C_1  and  C_30
    2  A    between atoms: S_3  and  N_10
    3  A    between atoms: S_3  and  C_22
    4  A    between atoms: N_5  and  N_17
    5  A    between atoms: N_5  and  C_19
    6  A    between atoms: N_10  and  C_20
    7  A    between atoms: C_16  and  C_20
    8  A    between atoms: C_16  and  C_34
    9  A    between atoms: C_18  and  C_28
   10  A    between atoms: C_19  and  C_25
   11  A    between atoms: C_25  and  S_37
   12  A    between atoms: C_26  and  S_37
   13  A    between atoms: C_28  and  C_31
   14  A    between atoms: C_28  and  C_43
   15  A    between atoms: C_31  and  C_35
   16  A    between atoms: C_32  and  C_38
   17  A    between atoms: C_32  and  C_43
   18  A    between atoms: C_35  and  C_39
                            x       y       z     vdW  Elec       q    Type
                         _______ _______ _______ _____ _____    ______ ____

>  <TORSDO>
F 18

$$$$
=
 OpenBabel11062422113D

 44 46  0  0  1  0  0  0  0  0999 V2000
  189.4370  173.4450  138.0730 C   0  0  2  0  0  3  0  0  0  0  0  0
  189.1940  174.1430  136.7720 C   0  0  0  0  0  0  0  0  0  0  0  0
  188.2430  174.9570  136.6430 O   0  0  0  0  0  0  0  0  0  0  0  0
  190.0440  173.8790  135.6620 N   0  0  0  0  0  1  0  0  0  0  0  0
  188.3840  173.8040  139.1280 C   0  0  0  0  0  2  0  0  0  0  0  0
  188.9370  174.3270  140.4520 C   0  0  0  0  0  2  0  0  0  0  0  0
  188.9020  173.7340  142.8170 N   0  0  0  0  0  0  0  0  0  0  0  0
  188.1680  172.6960  142.0300 C   0  0  0  0  0  2  0  0  0  0  0  0
  189.7830  174.1300  143.8690 C   0  0  0  0  0  0  0  0  0  0  0  0
  190.1660  173.2560  144.6920 O   0  0  0  0  0  0  0  0  0  0  0  0
  188.0390  174.0090  141.6300 C   0  0  2  0  0  3  0  0  0  0  0  0
  190.2280  175.5490  143.9780 C   0  0  0  0  0  0  0  0  0  0  0  0
  191.1760  178.2040  144.0520 C   0  0  0  0  0  3  0  0  0  0  0  0
  191.7410  177.2870  143.1680 C   0  0  0  0  0  3  0  0  0  0  0  0
  191.2700  175.9730  143.1340 C   0  0  0  0  0  3  0  0  0  0  0  0
  190.1430  177.8090  144.9010 C   0  0  0  0  0  3  0  0  0  0  0  0
  189.6580  176.4950  144.8770 C   0  0  0  0  0  0  0  0  0  0  0  0
  188.3360  176.0980  146.0350 S   0  0  0  0  0  0  0  0  0  0  0  0
  187.2720  177.4450  145.4350 C   0  0  0  0  0  2  0  0  0  0  0  0
  186.1280  176.8810  144.6130 C   0  0  0  0  0  2  0  0  0  0  0  0
  185.3940  177.9780  144.0070 N   0  0  0  0  0  2  0  0  0  0  0  0
  184.6920  178.2850  141.6710 C   0  0  0  0  0  3  0  0  0  0  0  0
  184.9740  178.2460  140.4130 N   0  0  0  0  0  2  0  0  0  0  0  0
  185.6960  177.9870  142.6380 N   0  0  0  0  0  2  0  0  0  0  0  0
  190.9050  173.5650  138.5200 C   0  0  0  0  0  2  0  0  0  0  0  0
  190.5740  171.1550  139.1960 C   0  0  0  0  0  1  0  0  0  0  0  0
  192.4390  171.8170  137.7280 C   0  0  0  0  0  1  0  0  0  0  0  0
  191.5920  172.2510  138.9110 C   0  0  0  0  0  0  0  0  0  0  0  0
  192.0240  172.4740  141.3530 C   0  0  0  0  0  3  0  0  0  0  0  0
  192.4800  172.4810  140.1000 C   0  0  0  0  0  3  0  0  0  0  0  0
  192.9670  172.6670  142.4910 C   0  0  0  0  0  2  0  0  0  0  0  0
  194.3660  172.9730  141.9730 C   0  0  0  0  0  2  0  0  0  0  0  0
  194.8570  174.2340  142.5250 N   0  0  0  0  0  0  0  0  0  0  0  0
  194.7570  175.4590  141.7940 C   0  0  0  0  0  3  0  0  0  0  0  0
  194.2400  175.4900  140.6480 O   0  0  0  0  0  0  0  0  0  0  0  0
  195.5610  174.2470  144.1070 S   0  0  0  0  0  0  0  0  0  0  0  0
  195.8100  172.8370  144.5700 O   0  0  0  0  0  0  0  0  0  0  0  0
  196.8740  174.9830  144.0570 O   0  0  0  0  0  0  0  0  0  0  0  0
  194.7210  176.3550  145.6380 C   0  0  0  0  0  3  0  0  0  0  0  0
  193.3830  174.3380  145.7730 C   0  0  0  0  0  3  0  0  0  0  0  0
  193.8610  176.9850  146.5450 C   0  0  0  0  0  3  0  0  0  0  0  0
  194.4840  175.0300  145.2510 C   0  0  0  0  0  0  0  0  0  0  0  0
  192.7610  176.2920  147.0640 C   0  0  0  0  0  3  0  0  0  0  0  0
  192.5220  174.9680  146.6780 C   0  0  0  0  0  3  0  0  0  0  0  0
  1 25  1  1  0  0  0
  1  5  1  0  0  0  0
  2  1  1  0  0  0  0
  3  2  2  0  0  0  0
  4  2  1  0  0  0  0
  5  6  1  0  0  0  0
  7  9  1  0  0  0  0
  8  7  1  0  0  0  0
  9 12  1  0  0  0  0
  9 10  2  0  0  0  0
 11  6  1  6  0  0  0
 11  8  1  0  0  0  0
 11  7  1  0  0  0  0
 12 17  1  0  0  0  0
 13 16  1  0  0  0  0
 14 13  2  0  0  0  0
 15 14  1  0  0  0  0
 15 12  2  0  0  0  0
 17 16  2  0  0  0  0
 17 18  1  0  0  0  0
 19 18  1  0  0  0  0
 20 19  1  0  0  0  0
 21 20  1  0  0  0  0
 22 24  1  0  0  0  0
 23 22  2  0  0  0  0
 24 21  1  0  0  0  0
 25 28  1  0  0  0  0
 27 28  1  0  0  0  0
 28 26  1  0  0  0  0
 28 30  1  0  0  0  0
 29 31  1  0  0  0  0
 30 29  2  0  0  0  0
 32 31  1  0  0  0  0
 32 33  1  0  0  0  0
 33 36  1  0  0  0  0
 34 33  1  0  0  0  0
 35 34  2  0  0  0  0
 36 37  2  0  0  0  0
 36 42  1  0  0  0  0
 38 36  2  0  0  0  0
 39 41  1  0  0  0  0
 40 44  2  0  0  0  0
 41 43  2  0  0  0  0
 42 39  2  0  0  0  0
 42 40  1  0  0  0  0
 44 43  1  0  0  0  0
M  END
>  <MODEL>
3

>  <REMARK>
 VINA RESULT:      -5.8      2.580      7.269
  Name = 
  18 active torsions:
  status: ('A' for Active; 'I' for Inactive)
    1  A    between atoms: C_1  and  C_30
    2  A    between atoms: S_3  and  N_10
    3  A    between atoms: S_3  and  C_22
    4  A    between atoms: N_5  and  N_17
    5  A    between atoms: N_5  and  C_19
    6  A    between atoms: N_10  and  C_20
    7  A    between atoms: C_16  and  C_20
    8  A    between atoms: C_16  and  C_34
    9  A    between atoms: C_18  and  C_28
   10  A    between atoms: C_19  and  C_25
   11  A    between atoms: C_25  and  S_37
   12  A    between atoms: C_26  and  S_37
   13  A    between atoms: C_28  and  C_31
   14  A    between atoms: C_28  and  C_43
   15  A    between atoms: C_31  and  C_35
   16  A    between atoms: C_32  and  C_38
   17  A    between atoms: C_32  and  C_43
   18  A    between atoms: C_35  and  C_39
                            x       y       z     vdW  Elec       q    Type
                         _______ _______ _______ _____ _____    ______ ____

>  <TORSDO>
F 18

$$$$
=
 OpenBabel11062422113D

 44 46  0  0  1  0  0  0  0  0999 V2000
  189.8840  172.8050  140.3960 C   0  0  2  0  0  3  0  0  0  0  0  0
  188.9540  172.9050  139.2280 C   0  0  0  0  0  0  0  0  0  0  0  0
  188.7350  171.9100  138.4890 O   0  0  0  0  0  0  0  0  0  0  0  0
  188.3150  174.1440  138.9420 N   0  0  0  0  0  1  0  0  0  0  0  0
  189.7480  174.0000  141.3480 C   0  0  0  0  0  2  0  0  0  0  0  0
  189.8590  173.6670  142.8350 C   0  0  0  0  0  2  0  0  0  0  0  0
  190.8030  175.8480  143.3780 N   0  0  0  0  0  0  0  0  0  0  0  0
  191.8010  175.0510  142.6010 C   0  0  0  0  0  2  0  0  0  0  0  0
  190.1420  177.0730  143.6980 C   0  0  0  0  0  0  0  0  0  0  0  0
  190.5710  178.1390  143.1820 O   0  0  0  0  0  0  0  0  0  0  0  0
  191.0140  174.3760  143.5100 C   0  0  2  0  0  3  0  0  0  0  0  0
  188.9750  177.0730  144.6260 C   0  0  0  0  0  0  0  0  0  0  0  0
  186.8740  177.1150  146.5070 C   0  0  0  0  0  3  0  0  0  0  0  0
  188.1880  177.3160  146.9250 C   0  0  0  0  0  3  0  0  0  0  0  0
  189.2250  177.2940  145.9920 C   0  0  0  0  0  3  0  0  0  0  0  0
  186.5980  176.8910  145.1580 C   0  0  0  0  0  3  0  0  0  0  0  0
  187.6280  176.8680  144.2100 C   0  0  0  0  0  0  0  0  0  0  0  0
  187.1500  176.5490  142.5020 S   0  0  0  0  0  0  0  0  0  0  0  0
  185.4880  177.2500  142.7320 C   0  0  0  0  0  2  0  0  0  0  0  0
  185.3190  178.4880  141.8710 C   0  0  0  0  0  2  0  0  0  0  0  0
  184.3170  178.2240  140.8520 N   0  0  0  0  0  2  0  0  0  0  0  0
  181.8610  178.2120  140.7460 C   0  0  0  0  0  3  0  0  0  0  0  0
  180.7240  178.1720  141.3540 N   0  0  0  0  0  2  0  0  0  0  0  0
  183.0730  178.1330  141.4930 N   0  0  0  0  0  2  0  0  0  0  0  0
  191.3170  172.4560  139.9570 C   0  0  0  0  0  2  0  0  0  0  0  0
  190.8850  170.3830  141.3310 C   0  0  0  0  0  1  0  0  0  0  0  0
  192.5770  170.3880  139.5400 C   0  0  0  0  0  1  0  0  0  0  0  0
  191.9410  171.2290  140.6320 C   0  0  0  0  0  0  0  0  0  0  0  0
  194.0760  172.3660  141.2260 C   0  0  0  0  0  3  0  0  0  0  0  0
  193.0010  171.6710  141.6000 C   0  0  0  0  0  3  0  0  0  0  0  0
  195.0700  172.8080  142.2440 C   0  0  0  0  0  2  0  0  0  0  0  0
  196.0330  173.8190  141.6390 C   0  0  0  0  0  2  0  0  0  0  0  0
  195.7020  175.1740  142.0760 N   0  0  0  0  0  0  0  0  0  0  0  0
  194.9760  176.0750  141.2340 C   0  0  0  0  0  3  0  0  0  0  0  0
  194.5990  175.7270  140.0850 O   0  0  0  0  0  0  0  0  0  0  0  0
  196.1830  175.6940  143.6560 S   0  0  0  0  0  0  0  0  0  0  0  0
  197.2990  174.8230  144.1660 O   0  0  0  0  0  0  0  0  0  0  0  0
  196.6720  177.1170  143.5790 O   0  0  0  0  0  0  0  0  0  0  0  0
  194.4590  174.3480  145.3020 C   0  0  0  0  0  3  0  0  0  0  0  0
  194.1330  176.7450  145.1460 C   0  0  0  0  0  3  0  0  0  0  0  0
  193.3870  174.2620  146.1980 C   0  0  0  0  0  3  0  0  0  0  0  0
  194.8340  175.5900  144.7740 C   0  0  0  0  0  0  0  0  0  0  0  0
  192.6890  175.4180  146.5690 C   0  0  0  0  0  3  0  0  0  0  0  0
  193.0620  176.6590  146.0430 C   0  0  0  0  0  3  0  0  0  0  0  0
  1 25  1  6  0  0  0
  1  5  1  0  0  0  0
  2  1  1  0  0  0  0
  3  2  2  0  0  0  0
  4  2  1  0  0  0  0
  5  6  1  0  0  0  0
  7 11  1  0  0  0  0
  7  9  1  0  0  0  0
  8  7  1  0  0  0  0
  8 11  1  0  0  0  0
  9 12  1  0  0  0  0
 10  9  2  0  0  0  0
 11  6  1  6  0  0  0
 12 15  1  0  0  0  0
 13 14  1  0  0  0  0
 15 14  2  0  0  0  0
 16 13  2  0  0  0  0
 17 12  2  0  0  0  0
 17 16  1  0  0  0  0
 18 19  1  0  0  0  0
 18 17  1  0  0  0  0
 20 19  1  0  0  0  0
 21 24  1  0  0  0  0
 21 20  1  0  0  0  0
 22 23  2  0  0  0  0
 22 24  1  0  0  0  0
 25 28  1  0  0  0  0
 27 28  1  0  0  0  0
 28 26  1  0  0  0  0
 28 30  1  0  0  0  0
 29 30  2  0  0  0  0
 29 31  1  0  0  0  0
 32 33  1  0  0  0  0
 32 31  1  0  0  0  0
 33 36  1  0  0  0  0
 34 33  1  0  0  0  0
 35 34  2  0  0  0  0
 36 37  2  0  0  0  0
 36 42  1  0  0  0  0
 38 36  2  0  0  0  0
 39 41  1  0  0  0  0
 40 44  2  0  0  0  0
 41 43  2  0  0  0  0
 42 40  1  0  0  0  0
 42 39  2  0  0  0  0
 44 43  1  0  0  0  0
M  END
>  <MODEL>
4

>  <REMARK>
 VINA RESULT:      -5.7      2.323      7.943
  Name = 
  18 active torsions:
  status: ('A' for Active; 'I' for Inactive)
    1  A    between atoms: C_1  and  C_30
    2  A    between atoms: S_3  and  N_10
    3  A    between atoms: S_3  and  C_22
    4  A    between atoms: N_5  and  N_17
    5  A    between atoms: N_5  and  C_19
    6  A    between atoms: N_10  and  C_20
    7  A    between atoms: C_16  and  C_20
    8  A    between atoms: C_16  and  C_34
    9  A    between atoms: C_18  and  C_28
   10  A    between atoms: C_19  and  C_25
   11  A    between atoms: C_25  and  S_37
   12  A    between atoms: C_26  and  S_37
   13  A    between atoms: C_28  and  C_31
   14  A    between atoms: C_28  and  C_43
   15  A    between atoms: C_31  and  C_35
   16  A    between atoms: C_32  and  C_38
   17  A    between atoms: C_32  and  C_43
   18  A    between atoms: C_35  and  C_39
                            x       y       z     vdW  Elec       q    Type
                         _______ _______ _______ _____ _____    ______ ____

>  <TORSDO>
F 18

$$$$
=
 OpenBabel11062422113D

 44 46  0  0  1  0  0  0  0  0999 V2000
  192.4810  174.9780  144.8840 C   0  0  2  0  0  3  0  0  0  0  0  0
  193.6890  175.8240  145.1400 C   0  0  0  0  0  0  0  0  0  0  0  0
  193.6140  176.8560  145.8580 O   0  0  0  0  0  0  0  0  0  0  0  0
  194.9360  175.4650  144.5580 N   0  0  0  0  0  1  0  0  0  0  0  0
  192.6490  174.0910  143.6440 C   0  0  0  0  0  2  0  0  0  0  0  0
  192.1020  174.6760  142.3430 C   0  0  0  0  0  2  0  0  0  0  0  0
  192.8800  173.3290  140.4660 N   0  0  0  0  0  0  0  0  0  0  0  0
  194.0210  173.6020  141.3920 C   0  0  0  0  0  2  0  0  0  0  0  0
  192.1440  172.4750  139.5890 C   0  0  0  0  0  0  0  0  0  0  0  0
  192.6340  171.3530  139.2930 O   0  0  0  0  0  0  0  0  0  0  0  0
  193.0980  174.6080  141.2040 C   0  0  2  0  0  3  0  0  0  0  0  0
  190.8270  172.9160  139.0460 C   0  0  0  0  0  0  0  0  0  0  0  0
  188.2650  173.6960  138.1640 C   0  0  0  0  0  3  0  0  0  0  0  0
  188.4090  173.0170  139.3720 C   0  0  0  0  0  3  0  0  0  0  0  0
  189.6790  172.6320  139.8050 C   0  0  0  0  0  3  0  0  0  0  0  0
  189.3880  173.9880  137.3890 C   0  0  0  0  0  3  0  0  0  0  0  0
  190.6680  173.6110  137.8130 C   0  0  0  0  0  0  0  0  0  0  0  0
  192.0380  174.0250  136.7180 S   0  0  0  0  0  0  0  0  0  0  0  0
  191.0110  175.1100  135.6820 C   0  0  0  0  0  2  0  0  0  0  0  0
  191.8720  176.1670  135.0170 C   0  0  0  0  0  2  0  0  0  0  0  0
  193.2680  175.9070  135.3290 N   0  0  0  0  0  2  0  0  0  0  0  0
  193.2570  178.3530  135.0810 C   0  0  0  0  0  3  0  0  0  0  0  0
  193.9080  179.4570  134.9360 N   0  0  0  0  0  2  0  0  0  0  0  0
  193.9610  177.1210  135.2180 N   0  0  0  0  0  2  0  0  0  0  0  0
  191.1820  175.8010  144.9500 C   0  0  0  0  0  2  0  0  0  0  0  0
  189.7220  173.8110  145.4750 C   0  0  0  0  0  1  0  0  0  0  0  0
  190.6320  175.2270  147.2740 C   0  0  0  0  0  1  0  0  0  0  0  0
  190.0840  175.2390  145.8590 C   0  0  0  0  0  0  0  0  0  0  0  0
  188.3380  176.6870  146.8870 C   0  0  0  0  0  3  0  0  0  0  0  0
  188.8770  176.1320  145.8020 C   0  0  0  0  0  3  0  0  0  0  0  0
  187.1650  177.5960  146.7560 C   0  0  0  0  0  2  0  0  0  0  0  0
  186.0460  176.9090  145.9860 C   0  0  0  0  0  2  0  0  0  0  0  0
  185.1890  177.8940  145.3290 N   0  0  0  0  0  0  0  0  0  0  0  0
  184.1740  178.6000  146.0480 C   0  0  0  0  0  3  0  0  0  0  0  0
  183.9860  178.3930  147.2750 O   0  0  0  0  0  0  0  0  0  0  0  0
  185.4210  178.2270  143.6450 S   0  0  0  0  0  0  0  0  0  0  0  0
  184.1710  177.8920  142.8780 O   0  0  0  0  0  0  0  0  0  0  0  0
  185.7220  179.6920  143.4700 O   0  0  0  0  0  0  0  0  0  0  0  0
  186.5620  175.9010  142.7610 C   0  0  0  0  0  3  0  0  0  0  0  0
  187.9840  177.8640  142.7360 C   0  0  0  0  0  3  0  0  0  0  0  0
  187.6140  175.1340  142.2470 C   0  0  0  0  0  3  0  0  0  0  0  0
  186.7450  177.2670  143.0070 C   0  0  0  0  0  0  0  0  0  0  0  0
  188.8500  175.7330  141.9750 C   0  0  0  0  0  3  0  0  0  0  0  0
  189.0350  177.0980  142.2200 C   0  0  0  0  0  3  0  0  0  0  0  0
  1  5  1  6  0  0  0
  1 25  1  0  0  0  0
  1  2  1  0  0  0  0
  2  3  2  0  0  0  0
  4  2  1  0  0  0  0
  6  5  1  0  0  0  0
  7 11  1  0  0  0  0
  7  8  1  0  0  0  0
  9  7  1  0  0  0  0
 10  9  2  0  0  0  0
 11  8  1  0  0  0  0
 11  6  1  1  0  0  0
 12  9  1  0  0  0  0
 12 15  1  0  0  0  0
 13 14  1  0  0  0  0
 14 15  2  0  0  0  0
 16 17  1  0  0  0  0
 16 13  2  0  0  0  0
 17 12  2  0  0  0  0
 18 17  1  0  0  0  0
 19 18  1  0  0  0  0
 20 21  1  0  0  0  0
 20 19  1  0  0  0  0
 22 24  1  0  0  0  0
 23 22  2  0  0  0  0
 24 21  1  0  0  0  0
 25 28  1  0  0  0  0
 26 28  1  0  0  0  0
 28 27  1  0  0  0  0
 30 28  1  0  0  0  0
 30 29  2  0  0  0  0
 31 29  1  0  0  0  0
 32 31  1  0  0  0  0
 33 32  1  0  0  0  0
 33 34  1  0  0  0  0
 34 35  2  0  0  0  0
 36 33  1  0  0  0  0
 37 36  2  0  0  0  0
 38 36  2  0  0  0  0
 39 42  1  0  0  0  0
 40 42  2  0  0  0  0
 41 39  2  0  0  0  0
 42 36  1  0  0  0  0
 43 44  2  0  0  0  0
 43 41  1  0  0  0  0
 44 40  1  0  0  0  0
M  END
>  <MODEL>
5

>  <REMARK>
 VINA RESULT:      -5.5      3.145      5.858
  Name = 
  18 active torsions:
  status: ('A' for Active; 'I' for Inactive)
    1  A    between atoms: C_1  and  C_30
    2  A    between atoms: S_3  and  N_10
    3  A    between atoms: S_3  and  C_22
    4  A    between atoms: N_5  and  N_17
    5  A    between atoms: N_5  and  C_19
    6  A    between atoms: N_10  and  C_20
    7  A    between atoms: C_16  and  C_20
    8  A    between atoms: C_16  and  C_34
    9  A    between atoms: C_18  and  C_28
   10  A    between atoms: C_19  and  C_25
   11  A    between atoms: C_25  and  S_37
   12  A    between atoms: C_26  and  S_37
   13  A    between atoms: C_28  and  C_31
   14  A    between atoms: C_28  and  C_43
   15  A    between atoms: C_31  and  C_35
   16  A    between atoms: C_32  and  C_38
   17  A    between atoms: C_32  and  C_43
   18  A    between atoms: C_35  and  C_39
                            x       y       z     vdW  Elec       q    Type
                         _______ _______ _______ _____ _____    ______ ____

>  <TORSDO>
F 18

$$$$
=
 OpenBabel11062422113D

 44 46  0  0  1  0  0  0  0  0999 V2000
  192.2130  175.0340  145.6960 C   0  0  2  0  0  3  0  0  0  0  0  0
  193.1330  176.1960  145.4850 C   0  0  0  0  0  0  0  0  0  0  0  0
  193.1530  176.8130  144.3880 O   0  0  0  0  0  0  0  0  0  0  0  0
  194.0020  176.6050  146.5340 N   0  0  0  0  0  1  0  0  0  0  0  0
  191.2340  175.2740  146.8520 C   0  0  0  0  0  2  0  0  0  0  0  0
  189.7640  175.0110  146.5290 C   0  0  0  0  0  2  0  0  0  0  0  0
  189.5060  177.1360  145.3630 N   0  0  0  0  0  0  0  0  0  0  0  0
  189.6770  177.3860  146.8270 C   0  0  0  0  0  2  0  0  0  0  0  0
  189.7430  177.4590  143.9920 C   0  0  0  0  0  0  0  0  0  0  0  0
  190.3380  178.5370  143.7240 O   0  0  0  0  0  0  0  0  0  0  0  0
  188.9440  176.2810  146.4510 C   0  0  2  0  0  3  0  0  0  0  0  0
  189.2900  176.5320  142.9160 C   0  0  0  0  0  0  0  0  0  0  0  0
  188.5520  174.6660  140.9360 C   0  0  0  0  0  3  0  0  0  0  0  0
  189.6330  174.4010  141.7730 C   0  0  0  0  0  3  0  0  0  0  0  0
  189.9970  175.3270  142.7520 C   0  0  0  0  0  3  0  0  0  0  0  0
  187.8350  175.8540  141.0750 C   0  0  0  0  0  3  0  0  0  0  0  0
  188.1860  176.7910  142.0550 C   0  0  0  0  0  0  0  0  0  0  0  0
  187.2000  178.2980  142.1250 S   0  0  0  0  0  0  0  0  0  0  0  0
  186.0850  177.6270  143.3960 C   0  0  0  0  0  2  0  0  0  0  0  0
  185.7120  178.7100  144.3890 C   0  0  0  0  0  2  0  0  0  0  0  0
  184.3910  178.4290  144.9250 N   0  0  0  0  0  2  0  0  0  0  0  0
  185.7800  178.2510  146.9450 C   0  0  0  0  0  3  0  0  0  0  0  0
  185.9270  177.8370  148.1580 N   0  0  0  0  0  2  0  0  0  0  0  0
  184.5500  178.0280  146.2590 N   0  0  0  0  0  2  0  0  0  0  0  0
  192.9790  173.7000  145.7310 C   0  0  0  0  0  2  0  0  0  0  0  0
  193.5010  171.4550  144.7020 C   0  0  0  0  0  1  0  0  0  0  0  0
  191.2320  172.4070  144.5840 C   0  0  0  0  0  1  0  0  0  0  0  0
  192.7110  172.7480  144.5590 C   0  0  0  0  0  0  0  0  0  0  0  0
  194.1410  173.1680  142.5630 C   0  0  0  0  0  3  0  0  0  0  0  0
  193.0400  173.4370  143.2650 C   0  0  0  0  0  3  0  0  0  0  0  0
  194.3860  173.8580  141.2650 C   0  0  0  0  0  2  0  0  0  0  0  0
  193.0660  174.2710  140.6290 C   0  0  0  0  0  2  0  0  0  0  0  0
  193.0080  173.8390  139.2340 N   0  0  0  0  0  0  0  0  0  0  0  0
  193.7870  174.4790  138.2200 C   0  0  0  0  0  3  0  0  0  0  0  0
  194.5490  175.4400  138.4980 O   0  0  0  0  0  0  0  0  0  0  0  0
  191.9860  172.5080  138.8030 S   0  0  0  0  0  0  0  0  0  0  0  0
  190.5780  172.9920  138.5830 O   0  0  0  0  0  0  0  0  0  0  0  0
  192.4940  171.8900  137.5260 O   0  0  0  0  0  0  0  0  0  0  0  0
  190.8160  171.1090  140.8440 C   0  0  0  0  0  3  0  0  0  0  0  0
  193.1160  170.5350  140.3380 C   0  0  0  0  0  3  0  0  0  0  0  0
  190.8010  170.1470  141.8600 C   0  0  0  0  0  3  0  0  0  0  0  0
  191.9740  171.3060  140.0810 C   0  0  0  0  0  0  0  0  0  0  0  0
  191.9430  169.3770  142.1140 C   0  0  0  0  0  3  0  0  0  0  0  0
  193.1000  169.5710  141.3520 C   0  0  0  0  0  3  0  0  0  0  0  0
  1 25  1  1  0  0  0
  1  5  1  0  0  0  0
  2  1  1  0  0  0  0
  2  4  1  0  0  0  0
  3  2  2  0  0  0  0
  6  5  1  0  0  0  0
  7 11  1  0  0  0  0
  7  8  1  0  0  0  0
  9  7  1  0  0  0  0
 10  9  2  0  0  0  0
 11  6  1  6  0  0  0
 11  8  1  0  0  0  0
 12  9  1  0  0  0  0
 13 16  2  0  0  0  0
 13 14  1  0  0  0  0
 14 15  2  0  0  0  0
 15 12  1  0  0  0  0
 16 17  1  0  0  0  0
 17 18  1  0  0  0  0
 17 12  2  0  0  0  0
 18 19  1  0  0  0  0
 19 20  1  0  0  0  0
 20 21  1  0  0  0  0
 21 24  1  0  0  0  0
 22 23  2  0  0  0  0
 24 22  1  0  0  0  0
 28 27  1  0  0  0  0
 28 26  1  0  0  0  0
 28 25  1  0  0  0  0
 29 30  2  0  0  0  0
 30 28  1  0  0  0  0
 31 29  1  0  0  0  0
 32 31  1  0  0  0  0
 33 32  1  0  0  0  0
 34 35  2  0  0  0  0
 34 33  1  0  0  0  0
 36 33  1  0  0  0  0
 36 42  1  0  0  0  0
 37 36  2  0  0  0  0
 38 36  2  0  0  0  0
 39 41  1  0  0  0  0
 40 44  2  0  0  0  0
 41 43  2  0  0  0  0
 42 40  1  0  0  0  0
 42 39  2  0  0  0  0
 44 43  1  0  0  0  0
M  END
>  <MODEL>
6

>  <REMARK>
 VINA RESULT:      -5.5      2.871      8.448
  Name = 
  18 active torsions:
  status: ('A' for Active; 'I' for Inactive)
    1  A    between atoms: C_1  and  C_30
    2  A    between atoms: S_3  and  N_10
    3  A    between atoms: S_3  and  C_22
    4  A    between atoms: N_5  and  N_17
    5  A    between atoms: N_5  and  C_19
    6  A    between atoms: N_10  and  C_20
    7  A    between atoms: C_16  and  C_20
    8  A    between atoms: C_16  and  C_34
    9  A    between atoms: C_18  and  C_28
   10  A    between atoms: C_19  and  C_25
   11  A    between atoms: C_25  and  S_37
   12  A    between atoms: C_26  and  S_37
   13  A    between atoms: C_28  and  C_31
   14  A    between atoms: C_28  and  C_43
   15  A    between atoms: C_31  and  C_35
   16  A    between atoms: C_32  and  C_38
   17  A    between atoms: C_32  and  C_43
   18  A    between atoms: C_35  and  C_39
                            x       y       z     vdW  Elec       q    Type
                         _______ _______ _______ _____ _____    ______ ____

>  <TORSDO>
F 18

$$$$
=
 OpenBabel11062422113D

 44 46  0  0  1  0  0  0  0  0999 V2000
  192.5340  175.2140  145.1570 C   0  0  2  0  0  3  0  0  0  0  0  0
  193.5440  176.2990  145.3660 C   0  0  0  0  0  0  0  0  0  0  0  0
  193.2660  177.4990  145.1080 O   0  0  0  0  0  0  0  0  0  0  0  0
  194.8380  175.9690  145.8550 N   0  0  0  0  0  1  0  0  0  0  0  0
  192.9820  174.2040  144.0940 C   0  0  0  0  0  2  0  0  0  0  0  0
  192.1700  174.2140  142.7990 C   0  0  0  0  0  2  0  0  0  0  0  0
  192.9640  173.5600  140.5890 N   0  0  0  0  0  0  0  0  0  0  0  0
  194.1300  173.9080  141.4560 C   0  0  0  0  0  2  0  0  0  0  0  0
  192.3280  172.7580  139.5920 C   0  0  0  0  0  0  0  0  0  0  0  0
  193.0170  171.8950  138.9870 O   0  0  0  0  0  0  0  0  0  0  0  0
  192.9830  174.6580  141.6000 C   0  0  2  0  0  3  0  0  0  0  0  0
  190.8820  172.9530  139.2870 C   0  0  0  0  0  0  0  0  0  0  0  0
  188.1930  173.3960  138.5610 C   0  0  0  0  0  3  0  0  0  0  0  0
  189.2210  173.8920  137.7620 C   0  0  0  0  0  3  0  0  0  0  0  0
  190.5510  173.6720  138.1240 C   0  0  0  0  0  3  0  0  0  0  0  0
  188.4930  172.6820  139.7210 C   0  0  0  0  0  3  0  0  0  0  0  0
  189.8230  172.4500  140.0960 C   0  0  0  0  0  0  0  0  0  0  0  0
  190.0850  171.5340  141.6250 S   0  0  0  0  0  0  0  0  0  0  0  0
  190.6000  170.0260  140.7490 C   0  0  0  0  0  2  0  0  0  0  0  0
  191.2380  169.0500  141.7180 C   0  0  0  0  0  2  0  0  0  0  0  0
  192.0090  169.7930  142.7010 N   0  0  0  0  0  2  0  0  0  0  0  0
  193.4220  169.2710  144.6440 C   0  0  0  0  0  3  0  0  0  0  0  0
  194.1160  168.4150  145.3130 N   0  0  0  0  0  2  0  0  0  0  0  0
  192.7290  168.8640  143.4670 N   0  0  0  0  0  2  0  0  0  0  0  0
  191.1130  175.7810  144.9890 C   0  0  0  0  0  2  0  0  0  0  0  0
  189.7070  173.7400  145.4670 C   0  0  0  0  0  1  0  0  0  0  0  0
  190.6030  175.1210  147.3000 C   0  0  0  0  0  1  0  0  0  0  0  0
  190.0390  175.1640  145.8920 C   0  0  0  0  0  0  0  0  0  0  0  0
  188.6540  177.0770  146.6830 C   0  0  0  0  0  3  0  0  0  0  0  0
  188.8100  176.0280  145.8750 C   0  0  0  0  0  3  0  0  0  0  0  0
  187.4270  177.9170  146.5860 C   0  0  0  0  0  2  0  0  0  0  0  0
  186.2570  177.0880  146.0750 C   0  0  0  0  0  2  0  0  0  0  0  0
  185.2850  177.9350  145.3860 N   0  0  0  0  0  0  0  0  0  0  0  0
  184.1730  178.5100  146.0770 C   0  0  0  0  0  3  0  0  0  0  0  0
  183.9950  178.3030  147.3050 O   0  0  0  0  0  0  0  0  0  0  0  0
  185.4960  178.2630  143.6990 S   0  0  0  0  0  0  0  0  0  0  0  0
  184.2370  177.9250  142.9480 O   0  0  0  0  0  0  0  0  0  0  0  0
  185.7940  179.7280  143.5150 O   0  0  0  0  0  0  0  0  0  0  0  0
  188.0610  177.8940  142.8150 C   0  0  0  0  0  3  0  0  0  0  0  0
  186.6240  175.9430  142.7650 C   0  0  0  0  0  3  0  0  0  0  0  0
  189.1150  177.1300  142.3010 C   0  0  0  0  0  3  0  0  0  0  0  0
  186.8130  177.3030  143.0470 C   0  0  0  0  0  0  0  0  0  0  0  0
  188.9230  175.7720  142.0210 C   0  0  0  0  0  3  0  0  0  0  0  0
  187.6780  175.1780  142.2530 C   0  0  0  0  0  3  0  0  0  0  0  0
  1  5  1  6  0  0  0
  1  2  1  0  0  0  0
  2  4  1  0  0  0  0
  3  2  2  0  0  0  0
  6  5  1  0  0  0  0
  7  8  1  0  0  0  0
  7 11  1  0  0  0  0
  8 11  1  0  0  0  0
  9  7  1  0  0  0  0
 10  9  2  0  0  0  0
 11  6  1  1  0  0  0
 12  9  1  0  0  0  0
 12 17  1  0  0  0  0
 13 16  1  0  0  0  0
 14 15  1  0  0  0  0
 14 13  2  0  0  0  0
 15 12  2  0  0  0  0
 16 17  2  0  0  0  0
 17 18  1  0  0  0  0
 19 18  1  0  0  0  0
 19 20  1  0  0  0  0
 20 21  1  0  0  0  0
 21 24  1  0  0  0  0
 22 23  2  0  0  0  0
 24 22  1  0  0  0  0
 25  1  1  0  0  0  0
 25 28  1  0  0  0  0
 26 28  1  0  0  0  0
 28 27  1  0  0  0  0
 30 28  1  0  0  0  0
 30 29  2  0  0  0  0
 31 29  1  0  0  0  0
 32 31  1  0  0  0  0
 33 32  1  0  0  0  0
 33 34  1  0  0  0  0
 34 35  2  0  0  0  0
 36 33  1  0  0  0  0
 37 36  2  0  0  0  0
 38 36  2  0  0  0  0
 39 42  1  0  0  0  0
 40 42  2  0  0  0  0
 41 39  2  0  0  0  0
 42 36  1  0  0  0  0
 43 44  2  0  0  0  0
 43 41  1  0  0  0  0
 44 40  1  0  0  0  0
M  END
>  <MODEL>
7

>  <REMARK>
 VINA RESULT:      -5.4      2.595      5.986
  Name = 
  18 active torsions:
  status: ('A' for Active; 'I' for Inactive)
    1  A    between atoms: C_1  and  C_30
    2  A    between atoms: S_3  and  N_10
    3  A    between atoms: S_3  and  C_22
    4  A    between atoms: N_5  and  N_17
    5  A    between atoms: N_5  and  C_19
    6  A    between atoms: N_10  and  C_20
    7  A    between atoms: C_16  and  C_20
    8  A    between atoms: C_16  and  C_34
    9  A    between atoms: C_18  and  C_28
   10  A    between atoms: C_19  and  C_25
   11  A    between atoms: C_25  and  S_37
   12  A    between atoms: C_26  and  S_37
   13  A    between atoms: C_28  and  C_31
   14  A    between atoms: C_28  and  C_43
   15  A    between atoms: C_31  and  C_35
   16  A    between atoms: C_32  and  C_38
   17  A    between atoms: C_32  and  C_43
   18  A    between atoms: C_35  and  C_39
                            x       y       z     vdW  Elec       q    Type
                         _______ _______ _______ _____ _____    ______ ____

>  <TORSDO>
F 18

$$$$
=
 OpenBabel11062422113D

 44 46  0  0  1  0  0  0  0  0999 V2000
  186.4120  177.4950  145.5330 C   0  0  2  0  0  3  0  0  0  0  0  0
  185.5040  178.5080  146.1570 C   0  0  0  0  0  0  0  0  0  0  0  0
  185.9030  179.2380  147.1020 O   0  0  0  0  0  0  0  0  0  0  0  0
  184.1700  178.6430  145.6840 N   0  0  0  0  0  1  0  0  0  0  0  0
  187.2420  176.7400  146.5790 C   0  0  0  0  0  2  0  0  0  0  0  0
  188.7540  176.9360  146.4790 C   0  0  0  0  0  2  0  0  0  0  0  0
  189.8540  174.7640  146.3490 N   0  0  0  0  0  0  0  0  0  0  0  0
  188.8150  174.7340  147.4220 C   0  0  0  0  0  2  0  0  0  0  0  0
  190.5650  174.1660  145.2630 C   0  0  0  0  0  0  0  0  0  0  0  0
  190.3590  172.9490  145.0100 O   0  0  0  0  0  0  0  0  0  0  0  0
  189.5330  175.8990  147.2630 C   0  0  2  0  0  3  0  0  0  0  0  0
  191.5240  174.9760  144.4600 C   0  0  0  0  0  0  0  0  0  0  0  0
  193.2080  176.6140  142.8990 C   0  0  0  0  0  3  0  0  0  0  0  0
  191.8380  176.8640  142.9420 C   0  0  0  0  0  3  0  0  0  0  0  0
  191.0070  176.0510  143.7150 C   0  0  0  0  0  3  0  0  0  0  0  0
  193.7460  175.5520  143.6260 C   0  0  0  0  0  3  0  0  0  0  0  0
  192.9250  174.7300  144.4080 C   0  0  0  0  0  0  0  0  0  0  0  0
  193.7330  173.3790  145.2850 S   0  0  0  0  0  0  0  0  0  0  0  0
  193.6560  172.2680  143.8480 C   0  0  0  0  0  2  0  0  0  0  0  0
  193.1140  170.9140  144.2610 C   0  0  0  0  0  2  0  0  0  0  0  0
  194.1100  169.8950  143.9750 N   0  0  0  0  0  2  0  0  0  0  0  0
  194.7800  169.6610  146.3280 C   0  0  0  0  0  3  0  0  0  0  0  0
  194.9490  168.9120  147.3650 N   0  0  0  0  0  2  0  0  0  0  0  0
  194.2540  169.1060  145.1250 N   0  0  0  0  0  2  0  0  0  0  0  0
  187.1990  178.0850  144.3500 C   0  0  0  0  0  2  0  0  0  0  0  0
  185.5340  177.5230  142.5380 C   0  0  0  0  0  1  0  0  0  0  0  0
  187.8630  178.1070  141.9840 C   0  0  0  0  0  1  0  0  0  0  0  0
  186.9810  177.3990  142.9970 C   0  0  0  0  0  0  0  0  0  0  0  0
  187.9290  175.2910  142.0680 C   0  0  0  0  0  3  0  0  0  0  0  0
  187.3910  175.9570  143.0900 C   0  0  0  0  0  3  0  0  0  0  0  0
  188.3530  173.8730  142.2410 C   0  0  0  0  0  2  0  0  0  0  0  0
  187.8950  173.0360  141.0550 C   0  0  0  0  0  2  0  0  0  0  0  0
  188.9200  173.0110  140.0140 N   0  0  0  0  0  0  0  0  0  0  0  0
  188.8060  173.8100  138.8330 C   0  0  0  0  0  3  0  0  0  0  0  0
  187.8140  174.5630  138.6530 O   0  0  0  0  0  0  0  0  0  0  0  0
  190.3130  172.0040  140.2230 S   0  0  0  0  0  0  0  0  0  0  0  0
  190.4790  171.6520  141.6760 O   0  0  0  0  0  0  0  0  0  0  0  0
  190.1280  170.7360  139.4320 O   0  0  0  0  0  0  0  0  0  0  0  0
  192.2930  172.5570  138.4150 C   0  0  0  0  0  3  0  0  0  0  0  0
  192.3780  173.7890  140.5010 C   0  0  0  0  0  3  0  0  0  0  0  0
  193.4420  173.2240  137.9760 C   0  0  0  0  0  3  0  0  0  0  0  0
  191.7590  172.8370  139.6790 C   0  0  0  0  0  0  0  0  0  0  0  0
  194.0590  174.1750  138.7990 C   0  0  0  0  0  3  0  0  0  0  0  0
  193.5270  174.4570  140.0610 C   0  0  0  0  0  3  0  0  0  0  0  0
  1 25  1  6  0  0  0
  1  2  1  0  0  0  0
  1  5  1  0  0  0  0
  2  3  2  0  0  0  0
  4  2  1  0  0  0  0
  6  5  1  0  0  0  0
  7 11  1  0  0  0  0
  7  8  1  0  0  0  0
  9  7  1  0  0  0  0
 10  9  2  0  0  0  0
 11  6  1  6  0  0  0
 11  8  1  0  0  0  0
 12  9  1  0  0  0  0
 13 14  2  0  0  0  0
 13 16  1  0  0  0  0
 14 15  1  0  0  0  0
 15 12  2  0  0  0  0
 16 17  2  0  0  0  0
 17 12  1  0  0  0  0
 17 18  1  0  0  0  0
 19 20  1  0  0  0  0
 19 18  1  0  0  0  0
 21 20  1  0  0  0  0
 21 24  1  0  0  0  0
 22 23  2  0  0  0  0
 24 22  1  0  0  0  0
 26 28  1  0  0  0  0
 27 28  1  0  0  0  0
 28 30  1  0  0  0  0
 28 25  1  0  0  0  0
 29 31  1  0  0  0  0
 29 30  2  0  0  0  0
 32 31  1  0  0  0  0
 33 36  1  0  0  0  0
 33 32  1  0  0  0  0
 34 33  1  0  0  0  0
 35 34  2  0  0  0  0
 36 37  2  0  0  0  0
 38 36  2  0  0  0  0
 39 42  1  0  0  0  0
 41 39  2  0  0  0  0
 41 43  1  0  0  0  0
 42 36  1  0  0  0  0
 42 40  2  0  0  0  0
 43 44  2  0  0  0  0
 44 40  1  0  0  0  0
M  END
>  <MODEL>
8

>  <REMARK>
 VINA RESULT:      -5.4      3.064      7.042
  Name = 
  18 active torsions:
  status: ('A' for Active; 'I' for Inactive)
    1  A    between atoms: C_1  and  C_30
    2  A    between atoms: S_3  and  N_10
    3  A    between atoms: S_3  and  C_22
    4  A    between atoms: N_5  and  N_17
    5  A    between atoms: N_5  and  C_19
    6  A    between atoms: N_10  and  C_20
    7  A    between atoms: C_16  and  C_20
    8  A    between atoms: C_16  and  C_34
    9  A    between atoms: C_18  and  C_28
   10  A    between atoms: C_19  and  C_25
   11  A    between atoms: C_25  and  S_37
   12  A    between atoms: C_26  and  S_37
   13  A    between atoms: C_28  and  C_31
   14  A    between atoms: C_28  and  C_43
   15  A    between atoms: C_31  and  C_35
   16  A    between atoms: C_32  and  C_38
   17  A    between atoms: C_32  and  C_43
   18  A    between atoms: C_35  and  C_39
                            x       y       z     vdW  Elec       q    Type
                         _______ _______ _______ _____ _____    ______ ____

>  <TORSDO>
F 18

$$$$
=
 OpenBabel11062422113D

 44 46  0  0  1  0  0  0  0  0999 V2000
  190.8320  173.3380  140.7000 C   0  0  2  0  0  3  0  0  0  0  0  0
  190.5090  173.4120  139.2400 C   0  0  0  0  0  0  0  0  0  0  0  0
  191.4030  173.2450  138.3710 O   0  0  0  0  0  0  0  0  0  0  0  0
  189.1750  173.6840  138.8280 N   0  0  0  0  0  1  0  0  0  0  0  0
  191.8770  172.2580  141.0060 C   0  0  0  0  0  2  0  0  0  0  0  0
  193.2540  172.7790  141.4160 C   0  0  0  0  0  2  0  0  0  0  0  0
  195.6480  172.7400  140.9580 N   0  0  0  0  0  0  0  0  0  0  0  0
  194.8930  172.4930  139.6920 C   0  0  0  0  0  2  0  0  0  0  0  0
  196.7260  173.3260  141.6900 C   0  0  0  0  0  0  0  0  0  0  0  0
  197.6360  173.9150  141.0490 O   0  0  0  0  0  0  0  0  0  0  0  0
  194.3870  171.9470  140.8530 C   0  0  2  0  0  3  0  0  0  0  0  0
  196.7580  173.2310  143.1770 C   0  0  0  0  0  0  0  0  0  0  0  0
  196.8380  172.8820  145.9740 C   0  0  0  0  0  3  0  0  0  0  0  0
  196.8510  171.7710  145.1330 C   0  0  0  0  0  3  0  0  0  0  0  0
  196.8110  171.9470  143.7490 C   0  0  0  0  0  3  0  0  0  0  0  0
  196.7840  174.1660  145.4340 C   0  0  0  0  0  3  0  0  0  0  0  0
  196.7460  174.3590  144.0470 C   0  0  0  0  0  0  0  0  0  0  0  0
  196.6550  176.0630  143.4690 S   0  0  0  0  0  0  0  0  0  0  0  0
  195.3090  176.4850  144.6160 C   0  0  0  0  0  2  0  0  0  0  0  0
  194.0310  175.7800  144.2050 C   0  0  0  0  0  2  0  0  0  0  0  0
  193.1910  175.5980  145.3770 N   0  0  0  0  0  2  0  0  0  0  0  0
  193.2620  173.2330  144.7110 C   0  0  0  0  0  3  0  0  0  0  0  0
  193.2530  171.9860  145.0410 N   0  0  0  0  0  2  0  0  0  0  0  0
  193.2300  174.2390  145.7200 N   0  0  0  0  0  2  0  0  0  0  0  0
  189.5600  173.3060  141.5650 C   0  0  0  0  0  2  0  0  0  0  0  0
  189.6620  173.5030  144.0800 C   0  0  0  0  0  1  0  0  0  0  0  0
  190.7570  175.1680  142.6320 C   0  0  0  0  0  1  0  0  0  0  0  0
  189.5470  174.2610  142.7640 C   0  0  0  0  0  0  0  0  0  0  0  0
  188.1360  176.1230  141.9020 C   0  0  0  0  0  3  0  0  0  0  0  0
  188.2970  175.0930  142.7330 C   0  0  0  0  0  3  0  0  0  0  0  0
  186.8530  176.8820  141.8940 C   0  0  0  0  0  2  0  0  0  0  0  0
  185.9610  176.4260  143.0400 C   0  0  0  0  0  2  0  0  0  0  0  0
  185.2930  177.5670  143.6600 N   0  0  0  0  0  0  0  0  0  0  0  0
  184.2370  178.2670  142.9960 C   0  0  0  0  0  3  0  0  0  0  0  0
  183.8490  177.9190  141.8500 O   0  0  0  0  0  0  0  0  0  0  0  0
  185.7780  178.0740  145.2440 S   0  0  0  0  0  0  0  0  0  0  0  0
  185.8710  179.5750  145.2970 O   0  0  0  0  0  0  0  0  0  0  0  0
  184.7510  177.6140  146.2450 O   0  0  0  0  0  0  0  0  0  0  0  0
  187.4370  176.3340  146.5540 C   0  0  0  0  0  3  0  0  0  0  0  0
  188.5110  177.9170  145.0660 C   0  0  0  0  0  3  0  0  0  0  0  0
  188.6850  175.7900  146.8740 C   0  0  0  0  0  3  0  0  0  0  0  0
  187.3470  177.3990  145.6490 C   0  0  0  0  0  0  0  0  0  0  0  0
  189.8470  176.3080  146.2890 C   0  0  0  0  0  3  0  0  0  0  0  0
  189.7600  177.3720  145.3850 C   0  0  0  0  0  3  0  0  0  0  0  0
  1  5  1  6  0  0  0
  1 25  1  0  0  0  0
  2  1  1  0  0  0  0
  3  2  2  0  0  0  0
  4  2  1  0  0  0  0
  5  6  1  0  0  0  0
  7  9  1  0  0  0  0
  8 11  1  0  0  0  0
  8  7  1  0  0  0  0
  9 12  1  0  0  0  0
 10  9  2  0  0  0  0
 11  7  1  0  0  0  0
 11  6  1  1  0  0  0
 12 15  2  0  0  0  0
 12 17  1  0  0  0  0
 14 13  2  0  0  0  0
 15 14  1  0  0  0  0
 16 13  1  0  0  0  0
 17 16  2  0  0  0  0
 18 17  1  0  0  0  0
 18 19  1  0  0  0  0
 20 19  1  0  0  0  0
 20 21  1  0  0  0  0
 21 24  1  0  0  0  0
 22 23  2  0  0  0  0
 22 24  1  0  0  0  0
 25 28  1  0  0  0  0
 27 28  1  0  0  0  0
 28 26  1  0  0  0  0
 29 30  2  0  0  0  0
 30 28  1  0  0  0  0
 31 29  1  0  0  0  0
 31 32  1  0  0  0  0
 32 33  1  0  0  0  0
 33 36  1  0  0  0  0
 34 33  1  0  0  0  0
 35 34  2  0  0  0  0
 36 37  2  0  0  0  0
 36 42  1  0  0  0  0
 36 38  2  0  0  0  0
 39 41  1  0  0  0  0
 40 44  2  0  0  0  0
 40 42  1  0  0  0  0
 42 39  2  0  0  0  0
 43 41  2  0  0  0  0
 44 43  1  0  0  0  0
M  END
>  <MODEL>
9

>  <REMARK>
 VINA RESULT:      -5.4      1.770      2.948
  Name = 
  18 active torsions:
  status: ('A' for Active; 'I' for Inactive)
    1  A    between atoms: C_1  and  C_30
    2  A    between atoms: S_3  and  N_10
    3  A    between atoms: S_3  and  C_22
    4  A    between atoms: N_5  and  N_17
    5  A    between atoms: N_5  and  C_19
    6  A    between atoms: N_10  and  C_20
    7  A    between atoms: C_16  and  C_20
    8  A    between atoms: C_16  and  C_34
    9  A    between atoms: C_18  and  C_28
   10  A    between atoms: C_19  and  C_25
   11  A    between atoms: C_25  and  S_37
   12  A    between atoms: C_26  and  S_37
   13  A    between atoms: C_28  and  C_31
   14  A    between atoms: C_28  and  C_43
   15  A    between atoms: C_31  and  C_35
   16  A    between atoms: C_32  and  C_38
   17  A    between atoms: C_32  and  C_43
   18  A    between atoms: C_35  and  C_39
                            x       y       z     vdW  Elec       q    Type
                         _______ _______ _______ _____ _____    ______ ____

>  <TORSDO>
F 18

$$$$
