=
 OpenBabel11062421343D

 55 57  0  0  1  0  0  0  0  0999 V2000
  190.0420  176.9640  143.6900 C   0  0  0  0  0  0  0  0  0  0  0  0
  188.1670  177.0280  141.6120 C   0  0  0  0  0  0  0  0  0  0  0  0
  189.3430  175.8060  143.3410 C   0  0  0  0  0  3  0  0  0  0  0  0
  188.3950  175.8250  142.3040 C   0  0  0  0  0  0  0  0  0  0  0  0
  188.8620  178.1880  141.9680 C   0  0  0  0  0  3  0  0  0  0  0  0
  189.7940  178.1580  143.0060 C   0  0  0  0  0  3  0  0  0  0  0  0
  186.4240  177.1490  139.6900 N   0  0  0  0  0  0  0  0  0  0  0  0
  187.2000  177.0960  140.5480 C   0  0  0  0  0  0  0  0  0  0  0  0
  191.0470  176.9330  144.7940 C   0  0  0  0  0  2  0  0  0  0  0  0
  190.9280  175.7070  145.7080 C   0  0  1  0  0  3  0  0  0  0  0  0
  192.2260  175.3230  146.4300 C   0  0  2  0  0  3  0  0  0  0  0  0
  192.9700  176.4670  146.7280 O   0  0  0  0  0  1  0  0  0  0  0  0
  192.6660  173.2030  145.4220 O   0  0  0  0  0  0  0  0  0  0  0  0
  193.0440  174.3940  145.5920 C   0  0  0  0  0  0  0  0  0  0  0  0
  194.4960  175.2130  143.7830 C   0  0  0  0  0  0  0  0  0  0  0  0
  193.4460  175.1050  142.7210 C   0  0  0  0  0  1  0  0  0  0  0  0
  194.2690  174.8820  145.0220 N   0  0  0  0  0  0  0  0  0  0  0  0
  196.6070  174.9620  142.7260 O   0  0  0  0  0  0  0  0  0  0  0  0
  196.2730  176.9430  143.8220 O   0  0  0  0  0  1  0  0  0  0  0  0
  195.8380  175.6890  143.4100 C   0  0  0  0  0  0  0  0  0  0  0  0
  189.7820  175.7660  146.5670 O   0  0  0  0  0  0  0  0  0  0  0  0
  189.8110  177.8620  147.5710 O   0  0  0  0  0  0  0  0  0  0  0  0
  189.1600  176.9440  147.0040 C   0  0  0  0  0  0  0  0  0  0  0  0
  186.5590  177.2270  146.6630 C   0  0  0  0  0  0  0  0  0  0  0  0
  187.7470  177.0970  146.8180 C   0  0  0  0  0  0  0  0  0  0  0  0
  185.1360  177.3830  146.4800 C   0  0  0  0  0  3  0  0  0  0  0  0
  184.6190  177.8570  145.3870 N   0  0  0  0  0  0  0  0  0  0  0  0
  185.4310  179.8100  144.1660 C   0  0  0  0  0  1  0  0  0  0  0  0
  185.3950  178.2900  144.2300 C   0  0  2  0  0  3  0  0  0  0  0  0
  184.7550  177.7400  142.9670 C   0  0  0  0  0  2  0  0  0  0  0  0
  183.5680  178.4210  142.6980 O   0  0  0  0  0  1  0  0  0  0  0  0
  187.6780  174.6720  141.9340 O   0  0  0  0  0  0  0  0  0  0  0  0
  188.5510  173.5010  140.1310 O   0  0  0  0  0  0  0  0  0  0  0  0
  188.2170  173.5180  141.3480 C   0  0  0  0  0  0  0  0  0  0  0  0
  189.5520  171.8600  142.5930 N   0  0  0  0  0  0  0  0  0  0  0  0
  188.4040  172.3310  142.2030 C   0  0  0  0  0  3  0  0  0  0  0  0
  190.8480  172.4310  142.2550 C   0  0  0  0  0  2  0  0  0  0  0  0
  191.6020  171.5080  141.3030 C   0  0  2  0  0  3  0  0  0  0  0  0
  193.3980  171.4220  142.9750 N   0  0  0  0  0  2  0  0  0  0  0  0
  194.6590  170.7350  143.1810 C   0  0  1  0  0  3  0  0  0  0  0  0
  192.6400  170.6320  142.0130 C   0  0  2  0  0  3  0  0  0  0  0  0
  193.7750  169.7940  140.8480 S   0  0  0  0  0  0  0  0  0  0  0  0
  195.1950  170.3260  141.8290 C   0  0  0  0  0  2  0  0  0  0  0  0
  195.6340  171.6680  143.8800 C   0  0  0  0  0  2  0  0  0  0  0  0
  197.0580  170.9770  145.7780 C   0  0  0  0  0  1  0  0  0  0  0  0
  195.6660  171.4170  145.3780 C   0  0  2  0  0  3  0  0  0  0  0  0
  194.7560  170.4140  145.7150 O   0  0  0  0  0  1  0  0  0  0  0  0
  192.3990  172.4850  139.9930 S   0  0  0  0  0  0  0  0  0  0  0  0
  191.3060  172.3390  137.4190 C   0  0  0  0  0  0  0  0  0  0  0  0
  189.6910  170.6540  136.7650 C   0  0  0  0  0  3  0  0  0  0  0  0
  190.4750  171.7670  136.4520 C   0  0  0  0  0  3  0  0  0  0  0  0
  191.3540  171.7870  138.7140 C   0  0  0  0  0  0  0  0  0  0  0  0
  189.7340  170.1090  138.0500 C   0  0  0  0  0  3  0  0  0  0  0  0
  190.5630  170.6740  139.0210 C   0  0  0  0  0  3  0  0  0  0  0  0
  192.2740  173.7360  136.9750 Cl  0  0  0  0  0  0  0  0  0  0  0  0
  1  9  1  0  0  0  0
  2  5  2  0  0  0  0
  2  4  1  0  0  0  0
  3  1  1  0  0  0  0
  4  3  2  0  0  0  0
  5  6  1  0  0  0  0
  6  1  2  0  0  0  0
  7  8  3  0  0  0  0
  8  2  1  0  0  0  0
 10  9  1  1  0  0  0
 10 11  1  0  0  0  0
 10 21  1  0  0  0  0
 11 12  1  6  0  0  0
 13 14  2  0  0  0  0
 14 11  1  0  0  0  0
 15 17  2  0  0  0  0
 16 15  1  0  0  0  0
 17 14  1  0  0  0  0
 18 20  2  0  0  0  0
 20 15  1  0  0  0  0
 20 19  1  0  0  0  0
 21 23  1  0  0  0  0
 23 22  2  0  0  0  0
 24 25  3  0  0  0  0
 25 23  1  0  0  0  0
 26 24  1  0  0  0  0
 27 26  2  0  0  0  0
 29 28  1  6  0  0  0
 29 27  1  0  0  0  0
 30 29  1  0  0  0  0
 31 30  1  0  0  0  0
 32  4  1  0  0  0  0
 33 34  2  0  0  0  0
 34 32  1  0  0  0  0
 34 36  1  0  0  0  0
 36 35  2  0  0  0  0
 37 35  1  0  0  0  0
 38 37  1  1  0  0  0
 39 40  1  0  0  0  0
 40 44  1  6  0  0  0
 41 38  1  6  0  0  0
 41 39  1  0  0  0  0
 42 43  1  0  0  0  0
 42 41  1  0  0  0  0
 43 40  1  0  0  0  0
 44 46  1  0  0  0  0
 46 47  1  0  0  0  0
 46 45  1  6  0  0  0
 48 38  1  0  0  0  0
 49 52  1  0  0  0  0
 50 53  2  0  0  0  0
 51 50  1  0  0  0  0
 51 49  2  0  0  0  0
 52 54  2  0  0  0  0
 52 48  1  0  0  0  0
 53 54  1  0  0  0  0
 55 49  1  0  0  0  0
M  END
>  <MODEL>
1

>  <REMARK>
 VINA RESULT:      -6.3      0.000      0.000
  Name = 
  23 active torsions:
  status: ('A' for Active; 'I' for Inactive)
    1  A    between atoms: N_1  and  C_44
    2  A    between atoms: C_3  and  C_40
    3  A    between atoms: CA_4  and  C_51
    4  A    between atoms: C_5  and  C_37
    5  A    between atoms: O_8  and  C_37
    6  A    between atoms: O_8  and  C_47
    7  A    between atoms: S_10  and  C_22
    8  A    between atoms: S_10  and  C_25
    9  A    between atoms: C_11  and  C_12
   10  A    between atoms: C_11  and  C_34
   11  A    between atoms: C_12  and  N_42
   12  A    between atoms: C_13  and  C_27
   13  A    between atoms: C_13  and  C_34
   14  A    between atoms: C_14  and  C_49
   15  A    between atoms: C_18  and  O_38
   16  A    between atoms: C_18  and  C_48
   17  A    between atoms: C_20  and  C_49
   18  A    between atoms: C_22  and  C_26
   19  A    between atoms: C_22  and  C_44
   20  A    between atoms: C_23  and  CA_29
   21  A    between atoms: CA_29  and  N_55
   22  A    between atoms: C_34  and  O_38
   23  A    between atoms: C_36  and  C_54
                            x       y       z     vdW  Elec       q    Type
                         _______ _______ _______ _____ _____    ______ ____

>  <TORSDO>
F 23

$$$$
=
 OpenBabel11062421343D

 55 57  0  0  1  0  0  0  0  0999 V2000
  190.2280  176.8620  143.4970 C   0  0  0  0  0  0  0  0  0  0  0  0
  188.2590  177.0110  141.5100 C   0  0  0  0  0  0  0  0  0  0  0  0
  189.7120  175.6930  142.9320 C   0  0  0  0  0  3  0  0  0  0  0  0
  188.7200  175.7520  141.9390 C   0  0  0  0  0  0  0  0  0  0  0  0
  188.7710  178.1790  142.0830 C   0  0  0  0  0  3  0  0  0  0  0  0
  189.7500  178.1060  143.0750 C   0  0  0  0  0  3  0  0  0  0  0  0
  186.4170  177.2040  139.6920 N   0  0  0  0  0  0  0  0  0  0  0  0
  187.2400  177.1190  140.5010 C   0  0  0  0  0  0  0  0  0  0  0  0
  191.2810  176.7880  144.5530 C   0  0  0  0  0  2  0  0  0  0  0  0
  191.1940  175.5330  145.4300 C   0  0  1  0  0  3  0  0  0  0  0  0
  192.4610  175.2350  146.2420 C   0  0  2  0  0  3  0  0  0  0  0  0
  193.1220  176.4230  146.5600 O   0  0  0  0  0  1  0  0  0  0  0  0
  193.1960  173.0870  145.5000 O   0  0  0  0  0  0  0  0  0  0  0  0
  193.3790  174.3350  145.4800 C   0  0  0  0  0  0  0  0  0  0  0  0
  194.5640  175.1500  143.4840 C   0  0  0  0  0  0  0  0  0  0  0  0
  193.4660  174.7920  142.5320 C   0  0  0  0  0  1  0  0  0  0  0  0
  194.4770  174.9210  144.7640 N   0  0  0  0  0  0  0  0  0  0  0  0
  196.6070  176.3340  143.7280 O   0  0  0  0  0  1  0  0  0  0  0  0
  196.0610  175.7210  141.5920 O   0  0  0  0  0  0  0  0  0  0  0  0
  195.7930  175.7610  142.9550 C   0  0  0  0  0  0  0  0  0  0  0  0
  189.9850  175.4780  146.1990 O   0  0  0  0  0  0  0  0  0  0  0  0
  189.9970  177.4360  147.4500 O   0  0  0  0  0  0  0  0  0  0  0  0
  189.3510  176.5810  146.7860 C   0  0  0  0  0  0  0  0  0  0  0  0
  186.7390  176.8500  146.5240 C   0  0  0  0  0  0  0  0  0  0  0  0
  187.9310  176.7270  146.6450 C   0  0  0  0  0  0  0  0  0  0  0  0
  185.3120  176.9990  146.3770 C   0  0  0  0  0  3  0  0  0  0  0  0
  184.7710  177.5990  145.3600 N   0  0  0  0  0  0  0  0  0  0  0  0
  185.6730  179.6930  144.4840 C   0  0  0  0  0  1  0  0  0  0  0  0
  185.5240  178.1950  144.2610 C   0  0  2  0  0  3  0  0  0  0  0  0
  184.7860  177.9430  142.9580 C   0  0  0  0  0  2  0  0  0  0  0  0
  183.5080  178.5000  143.0170 O   0  0  0  0  0  1  0  0  0  0  0  0
  188.1850  174.5890  141.3550 O   0  0  0  0  0  0  0  0  0  0  0  0
  188.5180  174.2780  139.0810 O   0  0  0  0  0  0  0  0  0  0  0  0
  188.7220  173.8910  140.2650 C   0  0  0  0  0  0  0  0  0  0  0  0
  190.8270  172.6060  140.3040 N   0  0  0  0  0  0  0  0  0  0  0  0
  189.5520  172.7050  140.5420 C   0  0  0  0  0  3  0  0  0  0  0  0
  191.6510  173.6570  139.7250 C   0  0  0  0  0  2  0  0  0  0  0  0
  193.0110  173.1000  139.3150 C   0  0  2  0  0  3  0  0  0  0  0  0
  192.1600  173.6780  137.0860 N   0  0  0  0  0  2  0  0  0  0  0  0
  192.4730  173.3990  135.6970 C   0  0  1  0  0  3  0  0  0  0  0  0
  193.3660  173.3950  137.8540 C   0  0  2  0  0  3  0  0  0  0  0  0
  194.3150  172.0440  137.0680 S   0  0  0  0  0  0  0  0  0  0  0  0
  193.2100  172.0810  135.6400 C   0  0  0  0  0  2  0  0  0  0  0  0
  191.1830  173.3220  134.8950 C   0  0  0  0  0  2  0  0  0  0  0  0
  189.3830  171.6980  135.3700 C   0  0  0  0  0  1  0  0  0  0  0  0
  189.9920  173.0180  135.7880 C   0  0  2  0  0  3  0  0  0  0  0  0
  189.0320  174.0240  135.6640 O   0  0  0  0  0  1  0  0  0  0  0  0
  193.0630  171.3070  139.6200 S   0  0  0  0  0  0  0  0  0  0  0  0
  193.9080  171.1020  142.2820 C   0  0  0  0  0  0  0  0  0  0  0  0
  196.1110  171.7900  143.0240 C   0  0  0  0  0  3  0  0  0  0  0  0
  194.8500  171.2580  143.3030 C   0  0  0  0  0  3  0  0  0  0  0  0
  194.2360  171.4810  140.9660 C   0  0  0  0  0  0  0  0  0  0  0  0
  196.4350  172.1720  141.7210 C   0  0  0  0  0  3  0  0  0  0  0  0
  195.5000  172.0180  140.6950 C   0  0  0  0  0  3  0  0  0  0  0  0
  192.3380  170.4260  142.6830 Cl  0  0  0  0  0  0  0  0  0  0  0  0
  1  9  1  0  0  0  0
  2  4  2  0  0  0  0
  2  5  1  0  0  0  0
  3  1  2  0  0  0  0
  4  3  1  0  0  0  0
  5  6  2  0  0  0  0
  6  1  1  0  0  0  0
  7  8  3  0  0  0  0
  8  2  1  0  0  0  0
 10  9  1  1  0  0  0
 10 21  1  0  0  0  0
 10 11  1  0  0  0  0
 11 12  1  6  0  0  0
 14 13  2  0  0  0  0
 14 11  1  0  0  0  0
 15 17  2  0  0  0  0
 16 15  1  0  0  0  0
 17 14  1  0  0  0  0
 19 20  2  0  0  0  0
 20 15  1  0  0  0  0
 20 18  1  0  0  0  0
 21 23  1  0  0  0  0
 23 22  2  0  0  0  0
 24 25  3  0  0  0  0
 25 23  1  0  0  0  0
 26 24  1  0  0  0  0
 27 26  2  0  0  0  0
 29 28  1  1  0  0  0
 29 27  1  0  0  0  0
 30 31  1  0  0  0  0
 30 29  1  0  0  0  0
 32  4  1  0  0  0  0
 33 34  2  0  0  0  0
 34 36  1  0  0  0  0
 34 32  1  0  0  0  0
 35 36  2  0  0  0  0
 37 35  1  0  0  0  0
 38 48  1  0  0  0  0
 38 37  1  6  0  0  0
 39 41  1  0  0  0  0
 40 44  1  6  0  0  0
 40 39  1  0  0  0  0
 41 38  1  1  0  0  0
 42 41  1  0  0  0  0
 43 40  1  0  0  0  0
 43 42  1  0  0  0  0
 44 46  1  0  0  0  0
 46 45  1  6  0  0  0
 47 46  1  0  0  0  0
 48 52  1  0  0  0  0
 49 55  1  0  0  0  0
 49 51  1  0  0  0  0
 50 51  2  0  0  0  0
 52 49  2  0  0  0  0
 53 50  1  0  0  0  0
 54 52  1  0  0  0  0
 54 53  2  0  0  0  0
M  END
>  <MODEL>
2

>  <REMARK>
 VINA RESULT:      -5.8      1.868      4.514
  Name = 
  23 active torsions:
  status: ('A' for Active; 'I' for Inactive)
    1  A    between atoms: N_1  and  C_44
    2  A    between atoms: C_3  and  C_40
    3  A    between atoms: CA_4  and  C_51
    4  A    between atoms: C_5  and  C_37
    5  A    between atoms: O_8  and  C_37
    6  A    between atoms: O_8  and  C_47
    7  A    between atoms: S_10  and  C_22
    8  A    between atoms: S_10  and  C_25
    9  A    between atoms: C_11  and  C_12
   10  A    between atoms: C_11  and  C_34
   11  A    between atoms: C_12  and  N_42
   12  A    between atoms: C_13  and  C_27
   13  A    between atoms: C_13  and  C_34
   14  A    between atoms: C_14  and  C_49
   15  A    between atoms: C_18  and  O_38
   16  A    between atoms: C_18  and  C_48
   17  A    between atoms: C_20  and  C_49
   18  A    between atoms: C_22  and  C_26
   19  A    between atoms: C_22  and  C_44
   20  A    between atoms: C_23  and  CA_29
   21  A    between atoms: CA_29  and  N_55
   22  A    between atoms: C_34  and  O_38
   23  A    between atoms: C_36  and  C_54
                            x       y       z     vdW  Elec       q    Type
                         _______ _______ _______ _____ _____    ______ ____

>  <TORSDO>
F 23

$$$$
=
 OpenBabel11062421343D

 55 57  0  0  1  0  0  0  0  0999 V2000
  189.4800  177.4580  143.1440 C   0  0  0  0  0  0  0  0  0  0  0  0
  190.3830  176.5060  145.6170 C   0  0  0  0  0  0  0  0  0  0  0  0
  190.5520  176.5640  143.2020 C   0  0  0  0  0  3  0  0  0  0  0  0
  191.0200  176.0830  144.4360 C   0  0  0  0  0  0  0  0  0  0  0  0
  189.3160  177.4070  145.5570 C   0  0  0  0  0  3  0  0  0  0  0  0
  188.8670  177.8840  144.3250 C   0  0  0  0  0  3  0  0  0  0  0  0
  191.1910  175.6740  147.9410 N   0  0  0  0  0  0  0  0  0  0  0  0
  190.8330  176.0450  146.9040 C   0  0  0  0  0  0  0  0  0  0  0  0
  188.9920  177.9640  141.8260 C   0  0  0  0  0  2  0  0  0  0  0  0
  187.4910  177.7480  141.5960 C   0  0  1  0  0  3  0  0  0  0  0  0
  187.0210  176.2980  141.7750 C   0  0  2  0  0  3  0  0  0  0  0  0
  187.1130  175.9240  143.1170 O   0  0  0  0  0  1  0  0  0  0  0  0
  187.9440  175.5740  139.6950 O   0  0  0  0  0  0  0  0  0  0  0  0
  187.8370  175.3700  140.9350 C   0  0  0  0  0  0  0  0  0  0  0  0
  188.6290  173.0450  141.0740 C   0  0  0  0  0  0  0  0  0  0  0  0
  188.1520  172.6680  139.7050 C   0  0  0  0  0  1  0  0  0  0  0  0
  188.4580  174.2390  141.5660 N   0  0  0  0  0  0  0  0  0  0  0  0
  190.0560  171.1710  141.3750 O   0  0  0  0  0  0  0  0  0  0  0  0
  189.0730  171.9890  143.2730 O   0  0  0  0  0  1  0  0  0  0  0  0
  189.2930  172.0250  141.9010 C   0  0  0  0  0  0  0  0  0  0  0  0
  186.6810  178.7100  142.2850 O   0  0  0  0  0  0  0  0  0  0  0  0
  184.4880  178.5280  141.5370 O   0  0  0  0  0  0  0  0  0  0  0  0
  185.3000  178.5980  142.4990 C   0  0  0  0  0  0  0  0  0  0  0  0
  184.3790  178.5740  144.9710 C   0  0  0  0  0  0  0  0  0  0  0  0
  184.8000  178.5850  143.8420 C   0  0  0  0  0  0  0  0  0  0  0  0
  183.8710  178.5620  146.3210 C   0  0  0  0  0  3  0  0  0  0  0  0
  184.6360  178.3760  147.3550 N   0  0  0  0  0  0  0  0  0  0  0  0
  186.3860  176.6780  147.5020 C   0  0  0  0  0  1  0  0  0  0  0  0
  186.0760  178.1520  147.2830 C   0  0  2  0  0  3  0  0  0  0  0  0
  186.7630  178.9830  148.3520 C   0  0  0  0  0  2  0  0  0  0  0  0
  186.3470  180.3120  148.2660 O   0  0  0  0  0  1  0  0  0  0  0  0
  192.0970  175.1820  144.5210 O   0  0  0  0  0  0  0  0  0  0  0  0
  192.1220  172.8790  144.8030 O   0  0  0  0  0  0  0  0  0  0  0  0
  192.1180  173.8710  144.0230 C   0  0  0  0  0  0  0  0  0  0  0  0
  193.1660  173.4880  141.8230 N   0  0  0  0  0  0  0  0  0  0  0  0
  192.1120  173.6860  142.5600 C   0  0  0  0  0  3  0  0  0  0  0  0
  194.5320  173.4130  142.3220 C   0  0  0  0  0  2  0  0  0  0  0  0
  195.3000  174.6780  141.9570 C   0  0  2  0  0  3  0  0  0  0  0  0
  194.6120  175.3230  139.6910 N   0  0  0  0  0  2  0  0  0  0  0  0
  194.7850  174.8560  138.3280 C   0  0  1  0  0  3  0  0  0  0  0  0
  195.6900  174.7370  140.4760 C   0  0  2  0  0  3  0  0  0  0  0  0
  196.1520  173.1020  139.7980 S   0  0  0  0  0  0  0  0  0  0  0  0
  195.0750  173.3740  138.3740 C   0  0  0  0  0  2  0  0  0  0  0  0
  193.5140  175.1250  137.5370 C   0  0  0  0  0  2  0  0  0  0  0  0
  193.2400  176.9230  135.8650 C   0  0  0  0  0  1  0  0  0  0  0  0
  193.8270  175.5510  136.1130 C   0  0  2  0  0  3  0  0  0  0  0  0
  193.2700  174.6460  135.2080 O   0  0  0  0  0  1  0  0  0  0  0  0
  196.7840  174.8250  142.9990 S   0  0  0  0  0  0  0  0  0  0  0  0
  195.5540  174.7410  145.5130 C   0  0  0  0  0  0  0  0  0  0  0  0
  194.3980  176.6390  146.4820 C   0  0  0  0  0  3  0  0  0  0  0  0
  194.8270  175.3120  146.5620 C   0  0  0  0  0  3  0  0  0  0  0  0
  195.8580  175.5100  144.3740 C   0  0  0  0  0  0  0  0  0  0  0  0
  194.6940  177.4010  145.3500 C   0  0  0  0  0  3  0  0  0  0  0  0
  195.4210  176.8380  144.2990 C   0  0  0  0  0  3  0  0  0  0  0  0
  196.0730  173.0700  145.6630 Cl  0  0  0  0  0  0  0  0  0  0  0  0
  1  3  2  0  0  0  0
  1  6  1  0  0  0  0
  2  8  1  0  0  0  0
  3  4  1  0  0  0  0
  4 32  1  0  0  0  0
  4  2  2  0  0  0  0
  5  2  1  0  0  0  0
  6  5  2  0  0  0  0
  8  7  3  0  0  0  0
  9  1  1  0  0  0  0
 10 11  1  0  0  0  0
 10  9  1  1  0  0  0
 10 21  1  0  0  0  0
 11 12  1  1  0  0  0
 13 14  2  0  0  0  0
 14 17  1  0  0  0  0
 14 11  1  0  0  0  0
 15 17  2  0  0  0  0
 15 20  1  0  0  0  0
 16 15  1  0  0  0  0
 18 20  2  0  0  0  0
 20 19  1  0  0  0  0
 21 23  1  0  0  0  0
 22 23  2  0  0  0  0
 23 25  1  0  0  0  0
 24 26  1  0  0  0  0
 25 24  3  0  0  0  0
 26 27  2  0  0  0  0
 29 27  1  0  0  0  0
 29 28  1  1  0  0  0
 29 30  1  0  0  0  0
 31 30  1  0  0  0  0
 34 32  1  0  0  0  0
 34 33  2  0  0  0  0
 35 37  1  0  0  0  0
 35 36  2  0  0  0  0
 36 34  1  0  0  0  0
 38 37  1  6  0  0  0
 38 48  1  0  0  0  0
 39 41  1  0  0  0  0
 40 44  1  6  0  0  0
 40 43  1  0  0  0  0
 40 39  1  0  0  0  0
 41 38  1  1  0  0  0
 42 41  1  0  0  0  0
 43 42  1  0  0  0  0
 46 45  1  6  0  0  0
 46 44  1  0  0  0  0
 47 46  1  0  0  0  0
 48 52  1  0  0  0  0
 49 55  1  0  0  0  0
 49 51  1  0  0  0  0
 50 51  2  0  0  0  0
 52 49  2  0  0  0  0
 53 50  1  0  0  0  0
 54 52  1  0  0  0  0
 54 53  2  0  0  0  0
M  END
>  <MODEL>
3

>  <REMARK>
 VINA RESULT:      -5.5      2.996      6.859
  Name = 
  23 active torsions:
  status: ('A' for Active; 'I' for Inactive)
    1  A    between atoms: N_1  and  C_44
    2  A    between atoms: C_3  and  C_40
    3  A    between atoms: CA_4  and  C_51
    4  A    between atoms: C_5  and  C_37
    5  A    between atoms: O_8  and  C_37
    6  A    between atoms: O_8  and  C_47
    7  A    between atoms: S_10  and  C_22
    8  A    between atoms: S_10  and  C_25
    9  A    between atoms: C_11  and  C_12
   10  A    between atoms: C_11  and  C_34
   11  A    between atoms: C_12  and  N_42
   12  A    between atoms: C_13  and  C_27
   13  A    between atoms: C_13  and  C_34
   14  A    between atoms: C_14  and  C_49
   15  A    between atoms: C_18  and  O_38
   16  A    between atoms: C_18  and  C_48
   17  A    between atoms: C_20  and  C_49
   18  A    between atoms: C_22  and  C_26
   19  A    between atoms: C_22  and  C_44
   20  A    between atoms: C_23  and  CA_29
   21  A    between atoms: CA_29  and  N_55
   22  A    between atoms: C_34  and  O_38
   23  A    between atoms: C_36  and  C_54
                            x       y       z     vdW  Elec       q    Type
                         _______ _______ _______ _____ _____    ______ ____

>  <TORSDO>
F 23

$$$$
=
 OpenBabel11062421343D

 55 57  0  0  1  0  0  0  0  0999 V2000
  189.7050  173.4000  142.9920 C   0  0  0  0  0  0  0  0  0  0  0  0
  192.0990  172.8120  144.3190 C   0  0  0  0  0  0  0  0  0  0  0  0
  190.2690  172.1260  142.8880 C   0  0  0  0  0  3  0  0  0  0  0  0
  191.4740  171.8190  143.5440 C   0  0  0  0  0  0  0  0  0  0  0  0
  191.5360  174.0880  144.4150 C   0  0  0  0  0  3  0  0  0  0  0  0
  190.3450  174.3830  143.7510 C   0  0  0  0  0  3  0  0  0  0  0  0
  194.3320  172.3310  145.5550 N   0  0  0  0  0  0  0  0  0  0  0  0
  193.3370  172.5440  145.0020 C   0  0  0  0  0  0  0  0  0  0  0  0
  188.4250  173.7160  142.2900 C   0  0  0  0  0  2  0  0  0  0  0  0
  188.6030  174.5780  141.0330 C   0  0  1  0  0  3  0  0  0  0  0  0
  188.6450  173.7870  139.7190 C   0  0  2  0  0  3  0  0  0  0  0  0
  187.7310  172.7320  139.7610 O   0  0  0  0  0  1  0  0  0  0  0  0
  191.0280  173.9220  139.8230 O   0  0  0  0  0  0  0  0  0  0  0  0
  190.0190  173.2540  139.4650 C   0  0  0  0  0  0  0  0  0  0  0  0
  190.0860  171.7720  137.5030 C   0  0  0  0  0  0  0  0  0  0  0  0
  189.8250  172.8630  136.5120 C   0  0  0  0  0  1  0  0  0  0  0  0
  190.1530  171.9970  138.7850 N   0  0  0  0  0  0  0  0  0  0  0  0
  189.7870  169.4230  137.6730 O   0  0  0  0  0  1  0  0  0  0  0  0
  190.9280  170.1490  135.8270 O   0  0  0  0  0  0  0  0  0  0  0  0
  190.2500  170.3930  137.0160 C   0  0  0  0  0  0  0  0  0  0  0  0
  187.7170  175.7040  141.0040 O   0  0  0  0  0  0  0  0  0  0  0  0
  188.3600  177.9150  141.3150 O   0  0  0  0  0  0  0  0  0  0  0  0
  187.8540  176.8610  141.7840 C   0  0  0  0  0  0  0  0  0  0  0  0
  187.0710  176.8130  144.3040 C   0  0  0  0  0  0  0  0  0  0  0  0
  187.4280  176.8350  143.1530 C   0  0  0  0  0  0  0  0  0  0  0  0
  186.6470  176.7860  145.6820 C   0  0  0  0  0  3  0  0  0  0  0  0
  187.4250  176.3980  146.6470 N   0  0  0  0  0  0  0  0  0  0  0  0
  189.0420  174.6790  147.2780 C   0  0  0  0  0  1  0  0  0  0  0  0
  188.7990  175.9400  146.4630 C   0  0  2  0  0  3  0  0  0  0  0  0
  189.7520  177.0320  146.9140 C   0  0  0  0  0  2  0  0  0  0  0  0
  190.7980  177.1620  146.0000 O   0  0  0  0  0  1  0  0  0  0  0  0
  192.0620  170.5430  143.4550 O   0  0  0  0  0  0  0  0  0  0  0  0
  193.5040  168.9970  142.5010 O   0  0  0  0  0  0  0  0  0  0  0  0
  192.8420  170.0670  142.3930 C   0  0  0  0  0  0  0  0  0  0  0  0
  193.7940  171.6460  140.7550 N   0  0  0  0  0  0  0  0  0  0  0  0
  192.8480  170.8380  141.1370 C   0  0  0  0  0  3  0  0  0  0  0  0
  195.0110  171.9200  141.5050 C   0  0  0  0  0  2  0  0  0  0  0  0
  195.8770  172.9290  140.7590 C   0  0  2  0  0  3  0  0  0  0  0  0
  195.4440  174.2900  142.7560 N   0  0  0  0  0  2  0  0  0  0  0  0
  195.6360  175.6570  143.2030 C   0  0  1  0  0  3  0  0  0  0  0  0
  196.3690  174.0740  141.6520 C   0  0  2  0  0  3  0  0  0  0  0  0
  196.6290  175.6310  140.7290 S   0  0  0  0  0  0  0  0  0  0  0  0
  195.7010  176.5440  141.9810 C   0  0  0  0  0  2  0  0  0  0  0  0
  194.4750  176.0650  144.0950 C   0  0  0  0  0  2  0  0  0  0  0  0
  193.9790  175.9050  146.5100 C   0  0  0  0  0  1  0  0  0  0  0  0
  194.9510  176.4480  145.4860 C   0  0  2  0  0  3  0  0  0  0  0  0
  195.0130  177.8370  145.6060 O   0  0  0  0  0  1  0  0  0  0  0  0
  194.9640  173.5970  139.3340 S   0  0  0  0  0  0  0  0  0  0  0  0
  196.7430  173.7240  137.1750 C   0  0  0  0  0  0  0  0  0  0  0  0
  197.9410  171.7900  136.3370 C   0  0  0  0  0  3  0  0  0  0  0  0
  197.6460  173.1540  136.2720 C   0  0  0  0  0  3  0  0  0  0  0  0
  196.1330  172.9180  138.1550 C   0  0  0  0  0  0  0  0  0  0  0  0
  197.3330  170.9890  137.3050 C   0  0  0  0  0  3  0  0  0  0  0  0
  196.4310  171.5510  138.2120 C   0  0  0  0  0  3  0  0  0  0  0  0
  196.4060  175.4430  137.0540 Cl  0  0  0  0  0  0  0  0  0  0  0  0
  1  6  1  0  0  0  0
  2  5  1  0  0  0  0
  2  8  1  0  0  0  0
  3  1  2  0  0  0  0
  3  4  1  0  0  0  0
  4  2  2  0  0  0  0
  6  5  2  0  0  0  0
  8  7  3  0  0  0  0
  9  1  1  0  0  0  0
 10  9  1  1  0  0  0
 11 12  1  1  0  0  0
 11 10  1  0  0  0  0
 14 11  1  0  0  0  0
 14 13  2  0  0  0  0
 15 17  2  0  0  0  0
 16 15  1  0  0  0  0
 17 14  1  0  0  0  0
 19 20  2  0  0  0  0
 20 15  1  0  0  0  0
 20 18  1  0  0  0  0
 21 10  1  0  0  0  0
 21 23  1  0  0  0  0
 22 23  2  0  0  0  0
 23 25  1  0  0  0  0
 24 26  1  0  0  0  0
 25 24  3  0  0  0  0
 26 27  2  0  0  0  0
 29 27  1  0  0  0  0
 29 30  1  0  0  0  0
 29 28  1  1  0  0  0
 31 30  1  0  0  0  0
 32  4  1  0  0  0  0
 34 33  2  0  0  0  0
 34 32  1  0  0  0  0
 35 36  2  0  0  0  0
 35 37  1  0  0  0  0
 36 34  1  0  0  0  0
 38 37  1  1  0  0  0
 39 40  1  0  0  0  0
 40 44  1  1  0  0  0
 41 38  1  6  0  0  0
 41 39  1  0  0  0  0
 42 41  1  0  0  0  0
 42 43  1  0  0  0  0
 43 40  1  0  0  0  0
 44 46  1  0  0  0  0
 46 47  1  0  0  0  0
 46 45  1  1  0  0  0
 48 38  1  0  0  0  0
 49 52  1  0  0  0  0
 50 53  2  0  0  0  0
 51 50  1  0  0  0  0
 51 49  2  0  0  0  0
 52 54  2  0  0  0  0
 52 48  1  0  0  0  0
 53 54  1  0  0  0  0
 55 49  1  0  0  0  0
M  END
>  <MODEL>
4

>  <REMARK>
 VINA RESULT:      -5.4      2.936      6.415
  Name = 
  23 active torsions:
  status: ('A' for Active; 'I' for Inactive)
    1  A    between atoms: N_1  and  C_44
    2  A    between atoms: C_3  and  C_40
    3  A    between atoms: CA_4  and  C_51
    4  A    between atoms: C_5  and  C_37
    5  A    between atoms: O_8  and  C_37
    6  A    between atoms: O_8  and  C_47
    7  A    between atoms: S_10  and  C_22
    8  A    between atoms: S_10  and  C_25
    9  A    between atoms: C_11  and  C_12
   10  A    between atoms: C_11  and  C_34
   11  A    between atoms: C_12  and  N_42
   12  A    between atoms: C_13  and  C_27
   13  A    between atoms: C_13  and  C_34
   14  A    between atoms: C_14  and  C_49
   15  A    between atoms: C_18  and  O_38
   16  A    between atoms: C_18  and  C_48
   17  A    between atoms: C_20  and  C_49
   18  A    between atoms: C_22  and  C_26
   19  A    between atoms: C_22  and  C_44
   20  A    between atoms: C_23  and  CA_29
   21  A    between atoms: CA_29  and  N_55
   22  A    between atoms: C_34  and  O_38
   23  A    between atoms: C_36  and  C_54
                            x       y       z     vdW  Elec       q    Type
                         _______ _______ _______ _____ _____    ______ ____

>  <TORSDO>
F 23

$$$$
=
 OpenBabel11062421343D

 55 57  0  0  1  0  0  0  0  0999 V2000
  189.6400  177.1570  143.4170 C   0  0  0  0  0  0  0  0  0  0  0  0
  190.6080  176.7460  146.0130 C   0  0  0  0  0  0  0  0  0  0  0  0
  191.0140  177.2060  143.6690 C   0  0  0  0  0  3  0  0  0  0  0  0
  191.5130  177.0080  144.9670 C   0  0  0  0  0  0  0  0  0  0  0  0
  189.2340  176.7060  145.7590 C   0  0  0  0  0  3  0  0  0  0  0  0
  188.7500  176.9140  144.4670 C   0  0  0  0  0  3  0  0  0  0  0  0
  191.4530  176.3810  148.4410 N   0  0  0  0  0  0  0  0  0  0  0  0
  191.0740  176.5440  147.3590 C   0  0  0  0  0  0  0  0  0  0  0  0
  189.1200  177.3710  142.0340 C   0  0  0  0  0  2  0  0  0  0  0  0
  188.3300  176.1790  141.4770 C   0  0  1  0  0  3  0  0  0  0  0  0
  188.9190  174.8060  141.8240 C   0  0  2  0  0  3  0  0  0  0  0  0
  190.2920  174.7910  141.5690 O   0  0  0  0  0  1  0  0  0  0  0  0
  187.6360  172.8010  141.6360 O   0  0  0  0  0  0  0  0  0  0  0  0
  188.2480  173.7270  141.0370 C   0  0  0  0  0  0  0  0  0  0  0  0
  189.1310  173.0480  138.8430 C   0  0  0  0  0  0  0  0  0  0  0  0
  190.1040  172.0560  139.4010 C   0  0  0  0  0  1  0  0  0  0  0  0
  188.3480  173.7580  139.6040 N   0  0  0  0  0  0  0  0  0  0  0  0
  189.1240  172.2570  136.6050 O   0  0  0  0  0  0  0  0  0  0  0  0
  188.9710  174.5260  136.8590 O   0  0  0  0  0  1  0  0  0  0  0  0
  189.0720  173.2440  137.3860 C   0  0  0  0  0  0  0  0  0  0  0  0
  186.9220  176.2860  141.7230 O   0  0  0  0  0  0  0  0  0  0  0  0
  186.1040  177.9190  140.2860 O   0  0  0  0  0  0  0  0  0  0  0  0
  186.1340  177.4100  141.4390 C   0  0  0  0  0  0  0  0  0  0  0  0
  184.7150  178.5080  143.3730 C   0  0  0  0  0  0  0  0  0  0  0  0
  185.3630  178.0060  142.4900 C   0  0  0  0  0  0  0  0  0  0  0  0
  183.9400  179.1120  144.4300 C   0  0  0  0  0  3  0  0  0  0  0  0
  184.2610  179.0030  145.6840 N   0  0  0  0  0  0  0  0  0  0  0  0
  185.1200  176.7730  146.1910 C   0  0  0  0  0  1  0  0  0  0  0  0
  185.4210  178.2650  146.1750 C   0  0  2  0  0  3  0  0  0  0  0  0
  185.7510  178.7350  147.5800 C   0  0  0  0  0  2  0  0  0  0  0  0
  187.1120  178.5570  147.8360 O   0  0  0  0  0  1  0  0  0  0  0  0
  192.8920  177.0520  145.2460 O   0  0  0  0  0  0  0  0  0  0  0  0
  193.8190  174.9470  145.5490 O   0  0  0  0  0  0  0  0  0  0  0  0
  193.8280  176.0540  144.9410 C   0  0  0  0  0  0  0  0  0  0  0  0
  194.9300  175.6420  142.7740 N   0  0  0  0  0  0  0  0  0  0  0  0
  194.8080  176.3250  143.8740 C   0  0  0  0  0  3  0  0  0  0  0  0
  194.1150  174.4920  142.4110 C   0  0  0  0  0  2  0  0  0  0  0  0
  194.9890  173.3810  141.8400 C   0  0  2  0  0  3  0  0  0  0  0  0
  193.2380  171.9210  142.7500 N   0  0  0  0  0  2  0  0  0  0  0  0
  193.1030  170.8760  143.7470 C   0  0  1  0  0  3  0  0  0  0  0  0
  194.6520  171.9980  142.4090 C   0  0  2  0  0  3  0  0  0  0  0  0
  195.6780  171.5590  143.8580 S   0  0  0  0  0  0  0  0  0  0  0  0
  194.2010  171.0600  144.7690 C   0  0  0  0  0  2  0  0  0  0  0  0
  191.7380  170.9810  144.4080 C   0  0  0  0  0  2  0  0  0  0  0  0
  190.0340  172.7500  144.6760 C   0  0  0  0  0  1  0  0  0  0  0  0
  190.8380  171.9560  143.6690 C   0  0  2  0  0  3  0  0  0  0  0  0
  189.9630  171.2620  142.8320 O   0  0  0  0  0  1  0  0  0  0  0  0
  196.7450  173.7630  142.1280 S   0  0  0  0  0  0  0  0  0  0  0  0
  197.4420  174.2490  139.4600 C   0  0  0  0  0  0  0  0  0  0  0  0
  197.9300  172.4770  137.8790 C   0  0  0  0  0  3  0  0  0  0  0  0
  197.8020  173.8370  138.1730 C   0  0  0  0  0  3  0  0  0  0  0  0
  197.2120  173.2880  140.4630 C   0  0  0  0  0  0  0  0  0  0  0  0
  197.6970  171.5230  138.8710 C   0  0  0  0  0  3  0  0  0  0  0  0
  197.3390  171.9280  140.1590 C   0  0  0  0  0  3  0  0  0  0  0  0
  197.2960  175.9700  139.7800 Cl  0  0  0  0  0  0  0  0  0  0  0  0
  1  3  2  0  0  0  0
  1  6  1  0  0  0  0
  2  8  1  0  0  0  0
  3  4  1  0  0  0  0
  4 32  1  0  0  0  0
  4  2  2  0  0  0  0
  5  2  1  0  0  0  0
  6  5  2  0  0  0  0
  8  7  3  0  0  0  0
  9  1  1  0  0  0  0
 10 21  1  0  0  0  0
 10 11  1  0  0  0  0
 10  9  1  1  0  0  0
 11 12  1  6  0  0  0
 14 13  2  0  0  0  0
 14 11  1  0  0  0  0
 15 16  1  0  0  0  0
 15 17  2  0  0  0  0
 17 14  1  0  0  0  0
 18 20  2  0  0  0  0
 19 20  1  0  0  0  0
 20 15  1  0  0  0  0
 22 23  2  0  0  0  0
 23 21  1  0  0  0  0
 23 25  1  0  0  0  0
 24 26  1  0  0  0  0
 25 24  3  0  0  0  0
 26 27  2  0  0  0  0
 27 29  1  0  0  0  0
 29 28  1  1  0  0  0
 29 30  1  0  0  0  0
 30 31  1  0  0  0  0
 34 32  1  0  0  0  0
 34 33  2  0  0  0  0
 35 36  2  0  0  0  0
 36 34  1  0  0  0  0
 37 35  1  0  0  0  0
 38 48  1  0  0  0  0
 38 37  1  1  0  0  0
 39 40  1  0  0  0  0
 40 44  1  1  0  0  0
 40 43  1  0  0  0  0
 41 38  1  1  0  0  0
 41 39  1  0  0  0  0
 41 42  1  0  0  0  0
 42 43  1  0  0  0  0
 46 44  1  0  0  0  0
 46 45  1  1  0  0  0
 47 46  1  0  0  0  0
 49 55  1  0  0  0  0
 49 52  1  0  0  0  0
 50 51  1  0  0  0  0
 50 53  2  0  0  0  0
 51 49  2  0  0  0  0
 52 48  1  0  0  0  0
 53 54  1  0  0  0  0
 54 52  2  0  0  0  0
M  END
>  <MODEL>
5

>  <REMARK>
 VINA RESULT:      -5.4      2.689      6.018
  Name = 
  23 active torsions:
  status: ('A' for Active; 'I' for Inactive)
    1  A    between atoms: N_1  and  C_44
    2  A    between atoms: C_3  and  C_40
    3  A    between atoms: CA_4  and  C_51
    4  A    between atoms: C_5  and  C_37
    5  A    between atoms: O_8  and  C_37
    6  A    between atoms: O_8  and  C_47
    7  A    between atoms: S_10  and  C_22
    8  A    between atoms: S_10  and  C_25
    9  A    between atoms: C_11  and  C_12
   10  A    between atoms: C_11  and  C_34
   11  A    between atoms: C_12  and  N_42
   12  A    between atoms: C_13  and  C_27
   13  A    between atoms: C_13  and  C_34
   14  A    between atoms: C_14  and  C_49
   15  A    between atoms: C_18  and  O_38
   16  A    between atoms: C_18  and  C_48
   17  A    between atoms: C_20  and  C_49
   18  A    between atoms: C_22  and  C_26
   19  A    between atoms: C_22  and  C_44
   20  A    between atoms: C_23  and  CA_29
   21  A    between atoms: CA_29  and  N_55
   22  A    between atoms: C_34  and  O_38
   23  A    between atoms: C_36  and  C_54
                            x       y       z     vdW  Elec       q    Type
                         _______ _______ _______ _____ _____    ______ ____

>  <TORSDO>
F 23

$$$$
=
 OpenBabel11062421343D

 55 57  0  0  1  0  0  0  0  0999 V2000
  192.4670  175.8700  143.4060 C   0  0  0  0  0  0  0  0  0  0  0  0
  194.2550  174.0860  144.6140 C   0  0  0  0  0  0  0  0  0  0  0  0
  192.2440  174.4940  143.3270 C   0  0  0  0  0  3  0  0  0  0  0  0
  193.1360  173.5860  143.9230 C   0  0  0  0  0  0  0  0  0  0  0  0
  194.4800  175.4640  144.6840 C   0  0  0  0  0  3  0  0  0  0  0  0
  193.5910  176.3540  144.0800 C   0  0  0  0  0  3  0  0  0  0  0  0
  195.9550  172.4740  145.7330 N   0  0  0  0  0  0  0  0  0  0  0  0
  195.1990  173.1940  145.2330 C   0  0  0  0  0  0  0  0  0  0  0  0
  191.5130  176.8260  142.7670 C   0  0  0  0  0  2  0  0  0  0  0  0
  190.2680  177.1200  143.6140 C   0  0  1  0  0  3  0  0  0  0  0  0
  188.9390  176.7590  142.9390 C   0  0  2  0  0  3  0  0  0  0  0  0
  189.1080  175.6580  142.0980 O   0  0  0  0  0  1  0  0  0  0  0  0
  189.2140  178.7280  141.6150 O   0  0  0  0  0  0  0  0  0  0  0  0
  188.4120  177.9170  142.1540 C   0  0  0  0  0  0  0  0  0  0  0  0
  186.2190  177.8410  141.0400 C   0  0  0  0  0  0  0  0  0  0  0  0
  186.7550  177.3170  139.7440 C   0  0  0  0  0  1  0  0  0  0  0  0
  186.9900  178.0940  142.0610 N   0  0  0  0  0  0  0  0  0  0  0  0
  184.1470  178.6580  140.2200 O   0  0  0  0  0  0  0  0  0  0  0  0
  184.0960  177.7470  142.3190 O   0  0  0  0  0  1  0  0  0  0  0  0
  184.7760  178.1030  141.1600 C   0  0  0  0  0  0  0  0  0  0  0  0
  190.3860  176.6360  144.9580 O   0  0  0  0  0  0  0  0  0  0  0  0
  189.2030  174.7640  145.6620 O   0  0  0  0  0  0  0  0  0  0  0  0
  189.3620  176.0140  145.6860 C   0  0  0  0  0  0  0  0  0  0  0  0
  187.7110  177.5030  147.1070 C   0  0  0  0  0  0  0  0  0  0  0  0
  188.4650  176.8220  146.4580 C   0  0  0  0  0  0  0  0  0  0  0  0
  186.8100  178.3200  147.8830 C   0  0  0  0  0  3  0  0  0  0  0  0
  185.6850  178.7650  147.4100 N   0  0  0  0  0  0  0  0  0  0  0  0
  185.9160  179.4120  145.0660 C   0  0  0  0  0  1  0  0  0  0  0  0
  185.2010  178.5060  146.0580 C   0  0  2  0  0  3  0  0  0  0  0  0
  183.7070  178.7690  146.0050 C   0  0  0  0  0  2  0  0  0  0  0  0
  183.3250  179.1000  144.7040 O   0  0  0  0  0  1  0  0  0  0  0  0
  192.9330  172.1960  143.8570 O   0  0  0  0  0  0  0  0  0  0  0  0
  190.7790  171.8720  144.6570 O   0  0  0  0  0  0  0  0  0  0  0  0
  191.6920  171.5420  143.8510 C   0  0  0  0  0  0  0  0  0  0  0  0
  190.7990  170.5970  141.7560 N   0  0  0  0  0  0  0  0  0  0  0  0
  191.4780  170.4730  142.8580 C   0  0  0  0  0  3  0  0  0  0  0  0
  190.1380  171.8170  141.3140 C   0  0  0  0  0  2  0  0  0  0  0  0
  190.7170  172.2820  139.9830 C   0  0  2  0  0  3  0  0  0  0  0  0
  190.3520  171.9030  137.5850 N   0  0  0  0  0  2  0  0  0  0  0  0
  189.5140  172.4170  136.5180 C   0  0  1  0  0  3  0  0  0  0  0  0
  189.6970  172.2490  138.8390 C   0  0  2  0  0  3  0  0  0  0  0  0
  188.7810  173.8230  138.6620 S   0  0  0  0  0  0  0  0  0  0  0  0
  189.1010  173.8240  136.8850 C   0  0  0  0  0  2  0  0  0  0  0  0
  190.2960  172.4150  135.2150 C   0  0  0  0  0  2  0  0  0  0  0  0
  192.5990  171.8610  134.5130 C   0  0  0  0  0  1  0  0  0  0  0  0
  191.3650  171.3350  135.2120 C   0  0  2  0  0  3  0  0  0  0  0  0
  190.9030  170.2060  134.5340 O   0  0  0  0  0  1  0  0  0  0  0  0
  192.1700  171.2740  139.5530 S   0  0  0  0  0  0  0  0  0  0  0  0
  194.5090  172.2590  140.7340 C   0  0  0  0  0  0  0  0  0  0  0  0
  195.0640  174.6180  140.7970 C   0  0  0  0  0  3  0  0  0  0  0  0
  195.3770  173.2920  141.1040 C   0  0  0  0  0  3  0  0  0  0  0  0
  193.3180  172.5600  140.0460 C   0  0  0  0  0  0  0  0  0  0  0  0
  193.8810  174.9180  140.1200 C   0  0  0  0  0  3  0  0  0  0  0  0
  193.0100  173.8920  139.7460 C   0  0  0  0  0  3  0  0  0  0  0  0
  194.9480  170.6080  141.1400 Cl  0  0  0  0  0  0  0  0  0  0  0  0
  1  6  1  0  0  0  0
  2  5  1  0  0  0  0
  2  8  1  0  0  0  0
  3  1  2  0  0  0  0
  3  4  1  0  0  0  0
  4  2  2  0  0  0  0
  6  5  2  0  0  0  0
  8  7  3  0  0  0  0
  9  1  1  0  0  0  0
 10  9  1  6  0  0  0
 10 21  1  0  0  0  0
 11 12  1  6  0  0  0
 11 10  1  0  0  0  0
 13 14  2  0  0  0  0
 14 11  1  0  0  0  0
 15 20  1  0  0  0  0
 15 17  2  0  0  0  0
 16 15  1  0  0  0  0
 17 14  1  0  0  0  0
 18 20  2  0  0  0  0
 20 19  1  0  0  0  0
 21 23  1  0  0  0  0
 22 23  2  0  0  0  0
 23 25  1  0  0  0  0
 24 26  1  0  0  0  0
 25 24  3  0  0  0  0
 27 26  2  0  0  0  0
 29 28  1  6  0  0  0
 29 27  1  0  0  0  0
 30 29  1  0  0  0  0
 31 30  1  0  0  0  0
 32  4  1  0  0  0  0
 34 32  1  0  0  0  0
 34 33  2  0  0  0  0
 35 36  2  0  0  0  0
 36 34  1  0  0  0  0
 37 35  1  0  0  0  0
 38 37  1  1  0  0  0
 39 41  1  0  0  0  0
 40 44  1  6  0  0  0
 40 43  1  0  0  0  0
 40 39  1  0  0  0  0
 41 38  1  1  0  0  0
 42 41  1  0  0  0  0
 43 42  1  0  0  0  0
 46 45  1  6  0  0  0
 46 44  1  0  0  0  0
 47 46  1  0  0  0  0
 48 38  1  0  0  0  0
 48 52  1  0  0  0  0
 49 51  1  0  0  0  0
 49 55  1  0  0  0  0
 50 51  2  0  0  0  0
 52 49  2  0  0  0  0
 53 50  1  0  0  0  0
 54 52  1  0  0  0  0
 54 53  2  0  0  0  0
M  END
>  <MODEL>
6

>  <REMARK>
 VINA RESULT:      -5.3      2.400      6.649
  Name = 
  23 active torsions:
  status: ('A' for Active; 'I' for Inactive)
    1  A    between atoms: N_1  and  C_44
    2  A    between atoms: C_3  and  C_40
    3  A    between atoms: CA_4  and  C_51
    4  A    between atoms: C_5  and  C_37
    5  A    between atoms: O_8  and  C_37
    6  A    between atoms: O_8  and  C_47
    7  A    between atoms: S_10  and  C_22
    8  A    between atoms: S_10  and  C_25
    9  A    between atoms: C_11  and  C_12
   10  A    between atoms: C_11  and  C_34
   11  A    between atoms: C_12  and  N_42
   12  A    between atoms: C_13  and  C_27
   13  A    between atoms: C_13  and  C_34
   14  A    between atoms: C_14  and  C_49
   15  A    between atoms: C_18  and  O_38
   16  A    between atoms: C_18  and  C_48
   17  A    between atoms: C_20  and  C_49
   18  A    between atoms: C_22  and  C_26
   19  A    between atoms: C_22  and  C_44
   20  A    between atoms: C_23  and  CA_29
   21  A    between atoms: CA_29  and  N_55
   22  A    between atoms: C_34  and  O_38
   23  A    between atoms: C_36  and  C_54
                            x       y       z     vdW  Elec       q    Type
                         _______ _______ _______ _____ _____    ______ ____

>  <TORSDO>
F 23

$$$$
=
 OpenBabel11062421343D

 55 57  0  0  1  0  0  0  0  0999 V2000
  193.7560  175.3690  145.5360 C   0  0  0  0  0  0  0  0  0  0  0  0
  195.5720  173.2540  145.2730 C   0  0  0  0  0  0  0  0  0  0  0  0
  193.3320  174.0530  145.7340 C   0  0  0  0  0  3  0  0  0  0  0  0
  194.2300  172.9810  145.5990 C   0  0  0  0  0  0  0  0  0  0  0  0
  195.9920  174.5710  145.0680 C   0  0  0  0  0  3  0  0  0  0  0  0
  195.0870  175.6260  145.1960 C   0  0  0  0  0  3  0  0  0  0  0  0
  197.2940  171.3310  144.9910 N   0  0  0  0  0  0  0  0  0  0  0  0
  196.5250  172.1870  145.1180 C   0  0  0  0  0  0  0  0  0  0  0  0
  192.7930  176.5010  145.6800 C   0  0  0  0  0  2  0  0  0  0  0  0
  191.3530  176.1440  145.2900 C   0  0  1  0  0  3  0  0  0  0  0  0
  190.2810  176.6890  146.2440 C   0  0  2  0  0  3  0  0  0  0  0  0
  190.4840  176.1920  147.5320 O   0  0  0  0  0  1  0  0  0  0  0  0
  188.6950  175.1610  145.3210 O   0  0  0  0  0  0  0  0  0  0  0  0
  188.9130  176.3200  145.7700 C   0  0  0  0  0  0  0  0  0  0  0  0
  186.8350  177.3510  146.5870 C   0  0  0  0  0  0  0  0  0  0  0  0
  186.5500  176.2800  147.5930 C   0  0  0  0  0  1  0  0  0  0  0  0
  187.8790  177.3160  145.8090 N   0  0  0  0  0  0  0  0  0  0  0  0
  186.1850  179.4780  145.7550 O   0  0  0  0  0  0  0  0  0  0  0  0
  184.6680  178.4360  147.1160 O   0  0  0  0  0  1  0  0  0  0  0  0
  185.8910  178.4730  146.4560 C   0  0  0  0  0  0  0  0  0  0  0  0
  191.0770  176.3920  143.9050 O   0  0  0  0  0  0  0  0  0  0  0  0
  191.3090  178.6900  143.6460 O   0  0  0  0  0  0  0  0  0  0  0  0
  190.6910  177.6280  143.3670 C   0  0  0  0  0  0  0  0  0  0  0  0
  188.5970  177.7310  141.7640 C   0  0  0  0  0  0  0  0  0  0  0  0
  189.5540  177.6850  142.4960 C   0  0  0  0  0  0  0  0  0  0  0  0
  187.4510  177.7840  140.8890 C   0  0  0  0  0  3  0  0  0  0  0  0
  186.2330  177.8470  141.3350 N   0  0  0  0  0  0  0  0  0  0  0  0
  185.6940  176.4410  143.2580 C   0  0  0  0  0  1  0  0  0  0  0  0
  185.8740  177.8640  142.7490 C   0  0  2  0  0  3  0  0  0  0  0  0
  184.5790  178.6370  142.9250 C   0  0  0  0  0  2  0  0  0  0  0  0
  183.5130  177.9120  142.3910 O   0  0  0  0  0  1  0  0  0  0  0  0
  193.8270  171.6470  145.7930 O   0  0  0  0  0  0  0  0  0  0  0  0
  194.3550  169.7490  144.5680 O   0  0  0  0  0  0  0  0  0  0  0  0
  193.5650  170.7090  144.7850 C   0  0  0  0  0  0  0  0  0  0  0  0
  192.2230  171.5160  142.8790 N   0  0  0  0  0  0  0  0  0  0  0  0
  192.3260  170.8640  144.0000 C   0  0  0  0  0  3  0  0  0  0  0  0
  193.3190  172.2000  142.2070 C   0  0  0  0  0  2  0  0  0  0  0  0
  192.7900  173.0330  141.0450 C   0  0  2  0  0  3  0  0  0  0  0  0
  191.5420  172.1160  139.1400 N   0  0  0  0  0  2  0  0  0  0  0  0
  190.2130  172.2080  138.5650 C   0  0  1  0  0  3  0  0  0  0  0  0
  191.4310  172.5480  140.5270 C   0  0  2  0  0  3  0  0  0  0  0  0
  190.1170  173.8090  140.6950 S   0  0  0  0  0  0  0  0  0  0  0  0
  189.6130  173.5300  138.9840 C   0  0  0  0  0  2  0  0  0  0  0  0
  190.3110  172.1240  137.0500 C   0  0  0  0  0  2  0  0  0  0  0  0
  189.6970  173.4650  135.0680 C   0  0  0  0  0  1  0  0  0  0  0  0
  190.3730  173.5050  136.4210 C   0  0  2  0  0  3  0  0  0  0  0  0
  191.7030  173.8970  136.2560 O   0  0  0  0  0  1  0  0  0  0  0  0
  194.0050  173.0490  139.6900 S   0  0  0  0  0  0  0  0  0  0  0  0
  196.2830  173.9500  141.0450 C   0  0  0  0  0  0  0  0  0  0  0  0
  196.5660  176.2460  141.7690 C   0  0  0  0  0  3  0  0  0  0  0  0
  197.0470  174.9380  141.6740 C   0  0  0  0  0  3  0  0  0  0  0  0
  195.0260  174.2790  140.5030 C   0  0  0  0  0  0  0  0  0  0  0  0
  195.3180  176.5720  141.2370 C   0  0  0  0  0  3  0  0  0  0  0  0
  194.5490  175.5910  140.6060 C   0  0  0  0  0  3  0  0  0  0  0  0
  196.9320  172.3210  140.9480 Cl  0  0  0  0  0  0  0  0  0  0  0  0
  1  9  1  0  0  0  0
  1  3  1  0  0  0  0
  2  4  1  0  0  0  0
  4  3  2  0  0  0  0
  4 32  1  0  0  0  0
  5  6  1  0  0  0  0
  5  2  2  0  0  0  0
  6  1  2  0  0  0  0
  7  8  3  0  0  0  0
  8  2  1  0  0  0  0
 10  9  1  1  0  0  0
 10 11  1  0  0  0  0
 11 12  1  1  0  0  0
 13 14  2  0  0  0  0
 14 17  1  0  0  0  0
 14 11  1  0  0  0  0
 15 16  1  0  0  0  0
 17 15  2  0  0  0  0
 18 20  2  0  0  0  0
 20 15  1  0  0  0  0
 20 19  1  0  0  0  0
 21 10  1  0  0  0  0
 23 22  2  0  0  0  0
 23 21  1  0  0  0  0
 24 25  3  0  0  0  0
 25 23  1  0  0  0  0
 26 27  2  0  0  0  0
 26 24  1  0  0  0  0
 27 29  1  0  0  0  0
 29 30  1  0  0  0  0
 29 28  1  6  0  0  0
 31 30  1  0  0  0  0
 33 34  2  0  0  0  0
 34 32  1  0  0  0  0
 35 36  2  0  0  0  0
 36 34  1  0  0  0  0
 37 35  1  0  0  0  0
 38 37  1  1  0  0  0
 39 41  1  0  0  0  0
 40 44  1  6  0  0  0
 40 43  1  0  0  0  0
 40 39  1  0  0  0  0
 41 42  1  0  0  0  0
 41 38  1  6  0  0  0
 43 42  1  0  0  0  0
 46 45  1  6  0  0  0
 46 44  1  0  0  0  0
 47 46  1  0  0  0  0
 48 52  1  0  0  0  0
 48 38  1  0  0  0  0
 49 51  1  0  0  0  0
 51 50  2  0  0  0  0
 52 54  1  0  0  0  0
 52 49  2  0  0  0  0
 53 50  1  0  0  0  0
 54 53  2  0  0  0  0
 55 49  1  0  0  0  0
M  END
>  <MODEL>
7

>  <REMARK>
 VINA RESULT:      -5.3      2.359      6.974
  Name = 
  23 active torsions:
  status: ('A' for Active; 'I' for Inactive)
    1  A    between atoms: N_1  and  C_44
    2  A    between atoms: C_3  and  C_40
    3  A    between atoms: CA_4  and  C_51
    4  A    between atoms: C_5  and  C_37
    5  A    between atoms: O_8  and  C_37
    6  A    between atoms: O_8  and  C_47
    7  A    between atoms: S_10  and  C_22
    8  A    between atoms: S_10  and  C_25
    9  A    between atoms: C_11  and  C_12
   10  A    between atoms: C_11  and  C_34
   11  A    between atoms: C_12  and  N_42
   12  A    between atoms: C_13  and  C_27
   13  A    between atoms: C_13  and  C_34
   14  A    between atoms: C_14  and  C_49
   15  A    between atoms: C_18  and  O_38
   16  A    between atoms: C_18  and  C_48
   17  A    between atoms: C_20  and  C_49
   18  A    between atoms: C_22  and  C_26
   19  A    between atoms: C_22  and  C_44
   20  A    between atoms: C_23  and  CA_29
   21  A    between atoms: CA_29  and  N_55
   22  A    between atoms: C_34  and  O_38
   23  A    between atoms: C_36  and  C_54
                            x       y       z     vdW  Elec       q    Type
                         _______ _______ _______ _____ _____    ______ ____

>  <TORSDO>
F 23

$$$$
=
 OpenBabel11062421343D

 55 57  0  0  1  0  0  0  0  0999 V2000
  193.7690  175.5710  145.7380 C   0  0  0  0  0  0  0  0  0  0  0  0
  195.5350  173.4140  145.4740 C   0  0  0  0  0  0  0  0  0  0  0  0
  193.2870  174.2610  145.7810 C   0  0  0  0  0  3  0  0  0  0  0  0
  194.1600  173.1690  145.6440 C   0  0  0  0  0  0  0  0  0  0  0  0
  196.0140  174.7270  145.4230 C   0  0  0  0  0  3  0  0  0  0  0  0
  195.1350  175.8020  145.5510 C   0  0  0  0  0  3  0  0  0  0  0  0
  197.2160  171.4550  145.1990 N   0  0  0  0  0  0  0  0  0  0  0  0
  196.4650  172.3270  145.3230 C   0  0  0  0  0  0  0  0  0  0  0  0
  192.8320  176.7250  145.8830 C   0  0  0  0  0  2  0  0  0  0  0  0
  191.4010  176.4250  145.4170 C   0  0  1  0  0  3  0  0  0  0  0  0
  190.3040  177.0500  146.2890 C   0  0  2  0  0  3  0  0  0  0  0  0
  190.5310  176.7570  147.6350 O   0  0  0  0  0  1  0  0  0  0  0  0
  188.8030  175.3330  145.5780 O   0  0  0  0  0  0  0  0  0  0  0  0
  188.9550  176.5480  145.8840 C   0  0  0  0  0  0  0  0  0  0  0  0
  186.7780  177.4850  146.5430 C   0  0  0  0  0  0  0  0  0  0  0  0
  186.5020  176.4420  147.5810 C   0  0  0  0  0  1  0  0  0  0  0  0
  187.8640  177.4800  145.8230 N   0  0  0  0  0  0  0  0  0  0  0  0
  185.9850  179.4370  145.4500 O   0  0  0  0  0  0  0  0  0  0  0  0
  184.6020  178.5610  147.0490 O   0  0  0  0  0  1  0  0  0  0  0  0
  185.7790  178.5400  146.3100 C   0  0  0  0  0  0  0  0  0  0  0  0
  191.2200  176.6410  144.0120 O   0  0  0  0  0  0  0  0  0  0  0  0
  191.3230  178.9430  143.7090 O   0  0  0  0  0  0  0  0  0  0  0  0
  190.7830  177.8390  143.4290 C   0  0  0  0  0  0  0  0  0  0  0  0
  188.7590  177.7800  141.7370 C   0  0  0  0  0  0  0  0  0  0  0  0
  189.6840  177.8080  142.5090 C   0  0  0  0  0  0  0  0  0  0  0  0
  187.6520  177.7440  140.8130 C   0  0  0  0  0  3  0  0  0  0  0  0
  186.4190  177.6220  141.2030 N   0  0  0  0  0  0  0  0  0  0  0  0
  186.3060  176.1000  143.1100 C   0  0  0  0  0  1  0  0  0  0  0  0
  186.0050  177.5010  142.5980 C   0  0  2  0  0  3  0  0  0  0  0  0
  184.5150  177.7730  142.7000 C   0  0  0  0  0  2  0  0  0  0  0  0
  184.0420  178.3050  141.5000 O   0  0  0  0  0  1  0  0  0  0  0  0
  193.6980  171.8410  145.6850 O   0  0  0  0  0  0  0  0  0  0  0  0
  193.9400  170.1110  144.1580 O   0  0  0  0  0  0  0  0  0  0  0  0
  193.2610  171.0840  144.5890 C   0  0  0  0  0  0  0  0  0  0  0  0
  191.7300  171.4480  142.6900 N   0  0  0  0  0  0  0  0  0  0  0  0
  191.9740  171.4460  143.9680 C   0  0  0  0  0  3  0  0  0  0  0  0
  192.6900  171.0890  141.6560 C   0  0  0  0  0  2  0  0  0  0  0  0
  192.3990  171.8590  140.3720 C   0  0  2  0  0  3  0  0  0  0  0  0
  194.0690  172.7980  138.8380 N   0  0  0  0  0  2  0  0  0  0  0  0
  194.5520  172.5770  137.4880 C   0  0  1  0  0  3  0  0  0  0  0  0
  193.4090  171.5690  139.2560 C   0  0  2  0  0  3  0  0  0  0  0  0
  192.6520  170.7340  137.8150 S   0  0  0  0  0  0  0  0  0  0  0  0
  193.4470  171.9120  136.7000 C   0  0  0  0  0  2  0  0  0  0  0  0
  194.9250  173.9100  136.8590 C   0  0  0  0  0  2  0  0  0  0  0  0
  196.6380  175.6760  136.6320 C   0  0  0  0  0  1  0  0  0  0  0  0
  196.2690  174.4040  137.3650 C   0  0  2  0  0  3  0  0  0  0  0  0
  197.2530  173.4420  137.1320 O   0  0  0  0  0  1  0  0  0  0  0  0
  192.3460  173.6440  140.7180 S   0  0  0  0  0  0  0  0  0  0  0  0
  189.5720  174.0120  140.8160 C   0  0  0  0  0  0  0  0  0  0  0  0
  188.1790  174.0830  138.8340 C   0  0  0  0  0  3  0  0  0  0  0  0
  188.3130  174.1430  140.2230 C   0  0  0  0  0  3  0  0  0  0  0  0
  190.7090  173.8230  140.0080 C   0  0  0  0  0  0  0  0  0  0  0  0
  189.3050  173.8900  138.0310 C   0  0  0  0  0  3  0  0  0  0  0  0
  190.5660  173.7600  138.6170 C   0  0  0  0  0  3  0  0  0  0  0  0
  189.6880  174.0960  142.5670 Cl  0  0  0  0  0  0  0  0  0  0  0  0
  1  3  1  0  0  0  0
  1  9  1  0  0  0  0
  2  4  1  0  0  0  0
  4 32  1  0  0  0  0
  4  3  2  0  0  0  0
  5  2  2  0  0  0  0
  5  6  1  0  0  0  0
  6  1  2  0  0  0  0
  7  8  3  0  0  0  0
  8  2  1  0  0  0  0
 10  9  1  1  0  0  0
 10 11  1  0  0  0  0
 11 12  1  1  0  0  0
 13 14  2  0  0  0  0
 14 11  1  0  0  0  0
 15 16  1  0  0  0  0
 17 14  1  0  0  0  0
 17 15  2  0  0  0  0
 18 20  2  0  0  0  0
 20 15  1  0  0  0  0
 20 19  1  0  0  0  0
 21 10  1  0  0  0  0
 23 22  2  0  0  0  0
 23 21  1  0  0  0  0
 24 25  3  0  0  0  0
 25 23  1  0  0  0  0
 26 27  2  0  0  0  0
 26 24  1  0  0  0  0
 27 29  1  0  0  0  0
 29 30  1  0  0  0  0
 29 28  1  6  0  0  0
 31 30  1  0  0  0  0
 33 34  2  0  0  0  0
 34 32  1  0  0  0  0
 35 36  2  0  0  0  0
 36 34  1  0  0  0  0
 37 35  1  0  0  0  0
 38 48  1  0  0  0  0
 38 37  1  1  0  0  0
 39 41  1  0  0  0  0
 40 44  1  6  0  0  0
 40 39  1  0  0  0  0
 41 38  1  1  0  0  0
 42 41  1  0  0  0  0
 43 40  1  0  0  0  0
 43 42  1  0  0  0  0
 44 46  1  0  0  0  0
 46 45  1  6  0  0  0
 47 46  1  0  0  0  0
 49 55  1  0  0  0  0
 50 51  2  0  0  0  0
 51 49  1  0  0  0  0
 52 48  1  0  0  0  0
 52 49  2  0  0  0  0
 53 54  2  0  0  0  0
 53 50  1  0  0  0  0
 54 52  1  0  0  0  0
M  END
>  <MODEL>
8

>  <REMARK>
 VINA RESULT:      -5.3      2.674      6.309
  Name = 
  23 active torsions:
  status: ('A' for Active; 'I' for Inactive)
    1  A    between atoms: N_1  and  C_44
    2  A    between atoms: C_3  and  C_40
    3  A    between atoms: CA_4  and  C_51
    4  A    between atoms: C_5  and  C_37
    5  A    between atoms: O_8  and  C_37
    6  A    between atoms: O_8  and  C_47
    7  A    between atoms: S_10  and  C_22
    8  A    between atoms: S_10  and  C_25
    9  A    between atoms: C_11  and  C_12
   10  A    between atoms: C_11  and  C_34
   11  A    between atoms: C_12  and  N_42
   12  A    between atoms: C_13  and  C_27
   13  A    between atoms: C_13  and  C_34
   14  A    between atoms: C_14  and  C_49
   15  A    between atoms: C_18  and  O_38
   16  A    between atoms: C_18  and  C_48
   17  A    between atoms: C_20  and  C_49
   18  A    between atoms: C_22  and  C_26
   19  A    between atoms: C_22  and  C_44
   20  A    between atoms: C_23  and  CA_29
   21  A    between atoms: CA_29  and  N_55
   22  A    between atoms: C_34  and  O_38
   23  A    between atoms: C_36  and  C_54
                            x       y       z     vdW  Elec       q    Type
                         _______ _______ _______ _____ _____    ______ ____

>  <TORSDO>
F 23

$$$$
=
 OpenBabel11062421343D

 55 57  0  0  1  0  0  0  0  0999 V2000
  187.6850  176.8730  145.5170 C   0  0  0  0  0  0  0  0  0  0  0  0
  190.1370  176.0240  146.5690 C   0  0  0  0  0  0  0  0  0  0  0  0
  188.8820  177.3200  144.9530 C   0  0  0  0  0  3  0  0  0  0  0  0
  190.1200  176.9080  145.4740 C   0  0  0  0  0  0  0  0  0  0  0  0
  188.9380  175.5840  147.1370 C   0  0  0  0  0  3  0  0  0  0  0  0
  187.7150  176.0100  146.6160 C   0  0  0  0  0  3  0  0  0  0  0  0
  192.3810  175.2200  147.5990 N   0  0  0  0  0  0  0  0  0  0  0  0
  191.3810  175.5810  147.1400 C   0  0  0  0  0  0  0  0  0  0  0  0
  186.3750  177.3190  144.9570 C   0  0  0  0  0  2  0  0  0  0  0  0
  186.4560  177.8170  143.5080 C   0  0  1  0  0  3  0  0  0  0  0  0
  186.4070  176.7080  142.4500 C   0  0  2  0  0  3  0  0  0  0  0  0
  186.3720  175.4550  143.0650 O   0  0  0  0  0  1  0  0  0  0  0  0
  188.3600  177.7880  141.6000 O   0  0  0  0  0  0  0  0  0  0  0  0
  187.5910  176.7900  141.5410 C   0  0  0  0  0  0  0  0  0  0  0  0
  188.6830  174.7710  140.6550 C   0  0  0  0  0  0  0  0  0  0  0  0
  189.6570  174.6490  141.7850 C   0  0  0  0  0  1  0  0  0  0  0  0
  187.8050  175.7320  140.5930 N   0  0  0  0  0  0  0  0  0  0  0  0
  187.8270  172.9190  139.4410 O   0  0  0  0  0  1  0  0  0  0  0  0
  189.7910  173.7970  138.6610 O   0  0  0  0  0  0  0  0  0  0  0  0
  188.7330  173.7860  139.5630 C   0  0  0  0  0  0  0  0  0  0  0  0
  185.5630  178.9080  143.2470 O   0  0  0  0  0  0  0  0  0  0  0  0
  183.6570  179.1220  144.5600 O   0  0  0  0  0  0  0  0  0  0  0  0
  184.1740  178.8780  143.4370 C   0  0  0  0  0  0  0  0  0  0  0  0
  182.6140  178.2600  141.4000 C   0  0  0  0  0  0  0  0  0  0  0  0
  183.3260  178.5410  142.3310 C   0  0  0  0  0  0  0  0  0  0  0  0
  181.7620  177.9250  140.2850 C   0  0  0  0  0  3  0  0  0  0  0  0
  180.4670  178.0090  140.3430 N   0  0  0  0  0  0  0  0  0  0  0  0
  178.6400  177.4200  141.8530 C   0  0  0  0  0  1  0  0  0  0  0  0
  179.7220  178.4380  141.5220 C   0  0  2  0  0  3  0  0  0  0  0  0
  179.0860  179.7880  141.2460 C   0  0  0  0  0  2  0  0  0  0  0  0
  178.9850  179.9970  139.8700 O   0  0  0  0  0  1  0  0  0  0  0  0
  191.3390  177.3440  144.9230 O   0  0  0  0  0  0  0  0  0  0  0  0
  191.9370  177.8550  142.7400 O   0  0  0  0  0  0  0  0  0  0  0  0
  191.8460  176.9980  143.6630 C   0  0  0  0  0  0  0  0  0  0  0  0
  193.3950  175.2540  142.8620 N   0  0  0  0  0  0  0  0  0  0  0  0
  192.2920  175.6080  143.4540 C   0  0  0  0  0  3  0  0  0  0  0  0
  194.3790  176.1740  142.3090 C   0  0  0  0  0  2  0  0  0  0  0  0
  195.6480  175.4220  141.9220 C   0  0  2  0  0  3  0  0  0  0  0  0
  195.3640  175.3470  139.4850 N   0  0  0  0  0  2  0  0  0  0  0  0
  196.1920  175.2890  138.2950 C   0  0  1  0  0  3  0  0  0  0  0  0
  196.2070  175.8500  140.5610 C   0  0  2  0  0  3  0  0  0  0  0  0
  197.9400  175.3200  140.3080 S   0  0  0  0  0  0  0  0  0  0  0  0
  197.5170  174.6710  138.6770 C   0  0  0  0  0  2  0  0  0  0  0  0
  195.4970  174.4470  137.2370 C   0  0  0  0  0  2  0  0  0  0  0  0
  195.6240  172.0080  136.8620 C   0  0  0  0  0  1  0  0  0  0  0  0
  195.0990  173.0870  137.7830 C   0  0  2  0  0  3  0  0  0  0  0  0
  193.7090  172.9880  137.8570 O   0  0  0  0  0  1  0  0  0  0  0  0
  195.3360  173.6300  141.9330 S   0  0  0  0  0  0  0  0  0  0  0  0
  195.5100  172.4520  144.4670 C   0  0  0  0  0  0  0  0  0  0  0  0
  197.0780  173.1920  146.1620 C   0  0  0  0  0  3  0  0  0  0  0  0
  196.0540  172.3360  145.7500 C   0  0  0  0  0  3  0  0  0  0  0  0
  196.0010  173.4350  143.5870 C   0  0  0  0  0  0  0  0  0  0  0  0
  197.5620  174.1710  145.2920 C   0  0  0  0  0  3  0  0  0  0  0  0
  197.0250  174.2920  144.0080 C   0  0  0  0  0  3  0  0  0  0  0  0
  194.2250  171.3510  143.9960 Cl  0  0  0  0  0  0  0  0  0  0  0  0
  1  6  1  0  0  0  0
  2  5  1  0  0  0  0
  2  8  1  0  0  0  0
  3  4  1  0  0  0  0
  3  1  2  0  0  0  0
  4  2  2  0  0  0  0
  6  5  2  0  0  0  0
  8  7  3  0  0  0  0
  9  1  1  0  0  0  0
 10  9  1  1  0  0  0
 11 12  1  1  0  0  0
 11 10  1  0  0  0  0
 14 13  2  0  0  0  0
 14 11  1  0  0  0  0
 15 16  1  0  0  0  0
 17 15  2  0  0  0  0
 17 14  1  0  0  0  0
 18 20  1  0  0  0  0
 19 20  2  0  0  0  0
 20 15  1  0  0  0  0
 21 23  1  0  0  0  0
 21 10  1  0  0  0  0
 23 22  2  0  0  0  0
 24 25  3  0  0  0  0
 25 23  1  0  0  0  0
 26 27  2  0  0  0  0
 26 24  1  0  0  0  0
 27 29  1  0  0  0  0
 29 28  1  6  0  0  0
 30 29  1  0  0  0  0
 31 30  1  0  0  0  0
 32  4  1  0  0  0  0
 33 34  2  0  0  0  0
 34 32  1  0  0  0  0
 35 36  2  0  0  0  0
 36 34  1  0  0  0  0
 37 35  1  0  0  0  0
 38 48  1  0  0  0  0
 38 37  1  6  0  0  0
 39 41  1  0  0  0  0
 40 44  1  6  0  0  0
 40 43  1  0  0  0  0
 40 39  1  0  0  0  0
 41 38  1  1  0  0  0
 42 41  1  0  0  0  0
 43 42  1  0  0  0  0
 44 46  1  0  0  0  0
 46 45  1  6  0  0  0
 46 47  1  0  0  0  0
 48 52  1  0  0  0  0
 49 51  1  0  0  0  0
 51 50  2  0  0  0  0
 52 54  1  0  0  0  0
 52 49  2  0  0  0  0
 53 50  1  0  0  0  0
 54 53  2  0  0  0  0
 55 49  1  0  0  0  0
M  END
>  <MODEL>
9

>  <REMARK>
 VINA RESULT:      -5.2      3.383      7.036
  Name = 
  23 active torsions:
  status: ('A' for Active; 'I' for Inactive)
    1  A    between atoms: N_1  and  C_44
    2  A    between atoms: C_3  and  C_40
    3  A    between atoms: CA_4  and  C_51
    4  A    between atoms: C_5  and  C_37
    5  A    between atoms: O_8  and  C_37
    6  A    between atoms: O_8  and  C_47
    7  A    between atoms: S_10  and  C_22
    8  A    between atoms: S_10  and  C_25
    9  A    between atoms: C_11  and  C_12
   10  A    between atoms: C_11  and  C_34
   11  A    between atoms: C_12  and  N_42
   12  A    between atoms: C_13  and  C_27
   13  A    between atoms: C_13  and  C_34
   14  A    between atoms: C_14  and  C_49
   15  A    between atoms: C_18  and  O_38
   16  A    between atoms: C_18  and  C_48
   17  A    between atoms: C_20  and  C_49
   18  A    between atoms: C_22  and  C_26
   19  A    between atoms: C_22  and  C_44
   20  A    between atoms: C_23  and  CA_29
   21  A    between atoms: CA_29  and  N_55
   22  A    between atoms: C_34  and  O_38
   23  A    between atoms: C_36  and  C_54
                            x       y       z     vdW  Elec       q    Type
                         _______ _______ _______ _____ _____    ______ ____

>  <TORSDO>
F 23

$$$$
