=
 OpenBabel11062422093D

 27 31  0  0  1  0  0  0  0  0999 V2000
  188.2670  176.3650  146.3150 N   0  0  0  0  0  0  0  0  0  0  0  0
  191.8360  177.8360  143.7520 C   0  0  0  0  0  3  0  0  0  0  0  0
  189.6190  176.0180  146.6280 C   0  0  0  0  0  0  0  0  0  0  0  0
  191.8280  176.4300  145.7470 C   0  0  0  0  0  0  0  0  0  0  0  0
  192.3550  175.6450  146.7900 C   0  0  0  0  0  3  0  0  0  0  0  0
  190.4600  176.5700  145.7330 C   0  0  0  0  0  0  0  0  0  0  0  0
  189.7600  177.2760  144.8240 C   0  0  0  0  0  0  0  0  0  0  0  0
  191.5030  175.0750  147.7120 N   0  0  0  0  0  0  0  0  0  0  0  0
  188.3600  177.1140  145.2420 C   0  0  0  0  0  0  0  0  0  0  0  0
  192.5550  177.0810  144.7280 C   0  0  0  0  0  0  0  0  0  0  0  0
  190.4210  177.9420  143.7910 C   0  0  0  0  0  3  0  0  0  0  0  0
  190.1390  175.2400  147.6610 C   0  0  0  0  0  3  0  0  0  0  0  0
  184.7140  178.0350  144.5880 C   0  0  0  0  0  2  0  0  0  0  0  0
  187.1850  177.7150  144.5430 C   0  0  1  0  0  3  0  0  0  0  0  0
  187.1850  177.3180  143.0670 C   0  0  0  0  0  2  0  0  0  0  0  0
  183.5580  178.3040  142.3920 C   0  0  0  0  0  3  0  0  0  0  0  0
  185.8840  177.2730  145.2040 C   0  0  0  0  0  2  0  0  0  0  0  0
  184.7230  178.0560  140.2850 C   0  0  0  0  0  3  0  0  0  0  0  0
  183.5530  178.3350  140.9950 C   0  0  0  0  0  3  0  0  0  0  0  0
  185.9190  177.7250  142.3680 C   0  0  0  0  0  0  0  0  0  0  0  0
  184.7290  177.9850  143.0860 C   0  0  0  0  0  0  0  0  0  0  0  0
  185.9010  177.7480  140.9700 C   0  0  0  0  0  3  0  0  0  0  0  0
  194.1950  175.2270  143.1380 O   0  0  0  0  0  0  0  0  0  0  0  0
  193.9860  176.9680  144.6950 N   0  0  0  0  0  2  0  0  0  0  0  0
  196.1810  176.0850  144.0050 N   0  0  0  0  0  2  0  0  0  0  0  0
  194.7570  176.0520  143.9070 C   0  0  0  0  0  0  0  0  0  0  0  0
  197.0260  175.1870  143.2370 C   0  0  0  0  0  1  0  0  0  0  0  0
  1  3  1  0  0  0  0
  2 11  2  0  0  0  0
  2 10  1  0  0  0  0
  3 12  2  0  0  0  0
  4  5  1  0  0  0  0
  5  8  2  0  0  0  0
  6  4  1  0  0  0  0
  6  3  1  0  0  0  0
  7  9  1  0  0  0  0
  7  6  2  0  0  0  0
  9  1  2  0  0  0  0
 10  4  2  0  0  0  0
 11  7  1  0  0  0  0
 12  8  1  0  0  0  0
 13 17  1  0  0  0  0
 14 17  1  0  0  0  0
 14  9  1  1  0  0  0
 15 14  1  0  0  0  0
 16 21  1  0  0  0  0
 18 22  2  0  0  0  0
 18 19  1  0  0  0  0
 19 16  2  0  0  0  0
 20 15  1  0  0  0  0
 20 21  2  0  0  0  0
 21 13  1  0  0  0  0
 22 20  1  0  0  0  0
 23 26  2  0  0  0  0
 24 10  1  0  0  0  0
 26 25  1  0  0  0  0
 26 24  1  0  0  0  0
 27 25  1  0  0  0  0
M  END
>  <MODEL>
1

>  <REMARK>
 VINA RESULT:      -8.5      0.000      0.000
  Name = 
  2 active torsions:
  status: ('A' for Active; 'I' for Inactive)
    1  A    between atoms: C_3  and  C_24
    2  A    between atoms: N_12  and  C_25
                            x       y       z     vdW  Elec       q    Type
                         _______ _______ _______ _____ _____    ______ ____

>  <TORSDO>
F 2

$$$$
=
 OpenBabel11062422093D

 27 31  0  0  1  0  0  0  0  0999 V2000
  188.1810  177.4780  146.7290 N   0  0  0  0  0  0  0  0  0  0  0  0
  185.8990  178.2700  142.7750 C   0  0  0  0  0  3  0  0  0  0  0  0
  186.7950  177.8310  146.7110 C   0  0  0  0  0  0  0  0  0  0  0  0
  185.0950  178.3510  145.0780 C   0  0  0  0  0  0  0  0  0  0  0  0
  184.1810  178.5280  146.1340 C   0  0  0  0  0  3  0  0  0  0  0  0
  186.3750  178.0050  145.4440 C   0  0  0  0  0  0  0  0  0  0  0  0
  187.3950  177.7920  144.5910 C   0  0  0  0  0  0  0  0  0  0  0  0
  184.6000  178.3520  147.4350 N   0  0  0  0  0  0  0  0  0  0  0  0
  188.5300  177.4560  145.4640 C   0  0  0  0  0  0  0  0  0  0  0  0
  184.8330  178.4920  143.6990 C   0  0  0  0  0  0  0  0  0  0  0  0
  187.2000  177.9150  143.2150 C   0  0  0  0  0  3  0  0  0  0  0  0
  185.8910  178.0050  147.7570 C   0  0  0  0  0  3  0  0  0  0  0  0
  191.2710  175.7170  143.4570 C   0  0  0  0  0  2  0  0  0  0  0  0
  189.9080  177.1330  144.9880 C   0  0  1  0  0  3  0  0  0  0  0  0
  190.8340  176.8750  146.1770 C   0  0  0  0  0  2  0  0  0  0  0  0
  193.6090  175.1970  144.1610 C   0  0  0  0  0  3  0  0  0  0  0  0
  189.8880  175.9190  144.0670 C   0  0  0  0  0  2  0  0  0  0  0  0
  194.4750  175.8440  146.3270 C   0  0  0  0  0  3  0  0  0  0  0  0
  194.6630  175.2510  145.0760 C   0  0  0  0  0  3  0  0  0  0  0  0
  192.1740  176.3470  145.7510 C   0  0  0  0  0  0  0  0  0  0  0  0
  192.3590  175.7260  144.4940 C   0  0  0  0  0  0  0  0  0  0  0  0
  193.2330  176.3860  146.6640 C   0  0  0  0  0  3  0  0  0  0  0  0
  183.4710  177.7180  141.2080 O   0  0  0  0  0  0  0  0  0  0  0  0
  183.5130  178.8510  143.2610 N   0  0  0  0  0  2  0  0  0  0  0  0
  181.5520  178.9140  141.7700 N   0  0  0  0  0  2  0  0  0  0  0  0
  182.8770  178.4570  142.0390 C   0  0  0  0  0  0  0  0  0  0  0  0
  180.8460  178.5540  140.5520 C   0  0  0  0  0  1  0  0  0  0  0  0
  2 11  2  0  0  0  0
  2 10  1  0  0  0  0
  3  1  1  0  0  0  0
  3 12  2  0  0  0  0
  4  6  1  0  0  0  0
  4  5  1  0  0  0  0
  5  8  2  0  0  0  0
  6  3  1  0  0  0  0
  7  6  2  0  0  0  0
  7  9  1  0  0  0  0
  8 12  1  0  0  0  0
  9  1  2  0  0  0  0
 10  4  2  0  0  0  0
 11  7  1  0  0  0  0
 13 17  1  0  0  0  0
 13 21  1  0  0  0  0
 14  9  1  1  0  0  0
 14 15  1  0  0  0  0
 16 21  2  0  0  0  0
 16 19  1  0  0  0  0
 17 14  1  0  0  0  0
 18 22  1  0  0  0  0
 19 18  2  0  0  0  0
 20 15  1  0  0  0  0
 20 22  2  0  0  0  0
 21 20  1  0  0  0  0
 23 26  2  0  0  0  0
 24 10  1  0  0  0  0
 25 26  1  0  0  0  0
 26 24  1  0  0  0  0
 27 25  1  0  0  0  0
M  END
>  <MODEL>
2

>  <REMARK>
 VINA RESULT:      -8.4      3.337      8.521
  Name = 
  2 active torsions:
  status: ('A' for Active; 'I' for Inactive)
    1  A    between atoms: C_3  and  C_24
    2  A    between atoms: N_12  and  C_25
                            x       y       z     vdW  Elec       q    Type
                         _______ _______ _______ _____ _____    ______ ____

>  <TORSDO>
F 2

$$$$
=
 OpenBabel11062422093D

 27 31  0  0  1  0  0  0  0  0999 V2000
  189.9540  176.5890  147.2930 N   0  0  0  0  0  0  0  0  0  0  0  0
  189.7470  177.3910  142.7340 C   0  0  0  0  0  3  0  0  0  0  0  0
  188.7940  177.1520  146.6750 C   0  0  0  0  0  0  0  0  0  0  0  0
  188.0710  177.7930  144.4630 C   0  0  0  0  0  0  0  0  0  0  0  0
  186.8430  178.2010  145.0170 C   0  0  0  0  0  3  0  0  0  0  0  0
  188.9900  177.2820  145.3490 C   0  0  0  0  0  0  0  0  0  0  0  0
  190.2200  176.8390  145.0240 C   0  0  0  0  0  0  0  0  0  0  0  0
  186.6310  178.0720  146.3730 N   0  0  0  0  0  0  0  0  0  0  0  0
  190.7970  176.4050  146.3040 C   0  0  0  0  0  0  0  0  0  0  0  0
  188.4480  177.8560  143.1040 C   0  0  0  0  0  0  0  0  0  0  0  0
  190.6520  176.8740  143.6970 C   0  0  0  0  0  3  0  0  0  0  0  0
  187.5790  177.5550  147.2250 C   0  0  0  0  0  3  0  0  0  0  0  0
  194.6100  176.2520  146.2520 C   0  0  0  0  0  2  0  0  0  0  0  0
  192.1640  175.8290  146.4740 C   0  0  1  0  0  3  0  0  0  0  0  0
  192.2570  174.4680  145.7860 C   0  0  0  0  0  2  0  0  0  0  0  0
  196.0710  174.2800  145.7950 C   0  0  0  0  0  3  0  0  0  0  0  0
  193.2180  176.7750  145.9100 C   0  0  0  0  0  2  0  0  0  0  0  0
  195.1640  172.0770  145.3670 C   0  0  0  0  0  3  0  0  0  0  0  0
  196.2650  172.9220  145.5290 C   0  0  0  0  0  3  0  0  0  0  0  0
  193.6640  173.9430  145.7510 C   0  0  0  0  0  0  0  0  0  0  0  0
  194.7780  174.8020  145.8910 C   0  0  0  0  0  0  0  0  0  0  0  0
  193.8680  172.5870  145.4740 C   0  0  0  0  0  3  0  0  0  0  0  0
  185.9550  176.6400  142.1260 O   0  0  0  0  0  0  0  0  0  0  0  0
  187.5270  178.3800  142.1360 N   0  0  0  0  0  2  0  0  0  0  0  0
  185.5220  178.4360  140.7040 N   0  0  0  0  0  2  0  0  0  0  0  0
  186.3170  177.7620  141.6790 C   0  0  0  0  0  0  0  0  0  0  0  0
  184.2840  177.8690  140.1960 C   0  0  0  0  0  1  0  0  0  0  0  0
  2 10  2  0  0  0  0
  2 11  1  0  0  0  0
  3 12  1  0  0  0  0
  3  1  1  0  0  0  0
  4  5  2  0  0  0  0
  4  6  1  0  0  0  0
  5  8  1  0  0  0  0
  6  3  2  0  0  0  0
  7  6  1  0  0  0  0
  7  9  1  0  0  0  0
  8 12  2  0  0  0  0
  9  1  2  0  0  0  0
 10  4  1  0  0  0  0
 11  7  2  0  0  0  0
 14  9  1  6  0  0  0
 15 14  1  0  0  0  0
 16 21  1  0  0  0  0
 17 13  1  0  0  0  0
 17 14  1  0  0  0  0
 18 22  2  0  0  0  0
 18 19  1  0  0  0  0
 19 16  2  0  0  0  0
 20 15  1  0  0  0  0
 20 21  2  0  0  0  0
 21 13  1  0  0  0  0
 22 20  1  0  0  0  0
 24 10  1  0  0  0  0
 25 26  1  0  0  0  0
 26 23  2  0  0  0  0
 26 24  1  0  0  0  0
 27 25  1  0  0  0  0
M  END
>  <MODEL>
3

>  <REMARK>
 VINA RESULT:      -8.3      2.935      8.097
  Name = 
  2 active torsions:
  status: ('A' for Active; 'I' for Inactive)
    1  A    between atoms: C_3  and  C_24
    2  A    between atoms: N_12  and  C_25
                            x       y       z     vdW  Elec       q    Type
                         _______ _______ _______ _____ _____    ______ ____

>  <TORSDO>
F 2

$$$$
=
 OpenBabel11062422093D

 27 31  0  0  1  0  0  0  0  0999 V2000
  190.8740  176.7850  146.2940 N   0  0  0  0  0  0  0  0  0  0  0  0
  192.1870  175.2430  142.1260 C   0  0  0  0  0  3  0  0  0  0  0  0
  192.2270  176.4170  146.0140 C   0  0  0  0  0  0  0  0  0  0  0  0
  193.5110  175.5810  144.1490 C   0  0  0  0  0  0  0  0  0  0  0  0
  194.6530  175.5920  144.9720 C   0  0  0  0  0  3  0  0  0  0  0  0
  192.3430  176.0050  144.7370 C   0  0  0  0  0  0  0  0  0  0  0  0
  191.1440  176.0700  144.1260 C   0  0  0  0  0  0  0  0  0  0  0  0
  194.5460  176.0120  146.2800 N   0  0  0  0  0  0  0  0  0  0  0  0
  190.2360  176.5760  145.1660 C   0  0  0  0  0  0  0  0  0  0  0  0
  193.4470  175.1830  142.7960 C   0  0  0  0  0  0  0  0  0  0  0  0
  191.0150  175.6900  142.7900 C   0  0  0  0  0  3  0  0  0  0  0  0
  193.3570  176.4290  146.8290 C   0  0  0  0  0  3  0  0  0  0  0  0
  187.0490  177.9760  143.6010 C   0  0  0  0  0  2  0  0  0  0  0  0
  188.7750  176.8220  144.9790 C   0  0  1  0  0  3  0  0  0  0  0  0
  188.1400  177.2740  146.2940 C   0  0  0  0  0  2  0  0  0  0  0  0
  184.9200  178.6120  144.7390 C   0  0  0  0  0  3  0  0  0  0  0  0
  188.5420  177.8710  143.8970 C   0  0  0  0  0  2  0  0  0  0  0  0
  184.5980  178.3300  147.1210 C   0  0  0  0  0  3  0  0  0  0  0  0
  184.1070  178.7120  145.8700 C   0  0  0  0  0  3  0  0  0  0  0  0
  186.7210  177.7310  146.1130 C   0  0  0  0  0  0  0  0  0  0  0  0
  186.2310  178.1390  144.8510 C   0  0  0  0  0  0  0  0  0  0  0  0
  185.9030  177.8440  147.2420 C   0  0  0  0  0  3  0  0  0  0  0  0
  195.3150  176.7510  141.1520 O   0  0  0  0  0  0  0  0  0  0  0  0
  194.6370  174.7310  142.1320 N   0  0  0  0  0  2  0  0  0  0  0  0
  196.6710  174.8980  140.7500 N   0  0  0  0  0  2  0  0  0  0  0  0
  195.5290  175.5220  141.3370 C   0  0  0  0  0  0  0  0  0  0  0  0
  197.6170  175.6380  139.9320 C   0  0  0  0  0  1  0  0  0  0  0  0
  2 11  2  0  0  0  0
  2 10  1  0  0  0  0
  3  1  1  0  0  0  0
  3 12  2  0  0  0  0
  4  6  1  0  0  0  0
  4  5  1  0  0  0  0
  5  8  2  0  0  0  0
  6  3  1  0  0  0  0
  7  6  2  0  0  0  0
  7  9  1  0  0  0  0
  8 12  1  0  0  0  0
  9  1  2  0  0  0  0
 10  4  2  0  0  0  0
 11  7  1  0  0  0  0
 13 17  1  0  0  0  0
 13 21  1  0  0  0  0
 14  9  1  1  0  0  0
 14 15  1  0  0  0  0
 16 21  2  0  0  0  0
 16 19  1  0  0  0  0
 17 14  1  0  0  0  0
 18 22  1  0  0  0  0
 19 18  2  0  0  0  0
 20 15  1  0  0  0  0
 20 22  2  0  0  0  0
 21 20  1  0  0  0  0
 23 26  2  0  0  0  0
 24 10  1  0  0  0  0
 25 26  1  0  0  0  0
 26 24  1  0  0  0  0
 27 25  1  0  0  0  0
M  END
>  <MODEL>
4

>  <REMARK>
 VINA RESULT:      -8.3      2.092      3.384
  Name = 
  2 active torsions:
  status: ('A' for Active; 'I' for Inactive)
    1  A    between atoms: C_3  and  C_24
    2  A    between atoms: N_12  and  C_25
                            x       y       z     vdW  Elec       q    Type
                         _______ _______ _______ _____ _____    ______ ____

>  <TORSDO>
F 2

$$$$
=
 OpenBabel11062422093D

 27 31  0  0  1  0  0  0  0  0999 V2000
  189.8990  175.8600  143.1090 N   0  0  0  0  0  0  0  0  0  0  0  0
  193.0000  175.0370  146.4530 C   0  0  0  0  0  3  0  0  0  0  0  0
  191.1330  175.1840  142.8500 C   0  0  0  0  0  0  0  0  0  0  0  0
  193.0850  174.4740  144.0790 C   0  0  0  0  0  0  0  0  0  0  0  0
  193.6080  173.9500  142.8820 C   0  0  0  0  0  3  0  0  0  0  0  0
  191.8500  175.0720  143.9840 C   0  0  0  0  0  0  0  0  0  0  0  0
  191.1770  175.6340  145.0060 C   0  0  0  0  0  0  0  0  0  0  0  0
  192.8830  174.0590  141.7160 N   0  0  0  0  0  0  0  0  0  0  0  0
  189.9340  176.1230  144.3940 C   0  0  0  0  0  0  0  0  0  0  0  0
  193.6930  174.4480  145.3520 C   0  0  0  0  0  0  0  0  0  0  0  0
  191.7260  175.6400  146.2900 C   0  0  0  0  0  3  0  0  0  0  0  0
  191.6500  174.6650  141.6640 C   0  0  0  0  0  3  0  0  0  0  0  0
  187.1540  176.6720  146.9520 C   0  0  0  0  0  2  0  0  0  0  0  0
  188.8430  176.8340  145.1260 C   0  0  1  0  0  3  0  0  0  0  0  0
  187.8340  177.4190  144.1380 C   0  0  0  0  0  2  0  0  0  0  0  0
  185.0760  178.0350  146.7070 C   0  0  0  0  0  3  0  0  0  0  0  0
  188.1400  175.8870  146.0930 C   0  0  0  0  0  2  0  0  0  0  0  0
  184.5940  179.2990  144.7000 C   0  0  0  0  0  3  0  0  0  0  0  0
  184.2470  178.9050  145.9950 C   0  0  0  0  0  3  0  0  0  0  0  0
  186.6140  177.9640  144.8260 C   0  0  0  0  0  0  0  0  0  0  0  0
  186.2510  177.5470  146.1270 C   0  0  0  0  0  0  0  0  0  0  0  0
  185.7720  178.8270  144.1170 C   0  0  0  0  0  3  0  0  0  0  0  0
  194.3190  171.5950  145.7040 O   0  0  0  0  0  0  0  0  0  0  0  0
  194.9830  173.8360  145.5090 N   0  0  0  0  0  2  0  0  0  0  0  0
  196.6100  172.0110  145.8220 N   0  0  0  0  0  2  0  0  0  0  0  0
  195.2550  172.4390  145.6790 C   0  0  0  0  0  0  0  0  0  0  0  0
  196.9600  170.6120  145.9970 C   0  0  0  0  0  1  0  0  0  0  0  0
  1  9  2  0  0  0  0
  3  1  1  0  0  0  0
  3  6  2  0  0  0  0
  4 10  1  0  0  0  0
  5  4  2  0  0  0  0
  6  4  1  0  0  0  0
  6  7  1  0  0  0  0
  7 11  2  0  0  0  0
  8  5  1  0  0  0  0
  9  7  1  0  0  0  0
 10 24  1  0  0  0  0
 10  2  2  0  0  0  0
 11  2  1  0  0  0  0
 12  8  2  0  0  0  0
 12  3  1  0  0  0  0
 14  9  1  6  0  0  0
 14 17  1  0  0  0  0
 15 20  1  0  0  0  0
 15 14  1  0  0  0  0
 17 13  1  0  0  0  0
 18 19  1  0  0  0  0
 19 16  2  0  0  0  0
 20 21  2  0  0  0  0
 21 16  1  0  0  0  0
 21 13  1  0  0  0  0
 22 18  2  0  0  0  0
 22 20  1  0  0  0  0
 24 26  1  0  0  0  0
 25 27  1  0  0  0  0
 26 23  2  0  0  0  0
 26 25  1  0  0  0  0
M  END
>  <MODEL>
5

>  <REMARK>
 VINA RESULT:      -8.2      2.685      3.900
  Name = 
  2 active torsions:
  status: ('A' for Active; 'I' for Inactive)
    1  A    between atoms: C_3  and  C_24
    2  A    between atoms: N_12  and  C_25
                            x       y       z     vdW  Elec       q    Type
                         _______ _______ _______ _____ _____    ______ ____

>  <TORSDO>
F 2

$$$$
=
 OpenBabel11062422093D

 27 31  0  0  1  0  0  0  0  0999 V2000
  188.8210  174.8920  141.6100 N   0  0  0  0  0  0  0  0  0  0  0  0
  191.9630  176.6990  144.4970 C   0  0  0  0  0  3  0  0  0  0  0  0
  190.1840  174.4600  141.6130 C   0  0  0  0  0  0  0  0  0  0  0  0
  192.2250  174.9650  142.8000 C   0  0  0  0  0  0  0  0  0  0  0  0
  192.8810  173.9960  142.0170 C   0  0  0  0  0  3  0  0  0  0  0  0
  190.8850  175.1390  142.5410 C   0  0  0  0  0  0  0  0  0  0  0  0
  190.0790  176.0120  143.1750 C   0  0  0  0  0  0  0  0  0  0  0  0
  192.1730  173.2950  141.0650 N   0  0  0  0  0  0  0  0  0  0  0  0
  188.7660  175.8140  142.5420 C   0  0  0  0  0  0  0  0  0  0  0  0
  192.7980  175.7660  143.8110 C   0  0  0  0  0  0  0  0  0  0  0  0
  190.5850  176.8320  144.1840 C   0  0  0  0  0  3  0  0  0  0  0  0
  190.8330  173.5010  140.8380 C   0  0  0  0  0  3  0  0  0  0  0  0
  186.3500  178.7570  142.8050 C   0  0  0  0  0  2  0  0  0  0  0  0
  187.5240  176.5610  142.9010 C   0  0  1  0  0  3  0  0  0  0  0  0
  187.1900  176.3580  144.3790 C   0  0  0  0  0  2  0  0  0  0  0  0
  184.7190  179.2580  144.6270 C   0  0  0  0  0  3  0  0  0  0  0  0
  187.6840  178.0460  142.5980 C   0  0  0  0  0  2  0  0  0  0  0  0
  184.4250  177.7950  146.5320 C   0  0  0  0  0  3  0  0  0  0  0  0
  184.0710  178.9470  145.8250 C   0  0  0  0  0  3  0  0  0  0  0  0
  186.0710  177.2500  144.8360 C   0  0  0  0  0  0  0  0  0  0  0  0
  185.7290  178.4280  144.1330 C   0  0  0  0  0  0  0  0  0  0  0  0
  185.4250  176.9510  146.0410 C   0  0  0  0  0  3  0  0  0  0  0  0
  194.0670  173.8380  145.6340 O   0  0  0  0  0  0  0  0  0  0  0  0
  194.1930  175.6260  144.1220 N   0  0  0  0  0  2  0  0  0  0  0  0
  196.1960  174.6830  145.2040 N   0  0  0  0  0  2  0  0  0  0  0  0
  194.7800  174.6730  145.0170 C   0  0  0  0  0  0  0  0  0  0  0  0
  196.8600  173.7470  146.0950 C   0  0  0  0  0  1  0  0  0  0  0  0
  1  3  1  0  0  0  0
  1  9  2  0  0  0  0
  3  6  2  0  0  0  0
  4 10  1  0  0  0  0
  5  4  2  0  0  0  0
  6  4  1  0  0  0  0
  6  7  1  0  0  0  0
  7 11  2  0  0  0  0
  8  5  1  0  0  0  0
  9  7  1  0  0  0  0
 10 24  1  0  0  0  0
 10  2  2  0  0  0  0
 11  2  1  0  0  0  0
 12  8  2  0  0  0  0
 12  3  1  0  0  0  0
 13 21  1  0  0  0  0
 14  9  1  1  0  0  0
 14 15  1  0  0  0  0
 15 20  1  0  0  0  0
 16 19  1  0  0  0  0
 17 13  1  0  0  0  0
 17 14  1  0  0  0  0
 19 18  2  0  0  0  0
 20 22  2  0  0  0  0
 21 16  2  0  0  0  0
 21 20  1  0  0  0  0
 22 18  1  0  0  0  0
 24 26  1  0  0  0  0
 25 27  1  0  0  0  0
 26 25  1  0  0  0  0
 26 23  2  0  0  0  0
M  END
>  <MODEL>
6

>  <REMARK>
 VINA RESULT:      -8.2      2.623      3.730
  Name = 
  2 active torsions:
  status: ('A' for Active; 'I' for Inactive)
    1  A    between atoms: C_3  and  C_24
    2  A    between atoms: N_12  and  C_25
                            x       y       z     vdW  Elec       q    Type
                         _______ _______ _______ _____ _____    ______ ____

>  <TORSDO>
F 2

$$$$
=
 OpenBabel11062422093D

 27 31  0  0  1  0  0  0  0  0999 V2000
  191.0120  176.8440  146.7540 N   0  0  0  0  0  0  0  0  0  0  0  0
  190.0880  173.8370  143.3510 C   0  0  0  0  0  3  0  0  0  0  0  0
  192.0250  176.0110  146.1830 C   0  0  0  0  0  0  0  0  0  0  0  0
  192.2030  174.3170  144.4720 C   0  0  0  0  0  0  0  0  0  0  0  0
  193.5760  174.2110  144.7660 C   0  0  0  0  0  3  0  0  0  0  0  0
  191.4980  175.2330  145.2180 C   0  0  0  0  0  0  0  0  0  0  0  0
  190.1810  175.4860  145.0950 C   0  0  0  0  0  0  0  0  0  0  0  0
  194.1250  175.0020  145.7510 N   0  0  0  0  0  0  0  0  0  0  0  0
  189.9190  176.5260  146.1010 C   0  0  0  0  0  0  0  0  0  0  0  0
  191.4860  173.5860  143.5000 C   0  0  0  0  0  0  0  0  0  0  0  0
  189.4170  174.7970  144.1520 C   0  0  0  0  0  3  0  0  0  0  0  0
  193.3830  175.9060  146.4740 C   0  0  0  0  0  3  0  0  0  0  0  0
  186.3350  176.8260  147.3790 C   0  0  0  0  0  2  0  0  0  0  0  0
  188.5860  177.1480  146.3600 C   0  0  1  0  0  3  0  0  0  0  0  0
  188.0050  177.7170  145.0660 C   0  0  0  0  0  2  0  0  0  0  0  0
  184.4330  178.0840  146.3640 C   0  0  0  0  0  3  0  0  0  0  0  0
  187.6260  176.1290  146.9620 C   0  0  0  0  0  2  0  0  0  0  0  0
  184.6880  179.3980  144.3470 C   0  0  0  0  0  3  0  0  0  0  0  0
  183.8910  178.9360  145.3980 C   0  0  0  0  0  3  0  0  0  0  0  0
  186.5820  178.1680  145.2310 C   0  0  0  0  0  0  0  0  0  0  0  0
  185.7690  177.6820  146.2810 C   0  0  0  0  0  0  0  0  0  0  0  0
  186.0280  179.0120  144.2630 C   0  0  0  0  0  3  0  0  0  0  0  0
  192.0480  170.7680  144.1310 O   0  0  0  0  0  0  0  0  0  0  0  0
  192.1720  172.6170  142.6930 N   0  0  0  0  0  2  0  0  0  0  0  0
  193.1330  170.4270  142.0960 N   0  0  0  0  0  2  0  0  0  0  0  0
  192.4300  171.2480  143.0290 C   0  0  0  0  0  0  0  0  0  0  0  0
  193.4290  169.0320  142.3700 C   0  0  0  0  0  1  0  0  0  0  0  0
  2 10  2  0  0  0  0
  2 11  1  0  0  0  0
  3 12  1  0  0  0  0
  3  1  1  0  0  0  0
  4  5  2  0  0  0  0
  4  6  1  0  0  0  0
  5  8  1  0  0  0  0
  6  3  2  0  0  0  0
  7  6  1  0  0  0  0
  7  9  1  0  0  0  0
  8 12  2  0  0  0  0
  9  1  2  0  0  0  0
 10  4  1  0  0  0  0
 11  7  2  0  0  0  0
 14  9  1  6  0  0  0
 14 17  1  0  0  0  0
 15 20  1  0  0  0  0
 15 14  1  0  0  0  0
 17 13  1  0  0  0  0
 18 19  1  0  0  0  0
 19 16  2  0  0  0  0
 20 21  2  0  0  0  0
 21 16  1  0  0  0  0
 21 13  1  0  0  0  0
 22 18  2  0  0  0  0
 22 20  1  0  0  0  0
 24 26  1  0  0  0  0
 24 10  1  0  0  0  0
 25 27  1  0  0  0  0
 25 26  1  0  0  0  0
 26 23  2  0  0  0  0
M  END
>  <MODEL>
7

>  <REMARK>
 VINA RESULT:      -8.1      3.108      3.853
  Name = 
  2 active torsions:
  status: ('A' for Active; 'I' for Inactive)
    1  A    between atoms: C_3  and  C_24
    2  A    between atoms: N_12  and  C_25
                            x       y       z     vdW  Elec       q    Type
                         _______ _______ _______ _____ _____    ______ ____

>  <TORSDO>
F 2

$$$$
=
 OpenBabel11062422093D

 27 31  0  0  1  0  0  0  0  0999 V2000
  191.1530  177.1320  144.1110 N   0  0  0  0  0  0  0  0  0  0  0  0
  189.0930  173.7470  141.7090 C   0  0  0  0  0  3  0  0  0  0  0  0
  191.8680  176.3280  143.1680 C   0  0  0  0  0  0  0  0  0  0  0  0
  191.4160  174.4950  141.6640 C   0  0  0  0  0  0  0  0  0  0  0  0
  192.7680  174.5240  141.2740 C   0  0  0  0  0  3  0  0  0  0  0  0
  191.0430  175.4220  142.6100 C   0  0  0  0  0  0  0  0  0  0  0  0
  189.8030  175.5600  143.1160 C   0  0  0  0  0  0  0  0  0  0  0  0
  193.6210  175.4470  141.8400 N   0  0  0  0  0  0  0  0  0  0  0  0
  189.9260  176.6690  144.0730 C   0  0  0  0  0  0  0  0  0  0  0  0
  190.4160  173.6200  141.1880 C   0  0  0  0  0  0  0  0  0  0  0  0
  188.7710  174.7250  142.6850 C   0  0  0  0  0  3  0  0  0  0  0  0
  193.2070  176.3580  142.7830 C   0  0  0  0  0  3  0  0  0  0  0  0
  187.2740  176.7640  146.8160 C   0  0  0  0  0  2  0  0  0  0  0  0
  188.8090  177.2090  144.9040 C   0  0  1  0  0  3  0  0  0  0  0  0
  187.6750  177.7100  144.0090 C   0  0  0  0  0  2  0  0  0  0  0  0
  185.0380  177.8730  146.7660 C   0  0  0  0  0  3  0  0  0  0  0  0
  188.2880  176.1430  145.8610 C   0  0  0  0  0  2  0  0  0  0  0  0
  184.2790  179.1560  144.8590 C   0  0  0  0  0  3  0  0  0  0  0  0
  184.0660  178.6660  146.1500 C   0  0  0  0  0  3  0  0  0  0  0  0
  186.4470  178.0710  144.7950 C   0  0  0  0  0  0  0  0  0  0  0  0
  186.2220  177.5570  146.0930 C   0  0  0  0  0  0  0  0  0  0  0  0
  185.4640  178.8560  144.1820 C   0  0  0  0  0  3  0  0  0  0  0  0
  190.0930  173.7900  138.2690 O   0  0  0  0  0  0  0  0  0  0  0  0
  190.7500  172.6330  140.2000 N   0  0  0  0  0  2  0  0  0  0  0  0
  190.9700  171.6550  137.9490 N   0  0  0  0  0  2  0  0  0  0  0  0
  190.5800  172.7460  138.7810 C   0  0  0  0  0  0  0  0  0  0  0  0
  190.8270  171.7000  136.5040 C   0  0  0  0  0  1  0  0  0  0  0  0
  2 11  1  0  0  0  0
  3  1  1  0  0  0  0
  4  6  1  0  0  0  0
  5  4  2  0  0  0  0
  5  8  1  0  0  0  0
  6  7  1  0  0  0  0
  6  3  2  0  0  0  0
  7  9  1  0  0  0  0
  8 12  2  0  0  0  0
  9  1  2  0  0  0  0
 10  4  1  0  0  0  0
 10  2  2  0  0  0  0
 11  7  2  0  0  0  0
 12  3  1  0  0  0  0
 14  9  1  6  0  0  0
 14 17  1  0  0  0  0
 15 20  1  0  0  0  0
 15 14  1  0  0  0  0
 17 13  1  0  0  0  0
 18 19  2  0  0  0  0
 19 16  1  0  0  0  0
 20 21  1  0  0  0  0
 21 16  2  0  0  0  0
 21 13  1  0  0  0  0
 22 20  2  0  0  0  0
 22 18  1  0  0  0  0
 23 26  2  0  0  0  0
 24 10  1  0  0  0  0
 25 26  1  0  0  0  0
 26 24  1  0  0  0  0
 27 25  1  0  0  0  0
M  END
>  <MODEL>
8

>  <REMARK>
 VINA RESULT:      -8.0      4.064      5.096
  Name = 
  2 active torsions:
  status: ('A' for Active; 'I' for Inactive)
    1  A    between atoms: C_3  and  C_24
    2  A    between atoms: N_12  and  C_25
                            x       y       z     vdW  Elec       q    Type
                         _______ _______ _______ _____ _____    ______ ____

>  <TORSDO>
F 2

$$$$
=
 OpenBabel11062422093D

 27 31  0  0  1  0  0  0  0  0999 V2000
  190.9070  176.8780  145.8820 N   0  0  0  0  0  0  0  0  0  0  0  0
  191.0320  172.5190  144.3140 C   0  0  0  0  0  3  0  0  0  0  0  0
  192.1000  176.0900  145.9260 C   0  0  0  0  0  0  0  0  0  0  0  0
  192.8070  173.8670  145.3080 C   0  0  0  0  0  0  0  0  0  0  0  0
  194.0950  174.1790  145.7840 C   0  0  0  0  0  3  0  0  0  0  0  0
  191.8700  174.8670  145.4120 C   0  0  0  0  0  0  0  0  0  0  0  0
  190.5860  174.7720  145.0170 C   0  0  0  0  0  0  0  0  0  0  0  0
  194.3420  175.4280  146.3130 N   0  0  0  0  0  0  0  0  0  0  0  0
  190.0110  176.0870  145.3390 C   0  0  0  0  0  0  0  0  0  0  0  0
  192.3890  172.6440  144.7410 C   0  0  0  0  0  0  0  0  0  0  0  0
  190.1100  173.5900  144.4490 C   0  0  0  0  0  3  0  0  0  0  0  0
  193.3740  176.4000  146.3980 C   0  0  0  0  0  3  0  0  0  0  0  0
  187.0670  177.8720  143.6930 C   0  0  0  0  0  2  0  0  0  0  0  0
  188.5940  176.4850  145.0900 C   0  0  1  0  0  3  0  0  0  0  0  0
  187.9290  176.9260  146.3940 C   0  0  0  0  0  2  0  0  0  0  0  0
  184.9450  178.6530  144.7510 C   0  0  0  0  0  3  0  0  0  0  0  0
  188.5240  177.6060  144.0600 C   0  0  0  0  0  2  0  0  0  0  0  0
  184.4610  178.2780  147.0930 C   0  0  0  0  0  3  0  0  0  0  0  0
  184.0810  178.7720  145.8420 C   0  0  0  0  0  3  0  0  0  0  0  0
  186.5720  177.5280  146.1650 C   0  0  0  0  0  0  0  0  0  0  0  0
  186.1970  178.0490  144.9050 C   0  0  0  0  0  0  0  0  0  0  0  0
  185.7040  177.6620  147.2540 C   0  0  0  0  0  3  0  0  0  0  0  0
  194.1750  172.0590  142.4780 O   0  0  0  0  0  0  0  0  0  0  0  0
  193.3270  171.5650  144.6080 N   0  0  0  0  0  2  0  0  0  0  0  0
  195.0590  170.1790  143.5350 N   0  0  0  0  0  2  0  0  0  0  0  0
  194.1860  171.3070  143.4900 C   0  0  0  0  0  0  0  0  0  0  0  0
  195.9560  169.8570  142.4380 C   0  0  0  0  0  1  0  0  0  0  0  0
  1  3  1  0  0  0  0
  2 11  2  0  0  0  0
  2 10  1  0  0  0  0
  3 12  2  0  0  0  0
  4  6  1  0  0  0  0
  4  5  1  0  0  0  0
  5  8  2  0  0  0  0
  6  3  1  0  0  0  0
  7  9  1  0  0  0  0
  7  6  2  0  0  0  0
  8 12  1  0  0  0  0
  9  1  2  0  0  0  0
 10  4  2  0  0  0  0
 11  7  1  0  0  0  0
 13 17  1  0  0  0  0
 13 21  1  0  0  0  0
 14  9  1  1  0  0  0
 14 15  1  0  0  0  0
 16 21  2  0  0  0  0
 16 19  1  0  0  0  0
 17 14  1  0  0  0  0
 18 22  1  0  0  0  0
 19 18  2  0  0  0  0
 20 15  1  0  0  0  0
 20 22  2  0  0  0  0
 21 20  1  0  0  0  0
 23 26  2  0  0  0  0
 24 10  1  0  0  0  0
 26 25  1  0  0  0  0
 26 24  1  0  0  0  0
 27 25  1  0  0  0  0
M  END
>  <MODEL>
9

>  <REMARK>
 VINA RESULT:      -8.0      2.854      4.008
  Name = 
  2 active torsions:
  status: ('A' for Active; 'I' for Inactive)
    1  A    between atoms: C_3  and  C_24
    2  A    between atoms: N_12  and  C_25
                            x       y       z     vdW  Elec       q    Type
                         _______ _______ _______ _____ _____    ______ ____

>  <TORSDO>
F 2

$$$$
