=
 OpenBabel11062419113D

 54 56  0  0  1  0  0  0  0  0999 V2000
  190.5690  174.0010  143.8100 C   0  0  1  0  0  3  0  0  0  0  0  0
  189.1890  173.3850  143.6400 C   0  0  0  0  0  2  0  0  0  0  0  0
  189.1330  172.6880  142.4350 O   0  0  0  0  0  0  0  0  0  0  0  0
  189.2400  173.6650  141.4440 C   0  0  0  0  0  2  0  0  0  0  0  0
  192.6060  173.4690  137.5530 C   0  0  0  0  0  3  0  0  0  0  0  0
  191.0150  173.5210  139.6370 C   0  0  1  0  0  3  0  0  0  0  0  0
  189.6030  171.6460  140.2100 O   0  0  0  0  0  1  0  0  0  0  0  0
  192.1150  173.0360  140.5470 C   0  0  0  0  0  3  0  0  0  0  0  0
  191.2530  173.1290  138.1530 C   0  0  1  0  0  3  0  0  0  0  0  0
  188.3750  174.8240  139.0580 F   0  0  0  0  0  0  0  0  0  0  0  0
  193.6150  174.6830  139.5130 C   0  0  2  0  0  3  0  0  0  0  0  0
  193.3280  173.5910  140.4990 C   0  0  0  0  0  3  0  0  0  0  0  0
  193.6280  174.1360  138.1190 C   0  0  0  0  0  3  0  0  0  0  0  0
  190.2500  173.6870  137.3430 O   0  0  0  0  0  0  0  0  0  0  0  0
  189.0490  173.0260  137.6590 C   0  0  0  0  0  2  0  0  0  0  0  0
  189.6190  173.0420  140.0960 C   0  0  1  0  0  0  0  0  0  0  0  0
  188.5720  173.4540  139.0500 C   0  0  1  0  0  3  0  0  0  0  0  0
  195.8590  175.2890  139.0170 O   0  0  0  0  0  0  0  0  0  0  0  0
  194.8920  175.3940  139.8200 C   0  0  0  0  0  0  0  0  0  0  0  0
  195.0350  176.1610  141.0170 N   0  0  0  0  0  2  0  0  0  0  0  0
  196.1820  176.9310  141.2420 N   0  0  0  0  0  1  0  0  0  0  0  0
  190.5480  175.2300  144.7290 C   0  0  1  0  0  3  0  0  0  0  0  0
  190.9140  176.5020  144.0260 C   0  0  0  0  0  0  0  0  0  0  0  0
  191.6630  177.3540  144.5840 O   0  0  0  0  0  0  0  0  0  0  0  0
  190.4000  176.7340  142.7510 O   0  0  0  0  0  0  0  0  0  0  0  0
  189.4790  177.7800  142.4620 C   0  0  0  0  0  2  0  0  0  0  0  0
  188.2880  177.2580  141.6700 C   0  0  0  0  0  2  0  0  0  0  0  0
  187.1080  178.0840  141.8970 N   0  0  0  0  0  2  0  0  0  0  0  0
  186.5250  175.8850  142.7690 C   0  0  0  0  0  1  0  0  0  0  0  0
  186.1950  177.3680  142.7790 C   0  0  1  0  0  3  0  0  0  0  0  0
  186.1310  176.8660  145.1360 O   0  0  0  0  0  1  0  0  0  0  0  0
  186.2010  177.9210  144.2170 C   0  0  2  0  0  3  0  0  0  0  0  0
  185.6600  180.2700  144.1240 O   0  0  0  0  0  1  0  0  0  0  0  0
  183.8370  178.7780  143.8500 C   0  0  0  0  0  1  0  0  0  0  0  0
  185.1710  179.0300  144.5430 C   0  0  1  0  0  0  0  0  0  0  0  0
  184.9480  179.1140  146.0540 C   0  0  0  0  0  2  0  0  0  0  0  0
  183.7210  178.5530  146.4260 O   0  0  0  0  0  1  0  0  0  0  0  0
  189.2340  175.3650  145.4980 C   0  0  0  0  0  2  0  0  0  0  0  0
  190.4880  175.1810  147.6080 C   0  0  0  0  0  2  0  0  0  0  0  0
  189.4670  175.7060  146.9360 C   0  0  0  0  0  3  0  0  0  0  0  0
  191.5880  172.9520  144.2400 C   0  0  0  0  0  2  0  0  0  0  0  0
  192.7020  173.6120  145.0350 C   0  0  0  0  0  2  0  0  0  0  0  0
  193.8440  174.0330  144.1120 C   0  0  1  0  0  3  0  0  0  0  0  0
  194.5430  175.2930  144.6490 C   0  0  2  0  0  3  0  0  0  0  0  0
  195.8580  175.3740  144.1780 O   0  0  0  0  0  1  0  0  0  0  0  0
  194.5750  175.3040  146.1730 C   0  0  0  0  0  2  0  0  0  0  0  0
  194.5070  177.4590  146.6360 C   0  0  0  0  0  1  0  0  0  0  0  0
  193.7290  176.3010  146.6600 O   0  0  0  0  0  0  0  0  0  0  0  0
  194.8450  172.8860  144.0210 C   0  0  0  0  0  2  0  0  0  0  0  0
  194.8320  172.0190  145.2680 C   0  0  1  0  0  3  0  0  0  0  0  0
  194.0800  170.8700  145.0080 O   0  0  0  0  0  1  0  0  0  0  0  0
  196.2700  171.7030  145.7110 C   0  0  0  0  0  3  0  0  0  0  0  0
  197.0030  172.8880  146.3240 C   0  0  0  0  0  2  0  0  0  0  0  0
  197.2560  172.5030  144.8810 C   0  0  0  0  0  2  0  0  0  0  0  0
  1  2  1  1  0  0  0
  1 41  1  0  0  0  0
  1 22  1  0  0  0  0
  3  2  1  0  0  0  0
  4  3  1  0  0  0  0
  5 13  2  0  0  0  0
  6 16  1  0  0  0  0
  6  8  1  1  0  0  0
  9  5  1  6  0  0  0
  9  6  1  0  0  0  0
 11 19  1  1  0  0  0
 11 12  1  0  0  0  0
 12  8  2  0  0  0  0
 13 11  1  0  0  0  0
 14 15  1  0  0  0  0
 14  9  1  0  0  0  0
 15 17  1  0  0  0  0
 16  7  1  1  0  0  0
 16  4  1  0  0  0  0
 17 10  1  6  0  0  0
 17 16  1  0  0  0  0
 18 19  2  0  0  0  0
 19 20  1  0  0  0  0
 20 21  1  0  0  0  0
 22 38  1  6  0  0  0
 23 24  2  0  0  0  0
 23 22  1  0  0  0  0
 25 23  1  0  0  0  0
 26 25  1  0  0  0  0
 27 28  1  0  0  0  0
 27 26  1  0  0  0  0
 28 30  1  0  0  0  0
 30 29  1  1  0  0  0
 30 32  1  0  0  0  0
 32 35  1  0  0  0  0
 32 31  1  1  0  0  0
 33 35  1  0  0  0  0
 35 34  1  6  0  0  0
 35 36  1  0  0  0  0
 36 37  1  0  0  0  0
 38 40  1  0  0  0  0
 40 39  2  0  0  0  0
 41 42  1  0  0  0  0
 43 49  1  1  0  0  0
 43 44  1  0  0  0  0
 43 42  1  0  0  0  0
 44 45  1  6  0  0  0
 44 46  1  0  0  0  0
 46 48  1  0  0  0  0
 47 48  1  0  0  0  0
 49 50  1  0  0  0  0
 50 51  1  6  0  0  0
 50 52  1  0  0  0  0
 52 53  1  0  0  0  0
 54 52  1  0  0  0  0
 54 53  1  0  0  0  0
M  END
>  <MODEL>
1

>  <REMARK>
 VINA RESULT:      -5.7      0.000      0.000
  Name = 
  26 active torsions:
  status: ('A' for Active; 'I' for Inactive)
    1  A    between atoms: C_2  and  C_6
    2  A    between atoms: C_2  and  O_21
    3  A    between atoms: C_6  and  C_23
    4  A    between atoms: C_6  and  C_45
    5  A    between atoms: C_7  and  O_37
    6  A    between atoms: C_7  and  C_45
    7  A    between atoms: C_8  and  C_29
    8  A    between atoms: C_8  and  O_43
    9  A    between atoms: C_14  and  C_28
   10  A    between atoms: C_14  and  C_40
   11  A    between atoms: C_15  and  O_37
   12  A    between atoms: C_15  and  C_47
   13  A    between atoms: C_16  and  C_32
   14  A    between atoms: C_19  and  C_29
   15  A    between atoms: C_19  and  C_41
   16  A    between atoms: C_19  and  C_50
   17  A    between atoms: O_21  and  C_35
   18  A    between atoms: C_22  and  C_40
   19  A    between atoms: C_23  and  C_52
   20  A    between atoms: C_25  and  C_30
   21  A    between atoms: C_26  and  C_41
   22  A    between atoms: C_26  and  C_45
   23  A    between atoms: C_28  and  N_38
   24  A    between atoms: C_32  and  C_50
   25  A    between atoms: C_34  and  C_35
   26  A    between atoms: C_34  and  N_38
                            x       y       z     vdW  Elec       q    Type
                         _______ _______ _______ _____ _____    ______ ____

>  <TORSDO>
F 26

$$$$
=
 OpenBabel11062419113D

 54 56  0  0  1  0  0  0  0  0999 V2000
  190.7120  172.4290  142.6830 C   0  0  1  0  0  3  0  0  0  0  0  0
  190.3220  173.4470  143.7440 C   0  0  0  0  0  2  0  0  0  0  0  0
  191.4700  174.0410  144.2640 O   0  0  0  0  0  0  0  0  0  0  0  0
  191.0770  175.3260  144.6400 C   0  0  0  0  0  2  0  0  0  0  0  0
  196.0630  176.2490  143.7470 C   0  0  0  0  0  3  0  0  0  0  0  0
  193.4960  175.7990  144.0380 C   0  0  1  0  0  3  0  0  0  0  0  0
  191.9580  177.5510  144.6720 O   0  0  0  0  0  1  0  0  0  0  0  0
  193.2410  176.0350  142.5710 C   0  0  0  0  0  3  0  0  0  0  0  0
  194.7900  176.4970  144.5370 C   0  0  1  0  0  3  0  0  0  0  0  0
  192.7960  174.7460  146.7600 F   0  0  0  0  0  0  0  0  0  0  0  0
  195.1700  174.6020  142.0670 C   0  0  2  0  0  3  0  0  0  0  0  0
  194.0160  175.4610  141.6480 C   0  0  0  0  0  3  0  0  0  0  0  0
  196.2450  175.4390  142.6880 C   0  0  0  0  0  3  0  0  0  0  0  0
  195.0250  176.1640  145.8830 O   0  0  0  0  0  0  0  0  0  0  0  0
  194.0160  176.7810  146.6430 C   0  0  0  0  0  2  0  0  0  0  0  0
  192.2940  176.2140  144.9180 C   0  0  1  0  0  0  0  0  0  0  0  0
  192.6790  176.0780  146.3990 C   0  0  1  0  0  3  0  0  0  0  0  0
  194.9230  173.4230  140.0180 O   0  0  0  0  0  0  0  0  0  0  0  0
  195.7100  173.7970  140.9300 C   0  0  0  0  0  0  0  0  0  0  0  0
  197.0900  173.4270  140.8830 N   0  0  0  0  0  2  0  0  0  0  0  0
  197.6210  172.7870  139.7580 N   0  0  0  0  0  1  0  0  0  0  0  0
  190.2010  172.8190  141.2880 C   0  0  1  0  0  3  0  0  0  0  0  0
  188.9120  173.5830  141.3210 C   0  0  0  0  0  0  0  0  0  0  0  0
  187.8320  173.0110  141.6410 O   0  0  0  0  0  0  0  0  0  0  0  0
  188.9270  174.9350  140.9770 O   0  0  0  0  0  0  0  0  0  0  0  0
  187.8530  175.8230  141.2660 C   0  0  0  0  0  2  0  0  0  0  0  0
  187.9540  176.3610  142.6860 C   0  0  0  0  0  2  0  0  0  0  0  0
  186.6310  176.6190  143.2420 N   0  0  0  0  0  2  0  0  0  0  0  0
  186.0990  178.7690  144.2560 C   0  0  0  0  0  1  0  0  0  0  0  0
  186.7760  177.4230  144.4500 C   0  0  1  0  0  3  0  0  0  0  0  0
  184.9740  177.2230  146.0380 O   0  0  0  0  0  1  0  0  0  0  0  0
  186.2360  176.7130  145.7060 C   0  0  2  0  0  3  0  0  0  0  0  0
  186.4160  176.5580  148.1070 O   0  0  0  0  0  1  0  0  0  0  0  0
  188.1240  175.4740  146.8700 C   0  0  0  0  0  1  0  0  0  0  0  0
  187.1730  176.6630  146.9380 C   0  0  1  0  0  0  0  0  0  0  0  0
  187.9860  177.9550  147.0330 C   0  0  0  0  0  2  0  0  0  0  0  0
  189.3530  177.7190  146.8460 O   0  0  0  0  0  1  0  0  0  0  0  0
  191.2630  173.5340  140.4540 C   0  0  0  0  0  2  0  0  0  0  0  0
  191.7780  171.5990  139.0230 C   0  0  0  0  0  2  0  0  0  0  0  0
  191.4500  172.8840  139.1190 C   0  0  0  0  0  3  0  0  0  0  0  0
  192.2110  172.1540  142.7130 C   0  0  0  0  0  2  0  0  0  0  0  0
  192.4600  170.6960  143.0600 C   0  0  0  0  0  2  0  0  0  0  0  0
  193.6670  170.5630  143.9880 C   0  0  1  0  0  3  0  0  0  0  0  0
  194.4740  169.2970  143.6550 C   0  0  2  0  0  3  0  0  0  0  0  0
  194.9320  168.6750  144.8210 O   0  0  0  0  0  1  0  0  0  0  0  0
  195.6760  169.6200  142.7750 C   0  0  0  0  0  2  0  0  0  0  0  0
  195.2080  169.8710  140.6350 C   0  0  0  0  0  1  0  0  0  0  0  0
  195.5910  168.9140  141.5740 O   0  0  0  0  0  0  0  0  0  0  0  0
  194.5480  171.7960  143.8210 C   0  0  0  0  0  2  0  0  0  0  0  0
  194.8220  172.4830  145.1480 C   0  0  1  0  0  3  0  0  0  0  0  0
  193.8140  172.1320  146.0510 O   0  0  0  0  0  1  0  0  0  0  0  0
  196.2280  172.1220  145.6540 C   0  0  0  0  0  3  0  0  0  0  0  0
  197.1150  173.3280  145.9300 C   0  0  0  0  0  2  0  0  0  0  0  0
  197.2710  172.5510  144.6390 C   0  0  0  0  0  2  0  0  0  0  0  0
  1 41  1  6  0  0  0
  1  2  1  0  0  0  0
  2  3  1  0  0  0  0
  3  4  1  0  0  0  0
  4 16  1  0  0  0  0
  6  8  1  6  0  0  0
  6  9  1  0  0  0  0
  6 16  1  0  0  0  0
  9  5  1  6  0  0  0
  9 14  1  0  0  0  0
 11 19  1  6  0  0  0
 11 13  1  0  0  0  0
 12 11  1  0  0  0  0
 12  8  2  0  0  0  0
 13  5  2  0  0  0  0
 14 15  1  0  0  0  0
 16  7  1  6  0  0  0
 16 17  1  0  0  0  0
 17 15  1  0  0  0  0
 17 10  1  6  0  0  0
 18 19  2  0  0  0  0
 20 19  1  0  0  0  0
 21 20  1  0  0  0  0
 22 38  1  1  0  0  0
 22 23  1  0  0  0  0
 22  1  1  0  0  0  0
 23 24  2  0  0  0  0
 25 26  1  0  0  0  0
 25 23  1  0  0  0  0
 26 27  1  0  0  0  0
 27 28  1  0  0  0  0
 28 30  1  0  0  0  0
 30 29  1  6  0  0  0
 30 32  1  0  0  0  0
 32 31  1  1  0  0  0
 32 35  1  0  0  0  0
 35 34  1  6  0  0  0
 35 36  1  0  0  0  0
 35 33  1  0  0  0  0
 37 36  1  0  0  0  0
 39 40  2  0  0  0  0
 40 38  1  0  0  0  0
 41 42  1  0  0  0  0
 43 42  1  6  0  0  0
 44 43  1  0  0  0  0
 44 45  1  1  0  0  0
 46 44  1  0  0  0  0
 47 48  1  0  0  0  0
 48 46  1  0  0  0  0
 49 43  1  0  0  0  0
 49 50  1  0  0  0  0
 50 52  1  0  0  0  0
 50 51  1  1  0  0  0
 52 53  1  0  0  0  0
 54 52  1  0  0  0  0
 54 53  1  0  0  0  0
M  END
>  <MODEL>
2

>  <REMARK>
 VINA RESULT:      -5.5      2.461      5.355
  Name = 
  26 active torsions:
  status: ('A' for Active; 'I' for Inactive)
    1  A    between atoms: C_2  and  C_6
    2  A    between atoms: C_2  and  O_21
    3  A    between atoms: C_6  and  C_23
    4  A    between atoms: C_6  and  C_45
    5  A    between atoms: C_7  and  O_37
    6  A    between atoms: C_7  and  C_45
    7  A    between atoms: C_8  and  C_29
    8  A    between atoms: C_8  and  O_43
    9  A    between atoms: C_14  and  C_28
   10  A    between atoms: C_14  and  C_40
   11  A    between atoms: C_15  and  O_37
   12  A    between atoms: C_15  and  C_47
   13  A    between atoms: C_16  and  C_32
   14  A    between atoms: C_19  and  C_29
   15  A    between atoms: C_19  and  C_41
   16  A    between atoms: C_19  and  C_50
   17  A    between atoms: O_21  and  C_35
   18  A    between atoms: C_22  and  C_40
   19  A    between atoms: C_23  and  C_52
   20  A    between atoms: C_25  and  C_30
   21  A    between atoms: C_26  and  C_41
   22  A    between atoms: C_26  and  C_45
   23  A    between atoms: C_28  and  N_38
   24  A    between atoms: C_32  and  C_50
   25  A    between atoms: C_34  and  C_35
   26  A    between atoms: C_34  and  N_38
                            x       y       z     vdW  Elec       q    Type
                         _______ _______ _______ _____ _____    ______ ____

>  <TORSDO>
F 26

$$$$
=
 OpenBabel11062419113D

 54 56  0  0  1  0  0  0  0  0999 V2000
  190.5850  176.4110  143.5300 C   0  0  1  0  0  3  0  0  0  0  0  0
  191.9460  176.8210  144.0710 C   0  0  0  0  0  2  0  0  0  0  0  0
  192.9400  176.0550  143.4640 O   0  0  0  0  0  0  0  0  0  0  0  0
  194.0330  176.1260  144.3280 C   0  0  0  0  0  2  0  0  0  0  0  0
  196.1510  172.7920  141.0260 C   0  0  0  0  0  3  0  0  0  0  0  0
  195.1440  174.6130  142.6210 C   0  0  1  0  0  3  0  0  0  0  0  0
  196.2180  175.2230  144.6980 O   0  0  0  0  0  1  0  0  0  0  0  0
  195.8450  175.7210  141.8750 C   0  0  0  0  0  3  0  0  0  0  0  0
  195.8460  173.2390  142.4450 C   0  0  1  0  0  3  0  0  0  0  0  0
  193.0610  173.5150  144.4820 F   0  0  0  0  0  0  0  0  0  0  0  0
  195.0900  174.6990  139.7730 C   0  0  2  0  0  3  0  0  0  0  0  0
  195.8050  175.7690  140.5420 C   0  0  0  0  0  3  0  0  0  0  0  0
  195.8320  173.4030  139.8700 C   0  0  0  0  0  3  0  0  0  0  0  0
  195.0980  172.2340  143.0820 O   0  0  0  0  0  0  0  0  0  0  0  0
  195.1920  172.4650  144.4660 C   0  0  0  0  0  2  0  0  0  0  0  0
  194.9740  174.9350  144.1240 C   0  0  1  0  0  0  0  0  0  0  0  0
  194.3840  173.7100  144.8400 C   0  0  1  0  0  3  0  0  0  0  0  0
  195.8740  175.2610  137.6010 O   0  0  0  0  0  0  0  0  0  0  0  0
  194.8720  175.0850  138.3470 C   0  0  0  0  0  0  0  0  0  0  0  0
  193.5530  175.2810  137.8330 N   0  0  0  0  0  2  0  0  0  0  0  0
  193.3430  175.5140  136.4690 N   0  0  0  0  0  1  0  0  0  0  0  0
  189.9560  175.2720  144.3450 C   0  0  1  0  0  3  0  0  0  0  0  0
  189.9210  173.9660  143.6100 C   0  0  0  0  0  0  0  0  0  0  0  0
  189.7120  172.8840  144.2280 O   0  0  0  0  0  0  0  0  0  0  0  0
  190.1400  173.9680  142.2320 O   0  0  0  0  0  0  0  0  0  0  0  0
  189.0840  173.9840  141.2770 C   0  0  0  0  0  2  0  0  0  0  0  0
  188.8240  172.5900  140.7250 C   0  0  0  0  0  2  0  0  0  0  0  0
  188.3140  172.6560  139.3600 N   0  0  0  0  0  2  0  0  0  0  0  0
  189.2990  172.6220  137.1320 C   0  0  0  0  0  1  0  0  0  0  0  0
  189.2220  171.9290  138.4820 C   0  0  1  0  0  3  0  0  0  0  0  0
  191.5340  172.6080  138.4480 O   0  0  0  0  0  1  0  0  0  0  0  0
  190.6270  171.7560  139.0900 C   0  0  2  0  0  3  0  0  0  0  0  0
  190.1590  169.3980  138.8870 O   0  0  0  0  0  1  0  0  0  0  0  0
  192.3290  170.0820  138.2210 C   0  0  0  0  0  1  0  0  0  0  0  0
  191.1730  170.3100  139.1880 C   0  0  1  0  0  0  0  0  0  0  0  0
  191.6420  170.0200  140.6140 C   0  0  0  0  0  2  0  0  0  0  0  0
  192.7400  170.8130  140.9680 O   0  0  0  0  0  1  0  0  0  0  0  0
  190.5830  175.1260  145.7310 C   0  0  0  0  0  2  0  0  0  0  0  0
  188.8970  174.6170  147.4490 C   0  0  0  0  0  2  0  0  0  0  0  0
  189.6320  175.5260  146.8140 C   0  0  0  0  0  3  0  0  0  0  0  0
  189.6670  177.6180  143.3850 C   0  0  0  0  0  2  0  0  0  0  0  0
  188.2840  177.1640  142.9500 C   0  0  0  0  0  2  0  0  0  0  0  0
  187.2020  177.9340  143.7070 C   0  0  1  0  0  3  0  0  0  0  0  0
  186.4230  178.8580  142.7560 C   0  0  2  0  0  3  0  0  0  0  0  0
  185.5880  179.7220  143.4720 O   0  0  0  0  0  1  0  0  0  0  0  0
  185.5680  178.0580  141.7800 C   0  0  0  0  0  2  0  0  0  0  0  0
  183.7350  178.2450  140.5680 C   0  0  0  0  0  1  0  0  0  0  0  0
  184.2420  178.4890  141.8450 O   0  0  0  0  0  0  0  0  0  0  0  0
  186.2490  176.9310  144.3480 C   0  0  0  0  0  2  0  0  0  0  0  0
  186.3360  176.9530  145.8650 C   0  0  1  0  0  3  0  0  0  0  0  0
  187.2020  177.9820  146.2490 O   0  0  0  0  0  1  0  0  0  0  0  0
  184.9330  177.0960  146.4770 C   0  0  0  0  0  3  0  0  0  0  0  0
  184.2120  178.3770  146.0790 C   0  0  0  0  0  2  0  0  0  0  0  0
  184.8990  178.2800  147.4260 C   0  0  0  0  0  2  0  0  0  0  0  0
  1 41  1  1  0  0  0
  1  2  1  0  0  0  0
  1 22  1  0  0  0  0
  3  2  1  0  0  0  0
  3  4  1  0  0  0  0
  6  8  1  1  0  0  0
  6 16  1  0  0  0  0
  9  5  1  6  0  0  0
  9  6  1  0  0  0  0
  9 14  1  0  0  0  0
 11 19  1  6  0  0  0
 11 13  1  0  0  0  0
 11 12  1  0  0  0  0
 12  8  2  0  0  0  0
 13  5  2  0  0  0  0
 14 15  1  0  0  0  0
 15 17  1  0  0  0  0
 16  4  1  0  0  0  0
 16  7  1  1  0  0  0
 16 17  1  0  0  0  0
 17 10  1  6  0  0  0
 18 19  2  0  0  0  0
 20 19  1  0  0  0  0
 21 20  1  0  0  0  0
 22 38  1  1  0  0  0
 23 24  2  0  0  0  0
 23 22  1  0  0  0  0
 25 23  1  0  0  0  0
 26 25  1  0  0  0  0
 27 26  1  0  0  0  0
 28 27  1  0  0  0  0
 30 29  1  6  0  0  0
 30 32  1  0  0  0  0
 30 28  1  0  0  0  0
 32 31  1  6  0  0  0
 32 35  1  0  0  0  0
 33 35  1  0  0  0  0
 35 34  1  6  0  0  0
 35 36  1  0  0  0  0
 36 37  1  0  0  0  0
 38 40  1  0  0  0  0
 40 39  2  0  0  0  0
 42 41  1  0  0  0  0
 43 42  1  6  0  0  0
 43 49  1  0  0  0  0
 44 45  1  1  0  0  0
 44 43  1  0  0  0  0
 46 48  1  0  0  0  0
 46 44  1  0  0  0  0
 47 48  1  0  0  0  0
 49 50  1  0  0  0  0
 50 51  1  6  0  0  0
 50 52  1  0  0  0  0
 52 54  1  0  0  0  0
 53 52  1  0  0  0  0
 53 54  1  0  0  0  0
M  END
>  <MODEL>
3

>  <REMARK>
 VINA RESULT:      -5.3      2.323      7.962
  Name = 
  26 active torsions:
  status: ('A' for Active; 'I' for Inactive)
    1  A    between atoms: C_2  and  C_6
    2  A    between atoms: C_2  and  O_21
    3  A    between atoms: C_6  and  C_23
    4  A    between atoms: C_6  and  C_45
    5  A    between atoms: C_7  and  O_37
    6  A    between atoms: C_7  and  C_45
    7  A    between atoms: C_8  and  C_29
    8  A    between atoms: C_8  and  O_43
    9  A    between atoms: C_14  and  C_28
   10  A    between atoms: C_14  and  C_40
   11  A    between atoms: C_15  and  O_37
   12  A    between atoms: C_15  and  C_47
   13  A    between atoms: C_16  and  C_32
   14  A    between atoms: C_19  and  C_29
   15  A    between atoms: C_19  and  C_41
   16  A    between atoms: C_19  and  C_50
   17  A    between atoms: O_21  and  C_35
   18  A    between atoms: C_22  and  C_40
   19  A    between atoms: C_23  and  C_52
   20  A    between atoms: C_25  and  C_30
   21  A    between atoms: C_26  and  C_41
   22  A    between atoms: C_26  and  C_45
   23  A    between atoms: C_28  and  N_38
   24  A    between atoms: C_32  and  C_50
   25  A    between atoms: C_34  and  C_35
   26  A    between atoms: C_34  and  N_38
                            x       y       z     vdW  Elec       q    Type
                         _______ _______ _______ _____ _____    ______ ____

>  <TORSDO>
F 26

$$$$
=
 OpenBabel11062419113D

 54 56  0  0  1  0  0  0  0  0999 V2000
  189.4600  176.6410  143.3050 C   0  0  1  0  0  3  0  0  0  0  0  0
  190.8490  177.2590  143.2710 C   0  0  0  0  0  2  0  0  0  0  0  0
  191.7850  176.3260  143.7120 O   0  0  0  0  0  0  0  0  0  0  0  0
  192.6770  177.0500  144.5040 C   0  0  0  0  0  2  0  0  0  0  0  0
  196.0940  173.7670  142.4900 C   0  0  0  0  0  3  0  0  0  0  0  0
  194.3830  175.5400  143.3860 C   0  0  1  0  0  3  0  0  0  0  0  0
  195.0060  177.1950  145.0340 O   0  0  0  0  0  1  0  0  0  0  0  0
  194.6920  176.4820  142.2500 C   0  0  0  0  0  3  0  0  0  0  0  0
  195.5430  174.5480  143.6700 C   0  0  1  0  0  3  0  0  0  0  0  0
  192.7010  174.5040  145.6450 F   0  0  0  0  0  0  0  0  0  0  0  0
  194.5150  174.5790  140.7070 C   0  0  2  0  0  3  0  0  0  0  0  0
  194.7380  176.0340  140.9930 C   0  0  0  0  0  3  0  0  0  0  0  0
  195.6640  173.7660  141.2150 C   0  0  0  0  0  3  0  0  0  0  0  0
  195.1610  173.6390  144.6720 O   0  0  0  0  0  0  0  0  0  0  0  0
  195.0620  174.3650  145.8720 C   0  0  0  0  0  2  0  0  0  0  0  0
  193.9960  176.2910  144.6820 C   0  0  1  0  0  0  0  0  0  0  0  0
  193.8350  175.2780  145.8260 C   0  0  1  0  0  3  0  0  0  0  0  0
  193.2660  173.6600  138.9050 O   0  0  0  0  0  0  0  0  0  0  0  0
  194.2810  174.3240  139.2540 C   0  0  0  0  0  0  0  0  0  0  0  0
  195.2010  174.7970  138.2680 N   0  0  0  0  0  2  0  0  0  0  0  0
  194.9150  174.6720  136.9040 N   0  0  0  0  0  1  0  0  0  0  0  0
  188.9880  176.1960  141.9130 C   0  0  1  0  0  3  0  0  0  0  0  0
  189.3970  174.7950  141.5690 C   0  0  0  0  0  0  0  0  0  0  0  0
  190.6180  174.4860  141.4720 O   0  0  0  0  0  0  0  0  0  0  0  0
  188.4010  173.8440  141.3450 O   0  0  0  0  0  0  0  0  0  0  0  0
  188.4520  172.9010  140.2790 C   0  0  0  0  0  2  0  0  0  0  0  0
  188.3920  173.5990  138.9280 C   0  0  0  0  0  2  0  0  0  0  0  0
  189.6640  173.4810  138.2230 N   0  0  0  0  0  2  0  0  0  0  0  0
  189.3820  172.4860  136.0170 C   0  0  0  0  0  1  0  0  0  0  0  0
  189.6770  172.2240  137.4840 C   0  0  1  0  0  3  0  0  0  0  0  0
  191.6270  171.3090  136.4030 O   0  0  0  0  0  1  0  0  0  0  0  0
  191.0000  171.4520  137.6470 C   0  0  2  0  0  3  0  0  0  0  0  0
  189.6970  169.4960  138.1920 O   0  0  0  0  0  1  0  0  0  0  0  0
  192.0310  169.1500  137.9570 C   0  0  0  0  0  1  0  0  0  0  0  0
  190.9340  170.1070  138.4110 C   0  0  1  0  0  0  0  0  0  0  0  0
  191.0650  170.3490  139.9150 C   0  0  0  0  0  2  0  0  0  0  0  0
  192.3660  170.0980  140.3670 O   0  0  0  0  0  1  0  0  0  0  0  0
  187.4910  176.4170  141.7020 C   0  0  0  0  0  2  0  0  0  0  0  0
  186.1670  177.7250  140.0910 C   0  0  0  0  0  2  0  0  0  0  0  0
  187.2210  177.6510  140.8990 C   0  0  0  0  0  3  0  0  0  0  0  0
  189.3790  175.5300  144.3440 C   0  0  0  0  0  2  0  0  0  0  0  0
  188.1010  175.6730  145.1540 C   0  0  0  0  0  2  0  0  0  0  0  0
  188.4170  176.0980  146.5870 C   0  0  1  0  0  3  0  0  0  0  0  0
  189.9300  176.0330  146.8550 C   0  0  2  0  0  3  0  0  0  0  0  0
  190.2470  174.9390  147.6670 O   0  0  0  0  0  1  0  0  0  0  0  0
  190.4280  177.3020  147.5370 C   0  0  0  0  0  2  0  0  0  0  0  0
  191.4250  177.9920  149.3790 C   0  0  0  0  0  1  0  0  0  0  0  0
  191.4770  176.9960  148.4050 O   0  0  0  0  0  0  0  0  0  0  0  0
  187.9160  177.5230  146.7950 C   0  0  0  0  0  2  0  0  0  0  0  0
  186.4000  177.6050  146.7510 C   0  0  1  0  0  3  0  0  0  0  0  0
  185.9110  177.5800  148.0610 O   0  0  0  0  0  1  0  0  0  0  0  0
  185.9560  178.8550  145.9740 C   0  0  0  0  0  3  0  0  0  0  0  0
  184.8630  178.5900  144.9480 C   0  0  0  0  0  2  0  0  0  0  0  0
  186.3070  178.7050  144.5050 C   0  0  0  0  0  2  0  0  0  0  0  0
  1  2  1  6  0  0  0
  1 41  1  0  0  0  0
  2  3  1  0  0  0  0
  3  4  1  0  0  0  0
  4 16  1  0  0  0  0
  6  8  1  6  0  0  0
  6  9  1  0  0  0  0
  6 16  1  0  0  0  0
  9  5  1  6  0  0  0
  9 14  1  0  0  0  0
 11 19  1  6  0  0  0
 11 12  1  0  0  0  0
 11 13  1  0  0  0  0
 12  8  2  0  0  0  0
 13  5  2  0  0  0  0
 14 15  1  0  0  0  0
 16  7  1  1  0  0  0
 16 17  1  0  0  0  0
 17 10  1  6  0  0  0
 17 15  1  0  0  0  0
 18 19  2  0  0  0  0
 20 19  1  0  0  0  0
 21 20  1  0  0  0  0
 22 38  1  1  0  0  0
 22  1  1  0  0  0  0
 23 22  1  0  0  0  0
 24 23  2  0  0  0  0
 25 23  1  0  0  0  0
 26 25  1  0  0  0  0
 27 26  1  0  0  0  0
 28 27  1  0  0  0  0
 30 29  1  6  0  0  0
 30 32  1  0  0  0  0
 30 28  1  0  0  0  0
 32 31  1  6  0  0  0
 32 35  1  0  0  0  0
 33 35  1  0  0  0  0
 35 34  1  6  0  0  0
 35 36  1  0  0  0  0
 36 37  1  0  0  0  0
 39 40  2  0  0  0  0
 40 38  1  0  0  0  0
 41 42  1  0  0  0  0
 43 42  1  6  0  0  0
 43 49  1  0  0  0  0
 43 44  1  0  0  0  0
 44 46  1  0  0  0  0
 44 45  1  1  0  0  0
 46 48  1  0  0  0  0
 48 47  1  0  0  0  0
 50 49  1  0  0  0  0
 50 51  1  1  0  0  0
 52 50  1  0  0  0  0
 53 52  1  0  0  0  0
 54 53  1  0  0  0  0
 54 52  1  0  0  0  0
M  END
>  <MODEL>
4

>  <REMARK>
 VINA RESULT:      -5.2      2.529      7.771
  Name = 
  26 active torsions:
  status: ('A' for Active; 'I' for Inactive)
    1  A    between atoms: C_2  and  C_6
    2  A    between atoms: C_2  and  O_21
    3  A    between atoms: C_6  and  C_23
    4  A    between atoms: C_6  and  C_45
    5  A    between atoms: C_7  and  O_37
    6  A    between atoms: C_7  and  C_45
    7  A    between atoms: C_8  and  C_29
    8  A    between atoms: C_8  and  O_43
    9  A    between atoms: C_14  and  C_28
   10  A    between atoms: C_14  and  C_40
   11  A    between atoms: C_15  and  O_37
   12  A    between atoms: C_15  and  C_47
   13  A    between atoms: C_16  and  C_32
   14  A    between atoms: C_19  and  C_29
   15  A    between atoms: C_19  and  C_41
   16  A    between atoms: C_19  and  C_50
   17  A    between atoms: O_21  and  C_35
   18  A    between atoms: C_22  and  C_40
   19  A    between atoms: C_23  and  C_52
   20  A    between atoms: C_25  and  C_30
   21  A    between atoms: C_26  and  C_41
   22  A    between atoms: C_26  and  C_45
   23  A    between atoms: C_28  and  N_38
   24  A    between atoms: C_32  and  C_50
   25  A    between atoms: C_34  and  C_35
   26  A    between atoms: C_34  and  N_38
                            x       y       z     vdW  Elec       q    Type
                         _______ _______ _______ _____ _____    ______ ____

>  <TORSDO>
F 26

$$$$
=
 OpenBabel11062419113D

 54 56  0  0  1  0  0  0  0  0999 V2000
  191.0550  172.8710  141.0410 C   0  0  1  0  0  3  0  0  0  0  0  0
  191.9480  174.0560  140.7070 C   0  0  0  0  0  2  0  0  0  0  0  0
  192.6670  174.4330  141.8400 O   0  0  0  0  0  0  0  0  0  0  0  0
  193.9230  173.8460  141.6860 C   0  0  0  0  0  2  0  0  0  0  0  0
  194.7190  176.2470  146.1710 C   0  0  0  0  0  3  0  0  0  0  0  0
  194.2460  174.8980  143.9730 C   0  0  1  0  0  3  0  0  0  0  0  0
  195.9330  173.5090  142.9410 O   0  0  0  0  0  1  0  0  0  0  0  0
  193.6910  173.7330  144.7520 C   0  0  0  0  0  3  0  0  0  0  0  0
  195.2140  175.7720  144.8160 C   0  0  1  0  0  3  0  0  0  0  0  0
  194.6420  176.5350  141.4890 F   0  0  0  0  0  0  0  0  0  0  0  0
  192.3790  175.3260  146.0830 C   0  0  2  0  0  3  0  0  0  0  0  0
  192.8050  173.9330  145.7300 C   0  0  0  0  0  3  0  0  0  0  0  0
  193.5080  176.0680  146.7280 C   0  0  0  0  0  3  0  0  0  0  0  0
  195.6230  176.8900  144.0700 O   0  0  0  0  0  0  0  0  0  0  0  0
  196.4440  176.4160  143.0320 C   0  0  0  0  0  2  0  0  0  0  0  0
  194.9360  174.4520  142.6630 C   0  0  1  0  0  0  0  0  0  0  0  0
  195.5960  175.6710  141.9980 C   0  0  1  0  0  3  0  0  0  0  0  0
  191.1870  176.0040  148.0250 O   0  0  0  0  0  0  0  0  0  0  0  0
  191.1650  175.3370  146.9530 C   0  0  0  0  0  0  0  0  0  0  0  0
  190.0030  174.5850  146.6010 N   0  0  0  0  0  2  0  0  0  0  0  0
  188.8230  174.6980  147.3460 N   0  0  0  0  0  1  0  0  0  0  0  0
  190.2740  173.0830  142.3460 C   0  0  1  0  0  3  0  0  0  0  0  0
  188.8060  173.2940  142.1310 C   0  0  0  0  0  0  0  0  0  0  0  0
  187.9880  172.3440  142.2920 O   0  0  0  0  0  0  0  0  0  0  0  0
  188.3620  174.5550  141.7330 O   0  0  0  0  0  0  0  0  0  0  0  0
  189.0180  175.7630  142.1050 C   0  0  0  0  0  2  0  0  0  0  0  0
  188.2060  176.9790  141.6810 C   0  0  0  0  0  2  0  0  0  0  0  0
  188.3060  178.0450  142.6710 N   0  0  0  0  0  2  0  0  0  0  0  0
  189.6740  177.6460  144.6480 C   0  0  0  0  0  1  0  0  0  0  0  0
  188.3130  177.4510  144.0030 C   0  0  1  0  0  3  0  0  0  0  0  0
  187.5380  177.8340  146.2530 O   0  0  0  0  0  1  0  0  0  0  0  0
  187.1930  178.0030  144.9060 C   0  0  2  0  0  3  0  0  0  0  0  0
  185.8000  176.2950  143.9250 O   0  0  0  0  0  1  0  0  0  0  0  0
  184.9680  177.2950  145.9070 C   0  0  0  0  0  1  0  0  0  0  0  0
  185.7550  177.5060  144.6190 C   0  0  1  0  0  0  0  0  0  0  0  0
  185.0170  178.5120  143.7350 C   0  0  0  0  0  2  0  0  0  0  0  0
  184.2490  177.8720  142.7550 O   0  0  0  0  0  1  0  0  0  0  0  0
  190.5440  171.9850  143.3760 C   0  0  0  0  0  2  0  0  0  0  0  0
  192.2680  170.3100  143.9010 C   0  0  0  0  0  2  0  0  0  0  0  0
  191.7970  171.2300  143.0640 C   0  0  0  0  0  3  0  0  0  0  0  0
  190.1580  172.5110  139.8630 C   0  0  0  0  0  2  0  0  0  0  0  0
  190.3570  173.5140  138.7390 C   0  0  0  0  0  2  0  0  0  0  0  0
  190.7730  172.8040  137.4510 C   0  0  1  0  0  3  0  0  0  0  0  0
  189.7110  172.9930  136.3560 C   0  0  2  0  0  3  0  0  0  0  0  0
  189.2330  171.7580  135.9050 O   0  0  0  0  0  1  0  0  0  0  0  0
  190.2720  173.7590  135.1640 C   0  0  0  0  0  2  0  0  0  0  0  0
  188.5960  175.1520  135.4990 C   0  0  0  0  0  1  0  0  0  0  0  0
  189.9740  175.1170  135.2860 O   0  0  0  0  0  0  0  0  0  0  0  0
  192.1050  173.3820  136.9850 C   0  0  0  0  0  2  0  0  0  0  0  0
  193.2420  172.3870  137.1400 C   0  0  1  0  0  3  0  0  0  0  0  0
  193.1060  171.3940  136.1650 O   0  0  0  0  0  1  0  0  0  0  0  0
  194.5970  173.1120  137.0670 C   0  0  0  0  0  3  0  0  0  0  0  0
  195.4180  173.0180  138.3460 C   0  0  0  0  0  2  0  0  0  0  0  0
  194.6190  174.2700  138.0470 C   0  0  0  0  0  2  0  0  0  0  0  0
  1 41  1  6  0  0  0
  1 22  1  0  0  0  0
  2  1  1  0  0  0  0
  2  3  1  0  0  0  0
  4  3  1  0  0  0  0
  4 16  1  0  0  0  0
  5 13  2  0  0  0  0
  6  8  1  1  0  0  0
  6  9  1  0  0  0  0
  8 12  2  0  0  0  0
  9  5  1  1  0  0  0
 11 13  1  0  0  0  0
 11 19  1  1  0  0  0
 12 11  1  0  0  0  0
 14  9  1  0  0  0  0
 15 14  1  0  0  0  0
 16  7  1  1  0  0  0
 16  6  1  0  0  0  0
 17 10  1  1  0  0  0
 17 16  1  0  0  0  0
 17 15  1  0  0  0  0
 19 18  2  0  0  0  0
 20 19  1  0  0  0  0
 20 21  1  0  0  0  0
 22 38  1  1  0  0  0
 23 24  2  0  0  0  0
 23 22  1  0  0  0  0
 25 26  1  0  0  0  0
 25 23  1  0  0  0  0
 27 26  1  0  0  0  0
 27 28  1  0  0  0  0
 28 30  1  0  0  0  0
 30 29  1  1  0  0  0
 30 32  1  0  0  0  0
 32 31  1  1  0  0  0
 33 35  1  0  0  0  0
 35 32  1  0  0  0  0
 35 34  1  1  0  0  0
 36 35  1  0  0  0  0
 37 36  1  0  0  0  0
 40 38  1  0  0  0  0
 40 39  2  0  0  0  0
 42 41  1  0  0  0  0
 43 49  1  6  0  0  0
 43 42  1  0  0  0  0
 44 45  1  6  0  0  0
 44 43  1  0  0  0  0
 46 48  1  0  0  0  0
 46 44  1  0  0  0  0
 48 47  1  0  0  0  0
 49 50  1  0  0  0  0
 50 51  1  6  0  0  0
 52 50  1  0  0  0  0
 52 54  1  0  0  0  0
 52 53  1  0  0  0  0
 54 53  1  0  0  0  0
M  END
>  <MODEL>
5

>  <REMARK>
 VINA RESULT:      -5.2      2.697      6.922
  Name = 
  26 active torsions:
  status: ('A' for Active; 'I' for Inactive)
    1  A    between atoms: C_2  and  C_6
    2  A    between atoms: C_2  and  O_21
    3  A    between atoms: C_6  and  C_23
    4  A    between atoms: C_6  and  C_45
    5  A    between atoms: C_7  and  O_37
    6  A    between atoms: C_7  and  C_45
    7  A    between atoms: C_8  and  C_29
    8  A    between atoms: C_8  and  O_43
    9  A    between atoms: C_14  and  C_28
   10  A    between atoms: C_14  and  C_40
   11  A    between atoms: C_15  and  O_37
   12  A    between atoms: C_15  and  C_47
   13  A    between atoms: C_16  and  C_32
   14  A    between atoms: C_19  and  C_29
   15  A    between atoms: C_19  and  C_41
   16  A    between atoms: C_19  and  C_50
   17  A    between atoms: O_21  and  C_35
   18  A    between atoms: C_22  and  C_40
   19  A    between atoms: C_23  and  C_52
   20  A    between atoms: C_25  and  C_30
   21  A    between atoms: C_26  and  C_41
   22  A    between atoms: C_26  and  C_45
   23  A    between atoms: C_28  and  N_38
   24  A    between atoms: C_32  and  C_50
   25  A    between atoms: C_34  and  C_35
   26  A    between atoms: C_34  and  N_38
                            x       y       z     vdW  Elec       q    Type
                         _______ _______ _______ _____ _____    ______ ____

>  <TORSDO>
F 26

$$$$
=
 OpenBabel11062419113D

 54 56  0  0  1  0  0  0  0  0999 V2000
  191.6650  173.0750  140.1760 C   0  0  1  0  0  3  0  0  0  0  0  0
  192.7720  174.1170  140.2060 C   0  0  0  0  0  2  0  0  0  0  0  0
  193.1710  174.3350  141.5240 O   0  0  0  0  0  0  0  0  0  0  0  0
  194.5380  174.0570  141.5410 C   0  0  0  0  0  2  0  0  0  0  0  0
  193.8510  175.8820  146.3070 C   0  0  0  0  0  3  0  0  0  0  0  0
  194.1200  174.8140  143.9260 C   0  0  1  0  0  3  0  0  0  0  0  0
  196.1190  173.6190  143.2840 O   0  0  0  0  0  1  0  0  0  0  0  0
  193.4400  173.5430  144.3690 C   0  0  0  0  0  3  0  0  0  0  0  0
  194.7450  175.5990  145.1120 C   0  0  1  0  0  3  0  0  0  0  0  0
  195.1080  176.7690  141.8740 F   0  0  0  0  0  0  0  0  0  0  0  0
  191.7010  174.9140  145.4290 C   0  0  2  0  0  3  0  0  0  0  0  0
  192.2990  173.5900  145.0590 C   0  0  0  0  0  3  0  0  0  0  0  0
  192.5450  175.5980  146.4580 C   0  0  0  0  0  3  0  0  0  0  0  0
  195.2780  176.8160  144.6520 O   0  0  0  0  0  0  0  0  0  0  0  0
  196.3930  176.5030  143.8550 C   0  0  0  0  0  2  0  0  0  0  0  0
  195.1860  174.5610  142.8350 C   0  0  1  0  0  0  0  0  0  0  0  0
  195.9290  175.8730  142.5390 C   0  0  1  0  0  3  0  0  0  0  0  0
  189.7300  173.6490  145.8390 O   0  0  0  0  0  0  0  0  0  0  0  0
  190.2890  174.7780  145.8990 C   0  0  0  0  0  0  0  0  0  0  0  0
  189.5660  175.9100  146.3850 N   0  0  0  0  0  2  0  0  0  0  0  0
  188.2920  175.7600  146.9460 N   0  0  0  0  0  1  0  0  0  0  0  0
  191.1380  172.7460  141.5800 C   0  0  1  0  0  3  0  0  0  0  0  0
  189.8450  173.4320  141.9030 C   0  0  0  0  0  0  0  0  0  0  0  0
  188.7490  172.8070  141.8320 O   0  0  0  0  0  0  0  0  0  0  0  0
  189.8740  174.7780  142.2700 O   0  0  0  0  0  0  0  0  0  0  0  0
  188.8100  175.6820  141.9960 C   0  0  0  0  0  2  0  0  0  0  0  0
  187.9370  175.8880  143.2260 C   0  0  0  0  0  2  0  0  0  0  0  0
  186.5810  176.2680  142.8450 N   0  0  0  0  0  2  0  0  0  0  0  0
  186.4750  178.6330  142.2680 C   0  0  0  0  0  1  0  0  0  0  0  0
  186.3010  177.6000  143.3680 C   0  0  1  0  0  3  0  0  0  0  0  0
  184.0750  178.5100  143.2080 O   0  0  0  0  0  1  0  0  0  0  0  0
  184.9010  177.7070  144.0040 C   0  0  2  0  0  3  0  0  0  0  0  0
  183.6470  178.8060  145.7470 O   0  0  0  0  0  1  0  0  0  0  0  0
  184.9120  176.9160  146.4180 C   0  0  0  0  0  1  0  0  0  0  0  0
  184.8410  178.1260  145.4930 C   0  0  1  0  0  0  0  0  0  0  0  0
  185.9900  179.0800  145.8190 C   0  0  0  0  0  2  0  0  0  0  0  0
  186.0420  179.3780  147.1860 O   0  0  0  0  0  1  0  0  0  0  0  0
  191.0620  171.2420  141.8410 C   0  0  0  0  0  2  0  0  0  0  0  0
  192.4790  169.4270  142.7110 C   0  0  0  0  0  2  0  0  0  0  0  0
  192.3140  170.7270  142.4780 C   0  0  0  0  0  3  0  0  0  0  0  0
  190.5610  173.4770  139.2050 C   0  0  0  0  0  2  0  0  0  0  0  0
  190.2180  172.3050  138.3010 C   0  0  0  0  0  2  0  0  0  0  0  0
  191.4900  171.6490  137.7660 C   0  0  1  0  0  3  0  0  0  0  0  0
  191.2900  170.1350  137.5890 C   0  0  2  0  0  3  0  0  0  0  0  0
  191.1130  169.8080  136.2400 O   0  0  0  0  0  1  0  0  0  0  0  0
  190.0770  169.6400  138.3680 C   0  0  0  0  0  2  0  0  0  0  0  0
  191.4750  168.2830  139.4020 C   0  0  0  0  0  1  0  0  0  0  0  0
  190.2540  168.3030  138.7270 O   0  0  0  0  0  0  0  0  0  0  0  0
  191.8390  172.2840  136.4240 C   0  0  0  0  0  2  0  0  0  0  0  0
  193.1850  172.9890  136.4620 C   0  0  1  0  0  3  0  0  0  0  0  0
  194.1420  172.1600  135.8690 O   0  0  0  0  0  1  0  0  0  0  0  0
  193.0840  174.3640  135.7820 C   0  0  0  0  0  3  0  0  0  0  0  0
  193.0580  175.5350  136.7550 C   0  0  0  0  0  2  0  0  0  0  0  0
  191.7680  175.0270  136.1450 C   0  0  0  0  0  2  0  0  0  0  0  0
  1 41  1  6  0  0  0
  1  2  1  0  0  0  0
  1 22  1  0  0  0  0
  2  3  1  0  0  0  0
  3  4  1  0  0  0  0
  4 16  1  0  0  0  0
  5 13  2  0  0  0  0
  6  8  1  1  0  0  0
  6  9  1  0  0  0  0
  8 12  2  0  0  0  0
  9  5  1  1  0  0  0
 11 19  1  1  0  0  0
 11 13  1  0  0  0  0
 12 11  1  0  0  0  0
 14  9  1  0  0  0  0
 15 14  1  0  0  0  0
 16  7  1  1  0  0  0
 16  6  1  0  0  0  0
 17 10  1  1  0  0  0
 17 16  1  0  0  0  0
 17 15  1  0  0  0  0
 18 19  2  0  0  0  0
 19 20  1  0  0  0  0
 20 21  1  0  0  0  0
 22 38  1  6  0  0  0
 22 23  1  0  0  0  0
 23 25  1  0  0  0  0
 24 23  2  0  0  0  0
 26 25  1  0  0  0  0
 26 27  1  0  0  0  0
 28 27  1  0  0  0  0
 28 30  1  0  0  0  0
 30 29  1  6  0  0  0
 30 32  1  0  0  0  0
 32 31  1  6  0  0  0
 32 35  1  0  0  0  0
 35 33  1  0  0  0  0
 35 36  1  0  0  0  0
 35 34  1  1  0  0  0
 36 37  1  0  0  0  0
 38 40  1  0  0  0  0
 40 39  2  0  0  0  0
 42 41  1  0  0  0  0
 43 49  1  6  0  0  0
 43 42  1  0  0  0  0
 44 45  1  6  0  0  0
 44 43  1  0  0  0  0
 44 46  1  0  0  0  0
 46 48  1  0  0  0  0
 48 47  1  0  0  0  0
 49 50  1  0  0  0  0
 50 51  1  6  0  0  0
 52 54  1  0  0  0  0
 52 50  1  0  0  0  0
 52 53  1  0  0  0  0
 54 53  1  0  0  0  0
M  END
>  <MODEL>
6

>  <REMARK>
 VINA RESULT:      -5.2      2.735      7.112
  Name = 
  26 active torsions:
  status: ('A' for Active; 'I' for Inactive)
    1  A    between atoms: C_2  and  C_6
    2  A    between atoms: C_2  and  O_21
    3  A    between atoms: C_6  and  C_23
    4  A    between atoms: C_6  and  C_45
    5  A    between atoms: C_7  and  O_37
    6  A    between atoms: C_7  and  C_45
    7  A    between atoms: C_8  and  C_29
    8  A    between atoms: C_8  and  O_43
    9  A    between atoms: C_14  and  C_28
   10  A    between atoms: C_14  and  C_40
   11  A    between atoms: C_15  and  O_37
   12  A    between atoms: C_15  and  C_47
   13  A    between atoms: C_16  and  C_32
   14  A    between atoms: C_19  and  C_29
   15  A    between atoms: C_19  and  C_41
   16  A    between atoms: C_19  and  C_50
   17  A    between atoms: O_21  and  C_35
   18  A    between atoms: C_22  and  C_40
   19  A    between atoms: C_23  and  C_52
   20  A    between atoms: C_25  and  C_30
   21  A    between atoms: C_26  and  C_41
   22  A    between atoms: C_26  and  C_45
   23  A    between atoms: C_28  and  N_38
   24  A    between atoms: C_32  and  C_50
   25  A    between atoms: C_34  and  C_35
   26  A    between atoms: C_34  and  N_38
                            x       y       z     vdW  Elec       q    Type
                         _______ _______ _______ _____ _____    ______ ____

>  <TORSDO>
F 26

$$$$
=
 OpenBabel11062419113D

 54 56  0  0  1  0  0  0  0  0999 V2000
  192.3100  172.6100  140.9450 C   0  0  1  0  0  3  0  0  0  0  0  0
  193.6000  172.3380  140.1850 C   0  0  0  0  0  2  0  0  0  0  0  0
  194.0760  173.5270  139.6360 O   0  0  0  0  0  0  0  0  0  0  0  0
  195.4600  173.3630  139.5580 C   0  0  0  0  0  2  0  0  0  0  0  0
  196.6520  174.9510  144.3090 C   0  0  0  0  0  3  0  0  0  0  0  0
  196.1230  173.9980  141.9240 C   0  0  1  0  0  3  0  0  0  0  0  0
  197.5190  174.4930  140.0150 O   0  0  0  0  0  1  0  0  0  0  0  0
  196.8800  172.7270  142.2130 C   0  0  0  0  0  3  0  0  0  0  0  0
  196.5910  175.1850  142.8100 C   0  0  1  0  0  3  0  0  0  0  0  0
  194.1450  175.6730  140.4090 F   0  0  0  0  0  0  0  0  0  0  0  0
  195.7340  172.6090  144.3810 C   0  0  2  0  0  3  0  0  0  0  0  0
  196.6860  172.0680  143.3570 C   0  0  0  0  0  3  0  0  0  0  0  0
  196.2860  173.8550  144.9990 C   0  0  0  0  0  3  0  0  0  0  0  0
  195.7880  176.3120  142.5640 O   0  0  0  0  0  0  0  0  0  0  0  0
  196.0830  176.7520  141.2610 C   0  0  0  0  0  2  0  0  0  0  0  0
  196.1860  174.3930  140.4300 C   0  0  1  0  0  0  0  0  0  0  0  0
  195.5160  175.7630  140.2390 C   0  0  1  0  0  3  0  0  0  0  0  0
  194.1980  171.4450  145.7730 O   0  0  0  0  0  0  0  0  0  0  0  0
  195.4020  171.5950  145.4270 C   0  0  0  0  0  0  0  0  0  0  0  0
  196.4280  170.8220  146.0520 N   0  0  0  0  0  2  0  0  0  0  0  0
  196.1070  169.7850  146.9350 N   0  0  0  0  0  1  0  0  0  0  0  0
  191.2470  171.5320  140.6890 C   0  0  1  0  0  3  0  0  0  0  0  0
  189.9010  171.8820  141.2490 C   0  0  0  0  0  0  0  0  0  0  0  0
  189.5480  171.4620  142.3870 O   0  0  0  0  0  0  0  0  0  0  0  0
  189.0410  172.6680  140.4810 O   0  0  0  0  0  0  0  0  0  0  0  0
  189.1080  174.0900  140.4490 C   0  0  0  0  0  2  0  0  0  0  0  0
  188.0850  174.7070  141.3930 C   0  0  0  0  0  2  0  0  0  0  0  0
  188.1210  176.1630  141.3210 N   0  0  0  0  0  2  0  0  0  0  0  0
  188.4980  177.1300  143.5260 C   0  0  0  0  0  1  0  0  0  0  0  0
  187.4590  176.7090  142.5000 C   0  0  1  0  0  3  0  0  0  0  0  0
  187.2610  179.0410  141.9250 O   0  0  0  0  0  1  0  0  0  0  0  0
  186.5150  177.8800  142.1640 C   0  0  2  0  0  3  0  0  0  0  0  0
  185.2300  177.0730  144.0390 O   0  0  0  0  0  1  0  0  0  0  0  0
  185.5720  179.4180  143.9530 C   0  0  0  0  0  1  0  0  0  0  0  0
  185.3500  178.1420  143.1480 C   0  0  1  0  0  0  0  0  0  0  0  0
  184.0290  178.2510  142.3840 C   0  0  0  0  0  2  0  0  0  0  0  0
  183.0130  178.7870  143.1830 O   0  0  0  0  0  1  0  0  0  0  0  0
  191.1610  171.1310  139.2160 C   0  0  0  0  0  2  0  0  0  0  0  0
  191.1320  168.8100  138.3970 C   0  0  0  0  0  2  0  0  0  0  0  0
  190.5120  169.7940  139.0430 C   0  0  0  0  0  3  0  0  0  0  0  0
  192.5840  172.8350  142.4270 C   0  0  0  0  0  2  0  0  0  0  0  0
  192.9110  174.2980  142.6740 C   0  0  0  0  0  2  0  0  0  0  0  0
  192.6800  174.6600  144.1410 C   0  0  1  0  0  3  0  0  0  0  0  0
  192.1940  176.1130  144.2740 C   0  0  2  0  0  3  0  0  0  0  0  0
  191.9650  176.6800  143.0160 O   0  0  0  0  0  1  0  0  0  0  0  0
  193.2120  176.9730  145.0150 C   0  0  0  0  0  2  0  0  0  0  0  0
  194.5410  177.1740  146.7630 C   0  0  0  0  0  1  0  0  0  0  0  0
  193.8000  176.2370  146.0440 O   0  0  0  0  0  0  0  0  0  0  0  0
  191.6350  173.7110  144.7190 C   0  0  0  0  0  2  0  0  0  0  0  0
  190.3150  174.4140  144.9860 C   0  0  1  0  0  3  0  0  0  0  0  0
  189.3600  173.9290  144.0870 O   0  0  0  0  0  1  0  0  0  0  0  0
  189.9000  174.2260  146.4540 C   0  0  0  0  0  3  0  0  0  0  0  0
  189.1310  175.4050  147.0350 C   0  0  0  0  0  2  0  0  0  0  0  0
  190.6090  175.2440  147.3280 C   0  0  0  0  0  2  0  0  0  0  0  0
  1  2  1  6  0  0  0
  1 41  1  0  0  0  0
  3  2  1  0  0  0  0
  4  3  1  0  0  0  0
  4 16  1  0  0  0  0
  5 13  2  0  0  0  0
  6  8  1  6  0  0  0
  6  9  1  0  0  0  0
  8 12  2  0  0  0  0
  9  5  1  1  0  0  0
 11 13  1  0  0  0  0
 11 19  1  1  0  0  0
 12 11  1  0  0  0  0
 14  9  1  0  0  0  0
 15 14  1  0  0  0  0
 16  7  1  6  0  0  0
 16  6  1  0  0  0  0
 17 10  1  1  0  0  0
 17 16  1  0  0  0  0
 17 15  1  0  0  0  0
 19 18  2  0  0  0  0
 19 20  1  0  0  0  0
 20 21  1  0  0  0  0
 22 38  1  6  0  0  0
 22  1  1  0  0  0  0
 22 23  1  0  0  0  0
 23 24  2  0  0  0  0
 25 23  1  0  0  0  0
 26 25  1  0  0  0  0
 26 27  1  0  0  0  0
 28 27  1  0  0  0  0
 28 30  1  0  0  0  0
 30 29  1  1  0  0  0
 32 31  1  1  0  0  0
 32 30  1  0  0  0  0
 32 35  1  0  0  0  0
 35 34  1  1  0  0  0
 35 33  1  0  0  0  0
 36 35  1  0  0  0  0
 36 37  1  0  0  0  0
 39 40  2  0  0  0  0
 40 38  1  0  0  0  0
 41 42  1  0  0  0  0
 43 42  1  6  0  0  0
 43 44  1  0  0  0  0
 43 49  1  0  0  0  0
 44 45  1  6  0  0  0
 44 46  1  0  0  0  0
 46 48  1  0  0  0  0
 48 47  1  0  0  0  0
 49 50  1  0  0  0  0
 50 51  1  6  0  0  0
 50 52  1  0  0  0  0
 52 53  1  0  0  0  0
 52 54  1  0  0  0  0
 53 54  1  0  0  0  0
M  END
>  <MODEL>
7

>  <REMARK>
 VINA RESULT:      -5.0      2.527      5.779
  Name = 
  26 active torsions:
  status: ('A' for Active; 'I' for Inactive)
    1  A    between atoms: C_2  and  C_6
    2  A    between atoms: C_2  and  O_21
    3  A    between atoms: C_6  and  C_23
    4  A    between atoms: C_6  and  C_45
    5  A    between atoms: C_7  and  O_37
    6  A    between atoms: C_7  and  C_45
    7  A    between atoms: C_8  and  C_29
    8  A    between atoms: C_8  and  O_43
    9  A    between atoms: C_14  and  C_28
   10  A    between atoms: C_14  and  C_40
   11  A    between atoms: C_15  and  O_37
   12  A    between atoms: C_15  and  C_47
   13  A    between atoms: C_16  and  C_32
   14  A    between atoms: C_19  and  C_29
   15  A    between atoms: C_19  and  C_41
   16  A    between atoms: C_19  and  C_50
   17  A    between atoms: O_21  and  C_35
   18  A    between atoms: C_22  and  C_40
   19  A    between atoms: C_23  and  C_52
   20  A    between atoms: C_25  and  C_30
   21  A    between atoms: C_26  and  C_41
   22  A    between atoms: C_26  and  C_45
   23  A    between atoms: C_28  and  N_38
   24  A    between atoms: C_32  and  C_50
   25  A    between atoms: C_34  and  C_35
   26  A    between atoms: C_34  and  N_38
                            x       y       z     vdW  Elec       q    Type
                         _______ _______ _______ _____ _____    ______ ____

>  <TORSDO>
F 26

$$$$
=
 OpenBabel11062419113D

 54 56  0  0  1  0  0  0  0  0999 V2000
  191.0680  175.4350  145.7790 C   0  0  1  0  0  3  0  0  0  0  0  0
  190.4080  176.2790  146.8580 C   0  0  0  0  0  2  0  0  0  0  0  0
  189.1950  176.7760  146.3850 O   0  0  0  0  0  0  0  0  0  0  0  0
  188.2380  176.3270  147.2950 C   0  0  0  0  0  2  0  0  0  0  0  0
  185.1810  179.2430  144.3520 C   0  0  0  0  0  3  0  0  0  0  0  0
  186.7130  177.6330  145.7430 C   0  0  1  0  0  3  0  0  0  0  0  0
  185.8680  176.3820  147.6290 O   0  0  0  0  0  1  0  0  0  0  0  0
  186.4470  176.4880  144.7980 C   0  0  0  0  0  3  0  0  0  0  0  0
  185.5900  178.7050  145.7110 C   0  0  1  0  0  3  0  0  0  0  0  0
  188.2610  179.0540  147.8860 F   0  0  0  0  0  0  0  0  0  0  0  0
  186.8520  178.0200  142.9230 C   0  0  2  0  0  3  0  0  0  0  0  0
  186.5270  176.6660  143.4780 C   0  0  0  0  0  3  0  0  0  0  0  0
  185.7120  178.9630  143.1480 C   0  0  0  0  0  3  0  0  0  0  0  0
  185.9390  179.7880  146.5370 O   0  0  0  0  0  0  0  0  0  0  0  0
  185.9000  179.3250  147.8640 C   0  0  0  0  0  2  0  0  0  0  0  0
  186.9520  177.1540  147.1940 C   0  0  1  0  0  0  0  0  0  0  0  0
  187.0750  178.3770  148.1160 C   0  0  1  0  0  3  0  0  0  0  0  0
  188.3820  178.2910  141.1240 O   0  0  0  0  0  0  0  0  0  0  0  0
  187.2170  177.9580  141.4750 C   0  0  0  0  0  0  0  0  0  0  0  0
  186.2600  177.5570  140.4940 N   0  0  0  0  0  2  0  0  0  0  0  0
  186.6370  177.3740  139.1580 N   0  0  0  0  0  1  0  0  0  0  0  0
  190.3020  175.4900  144.4490 C   0  0  1  0  0  3  0  0  0  0  0  0
  191.1950  175.6700  143.2580 C   0  0  0  0  0  0  0  0  0  0  0  0
  191.4420  176.8230  142.8070 O   0  0  0  0  0  0  0  0  0  0  0  0
  191.7350  174.5360  142.6490 O   0  0  0  0  0  0  0  0  0  0  0  0
  191.6630  174.2970  141.2480 C   0  0  0  0  0  2  0  0  0  0  0  0
  190.2540  173.8990  140.8320 C   0  0  0  0  0  2  0  0  0  0  0  0
  190.2830  172.9920  139.6910 N   0  0  0  0  0  2  0  0  0  0  0  0
  190.4270  171.0310  141.1290 C   0  0  0  0  0  1  0  0  0  0  0  0
  191.1020  171.8350  140.0300 C   0  0  1  0  0  3  0  0  0  0  0  0
  190.3520  170.0530  138.5910 O   0  0  0  0  0  1  0  0  0  0  0  0
  191.4090  170.9460  138.8090 C   0  0  2  0  0  3  0  0  0  0  0  0
  193.5790  170.7070  139.8350 O   0  0  0  0  0  1  0  0  0  0  0  0
  192.6180  168.7170  138.9760 C   0  0  0  0  0  1  0  0  0  0  0  0
  192.7780  170.2230  138.7980 C   0  0  1  0  0  0  0  0  0  0  0  0
  193.5100  170.5020  137.4850 C   0  0  0  0  0  2  0  0  0  0  0  0
  193.6510  171.8760  137.2550 O   0  0  0  0  0  1  0  0  0  0  0  0
  189.3500  174.3070  144.2700 C   0  0  0  0  0  2  0  0  0  0  0  0
  189.9570  171.9490  144.6300 C   0  0  0  0  0  2  0  0  0  0  0  0
  189.7300  173.1540  145.1450 C   0  0  0  0  0  3  0  0  0  0  0  0
  192.5430  175.7890  145.6310 C   0  0  0  0  0  2  0  0  0  0  0  0
  193.3920  174.5420  145.8130 C   0  0  0  0  0  2  0  0  0  0  0  0
  194.8120  174.7790  145.2990 C   0  0  1  0  0  3  0  0  0  0  0  0
  195.7530  173.6530  145.7580 C   0  0  2  0  0  3  0  0  0  0  0  0
  197.0560  174.1320  145.9320 O   0  0  0  0  0  1  0  0  0  0  0  0
  195.7890  172.5120  144.7480 C   0  0  0  0  0  2  0  0  0  0  0  0
  194.7960  170.6480  144.1120 C   0  0  0  0  0  1  0  0  0  0  0  0
  195.0780  171.4170  145.2410 O   0  0  0  0  0  0  0  0  0  0  0  0
  194.7750  174.8330  143.7750 C   0  0  0  0  0  2  0  0  0  0  0  0
  195.5550  176.0170  143.2290 C   0  0  1  0  0  3  0  0  0  0  0  0
  195.6750  176.9780  144.2380 O   0  0  0  0  0  1  0  0  0  0  0  0
  196.9150  175.5520  142.6840 C   0  0  0  0  0  3  0  0  0  0  0  0
  197.2050  176.0200  141.2640 C   0  0  0  0  0  2  0  0  0  0  0  0
  196.7100  174.6100  141.5130 C   0  0  0  0  0  2  0  0  0  0  0  0
  1 41  1  6  0  0  0
  1  2  1  0  0  0  0
  3  2  1  0  0  0  0
  3  4  1  0  0  0  0
  6  8  1  6  0  0  0
  6 16  1  0  0  0  0
  9  5  1  6  0  0  0
  9  6  1  0  0  0  0
  9 14  1  0  0  0  0
 11 19  1  6  0  0  0
 11 13  1  0  0  0  0
 11 12  1  0  0  0  0
 12  8  2  0  0  0  0
 13  5  2  0  0  0  0
 14 15  1  0  0  0  0
 15 17  1  0  0  0  0
 16  4  1  0  0  0  0
 16  7  1  1  0  0  0
 16 17  1  0  0  0  0
 17 10  1  6  0  0  0
 18 19  2  0  0  0  0
 20 19  1  0  0  0  0
 21 20  1  0  0  0  0
 22 38  1  6  0  0  0
 22  1  1  0  0  0  0
 23 22  1  0  0  0  0
 24 23  2  0  0  0  0
 25 23  1  0  0  0  0
 26 25  1  0  0  0  0
 27 26  1  0  0  0  0
 28 30  1  0  0  0  0
 28 27  1  0  0  0  0
 30 29  1  1  0  0  0
 32 31  1  1  0  0  0
 32 30  1  0  0  0  0
 35 32  1  0  0  0  0
 35 34  1  1  0  0  0
 35 33  1  0  0  0  0
 36 35  1  0  0  0  0
 37 36  1  0  0  0  0
 38 40  1  0  0  0  0
 39 40  2  0  0  0  0
 41 42  1  0  0  0  0
 43 49  1  6  0  0  0
 43 44  1  0  0  0  0
 43 42  1  0  0  0  0
 44 45  1  6  0  0  0
 46 48  1  0  0  0  0
 46 44  1  0  0  0  0
 47 48  1  0  0  0  0
 50 49  1  0  0  0  0
 50 51  1  1  0  0  0
 52 50  1  0  0  0  0
 53 54  1  0  0  0  0
 53 52  1  0  0  0  0
 54 52  1  0  0  0  0
M  END
>  <MODEL>
8

>  <REMARK>
 VINA RESULT:      -4.9      2.708      7.932
  Name = 
  26 active torsions:
  status: ('A' for Active; 'I' for Inactive)
    1  A    between atoms: C_2  and  C_6
    2  A    between atoms: C_2  and  O_21
    3  A    between atoms: C_6  and  C_23
    4  A    between atoms: C_6  and  C_45
    5  A    between atoms: C_7  and  O_37
    6  A    between atoms: C_7  and  C_45
    7  A    between atoms: C_8  and  C_29
    8  A    between atoms: C_8  and  O_43
    9  A    between atoms: C_14  and  C_28
   10  A    between atoms: C_14  and  C_40
   11  A    between atoms: C_15  and  O_37
   12  A    between atoms: C_15  and  C_47
   13  A    between atoms: C_16  and  C_32
   14  A    between atoms: C_19  and  C_29
   15  A    between atoms: C_19  and  C_41
   16  A    between atoms: C_19  and  C_50
   17  A    between atoms: O_21  and  C_35
   18  A    between atoms: C_22  and  C_40
   19  A    between atoms: C_23  and  C_52
   20  A    between atoms: C_25  and  C_30
   21  A    between atoms: C_26  and  C_41
   22  A    between atoms: C_26  and  C_45
   23  A    between atoms: C_28  and  N_38
   24  A    between atoms: C_32  and  C_50
   25  A    between atoms: C_34  and  C_35
   26  A    between atoms: C_34  and  N_38
                            x       y       z     vdW  Elec       q    Type
                         _______ _______ _______ _____ _____    ______ ____

>  <TORSDO>
F 26

$$$$
=
 OpenBabel11062419113D

 54 56  0  0  1  0  0  0  0  0999 V2000
  190.5430  172.0500  143.0380 C   0  0  1  0  0  3  0  0  0  0  0  0
  190.2820  172.9880  144.2070 C   0  0  0  0  0  2  0  0  0  0  0  0
  191.4010  173.7910  144.4190 O   0  0  0  0  0  0  0  0  0  0  0  0
  190.8900  175.0500  144.7360 C   0  0  0  0  0  2  0  0  0  0  0  0
  195.7980  176.4330  144.0150 C   0  0  0  0  0  3  0  0  0  0  0  0
  193.2740  175.7510  144.2190 C   0  0  1  0  0  3  0  0  0  0  0  0
  191.5720  177.3410  144.8620 O   0  0  0  0  0  1  0  0  0  0  0  0
  193.0360  176.0140  142.7530 C   0  0  0  0  0  3  0  0  0  0  0  0
  194.4880  176.5420  144.7760 C   0  0  1  0  0  3  0  0  0  0  0  0
  192.5990  174.5510  146.8850 F   0  0  0  0  0  0  0  0  0  0  0  0
  195.0970  174.7720  142.2600 C   0  0  2  0  0  3  0  0  0  0  0  0
  193.8820  175.5410  141.8350 C   0  0  0  0  0  3  0  0  0  0  0  0
  196.0770  175.6770  142.9370 C   0  0  0  0  0  3  0  0  0  0  0  0
  194.7170  176.1860  146.1170 O   0  0  0  0  0  0  0  0  0  0  0  0
  193.6390  176.6870  146.8670 C   0  0  0  0  0  2  0  0  0  0  0  0
  192.0170  176.0310  145.0760 C   0  0  1  0  0  0  0  0  0  0  0  0
  192.3750  175.8790  146.5630 C   0  0  1  0  0  3  0  0  0  0  0  0
  195.0390  173.7900  140.0950 O   0  0  0  0  0  0  0  0  0  0  0  0
  195.7340  174.0550  141.1140 C   0  0  0  0  0  0  0  0  0  0  0  0
  197.1020  173.6470  141.1740 N   0  0  0  0  0  2  0  0  0  0  0  0
  197.7340  173.0930  140.0540 N   0  0  0  0  0  1  0  0  0  0  0  0
  189.9520  172.5800  141.7240 C   0  0  1  0  0  3  0  0  0  0  0  0
  188.5850  173.1730  141.8860 C   0  0  0  0  0  0  0  0  0  0  0  0
  187.5720  172.4290  142.0210 O   0  0  0  0  0  0  0  0  0  0  0  0
  188.4510  174.5610  141.8710 O   0  0  0  0  0  0  0  0  0  0  0  0
  187.4660  175.2570  142.6270 C   0  0  0  0  0  2  0  0  0  0  0  0
  186.9770  176.4920  141.8840 C   0  0  0  0  0  2  0  0  0  0  0  0
  187.3270  177.7090  142.6070 N   0  0  0  0  0  2  0  0  0  0  0  0
  188.0470  177.9010  144.9270 C   0  0  0  0  0  1  0  0  0  0  0  0
  186.8940  177.5730  143.9930 C   0  0  1  0  0  3  0  0  0  0  0  0
  185.9260  179.7800  144.0150 O   0  0  0  0  0  1  0  0  0  0  0  0
  185.6620  178.4390  144.3180 C   0  0  2  0  0  3  0  0  0  0  0  0
  183.7050  178.6480  145.7130 O   0  0  0  0  0  1  0  0  0  0  0  0
  185.1550  176.8460  146.2330 C   0  0  0  0  0  1  0  0  0  0  0  0
  185.0530  178.2830  145.7330 C   0  0  1  0  0  0  0  0  0  0  0  0
  185.7640  179.2120  146.7180 C   0  0  0  0  0  2  0  0  0  0  0  0
  185.8290  178.6540  147.9990 O   0  0  0  0  0  1  0  0  0  0  0  0
  190.9000  173.5320  140.9970 C   0  0  0  0  0  2  0  0  0  0  0  0
  191.9190  173.7640  138.7680 C   0  0  0  0  0  2  0  0  0  0  0  0
  191.3190  172.9880  139.6670 C   0  0  0  0  0  3  0  0  0  0  0  0
  192.0250  171.7090  142.9300 C   0  0  0  0  0  2  0  0  0  0  0  0
  192.2320  170.2240  143.1770 C   0  0  0  0  0  2  0  0  0  0  0  0
  193.6530  169.8090  142.7990 C   0  0  1  0  0  3  0  0  0  0  0  0
  194.4850  169.5030  144.0560 C   0  0  2  0  0  3  0  0  0  0  0  0
  193.6670  169.4170  145.1870 O   0  0  0  0  0  1  0  0  0  0  0  0
  195.5370  170.5790  144.3010 C   0  0  0  0  0  2  0  0  0  0  0  0
  197.2840  170.2210  145.5990 C   0  0  0  0  0  1  0  0  0  0  0  0
  195.9320  170.5630  145.6390 O   0  0  0  0  0  0  0  0  0  0  0  0
  193.5790  168.5690  141.9140 C   0  0  0  0  0  2  0  0  0  0  0  0
  193.5940  168.9240  140.4370 C   0  0  1  0  0  3  0  0  0  0  0  0
  192.2850  168.8700  139.9500 O   0  0  0  0  0  1  0  0  0  0  0  0
  194.2520  170.2970  140.2260 C   0  0  0  0  0  3  0  0  0  0  0  0
  194.7200  170.5470  138.7990 C   0  0  0  0  0  2  0  0  0  0  0  0
  195.7140  170.1220  139.8600 C   0  0  0  0  0  2  0  0  0  0  0  0
  1 41  1  6  0  0  0
  1  2  1  0  0  0  0
  2  3  1  0  0  0  0
  3  4  1  0  0  0  0
  4 16  1  0  0  0  0
  6  8  1  6  0  0  0
  6  9  1  0  0  0  0
  6 16  1  0  0  0  0
  9  5  1  6  0  0  0
  9 14  1  0  0  0  0
 11 19  1  6  0  0  0
 11 13  1  0  0  0  0
 12 11  1  0  0  0  0
 12  8  2  0  0  0  0
 13  5  2  0  0  0  0
 14 15  1  0  0  0  0
 16  7  1  6  0  0  0
 16 17  1  0  0  0  0
 17 15  1  0  0  0  0
 17 10  1  6  0  0  0
 18 19  2  0  0  0  0
 19 20  1  0  0  0  0
 21 20  1  0  0  0  0
 22 38  1  1  0  0  0
 22 23  1  0  0  0  0
 22  1  1  0  0  0  0
 23 24  2  0  0  0  0
 25 23  1  0  0  0  0
 25 26  1  0  0  0  0
 27 28  1  0  0  0  0
 27 26  1  0  0  0  0
 28 30  1  0  0  0  0
 30 32  1  0  0  0  0
 30 29  1  1  0  0  0
 32 31  1  1  0  0  0
 32 35  1  0  0  0  0
 33 35  1  0  0  0  0
 35 34  1  1  0  0  0
 35 36  1  0  0  0  0
 36 37  1  0  0  0  0
 39 40  2  0  0  0  0
 40 38  1  0  0  0  0
 41 42  1  0  0  0  0
 43 49  1  6  0  0  0
 43 42  1  0  0  0  0
 43 44  1  0  0  0  0
 44 46  1  0  0  0  0
 44 45  1  1  0  0  0
 46 48  1  0  0  0  0
 47 48  1  0  0  0  0
 50 51  1  1  0  0  0
 50 49  1  0  0  0  0
 52 50  1  0  0  0  0
 53 54  1  0  0  0  0
 53 52  1  0  0  0  0
 54 52  1  0  0  0  0
M  END
>  <MODEL>
9

>  <REMARK>
 VINA RESULT:      -4.8      2.563      5.387
  Name = 
  26 active torsions:
  status: ('A' for Active; 'I' for Inactive)
    1  A    between atoms: C_2  and  C_6
    2  A    between atoms: C_2  and  O_21
    3  A    between atoms: C_6  and  C_23
    4  A    between atoms: C_6  and  C_45
    5  A    between atoms: C_7  and  O_37
    6  A    between atoms: C_7  and  C_45
    7  A    between atoms: C_8  and  C_29
    8  A    between atoms: C_8  and  O_43
    9  A    between atoms: C_14  and  C_28
   10  A    between atoms: C_14  and  C_40
   11  A    between atoms: C_15  and  O_37
   12  A    between atoms: C_15  and  C_47
   13  A    between atoms: C_16  and  C_32
   14  A    between atoms: C_19  and  C_29
   15  A    between atoms: C_19  and  C_41
   16  A    between atoms: C_19  and  C_50
   17  A    between atoms: O_21  and  C_35
   18  A    between atoms: C_22  and  C_40
   19  A    between atoms: C_23  and  C_52
   20  A    between atoms: C_25  and  C_30
   21  A    between atoms: C_26  and  C_41
   22  A    between atoms: C_26  and  C_45
   23  A    between atoms: C_28  and  N_38
   24  A    between atoms: C_32  and  C_50
   25  A    between atoms: C_34  and  C_35
   26  A    between atoms: C_34  and  N_38
                            x       y       z     vdW  Elec       q    Type
                         _______ _______ _______ _____ _____    ______ ____

>  <TORSDO>
F 26

$$$$
