=
 OpenBabel11062421283D

 31 34  0  0  1  0  0  0  0  0999 V2000
  188.2270  175.9050  146.9290 C   0  0  0  0  0  3  0  0  0  0  0  0
  186.3320  178.3280  144.7070 C   0  0  2  0  0  3  0  0  0  0  0  0
  185.6340  178.7030  147.1060 C   0  0  0  0  0  3  0  0  0  0  0  0
  188.7810  175.6700  145.7380 C   0  0  0  0  0  0  0  0  0  0  0  0
  187.2560  177.2930  145.2960 C   0  0  0  0  0  0  0  0  0  0  0  0
  186.4960  177.5990  147.5830 C   0  0  0  0  0  3  0  0  0  0  0  0
  188.1740  176.5420  144.7080 C   0  0  0  0  0  0  0  0  0  0  0  0
  185.5700  179.0470  145.8060 C   0  0  0  0  0  3  0  0  0  0  0  0
  187.2430  176.9510  146.6960 C   0  0  0  0  0  0  0  0  0  0  0  0
  185.3700  177.6930  143.8190 N   0  0  0  0  0  2  0  0  0  0  0  0
  185.4290  178.0540  141.1970 S   0  0  0  0  0  0  0  0  0  0  0  0
  184.8500  178.3820  142.6870 C   0  0  0  0  0  3  0  0  0  0  0  0
  188.4920  176.6230  143.3130 N   0  0  0  0  0  2  0  0  0  0  0  0
  190.3730  178.1850  143.7160 C   0  0  0  0  0  2  0  0  0  0  0  0
  188.9830  178.4200  141.7360 O   0  0  0  0  0  1  0  0  0  0  0  0
  189.4450  177.5450  142.7180 C   0  0  0  0  0  0  0  0  0  0  0  0
  190.9020  177.1590  142.7140 C   0  0  0  0  0  2  0  0  0  0  0  0
  190.0930  174.4720  145.5110 S   0  0  0  0  0  0  0  0  0  0  0  0
  191.3200  175.6160  145.8940 O   0  0  0  0  0  0  0  0  0  0  0  0
  194.9850  173.5680  145.7030 C   0  0  0  0  0  3  0  0  0  0  0  0
  194.9930  174.8840  145.9700 C   0  0  0  0  0  3  0  0  0  0  0  0
  192.5370  173.6980  145.1140 C   0  0  0  0  0  2  0  0  0  0  0  0
  192.4820  174.8630  146.1000 C   0  0  1  0  0  3  0  0  0  0  0  0
  193.9070  171.8450  144.4730 O   0  0  0  0  0  1  0  0  0  0  0  0
  193.7110  172.7950  145.4750 C   0  0  1  0  0  3  0  0  0  0  0  0
  193.7430  175.7400  145.9680 C   0  0  1  0  0  0  0  0  0  0  0  0
  193.7960  176.6120  147.0560 O   0  0  0  0  0  1  0  0  0  0  0  0
  193.6810  176.5500  144.6620 C   0  0  0  0  0  2  0  0  0  0  0  0
  194.6400  175.3480  142.6920 O   0  0  0  0  0  0  0  0  0  0  0  0
  195.9180  176.8390  143.8750 O   0  0  0  0  0  1  0  0  0  0  0  0
  194.8130  176.2530  143.7310 C   0  0  0  0  0  0  0  0  0  0  0  0
  2 10  1  6  0  0  0
  2  5  1  0  0  0  0
  2  8  1  0  0  0  0
  3  6  1  0  0  0  0
  4  1  2  0  0  0  0
  5  9  1  0  0  0  0
  7  5  2  0  0  0  0
  7  4  1  0  0  0  0
  8  3  2  0  0  0  0
  9  1  1  0  0  0  0
  9  6  2  0  0  0  0
 11 12  2  0  0  0  0
 12 10  1  0  0  0  0
 13  7  1  0  0  0  0
 15 16  1  0  0  0  0
 16 13  1  0  0  0  0
 16 14  1  0  0  0  0
 17 16  1  0  0  0  0
 17 14  1  0  0  0  0
 18  4  1  0  0  0  0
 18 19  1  0  0  0  0
 20 21  2  0  0  0  0
 22 25  1  0  0  0  0
 22 23  1  0  0  0  0
 23 19  1  6  0  0  0
 25 24  1  6  0  0  0
 25 20  1  0  0  0  0
 26 21  1  0  0  0  0
 26 23  1  0  0  0  0
 26 27  1  1  0  0  0
 28 26  1  0  0  0  0
 29 31  2  0  0  0  0
 31 30  1  0  0  0  0
 31 28  1  0  0  0  0
M  END
>  <MODEL>
1

>  <REMARK>
 VINA RESULT:      -7.1      0.000      0.000
  Name = 
  9 active torsions:
  status: ('A' for Active; 'I' for Inactive)
    1  A    between atoms: C_3  and  N_17
    2  A    between atoms: C_9  and  N_19
    3  A    between atoms: C_12  and  S_21
    4  A    between atoms: O_15  and  C_18
    5  A    between atoms: O_15  and  S_21
    6  A    between atoms: C_16  and  N_19
    7  A    between atoms: N_17  and  C_23
    8  A    between atoms: C_25  and  C_31
    9  A    between atoms: C_30  and  C_31
                            x       y       z     vdW  Elec       q    Type
                         _______ _______ _______ _____ _____    ______ ____

>  <TORSDO>
F 9

$$$$
=
 OpenBabel11062421283D

 31 34  0  0  1  0  0  0  0  0999 V2000
  191.2210  176.2540  146.9790 C   0  0  0  0  0  3  0  0  0  0  0  0
  193.4960  174.1440  144.7940 C   0  0  0  0  0  0  0  0  0  0  0  0
  194.9050  175.8050  146.0750 C   0  0  0  0  0  3  0  0  0  0  0  0
  190.3630  175.3660  146.4710 C   0  0  1  0  0  3  0  0  0  0  0  0
  192.3490  174.7570  145.5570 C   0  0  0  0  0  0  0  0  0  0  0  0
  193.7100  176.4140  146.7000 C   0  0  0  0  0  3  0  0  0  0  0  0
  191.0690  174.4230  145.5760 C   0  0  0  0  0  0  0  0  0  0  0  0
  194.8130  174.7650  145.2240 C   0  0  0  0  0  3  0  0  0  0  0  0
  192.5180  175.8940  146.4260 C   0  0  0  0  0  0  0  0  0  0  0  0
  193.3250  174.3680  143.3670 N   0  0  0  0  0  2  0  0  0  0  0  0
  194.4650  175.8700  141.5080 S   0  0  0  0  0  0  0  0  0  0  0  0
  193.4910  175.6630  142.8010 C   0  0  0  0  0  3  0  0  0  0  0  0
  190.5260  173.3130  144.8500 N   0  0  0  0  0  2  0  0  0  0  0  0
  190.4820  172.2970  142.5910 C   0  0  0  0  0  2  0  0  0  0  0  0
  189.8560  174.6250  142.9040 O   0  0  0  0  0  1  0  0  0  0  0  0
  189.9690  173.3740  143.5090 C   0  0  0  0  0  0  0  0  0  0  0  0
  189.0330  172.2750  143.0760 C   0  0  0  0  0  2  0  0  0  0  0  0
  188.6220  175.3700  146.8900 S   0  0  0  0  0  0  0  0  0  0  0  0
  188.1740  176.0680  145.3820 O   0  0  0  0  0  0  0  0  0  0  0  0
  184.8550  178.6190  145.7660 C   0  0  0  0  0  3  0  0  0  0  0  0
  185.1100  178.0640  144.5690 C   0  0  0  0  0  3  0  0  0  0  0  0
  187.0910  177.8230  146.6150 C   0  0  0  0  0  2  0  0  0  0  0  0
  186.9370  176.6850  145.6080 C   0  0  1  0  0  3  0  0  0  0  0  0
  185.8340  179.5230  147.7320 O   0  0  0  0  0  1  0  0  0  0  0  0
  185.7100  178.3560  146.9790 C   0  0  1  0  0  3  0  0  0  0  0  0
  186.3290  177.2100  144.2920 C   0  0  1  0  0  0  0  0  0  0  0  0
  185.9430  176.1180  143.5120 O   0  0  0  0  0  1  0  0  0  0  0  0
  187.3740  178.0420  143.5300 C   0  0  0  0  0  2  0  0  0  0  0  0
  186.2410  178.4630  141.3430 O   0  0  0  0  0  0  0  0  0  0  0  0
  188.1740  177.2330  141.4300 O   0  0  0  0  0  1  0  0  0  0  0  0
  187.2870  177.8800  142.0460 C   0  0  0  0  0  0  0  0  0  0  0  0
  2  8  2  0  0  0  0
  2  5  1  0  0  0  0
  3  6  2  0  0  0  0
  4 18  1  1  0  0  0
  4  1  1  0  0  0  0
  5  7  2  0  0  0  0
  5  9  1  0  0  0  0
  7  4  1  0  0  0  0
  8  3  1  0  0  0  0
  9  6  1  0  0  0  0
  9  1  2  0  0  0  0
 10  2  1  0  0  0  0
 11 12  2  0  0  0  0
 12 10  1  0  0  0  0
 13  7  1  0  0  0  0
 14 17  1  0  0  0  0
 14 16  1  0  0  0  0
 15 16  1  0  0  0  0
 16 13  1  0  0  0  0
 17 16  1  0  0  0  0
 19 18  1  0  0  0  0
 20 25  1  0  0  0  0
 21 20  2  0  0  0  0
 22 25  1  0  0  0  0
 23 19  1  6  0  0  0
 23 22  1  0  0  0  0
 25 24  1  6  0  0  0
 26 27  1  6  0  0  0
 26 21  1  0  0  0  0
 26 23  1  0  0  0  0
 28 26  1  0  0  0  0
 29 31  2  0  0  0  0
 30 31  1  0  0  0  0
 31 28  1  0  0  0  0
M  END
>  <MODEL>
2

>  <REMARK>
 VINA RESULT:      -7.0      3.185      7.460
  Name = 
  9 active torsions:
  status: ('A' for Active; 'I' for Inactive)
    1  A    between atoms: C_3  and  N_17
    2  A    between atoms: C_9  and  N_19
    3  A    between atoms: C_12  and  S_21
    4  A    between atoms: O_15  and  C_18
    5  A    between atoms: O_15  and  S_21
    6  A    between atoms: C_16  and  N_19
    7  A    between atoms: N_17  and  C_23
    8  A    between atoms: C_25  and  C_31
    9  A    between atoms: C_30  and  C_31
                            x       y       z     vdW  Elec       q    Type
                         _______ _______ _______ _____ _____    ______ ____

>  <TORSDO>
F 9

$$$$
=
 OpenBabel11062421283D

 31 34  0  0  1  0  0  0  0  0999 V2000
  190.0170  177.4740  144.6180 C   0  0  0  0  0  3  0  0  0  0  0  0
  192.3840  174.5090  144.6930 C   0  0  2  0  0  3  0  0  0  0  0  0
  192.2510  175.5060  147.0110 C   0  0  0  0  0  3  0  0  0  0  0  0
  189.8900  176.9930  143.3790 C   0  0  0  0  0  0  0  0  0  0  0  0
  191.3800  175.5760  144.3390 C   0  0  0  0  0  0  0  0  0  0  0  0
  191.3460  176.5830  146.5500 C   0  0  0  0  0  3  0  0  0  0  0  0
  190.7450  175.7990  143.2000 C   0  0  0  0  0  0  0  0  0  0  0  0
  192.7100  174.5550  146.1750 C   0  0  0  0  0  3  0  0  0  0  0  0
  190.9620  176.5860  145.2790 C   0  0  0  0  0  0  0  0  0  0  0  0
  193.6150  174.7110  143.9450 N   0  0  0  0  0  2  0  0  0  0  0  0
  196.0270  175.8020  143.9890 S   0  0  0  0  0  0  0  0  0  0  0  0
  194.4030  175.8820  144.1280 C   0  0  0  0  0  3  0  0  0  0  0  0
  190.8890  174.9760  142.0370 N   0  0  0  0  0  2  0  0  0  0  0  0
  190.0670  172.6440  142.2080 C   0  0  0  0  0  2  0  0  0  0  0  0
  189.6450  173.9530  140.2030 O   0  0  0  0  0  1  0  0  0  0  0  0
  189.9180  174.0000  141.5690 C   0  0  0  0  0  0  0  0  0  0  0  0
  188.8620  173.5260  142.5340 C   0  0  0  0  0  2  0  0  0  0  0  0
  188.7920  177.7330  142.1730 S   0  0  0  0  0  0  0  0  0  0  0  0
  187.8440  178.5050  143.3840 O   0  0  0  0  0  0  0  0  0  0  0  0
  183.9940  178.2220  141.7220 C   0  0  0  0  0  3  0  0  0  0  0  0
  184.1210  178.2440  143.0590 C   0  0  0  0  0  3  0  0  0  0  0  0
  186.4870  177.9360  141.4850 C   0  0  0  0  0  2  0  0  0  0  0  0
  186.5820  178.6940  142.8070 C   0  0  1  0  0  3  0  0  0  0  0  0
  184.9740  177.4710  139.6920 O   0  0  0  0  0  1  0  0  0  0  0  0
  185.1790  178.3020  140.7940 C   0  0  1  0  0  3  0  0  0  0  0  0
  185.4610  178.2460  143.7660 C   0  0  1  0  0  0  0  0  0  0  0  0
  185.4010  179.1430  144.8340 O   0  0  0  0  0  1  0  0  0  0  0  0
  185.7610  176.8340  144.2960 C   0  0  0  0  0  2  0  0  0  0  0  0
  187.0910  176.7680  146.4110 O   0  0  0  0  0  0  0  0  0  0  0  0
  184.7990  176.7460  146.4820 O   0  0  0  0  0  1  0  0  0  0  0  0
  185.8500  176.7720  145.7880 C   0  0  0  0  0  0  0  0  0  0  0  0
  1  9  1  0  0  0  0
  2 10  1  6  0  0  0
  2  8  1  0  0  0  0
  4  1  2  0  0  0  0
  5  2  1  0  0  0  0
  5  9  1  0  0  0  0
  6  3  1  0  0  0  0
  7  4  1  0  0  0  0
  7  5  2  0  0  0  0
  8  3  2  0  0  0  0
  9  6  2  0  0  0  0
 10 12  1  0  0  0  0
 11 12  2  0  0  0  0
 13  7  1  0  0  0  0
 14 17  1  0  0  0  0
 15 16  1  0  0  0  0
 16 13  1  0  0  0  0
 16 14  1  0  0  0  0
 16 17  1  0  0  0  0
 18  4  1  0  0  0  0
 18 19  1  0  0  0  0
 20 21  2  0  0  0  0
 21 26  1  0  0  0  0
 22 23  1  0  0  0  0
 23 19  1  1  0  0  0
 23 26  1  0  0  0  0
 25 24  1  6  0  0  0
 25 22  1  0  0  0  0
 25 20  1  0  0  0  0
 26 28  1  0  0  0  0
 26 27  1  1  0  0  0
 28 31  1  0  0  0  0
 31 29  2  0  0  0  0
 31 30  1  0  0  0  0
M  END
>  <MODEL>
3

>  <REMARK>
 VINA RESULT:      -6.9      3.388      7.857
  Name = 
  9 active torsions:
  status: ('A' for Active; 'I' for Inactive)
    1  A    between atoms: C_3  and  N_17
    2  A    between atoms: C_9  and  N_19
    3  A    between atoms: C_12  and  S_21
    4  A    between atoms: O_15  and  C_18
    5  A    between atoms: O_15  and  S_21
    6  A    between atoms: C_16  and  N_19
    7  A    between atoms: N_17  and  C_23
    8  A    between atoms: C_25  and  C_31
    9  A    between atoms: C_30  and  C_31
                            x       y       z     vdW  Elec       q    Type
                         _______ _______ _______ _____ _____    ______ ____

>  <TORSDO>
F 9

$$$$
=
 OpenBabel11062421283D

 31 34  0  0  1  0  0  0  0  0999 V2000
  188.5910  175.8100  146.4940 C   0  0  0  0  0  3  0  0  0  0  0  0
  186.6560  178.2150  144.2880 C   0  0  2  0  0  3  0  0  0  0  0  0
  185.9370  178.5500  146.6860 C   0  0  0  0  0  3  0  0  0  0  0  0
  189.1570  175.6010  145.3040 C   0  0  0  0  0  0  0  0  0  0  0  0
  187.5990  177.1940  144.8710 C   0  0  0  0  0  0  0  0  0  0  0  0
  186.8200  177.4590  147.1570 C   0  0  0  0  0  3  0  0  0  0  0  0
  188.5360  176.4700  144.2800 C   0  0  0  0  0  0  0  0  0  0  0  0
  185.8730  178.9060  145.3900 C   0  0  0  0  0  3  0  0  0  0  0  0
  187.5870  176.8380  146.2670 C   0  0  0  0  0  0  0  0  0  0  0  0
  185.7130  177.5700  143.3880 N   0  0  0  0  0  2  0  0  0  0  0  0
  183.9210  178.1700  141.5330 S   0  0  0  0  0  0  0  0  0  0  0  0
  184.4650  178.1780  143.0710 C   0  0  0  0  0  3  0  0  0  0  0  0
  188.8600  176.5730  142.8880 N   0  0  0  0  0  2  0  0  0  0  0  0
  189.1620  174.6110  141.4050 C   0  0  0  0  0  2  0  0  0  0  0  0
  187.6680  176.4180  140.7640 O   0  0  0  0  0  1  0  0  0  0  0  0
  188.2870  175.7630  141.8260 C   0  0  0  0  0  0  0  0  0  0  0  0
  187.8560  174.3560  142.1570 C   0  0  0  0  0  2  0  0  0  0  0  0
  190.4950  174.4330  145.0710 S   0  0  0  0  0  0  0  0  0  0  0  0
  191.6520  175.4880  145.7870 O   0  0  0  0  0  0  0  0  0  0  0  0
  195.2010  173.2490  145.5430 C   0  0  0  0  0  3  0  0  0  0  0  0
  195.2850  174.5860  145.6440 C   0  0  0  0  0  3  0  0  0  0  0  0
  192.7170  173.4310  145.1490 C   0  0  0  0  0  2  0  0  0  0  0  0
  192.7970  174.7060  145.9850 C   0  0  1  0  0  3  0  0  0  0  0  0
  193.9490  171.4480  144.6300 O   0  0  0  0  0  1  0  0  0  0  0  0
  193.8820  172.5190  145.5200 C   0  0  1  0  0  3  0  0  0  0  0  0
  194.0750  175.4970  145.6410 C   0  0  1  0  0  0  0  0  0  0  0  0
  194.2600  176.4890  146.6050 O   0  0  0  0  0  1  0  0  0  0  0  0
  193.9290  176.1470  144.2550 C   0  0  0  0  0  2  0  0  0  0  0  0
  196.2360  177.0230  143.8640 O   0  0  0  0  0  1  0  0  0  0  0  0
  195.3610  175.4090  142.4910 O   0  0  0  0  0  0  0  0  0  0  0  0
  195.2080  176.1730  143.4800 C   0  0  0  0  0  0  0  0  0  0  0  0
  2 10  1  6  0  0  0
  2  5  1  0  0  0  0
  2  8  1  0  0  0  0
  3  6  1  0  0  0  0
  4  1  2  0  0  0  0
  5  9  1  0  0  0  0
  7  5  2  0  0  0  0
  7  4  1  0  0  0  0
  8  3  2  0  0  0  0
  9  1  1  0  0  0  0
  9  6  2  0  0  0  0
 11 12  2  0  0  0  0
 12 10  1  0  0  0  0
 13  7  1  0  0  0  0
 14 16  1  0  0  0  0
 14 17  1  0  0  0  0
 15 16  1  0  0  0  0
 16 17  1  0  0  0  0
 16 13  1  0  0  0  0
 18  4  1  0  0  0  0
 18 19  1  0  0  0  0
 20 21  2  0  0  0  0
 22 25  1  0  0  0  0
 22 23  1  0  0  0  0
 23 19  1  6  0  0  0
 25 24  1  6  0  0  0
 25 20  1  0  0  0  0
 26 21  1  0  0  0  0
 26 23  1  0  0  0  0
 26 27  1  1  0  0  0
 28 26  1  0  0  0  0
 30 31  2  0  0  0  0
 31 29  1  0  0  0  0
 31 28  1  0  0  0  0
M  END
>  <MODEL>
4

>  <REMARK>
 VINA RESULT:      -6.9      1.184      1.492
  Name = 
  9 active torsions:
  status: ('A' for Active; 'I' for Inactive)
    1  A    between atoms: C_3  and  N_17
    2  A    between atoms: C_9  and  N_19
    3  A    between atoms: C_12  and  S_21
    4  A    between atoms: O_15  and  C_18
    5  A    between atoms: O_15  and  S_21
    6  A    between atoms: C_16  and  N_19
    7  A    between atoms: N_17  and  C_23
    8  A    between atoms: C_25  and  C_31
    9  A    between atoms: C_30  and  C_31
                            x       y       z     vdW  Elec       q    Type
                         _______ _______ _______ _____ _____    ______ ____

>  <TORSDO>
F 9

$$$$
=
 OpenBabel11062421283D

 31 34  0  0  1  0  0  0  0  0999 V2000
  189.3310  177.9430  142.3420 C   0  0  0  0  0  3  0  0  0  0  0  0
  186.2030  177.6880  144.4760 C   0  0  0  0  0  0  0  0  0  0  0  0
  185.5250  177.8410  142.0470 C   0  0  0  0  0  3  0  0  0  0  0  0
  189.8470  177.7520  143.5590 C   0  0  1  0  0  3  0  0  0  0  0  0
  187.6080  177.7270  143.9300 C   0  0  0  0  0  0  0  0  0  0  0  0
  186.9320  177.9770  141.6090 C   0  0  0  0  0  3  0  0  0  0  0  0
  188.7660  177.6150  144.5600 C   0  0  0  0  0  0  0  0  0  0  0  0
  185.1930  177.6930  143.3430 C   0  0  0  0  0  3  0  0  0  0  0  0
  187.8890  177.9250  142.5300 C   0  0  0  0  0  0  0  0  0  0  0  0
  185.9590  178.8500  145.3160 N   0  0  0  0  0  2  0  0  0  0  0  0
  185.9030  178.0390  147.8350 S   0  0  0  0  0  0  0  0  0  0  0  0
  185.2220  178.7390  146.5280 C   0  0  0  0  0  3  0  0  0  0  0  0
  188.8850  177.3800  145.9680 N   0  0  0  0  0  2  0  0  0  0  0  0
  188.6270  175.2730  147.2460 C   0  0  0  0  0  2  0  0  0  0  0  0
  190.7260  176.4980  147.3050 O   0  0  0  0  0  1  0  0  0  0  0  0
  189.5610  176.2490  146.5810 C   0  0  0  0  0  0  0  0  0  0  0  0
  189.3690  174.8860  145.9670 C   0  0  0  0  0  2  0  0  0  0  0  0
  191.6120  177.6570  143.8460 S   0  0  0  0  0  0  0  0  0  0  0  0
  191.8790  176.7200  142.4270 O   0  0  0  0  0  0  0  0  0  0  0  0
  193.0570  173.0520  144.1050 C   0  0  0  0  0  3  0  0  0  0  0  0
  192.3960  173.0450  142.9360 C   0  0  0  0  0  3  0  0  0  0  0  0
  192.5400  175.5020  144.3890 C   0  0  0  0  0  2  0  0  0  0  0  0
  192.5220  175.5560  142.8630 C   0  0  1  0  0  3  0  0  0  0  0  0
  193.2630  174.1320  146.2100 O   0  0  0  0  0  1  0  0  0  0  0  0
  193.3990  174.3250  144.8360 C   0  0  1  0  0  3  0  0  0  0  0  0
  191.8410  174.2970  142.2890 C   0  0  1  0  0  0  0  0  0  0  0  0
  192.0900  174.2400  140.9170 O   0  0  0  0  0  1  0  0  0  0  0  0
  190.3240  174.3680  142.5330 C   0  0  0  0  0  2  0  0  0  0  0  0
  189.4560  172.5500  141.0550 O   0  0  0  0  0  1  0  0  0  0  0  0
  188.8750  174.7330  140.6690 O   0  0  0  0  0  0  0  0  0  0  0  0
  189.5170  173.9020  141.3630 C   0  0  0  0  0  0  0  0  0  0  0  0
  1  9  2  0  0  0  0
  1  4  1  0  0  0  0
  2 10  1  0  0  0  0
  3  8  1  0  0  0  0
  4 18  1  6  0  0  0
  4  7  1  0  0  0  0
  5  2  1  0  0  0  0
  5  7  2  0  0  0  0
  6  3  2  0  0  0  0
  6  9  1  0  0  0  0
  7 13  1  0  0  0  0
  8  2  2  0  0  0  0
  9  5  1  0  0  0  0
 10 12  1  0  0  0  0
 12 11  2  0  0  0  0
 13 16  1  0  0  0  0
 16 14  1  0  0  0  0
 16 15  1  0  0  0  0
 17 16  1  0  0  0  0
 17 14  1  0  0  0  0
 19 18  1  0  0  0  0
 20 25  1  0  0  0  0
 21 20  2  0  0  0  0
 22 25  1  0  0  0  0
 23 19  1  1  0  0  0
 23 22  1  0  0  0  0
 25 24  1  1  0  0  0
 26 27  1  6  0  0  0
 26 28  1  0  0  0  0
 26 23  1  0  0  0  0
 26 21  1  0  0  0  0
 29 31  1  0  0  0  0
 30 31  2  0  0  0  0
 31 28  1  0  0  0  0
M  END
>  <MODEL>
5

>  <REMARK>
 VINA RESULT:      -6.8      2.574      4.418
  Name = 
  9 active torsions:
  status: ('A' for Active; 'I' for Inactive)
    1  A    between atoms: C_3  and  N_17
    2  A    between atoms: C_9  and  N_19
    3  A    between atoms: C_12  and  S_21
    4  A    between atoms: O_15  and  C_18
    5  A    between atoms: O_15  and  S_21
    6  A    between atoms: C_16  and  N_19
    7  A    between atoms: N_17  and  C_23
    8  A    between atoms: C_25  and  C_31
    9  A    between atoms: C_30  and  C_31
                            x       y       z     vdW  Elec       q    Type
                         _______ _______ _______ _____ _____    ______ ____

>  <TORSDO>
F 9

$$$$
=
 OpenBabel11062421283D

 31 34  0  0  1  0  0  0  0  0999 V2000
  192.4350  176.9710  143.5210 C   0  0  0  0  0  3  0  0  0  0  0  0
  193.2850  173.5910  145.0220 C   0  0  0  0  0  0  0  0  0  0  0  0
  195.3010  174.4580  143.7700 C   0  0  0  0  0  3  0  0  0  0  0  0
  191.3380  176.7070  144.2340 C   0  0  1  0  0  3  0  0  0  0  0  0
  192.6560  174.8980  144.6120 C   0  0  0  0  0  0  0  0  0  0  0  0
  194.5700  175.6670  143.3280 C   0  0  0  0  0  3  0  0  0  0  0  0
  191.4730  175.4040  144.9230 C   0  0  0  0  0  0  0  0  0  0  0  0
  194.7270  173.5250  144.5510 C   0  0  0  0  0  3  0  0  0  0  0  0
  193.3190  175.8370  143.7420 C   0  0  0  0  0  0  0  0  0  0  0  0
  192.5560  172.4780  144.4330 N   0  0  0  0  0  2  0  0  0  0  0  0
  190.7950  172.2770  142.4670 S   0  0  0  0  0  0  0  0  0  0  0  0
  192.3200  172.4140  143.0310 C   0  0  0  0  0  3  0  0  0  0  0  0
  190.5390  174.7620  145.7980 N   0  0  0  0  0  2  0  0  0  0  0  0
  191.4340  175.1330  148.0790 C   0  0  0  0  0  2  0  0  0  0  0  0
  189.0660  174.6980  147.7430 O   0  0  0  0  0  1  0  0  0  0  0  0
  190.2410  175.1710  147.1600 C   0  0  0  0  0  0  0  0  0  0  0  0
  190.8220  176.4690  147.6590 C   0  0  0  0  0  2  0  0  0  0  0  0
  189.9530  177.8400  144.3150 S   0  0  0  0  0  0  0  0  0  0  0  0
  188.8760  176.7090  143.5910 O   0  0  0  0  0  0  0  0  0  0  0  0
  185.5130  177.2740  146.0480 C   0  0  0  0  0  3  0  0  0  0  0  0
  185.3270  177.0720  144.7330 C   0  0  0  0  0  3  0  0  0  0  0  0
  187.9890  177.5500  145.6590 C   0  0  0  0  0  2  0  0  0  0  0  0
  187.7860  176.6200  144.4650 C   0  0  1  0  0  3  0  0  0  0  0  0
  186.9260  178.2740  147.6750 O   0  0  0  0  0  1  0  0  0  0  0  0
  186.8820  177.3000  146.6780 C   0  0  1  0  0  3  0  0  0  0  0  0
  186.4660  176.9530  143.7420 C   0  0  1  0  0  0  0  0  0  0  0  0
  186.1740  175.9230  142.8470 O   0  0  0  0  0  1  0  0  0  0  0  0
  186.6130  178.2770  142.9720 C   0  0  0  0  0  2  0  0  0  0  0  0
  187.4800  177.7400  140.6910 O   0  0  0  0  0  0  0  0  0  0  0  0
  185.2830  178.3230  140.9870 O   0  0  0  0  0  1  0  0  0  0  0  0
  186.4170  178.1250  141.4970 C   0  0  0  0  0  0  0  0  0  0  0  0
  1  9  2  0  0  0  0
  1  4  1  0  0  0  0
  3  8  1  0  0  0  0
  4 18  1  1  0  0  0
  4  7  1  0  0  0  0
  5  7  2  0  0  0  0
  5  2  1  0  0  0  0
  6  9  1  0  0  0  0
  6  3  2  0  0  0  0
  7 13  1  0  0  0  0
  8  2  2  0  0  0  0
  9  5  1  0  0  0  0
 10  2  1  0  0  0  0
 11 12  2  0  0  0  0
 12 10  1  0  0  0  0
 13 16  1  0  0  0  0
 16 17  1  0  0  0  0
 16 15  1  0  0  0  0
 16 14  1  0  0  0  0
 17 14  1  0  0  0  0
 19 18  1  0  0  0  0
 20 25  1  0  0  0  0
 21 20  2  0  0  0  0
 22 25  1  0  0  0  0
 23 19  1  6  0  0  0
 23 22  1  0  0  0  0
 25 24  1  1  0  0  0
 26 27  1  6  0  0  0
 26 23  1  0  0  0  0
 26 21  1  0  0  0  0
 28 26  1  0  0  0  0
 29 31  2  0  0  0  0
 30 31  1  0  0  0  0
 31 28  1  0  0  0  0
M  END
>  <MODEL>
6

>  <REMARK>
 VINA RESULT:      -6.7      3.177      7.675
  Name = 
  9 active torsions:
  status: ('A' for Active; 'I' for Inactive)
    1  A    between atoms: C_3  and  N_17
    2  A    between atoms: C_9  and  N_19
    3  A    between atoms: C_12  and  S_21
    4  A    between atoms: O_15  and  C_18
    5  A    between atoms: O_15  and  S_21
    6  A    between atoms: C_16  and  N_19
    7  A    between atoms: N_17  and  C_23
    8  A    between atoms: C_25  and  C_31
    9  A    between atoms: C_30  and  C_31
                            x       y       z     vdW  Elec       q    Type
                         _______ _______ _______ _____ _____    ______ ____

>  <TORSDO>
F 9

$$$$
=
 OpenBabel11062421283D

 31 34  0  0  1  0  0  0  0  0999 V2000
  188.2290  175.6260  141.4030 C   0  0  0  0  0  3  0  0  0  0  0  0
  185.4760  178.0280  142.4280 C   0  0  0  0  0  0  0  0  0  0  0  0
  185.5710  177.9240  139.9060 C   0  0  0  0  0  3  0  0  0  0  0  0
  188.2250  175.4830  142.7300 C   0  0  1  0  0  3  0  0  0  0  0  0
  186.5820  177.0060  142.3620 C   0  0  0  0  0  0  0  0  0  0  0  0
  186.7260  176.9980  139.9360 C   0  0  0  0  0  3  0  0  0  0  0  0
  187.1890  176.3490  143.3370 C   0  0  0  0  0  0  0  0  0  0  0  0
  184.9920  178.3780  141.0330 C   0  0  0  0  0  3  0  0  0  0  0  0
  187.1790  176.5920  141.1170 C   0  0  0  0  0  0  0  0  0  0  0  0
  185.9550  179.2430  143.0690 N   0  0  0  0  0  0  0  0  0  0  0  0
  184.0590  178.9610  144.8960 S   0  0  0  0  0  1  0  0  0  0  0  0
  185.3220  179.7560  144.2360 C   0  0  0  0  0  3  0  0  0  0  0  0
  186.8420  176.4810  144.7200 N   0  0  0  0  0  2  0  0  0  0  0  0
  186.9300  177.5300  146.9640 C   0  0  0  0  0  2  0  0  0  0  0  0
  188.7080  177.9220  145.3530 O   0  0  0  0  0  1  0  0  0  0  0  0
  187.6880  177.0580  145.7510 C   0  0  0  0  0  0  0  0  0  0  0  0
  187.8440  176.3070  147.0490 C   0  0  0  0  0  2  0  0  0  0  0  0
  189.3300  174.3550  143.5750 S   0  0  0  0  0  0  0  0  0  0  0  0
  190.7340  175.1080  142.9230 O   0  0  0  0  0  0  0  0  0  0  0  0
  192.8920  176.4230  146.2810 C   0  0  0  0  0  3  0  0  0  0  0  0
  193.4990  176.4200  145.0830 C   0  0  0  0  0  3  0  0  0  0  0  0
  190.9660  175.1160  145.3140 C   0  0  0  0  0  2  0  0  0  0  0  0
  191.3210  175.7940  143.9930 C   0  0  1  0  0  3  0  0  0  0  0  0
  191.3360  175.2870  147.6700 O   0  0  0  0  0  1  0  0  0  0  0  0
  191.4630  175.9800  146.4670 C   0  0  1  0  0  3  0  0  0  0  0  0
  192.8510  175.8770  143.8250 C   0  0  1  0  0  0  0  0  0  0  0  0
  193.1390  176.7400  142.7660 O   0  0  0  0  0  1  0  0  0  0  0  0
  193.4200  174.4810  143.5200 C   0  0  0  0  0  2  0  0  0  0  0  0
  194.4010  174.2700  141.2320 O   0  0  0  0  0  0  0  0  0  0  0  0
  195.7370  174.7810  143.0230 O   0  0  0  0  0  1  0  0  0  0  0  0
  194.5880  174.5130  142.5860 C   0  0  0  0  0  0  0  0  0  0  0  0
  1  4  1  0  0  0  0
  2 10  1  0  0  0  0
  3  6  2  0  0  0  0
  3  8  1  0  0  0  0
  4  7  1  0  0  0  0
  4 18  1  6  0  0  0
  5  2  1  0  0  0  0
  5  7  2  0  0  0  0
  6  9  1  0  0  0  0
  7 13  1  0  0  0  0
  8  2  2  0  0  0  0
  9  1  2  0  0  0  0
  9  5  1  0  0  0  0
 10 12  2  0  0  0  0
 12 11  1  0  0  0  0
 13 16  1  0  0  0  0
 14 17  1  0  0  0  0
 15 16  1  0  0  0  0
 16 14  1  0  0  0  0
 16 17  1  0  0  0  0
 19 18  1  0  0  0  0
 20 25  1  0  0  0  0
 21 20  2  0  0  0  0
 22 25  1  0  0  0  0
 23 19  1  6  0  0  0
 23 22  1  0  0  0  0
 25 24  1  1  0  0  0
 26 27  1  6  0  0  0
 26 23  1  0  0  0  0
 26 21  1  0  0  0  0
 28 26  1  0  0  0  0
 29 31  2  0  0  0  0
 31 30  1  0  0  0  0
 31 28  1  0  0  0  0
M  END
>  <MODEL>
7

>  <REMARK>
 VINA RESULT:      -6.7      2.133      3.858
  Name = 
  9 active torsions:
  status: ('A' for Active; 'I' for Inactive)
    1  A    between atoms: C_3  and  N_17
    2  A    between atoms: C_9  and  N_19
    3  A    between atoms: C_12  and  S_21
    4  A    between atoms: O_15  and  C_18
    5  A    between atoms: O_15  and  S_21
    6  A    between atoms: C_16  and  N_19
    7  A    between atoms: N_17  and  C_23
    8  A    between atoms: C_25  and  C_31
    9  A    between atoms: C_30  and  C_31
                            x       y       z     vdW  Elec       q    Type
                         _______ _______ _______ _____ _____    ______ ____

>  <TORSDO>
F 9

$$$$
=
 OpenBabel11062421283D

 31 34  0  0  1  0  0  0  0  0999 V2000
  192.5880  177.0370  144.9440 C   0  0  0  0  0  3  0  0  0  0  0  0
  194.5900  174.0270  143.7880 C   0  0  2  0  0  3  0  0  0  0  0  0
  195.3350  174.6570  146.1190 C   0  0  0  0  0  3  0  0  0  0  0  0
  192.0080  176.7580  143.7740 C   0  0  0  0  0  0  0  0  0  0  0  0
  193.6160  175.1660  143.9540 C   0  0  0  0  0  0  0  0  0  0  0  0
  194.4180  175.8190  146.1530 C   0  0  0  0  0  3  0  0  0  0  0  0
  192.6520  175.5810  143.1490 C   0  0  0  0  0  0  0  0  0  0  0  0
  195.4030  173.8340  145.0560 C   0  0  0  0  0  3  0  0  0  0  0  0
  193.6250  176.0300  145.1080 C   0  0  0  0  0  0  0  0  0  0  0  0
  195.5050  174.3060  142.6920 N   0  0  0  0  0  2  0  0  0  0  0  0
  196.8210  176.5980  142.8540 S   0  0  0  0  0  0  0  0  0  0  0  0
  196.7440  174.9690  142.9200 C   0  0  0  0  0  3  0  0  0  0  0  0
  192.3230  174.9440  141.9080 N   0  0  0  0  0  2  0  0  0  0  0  0
  191.0250  173.0930  142.9220 C   0  0  0  0  0  2  0  0  0  0  0  0
  191.2270  173.2740  140.5060 O   0  0  0  0  0  1  0  0  0  0  0  0
  191.2680  173.9630  141.7170 C   0  0  0  0  0  0  0  0  0  0  0  0
  189.9880  174.1320  142.4960 C   0  0  0  0  0  2  0  0  0  0  0  0
  190.6290  177.7080  143.1380 S   0  0  0  0  0  0  0  0  0  0  0  0
  190.0340  178.0580  144.7140 O   0  0  0  0  0  0  0  0  0  0  0  0
  186.0480  176.7900  144.2990 C   0  0  0  0  0  3  0  0  0  0  0  0
  186.6630  176.6140  145.4800 C   0  0  0  0  0  3  0  0  0  0  0  0
  188.2500  177.4120  143.2410 C   0  0  0  0  0  2  0  0  0  0  0  0
  188.6440  177.9080  144.6300 C   0  0  1  0  0  3  0  0  0  0  0  0
  186.3400  176.7920  141.9420 O   0  0  0  0  0  1  0  0  0  0  0  0
  186.7300  177.4310  143.1180 C   0  0  1  0  0  3  0  0  0  0  0  0
  188.1230  176.9430  145.7140 C   0  0  1  0  0  0  0  0  0  0  0  0
  188.2480  177.5600  146.9590 O   0  0  0  0  0  1  0  0  0  0  0  0
  188.9480  175.6460  145.6970 C   0  0  0  0  0  2  0  0  0  0  0  0
  190.6470  175.5840  147.5290 O   0  0  0  0  0  0  0  0  0  0  0  0
  188.6250  174.5350  147.7880 O   0  0  0  0  0  1  0  0  0  0  0  0
  189.3940  175.2140  147.0590 C   0  0  0  0  0  0  0  0  0  0  0  0
  1  9  1  0  0  0  0
  2 10  1  6  0  0  0
  2  5  1  0  0  0  0
  2  8  1  0  0  0  0
  3  6  1  0  0  0  0
  4  1  2  0  0  0  0
  5  9  1  0  0  0  0
  7  4  1  0  0  0  0
  7  5  2  0  0  0  0
  8  3  2  0  0  0  0
  9  6  2  0  0  0  0
 10 12  1  0  0  0  0
 11 12  2  0  0  0  0
 13  7  1  0  0  0  0
 15 16  1  0  0  0  0
 16 13  1  0  0  0  0
 16 17  1  0  0  0  0
 16 14  1  0  0  0  0
 17 14  1  0  0  0  0
 18  4  1  0  0  0  0
 18 19  1  0  0  0  0
 20 21  2  0  0  0  0
 21 26  1  0  0  0  0
 22 23  1  0  0  0  0
 23 19  1  6  0  0  0
 23 26  1  0  0  0  0
 25 24  1  6  0  0  0
 25 22  1  0  0  0  0
 25 20  1  0  0  0  0
 26 27  1  1  0  0  0
 28 26  1  0  0  0  0
 28 31  1  0  0  0  0
 31 29  2  0  0  0  0
 31 30  1  0  0  0  0
M  END
>  <MODEL>
8

>  <REMARK>
 VINA RESULT:      -6.6      3.066      7.438
  Name = 
  9 active torsions:
  status: ('A' for Active; 'I' for Inactive)
    1  A    between atoms: C_3  and  N_17
    2  A    between atoms: C_9  and  N_19
    3  A    between atoms: C_12  and  S_21
    4  A    between atoms: O_15  and  C_18
    5  A    between atoms: O_15  and  S_21
    6  A    between atoms: C_16  and  N_19
    7  A    between atoms: N_17  and  C_23
    8  A    between atoms: C_25  and  C_31
    9  A    between atoms: C_30  and  C_31
                            x       y       z     vdW  Elec       q    Type
                         _______ _______ _______ _____ _____    ______ ____

>  <TORSDO>
F 9

$$$$
=
 OpenBabel11062421283D

 31 34  0  0  1  0  0  0  0  0999 V2000
  190.5170  177.8330  142.8760 C   0  0  0  0  0  3  0  0  0  0  0  0
  186.9570  177.5910  144.1670 C   0  0  0  0  0  0  0  0  0  0  0  0
  186.8990  177.8060  141.6510 C   0  0  0  0  0  3  0  0  0  0  0  0
  190.7150  177.6080  144.1760 C   0  0  1  0  0  3  0  0  0  0  0  0
  188.4530  177.6160  143.9850 C   0  0  0  0  0  0  0  0  0  0  0  0
  188.3730  177.9260  141.5760 C   0  0  0  0  0  3  0  0  0  0  0  0
  189.4190  177.4700  144.8770 C   0  0  0  0  0  0  0  0  0  0  0  0
  186.2570  177.6370  142.8210 C   0  0  0  0  0  3  0  0  0  0  0  0
  189.0720  177.8370  142.7020 C   0  0  0  0  0  0  0  0  0  0  0  0
  186.5280  178.7400  144.9500 N   0  0  0  0  0  2  0  0  0  0  0  0
  184.1290  178.5730  146.0570 S   0  0  0  0  0  0  0  0  0  0  0  0
  185.7590  178.5750  146.1360 C   0  0  0  0  0  3  0  0  0  0  0  0
  189.1840  177.2040  146.2650 N   0  0  0  0  0  2  0  0  0  0  0  0
  189.4750  174.7550  146.0190 C   0  0  0  0  0  2  0  0  0  0  0  0
  187.6720  175.6480  147.3830 O   0  0  0  0  0  1  0  0  0  0  0  0
  188.9330  175.8940  146.8430 C   0  0  0  0  0  0  0  0  0  0  0  0
  190.1080  175.1070  147.3640 C   0  0  0  0  0  2  0  0  0  0  0  0
  192.3540  177.4750  144.8870 S   0  0  0  0  0  0  0  0  0  0  0  0
  192.8380  176.2710  143.7570 O   0  0  0  0  0  0  0  0  0  0  0  0
  193.7550  172.4760  145.3140 C   0  0  0  0  0  3  0  0  0  0  0  0
  194.6880  173.4410  145.3710 C   0  0  0  0  0  3  0  0  0  0  0  0
  192.3480  173.9190  143.8010 C   0  0  0  0  0  2  0  0  0  0  0  0
  193.0080  175.1010  144.5070 C   0  0  1  0  0  3  0  0  0  0  0  0
  191.9820  171.5670  144.0220 O   0  0  0  0  0  1  0  0  0  0  0  0
  192.3890  172.7030  144.7190 C   0  0  1  0  0  3  0  0  0  0  0  0
  194.5020  174.8130  144.7560 C   0  0  1  0  0  0  0  0  0  0  0  0
  195.0010  175.7710  145.6400 O   0  0  0  0  0  1  0  0  0  0  0  0
  195.2750  174.8860  143.4280 C   0  0  0  0  0  2  0  0  0  0  0  0
  196.7480  176.8940  143.2220 O   0  0  0  0  0  0  0  0  0  0  0  0
  197.5960  174.9090  143.9940 O   0  0  0  0  0  1  0  0  0  0  0  0
  196.6070  175.5540  143.5590 C   0  0  0  0  0  0  0  0  0  0  0  0
  1  4  1  0  0  0  0
  2 10  1  0  0  0  0
  3  8  1  0  0  0  0
  4  7  1  0  0  0  0
  4 18  1  6  0  0  0
  5  2  1  0  0  0  0
  5  7  2  0  0  0  0
  6  3  2  0  0  0  0
  6  9  1  0  0  0  0
  7 13  1  0  0  0  0
  8  2  2  0  0  0  0
  9  1  2  0  0  0  0
  9  5  1  0  0  0  0
 10 12  1  0  0  0  0
 11 12  2  0  0  0  0
 13 16  1  0  0  0  0
 14 16  1  0  0  0  0
 14 17  1  0  0  0  0
 16 17  1  0  0  0  0
 16 15  1  0  0  0  0
 19 18  1  0  0  0  0
 20 21  2  0  0  0  0
 22 23  1  0  0  0  0
 22 25  1  0  0  0  0
 23 19  1  6  0  0  0
 23 26  1  0  0  0  0
 25 24  1  6  0  0  0
 25 20  1  0  0  0  0
 26 21  1  0  0  0  0
 26 27  1  1  0  0  0
 28 31  1  0  0  0  0
 28 26  1  0  0  0  0
 29 31  2  0  0  0  0
 31 30  1  0  0  0  0
M  END
>  <MODEL>
9

>  <REMARK>
 VINA RESULT:      -6.6      2.061      3.466
  Name = 
  9 active torsions:
  status: ('A' for Active; 'I' for Inactive)
    1  A    between atoms: C_3  and  N_17
    2  A    between atoms: C_9  and  N_19
    3  A    between atoms: C_12  and  S_21
    4  A    between atoms: O_15  and  C_18
    5  A    between atoms: O_15  and  S_21
    6  A    between atoms: C_16  and  N_19
    7  A    between atoms: N_17  and  C_23
    8  A    between atoms: C_25  and  C_31
    9  A    between atoms: C_30  and  C_31
                            x       y       z     vdW  Elec       q    Type
                         _______ _______ _______ _____ _____    ______ ____

>  <TORSDO>
F 9

$$$$
