=
 OpenBabel11062422503D

 46 50  0  0  1  0  0  0  0  0999 V2000
  191.7250  173.8380  143.0960 N   0  0  0  0  0  2  0  0  0  0  0  0
  192.8580  171.9380  142.0040 C   0  0  0  0  0  3  0  0  0  0  0  0
  193.9530  174.0780  142.0670 C   0  0  0  0  0  0  0  0  0  0  0  0
  194.9710  172.2260  140.9900 C   0  0  0  0  0  3  0  0  0  0  0  0
  194.9810  173.5320  141.3620 N   0  0  0  0  0  0  0  0  0  0  0  0
  192.8420  173.2820  142.3950 C   0  0  0  0  0  0  0  0  0  0  0  0
  193.9150  171.4360  141.3160 N   0  0  0  0  0  0  0  0  0  0  0  0
  194.2170  176.3720  141.3060 N   0  0  0  0  0  1  0  0  0  0  0  0
  193.9960  175.5230  142.4650 C   0  0  2  0  0  3  0  0  0  0  0  0
  194.9910  175.8110  143.5950 C   0  0  2  0  0  3  0  0  0  0  0  0
  197.6460  175.1270  143.4260 S   0  0  0  0  0  1  0  0  0  0  0  0
  196.3250  176.3200  143.0600 C   0  0  0  0  0  2  0  0  0  0  0  0
  195.0960  174.7020  144.6610 C   0  0  0  0  0  2  0  0  0  0  0  0
  193.2360  173.8750  145.9690 O   0  0  0  0  0  1  0  0  0  0  0  0
  194.2030  174.8800  145.8890 C   0  0  2  0  0  3  0  0  0  0  0  0
  193.5530  176.2670  145.8960 C   0  0  2  0  0  3  0  0  0  0  0  0
  193.9950  176.9730  147.0180 O   0  0  0  0  0  1  0  0  0  0  0  0
  191.4890  176.9580  144.7940 O   0  0  0  0  0  1  0  0  0  0  0  0
  192.0160  176.2300  145.8730 C   0  0  2  0  0  3  0  0  0  0  0  0
  190.1090  175.9430  147.6190 N   0  0  0  0  0  0  0  0  0  0  0  0
  191.3900  176.6100  147.2440 C   0  0  1  0  0  3  0  0  0  0  0  0
  189.6970  174.8680  146.7250 C   0  0  0  0  0  1  0  0  0  0  0  0
  191.3850  175.5190  148.2200 C   0  0  0  0  0  2  0  0  0  0  0  0
  189.7540  172.1250  144.0660 C   0  0  0  0  0  1  0  0  0  0  0  0
  188.2800  172.7680  142.0190 C   0  0  0  0  0  1  0  0  0  0  0  0
  189.4490  174.6160  143.4900 C   0  0  1  0  0  3  0  0  0  0  0  0
  189.3440  173.1620  143.0340 C   0  0  0  0  0  0  0  0  0  0  0  0
  190.4320  174.0650  142.4590 C   0  0  2  0  0  3  0  0  0  0  0  0
  185.0230  178.2670  142.4110 C   0  0  0  0  0  3  0  0  0  0  0  0
  189.1750  176.5890  141.9630 C   0  0  0  0  0  2  0  0  0  0  0  0
  185.9630  177.3280  142.2700 C   0  0  0  0  0  0  0  0  0  0  0  0
  186.8910  177.3310  141.0750 C   0  0  2  0  0  3  0  0  0  0  0  0
  188.3120  177.7550  141.4650 C   0  0  0  0  0  2  0  0  0  0  0  0
  188.4430  175.5390  142.8100 C   0  0  2  0  0  3  0  0  0  0  0  0
  187.5250  176.1670  143.8530 C   0  0  0  0  0  2  0  0  0  0  0  0
  186.1060  176.2450  143.3010 C   0  0  0  0  0  2  0  0  0  0  0  0
  186.3830  178.0290  139.9580 O   0  0  0  0  0  0  0  0  0  0  0  0
  185.9490  177.1280  139.0940 O   0  0  0  0  0  1  0  0  0  0  0  0
  184.1360  178.2730  143.5260 N   0  0  0  0  0  2  0  0  0  0  0  0
  184.1640  179.3710  144.4810 C   0  0  0  0  0  2  0  0  0  0  0  0
  187.1020  178.2580  146.7790 C   0  0  0  0  0  2  0  0  0  0  0  0
  186.1880  177.5000  147.7560 C   0  0  0  0  0  2  0  0  0  0  0  0
  184.8050  178.9070  145.7750 C   0  0  2  0  0  3  0  0  0  0  0  0
  186.3350  179.0660  145.7090 C   0  0  0  0  0  2  0  0  0  0  0  0
  184.4270  177.4780  146.0550 C   0  0  0  0  0  3  0  0  0  0  0  0
  185.0870  176.8060  147.0030 C   0  0  0  0  0  3  0  0  0  0  0  0
  2  6  1  0  0  0  0
  3  6  2  0  0  0  0
  3  9  1  0  0  0  0
  4  7  1  0  0  0  0
  4  5  2  0  0  0  0
  5  3  1  0  0  0  0
  6  1  1  0  0  0  0
  7  2  2  0  0  0  0
  9  8  1  6  0  0  0
  9 10  1  0  0  0  0
 10 12  1  6  0  0  0
 10 13  1  0  0  0  0
 12 11  1  0  0  0  0
 13 15  1  0  0  0  0
 15 16  1  0  0  0  0
 15 14  1  6  0  0  0
 16 17  1  1  0  0  0
 19 18  1  6  0  0  0
 19 16  1  0  0  0  0
 20 23  1  0  0  0  0
 21 19  1  6  0  0  0
 21 20  1  0  0  0  0
 21 23  1  0  0  0  0
 22 20  1  0  0  0  0
 25 27  1  0  0  0  0
 26 27  1  6  0  0  0
 27 24  1  0  0  0  0
 28 27  1  0  0  0  0
 28  1  1  1  0  0  0
 28 26  1  0  0  0  0
 29 39  1  0  0  0  0
 31 29  2  0  0  0  0
 31 36  1  0  0  0  0
 32 37  1  6  0  0  0
 32 33  1  0  0  0  0
 32 31  1  0  0  0  0
 33 30  1  0  0  0  0
 34 30  1  1  0  0  0
 34 26  1  0  0  0  0
 34 35  1  0  0  0  0
 36 35  1  0  0  0  0
 38 37  1  0  0  0  0
 39 40  1  0  0  0  0
 41 42  1  0  0  0  0
 43 40  1  6  0  0  0
 43 45  1  0  0  0  0
 44 43  1  0  0  0  0
 44 41  1  0  0  0  0
 45 46  2  0  0  0  0
 46 42  1  0  0  0  0
M  END
>  <MODEL>
1

>  <REMARK>
 VINA RESULT:      -7.0      0.000      0.000
  Name = 
  15 active torsions:
  status: ('A' for Active; 'I' for Inactive)
    1  A    between atoms: C_4  and  N_29
    2  A    between atoms: C_5  and  C_46
    3  A    between atoms: N_7  and  C_25
    4  A    between atoms: N_7  and  C_41
    5  A    between atoms: C_9  and  O_15
    6  A    between atoms: C_12  and  C_31
    7  A    between atoms: C_12  and  C_45
    8  A    between atoms: C_16  and  C_22
    9  A    between atoms: C_19  and  C_21
   10  A    between atoms: C_19  and  N_29
   11  A    between atoms: C_28  and  C_37
   12  A    between atoms: C_28  and  C_38
   13  A    between atoms: C_28  and  C_46
   14  A    between atoms: C_31  and  C_38
   15  A    between atoms: C_32  and  C_45
                            x       y       z     vdW  Elec       q    Type
                         _______ _______ _______ _____ _____    ______ ____

>  <TORSDO>
F 15

$$$$
=
 OpenBabel11062422503D

 46 50  0  0  1  0  0  0  0  0999 V2000
  194.8240  176.3100  144.2540 N   0  0  0  0  0  2  0  0  0  0  0  0
  195.8730  176.3460  142.0220 C   0  0  0  0  0  3  0  0  0  0  0  0
  196.6320  174.7460  143.6480 C   0  0  0  0  0  0  0  0  0  0  0  0
  197.6350  174.8610  141.5010 C   0  0  0  0  0  3  0  0  0  0  0  0
  197.5500  174.3130  142.7410 N   0  0  0  0  0  0  0  0  0  0  0  0
  195.7690  175.8010  143.3070 C   0  0  0  0  0  0  0  0  0  0  0  0
  196.7950  175.8680  141.1460 N   0  0  0  0  0  0  0  0  0  0  0  0
  197.8790  174.0680  145.6220 N   0  0  0  0  0  1  0  0  0  0  0  0
  196.5620  174.1180  145.0080 C   0  0  2  0  0  3  0  0  0  0  0  0
  195.8670  172.7510  145.0100 C   0  0  2  0  0  3  0  0  0  0  0  0
  197.7310  170.8200  144.4200 S   0  0  0  0  0  1  0  0  0  0  0  0
  196.7270  171.6790  145.6690 C   0  0  0  0  0  2  0  0  0  0  0  0
  195.2390  172.3450  143.6620 C   0  0  0  0  0  2  0  0  0  0  0  0
  193.2670  171.9840  145.0170 O   0  0  0  0  0  1  0  0  0  0  0  0
  193.7520  171.9910  143.7070 C   0  0  2  0  0  3  0  0  0  0  0  0
  193.4890  170.6480  143.0180 C   0  0  2  0  0  3  0  0  0  0  0  0
  194.6730  169.9080  142.9930 O   0  0  0  0  0  1  0  0  0  0  0  0
  193.9400  171.0010  140.6460 O   0  0  0  0  0  1  0  0  0  0  0  0
  192.9270  170.7840  141.5930 C   0  0  2  0  0  3  0  0  0  0  0  0
  190.6520  171.5100  140.5600 N   0  0  0  0  0  0  0  0  0  0  0  0
  191.7650  171.8130  141.5070 C   0  0  1  0  0  3  0  0  0  0  0  0
  190.7030  170.1810  139.9650 C   0  0  0  0  0  1  0  0  0  0  0  0
  190.4850  171.3120  142.0100 C   0  0  0  0  0  2  0  0  0  0  0  0
  193.8010  176.8210  146.7940 C   0  0  0  0  0  1  0  0  0  0  0  0
  192.0520  174.9340  146.3980 C   0  0  0  0  0  1  0  0  0  0  0  0
  192.4630  176.8100  144.5930 C   0  0  1  0  0  3  0  0  0  0  0  0
  192.9300  176.0380  145.8250 C   0  0  0  0  0  0  0  0  0  0  0  0
  193.5100  175.7080  144.4520 C   0  0  2  0  0  3  0  0  0  0  0  0
  186.9570  176.5500  142.6690 C   0  0  0  0  0  3  0  0  0  0  0  0
  191.3340  175.5060  142.7700 C   0  0  0  0  0  2  0  0  0  0  0  0
  188.1330  176.2240  143.2140 C   0  0  0  0  0  0  0  0  0  0  0  0
  188.8380  174.9410  142.8310 C   0  0  2  0  0  3  0  0  0  0  0  0
  190.0680  175.2110  141.9570 C   0  0  0  0  0  2  0  0  0  0  0  0
  191.1220  176.3290  144.0490 C   0  0  2  0  0  3  0  0  0  0  0  0
  190.1920  177.5180  143.8290 C   0  0  0  0  0  2  0  0  0  0  0  0
  188.7720  177.1320  144.2260 C   0  0  0  0  0  2  0  0  0  0  0  0
  187.9790  173.9520  142.3030 O   0  0  0  0  0  0  0  0  0  0  0  0
  188.2560  173.8360  141.0160 O   0  0  0  0  0  1  0  0  0  0  0  0
  186.2780  177.7510  143.0240 N   0  0  0  0  0  2  0  0  0  0  0  0
  184.8990  177.7060  143.4860 C   0  0  0  0  0  2  0  0  0  0  0  0
  185.9740  179.4160  146.8140 C   0  0  0  0  0  2  0  0  0  0  0  0
  185.4460  178.2710  147.6940 C   0  0  0  0  0  2  0  0  0  0  0  0
  184.8500  177.9750  144.9780 C   0  0  2  0  0  3  0  0  0  0  0  0
  185.6100  179.2700  145.3200 C   0  0  0  0  0  2  0  0  0  0  0  0
  185.4210  176.8060  145.7320 C   0  0  0  0  0  3  0  0  0  0  0  0
  185.7040  176.9460  147.0320 C   0  0  0  0  0  3  0  0  0  0  0  0
  2  6  1  0  0  0  0
  3  9  1  0  0  0  0
  4  5  2  0  0  0  0
  5  3  1  0  0  0  0
  6  3  2  0  0  0  0
  6  1  1  0  0  0  0
  7  4  1  0  0  0  0
  7  2  2  0  0  0  0
  9 10  1  0  0  0  0
  9  8  1  6  0  0  0
 10 13  1  6  0  0  0
 10 12  1  0  0  0  0
 11 12  1  0  0  0  0
 13 15  1  0  0  0  0
 15 14  1  1  0  0  0
 16 17  1  6  0  0  0
 16 15  1  0  0  0  0
 19 18  1  6  0  0  0
 19 16  1  0  0  0  0
 20 21  1  0  0  0  0
 20 23  1  0  0  0  0
 21 19  1  6  0  0  0
 21 23  1  0  0  0  0
 22 20  1  0  0  0  0
 26 27  1  1  0  0  0
 27 25  1  0  0  0  0
 27 24  1  0  0  0  0
 28  1  1  1  0  0  0
 28 26  1  0  0  0  0
 28 27  1  0  0  0  0
 29 39  1  0  0  0  0
 29 31  2  0  0  0  0
 31 36  1  0  0  0  0
 32 37  1  6  0  0  0
 32 31  1  0  0  0  0
 33 30  1  0  0  0  0
 33 32  1  0  0  0  0
 34 30  1  6  0  0  0
 34 26  1  0  0  0  0
 35 34  1  0  0  0  0
 35 36  1  0  0  0  0
 38 37  1  0  0  0  0
 39 40  1  0  0  0  0
 41 42  1  0  0  0  0
 43 40  1  6  0  0  0
 43 44  1  0  0  0  0
 43 45  1  0  0  0  0
 44 41  1  0  0  0  0
 45 46  2  0  0  0  0
 46 42  1  0  0  0  0
M  END
>  <MODEL>
2

>  <REMARK>
 VINA RESULT:      -6.5      2.557      4.664
  Name = 
  15 active torsions:
  status: ('A' for Active; 'I' for Inactive)
    1  A    between atoms: C_4  and  N_29
    2  A    between atoms: C_5  and  C_46
    3  A    between atoms: N_7  and  C_25
    4  A    between atoms: N_7  and  C_41
    5  A    between atoms: C_9  and  O_15
    6  A    between atoms: C_12  and  C_31
    7  A    between atoms: C_12  and  C_45
    8  A    between atoms: C_16  and  C_22
    9  A    between atoms: C_19  and  C_21
   10  A    between atoms: C_19  and  N_29
   11  A    between atoms: C_28  and  C_37
   12  A    between atoms: C_28  and  C_38
   13  A    between atoms: C_28  and  C_46
   14  A    between atoms: C_31  and  C_38
   15  A    between atoms: C_32  and  C_45
                            x       y       z     vdW  Elec       q    Type
                         _______ _______ _______ _____ _____    ______ ____

>  <TORSDO>
F 15

$$$$
=
 OpenBabel11062422503D

 46 50  0  0  1  0  0  0  0  0999 V2000
  193.4000  175.6150  144.8990 N   0  0  0  0  0  2  0  0  0  0  0  0
  194.5840  176.0370  142.7760 C   0  0  0  0  0  3  0  0  0  0  0  0
  195.2400  174.1640  144.1330 C   0  0  0  0  0  0  0  0  0  0  0  0
  196.3720  174.6480  142.1060 C   0  0  0  0  0  3  0  0  0  0  0  0
  196.2110  173.8890  143.2200 N   0  0  0  0  0  0  0  0  0  0  0  0
  194.4010  175.2730  143.9350 C   0  0  0  0  0  0  0  0  0  0  0  0
  195.5570  175.7120  141.8870 N   0  0  0  0  0  0  0  0  0  0  0  0
  196.3840  172.9840  145.9250 N   0  0  0  0  0  1  0  0  0  0  0  0
  195.0870  173.3040  145.3530 C   0  0  2  0  0  3  0  0  0  0  0  0
  194.2340  172.0540  145.1090 C   0  0  2  0  0  3  0  0  0  0  0  0
  194.2730  169.3230  144.8100 S   0  0  0  0  0  1  0  0  0  0  0  0
  194.8940  170.7990  145.6700 C   0  0  0  0  0  2  0  0  0  0  0  0
  193.6850  171.9160  143.6750 C   0  0  0  0  0  2  0  0  0  0  0  0
  191.4170  171.4770  144.3970 O   0  0  0  0  0  1  0  0  0  0  0  0
  192.1960  172.2200  143.5060 C   0  0  2  0  0  3  0  0  0  0  0  0
  191.7500  171.9840  142.0600 C   0  0  2  0  0  3  0  0  0  0  0  0
  192.8650  171.6530  141.2870 O   0  0  0  0  0  1  0  0  0  0  0  0
  191.8760  174.2710  141.2200 O   0  0  0  0  0  1  0  0  0  0  0  0
  191.0170  173.1820  141.4360 C   0  0  2  0  0  3  0  0  0  0  0  0
  188.4650  173.6860  141.4150 N   0  0  0  0  0  0  0  0  0  0  0  0
  189.7210  173.5570  142.2090 C   0  0  1  0  0  3  0  0  0  0  0  0
  188.5730  173.2570  140.0270 C   0  0  0  0  0  1  0  0  0  0  0  0
  188.7160  172.4930  142.2410 C   0  0  0  0  0  2  0  0  0  0  0  0
  191.9360  175.3330  147.2520 C   0  0  0  0  0  1  0  0  0  0  0  0
  189.9430  174.4490  145.8290 C   0  0  0  0  0  1  0  0  0  0  0  0
  191.2140  176.6600  145.1660 C   0  0  1  0  0  3  0  0  0  0  0  0
  191.1700  175.3430  145.9400 C   0  0  0  0  0  0  0  0  0  0  0  0
  191.9740  175.4420  144.6460 C   0  0  2  0  0  3  0  0  0  0  0  0
  186.1960  178.7460  143.0330 C   0  0  0  0  0  3  0  0  0  0  0  0
  190.3660  177.0640  142.8390 C   0  0  0  0  0  2  0  0  0  0  0  0
  187.2100  177.9310  143.3360 C   0  0  0  0  0  0  0  0  0  0  0  0
  187.8700  177.0820  142.2720 C   0  0  2  0  0  3  0  0  0  0  0  0
  189.2660  177.6050  141.9170 C   0  0  0  0  0  2  0  0  0  0  0  0
  189.9730  176.9050  144.3150 C   0  0  2  0  0  3  0  0  0  0  0  0
  189.2050  178.1100  144.8470 C   0  0  0  0  0  2  0  0  0  0  0  0
  187.7080  177.8410  144.7510 C   0  0  0  0  0  2  0  0  0  0  0  0
  187.0550  176.8450  141.1430 O   0  0  0  0  0  0  0  0  0  0  0  0
  187.4520  177.6700  140.1900 O   0  0  0  0  0  1  0  0  0  0  0  0
  185.5600  179.5460  144.0250 N   0  0  0  0  0  2  0  0  0  0  0  0
  184.3160  179.1060  144.6390 C   0  0  0  0  0  2  0  0  0  0  0  0
  186.3250  178.8520  147.9630 C   0  0  0  0  0  2  0  0  0  0  0  0
  185.6620  177.5300  148.3840 C   0  0  0  0  0  2  0  0  0  0  0  0
  184.5810  178.6460  146.0590 C   0  0  2  0  0  3  0  0  0  0  0  0
  185.7010  179.4870  146.7000 C   0  0  0  0  0  2  0  0  0  0  0  0
  184.9370  177.1840  146.0710 C   0  0  0  0  0  3  0  0  0  0  0  0
  185.4520  176.6500  147.1830 C   0  0  0  0  0  3  0  0  0  0  0  0
  2  6  1  0  0  0  0
  3  9  1  0  0  0  0
  4  5  2  0  0  0  0
  5  3  1  0  0  0  0
  6  3  2  0  0  0  0
  6  1  1  0  0  0  0
  7  4  1  0  0  0  0
  7  2  2  0  0  0  0
  9  8  1  6  0  0  0
 10 13  1  6  0  0  0
 10  9  1  0  0  0  0
 10 12  1  0  0  0  0
 11 12  1  0  0  0  0
 15 13  1  0  0  0  0
 15 14  1  1  0  0  0
 16 17  1  6  0  0  0
 16 15  1  0  0  0  0
 19 18  1  1  0  0  0
 19 16  1  0  0  0  0
 20 21  1  0  0  0  0
 20 23  1  0  0  0  0
 21 19  1  6  0  0  0
 21 23  1  0  0  0  0
 22 20  1  0  0  0  0
 25 27  1  0  0  0  0
 26 27  1  1  0  0  0
 27 24  1  0  0  0  0
 28  1  1  1  0  0  0
 28 26  1  0  0  0  0
 28 27  1  0  0  0  0
 29 31  2  0  0  0  0
 29 39  1  0  0  0  0
 31 36  1  0  0  0  0
 32 37  1  6  0  0  0
 32 31  1  0  0  0  0
 33 32  1  0  0  0  0
 33 30  1  0  0  0  0
 34 30  1  6  0  0  0
 34 35  1  0  0  0  0
 34 26  1  0  0  0  0
 36 35  1  0  0  0  0
 38 37  1  0  0  0  0
 39 40  1  0  0  0  0
 41 42  1  0  0  0  0
 43 40  1  6  0  0  0
 43 45  1  0  0  0  0
 43 44  1  0  0  0  0
 44 41  1  0  0  0  0
 45 46  2  0  0  0  0
 46 42  1  0  0  0  0
M  END
>  <MODEL>
3

>  <REMARK>
 VINA RESULT:      -6.5      2.353      4.003
  Name = 
  15 active torsions:
  status: ('A' for Active; 'I' for Inactive)
    1  A    between atoms: C_4  and  N_29
    2  A    between atoms: C_5  and  C_46
    3  A    between atoms: N_7  and  C_25
    4  A    between atoms: N_7  and  C_41
    5  A    between atoms: C_9  and  O_15
    6  A    between atoms: C_12  and  C_31
    7  A    between atoms: C_12  and  C_45
    8  A    between atoms: C_16  and  C_22
    9  A    between atoms: C_19  and  C_21
   10  A    between atoms: C_19  and  N_29
   11  A    between atoms: C_28  and  C_37
   12  A    between atoms: C_28  and  C_38
   13  A    between atoms: C_28  and  C_46
   14  A    between atoms: C_31  and  C_38
   15  A    between atoms: C_32  and  C_45
                            x       y       z     vdW  Elec       q    Type
                         _______ _______ _______ _____ _____    ______ ____

>  <TORSDO>
F 15

$$$$
=
 OpenBabel11062422503D

 46 50  0  0  1  0  0  0  0  0999 V2000
  191.7080  173.9350  143.0390 N   0  0  0  0  0  2  0  0  0  0  0  0
  192.6780  171.9940  141.8660 C   0  0  0  0  0  3  0  0  0  0  0  0
  193.9540  174.0260  142.0250 C   0  0  0  0  0  0  0  0  0  0  0  0
  194.8140  172.1420  140.8680 C   0  0  0  0  0  3  0  0  0  0  0  0
  194.9350  173.4240  141.2980 N   0  0  0  0  0  0  0  0  0  0  0  0
  192.7770  173.3150  142.3160 C   0  0  0  0  0  0  0  0  0  0  0  0
  193.6920  171.4330  141.1570 N   0  0  0  0  0  0  0  0  0  0  0  0
  195.0000  176.1770  141.5950 N   0  0  0  0  0  1  0  0  0  0  0  0
  194.1190  175.4430  142.4870 C   0  0  2  0  0  3  0  0  0  0  0  0
  194.5520  175.5550  143.9540 C   0  0  2  0  0  3  0  0  0  0  0  0
  194.3800  176.8940  146.3470 S   0  0  0  0  0  1  0  0  0  0  0  0
  193.6230  176.4640  144.7510 C   0  0  0  0  0  2  0  0  0  0  0  0
  196.0570  175.8140  144.1650 C   0  0  0  0  0  2  0  0  0  0  0  0
  197.1640  173.8040  143.3980 O   0  0  0  0  0  1  0  0  0  0  0  0
  196.8940  174.5860  144.5240 C   0  0  2  0  0  3  0  0  0  0  0  0
  196.2100  173.7580  145.6160 C   0  0  2  0  0  3  0  0  0  0  0  0
  197.0910  173.6000  146.6880 O   0  0  0  0  0  1  0  0  0  0  0  0
  194.3290  172.2490  145.2510 O   0  0  0  0  0  1  0  0  0  0  0  0
  195.7210  172.3830  145.1330 C   0  0  2  0  0  3  0  0  0  0  0  0
  196.5500  169.9190  145.0260 N   0  0  0  0  0  0  0  0  0  0  0  0
  196.5150  171.2100  145.7740 C   0  0  1  0  0  3  0  0  0  0  0  0
  195.9850  169.9760  143.6840 C   0  0  0  0  0  1  0  0  0  0  0  0
  197.7130  170.8220  145.0270 C   0  0  0  0  0  2  0  0  0  0  0  0
  189.7850  172.3050  144.2250 C   0  0  0  0  0  1  0  0  0  0  0  0
  188.2000  172.8350  142.2290 C   0  0  0  0  0  1  0  0  0  0  0  0
  189.4630  174.7590  143.5120 C   0  0  1  0  0  3  0  0  0  0  0  0
  189.3230  173.2800  143.1550 C   0  0  0  0  0  0  0  0  0  0  0  0
  190.3820  174.1350  142.4640 C   0  0  2  0  0  3  0  0  0  0  0  0
  184.9180  178.2620  142.4420 C   0  0  0  0  0  3  0  0  0  0  0  0
  189.1210  176.7200  141.9840 C   0  0  0  0  0  2  0  0  0  0  0  0
  185.8880  177.3540  142.2990 C   0  0  0  0  0  0  0  0  0  0  0  0
  186.8120  177.3860  141.1020 C   0  0  2  0  0  3  0  0  0  0  0  0
  188.2200  177.8570  141.4870 C   0  0  0  0  0  2  0  0  0  0  0  0
  188.4260  175.6470  142.8340 C   0  0  2  0  0  3  0  0  0  0  0  0
  187.4910  176.2470  143.8790 C   0  0  0  0  0  2  0  0  0  0  0  0
  186.0690  176.2780  143.3310 C   0  0  0  0  0  2  0  0  0  0  0  0
  186.2790  178.0660  139.9850 O   0  0  0  0  0  0  0  0  0  0  0  0
  185.6840  177.1660  139.2220 O   0  0  0  0  0  1  0  0  0  0  0  0
  184.0350  178.2420  143.5590 N   0  0  0  0  0  2  0  0  0  0  0  0
  184.0260  179.3440  144.5090 C   0  0  0  0  0  2  0  0  0  0  0  0
  187.0160  178.4180  146.8230 C   0  0  0  0  0  2  0  0  0  0  0  0
  186.1520  177.5770  147.7770 C   0  0  0  0  0  2  0  0  0  0  0  0
  184.6870  178.9090  145.8030 C   0  0  2  0  0  3  0  0  0  0  0  0
  186.2010  179.1830  145.7570 C   0  0  0  0  0  2  0  0  0  0  0  0
  184.4150  177.4510  146.0570 C   0  0  0  0  0  3  0  0  0  0  0  0
  185.1140  176.8150  147.0020 C   0  0  0  0  0  3  0  0  0  0  0  0
  2  6  1  0  0  0  0
  3  6  2  0  0  0  0
  3  9  1  0  0  0  0
  4  7  1  0  0  0  0
  4  5  2  0  0  0  0
  5  3  1  0  0  0  0
  6  1  1  0  0  0  0
  7  2  2  0  0  0  0
  9  8  1  6  0  0  0
  9 10  1  0  0  0  0
 10 13  1  6  0  0  0
 10 12  1  0  0  0  0
 12 11  1  0  0  0  0
 13 15  1  0  0  0  0
 15 14  1  6  0  0  0
 15 16  1  0  0  0  0
 16 17  1  1  0  0  0
 19 18  1  1  0  0  0
 19 16  1  0  0  0  0
 20 23  1  0  0  0  0
 20 21  1  0  0  0  0
 21 19  1  6  0  0  0
 22 20  1  0  0  0  0
 23 21  1  0  0  0  0
 25 27  1  0  0  0  0
 26 27  1  6  0  0  0
 27 24  1  0  0  0  0
 28  1  1  1  0  0  0
 28 27  1  0  0  0  0
 28 26  1  0  0  0  0
 29 39  1  0  0  0  0
 31 29  2  0  0  0  0
 31 36  1  0  0  0  0
 32 37  1  6  0  0  0
 32 33  1  0  0  0  0
 32 31  1  0  0  0  0
 33 30  1  0  0  0  0
 34 30  1  1  0  0  0
 34 26  1  0  0  0  0
 34 35  1  0  0  0  0
 36 35  1  0  0  0  0
 38 37  1  0  0  0  0
 39 40  1  0  0  0  0
 41 42  1  0  0  0  0
 43 40  1  6  0  0  0
 43 45  1  0  0  0  0
 44 43  1  0  0  0  0
 44 41  1  0  0  0  0
 45 46  2  0  0  0  0
 46 42  1  0  0  0  0
M  END
>  <MODEL>
4

>  <REMARK>
 VINA RESULT:      -6.5      1.863      3.125
  Name = 
  15 active torsions:
  status: ('A' for Active; 'I' for Inactive)
    1  A    between atoms: C_4  and  N_29
    2  A    between atoms: C_5  and  C_46
    3  A    between atoms: N_7  and  C_25
    4  A    between atoms: N_7  and  C_41
    5  A    between atoms: C_9  and  O_15
    6  A    between atoms: C_12  and  C_31
    7  A    between atoms: C_12  and  C_45
    8  A    between atoms: C_16  and  C_22
    9  A    between atoms: C_19  and  C_21
   10  A    between atoms: C_19  and  N_29
   11  A    between atoms: C_28  and  C_37
   12  A    between atoms: C_28  and  C_38
   13  A    between atoms: C_28  and  C_46
   14  A    between atoms: C_31  and  C_38
   15  A    between atoms: C_32  and  C_45
                            x       y       z     vdW  Elec       q    Type
                         _______ _______ _______ _____ _____    ______ ____

>  <TORSDO>
F 15

$$$$
=
 OpenBabel11062422503D

 46 50  0  0  1  0  0  0  0  0999 V2000
  188.5700  176.0380  145.3270 N   0  0  0  0  0  2  0  0  0  0  0  0
  186.8470  177.5080  146.3030 C   0  0  0  0  0  3  0  0  0  0  0  0
  187.4880  177.8170  144.0060 C   0  0  0  0  0  0  0  0  0  0  0  0
  185.8710  179.2300  145.0140 C   0  0  0  0  0  3  0  0  0  0  0  0
  186.6200  178.8630  143.9420 N   0  0  0  0  0  0  0  0  0  0  0  0
  187.6330  177.1140  145.2150 C   0  0  0  0  0  0  0  0  0  0  0  0
  185.9830  178.5490  146.1840 N   0  0  0  0  0  0  0  0  0  0  0  0
  188.8450  178.6150  142.1550 N   0  0  0  0  0  1  0  0  0  0  0  0
  188.2990  177.4360  142.8040 C   0  0  2  0  0  3  0  0  0  0  0  0
  187.5420  176.5300  141.8240 C   0  0  2  0  0  3  0  0  0  0  0  0
  186.3360  177.4940  139.5520 S   0  0  0  0  0  1  0  0  0  0  0  0
  186.2490  177.1760  141.3400 C   0  0  0  0  0  2  0  0  0  0  0  0
  187.4090  175.0610  142.2740 C   0  0  0  0  0  2  0  0  0  0  0  0
  189.7350  174.9180  141.6220 O   0  0  0  0  0  1  0  0  0  0  0  0
  188.7120  174.2630  142.3120 C   0  0  2  0  0  3  0  0  0  0  0  0
  188.5020  172.8470  141.7650 C   0  0  2  0  0  3  0  0  0  0  0  0
  189.0250  171.9240  142.6730 O   0  0  0  0  0  1  0  0  0  0  0  0
  188.1470  172.3820  139.3960 O   0  0  0  0  0  1  0  0  0  0  0  0
  189.1230  172.6230  140.3760 C   0  0  2  0  0  3  0  0  0  0  0  0
  191.3790  171.7440  139.4250 N   0  0  0  0  0  0  0  0  0  0  0  0
  190.2600  171.5630  140.3950 C   0  0  1  0  0  3  0  0  0  0  0  0
  191.3600  173.0080  138.7000 C   0  0  0  0  0  1  0  0  0  0  0  0
  191.5520  172.0820  140.8480 C   0  0  0  0  0  2  0  0  0  0  0  0
  189.1540  174.5710  147.6220 C   0  0  0  0  0  1  0  0  0  0  0  0
  191.2810  176.0380  147.9400 C   0  0  0  0  0  1  0  0  0  0  0  0
  190.7240  174.9330  145.6130 C   0  0  1  0  0  3  0  0  0  0  0  0
  190.2750  175.3880  147.0010 C   0  0  0  0  0  0  0  0  0  0  0  0
  189.9440  176.2360  145.7760 C   0  0  2  0  0  3  0  0  0  0  0  0
  196.5240  174.5670  145.0540 C   0  0  0  0  0  3  0  0  0  0  0  0
  192.3460  175.7730  143.8920 C   0  0  0  0  0  2  0  0  0  0  0  0
  195.2880  175.0470  145.2240 C   0  0  0  0  0  0  0  0  0  0  0  0
  194.8040  176.2430  144.4350 C   0  0  2  0  0  3  0  0  0  0  0  0
  193.7850  175.8380  143.3640 C   0  0  0  0  0  2  0  0  0  0  0  0
  192.1900  175.2360  145.3220 C   0  0  2  0  0  3  0  0  0  0  0  0
  193.0390  173.9940  145.5730 C   0  0  0  0  0  2  0  0  0  0  0  0
  194.3600  174.4010  146.2140 C   0  0  0  0  0  2  0  0  0  0  0  0
  195.8420  177.0630  143.9420 O   0  0  0  0  0  0  0  0  0  0  0  0
  195.9860  176.7870  142.6580 O   0  0  0  0  0  1  0  0  0  0  0  0
  196.9980  173.4460  145.7940 N   0  0  0  0  0  2  0  0  0  0  0  0
  197.2510  172.1780  145.1260 C   0  0  0  0  0  2  0  0  0  0  0  0
  196.7550  168.4540  146.1430 C   0  0  0  0  0  2  0  0  0  0  0  0
  195.4630  168.7330  146.9290 C   0  0  0  0  0  2  0  0  0  0  0  0
  196.7260  171.0380  145.9770 C   0  0  2  0  0  3  0  0  0  0  0  0
  197.4710  169.7310  145.6510 C   0  0  0  0  0  2  0  0  0  0  0  0
  195.2450  170.8760  145.7660 C   0  0  0  0  0  3  0  0  0  0  0  0
  194.6410  169.7740  146.2230 C   0  0  0  0  0  3  0  0  0  0  0  0
  3  6  1  0  0  0  0
  4  7  2  0  0  0  0
  5  3  2  0  0  0  0
  5  4  1  0  0  0  0
  6  1  1  0  0  0  0
  6  2  2  0  0  0  0
  7  2  1  0  0  0  0
  9  8  1  6  0  0  0
  9  3  1  0  0  0  0
 10 12  1  1  0  0  0
 10 13  1  0  0  0  0
 10  9  1  0  0  0  0
 11 12  1  0  0  0  0
 13 15  1  0  0  0  0
 15 14  1  6  0  0  0
 16 15  1  0  0  0  0
 16 17  1  1  0  0  0
 19 18  1  6  0  0  0
 19 16  1  0  0  0  0
 20 21  1  0  0  0  0
 20 23  1  0  0  0  0
 21 19  1  6  0  0  0
 21 23  1  0  0  0  0
 22 20  1  0  0  0  0
 26 28  1  0  0  0  0
 26 27  1  1  0  0  0
 27 24  1  0  0  0  0
 27 25  1  0  0  0  0
 28  1  1  6  0  0  0
 28 27  1  0  0  0  0
 29 31  2  0  0  0  0
 29 39  1  0  0  0  0
 31 36  1  0  0  0  0
 32 37  1  6  0  0  0
 32 31  1  0  0  0  0
 33 30  1  0  0  0  0
 33 32  1  0  0  0  0
 34 30  1  6  0  0  0
 34 35  1  0  0  0  0
 34 26  1  0  0  0  0
 35 36  1  0  0  0  0
 38 37  1  0  0  0  0
 40 39  1  0  0  0  0
 41 42  1  0  0  0  0
 43 40  1  6  0  0  0
 44 43  1  0  0  0  0
 44 41  1  0  0  0  0
 45 43  1  0  0  0  0
 45 46  2  0  0  0  0
 46 42  1  0  0  0  0
M  END
>  <MODEL>
5

>  <REMARK>
 VINA RESULT:      -6.4      3.595      9.333
  Name = 
  15 active torsions:
  status: ('A' for Active; 'I' for Inactive)
    1  A    between atoms: C_4  and  N_29
    2  A    between atoms: C_5  and  C_46
    3  A    between atoms: N_7  and  C_25
    4  A    between atoms: N_7  and  C_41
    5  A    between atoms: C_9  and  O_15
    6  A    between atoms: C_12  and  C_31
    7  A    between atoms: C_12  and  C_45
    8  A    between atoms: C_16  and  C_22
    9  A    between atoms: C_19  and  C_21
   10  A    between atoms: C_19  and  N_29
   11  A    between atoms: C_28  and  C_37
   12  A    between atoms: C_28  and  C_38
   13  A    between atoms: C_28  and  C_46
   14  A    between atoms: C_31  and  C_38
   15  A    between atoms: C_32  and  C_45
                            x       y       z     vdW  Elec       q    Type
                         _______ _______ _______ _____ _____    ______ ____

>  <TORSDO>
F 15

$$$$
=
 OpenBabel11062422503D

 46 50  0  0  1  0  0  0  0  0999 V2000
  195.2890  175.1420  145.2910 N   0  0  0  0  0  2  0  0  0  0  0  0
  196.3980  176.5460  143.5930 C   0  0  0  0  0  3  0  0  0  0  0  0
  196.4180  174.1550  143.3340 C   0  0  0  0  0  0  0  0  0  0  0  0
  197.5080  175.5550  141.7590 C   0  0  0  0  0  3  0  0  0  0  0  0
  197.1580  174.3200  142.2030 N   0  0  0  0  0  0  0  0  0  0  0  0
  196.0290  175.2840  144.0740 C   0  0  0  0  0  0  0  0  0  0  0  0
  197.1230  176.6590  142.4510 N   0  0  0  0  0  0  0  0  0  0  0  0
  197.0910  171.8230  143.4680 N   0  0  0  0  0  1  0  0  0  0  0  0
  196.0460  172.7780  143.7960 C   0  0  2  0  0  3  0  0  0  0  0  0
  194.6670  172.3250  143.3020 C   0  0  2  0  0  3  0  0  0  0  0  0
  192.1650  171.3840  143.9360 S   0  0  0  0  0  1  0  0  0  0  0  0
  193.9300  171.5020  144.3520 C   0  0  0  0  0  2  0  0  0  0  0  0
  194.6550  171.7290  141.8800 C   0  0  0  0  0  2  0  0  0  0  0  0
  192.7570  172.0080  140.4050 O   0  0  0  0  0  1  0  0  0  0  0  0
  193.9640  172.5800  140.8140 C   0  0  2  0  0  3  0  0  0  0  0  0
  194.8910  172.8160  139.6170 C   0  0  2  0  0  3  0  0  0  0  0  0
  196.1240  172.2080  139.8680 O   0  0  0  0  0  1  0  0  0  0  0  0
  194.4080  175.1440  140.1650 O   0  0  0  0  0  1  0  0  0  0  0  0
  195.1000  174.3010  139.2800 C   0  0  2  0  0  3  0  0  0  0  0  0
  195.9230  175.2770  137.0140 N   0  0  0  0  0  0  0  0  0  0  0  0
  194.8280  174.6160  137.7820 C   0  0  1  0  0  3  0  0  0  0  0  0
  197.1920  175.3770  137.7220 C   0  0  0  0  0  1  0  0  0  0  0  0
  195.6480  173.8390  136.8510 C   0  0  0  0  0  2  0  0  0  0  0  0
  194.2390  177.1710  146.8850 C   0  0  0  0  0  1  0  0  0  0  0  0
  191.9560  175.9200  146.8620 C   0  0  0  0  0  1  0  0  0  0  0  0
  193.2870  176.3670  144.6310 C   0  0  1  0  0  3  0  0  0  0  0  0
  193.2590  176.2670  146.1550 C   0  0  0  0  0  0  0  0  0  0  0  0
  193.8300  175.1200  145.3260 C   0  0  2  0  0  3  0  0  0  0  0  0
  188.0940  176.8100  142.0020 C   0  0  0  0  0  3  0  0  0  0  0  0
  192.1190  174.9990  142.8810 C   0  0  0  0  0  2  0  0  0  0  0  0
  189.1090  176.3700  142.7510 C   0  0  0  0  0  0  0  0  0  0  0  0
  189.5680  174.9310  142.6690 C   0  0  2  0  0  3  0  0  0  0  0  0
  190.9160  174.8090  141.9480 C   0  0  0  0  0  2  0  0  0  0  0  0
  191.9440  176.0580  143.9790 C   0  0  2  0  0  3  0  0  0  0  0  0
  191.3110  177.3420  143.4540 C   0  0  0  0  0  2  0  0  0  0  0  0
  189.8070  177.3050  143.6970 C   0  0  0  0  0  2  0  0  0  0  0  0
  188.5860  174.0430  142.1770 O   0  0  0  0  0  0  0  0  0  0  0  0
  189.2110  172.9560  141.7590 O   0  0  0  0  0  1  0  0  0  0  0  0
  187.6440  178.1600  142.0730 N   0  0  0  0  0  2  0  0  0  0  0  0
  186.3430  178.4720  142.6450 C   0  0  0  0  0  2  0  0  0  0  0  0
  185.4040  176.8490  146.0560 C   0  0  0  0  0  2  0  0  0  0  0  0
  185.7780  178.0980  146.8710 C   0  0  0  0  0  2  0  0  0  0  0  0
  186.3910  178.2990  144.1510 C   0  0  2  0  0  3  0  0  0  0  0  0
  185.7780  176.9470  144.5610 C   0  0  0  0  0  2  0  0  0  0  0  0
  185.6740  179.4370  144.8240 C   0  0  0  0  0  3  0  0  0  0  0  0
  185.3830  179.3420  146.1260 C   0  0  0  0  0  3  0  0  0  0  0  0
  2  6  1  0  0  0  0
  3  9  1  0  0  0  0
  3  6  2  0  0  0  0
  4  5  2  0  0  0  0
  4  7  1  0  0  0  0
  5  3  1  0  0  0  0
  6  1  1  0  0  0  0
  7  2  2  0  0  0  0
  9  8  1  6  0  0  0
 10 13  1  6  0  0  0
 10  9  1  0  0  0  0
 10 12  1  0  0  0  0
 11 12  1  0  0  0  0
 15 14  1  6  0  0  0
 15 13  1  0  0  0  0
 16 17  1  1  0  0  0
 16 15  1  0  0  0  0
 19 16  1  0  0  0  0
 19 18  1  1  0  0  0
 20 22  1  0  0  0  0
 20 21  1  0  0  0  0
 21 19  1  1  0  0  0
 23 20  1  0  0  0  0
 23 21  1  0  0  0  0
 26 28  1  0  0  0  0
 26 27  1  1  0  0  0
 27 25  1  0  0  0  0
 27 24  1  0  0  0  0
 28  1  1  1  0  0  0
 28 27  1  0  0  0  0
 29 39  1  0  0  0  0
 29 31  2  0  0  0  0
 31 36  1  0  0  0  0
 32 37  1  6  0  0  0
 32 31  1  0  0  0  0
 33 32  1  0  0  0  0
 33 30  1  0  0  0  0
 34 30  1  6  0  0  0
 34 26  1  0  0  0  0
 35 36  1  0  0  0  0
 35 34  1  0  0  0  0
 38 37  1  0  0  0  0
 39 40  1  0  0  0  0
 41 42  1  0  0  0  0
 43 40  1  6  0  0  0
 43 44  1  0  0  0  0
 43 45  1  0  0  0  0
 44 41  1  0  0  0  0
 45 46  2  0  0  0  0
 46 42  1  0  0  0  0
M  END
>  <MODEL>
6

>  <REMARK>
 VINA RESULT:      -6.3      3.081      5.756
  Name = 
  15 active torsions:
  status: ('A' for Active; 'I' for Inactive)
    1  A    between atoms: C_4  and  N_29
    2  A    between atoms: C_5  and  C_46
    3  A    between atoms: N_7  and  C_25
    4  A    between atoms: N_7  and  C_41
    5  A    between atoms: C_9  and  O_15
    6  A    between atoms: C_12  and  C_31
    7  A    between atoms: C_12  and  C_45
    8  A    between atoms: C_16  and  C_22
    9  A    between atoms: C_19  and  C_21
   10  A    between atoms: C_19  and  N_29
   11  A    between atoms: C_28  and  C_37
   12  A    between atoms: C_28  and  C_38
   13  A    between atoms: C_28  and  C_46
   14  A    between atoms: C_31  and  C_38
   15  A    between atoms: C_32  and  C_45
                            x       y       z     vdW  Elec       q    Type
                         _______ _______ _______ _____ _____    ______ ____

>  <TORSDO>
F 15

$$$$
=
 OpenBabel11062422503D

 46 50  0  0  1  0  0  0  0  0999 V2000
  195.2340  174.8400  145.3450 N   0  0  0  0  0  2  0  0  0  0  0  0
  196.1470  176.5000  143.7640 C   0  0  0  0  0  3  0  0  0  0  0  0
  196.3360  174.1600  143.2460 C   0  0  0  0  0  0  0  0  0  0  0  0
  197.2350  175.8010  141.7890 C   0  0  0  0  0  3  0  0  0  0  0  0
  197.0030  174.5020  142.1100 N   0  0  0  0  0  0  0  0  0  0  0  0
  195.8990  175.1690  144.1200 C   0  0  0  0  0  0  0  0  0  0  0  0
  196.8030  176.7910  142.6120 N   0  0  0  0  0  0  0  0  0  0  0  0
  197.2580  171.9110  143.2460 N   0  0  0  0  0  1  0  0  0  0  0  0
  196.0930  172.7160  143.5710 C   0  0  2  0  0  3  0  0  0  0  0  0
  194.8080  172.1610  142.9440 C   0  0  2  0  0  3  0  0  0  0  0  0
  194.9360  171.0710  145.4620 S   0  0  0  0  0  1  0  0  0  0  0  0
  193.9670  171.3940  143.9580 C   0  0  0  0  0  2  0  0  0  0  0  0
  195.0060  171.4510  141.5900 C   0  0  0  0  0  2  0  0  0  0  0  0
  194.4640  169.1990  140.8890 O   0  0  0  0  0  1  0  0  0  0  0  0
  193.9200  170.4450  141.2080 C   0  0  2  0  0  3  0  0  0  0  0  0
  193.0620  170.9780  140.0560 C   0  0  2  0  0  3  0  0  0  0  0  0
  193.4650  172.2800  139.7510 O   0  0  0  0  0  1  0  0  0  0  0  0
  191.2750  170.5240  141.6550 O   0  0  0  0  0  1  0  0  0  0  0  0
  191.5520  170.9540  140.3470 C   0  0  2  0  0  3  0  0  0  0  0  0
  189.6020  170.9060  138.6260 N   0  0  0  0  0  0  0  0  0  0  0  0
  190.7480  170.1890  139.2580 C   0  0  1  0  0  3  0  0  0  0  0  0
  189.4930  172.3150  138.9800 C   0  0  0  0  0  1  0  0  0  0  0  0
  190.8810  170.7520  137.9130 C   0  0  0  0  0  2  0  0  0  0  0  0
  194.0780  176.8510  146.8870 C   0  0  0  0  0  1  0  0  0  0  0  0
  191.9080  175.4180  147.0120 C   0  0  0  0  0  1  0  0  0  0  0  0
  193.1160  175.8650  144.7120 C   0  0  1  0  0  3  0  0  0  0  0  0
  193.1510  175.8360  146.2390 C   0  0  0  0  0  0  0  0  0  0  0  0
  193.7850  174.7010  145.4390 C   0  0  2  0  0  3  0  0  0  0  0  0
  187.7510  175.7610  142.4110 C   0  0  0  0  0  3  0  0  0  0  0  0
  192.0090  174.4200  142.9830 C   0  0  0  0  0  2  0  0  0  0  0  0
  188.8560  175.4230  143.0820 C   0  0  0  0  0  0  0  0  0  0  0  0
  189.4760  174.0530  142.9190 C   0  0  2  0  0  3  0  0  0  0  0  0
  190.7810  174.1160  142.1160 C   0  0  0  0  0  2  0  0  0  0  0  0
  191.7790  175.4170  144.1290 C   0  0  2  0  0  3  0  0  0  0  0  0
  190.9680  176.6320  143.6900 C   0  0  0  0  0  2  0  0  0  0  0  0
  189.4970  176.4070  144.0190 C   0  0  0  0  0  2  0  0  0  0  0  0
  188.5770  173.0700  142.4520 O   0  0  0  0  0  0  0  0  0  0  0  0
  188.8210  171.9600  143.1260 O   0  0  0  0  0  1  0  0  0  0  0  0
  187.1510  177.0450  142.5590 N   0  0  0  0  0  2  0  0  0  0  0  0
  185.7780  177.1640  143.0260 C   0  0  0  0  0  2  0  0  0  0  0  0
  185.8030  177.2050  146.9180 C   0  0  0  0  0  2  0  0  0  0  0  0
  185.1410  178.5890  147.0110 C   0  0  0  0  0  2  0  0  0  0  0  0
  185.7590  177.8070  144.4000 C   0  0  2  0  0  3  0  0  0  0  0  0
  186.1780  176.7910  145.4780 C   0  0  0  0  0  2  0  0  0  0  0  0
  184.3920  178.3630  144.6910 C   0  0  0  0  0  3  0  0  0  0  0  0
  184.0970  178.7390  145.9400 C   0  0  0  0  0  3  0  0  0  0  0  0
  2  6  1  0  0  0  0
  3  9  1  0  0  0  0
  3  6  2  0  0  0  0
  4  5  2  0  0  0  0
  4  7  1  0  0  0  0
  5  3  1  0  0  0  0
  6  1  1  0  0  0  0
  7  2  2  0  0  0  0
  9  8  1  6  0  0  0
 10 13  1  6  0  0  0
 10  9  1  0  0  0  0
 10 12  1  0  0  0  0
 12 11  1  0  0  0  0
 15 14  1  6  0  0  0
 15 13  1  0  0  0  0
 16 17  1  1  0  0  0
 16 19  1  0  0  0  0
 16 15  1  0  0  0  0
 19 18  1  1  0  0  0
 20 22  1  0  0  0  0
 20 21  1  0  0  0  0
 21 19  1  1  0  0  0
 23 20  1  0  0  0  0
 23 21  1  0  0  0  0
 26 28  1  0  0  0  0
 26 27  1  1  0  0  0
 27 24  1  0  0  0  0
 27 25  1  0  0  0  0
 28  1  1  6  0  0  0
 28 27  1  0  0  0  0
 29 39  1  0  0  0  0
 29 31  2  0  0  0  0
 31 36  1  0  0  0  0
 32 37  1  6  0  0  0
 32 31  1  0  0  0  0
 33 32  1  0  0  0  0
 33 30  1  0  0  0  0
 34 30  1  6  0  0  0
 34 26  1  0  0  0  0
 35 36  1  0  0  0  0
 35 34  1  0  0  0  0
 37 38  1  0  0  0  0
 39 40  1  0  0  0  0
 41 42  1  0  0  0  0
 43 40  1  6  0  0  0
 43 45  1  0  0  0  0
 43 44  1  0  0  0  0
 44 41  1  0  0  0  0
 45 46  2  0  0  0  0
 46 42  1  0  0  0  0
M  END
>  <MODEL>
7

>  <REMARK>
 VINA RESULT:      -6.1      3.004      5.587
  Name = 
  15 active torsions:
  status: ('A' for Active; 'I' for Inactive)
    1  A    between atoms: C_4  and  N_29
    2  A    between atoms: C_5  and  C_46
    3  A    between atoms: N_7  and  C_25
    4  A    between atoms: N_7  and  C_41
    5  A    between atoms: C_9  and  O_15
    6  A    between atoms: C_12  and  C_31
    7  A    between atoms: C_12  and  C_45
    8  A    between atoms: C_16  and  C_22
    9  A    between atoms: C_19  and  C_21
   10  A    between atoms: C_19  and  N_29
   11  A    between atoms: C_28  and  C_37
   12  A    between atoms: C_28  and  C_38
   13  A    between atoms: C_28  and  C_46
   14  A    between atoms: C_31  and  C_38
   15  A    between atoms: C_32  and  C_45
                            x       y       z     vdW  Elec       q    Type
                         _______ _______ _______ _____ _____    ______ ____

>  <TORSDO>
F 15

$$$$
=
 OpenBabel11062422503D

 46 50  0  0  1  0  0  0  0  0999 V2000
  191.8800  173.7640  143.9470 N   0  0  0  0  0  2  0  0  0  0  0  0
  192.2800  176.1310  144.5140 C   0  0  0  0  0  3  0  0  0  0  0  0
  194.1270  174.5910  144.5380 C   0  0  0  0  0  0  0  0  0  0  0  0
  194.4410  176.8690  145.1200 C   0  0  0  0  0  3  0  0  0  0  0  0
  194.9280  175.6140  144.9400 N   0  0  0  0  0  0  0  0  0  0  0  0
  192.7580  174.8290  144.3270 C   0  0  0  0  0  0  0  0  0  0  0  0
  193.1240  177.1220  144.9010 N   0  0  0  0  0  0  0  0  0  0  0  0
  195.5310  172.8420  145.4760 N   0  0  0  0  0  1  0  0  0  0  0  0
  194.6970  173.2170  144.3460 C   0  0  2  0  0  3  0  0  0  0  0  0
  195.4200  173.0420  143.0060 C   0  0  2  0  0  3  0  0  0  0  0  0
  197.9330  172.0610  142.4890 S   0  0  0  0  0  1  0  0  0  0  0  0
  196.8940  173.4190  143.1040 C   0  0  0  0  0  2  0  0  0  0  0  0
  194.6760  173.6300  141.7900 C   0  0  0  0  0  2  0  0  0  0  0  0
  195.0350  171.9010  140.1350 O   0  0  0  0  0  1  0  0  0  0  0  0
  194.0560  172.6060  140.8380 C   0  0  2  0  0  3  0  0  0  0  0  0
  193.0690  173.2790  139.8790 C   0  0  2  0  0  3  0  0  0  0  0  0
  192.7290  174.5370  140.3820 O   0  0  0  0  0  1  0  0  0  0  0  0
  191.4680  171.6410  140.7180 O   0  0  0  0  0  1  0  0  0  0  0  0
  191.7960  172.4560  139.6230 C   0  0  2  0  0  3  0  0  0  0  0  0
  190.6330  171.7640  137.4010 N   0  0  0  0  0  0  0  0  0  0  0  0
  191.8430  171.6900  138.2710 C   0  0  1  0  0  3  0  0  0  0  0  0
  189.6170  172.7080  137.8480 C   0  0  0  0  0  1  0  0  0  0  0  0
  191.8340  172.5590  137.0930 C   0  0  0  0  0  2  0  0  0  0  0  0
  189.8000  172.0400  144.6260 C   0  0  0  0  0  1  0  0  0  0  0  0
  188.6360  172.6660  142.3820 C   0  0  0  0  0  1  0  0  0  0  0  0
  189.5660  174.5270  144.0000 C   0  0  1  0  0  3  0  0  0  0  0  0
  189.5380  173.0710  143.5400 C   0  0  0  0  0  0  0  0  0  0  0  0
  190.6920  173.9800  143.1270 C   0  0  2  0  0  3  0  0  0  0  0  0
  185.3020  178.1170  142.2630 C   0  0  0  0  0  3  0  0  0  0  0  0
  189.5020  176.5100  142.4640 C   0  0  0  0  0  2  0  0  0  0  0  0
  186.2690  177.1940  142.2650 C   0  0  0  0  0  0  0  0  0  0  0  0
  187.3740  177.2240  141.2320 C   0  0  2  0  0  3  0  0  0  0  0  0
  188.7080  177.6670  141.8440 C   0  0  0  0  0  2  0  0  0  0  0  0
  188.6630  175.4400  143.1770 C   0  0  2  0  0  3  0  0  0  0  0  0
  187.5810  176.0430  144.0660 C   0  0  0  0  0  2  0  0  0  0  0  0
  186.2660  176.1030  143.2980 C   0  0  0  0  0  2  0  0  0  0  0  0
  187.0370  177.9250  140.0530 O   0  0  0  0  0  0  0  0  0  0  0  0
  186.7080  177.0270  139.1410 O   0  0  0  0  0  1  0  0  0  0  0  0
  184.2510  178.0980  143.2240 N   0  0  0  0  0  2  0  0  0  0  0  0
  184.2680  179.0200  144.3500 C   0  0  0  0  0  2  0  0  0  0  0  0
  185.5700  176.9830  147.4010 C   0  0  0  0  0  2  0  0  0  0  0  0
  186.7060  177.9720  147.7080 C   0  0  0  0  0  2  0  0  0  0  0  0
  185.2950  178.5640  145.3680 C   0  0  2  0  0  3  0  0  0  0  0  0
  184.8160  177.2900  146.0880 C   0  0  0  0  0  2  0  0  0  0  0  0
  185.5680  179.6650  146.3560 C   0  0  0  0  0  3  0  0  0  0  0  0
  186.2440  179.3830  147.4740 C   0  0  0  0  0  3  0  0  0  0  0  0
  1  6  1  0  0  0  0
  2  7  1  0  0  0  0
  3  5  2  0  0  0  0
  5  4  1  0  0  0  0
  6  2  2  0  0  0  0
  6  3  1  0  0  0  0
  7  4  2  0  0  0  0
  9  3  1  0  0  0  0
  9  8  1  1  0  0  0
 10 13  1  6  0  0  0
 10 12  1  0  0  0  0
 10  9  1  0  0  0  0
 11 12  1  0  0  0  0
 15 14  1  6  0  0  0
 15 13  1  0  0  0  0
 16 17  1  1  0  0  0
 16 15  1  0  0  0  0
 19 16  1  0  0  0  0
 19 18  1  1  0  0  0
 20 22  1  0  0  0  0
 20 21  1  0  0  0  0
 21 19  1  1  0  0  0
 23 20  1  0  0  0  0
 23 21  1  0  0  0  0
 25 27  1  0  0  0  0
 26 27  1  6  0  0  0
 27 24  1  0  0  0  0
 28 27  1  0  0  0  0
 28  1  1  1  0  0  0
 28 26  1  0  0  0  0
 29 31  2  0  0  0  0
 29 39  1  0  0  0  0
 31 36  1  0  0  0  0
 32 37  1  6  0  0  0
 32 33  1  0  0  0  0
 32 31  1  0  0  0  0
 33 30  1  0  0  0  0
 34 30  1  1  0  0  0
 34 26  1  0  0  0  0
 34 35  1  0  0  0  0
 36 35  1  0  0  0  0
 38 37  1  0  0  0  0
 39 40  1  0  0  0  0
 41 42  1  0  0  0  0
 43 40  1  6  0  0  0
 43 44  1  0  0  0  0
 43 45  1  0  0  0  0
 44 41  1  0  0  0  0
 45 46  2  0  0  0  0
 46 42  1  0  0  0  0
M  END
>  <MODEL>
8

>  <REMARK>
 VINA RESULT:      -5.7      2.532      4.562
  Name = 
  15 active torsions:
  status: ('A' for Active; 'I' for Inactive)
    1  A    between atoms: C_4  and  N_29
    2  A    between atoms: C_5  and  C_46
    3  A    between atoms: N_7  and  C_25
    4  A    between atoms: N_7  and  C_41
    5  A    between atoms: C_9  and  O_15
    6  A    between atoms: C_12  and  C_31
    7  A    between atoms: C_12  and  C_45
    8  A    between atoms: C_16  and  C_22
    9  A    between atoms: C_19  and  C_21
   10  A    between atoms: C_19  and  N_29
   11  A    between atoms: C_28  and  C_37
   12  A    between atoms: C_28  and  C_38
   13  A    between atoms: C_28  and  C_46
   14  A    between atoms: C_31  and  C_38
   15  A    between atoms: C_32  and  C_45
                            x       y       z     vdW  Elec       q    Type
                         _______ _______ _______ _____ _____    ______ ____

>  <TORSDO>
F 15

$$$$
=
 OpenBabel11062422503D

 46 50  0  0  1  0  0  0  0  0999 V2000
  193.2870  176.1260  144.7290 N   0  0  0  0  0  2  0  0  0  0  0  0
  195.3100  175.2730  145.8540 C   0  0  0  0  0  3  0  0  0  0  0  0
  194.4700  174.1190  143.9190 C   0  0  0  0  0  0  0  0  0  0  0  0
  196.3830  173.3200  145.0720 C   0  0  0  0  0  3  0  0  0  0  0  0
  195.4720  173.2110  144.0700 N   0  0  0  0  0  0  0  0  0  0  0  0
  194.3560  175.1800  144.8340 C   0  0  0  0  0  0  0  0  0  0  0  0
  196.3010  174.3500  145.9530 N   0  0  0  0  0  0  0  0  0  0  0  0
  192.8120  172.6840  142.8710 N   0  0  0  0  0  1  0  0  0  0  0  0
  193.4810  173.9720  142.8020 C   0  0  2  0  0  3  0  0  0  0  0  0
  194.0860  174.2390  141.4180 C   0  0  2  0  0  3  0  0  0  0  0  0
  196.5430  175.0830  140.5250 S   0  0  0  0  0  1  0  0  0  0  0  0
  195.0110  175.4520  141.4290 C   0  0  0  0  0  2  0  0  0  0  0  0
  193.0770  174.1990  140.2530 C   0  0  0  0  0  2  0  0  0  0  0  0
  194.0110  172.9570  138.3980 O   0  0  0  0  0  1  0  0  0  0  0  0
  193.0710  172.9100  139.4300 C   0  0  2  0  0  3  0  0  0  0  0  0
  191.6710  172.6170  138.8830 C   0  0  2  0  0  3  0  0  0  0  0  0
  191.1510  173.7810  138.3110 O   0  0  0  0  0  1  0  0  0  0  0  0
  190.3110  170.7500  139.6690 O   0  0  0  0  0  1  0  0  0  0  0  0
  190.6950  172.0730  139.9400 C   0  0  2  0  0  3  0  0  0  0  0  0
  188.7350  172.8510  141.4630 N   0  0  0  0  0  0  0  0  0  0  0  0
  189.4960  173.0300  140.1930 C   0  0  1  0  0  3  0  0  0  0  0  0
  189.3320  171.9120  142.4050 C   0  0  0  0  0  1  0  0  0  0  0  0
  189.6970  173.9560  141.3090 C   0  0  0  0  0  2  0  0  0  0  0  0
  191.6940  175.2980  146.8590 C   0  0  0  0  0  1  0  0  0  0  0  0
  190.0290  174.2820  145.1350 C   0  0  0  0  0  1  0  0  0  0  0  0
  190.9340  176.7440  144.8690 C   0  0  1  0  0  3  0  0  0  0  0  0
  191.0590  175.3490  145.4800 C   0  0  0  0  0  0  0  0  0  0  0  0
  191.9440  175.7490  144.3020 C   0  0  2  0  0  3  0  0  0  0  0  0
  185.6120  177.5910  142.6230 C   0  0  0  0  0  3  0  0  0  0  0  0
  190.1030  177.8400  142.7690 C   0  0  0  0  0  2  0  0  0  0  0  0
  186.8640  177.1610  142.8060 C   0  0  0  0  0  0  0  0  0  0  0  0
  187.8740  177.2080  141.6810 C   0  0  2  0  0  3  0  0  0  0  0  0
  188.9220  178.3040  141.9090 C   0  0  0  0  0  2  0  0  0  0  0  0
  189.7500  176.8840  143.9180 C   0  0  2  0  0  3  0  0  0  0  0  0
  188.5120  177.3320  144.6890 C   0  0  0  0  0  2  0  0  0  0  0  0
  187.2840  176.6140  144.1410 C   0  0  0  0  0  2  0  0  0  0  0  0
  187.2950  177.2440  140.3930 O   0  0  0  0  0  0  0  0  0  0  0  0
  187.4560  176.0480  139.8550 O   0  0  0  0  0  1  0  0  0  0  0  0
  184.6470  177.5460  143.6700 N   0  0  0  0  0  2  0  0  0  0  0  0
  184.2910  178.7580  144.3940 C   0  0  0  0  0  2  0  0  0  0  0  0
  186.6010  179.0100  147.5170 C   0  0  0  0  0  2  0  0  0  0  0  0
  185.8480  177.9150  148.2910 C   0  0  0  0  0  2  0  0  0  0  0  0
  184.6540  178.6030  145.8590 C   0  0  2  0  0  3  0  0  0  0  0  0
  185.9190  179.4160  146.1920 C   0  0  0  0  0  2  0  0  0  0  0  0
  184.8490  177.1490  146.1910 C   0  0  0  0  0  3  0  0  0  0  0  0
  185.4180  176.8200  147.3550 C   0  0  0  0  0  3  0  0  0  0  0  0
  1  6  1  0  0  0  0
  2  7  1  0  0  0  0
  3  5  2  0  0  0  0
  3  6  1  0  0  0  0
  4  7  2  0  0  0  0
  5  4  1  0  0  0  0
  6  2  2  0  0  0  0
  9  8  1  6  0  0  0
  9  3  1  0  0  0  0
 10 13  1  6  0  0  0
 10 12  1  0  0  0  0
 10  9  1  0  0  0  0
 11 12  1  0  0  0  0
 15 14  1  6  0  0  0
 15 13  1  0  0  0  0
 16 17  1  1  0  0  0
 16 15  1  0  0  0  0
 16 19  1  0  0  0  0
 19 18  1  6  0  0  0
 20 22  1  0  0  0  0
 21 19  1  1  0  0  0
 21 23  1  0  0  0  0
 21 20  1  0  0  0  0
 23 20  1  0  0  0  0
 25 27  1  0  0  0  0
 26 27  1  1  0  0  0
 27 24  1  0  0  0  0
 28  1  1  1  0  0  0
 28 26  1  0  0  0  0
 28 27  1  0  0  0  0
 29 31  2  0  0  0  0
 29 39  1  0  0  0  0
 31 36  1  0  0  0  0
 32 37  1  6  0  0  0
 32 33  1  0  0  0  0
 32 31  1  0  0  0  0
 33 30  1  0  0  0  0
 34 30  1  6  0  0  0
 34 35  1  0  0  0  0
 34 26  1  0  0  0  0
 36 35  1  0  0  0  0
 38 37  1  0  0  0  0
 39 40  1  0  0  0  0
 41 42  1  0  0  0  0
 43 40  1  6  0  0  0
 43 45  1  0  0  0  0
 43 44  1  0  0  0  0
 44 41  1  0  0  0  0
 45 46  2  0  0  0  0
 46 42  1  0  0  0  0
M  END
>  <MODEL>
9

>  <REMARK>
 VINA RESULT:      -5.7      2.588      4.338
  Name = 
  15 active torsions:
  status: ('A' for Active; 'I' for Inactive)
    1  A    between atoms: C_4  and  N_29
    2  A    between atoms: C_5  and  C_46
    3  A    between atoms: N_7  and  C_25
    4  A    between atoms: N_7  and  C_41
    5  A    between atoms: C_9  and  O_15
    6  A    between atoms: C_12  and  C_31
    7  A    between atoms: C_12  and  C_45
    8  A    between atoms: C_16  and  C_22
    9  A    between atoms: C_19  and  C_21
   10  A    between atoms: C_19  and  N_29
   11  A    between atoms: C_28  and  C_37
   12  A    between atoms: C_28  and  C_38
   13  A    between atoms: C_28  and  C_46
   14  A    between atoms: C_31  and  C_38
   15  A    between atoms: C_32  and  C_45
                            x       y       z     vdW  Elec       q    Type
                         _______ _______ _______ _____ _____    ______ ____

>  <TORSDO>
F 15

$$$$
