=
 OpenBabel11062419573D

 28 30  0  0  1  0  0  0  0  0999 V2000
  185.8250  178.0400  140.1410 N   0  0  0  0  0  2  0  0  0  0  0  0
  184.6370  177.8670  140.9750 C   0  0  2  0  0  3  0  0  0  0  0  0
  183.5370  178.6250  140.4030 N   0  0  0  0  0  1  0  0  0  0  0  0
  186.2120  178.2580  142.9120 C   0  0  0  0  0  0  0  0  0  0  0  0
  183.8670  178.6630  143.2080 N   0  0  0  0  0  0  0  0  0  0  0  0
  185.3500  179.0100  145.0480 C   0  0  0  0  0  0  0  0  0  0  0  0
  186.9110  177.2550  140.7210 C   0  0  0  0  0  2  0  0  0  0  0  0
  187.3810  177.9030  142.0260 C   0  0  2  0  0  3  0  0  0  0  0  0
  184.0620  179.0170  144.5070 C   0  0  0  0  0  3  0  0  0  0  0  0
  184.9020  178.3090  142.3950 C   0  0  0  0  0  0  0  0  0  0  0  0
  186.4270  178.6340  144.2430 C   0  0  0  0  0  3  0  0  0  0  0  0
  185.5760  179.4290  146.4620 C   0  0  0  0  0  2  0  0  0  0  0  0
  185.0720  178.3710  147.4320 C   0  0  0  0  0  2  0  0  0  0  0  0
  186.2070  177.4620  147.8710 C   0  0  0  0  0  2  0  0  0  0  0  0
  187.7280  176.2720  146.8050 C   0  0  0  0  0  1  0  0  0  0  0  0
  186.3480  176.4180  146.9570 O   0  0  0  0  0  0  0  0  0  0  0  0
  188.2480  177.0290  142.6900 O   0  0  0  0  0  0  0  0  0  0  0  0
  189.5250  177.5530  142.4730 C   0  0  0  0  0  2  0  0  0  0  0  0
  191.9260  174.7300  142.8540 C   0  0  0  0  0  3  0  0  0  0  0  0
  190.5460  176.6480  143.0780 C   0  0  0  0  0  0  0  0  0  0  0  0
  190.4150  177.8580  145.1650 O   0  0  0  0  0  1  0  0  0  0  0  0
  191.8920  175.9160  144.9710 C   0  0  0  0  0  0  0  0  0  0  0  0
  191.0310  175.6130  142.3420 N   0  0  0  0  0  0  0  0  0  0  0  0
  190.9530  176.8160  144.4120 C   0  0  0  0  0  0  0  0  0  0  0  0
  192.3690  174.8660  144.1690 C   0  0  0  0  0  3  0  0  0  0  0  0
  193.6350  176.6010  146.6930 C   0  0  0  0  0  1  0  0  0  0  0  0
  192.3470  176.0230  146.3380 N   0  0  0  0  0  0  0  0  0  0  0  0
  191.5580  175.4690  147.4280 C   0  0  0  0  0  1  0  0  0  0  0  0
  1  7  1  0  0  0  0
  1  2  1  0  0  0  0
  2  3  1  6  0  0  0
  2 10  1  0  0  0  0
  4 11  1  0  0  0  0
  5  9  2  0  0  0  0
  6 12  1  0  0  0  0
  7  8  1  0  0  0  0
  8 17  1  1  0  0  0
  8  4  1  0  0  0  0
  9  6  1  0  0  0  0
 10  4  2  0  0  0  0
 10  5  1  0  0  0  0
 11  6  2  0  0  0  0
 12 13  1  0  0  0  0
 13 14  1  0  0  0  0
 15 16  1  0  0  0  0
 16 14  1  0  0  0  0
 18 17  1  0  0  0  0
 18 20  1  0  0  0  0
 19 25  1  0  0  0  0
 20 24  2  0  0  0  0
 22 27  1  0  0  0  0
 23 19  2  0  0  0  0
 23 20  1  0  0  0  0
 24 22  1  0  0  0  0
 24 21  1  0  0  0  0
 25 22  2  0  0  0  0
 27 26  1  0  0  0  0
 27 28  1  0  0  0  0
M  END
>  <MODEL>
1

>  <REMARK>
 VINA RESULT:      -6.7      0.000      0.000
  Name = 
  8 active torsions:
  status: ('A' for Active; 'I' for Inactive)
    1  A    between atoms: C_3  and  C_18
    2  A    between atoms: C_7  and  N_8
    3  A    between atoms: O_12  and  C_26
    4  A    between atoms: C_13  and  C_15
    5  A    between atoms: C_13  and  C_16
    6  A    between atoms: C_15  and  C_26
    7  A    between atoms: C_18  and  O_25
    8  A    between atoms: C_23  and  O_25
                            x       y       z     vdW  Elec       q    Type
                         _______ _______ _______ _____ _____    ______ ____

>  <TORSDO>
F 8

$$$$
=
 OpenBabel11062419573D

 28 30  0  0  1  0  0  0  0  0999 V2000
  185.4290  178.6640  146.0080 N   0  0  0  0  0  2  0  0  0  0  0  0
  185.9070  179.3020  144.7830 C   0  0  2  0  0  3  0  0  0  0  0  0
  184.8260  180.0750  144.1930 N   0  0  0  0  0  1  0  0  0  0  0  0
  186.9320  177.0500  144.2720 C   0  0  0  0  0  0  0  0  0  0  0  0
  186.4860  178.5710  142.4720 N   0  0  0  0  0  0  0  0  0  0  0  0
  187.4770  176.4520  141.9880 C   0  0  0  0  0  0  0  0  0  0  0  0
  186.5340  177.9110  146.5940 C   0  0  0  0  0  2  0  0  0  0  0  0
  186.8430  176.6840  145.7340 C   0  0  2  0  0  3  0  0  0  0  0  0
  186.9910  177.6910  141.5650 C   0  0  0  0  0  3  0  0  0  0  0  0
  186.4220  178.2770  143.8010 C   0  0  0  0  0  0  0  0  0  0  0  0
  187.4400  176.1320  143.3470 C   0  0  0  0  0  3  0  0  0  0  0  0
  188.0020  175.4690  140.9960 C   0  0  0  0  0  2  0  0  0  0  0  0
  188.5070  174.2110  141.6880 C   0  0  0  0  0  2  0  0  0  0  0  0
  190.0190  174.1130  141.5850 C   0  0  0  0  0  2  0  0  0  0  0  0
  190.0000  173.5740  143.7240 C   0  0  0  0  0  1  0  0  0  0  0  0
  190.5920  174.4480  142.8120 O   0  0  0  0  0  0  0  0  0  0  0  0
  188.0400  176.1060  146.1650 O   0  0  0  0  0  0  0  0  0  0  0  0
  188.8480  177.1830  146.5350 C   0  0  0  0  0  2  0  0  0  0  0  0
  191.3730  177.8780  143.8850 C   0  0  0  0  0  3  0  0  0  0  0  0
  190.1260  177.1380  145.7640 C   0  0  0  0  0  0  0  0  0  0  0  0
  190.9940  175.4480  147.2560 O   0  0  0  0  0  1  0  0  0  0  0  0
  192.3410  176.2120  145.3600 C   0  0  0  0  0  0  0  0  0  0  0  0
  190.2540  177.9110  144.6520 N   0  0  0  0  0  0  0  0  0  0  0  0
  191.1580  176.2620  146.1360 C   0  0  0  0  0  0  0  0  0  0  0  0
  192.4290  177.0320  144.2240 C   0  0  0  0  0  3  0  0  0  0  0  0
  194.6270  175.7760  146.3890 C   0  0  0  0  0  1  0  0  0  0  0  0
  193.4390  175.3270  145.6800 N   0  0  0  0  0  0  0  0  0  0  0  0
  193.4360  173.9470  145.2190 C   0  0  0  0  0  1  0  0  0  0  0  0
  1  7  1  0  0  0  0
  2  3  1  6  0  0  0
  2  1  1  0  0  0  0
  4  8  1  0  0  0  0
  5 10  2  0  0  0  0
  6 11  1  0  0  0  0
  8 17  1  1  0  0  0
  8  7  1  0  0  0  0
  9  6  2  0  0  0  0
  9  5  1  0  0  0  0
 10  4  1  0  0  0  0
 10  2  1  0  0  0  0
 11  4  2  0  0  0  0
 12 13  1  0  0  0  0
 12  6  1  0  0  0  0
 14 13  1  0  0  0  0
 14 16  1  0  0  0  0
 16 15  1  0  0  0  0
 17 18  1  0  0  0  0
 19 25  2  0  0  0  0
 19 23  1  0  0  0  0
 20 24  1  0  0  0  0
 20 18  1  0  0  0  0
 22 27  1  0  0  0  0
 22 24  2  0  0  0  0
 23 20  2  0  0  0  0
 24 21  1  0  0  0  0
 25 22  1  0  0  0  0
 27 26  1  0  0  0  0
 28 27  1  0  0  0  0
M  END
>  <MODEL>
2

>  <REMARK>
 VINA RESULT:      -6.5      2.054      4.303
  Name = 
  8 active torsions:
  status: ('A' for Active; 'I' for Inactive)
    1  A    between atoms: C_3  and  C_18
    2  A    between atoms: C_7  and  N_8
    3  A    between atoms: O_12  and  C_26
    4  A    between atoms: C_13  and  C_15
    5  A    between atoms: C_13  and  C_16
    6  A    between atoms: C_15  and  C_26
    7  A    between atoms: C_18  and  O_25
    8  A    between atoms: C_23  and  O_25
                            x       y       z     vdW  Elec       q    Type
                         _______ _______ _______ _____ _____    ______ ____

>  <TORSDO>
F 8

$$$$
=
 OpenBabel11062419573D

 28 30  0  0  1  0  0  0  0  0999 V2000
  185.5310  178.2250  140.1320 N   0  0  0  0  0  2  0  0  0  0  0  0
  184.4070  177.9540  141.0260 C   0  0  2  0  0  3  0  0  0  0  0  0
  183.2300  178.6550  140.5410 N   0  0  0  0  0  1  0  0  0  0  0  0
  186.0650  178.3910  142.8820 C   0  0  0  0  0  0  0  0  0  0  0  0
  183.7200  178.6360  143.3230 N   0  0  0  0  0  0  0  0  0  0  0  0
  185.2840  179.0270  145.0860 C   0  0  0  0  0  0  0  0  0  0  0  0
  186.6960  177.4970  140.6250 C   0  0  0  0  0  2  0  0  0  0  0  0
  187.2010  178.1370  141.9210 C   0  0  2  0  0  3  0  0  0  0  0  0
  183.9690  178.9660  144.6190 C   0  0  0  0  0  3  0  0  0  0  0  0
  184.7260  178.3720  142.4410 C   0  0  0  0  0  0  0  0  0  0  0  0
  186.3330  178.7430  144.2100 C   0  0  0  0  0  3  0  0  0  0  0  0
  185.5660  179.4200  146.4970 C   0  0  0  0  0  2  0  0  0  0  0  0
  185.4840  178.2170  147.4260 C   0  0  0  0  0  2  0  0  0  0  0  0
  186.8590  177.6060  147.6320 C   0  0  0  0  0  2  0  0  0  0  0  0
  188.2430  176.4230  146.3850 C   0  0  0  0  0  1  0  0  0  0  0  0
  186.9520  176.4130  146.9140 O   0  0  0  0  0  0  0  0  0  0  0  0
  188.1570  177.3020  142.5070 O   0  0  0  0  0  0  0  0  0  0  0  0
  187.7450  176.0050  142.1940 C   0  0  0  0  0  2  0  0  0  0  0  0
  190.8120  174.2560  143.3830 C   0  0  0  0  0  3  0  0  0  0  0  0
  188.9220  175.0880  142.2120 C   0  0  0  0  0  0  0  0  0  0  0  0
  188.4770  174.4330  139.9300 O   0  0  0  0  0  1  0  0  0  0  0  0
  190.4120  173.5080  141.1100 C   0  0  0  0  0  0  0  0  0  0  0  0
  189.7030  175.0360  143.3250 N   0  0  0  0  0  0  0  0  0  0  0  0
  189.2650  174.3370  141.0750 C   0  0  0  0  0  0  0  0  0  0  0  0
  191.1840  173.4840  142.2830 C   0  0  0  0  0  3  0  0  0  0  0  0
  190.4450  171.3240  139.8060 C   0  0  0  0  0  1  0  0  0  0  0  0
  190.8290  172.7170  139.9740 N   0  0  0  0  0  0  0  0  0  0  0  0
  191.7370  173.2690  138.9800 C   0  0  0  0  0  1  0  0  0  0  0  0
  1  7  1  0  0  0  0
  1  2  1  0  0  0  0
  2  3  1  6  0  0  0
  2 10  1  0  0  0  0
  4 11  1  0  0  0  0
  5  9  2  0  0  0  0
  6 12  1  0  0  0  0
  7  8  1  0  0  0  0
  8 17  1  1  0  0  0
  8  4  1  0  0  0  0
  9  6  1  0  0  0  0
 10  4  2  0  0  0  0
 10  5  1  0  0  0  0
 11  6  2  0  0  0  0
 12 13  1  0  0  0  0
 13 14  1  0  0  0  0
 15 16  1  0  0  0  0
 16 14  1  0  0  0  0
 18 20  1  0  0  0  0
 18 17  1  0  0  0  0
 20 23  2  0  0  0  0
 21 24  1  0  0  0  0
 22 25  1  0  0  0  0
 23 19  1  0  0  0  0
 24 22  2  0  0  0  0
 24 20  1  0  0  0  0
 25 19  2  0  0  0  0
 26 27  1  0  0  0  0
 27 22  1  0  0  0  0
 28 27  1  0  0  0  0
M  END
>  <MODEL>
3

>  <REMARK>
 VINA RESULT:      -6.3      1.937      3.416
  Name = 
  8 active torsions:
  status: ('A' for Active; 'I' for Inactive)
    1  A    between atoms: C_3  and  C_18
    2  A    between atoms: C_7  and  N_8
    3  A    between atoms: O_12  and  C_26
    4  A    between atoms: C_13  and  C_15
    5  A    between atoms: C_13  and  C_16
    6  A    between atoms: C_15  and  C_26
    7  A    between atoms: C_18  and  O_25
    8  A    between atoms: C_23  and  O_25
                            x       y       z     vdW  Elec       q    Type
                         _______ _______ _______ _____ _____    ______ ____

>  <TORSDO>
F 8

$$$$
=
 OpenBabel11062419573D

 28 30  0  0  1  0  0  0  0  0999 V2000
  185.5870  177.9320  147.3730 N   0  0  0  0  0  2  0  0  0  0  0  0
  185.3200  178.9060  146.3170 C   0  0  2  0  0  3  0  0  0  0  0  0
  183.8870  178.9760  146.0830 N   0  0  0  0  0  1  0  0  0  0  0  0
  187.2400  177.7930  145.1080 C   0  0  0  0  0  0  0  0  0  0  0  0
  185.6090  179.0150  143.8440 N   0  0  0  0  0  0  0  0  0  0  0  0
  187.4350  177.9840  142.7000 C   0  0  0  0  0  0  0  0  0  0  0  0
  187.0280  177.8920  147.6060 C   0  0  0  0  0  2  0  0  0  0  0  0
  187.7300  177.2270  146.4190 C   0  0  2  0  0  3  0  0  0  0  0  0
  186.2670  178.7500  142.6830 C   0  0  0  0  0  3  0  0  0  0  0  0
  186.0460  178.5420  145.0440 C   0  0  0  0  0  0  0  0  0  0  0  0
  187.9170  177.5010  143.9190 C   0  0  0  0  0  3  0  0  0  0  0  0
  188.1440  177.6610  141.4280 C   0  0  0  0  0  2  0  0  0  0  0  0
  187.4740  176.4980  140.7110 C   0  0  0  0  0  2  0  0  0  0  0  0
  188.2380  175.2070  140.9520 C   0  0  0  0  0  2  0  0  0  0  0  0
  188.0990  173.1800  141.8130 C   0  0  0  0  0  1  0  0  0  0  0  0
  187.6140  174.4800  141.9670 O   0  0  0  0  0  0  0  0  0  0  0  0
  189.1110  177.4040  146.5400 O   0  0  0  0  0  0  0  0  0  0  0  0
  189.5600  176.2780  147.2340 C   0  0  0  0  0  2  0  0  0  0  0  0
  190.0580  173.3660  144.9640 C   0  0  0  0  0  3  0  0  0  0  0  0
  190.2160  175.3330  146.2830 C   0  0  0  0  0  0  0  0  0  0  0  0
  192.3010  176.5370  146.4880 O   0  0  0  0  0  1  0  0  0  0  0  0
  192.1780  174.5420  145.0760 C   0  0  0  0  0  0  0  0  0  0  0  0
  189.5020  174.2840  145.7950 N   0  0  0  0  0  0  0  0  0  0  0  0
  191.5730  175.4790  145.9470 C   0  0  0  0  0  0  0  0  0  0  0  0
  191.3970  173.4790  144.5930 C   0  0  0  0  0  3  0  0  0  0  0  0
  194.6300  173.9820  145.4550 C   0  0  0  0  0  1  0  0  0  0  0  0
  193.5700  174.6260  144.6960 N   0  0  0  0  0  0  0  0  0  0  0  0
  193.9810  175.4470  143.5670 C   0  0  0  0  0  1  0  0  0  0  0  0
  1  7  1  0  0  0  0
  2  3  1  6  0  0  0
  2  1  1  0  0  0  0
  4  8  1  0  0  0  0
  5 10  2  0  0  0  0
  6 11  1  0  0  0  0
  8 17  1  1  0  0  0
  8  7  1  0  0  0  0
  9  6  2  0  0  0  0
  9  5  1  0  0  0  0
 10  4  1  0  0  0  0
 10  2  1  0  0  0  0
 11  4  2  0  0  0  0
 12  6  1  0  0  0  0
 13 14  1  0  0  0  0
 13 12  1  0  0  0  0
 14 16  1  0  0  0  0
 15 16  1  0  0  0  0
 17 18  1  0  0  0  0
 19 23  1  0  0  0  0
 20 18  1  0  0  0  0
 22 24  2  0  0  0  0
 23 20  2  0  0  0  0
 24 20  1  0  0  0  0
 24 21  1  0  0  0  0
 25 19  2  0  0  0  0
 25 22  1  0  0  0  0
 27 22  1  0  0  0  0
 27 26  1  0  0  0  0
 28 27  1  0  0  0  0
M  END
>  <MODEL>
4

>  <REMARK>
 VINA RESULT:      -6.2      2.197      4.495
  Name = 
  8 active torsions:
  status: ('A' for Active; 'I' for Inactive)
    1  A    between atoms: C_3  and  C_18
    2  A    between atoms: C_7  and  N_8
    3  A    between atoms: O_12  and  C_26
    4  A    between atoms: C_13  and  C_15
    5  A    between atoms: C_13  and  C_16
    6  A    between atoms: C_15  and  C_26
    7  A    between atoms: C_18  and  O_25
    8  A    between atoms: C_23  and  O_25
                            x       y       z     vdW  Elec       q    Type
                         _______ _______ _______ _____ _____    ______ ____

>  <TORSDO>
F 8

$$$$
=
 OpenBabel11062419573D

 28 30  0  0  1  0  0  0  0  0999 V2000
  185.0990  178.8380  143.0100 N   0  0  0  0  0  2  0  0  0  0  0  0
  184.9310  178.0710  144.2430 C   0  0  2  0  0  3  0  0  0  0  0  0
  184.0090  178.7720  145.1210 N   0  0  0  0  0  1  0  0  0  0  0  0
  187.4460  177.8330  144.1750 C   0  0  0  0  0  0  0  0  0  0  0  0
  186.3010  177.5840  146.2670 N   0  0  0  0  0  0  0  0  0  0  0  0
  188.6760  177.3340  146.2020 C   0  0  0  0  0  0  0  0  0  0  0  0
  186.0110  178.1070  142.1350 C   0  0  0  0  0  2  0  0  0  0  0  0
  187.4320  178.1620  142.7020 C   0  0  2  0  0  3  0  0  0  0  0  0
  187.4720  177.3330  146.9120 C   0  0  0  0  0  3  0  0  0  0  0  0
  186.2570  177.8550  144.9320 C   0  0  0  0  0  0  0  0  0  0  0  0
  188.6590  177.5910  144.8300 C   0  0  0  0  0  3  0  0  0  0  0  0
  189.9680  177.0930  146.9080 C   0  0  0  0  0  2  0  0  0  0  0  0
  190.2570  175.6030  147.0240 C   0  0  0  0  0  2  0  0  0  0  0  0
  191.6930  175.3040  146.6300 C   0  0  0  0  0  2  0  0  0  0  0  0
  193.6720  176.2780  146.5870 C   0  0  0  0  0  1  0  0  0  0  0  0
  192.3320  176.4890  146.2610 O   0  0  0  0  0  0  0  0  0  0  0  0
  188.2470  177.2730  141.9950 O   0  0  0  0  0  0  0  0  0  0  0  0
  187.4620  176.1310  141.8140 C   0  0  0  0  0  2  0  0  0  0  0  0
  188.7590  173.8920  139.1340 C   0  0  0  0  0  3  0  0  0  0  0  0
  188.2660  175.0750  141.1320 C   0  0  0  0  0  0  0  0  0  0  0  0
  189.2780  174.4530  143.2360 O   0  0  0  0  0  1  0  0  0  0  0  0
  189.8580  173.2330  141.1950 C   0  0  0  0  0  0  0  0  0  0  0  0
  188.0910  174.8690  139.7990 N   0  0  0  0  0  0  0  0  0  0  0  0
  189.1410  174.2550  141.8630 C   0  0  0  0  0  0  0  0  0  0  0  0
  189.6490  173.0630  139.8170 C   0  0  0  0  0  3  0  0  0  0  0  0
  192.1190  172.7410  142.2510 C   0  0  0  0  0  1  0  0  0  0  0  0
  190.7670  172.3480  141.8860 N   0  0  0  0  0  0  0  0  0  0  0  0
  190.3880  170.9720  142.1710 C   0  0  0  0  0  1  0  0  0  0  0  0
  1  2  1  0  0  0  0
  2 10  1  0  0  0  0
  2  3  1  1  0  0  0
  4 11  2  0  0  0  0
  4 10  1  0  0  0  0
  5  9  1  0  0  0  0
  6 12  1  0  0  0  0
  6  9  2  0  0  0  0
  7  8  1  0  0  0  0
  7  1  1  0  0  0  0
  8 17  1  6  0  0  0
  8  4  1  0  0  0  0
 10  5  2  0  0  0  0
 11  6  1  0  0  0  0
 12 13  1  0  0  0  0
 14 13  1  0  0  0  0
 16 15  1  0  0  0  0
 16 14  1  0  0  0  0
 18 17  1  0  0  0  0
 19 23  2  0  0  0  0
 19 25  1  0  0  0  0
 20 18  1  0  0  0  0
 20 24  2  0  0  0  0
 22 24  1  0  0  0  0
 22 27  1  0  0  0  0
 23 20  1  0  0  0  0
 24 21  1  0  0  0  0
 25 22  2  0  0  0  0
 27 28  1  0  0  0  0
 27 26  1  0  0  0  0
M  END
>  <MODEL>
5

>  <REMARK>
 VINA RESULT:      -6.2      2.465      4.446
  Name = 
  8 active torsions:
  status: ('A' for Active; 'I' for Inactive)
    1  A    between atoms: C_3  and  C_18
    2  A    between atoms: C_7  and  N_8
    3  A    between atoms: O_12  and  C_26
    4  A    between atoms: C_13  and  C_15
    5  A    between atoms: C_13  and  C_16
    6  A    between atoms: C_15  and  C_26
    7  A    between atoms: C_18  and  O_25
    8  A    between atoms: C_23  and  O_25
                            x       y       z     vdW  Elec       q    Type
                         _______ _______ _______ _____ _____    ______ ____

>  <TORSDO>
F 8

$$$$
=
 OpenBabel11062419573D

 28 30  0  0  1  0  0  0  0  0999 V2000
  185.0570  178.8330  143.1680 N   0  0  0  0  0  2  0  0  0  0  0  0
  184.9390  178.0130  144.3720 C   0  0  2  0  0  3  0  0  0  0  0  0
  184.0430  178.6690  145.3100 N   0  0  0  0  0  1  0  0  0  0  0  0
  187.4520  177.8020  144.2080 C   0  0  0  0  0  0  0  0  0  0  0  0
  186.3820  177.4550  146.3270 N   0  0  0  0  0  0  0  0  0  0  0  0
  188.7550  177.2320  146.1700 C   0  0  0  0  0  0  0  0  0  0  0  0
  185.9450  178.1480  142.2330 C   0  0  0  0  0  2  0  0  0  0  0  0
  187.3840  178.1930  142.7520 C   0  0  2  0  0  3  0  0  0  0  0  0
  187.5770  177.1900  146.9190 C   0  0  0  0  0  3  0  0  0  0  0  0
  186.2900  177.7810  145.0060 C   0  0  0  0  0  0  0  0  0  0  0  0
  188.6880  177.5450  144.8100 C   0  0  0  0  0  3  0  0  0  0  0  0
  190.0730  176.9740  146.8200 C   0  0  0  0  0  2  0  0  0  0  0  0
  191.0010  176.2090  145.8880 C   0  0  0  0  0  2  0  0  0  0  0  0
  192.0780  175.4860  146.6780 C   0  0  0  0  0  2  0  0  0  0  0  0
  193.9840  176.5840  146.5060 C   0  0  0  0  0  1  0  0  0  0  0  0
  193.2760  175.5110  145.9640 O   0  0  0  0  0  0  0  0  0  0  0  0
  188.1810  177.3410  141.9810 O   0  0  0  0  0  0  0  0  0  0  0  0
  187.4360  176.1660  141.8550 C   0  0  0  0  0  2  0  0  0  0  0  0
  189.7740  173.5000  142.9970 C   0  0  0  0  0  3  0  0  0  0  0  0
  188.3560  174.9920  141.8140 C   0  0  0  0  0  0  0  0  0  0  0  0
  188.1920  174.9160  139.4050 O   0  0  0  0  0  1  0  0  0  0  0  0
  189.6290  173.3220  140.5810 C   0  0  0  0  0  0  0  0  0  0  0  0
  188.8950  174.5340  142.9760 N   0  0  0  0  0  0  0  0  0  0  0  0
  188.7210  174.4080  140.5900 C   0  0  0  0  0  0  0  0  0  0  0  0
  190.1540  172.8810  141.8070 C   0  0  0  0  0  3  0  0  0  0  0  0
  191.1900  173.1510  138.5790 C   0  0  0  0  0  1  0  0  0  0  0  0
  190.0550  172.6800  139.3580 N   0  0  0  0  0  0  0  0  0  0  0  0
  189.2980  171.5690  138.8020 C   0  0  0  0  0  1  0  0  0  0  0  0
  1  2  1  0  0  0  0
  2 10  1  0  0  0  0
  2  3  1  1  0  0  0
  4 11  2  0  0  0  0
  4 10  1  0  0  0  0
  5  9  1  0  0  0  0
  6 12  1  0  0  0  0
  6  9  2  0  0  0  0
  7  8  1  0  0  0  0
  7  1  1  0  0  0  0
  8 17  1  6  0  0  0
  8  4  1  0  0  0  0
 10  5  2  0  0  0  0
 11  6  1  0  0  0  0
 13 14  1  0  0  0  0
 13 12  1  0  0  0  0
 16 15  1  0  0  0  0
 16 14  1  0  0  0  0
 18 17  1  0  0  0  0
 20 18  1  0  0  0  0
 20 23  2  0  0  0  0
 21 24  1  0  0  0  0
 22 24  2  0  0  0  0
 22 25  1  0  0  0  0
 23 19  1  0  0  0  0
 24 20  1  0  0  0  0
 25 19  2  0  0  0  0
 26 27  1  0  0  0  0
 27 22  1  0  0  0  0
 28 27  1  0  0  0  0
M  END
>  <MODEL>
6

>  <REMARK>
 VINA RESULT:      -6.0      2.699      5.045
  Name = 
  8 active torsions:
  status: ('A' for Active; 'I' for Inactive)
    1  A    between atoms: C_3  and  C_18
    2  A    between atoms: C_7  and  N_8
    3  A    between atoms: O_12  and  C_26
    4  A    between atoms: C_13  and  C_15
    5  A    between atoms: C_13  and  C_16
    6  A    between atoms: C_15  and  C_26
    7  A    between atoms: C_18  and  O_25
    8  A    between atoms: C_23  and  O_25
                            x       y       z     vdW  Elec       q    Type
                         _______ _______ _______ _____ _____    ______ ____

>  <TORSDO>
F 8

$$$$
=
 OpenBabel11062419573D

 28 30  0  0  1  0  0  0  0  0999 V2000
  192.6540  174.5620  145.9160 N   0  0  0  0  0  2  0  0  0  0  0  0
  192.3270  175.9700  146.1310 C   0  0  2  0  0  3  0  0  0  0  0  0
  193.0950  176.4730  147.2570 N   0  0  0  0  0  1  0  0  0  0  0  0
  189.9290  175.2300  145.8370 C   0  0  0  0  0  0  0  0  0  0  0  0
  190.3920  177.2590  147.0280 N   0  0  0  0  0  0  0  0  0  0  0  0
  188.1230  176.5750  146.7320 C   0  0  0  0  0  0  0  0  0  0  0  0
  191.8870  174.0830  144.7690 C   0  0  0  0  0  2  0  0  0  0  0  0
  190.4050  173.9800  145.1390 C   0  0  2  0  0  3  0  0  0  0  0  0
  189.0650  177.4830  147.2220 C   0  0  0  0  0  3  0  0  0  0  0  0
  190.8480  176.1540  146.3750 C   0  0  0  0  0  0  0  0  0  0  0  0
  188.5610  175.4430  146.0430 C   0  0  0  0  0  3  0  0  0  0  0  0
  186.6670  176.7970  146.9690 C   0  0  0  0  0  2  0  0  0  0  0  0
  186.4230  178.1340  147.6540 C   0  0  0  0  0  2  0  0  0  0  0  0
  185.6040  179.0510  146.7620 C   0  0  0  0  0  2  0  0  0  0  0  0
  184.0380  179.0110  145.2090 C   0  0  0  0  0  1  0  0  0  0  0  0
  185.1960  178.3530  145.6250 O   0  0  0  0  0  0  0  0  0  0  0  0
  189.6550  173.7520  143.9820 O   0  0  0  0  0  0  0  0  0  0  0  0
  190.4080  174.3110  142.9470 C   0  0  0  0  0  2  0  0  0  0  0  0
  190.1090  178.0120  142.6390 C   0  0  0  0  0  3  0  0  0  0  0  0
  189.8550  175.6520  142.5950 C   0  0  0  0  0  0  0  0  0  0  0  0
  187.8300  174.6280  141.7670 O   0  0  0  0  0  1  0  0  0  0  0  0
  188.0620  177.0640  141.7450 C   0  0  0  0  0  0  0  0  0  0  0  0
  190.5790  176.7650  142.8930 N   0  0  0  0  0  0  0  0  0  0  0  0
  188.5760  175.7760  142.0280 C   0  0  0  0  0  0  0  0  0  0  0  0
  188.8490  178.1820  142.0650 C   0  0  0  0  0  3  0  0  0  0  0  0
  185.5650  177.4880  141.9840 C   0  0  0  0  0  1  0  0  0  0  0  0
  186.7510  177.2640  141.1710 N   0  0  0  0  0  0  0  0  0  0  0  0
  186.5470  177.1610  139.7340 C   0  0  0  0  0  1  0  0  0  0  0  0
  1  2  1  0  0  0  0
  2 10  1  0  0  0  0
  2  3  1  1  0  0  0
  4 11  2  0  0  0  0
  4 10  1  0  0  0  0
  5  9  1  0  0  0  0
  6 12  1  0  0  0  0
  6  9  2  0  0  0  0
  7  8  1  0  0  0  0
  7  1  1  0  0  0  0
  8 17  1  6  0  0  0
  8  4  1  0  0  0  0
 10  5  2  0  0  0  0
 11  6  1  0  0  0  0
 12 13  1  0  0  0  0
 14 13  1  0  0  0  0
 15 16  1  0  0  0  0
 16 14  1  0  0  0  0
 18 17  1  0  0  0  0
 19 23  1  0  0  0  0
 20 23  2  0  0  0  0
 20 18  1  0  0  0  0
 21 24  1  0  0  0  0
 22 24  2  0  0  0  0
 22 25  1  0  0  0  0
 24 20  1  0  0  0  0
 25 19  2  0  0  0  0
 27 22  1  0  0  0  0
 27 26  1  0  0  0  0
 28 27  1  0  0  0  0
M  END
>  <MODEL>
7

>  <REMARK>
 VINA RESULT:      -6.0      1.897      6.107
  Name = 
  8 active torsions:
  status: ('A' for Active; 'I' for Inactive)
    1  A    between atoms: C_3  and  C_18
    2  A    between atoms: C_7  and  N_8
    3  A    between atoms: O_12  and  C_26
    4  A    between atoms: C_13  and  C_15
    5  A    between atoms: C_13  and  C_16
    6  A    between atoms: C_15  and  C_26
    7  A    between atoms: C_18  and  O_25
    8  A    between atoms: C_23  and  O_25
                            x       y       z     vdW  Elec       q    Type
                         _______ _______ _______ _____ _____    ______ ____

>  <TORSDO>
F 8

$$$$
=
 OpenBabel11062419573D

 28 30  0  0  1  0  0  0  0  0999 V2000
  189.9310  174.4700  141.8650 N   0  0  0  0  0  2  0  0  0  0  0  0
  188.5500  174.2430  142.2880 C   0  0  2  0  0  3  0  0  0  0  0  0
  187.7990  173.6720  141.1830 N   0  0  0  0  0  1  0  0  0  0  0  0
  188.7090  176.5590  143.2860 C   0  0  0  0  0  0  0  0  0  0  0  0
  186.5510  175.6540  142.7610 N   0  0  0  0  0  0  0  0  0  0  0  0
  186.6960  177.8340  143.7270 C   0  0  0  0  0  0  0  0  0  0  0  0
  190.6710  175.0240  142.9950 C   0  0  0  0  0  2  0  0  0  0  0  0
  190.2150  176.4600  143.2640 C   0  0  2  0  0  3  0  0  0  0  0  0
  185.9360  176.7760  143.2240 C   0  0  0  0  0  3  0  0  0  0  0  0
  187.9070  175.5270  142.7570 C   0  0  0  0  0  0  0  0  0  0  0  0
  188.0880  177.7240  143.7510 C   0  0  0  0  0  3  0  0  0  0  0  0
  186.0300  179.0810  144.2050 C   0  0  0  0  0  2  0  0  0  0  0  0
  184.6030  178.8000  144.6520 C   0  0  0  0  0  2  0  0  0  0  0  0
  184.5380  178.6290  146.1600 C   0  0  0  0  0  2  0  0  0  0  0  0
  185.9160  178.2210  147.8340 C   0  0  0  0  0  1  0  0  0  0  0  0
  185.7390  179.0560  146.7300 O   0  0  0  0  0  0  0  0  0  0  0  0
  190.7510  176.8960  144.4790 O   0  0  0  0  0  0  0  0  0  0  0  0
  191.9430  177.5390  144.1370 C   0  0  0  0  0  2  0  0  0  0  0  0
  194.3160  175.9380  146.5220 C   0  0  0  0  0  3  0  0  0  0  0  0
  193.1010  176.7510  144.6510 C   0  0  0  0  0  0  0  0  0  0  0  0
  193.9050  176.4170  142.3980 O   0  0  0  0  0  1  0  0  0  0  0  0
  195.1690  175.5160  144.2900 C   0  0  0  0  0  0  0  0  0  0  0  0
  193.2570  176.6050  145.9950 N   0  0  0  0  0  0  0  0  0  0  0  0
  194.0590  176.2230  143.7690 C   0  0  0  0  0  0  0  0  0  0  0  0
  195.2840  175.3860  145.6840 C   0  0  0  0  0  3  0  0  0  0  0  0
  196.1830  173.5660  143.0090 C   0  0  0  0  0  1  0  0  0  0  0  0
  196.1960  174.9550  143.4410 N   0  0  0  0  0  0  0  0  0  0  0  0
  197.3490  175.7510  143.0500 C   0  0  0  0  0  1  0  0  0  0  0  0
  1  2  1  0  0  0  0
  1  7  1  0  0  0  0
  2  3  1  6  0  0  0
  2 10  1  0  0  0  0
  4 11  1  0  0  0  0
  5  9  2  0  0  0  0
  6 11  2  0  0  0  0
  6 12  1  0  0  0  0
  7  8  1  0  0  0  0
  8  4  1  0  0  0  0
  8 17  1  1  0  0  0
  9  6  1  0  0  0  0
 10  5  1  0  0  0  0
 10  4  2  0  0  0  0
 12 13  1  0  0  0  0
 13 14  1  0  0  0  0
 14 16  1  0  0  0  0
 16 15  1  0  0  0  0
 18 17  1  0  0  0  0
 18 20  1  0  0  0  0
 20 23  2  0  0  0  0
 21 24  1  0  0  0  0
 22 25  1  0  0  0  0
 23 19  1  0  0  0  0
 24 22  2  0  0  0  0
 24 20  1  0  0  0  0
 25 19  2  0  0  0  0
 26 27  1  0  0  0  0
 27 22  1  0  0  0  0
 28 27  1  0  0  0  0
M  END
>  <MODEL>
8

>  <REMARK>
 VINA RESULT:      -5.9      2.580      4.088
  Name = 
  8 active torsions:
  status: ('A' for Active; 'I' for Inactive)
    1  A    between atoms: C_3  and  C_18
    2  A    between atoms: C_7  and  N_8
    3  A    between atoms: O_12  and  C_26
    4  A    between atoms: C_13  and  C_15
    5  A    between atoms: C_13  and  C_16
    6  A    between atoms: C_15  and  C_26
    7  A    between atoms: C_18  and  O_25
    8  A    between atoms: C_23  and  O_25
                            x       y       z     vdW  Elec       q    Type
                         _______ _______ _______ _____ _____    ______ ____

>  <TORSDO>
F 8

$$$$
=
 OpenBabel11062419573D

 28 30  0  0  1  0  0  0  0  0999 V2000
  193.7300  176.0880  146.1450 N   0  0  0  0  0  2  0  0  0  0  0  0
  193.9070  174.6420  146.0260 C   0  0  2  0  0  3  0  0  0  0  0  0
  195.1010  174.3700  145.2440 N   0  0  0  0  0  1  0  0  0  0  0  0
  191.4320  174.6040  145.5150 C   0  0  0  0  0  0  0  0  0  0  0  0
  192.8100  172.7850  144.7770 N   0  0  0  0  0  0  0  0  0  0  0  0
  190.4670  172.7340  144.3140 C   0  0  0  0  0  0  0  0  0  0  0  0
  192.5380  176.3390  146.9500 C   0  0  0  0  0  2  0  0  0  0  0  0
  191.2840  175.9620  146.1570 C   0  0  2  0  0  3  0  0  0  0  0  0
  191.7340  172.1510  144.2370 C   0  0  0  0  0  3  0  0  0  0  0  0
  192.6990  173.9980  145.3890 C   0  0  0  0  0  0  0  0  0  0  0  0
  190.3210  173.9680  144.9510 C   0  0  0  0  0  3  0  0  0  0  0  0
  189.2880  172.0610  143.6950 C   0  0  0  0  0  2  0  0  0  0  0  0
  188.7270  172.8890  142.5480 C   0  0  0  0  0  2  0  0  0  0  0  0
  189.5450  172.6810  141.2860 C   0  0  0  0  0  2  0  0  0  0  0  0
  188.6260  174.0750  139.8440 C   0  0  0  0  0  1  0  0  0  0  0  0
  188.7040  172.7210  140.1730 O   0  0  0  0  0  0  0  0  0  0  0  0
  190.1750  175.9810  147.0080 O   0  0  0  0  0  0  0  0  0  0  0  0
  189.6590  177.2740  146.8990 C   0  0  0  0  0  2  0  0  0  0  0  0
  185.9810  176.7460  146.6160 C   0  0  0  0  0  3  0  0  0  0  0  0
  188.2880  177.2170  146.3110 C   0  0  0  0  0  0  0  0  0  0  0  0
  189.1710  177.7830  144.1350 O   0  0  0  0  0  1  0  0  0  0  0  0
  186.7770  177.3550  144.4060 C   0  0  0  0  0  0  0  0  0  0  0  0
  187.2430  176.8600  147.1050 N   0  0  0  0  0  0  0  0  0  0  0  0
  188.0830  177.4580  144.9430 C   0  0  0  0  0  0  0  0  0  0  0  0
  185.7290  176.9900  145.2670 C   0  0  0  0  0  3  0  0  0  0  0  0
  186.7560  176.5790  141.9830 C   0  0  0  0  0  1  0  0  0  0  0  0
  186.4960  177.5810  143.0060 N   0  0  0  0  0  0  0  0  0  0  0  0
  186.0150  178.8750  142.5470 C   0  0  0  0  0  1  0  0  0  0  0  0
  1  7  1  0  0  0  0
  2  3  1  6  0  0  0
  2  1  1  0  0  0  0
  4  8  1  0  0  0  0
  5 10  2  0  0  0  0
  6 11  1  0  0  0  0
  8  7  1  0  0  0  0
  8 17  1  1  0  0  0
  9  6  2  0  0  0  0
  9  5  1  0  0  0  0
 10  4  1  0  0  0  0
 10  2  1  0  0  0  0
 11  4  2  0  0  0  0
 12  6  1  0  0  0  0
 13 12  1  0  0  0  0
 14 13  1  0  0  0  0
 15 16  1  0  0  0  0
 16 14  1  0  0  0  0
 18 17  1  0  0  0  0
 19 23  1  0  0  0  0
 20 18  1  0  0  0  0
 20 23  2  0  0  0  0
 21 24  1  0  0  0  0
 22 24  2  0  0  0  0
 22 25  1  0  0  0  0
 24 20  1  0  0  0  0
 25 19  2  0  0  0  0
 26 27  1  0  0  0  0
 27 22  1  0  0  0  0
 28 27  1  0  0  0  0
M  END
>  <MODEL>
9

>  <REMARK>
 VINA RESULT:      -5.9      2.717      7.868
  Name = 
  8 active torsions:
  status: ('A' for Active; 'I' for Inactive)
    1  A    between atoms: C_3  and  C_18
    2  A    between atoms: C_7  and  N_8
    3  A    between atoms: O_12  and  C_26
    4  A    between atoms: C_13  and  C_15
    5  A    between atoms: C_13  and  C_16
    6  A    between atoms: C_15  and  C_26
    7  A    between atoms: C_18  and  O_25
    8  A    between atoms: C_23  and  O_25
                            x       y       z     vdW  Elec       q    Type
                         _______ _______ _______ _____ _____    ______ ____

>  <TORSDO>
F 8

$$$$
