=
 OpenBabel11062421003D

 38 41  0  0  1  0  0  0  0  0999 V2000
  189.3800  175.5920  144.2690 C   0  0  1  0  0  3  0  0  0  0  0  0
  183.8990  178.9300  145.5300 C   0  0  0  0  0  3  0  0  0  0  0  0
  186.0940  177.2660  145.4940 C   0  0  0  0  0  0  0  0  0  0  0  0
  188.1770  177.6990  143.5630 C   0  0  0  0  0  2  0  0  0  0  0  0
  184.1180  178.0200  146.5630 C   0  0  0  0  0  3  0  0  0  0  0  0
  187.3220  176.4020  145.5390 C   0  0  0  0  0  2  0  0  0  0  0  0
  185.2090  177.2130  146.5240 N   0  0  0  0  0  0  0  0  0  0  0  0
  186.7960  178.2750  143.2680 C   0  0  0  0  0  2  0  0  0  0  0  0
  188.0310  176.3140  144.1840 C   0  0  2  0  0  3  0  0  0  0  0  0
  185.8870  178.2060  144.4620 C   0  0  0  0  0  0  0  0  0  0  0  0
  184.7850  179.0000  144.5020 N   0  0  0  0  0  0  0  0  0  0  0  0
  191.4790  174.1750  141.4520 C   0  0  0  0  0  0  0  0  0  0  0  0
  191.1160  174.8320  142.6290 C   0  0  0  0  0  3  0  0  0  0  0  0
  189.7700  174.8830  142.9990 C   0  0  0  0  0  0  0  0  0  0  0  0
  188.0210  172.8570  139.9890 Cl  0  0  0  0  0  0  0  0  0  0  0  0
  193.1610  174.1030  140.9750 Cl  0  0  0  0  0  0  0  0  0  0  0  0
  190.5270  173.5880  140.6770 N   0  0  0  0  0  0  0  0  0  0  0  0
  188.8070  174.2740  142.1850 C   0  0  0  0  0  3  0  0  0  0  0  0
  189.2110  173.6240  141.0170 C   0  0  0  0  0  0  0  0  0  0  0  0
  190.4010  176.4930  144.6860 O   0  0  0  0  0  0  0  0  0  0  0  0
  190.7130  176.6970  146.0330 C   0  0  0  0  0  0  0  0  0  0  0  0
  190.1030  177.5680  146.7110 O   0  0  0  0  0  0  0  0  0  0  0  0
  191.2300  175.3340  148.0120 C   0  0  0  0  0  1  0  0  0  0  0  0
  191.7560  175.8570  146.6900 C   0  0  1  0  0  3  0  0  0  0  0  0
  192.0980  174.7810  145.8650 O   0  0  0  0  0  0  0  0  0  0  0  0
  193.4920  174.6930  145.9280 C   0  0  2  0  0  3  0  0  0  0  0  0
  195.4430  174.3620  144.3040 C   0  0  0  0  0  2  0  0  0  0  0  0
  194.4830  176.5670  144.7680 O   0  0  0  0  0  0  0  0  0  0  0  0
  194.0860  176.1040  146.0340 C   0  0  0  0  0  2  0  0  0  0  0  0
  194.0150  173.9540  144.6840 C   0  0  1  0  0  3  0  0  0  0  0  0
  195.6720  175.8770  144.4590 C   0  0  2  0  0  3  0  0  0  0  0  0
  197.3450  177.1110  143.2810 O   0  0  0  0  0  1  0  0  0  0  0  0
  196.2840  176.4360  143.2200 C   0  0  0  0  0  0  0  0  0  0  0  0
  195.6700  176.2240  141.9930 O   0  0  0  0  0  0  0  0  0  0  0  0
  194.4820  171.9160  145.7800 O   0  0  0  0  0  0  0  0  0  0  0  0
  193.9090  172.4650  144.8510 C   0  0  0  0  0  0  0  0  0  0  0  0
  193.1050  171.6290  143.9010 C   0  0  0  0  0  2  0  0  0  0  0  0
  191.7480  171.6520  144.2290 O   0  0  0  0  0  1  0  0  0  0  0  0
  1 20  1  6  0  0  0
  2  5  1  0  0  0  0
  3  6  1  0  0  0  0
  3  7  1  0  0  0  0
  4  9  1  0  0  0  0
  7  5  2  0  0  0  0
  8  4  1  0  0  0  0
  8 10  1  0  0  0  0
  9  1  1  1  0  0  0
  9  6  1  0  0  0  0
 10 11  1  0  0  0  0
 10  3  2  0  0  0  0
 11  2  2  0  0  0  0
 12 13  1  0  0  0  0
 13 14  2  0  0  0  0
 14  1  1  0  0  0  0
 15 19  1  0  0  0  0
 16 12  1  0  0  0  0
 17 19  1  0  0  0  0
 17 12  2  0  0  0  0
 18 14  1  0  0  0  0
 19 18  2  0  0  0  0
 20 21  1  0  0  0  0
 21 24  1  0  0  0  0
 21 22  2  0  0  0  0
 24 23  1  1  0  0  0
 25 24  1  0  0  0  0
 26 25  1  6  0  0  0
 26 29  1  0  0  0  0
 27 31  1  0  0  0  0
 27 30  1  0  0  0  0
 28 29  1  0  0  0  0
 30 36  1  1  0  0  0
 30 26  1  0  0  0  0
 31 33  1  6  0  0  0
 31 28  1  0  0  0  0
 33 32  1  0  0  0  0
 34 33  2  0  0  0  0
 36 35  2  0  0  0  0
 37 38  1  0  0  0  0
 37 36  1  0  0  0  0
M  END
>  <MODEL>
1

>  <REMARK>
 VINA RESULT:      -7.2      0.000      0.000
  Name = 
  10 active torsions:
  status: ('A' for Active; 'I' for Inactive)
    1  A    between atoms: C_2  and  O_6
    2  A    between atoms: C_2  and  C_23
    3  A    between atoms: C_2  and  C_26
    4  A    between atoms: O_6  and  C_15
    5  A    between atoms: C_7  and  O_29
    6  A    between atoms: C_8  and  C_38
    7  A    between atoms: C_15  and  C_21
    8  A    between atoms: C_18  and  C_38
    9  A    between atoms: C_21  and  O_29
   10  A    between atoms: C_25  and  C_27
                            x       y       z     vdW  Elec       q    Type
                         _______ _______ _______ _____ _____    ______ ____

>  <TORSDO>
F 10

$$$$
=
 OpenBabel11062421003D

 38 41  0  0  1  0  0  0  0  0999 V2000
  191.3670  174.2530  144.6820 C   0  0  1  0  0  3  0  0  0  0  0  0
  189.2820  172.9060  138.6310 C   0  0  0  0  0  3  0  0  0  0  0  0
  189.6340  173.3170  141.3320 C   0  0  0  0  0  0  0  0  0  0  0  0
  191.9740  174.6950  142.2680 C   0  0  0  0  0  2  0  0  0  0  0  0
  188.2480  172.6480  139.5300 C   0  0  0  0  0  3  0  0  0  0  0  0
  189.7720  173.6050  142.8000 C   0  0  0  0  0  2  0  0  0  0  0  0
  188.4450  172.8620  140.8560 N   0  0  0  0  0  0  0  0  0  0  0  0
  192.0260  174.0530  140.8860 C   0  0  0  0  0  2  0  0  0  0  0  0
  191.2320  173.7750  143.2320 C   0  0  2  0  0  3  0  0  0  0  0  0
  190.6720  173.6030  140.4200 C   0  0  0  0  0  0  0  0  0  0  0  0
  190.4700  173.3740  139.0960 N   0  0  0  0  0  0  0  0  0  0  0  0
  194.4690  176.1870  145.6740 C   0  0  0  0  0  0  0  0  0  0  0  0
  193.1570  175.8960  145.2960 C   0  0  0  0  0  3  0  0  0  0  0  0
  192.7820  174.5660  145.0880 C   0  0  0  0  0  0  0  0  0  0  0  0
  196.2210  172.6200  145.8680 Cl  0  0  0  0  0  0  0  0  0  0  0  0
  194.9530  177.8480  145.9370 Cl  0  0  0  0  0  0  0  0  0  0  0  0
  195.3700  175.1820  145.8400 N   0  0  0  0  0  0  0  0  0  0  0  0
  193.7270  173.5470  145.2640 C   0  0  0  0  0  3  0  0  0  0  0  0
  195.0290  173.8800  145.6450 C   0  0  0  0  0  0  0  0  0  0  0  0
  190.5080  175.3640  144.9210 O   0  0  0  0  0  0  0  0  0  0  0  0
  189.5590  175.3690  145.9470 C   0  0  0  0  0  0  0  0  0  0  0  0
  189.2920  174.3130  146.5820 O   0  0  0  0  0  0  0  0  0  0  0  0
  189.8030  177.4870  147.1700 C   0  0  0  0  0  1  0  0  0  0  0  0
  188.8750  176.6410  146.3190 C   0  0  1  0  0  3  0  0  0  0  0  0
  188.5180  177.3510  145.1690 O   0  0  0  0  0  0  0  0  0  0  0  0
  187.3260  176.7690  144.7280 C   0  0  2  0  0  3  0  0  0  0  0  0
  185.0380  177.5490  143.8840 C   0  0  0  0  0  2  0  0  0  0  0  0
  186.9690  177.3050  142.3980 O   0  0  0  0  0  0  0  0  0  0  0  0
  187.4860  176.3280  143.2670 C   0  0  0  0  0  2  0  0  0  0  0  0
  186.1750  177.7770  144.8880 C   0  0  1  0  0  3  0  0  0  0  0  0
  185.5680  177.1930  142.4830 C   0  0  2  0  0  3  0  0  0  0  0  0
  183.7640  178.5170  141.6430 O   0  0  0  0  0  1  0  0  0  0  0  0
  184.9200  178.0540  141.4530 C   0  0  0  0  0  0  0  0  0  0  0  0
  185.5880  178.3320  140.2690 O   0  0  0  0  0  0  0  0  0  0  0  0
  185.1350  176.7830  146.7590 O   0  0  0  0  0  0  0  0  0  0  0  0
  185.6530  177.7880  146.2970 C   0  0  0  0  0  0  0  0  0  0  0  0
  185.7600  179.0100  147.1580 C   0  0  0  0  0  2  0  0  0  0  0  0
  186.7130  178.8410  148.1640 O   0  0  0  0  0  1  0  0  0  0  0  0
  1 20  1  6  0  0  0
  1 14  1  0  0  0  0
  2 11  2  0  0  0  0
  2  5  1  0  0  0  0
  3  6  1  0  0  0  0
  4  9  1  0  0  0  0
  5  7  2  0  0  0  0
  6  9  1  0  0  0  0
  7  3  1  0  0  0  0
  8  4  1  0  0  0  0
  9  1  1  1  0  0  0
 10  8  1  0  0  0  0
 10  3  2  0  0  0  0
 11 10  1  0  0  0  0
 12 17  1  0  0  0  0
 12 16  1  0  0  0  0
 13 12  2  0  0  0  0
 14 18  2  0  0  0  0
 14 13  1  0  0  0  0
 18 19  1  0  0  0  0
 19 17  2  0  0  0  0
 19 15  1  0  0  0  0
 20 21  1  0  0  0  0
 21 24  1  0  0  0  0
 21 22  2  0  0  0  0
 24 23  1  1  0  0  0
 25 24  1  0  0  0  0
 26 30  1  0  0  0  0
 26 25  1  6  0  0  0
 27 30  1  0  0  0  0
 28 31  1  0  0  0  0
 28 29  1  0  0  0  0
 29 26  1  0  0  0  0
 30 36  1  1  0  0  0
 31 33  1  6  0  0  0
 31 27  1  0  0  0  0
 33 32  1  0  0  0  0
 34 33  2  0  0  0  0
 36 35  2  0  0  0  0
 36 37  1  0  0  0  0
 37 38  1  0  0  0  0
M  END
>  <MODEL>
2

>  <REMARK>
 VINA RESULT:      -7.1      3.582      7.779
  Name = 
  10 active torsions:
  status: ('A' for Active; 'I' for Inactive)
    1  A    between atoms: C_2  and  O_6
    2  A    between atoms: C_2  and  C_23
    3  A    between atoms: C_2  and  C_26
    4  A    between atoms: O_6  and  C_15
    5  A    between atoms: C_7  and  O_29
    6  A    between atoms: C_8  and  C_38
    7  A    between atoms: C_15  and  C_21
    8  A    between atoms: C_18  and  C_38
    9  A    between atoms: C_21  and  O_29
   10  A    between atoms: C_25  and  C_27
                            x       y       z     vdW  Elec       q    Type
                         _______ _______ _______ _____ _____    ______ ____

>  <TORSDO>
F 10

$$$$
=
 OpenBabel11062421003D

 38 41  0  0  1  0  0  0  0  0999 V2000
  191.3280  174.2790  144.6640 C   0  0  1  0  0  3  0  0  0  0  0  0
  189.2960  172.9050  138.6010 C   0  0  0  0  0  3  0  0  0  0  0  0
  189.6250  173.3280  141.3040 C   0  0  0  0  0  0  0  0  0  0  0  0
  191.9570  174.7100  142.2540 C   0  0  0  0  0  2  0  0  0  0  0  0
  188.2540  172.6510  139.4920 C   0  0  0  0  0  3  0  0  0  0  0  0
  189.7500  173.6230  142.7710 C   0  0  0  0  0  2  0  0  0  0  0  0
  188.4390  172.8710  140.8200 N   0  0  0  0  0  0  0  0  0  0  0  0
  192.0210  174.0610  140.8760 C   0  0  0  0  0  2  0  0  0  0  0  0
  191.2060  173.7940  143.2150 C   0  0  2  0  0  3  0  0  0  0  0  0
  190.6700  173.6100  140.3990 C   0  0  0  0  0  0  0  0  0  0  0  0
  190.4800  173.3740  139.0750 N   0  0  0  0  0  0  0  0  0  0  0  0
  194.9740  173.9050  145.6210 C   0  0  0  0  0  0  0  0  0  0  0  0
  193.6680  173.5900  145.2430 C   0  0  0  0  0  3  0  0  0  0  0  0
  192.7370  174.6190  145.0730 C   0  0  0  0  0  0  0  0  0  0  0  0
  194.9520  177.8720  145.9290 Cl  0  0  0  0  0  0  0  0  0  0  0  0
  196.1510  172.6280  145.8380 Cl  0  0  0  0  0  0  0  0  0  0  0  0
  195.3340  175.2020  145.8200 N   0  0  0  0  0  0  0  0  0  0  0  0
  193.1290  175.9460  145.2850 C   0  0  0  0  0  3  0  0  0  0  0  0
  194.4460  176.2190  145.6600 C   0  0  0  0  0  0  0  0  0  0  0  0
  190.4490  175.3740  144.8980 O   0  0  0  0  0  0  0  0  0  0  0  0
  189.5290  175.3840  145.9500 C   0  0  0  0  0  0  0  0  0  0  0  0
  189.3000  174.3380  146.6140 O   0  0  0  0  0  0  0  0  0  0  0  0
  189.7470  177.5060  147.1720 C   0  0  0  0  0  1  0  0  0  0  0  0
  188.8320  176.6510  146.3150 C   0  0  1  0  0  3  0  0  0  0  0  0
  188.4790  177.3580  145.1610 O   0  0  0  0  0  0  0  0  0  0  0  0
  187.2820  176.7820  144.7260 C   0  0  2  0  0  3  0  0  0  0  0  0
  184.9950  177.5740  143.8920 C   0  0  0  0  0  2  0  0  0  0  0  0
  186.9180  177.3170  142.3970 O   0  0  0  0  0  0  0  0  0  0  0  0
  187.4330  176.3390  143.2640 C   0  0  0  0  0  2  0  0  0  0  0  0
  186.1370  177.7960  144.8900 C   0  0  1  0  0  3  0  0  0  0  0  0
  185.5160  177.2140  142.4880 C   0  0  2  0  0  3  0  0  0  0  0  0
  183.7100  178.5330  141.6470 O   0  0  0  0  0  1  0  0  0  0  0  0
  184.8690  178.0780  141.4610 C   0  0  0  0  0  0  0  0  0  0  0  0
  185.5420  178.3670  140.2810 O   0  0  0  0  0  0  0  0  0  0  0  0
  185.1090  176.8060  146.7700 O   0  0  0  0  0  0  0  0  0  0  0  0
  185.6210  177.8110  146.3010 C   0  0  0  0  0  0  0  0  0  0  0  0
  185.7260  179.0370  147.1570 C   0  0  0  0  0  2  0  0  0  0  0  0
  186.7080  178.8890  148.1380 O   0  0  0  0  0  1  0  0  0  0  0  0
  1 20  1  6  0  0  0
  1 14  1  0  0  0  0
  2 11  2  0  0  0  0
  2  5  1  0  0  0  0
  3  6  1  0  0  0  0
  4  9  1  0  0  0  0
  5  7  2  0  0  0  0
  6  9  1  0  0  0  0
  7  3  1  0  0  0  0
  8  4  1  0  0  0  0
  9  1  1  1  0  0  0
 10  8  1  0  0  0  0
 10  3  2  0  0  0  0
 11 10  1  0  0  0  0
 12 17  1  0  0  0  0
 12 16  1  0  0  0  0
 13 12  2  0  0  0  0
 14 13  1  0  0  0  0
 14 18  2  0  0  0  0
 18 19  1  0  0  0  0
 19 17  2  0  0  0  0
 19 15  1  0  0  0  0
 20 21  1  0  0  0  0
 21 24  1  0  0  0  0
 21 22  2  0  0  0  0
 24 23  1  1  0  0  0
 25 24  1  0  0  0  0
 26 30  1  0  0  0  0
 26 25  1  6  0  0  0
 27 30  1  0  0  0  0
 28 31  1  0  0  0  0
 28 29  1  0  0  0  0
 29 26  1  0  0  0  0
 30 36  1  1  0  0  0
 31 33  1  6  0  0  0
 31 27  1  0  0  0  0
 33 32  1  0  0  0  0
 34 33  2  0  0  0  0
 36 35  2  0  0  0  0
 36 37  1  0  0  0  0
 37 38  1  0  0  0  0
M  END
>  <MODEL>
3

>  <REMARK>
 VINA RESULT:      -7.1      3.586      7.797
  Name = 
  10 active torsions:
  status: ('A' for Active; 'I' for Inactive)
    1  A    between atoms: C_2  and  O_6
    2  A    between atoms: C_2  and  C_23
    3  A    between atoms: C_2  and  C_26
    4  A    between atoms: O_6  and  C_15
    5  A    between atoms: C_7  and  O_29
    6  A    between atoms: C_8  and  C_38
    7  A    between atoms: C_15  and  C_21
    8  A    between atoms: C_18  and  C_38
    9  A    between atoms: C_21  and  O_29
   10  A    between atoms: C_25  and  C_27
                            x       y       z     vdW  Elec       q    Type
                         _______ _______ _______ _____ _____    ______ ____

>  <TORSDO>
F 10

$$$$
=
 OpenBabel11062421003D

 38 41  0  0  1  0  0  0  0  0999 V2000
  192.4060  175.0750  145.4750 C   0  0  1  0  0  3  0  0  0  0  0  0
  189.9780  172.2990  140.0730 C   0  0  0  0  0  3  0  0  0  0  0  0
  191.4140  173.6460  141.9990 C   0  0  0  0  0  0  0  0  0  0  0  0
  190.7490  173.2990  144.7720 C   0  0  0  0  0  2  0  0  0  0  0  0
  191.1510  172.9760  139.7410 C   0  0  0  0  0  3  0  0  0  0  0  0
  192.2580  174.3240  143.0420 C   0  0  0  0  0  2  0  0  0  0  0  0
  191.8430  173.6300  140.7100 N   0  0  0  0  0  0  0  0  0  0  0  0
  189.6830  172.9680  143.7340 C   0  0  0  0  0  2  0  0  0  0  0  0
  191.4990  174.5590  144.3520 C   0  0  2  0  0  3  0  0  0  0  0  0
  190.2410  172.9400  142.3400 C   0  0  0  0  0  0  0  0  0  0  0  0
  189.5480  172.3000  141.3620 N   0  0  0  0  0  0  0  0  0  0  0  0
  195.9160  173.6560  145.3640 C   0  0  0  0  0  0  0  0  0  0  0  0
  194.5530  173.7930  145.6350 C   0  0  0  0  0  3  0  0  0  0  0  0
  193.8750  174.9280  145.1830 C   0  0  0  0  0  0  0  0  0  0  0  0
  196.8200  176.9480  143.3210 Cl  0  0  0  0  0  0  0  0  0  0  0  0
  196.7780  172.2390  145.9240 Cl  0  0  0  0  0  0  0  0  0  0  0  0
  196.5730  174.6200  144.6650 N   0  0  0  0  0  0  0  0  0  0  0  0
  194.5730  175.9090  144.4670 C   0  0  0  0  0  3  0  0  0  0  0  0
  195.9350  175.7330  144.2150 C   0  0  0  0  0  0  0  0  0  0  0  0
  192.0790  176.4230  145.7960 O   0  0  0  0  0  0  0  0  0  0  0  0
  191.1100  177.1460  145.0960 C   0  0  0  0  0  0  0  0  0  0  0  0
  191.4320  177.8800  144.1230 O   0  0  0  0  0  0  0  0  0  0  0  0
  189.5000  177.4160  146.9340 C   0  0  0  0  0  1  0  0  0  0  0  0
  189.6730  177.0260  145.4790 C   0  0  1  0  0  3  0  0  0  0  0  0
  188.8890  177.8590  144.6750 O   0  0  0  0  0  0  0  0  0  0  0  0
  187.9460  177.0180  144.0770 C   0  0  2  0  0  3  0  0  0  0  0  0
  185.7620  177.2570  142.7620 C   0  0  0  0  0  2  0  0  0  0  0  0
  187.9580  177.3500  141.6830 O   0  0  0  0  0  0  0  0  0  0  0  0
  188.4750  176.5490  142.7160 C   0  0  0  0  0  2  0  0  0  0  0  0
  186.6110  177.7680  143.9320 C   0  0  1  0  0  3  0  0  0  0  0  0
  186.6180  176.9510  141.5190 C   0  0  2  0  0  3  0  0  0  0  0  0
  185.0590  178.3960  140.4290 O   0  0  0  0  0  1  0  0  0  0  0  0
  186.0300  177.6040  140.3150 C   0  0  0  0  0  0  0  0  0  0  0  0
  186.5460  177.3210  139.0580 O   0  0  0  0  0  0  0  0  0  0  0  0
  185.7040  176.6890  145.8260 O   0  0  0  0  0  0  0  0  0  0  0  0
  185.8280  177.7390  145.2150 C   0  0  0  0  0  0  0  0  0  0  0  0
  185.1970  178.9800  145.7710 C   0  0  0  0  0  2  0  0  0  0  0  0
  183.8100  178.8480  145.8590 O   0  0  0  0  0  1  0  0  0  0  0  0
  1 20  1  6  0  0  0
  2 11  1  0  0  0  0
  3 10  1  0  0  0  0
  3  6  1  0  0  0  0
  5  2  2  0  0  0  0
  5  7  1  0  0  0  0
  6  9  1  0  0  0  0
  7  3  2  0  0  0  0
  8  4  1  0  0  0  0
  9  4  1  0  0  0  0
  9  1  1  1  0  0  0
 10  8  1  0  0  0  0
 11 10  2  0  0  0  0
 12 13  1  0  0  0  0
 12 16  1  0  0  0  0
 14  1  1  0  0  0  0
 14 13  2  0  0  0  0
 15 19  1  0  0  0  0
 17 12  2  0  0  0  0
 18 14  1  0  0  0  0
 19 18  2  0  0  0  0
 19 17  1  0  0  0  0
 21 24  1  0  0  0  0
 21 20  1  0  0  0  0
 22 21  2  0  0  0  0
 24 23  1  1  0  0  0
 25 24  1  0  0  0  0
 26 25  1  6  0  0  0
 27 30  1  0  0  0  0
 28 29  1  0  0  0  0
 29 26  1  0  0  0  0
 30 26  1  0  0  0  0
 30 36  1  1  0  0  0
 31 33  1  6  0  0  0
 31 28  1  0  0  0  0
 31 27  1  0  0  0  0
 33 32  1  0  0  0  0
 34 33  2  0  0  0  0
 36 37  1  0  0  0  0
 36 35  2  0  0  0  0
 37 38  1  0  0  0  0
M  END
>  <MODEL>
4

>  <REMARK>
 VINA RESULT:      -7.1      3.515      7.714
  Name = 
  10 active torsions:
  status: ('A' for Active; 'I' for Inactive)
    1  A    between atoms: C_2  and  O_6
    2  A    between atoms: C_2  and  C_23
    3  A    between atoms: C_2  and  C_26
    4  A    between atoms: O_6  and  C_15
    5  A    between atoms: C_7  and  O_29
    6  A    between atoms: C_8  and  C_38
    7  A    between atoms: C_15  and  C_21
    8  A    between atoms: C_18  and  C_38
    9  A    between atoms: C_21  and  O_29
   10  A    between atoms: C_25  and  C_27
                            x       y       z     vdW  Elec       q    Type
                         _______ _______ _______ _____ _____    ______ ____

>  <TORSDO>
F 10

$$$$
=
 OpenBabel11062421003D

 38 41  0  0  1  0  0  0  0  0999 V2000
  189.7030  175.5670  145.0150 C   0  0  1  0  0  3  0  0  0  0  0  0
  184.1030  178.8850  145.6510 C   0  0  0  0  0  3  0  0  0  0  0  0
  186.3130  177.2570  145.8820 C   0  0  0  0  0  0  0  0  0  0  0  0
  188.5350  177.6110  144.0960 C   0  0  0  0  0  2  0  0  0  0  0  0
  184.2510  178.0390  146.7490 C   0  0  0  0  0  3  0  0  0  0  0  0
  187.5440  176.4160  146.0730 C   0  0  0  0  0  2  0  0  0  0  0  0
  185.3510  177.2490  146.8420 N   0  0  0  0  0  0  0  0  0  0  0  0
  187.1750  178.1470  143.6620 C   0  0  0  0  0  2  0  0  0  0  0  0
  188.3570  176.2620  144.7840 C   0  0  2  0  0  3  0  0  0  0  0  0
  186.1770  178.1320  144.7840 C   0  0  0  0  0  0  0  0  0  0  0  0
  185.0660  178.9090  144.6920 N   0  0  0  0  0  0  0  0  0  0  0  0
  191.0330  172.3180  143.5930 C   0  0  0  0  0  0  0  0  0  0  0  0
  190.7850  173.3720  144.4740 C   0  0  0  0  0  3  0  0  0  0  0  0
  189.9710  174.4320  144.0640 C   0  0  0  0  0  0  0  0  0  0  0  0
  189.0070  173.3140  140.3170 Cl  0  0  0  0  0  0  0  0  0  0  0  0
  192.0500  170.9840  144.0930 Cl  0  0  0  0  0  0  0  0  0  0  0  0
  190.4850  172.3260  142.3480 N   0  0  0  0  0  0  0  0  0  0  0  0
  189.4190  174.4190  142.7770 C   0  0  0  0  0  3  0  0  0  0  0  0
  189.6890  173.3450  141.9270 C   0  0  0  0  0  0  0  0  0  0  0  0
  190.7640  176.5170  144.9900 O   0  0  0  0  0  0  0  0  0  0  0  0
  191.8360  176.4660  145.8860 C   0  0  0  0  0  0  0  0  0  0  0  0
  191.6360  176.3050  147.1200 O   0  0  0  0  0  0  0  0  0  0  0  0
  194.1990  176.5980  146.5460 C   0  0  0  0  0  1  0  0  0  0  0  0
  193.2340  176.5700  145.3770 C   0  0  1  0  0  3  0  0  0  0  0  0
  193.5300  175.4790  144.5540 O   0  0  0  0  0  0  0  0  0  0  0  0
  193.9800  176.0330  143.3520 C   0  0  2  0  0  3  0  0  0  0  0  0
  195.3500  175.2880  141.3210 C   0  0  0  0  0  2  0  0  0  0  0  0
  192.9380  174.9000  141.4890 O   0  0  0  0  0  0  0  0  0  0  0  0
  192.8380  176.0230  142.3280 C   0  0  0  0  0  2  0  0  0  0  0  0
  195.1960  175.2370  142.8460 C   0  0  1  0  0  3  0  0  0  0  0  0
  193.9950  175.1750  140.5990 C   0  0  2  0  0  3  0  0  0  0  0  0
  194.6930  173.0590  139.7360 O   0  0  0  0  0  1  0  0  0  0  0  0
  194.0600  174.1300  139.5390 C   0  0  0  0  0  0  0  0  0  0  0  0
  193.4340  174.3470  138.3190 O   0  0  0  0  0  0  0  0  0  0  0  0
  196.7900  176.8550  143.4880 O   0  0  0  0  0  0  0  0  0  0  0  0
  196.4590  175.6800  143.5280 C   0  0  0  0  0  0  0  0  0  0  0  0
  197.3270  174.7070  144.2680 C   0  0  0  0  0  2  0  0  0  0  0  0
  196.7710  174.3680  145.5030 O   0  0  0  0  0  1  0  0  0  0  0  0
  1 20  1  6  0  0  0
  2  5  1  0  0  0  0
  3  6  1  0  0  0  0
  3  7  1  0  0  0  0
  4  9  1  0  0  0  0
  5  7  2  0  0  0  0
  8  4  1  0  0  0  0
  8 10  1  0  0  0  0
  9  1  1  1  0  0  0
  9  6  1  0  0  0  0
 10  3  2  0  0  0  0
 11 10  1  0  0  0  0
 11  2  2  0  0  0  0
 12 16  1  0  0  0  0
 12 13  1  0  0  0  0
 14 13  2  0  0  0  0
 14  1  1  0  0  0  0
 15 19  1  0  0  0  0
 17 12  2  0  0  0  0
 18 14  1  0  0  0  0
 19 17  1  0  0  0  0
 19 18  2  0  0  0  0
 20 21  1  0  0  0  0
 21 22  2  0  0  0  0
 24 21  1  0  0  0  0
 24 23  1  1  0  0  0
 25 24  1  0  0  0  0
 26 25  1  1  0  0  0
 27 30  1  0  0  0  0
 28 29  1  0  0  0  0
 29 26  1  0  0  0  0
 30 26  1  0  0  0  0
 30 36  1  1  0  0  0
 31 33  1  6  0  0  0
 31 27  1  0  0  0  0
 31 28  1  0  0  0  0
 33 32  1  0  0  0  0
 34 33  2  0  0  0  0
 35 36  2  0  0  0  0
 36 37  1  0  0  0  0
 37 38  1  0  0  0  0
M  END
>  <MODEL>
5

>  <REMARK>
 VINA RESULT:      -7.0      1.990      3.012
  Name = 
  10 active torsions:
  status: ('A' for Active; 'I' for Inactive)
    1  A    between atoms: C_2  and  O_6
    2  A    between atoms: C_2  and  C_23
    3  A    between atoms: C_2  and  C_26
    4  A    between atoms: O_6  and  C_15
    5  A    between atoms: C_7  and  O_29
    6  A    between atoms: C_8  and  C_38
    7  A    between atoms: C_15  and  C_21
    8  A    between atoms: C_18  and  C_38
    9  A    between atoms: C_21  and  O_29
   10  A    between atoms: C_25  and  C_27
                            x       y       z     vdW  Elec       q    Type
                         _______ _______ _______ _____ _____    ______ ____

>  <TORSDO>
F 10

$$$$
=
 OpenBabel11062421003D

 38 41  0  0  1  0  0  0  0  0999 V2000
  191.2950  174.4960  145.8360 C   0  0  1  0  0  3  0  0  0  0  0  0
  190.1250  172.3790  139.7590 C   0  0  0  0  0  3  0  0  0  0  0  0
  190.9780  173.6290  142.0620 C   0  0  0  0  0  0  0  0  0  0  0  0
  190.2910  172.5200  144.6210 C   0  0  0  0  0  2  0  0  0  0  0  0
  191.0580  173.4140  139.7020 C   0  0  0  0  0  3  0  0  0  0  0  0
  191.5190  174.2760  143.3050 C   0  0  0  0  0  2  0  0  0  0  0  0
  191.4650  174.0120  140.8520 N   0  0  0  0  0  0  0  0  0  0  0  0
  189.4350  172.1330  143.4200 C   0  0  0  0  0  2  0  0  0  0  0  0
  190.6510  173.9990  144.5370 C   0  0  2  0  0  3  0  0  0  0  0  0
  190.0540  172.5650  142.1220 C   0  0  0  0  0  0  0  0  0  0  0  0
  189.6420  171.9810  140.9650 N   0  0  0  0  0  0  0  0  0  0  0  0
  194.6200  176.2970  145.6260 C   0  0  0  0  0  0  0  0  0  0  0  0
  193.2480  176.0620  145.7310 C   0  0  0  0  0  3  0  0  0  0  0  0
  192.7740  174.7480  145.7220 C   0  0  0  0  0  0  0  0  0  0  0  0
  196.1960  172.6520  145.3670 Cl  0  0  0  0  0  0  0  0  0  0  0  0
  195.2280  177.9380  145.6350 Cl  0  0  0  0  0  0  0  0  0  0  0  0
  195.4850  175.2520  145.5190 N   0  0  0  0  0  0  0  0  0  0  0  0
  193.6830  173.6880  145.6090 C   0  0  0  0  0  3  0  0  0  0  0  0
  195.0480  173.9650  145.5090 C   0  0  0  0  0  0  0  0  0  0  0  0
  190.6150  175.6500  146.3190 O   0  0  0  0  0  0  0  0  0  0  0  0
  189.3040  175.5990  146.8010 C   0  0  0  0  0  0  0  0  0  0  0  0
  188.9010  174.6080  147.4670 O   0  0  0  0  0  0  0  0  0  0  0  0
  188.7050  177.8770  147.5050 C   0  0  0  0  0  1  0  0  0  0  0  0
  188.3770  176.7420  146.5540 C   0  0  1  0  0  3  0  0  0  0  0  0
  188.5020  177.1880  145.2350 O   0  0  0  0  0  0  0  0  0  0  0  0
  187.4570  176.5750  144.5360 C   0  0  2  0  0  3  0  0  0  0  0  0
  185.4730  177.2940  143.0870 C   0  0  0  0  0  2  0  0  0  0  0  0
  187.7180  176.9690  142.1660 O   0  0  0  0  0  0  0  0  0  0  0  0
  187.9830  176.0490  143.1950 C   0  0  0  0  0  2  0  0  0  0  0  0
  186.3150  177.5860  144.3340 C   0  0  1  0  0  3  0  0  0  0  0  0
  186.3410  176.8570  141.8930 C   0  0  2  0  0  3  0  0  0  0  0  0
  184.9780  178.4000  140.6800 O   0  0  0  0  0  1  0  0  0  0  0  0
  185.9910  177.6520  140.6820 C   0  0  0  0  0  0  0  0  0  0  0  0
  186.7760  177.5520  139.5420 O   0  0  0  0  0  0  0  0  0  0  0  0
  185.0220  176.6590  146.0780 O   0  0  0  0  0  0  0  0  0  0  0  0
  185.4470  177.6790  145.5580 C   0  0  0  0  0  0  0  0  0  0  0  0
  185.0930  179.0040  146.1630 C   0  0  0  0  0  2  0  0  0  0  0  0
  185.4240  179.0470  147.5190 O   0  0  0  0  0  1  0  0  0  0  0  0
  1 20  1  6  0  0  0
  2 11  1  0  0  0  0
  3 10  1  0  0  0  0
  3  6  1  0  0  0  0
  5  2  2  0  0  0  0
  5  7  1  0  0  0  0
  6  9  1  0  0  0  0
  7  3  2  0  0  0  0
  8  4  1  0  0  0  0
  9  4  1  0  0  0  0
  9  1  1  1  0  0  0
 10  8  1  0  0  0  0
 11 10  2  0  0  0  0
 12 16  1  0  0  0  0
 12 13  1  0  0  0  0
 14 13  2  0  0  0  0
 14  1  1  0  0  0  0
 15 19  1  0  0  0  0
 17 12  2  0  0  0  0
 18 14  1  0  0  0  0
 19 17  1  0  0  0  0
 19 18  2  0  0  0  0
 20 21  1  0  0  0  0
 21 22  2  0  0  0  0
 24 21  1  0  0  0  0
 24 23  1  1  0  0  0
 25 24  1  0  0  0  0
 26 25  1  6  0  0  0
 27 30  1  0  0  0  0
 28 29  1  0  0  0  0
 29 26  1  0  0  0  0
 30 26  1  0  0  0  0
 30 36  1  1  0  0  0
 31 33  1  6  0  0  0
 31 28  1  0  0  0  0
 31 27  1  0  0  0  0
 32 33  1  0  0  0  0
 34 33  2  0  0  0  0
 36 35  2  0  0  0  0
 36 37  1  0  0  0  0
 37 38  1  0  0  0  0
M  END
>  <MODEL>
6

>  <REMARK>
 VINA RESULT:      -7.0      3.746      7.693
  Name = 
  10 active torsions:
  status: ('A' for Active; 'I' for Inactive)
    1  A    between atoms: C_2  and  O_6
    2  A    between atoms: C_2  and  C_23
    3  A    between atoms: C_2  and  C_26
    4  A    between atoms: O_6  and  C_15
    5  A    between atoms: C_7  and  O_29
    6  A    between atoms: C_8  and  C_38
    7  A    between atoms: C_15  and  C_21
    8  A    between atoms: C_18  and  C_38
    9  A    between atoms: C_21  and  O_29
   10  A    between atoms: C_25  and  C_27
                            x       y       z     vdW  Elec       q    Type
                         _______ _______ _______ _____ _____    ______ ____

>  <TORSDO>
F 10

$$$$
=
 OpenBabel11062421003D

 38 41  0  0  1  0  0  0  0  0999 V2000
  189.7820  175.5660  145.0290 C   0  0  1  0  0  3  0  0  0  0  0  0
  184.2430  178.9690  145.7510 C   0  0  0  0  0  3  0  0  0  0  0  0
  186.4310  177.3070  145.9480 C   0  0  0  0  0  0  0  0  0  0  0  0
  188.6310  177.6280  144.1280 C   0  0  0  0  0  2  0  0  0  0  0  0
  184.3940  178.1200  146.8470 C   0  0  0  0  0  3  0  0  0  0  0  0
  187.6520  176.4470  146.1200 C   0  0  0  0  0  2  0  0  0  0  0  0
  185.4840  177.3130  146.9230 N   0  0  0  0  0  0  0  0  0  0  0  0
  187.2720  178.1850  143.7150 C   0  0  0  0  0  2  0  0  0  0  0  0
  188.4430  176.2820  144.8190 C   0  0  2  0  0  3  0  0  0  0  0  0
  186.2920  178.1840  144.8520 C   0  0  0  0  0  0  0  0  0  0  0  0
  185.1910  178.9790  144.7780 N   0  0  0  0  0  0  0  0  0  0  0  0
  189.7580  173.5660  141.8130 C   0  0  0  0  0  0  0  0  0  0  0  0
  189.5080  174.5760  142.7430 C   0  0  0  0  0  3  0  0  0  0  0  0
  190.0510  174.4760  144.0270 C   0  0  0  0  0  0  0  0  0  0  0  0
  192.0440  170.9830  143.7970 Cl  0  0  0  0  0  0  0  0  0  0  0  0
  189.0850  173.6780  140.2010 Cl  0  0  0  0  0  0  0  0  0  0  0  0
  190.5250  172.4960  142.1560 N   0  0  0  0  0  0  0  0  0  0  0  0
  190.8360  173.3650  144.3590 C   0  0  0  0  0  3  0  0  0  0  0  0
  191.0650  172.3770  143.3990 C   0  0  0  0  0  0  0  0  0  0  0  0
  190.8490  176.5080  145.0590 O   0  0  0  0  0  0  0  0  0  0  0  0
  191.9460  176.3690  145.9140 C   0  0  0  0  0  0  0  0  0  0  0  0
  191.7820  176.1000  147.1340 O   0  0  0  0  0  0  0  0  0  0  0  0
  194.3230  176.5240  146.5210 C   0  0  0  0  0  1  0  0  0  0  0  0
  193.3300  176.5070  145.3740 C   0  0  1  0  0  3  0  0  0  0  0  0
  193.6230  175.4400  144.5190 O   0  0  0  0  0  0  0  0  0  0  0  0
  194.0620  176.0280  143.3290 C   0  0  2  0  0  3  0  0  0  0  0  0
  195.4390  175.3510  141.2800 C   0  0  0  0  0  2  0  0  0  0  0  0
  193.0350  174.9190  141.4430 O   0  0  0  0  0  0  0  0  0  0  0  0
  192.9170  176.0210  142.3070 C   0  0  0  0  0  2  0  0  0  0  0  0
  195.2890  175.2640  142.8040 C   0  0  1  0  0  3  0  0  0  0  0  0
  194.0850  175.2320  140.5580 C   0  0  2  0  0  3  0  0  0  0  0  0
  195.2020  173.5090  139.3350 O   0  0  0  0  0  1  0  0  0  0  0  0
  194.1660  174.2120  139.4750 C   0  0  0  0  0  0  0  0  0  0  0  0
  193.0990  174.0480  138.6020 O   0  0  0  0  0  0  0  0  0  0  0  0
  196.8380  176.8990  143.5110 O   0  0  0  0  0  0  0  0  0  0  0  0
  196.5460  175.7130  143.4930 C   0  0  0  0  0  0  0  0  0  0  0  0
  197.4560  174.7330  144.1710 C   0  0  0  0  0  2  0  0  0  0  0  0
  196.8590  174.1900  145.3110 O   0  0  0  0  0  1  0  0  0  0  0  0
  1 20  1  6  0  0  0
  2  5  1  0  0  0  0
  3  6  1  0  0  0  0
  3  7  1  0  0  0  0
  4  9  1  0  0  0  0
  5  7  2  0  0  0  0
  8  4  1  0  0  0  0
  8 10  1  0  0  0  0
  9  1  1  1  0  0  0
  9  6  1  0  0  0  0
 10  3  2  0  0  0  0
 11 10  1  0  0  0  0
 11  2  2  0  0  0  0
 12 17  2  0  0  0  0
 12 13  1  0  0  0  0
 13 14  2  0  0  0  0
 14 18  1  0  0  0  0
 14  1  1  0  0  0  0
 16 12  1  0  0  0  0
 17 19  1  0  0  0  0
 19 15  1  0  0  0  0
 19 18  2  0  0  0  0
 20 21  1  0  0  0  0
 21 22  2  0  0  0  0
 24 21  1  0  0  0  0
 24 23  1  1  0  0  0
 25 24  1  0  0  0  0
 26 25  1  1  0  0  0
 27 30  1  0  0  0  0
 28 29  1  0  0  0  0
 29 26  1  0  0  0  0
 30 26  1  0  0  0  0
 30 36  1  1  0  0  0
 31 33  1  6  0  0  0
 31 27  1  0  0  0  0
 31 28  1  0  0  0  0
 32 33  1  0  0  0  0
 34 33  2  0  0  0  0
 36 35  2  0  0  0  0
 36 37  1  0  0  0  0
 37 38  1  0  0  0  0
M  END
>  <MODEL>
7

>  <REMARK>
 VINA RESULT:      -7.0      1.979      3.197
  Name = 
  10 active torsions:
  status: ('A' for Active; 'I' for Inactive)
    1  A    between atoms: C_2  and  O_6
    2  A    between atoms: C_2  and  C_23
    3  A    between atoms: C_2  and  C_26
    4  A    between atoms: O_6  and  C_15
    5  A    between atoms: C_7  and  O_29
    6  A    between atoms: C_8  and  C_38
    7  A    between atoms: C_15  and  C_21
    8  A    between atoms: C_18  and  C_38
    9  A    between atoms: C_21  and  O_29
   10  A    between atoms: C_25  and  C_27
                            x       y       z     vdW  Elec       q    Type
                         _______ _______ _______ _____ _____    ______ ____

>  <TORSDO>
F 10

$$$$
=
 OpenBabel11062421003D

 38 41  0  0  1  0  0  0  0  0999 V2000
  188.2130  176.5500  143.6890 C   0  0  1  0  0  3  0  0  0  0  0  0
  188.6550  172.3420  138.7020 C   0  0  0  0  0  3  0  0  0  0  0  0
  188.3530  174.4940  140.3950 C   0  0  0  0  0  0  0  0  0  0  0  0
  189.1350  174.2590  143.1490 C   0  0  0  0  0  2  0  0  0  0  0  0
  188.3310  173.6010  138.1990 C   0  0  0  0  0  3  0  0  0  0  0  0
  188.2590  175.7010  141.2850 C   0  0  0  0  0  2  0  0  0  0  0  0
  188.1920  174.6480  139.0540 N   0  0  0  0  0  0  0  0  0  0  0  0
  188.8430  172.9780  142.3760 C   0  0  0  0  0  2  0  0  0  0  0  0
  188.1200  175.3310  142.7650 C   0  0  2  0  0  3  0  0  0  0  0  0
  188.7060  173.2260  140.9010 C   0  0  0  0  0  0  0  0  0  0  0  0
  188.8310  172.1820  140.0400 N   0  0  0  0  0  0  0  0  0  0  0  0
  185.3520  178.0540  145.6640 C   0  0  0  0  0  0  0  0  0  0  0  0
  186.5890  177.4870  145.3520 C   0  0  0  0  0  3  0  0  0  0  0  0
  186.8790  177.1600  144.0250 C   0  0  0  0  0  0  0  0  0  0  0  0
  183.4970  178.2910  142.1520 Cl  0  0  0  0  0  0  0  0  0  0  0  0
  184.9760  178.4680  147.3230 Cl  0  0  0  0  0  0  0  0  0  0  0  0
  184.4410  178.2860  144.6820 N   0  0  0  0  0  0  0  0  0  0  0  0
  185.9240  177.4060  143.0300 C   0  0  0  0  0  3  0  0  0  0  0  0
  184.7000  177.9770  143.3830 C   0  0  0  0  0  0  0  0  0  0  0  0
  188.9380  176.2240  144.8710 O   0  0  0  0  0  0  0  0  0  0  0  0
  190.1190  176.8810  145.2290 C   0  0  0  0  0  0  0  0  0  0  0  0
  190.2530  178.1180  145.0310 O   0  0  0  0  0  0  0  0  0  0  0  0
  190.6630  175.2910  147.0230 C   0  0  0  0  0  1  0  0  0  0  0  0
  191.2230  176.1200  145.8830 C   0  0  1  0  0  3  0  0  0  0  0  0
  191.8440  175.2790  144.9560 O   0  0  0  0  0  0  0  0  0  0  0  0
  193.1150  175.0240  145.4780 C   0  0  2  0  0  3  0  0  0  0  0  0
  195.3730  174.1650  144.6300 C   0  0  0  0  0  2  0  0  0  0  0  0
  194.7260  176.5210  144.4770 O   0  0  0  0  0  0  0  0  0  0  0  0
  193.8910  176.3430  145.5930 C   0  0  0  0  0  2  0  0  0  0  0  0
  193.8480  174.0170  144.5740 C   0  0  1  0  0  3  0  0  0  0  0  0
  195.8100  175.6410  144.6600 C   0  0  2  0  0  3  0  0  0  0  0  0
  197.6040  174.9550  143.2380 O   0  0  0  0  0  1  0  0  0  0  0  0
  196.8550  175.8900  143.6270 C   0  0  0  0  0  0  0  0  0  0  0  0
  197.0160  177.1660  143.1030 O   0  0  0  0  0  0  0  0  0  0  0  0
  192.2940  172.2410  144.6390 O   0  0  0  0  0  0  0  0  0  0  0  0
  193.4340  172.6060  144.8840 C   0  0  0  0  0  0  0  0  0  0  0  0
  194.3960  171.6260  145.4840 C   0  0  0  0  0  2  0  0  0  0  0  0
  193.9590  170.3120  145.3060 O   0  0  0  0  0  1  0  0  0  0  0  0
  1 14  1  0  0  0  0
  1 20  1  1  0  0  0
  2 11  1  0  0  0  0
  3 10  1  0  0  0  0
  3  6  1  0  0  0  0
  5  2  2  0  0  0  0
  5  7  1  0  0  0  0
  6  9  1  0  0  0  0
  7  3  2  0  0  0  0
  8  4  1  0  0  0  0
  9  4  1  0  0  0  0
  9  1  1  1  0  0  0
 10  8  1  0  0  0  0
 11 10  2  0  0  0  0
 12 16  1  0  0  0  0
 13 12  1  0  0  0  0
 14 13  2  0  0  0  0
 15 19  1  0  0  0  0
 17 12  2  0  0  0  0
 18 19  2  0  0  0  0
 18 14  1  0  0  0  0
 19 17  1  0  0  0  0
 20 21  1  0  0  0  0
 21 24  1  0  0  0  0
 22 21  2  0  0  0  0
 24 23  1  1  0  0  0
 25 24  1  0  0  0  0
 26 25  1  6  0  0  0
 26 29  1  0  0  0  0
 27 31  1  0  0  0  0
 28 31  1  0  0  0  0
 28 29  1  0  0  0  0
 30 27  1  0  0  0  0
 30 36  1  1  0  0  0
 30 26  1  0  0  0  0
 31 33  1  6  0  0  0
 32 33  1  0  0  0  0
 34 33  2  0  0  0  0
 35 36  2  0  0  0  0
 36 37  1  0  0  0  0
 38 37  1  0  0  0  0
M  END
>  <MODEL>
8

>  <REMARK>
 VINA RESULT:      -6.9      2.459      5.150
  Name = 
  10 active torsions:
  status: ('A' for Active; 'I' for Inactive)
    1  A    between atoms: C_2  and  O_6
    2  A    between atoms: C_2  and  C_23
    3  A    between atoms: C_2  and  C_26
    4  A    between atoms: O_6  and  C_15
    5  A    between atoms: C_7  and  O_29
    6  A    between atoms: C_8  and  C_38
    7  A    between atoms: C_15  and  C_21
    8  A    between atoms: C_18  and  C_38
    9  A    between atoms: C_21  and  O_29
   10  A    between atoms: C_25  and  C_27
                            x       y       z     vdW  Elec       q    Type
                         _______ _______ _______ _____ _____    ______ ____

>  <TORSDO>
F 10

$$$$
=
 OpenBabel11062421003D

 38 41  0  0  1  0  0  0  0  0999 V2000
  192.1340  173.1850  144.6070 C   0  0  1  0  0  3  0  0  0  0  0  0
  189.1620  173.1560  138.7810 C   0  0  0  0  0  3  0  0  0  0  0  0
  189.9030  173.0100  141.4300 C   0  0  0  0  0  0  0  0  0  0  0  0
  192.4430  174.0640  142.2570 C   0  0  0  0  0  2  0  0  0  0  0  0
  188.2410  172.7750  139.7560 C   0  0  0  0  0  3  0  0  0  0  0  0
  190.2570  172.9960  142.8900 C   0  0  0  0  0  2  0  0  0  0  0  0
  188.6290  172.7140  141.0560 N   0  0  0  0  0  0  0  0  0  0  0  0
  192.2620  173.7050  140.7870 C   0  0  0  0  0  2  0  0  0  0  0  0
  191.7700  173.0090  143.1280 C   0  0  2  0  0  3  0  0  0  0  0  0
  190.8270  173.4200  140.4470 C   0  0  0  0  0  0  0  0  0  0  0  0
  190.4330  173.4660  139.1470 N   0  0  0  0  0  0  0  0  0  0  0  0
  194.8280  170.6170  145.3090 C   0  0  0  0  0  0  0  0  0  0  0  0
  193.6010  171.1840  144.9610 C   0  0  0  0  0  3  0  0  0  0  0  0
  193.4570  172.5740  144.9830 C   0  0  0  0  0  0  0  0  0  0  0  0
  197.1250  173.7540  146.1570 Cl  0  0  0  0  0  0  0  0  0  0  0  0
  195.0230  168.8780  145.2850 Cl  0  0  0  0  0  0  0  0  0  0  0  0
  195.8720  171.4140  145.6640 N   0  0  0  0  0  0  0  0  0  0  0  0
  194.5450  173.3740  145.3540 C   0  0  0  0  0  3  0  0  0  0  0  0
  195.7560  172.7680  145.6920 C   0  0  0  0  0  0  0  0  0  0  0  0
  192.0830  174.5610  144.9700 O   0  0  0  0  0  0  0  0  0  0  0  0
  190.9660  175.1310  145.5860 C   0  0  0  0  0  0  0  0  0  0  0  0
  190.4100  174.5630  146.5650 O   0  0  0  0  0  0  0  0  0  0  0  0
  191.4120  177.0440  144.1090 C   0  0  0  0  0  1  0  0  0  0  0  0
  190.4400  176.4420  145.1050 C   0  0  1  0  0  3  0  0  0  0  0  0
  189.1940  176.2660  144.4950 O   0  0  0  0  0  0  0  0  0  0  0  0
  188.5860  177.5250  144.5240 C   0  0  2  0  0  3  0  0  0  0  0  0
  186.3270  178.5500  143.8920 C   0  0  0  0  0  2  0  0  0  0  0  0
  186.7260  177.4980  146.0670 O   0  0  0  0  0  0  0  0  0  0  0  0
  188.0900  177.8160  145.9460 C   0  0  0  0  0  2  0  0  0  0  0  0
  187.4320  177.5590  143.5080 C   0  0  1  0  0  3  0  0  0  0  0  0
  186.0290  178.5260  145.4020 C   0  0  2  0  0  3  0  0  0  0  0  0
  184.1310  177.6560  146.5640 O   0  0  0  0  0  1  0  0  0  0  0  0
  184.5640  178.3880  145.6360 C   0  0  0  0  0  0  0  0  0  0  0  0
  183.6690  179.0600  144.8140 O   0  0  0  0  0  0  0  0  0  0  0  0
  188.9580  178.4840  141.9620 O   0  0  0  0  0  0  0  0  0  0  0  0
  187.9380  177.8310  142.1190 C   0  0  0  0  0  0  0  0  0  0  0  0
  187.2170  177.3110  140.9110 C   0  0  0  0  0  2  0  0  0  0  0  0
  187.7160  176.0680  140.5190 O   0  0  0  0  0  1  0  0  0  0  0  0
  1 20  1  6  0  0  0
  1 14  1  0  0  0  0
  2 11  2  0  0  0  0
  2  5  1  0  0  0  0
  3  6  1  0  0  0  0
  4  9  1  0  0  0  0
  5  7  2  0  0  0  0
  6  9  1  0  0  0  0
  7  3  1  0  0  0  0
  8  4  1  0  0  0  0
  9  1  1  1  0  0  0
 10  8  1  0  0  0  0
 10  3  2  0  0  0  0
 11 10  1  0  0  0  0
 12 17  1  0  0  0  0
 13 14  1  0  0  0  0
 13 12  2  0  0  0  0
 14 18  2  0  0  0  0
 16 12  1  0  0  0  0
 17 19  2  0  0  0  0
 18 19  1  0  0  0  0
 19 15  1  0  0  0  0
 20 21  1  0  0  0  0
 21 22  2  0  0  0  0
 24 23  1  6  0  0  0
 24 21  1  0  0  0  0
 25 24  1  0  0  0  0
 26 25  1  1  0  0  0
 26 29  1  0  0  0  0
 27 31  1  0  0  0  0
 29 28  1  0  0  0  0
 30 36  1  6  0  0  0
 30 27  1  0  0  0  0
 30 26  1  0  0  0  0
 31 33  1  6  0  0  0
 31 28  1  0  0  0  0
 33 32  1  0  0  0  0
 34 33  2  0  0  0  0
 35 36  2  0  0  0  0
 37 36  1  0  0  0  0
 38 37  1  0  0  0  0
M  END
>  <MODEL>
9

>  <REMARK>
 VINA RESULT:      -6.8      3.426      7.732
  Name = 
  10 active torsions:
  status: ('A' for Active; 'I' for Inactive)
    1  A    between atoms: C_2  and  O_6
    2  A    between atoms: C_2  and  C_23
    3  A    between atoms: C_2  and  C_26
    4  A    between atoms: O_6  and  C_15
    5  A    between atoms: C_7  and  O_29
    6  A    between atoms: C_8  and  C_38
    7  A    between atoms: C_15  and  C_21
    8  A    between atoms: C_18  and  C_38
    9  A    between atoms: C_21  and  O_29
   10  A    between atoms: C_25  and  C_27
                            x       y       z     vdW  Elec       q    Type
                         _______ _______ _______ _____ _____    ______ ____

>  <TORSDO>
F 10

$$$$
