=
 OpenBabel11072408343D

 26 27  0  0  1  0  0  0  0  0999 V2000
  185.9810  178.0180  145.2460 C   0  0  0  0  0  0  0  0  0  0  0  0
  187.3110  178.1040  144.7980 C   0  0  0  0  0  3  0  0  0  0  0  0
  188.0290  176.6270  146.5770 C   0  0  0  0  0  0  0  0  0  0  0  0
  186.7160  176.5560  147.0490 C   0  0  0  0  0  3  0  0  0  0  0  0
  185.6980  177.2520  146.3900 C   0  0  0  0  0  3  0  0  0  0  0  0
  188.3270  177.4100  145.4580 C   0  0  0  0  0  3  0  0  0  0  0  0
  184.8890  178.8100  144.5670 C   0  0  1  0  0  0  0  0  0  0  0  0
  183.8230  179.0140  145.4470 O   0  0  0  0  0  1  0  0  0  0  0  0
  185.4010  180.1060  144.1470 N   0  0  0  0  0  1  0  0  0  0  0  0
  184.3950  178.0290  143.3510 C   0  0  0  0  0  2  0  0  0  0  0  0
  184.9930  178.5070  142.1520 O   0  0  0  0  0  0  0  0  0  0  0  0
  186.3860  176.7060  141.8710 O   0  0  0  0  0  1  0  0  0  0  0  0
  185.9850  177.9750  140.0080 O   0  0  0  0  0  0  0  0  0  0  0  0
  185.8040  177.6960  141.3580 C   0  0  0  0  0  0  0  0  0  0  0  0
  189.1180  175.9060  147.2920 C   0  0  0  0  0  2  0  0  0  0  0  0
  189.1240  174.5060  146.8960 N   0  0  0  0  0  2  0  0  0  0  0  0
  192.5380  175.3950  144.5630 C   0  0  2  0  0  3  0  0  0  0  0  0
  191.2760  174.7760  144.0050 C   0  0  0  0  0  3  0  0  0  0  0  0
  191.4530  175.2220  146.8180 C   0  0  0  0  0  2  0  0  0  0  0  0
  190.2970  174.2920  144.7860 C   0  0  0  0  0  3  0  0  0  0  0  0
  192.7530  175.0490  146.0390 C   0  0  0  0  0  2  0  0  0  0  0  0
  190.4160  174.2370  146.2880 C   0  0  2  0  0  3  0  0  0  0  0  0
  192.4860  176.8400  144.4050 N   0  0  0  0  0  2  0  0  0  0  0  0
  191.9370  177.1090  143.0850 C   0  0  0  0  0  2  0  0  0  0  0  0
  189.9210  177.8650  142.4030 O   0  0  0  0  0  1  0  0  0  0  0  0
  190.9880  178.2070  143.1640 N   0  0  0  0  0  2  0  0  0  0  0  0
  1  5  1  0  0  0  0
  2  1  2  0  0  0  0
  2  6  1  0  0  0  0
  3  4  1  0  0  0  0
  3 15  1  0  0  0  0
  5  4  2  0  0  0  0
  6  3  2  0  0  0  0
  7  9  1  6  0  0  0
  7  1  1  0  0  0  0
  7  8  1  0  0  0  0
 10  7  1  0  0  0  0
 11 10  1  0  0  0  0
 13 14  2  0  0  0  0
 14 12  1  0  0  0  0
 14 11  1  0  0  0  0
 16 15  1  0  0  0  0
 17 23  1  1  0  0  0
 17 21  1  0  0  0  0
 18 17  1  0  0  0  0
 18 20  2  0  0  0  0
 20 22  1  0  0  0  0
 21 19  1  0  0  0  0
 22 19  1  0  0  0  0
 22 16  1  1  0  0  0
 24 26  1  0  0  0  0
 24 23  1  0  0  0  0
 25 26  1  0  0  0  0
M  END
>  <MODEL>
1

>  <REMARK>
 VINA RESULT:      -6.1      0.000      0.000
  Name = 
  10 active torsions:
  status: ('A' for Active; 'I' for Inactive)
    1  A    between atoms: C_1  and  C_3
    2  A    between atoms: C_1  and  C_7
    3  A    between atoms: N_2  and  C_17
    4  A    between atoms: N_2  and  C_21
    5  A    between atoms: C_5  and  N_6
    6  A    between atoms: N_6  and  C_19
    7  A    between atoms: C_7  and  O_24
    8  A    between atoms: C_12  and  C_17
    9  A    between atoms: N_16  and  C_19
   10  A    between atoms: O_24  and  C_25
                            x       y       z     vdW  Elec       q    Type
                         _______ _______ _______ _____ _____    ______ ____

>  <TORSDO>
F 10

$$$$
=
 OpenBabel11072408343D

 26 27  0  0  1  0  0  0  0  0999 V2000
  186.2720  177.9030  145.2740 C   0  0  0  0  0  0  0  0  0  0  0  0
  186.0480  177.1300  146.4270 C   0  0  0  0  0  3  0  0  0  0  0  0
  188.3570  176.4010  146.4140 C   0  0  0  0  0  0  0  0  0  0  0  0
  188.5850  177.1410  145.2510 C   0  0  0  0  0  3  0  0  0  0  0  0
  187.5470  177.8850  144.6820 C   0  0  0  0  0  3  0  0  0  0  0  0
  187.0850  176.3870  146.9940 C   0  0  0  0  0  3  0  0  0  0  0  0
  185.1400  178.6650  144.6280 C   0  0  1  0  0  0  0  0  0  0  0  0
  184.0550  178.7540  145.5060 O   0  0  0  0  0  1  0  0  0  0  0  0
  185.5760  180.0120  144.2890 N   0  0  0  0  0  1  0  0  0  0  0  0
  184.7040  177.9270  143.3650 C   0  0  0  0  0  2  0  0  0  0  0  0
  185.0120  178.6770  142.1960 O   0  0  0  0  0  0  0  0  0  0  0  0
  186.9890  178.0310  141.2280 O   0  0  0  0  0  1  0  0  0  0  0  0
  185.0970  177.7050  139.9790 O   0  0  0  0  0  0  0  0  0  0  0  0
  185.7380  178.1310  141.1370 C   0  0  0  0  0  0  0  0  0  0  0  0
  189.4550  175.5890  147.0080 C   0  0  0  0  0  2  0  0  0  0  0  0
  190.5980  176.4420  147.2930 N   0  0  0  0  0  2  0  0  0  0  0  0
  193.9260  175.1720  145.0110 C   0  0  2  0  0  3  0  0  0  0  0  0
  192.5540  174.5440  144.9180 C   0  0  0  0  0  3  0  0  0  0  0  0
  192.9930  176.5900  146.8580 C   0  0  0  0  0  2  0  0  0  0  0  0
  191.5750  174.8000  145.8010 C   0  0  0  0  0  3  0  0  0  0  0  0
  194.1960  175.7780  146.3920 C   0  0  0  0  0  2  0  0  0  0  0  0
  191.7930  175.6620  147.0200 C   0  0  2  0  0  3  0  0  0  0  0  0
  194.0640  176.2010  143.9920 N   0  0  0  0  0  2  0  0  0  0  0  0
  195.2620  175.8920  143.2280 C   0  0  0  0  0  2  0  0  0  0  0  0
  197.4750  176.3080  143.0570 O   0  0  0  0  0  1  0  0  0  0  0  0
  196.3420  176.7760  143.6330 N   0  0  0  0  0  2  0  0  0  0  0  0
  1  2  1  0  0  0  0
  2  6  2  0  0  0  0
  3  6  1  0  0  0  0
  3 15  1  0  0  0  0
  4  3  2  0  0  0  0
  5  4  1  0  0  0  0
  5  1  2  0  0  0  0
  7  9  1  6  0  0  0
  7  1  1  0  0  0  0
  7  8  1  0  0  0  0
 10  7  1  0  0  0  0
 11 10  1  0  0  0  0
 13 14  2  0  0  0  0
 14 12  1  0  0  0  0
 14 11  1  0  0  0  0
 15 16  1  0  0  0  0
 17 23  1  6  0  0  0
 17 21  1  0  0  0  0
 18 17  1  0  0  0  0
 18 20  2  0  0  0  0
 19 22  1  0  0  0  0
 20 22  1  0  0  0  0
 21 19  1  0  0  0  0
 22 16  1  6  0  0  0
 24 26  1  0  0  0  0
 24 23  1  0  0  0  0
 25 26  1  0  0  0  0
M  END
>  <MODEL>
2

>  <REMARK>
 VINA RESULT:      -6.0      2.053      2.482
  Name = 
  10 active torsions:
  status: ('A' for Active; 'I' for Inactive)
    1  A    between atoms: C_1  and  C_3
    2  A    between atoms: C_1  and  C_7
    3  A    between atoms: N_2  and  C_17
    4  A    between atoms: N_2  and  C_21
    5  A    between atoms: C_5  and  N_6
    6  A    between atoms: N_6  and  C_19
    7  A    between atoms: C_7  and  O_24
    8  A    between atoms: C_12  and  C_17
    9  A    between atoms: N_16  and  C_19
   10  A    between atoms: O_24  and  C_25
                            x       y       z     vdW  Elec       q    Type
                         _______ _______ _______ _____ _____    ______ ____

>  <TORSDO>
F 10

$$$$
=
 OpenBabel11072408343D

 26 27  0  0  1  0  0  0  0  0999 V2000
  186.9270  177.5830  145.9030 C   0  0  0  0  0  0  0  0  0  0  0  0
  187.3890  176.5590  146.7470 C   0  0  0  0  0  3  0  0  0  0  0  0
  189.3830  176.3130  145.3960 C   0  0  0  0  0  0  0  0  0  0  0  0
  188.9210  177.3100  144.5320 C   0  0  0  0  0  3  0  0  0  0  0  0
  187.6980  177.9380  144.7810 C   0  0  0  0  0  3  0  0  0  0  0  0
  188.6110  175.9300  146.4970 C   0  0  0  0  0  3  0  0  0  0  0  0
  185.5830  178.2270  146.1400 C   0  0  1  0  0  0  0  0  0  0  0  0
  184.6070  177.2470  146.3420 O   0  0  0  0  0  1  0  0  0  0  0  0
  185.6390  179.0780  147.3210 N   0  0  0  0  0  1  0  0  0  0  0  0
  185.2110  179.0620  144.9170 C   0  0  0  0  0  2  0  0  0  0  0  0
  184.1250  178.4810  144.2060 O   0  0  0  0  0  0  0  0  0  0  0  0
  183.3900  178.3010  142.0400 O   0  0  0  0  0  0  0  0  0  0  0  0
  185.3520  177.2280  142.5360 O   0  0  0  0  0  1  0  0  0  0  0  0
  184.2640  178.0140  142.8980 C   0  0  0  0  0  0  0  0  0  0  0  0
  190.6750  175.6250  145.1190 C   0  0  0  0  0  2  0  0  0  0  0  0
  191.0020  174.7310  146.2190 N   0  0  0  0  0  2  0  0  0  0  0  0
  195.0380  175.7570  145.4790 C   0  0  2  0  0  3  0  0  0  0  0  0
  194.5010  174.3470  145.3940 C   0  0  0  0  0  3  0  0  0  0  0  0
  192.7530  176.4270  146.2680 C   0  0  0  0  0  2  0  0  0  0  0  0
  193.2850  174.0040  145.8490 C   0  0  0  0  0  3  0  0  0  0  0  0
  194.2520  176.6220  146.4700 C   0  0  0  0  0  2  0  0  0  0  0  0
  192.3890  174.9780  146.5730 C   0  0  2  0  0  3  0  0  0  0  0  0
  195.0060  176.3750  144.1620 N   0  0  0  0  0  2  0  0  0  0  0  0
  196.3580  176.3220  143.6290 C   0  0  0  0  0  2  0  0  0  0  0  0
  195.9260  176.9460  141.5020 O   0  0  0  0  0  1  0  0  0  0  0  0
  196.3210  175.8840  142.2440 N   0  0  0  0  0  2  0  0  0  0  0  0
  1  7  1  0  0  0  0
  1  2  1  0  0  0  0
  3  6  1  0  0  0  0
  4  5  1  0  0  0  0
  4  3  2  0  0  0  0
  5  1  2  0  0  0  0
  6  2  2  0  0  0  0
  7  8  1  1  0  0  0
  7  9  1  0  0  0  0
 10  7  1  0  0  0  0
 11 10  1  0  0  0  0
 12 14  2  0  0  0  0
 13 14  1  0  0  0  0
 14 11  1  0  0  0  0
 15  3  1  0  0  0  0
 15 16  1  0  0  0  0
 17 23  1  6  0  0  0
 17 21  1  0  0  0  0
 18 17  1  0  0  0  0
 18 20  2  0  0  0  0
 19 21  1  0  0  0  0
 19 22  1  0  0  0  0
 20 22  1  0  0  0  0
 22 16  1  6  0  0  0
 24 23  1  0  0  0  0
 25 26  1  0  0  0  0
 26 24  1  0  0  0  0
M  END
>  <MODEL>
3

>  <REMARK>
 VINA RESULT:      -6.0      2.285      3.030
  Name = 
  10 active torsions:
  status: ('A' for Active; 'I' for Inactive)
    1  A    between atoms: C_1  and  C_3
    2  A    between atoms: C_1  and  C_7
    3  A    between atoms: N_2  and  C_17
    4  A    between atoms: N_2  and  C_21
    5  A    between atoms: C_5  and  N_6
    6  A    between atoms: N_6  and  C_19
    7  A    between atoms: C_7  and  O_24
    8  A    between atoms: C_12  and  C_17
    9  A    between atoms: N_16  and  C_19
   10  A    between atoms: O_24  and  C_25
                            x       y       z     vdW  Elec       q    Type
                         _______ _______ _______ _____ _____    ______ ____

>  <TORSDO>
F 10

$$$$
=
 OpenBabel11072408343D

 26 27  0  0  1  0  0  0  0  0999 V2000
  186.1580  177.8710  145.1030 C   0  0  0  0  0  0  0  0  0  0  0  0
  187.4390  177.8580  144.5240 C   0  0  0  0  0  3  0  0  0  0  0  0
  188.2290  176.3530  146.2480 C   0  0  0  0  0  0  0  0  0  0  0  0
  186.9680  176.3800  146.8500 C   0  0  0  0  0  3  0  0  0  0  0  0
  185.9400  177.1390  146.2840 C   0  0  0  0  0  3  0  0  0  0  0  0
  188.4660  177.1010  145.0910 C   0  0  0  0  0  3  0  0  0  0  0  0
  185.0610  178.7300  144.5230 C   0  0  1  0  0  0  0  0  0  0  0  0
  184.0080  178.8480  145.4350 O   0  0  0  0  0  1  0  0  0  0  0  0
  185.5730  180.0600  144.2280 N   0  0  0  0  0  1  0  0  0  0  0  0
  184.5460  178.0770  143.2430 C   0  0  0  0  0  2  0  0  0  0  0  0
  185.0820  178.7100  142.0870 O   0  0  0  0  0  0  0  0  0  0  0  0
  183.7610  178.1280  140.3050 O   0  0  0  0  0  1  0  0  0  0  0  0
  185.9990  177.6970  140.0880 O   0  0  0  0  0  0  0  0  0  0  0  0
  184.9120  178.1800  140.8080 C   0  0  0  0  0  0  0  0  0  0  0  0
  189.3330  175.5650  146.8630 C   0  0  0  0  0  2  0  0  0  0  0  0
  190.4570  176.4390  147.1580 N   0  0  0  0  0  2  0  0  0  0  0  0
  193.9440  175.2570  145.0770 C   0  0  2  0  0  3  0  0  0  0  0  0
  192.5830  174.6370  144.8560 C   0  0  0  0  0  3  0  0  0  0  0  0
  192.8770  176.5990  146.9080 C   0  0  0  0  0  2  0  0  0  0  0  0
  191.5420  174.8590  145.6750 C   0  0  0  0  0  3  0  0  0  0  0  0
  194.1110  175.8030  146.4980 C   0  0  0  0  0  2  0  0  0  0  0  0
  191.6690  175.6680  146.9410 C   0  0  2  0  0  3  0  0  0  0  0  0
  194.1560  176.3280  144.1150 N   0  0  0  0  0  2  0  0  0  0  0  0
  194.8860  175.7590  142.9930 C   0  0  0  0  0  2  0  0  0  0  0  0
  196.8030  176.8980  142.6370 O   0  0  0  0  0  1  0  0  0  0  0  0
  196.3130  175.8030  143.2640 N   0  0  0  0  0  2  0  0  0  0  0  0
  1  5  1  0  0  0  0
  2  6  1  0  0  0  0
  2  1  2  0  0  0  0
  3  4  1  0  0  0  0
  3 15  1  0  0  0  0
  5  4  2  0  0  0  0
  6  3  2  0  0  0  0
  7  9  1  6  0  0  0
  7  1  1  0  0  0  0
  7  8  1  0  0  0  0
 10  7  1  0  0  0  0
 11 10  1  0  0  0  0
 12 14  1  0  0  0  0
 13 14  2  0  0  0  0
 14 11  1  0  0  0  0
 15 16  1  0  0  0  0
 17 23  1  6  0  0  0
 17 21  1  0  0  0  0
 18 17  1  0  0  0  0
 18 20  2  0  0  0  0
 19 22  1  0  0  0  0
 20 22  1  0  0  0  0
 21 19  1  0  0  0  0
 22 16  1  6  0  0  0
 24 26  1  0  0  0  0
 24 23  1  0  0  0  0
 25 26  1  0  0  0  0
M  END
>  <MODEL>
4

>  <REMARK>
 VINA RESULT:      -5.9      1.967      2.270
  Name = 
  10 active torsions:
  status: ('A' for Active; 'I' for Inactive)
    1  A    between atoms: C_1  and  C_3
    2  A    between atoms: C_1  and  C_7
    3  A    between atoms: N_2  and  C_17
    4  A    between atoms: N_2  and  C_21
    5  A    between atoms: C_5  and  N_6
    6  A    between atoms: N_6  and  C_19
    7  A    between atoms: C_7  and  O_24
    8  A    between atoms: C_12  and  C_17
    9  A    between atoms: N_16  and  C_19
   10  A    between atoms: O_24  and  C_25
                            x       y       z     vdW  Elec       q    Type
                         _______ _______ _______ _____ _____    ______ ____

>  <TORSDO>
F 10

$$$$
=
 OpenBabel11072408343D

 26 27  0  0  1  0  0  0  0  0999 V2000
  190.5530  175.7900  145.2950 C   0  0  0  0  0  0  0  0  0  0  0  0
  190.1350  177.0540  144.8430 C   0  0  0  0  0  3  0  0  0  0  0  0
  188.3080  177.0440  146.4310 C   0  0  0  0  0  0  0  0  0  0  0  0
  188.6950  175.7750  146.8690 C   0  0  0  0  0  3  0  0  0  0  0  0
  189.8080  175.1490  146.3010 C   0  0  0  0  0  3  0  0  0  0  0  0
  189.0220  177.6780  145.4100 C   0  0  0  0  0  3  0  0  0  0  0  0
  191.7230  175.0900  144.6470 C   0  0  1  0  0  0  0  0  0  0  0  0
  192.2630  174.1420  145.5220 O   0  0  0  0  0  1  0  0  0  0  0  0
  191.2890  174.4110  143.4350 N   0  0  0  0  0  1  0  0  0  0  0  0
  192.7920  176.1260  144.3060 C   0  0  0  0  0  2  0  0  0  0  0  0
  194.0140  175.5020  143.9290 O   0  0  0  0  0  0  0  0  0  0  0  0
  195.5410  175.3610  145.6350 O   0  0  0  0  0  1  0  0  0  0  0  0
  196.1010  176.7300  143.8860 O   0  0  0  0  0  0  0  0  0  0  0  0
  195.2310  175.8470  144.5170 C   0  0  0  0  0  0  0  0  0  0  0  0
  187.1080  177.7020  147.0180 C   0  0  0  0  0  2  0  0  0  0  0  0
  185.9380  176.8600  146.8190 N   0  0  0  0  0  2  0  0  0  0  0  0
  185.3810  178.9850  143.2040 C   0  0  2  0  0  3  0  0  0  0  0  0
  185.4260  179.6400  144.5660 C   0  0  0  0  0  3  0  0  0  0  0  0
  185.5500  176.7930  144.4130 C   0  0  0  0  0  2  0  0  0  0  0  0
  185.3740  178.9410  145.7110 C   0  0  0  0  0  3  0  0  0  0  0  0
  184.8730  177.5410  143.2700 C   0  0  0  0  0  2  0  0  0  0  0  0
  185.1670  177.4470  145.7370 C   0  0  2  0  0  3  0  0  0  0  0  0
  186.7060  179.0080  142.6050 N   0  0  0  0  0  2  0  0  0  0  0  0
  186.6570  178.1660  141.4200 C   0  0  0  0  0  2  0  0  0  0  0  0
  188.8920  178.2470  141.7300 O   0  0  0  0  0  1  0  0  0  0  0  0
  187.9040  177.4330  141.2880 N   0  0  0  0  0  2  0  0  0  0  0  0
  1  5  1  0  0  0  0
  2  1  2  0  0  0  0
  2  6  1  0  0  0  0
  3  4  1  0  0  0  0
  3 15  1  0  0  0  0
  5  4  2  0  0  0  0
  6  3  2  0  0  0  0
  7  9  1  6  0  0  0
  7  1  1  0  0  0  0
  7  8  1  0  0  0  0
 10  7  1  0  0  0  0
 11 10  1  0  0  0  0
 11 14  1  0  0  0  0
 13 14  2  0  0  0  0
 14 12  1  0  0  0  0
 16 15  1  0  0  0  0
 17 23  1  1  0  0  0
 17 21  1  0  0  0  0
 17 18  1  0  0  0  0
 18 20  2  0  0  0  0
 19 22  1  0  0  0  0
 20 22  1  0  0  0  0
 21 19  1  0  0  0  0
 22 16  1  1  0  0  0
 24 23  1  0  0  0  0
 26 24  1  0  0  0  0
 26 25  1  0  0  0  0
M  END
>  <MODEL>
5

>  <REMARK>
 VINA RESULT:      -5.9      2.884      6.833
  Name = 
  10 active torsions:
  status: ('A' for Active; 'I' for Inactive)
    1  A    between atoms: C_1  and  C_3
    2  A    between atoms: C_1  and  C_7
    3  A    between atoms: N_2  and  C_17
    4  A    between atoms: N_2  and  C_21
    5  A    between atoms: C_5  and  N_6
    6  A    between atoms: N_6  and  C_19
    7  A    between atoms: C_7  and  O_24
    8  A    between atoms: C_12  and  C_17
    9  A    between atoms: N_16  and  C_19
   10  A    between atoms: O_24  and  C_25
                            x       y       z     vdW  Elec       q    Type
                         _______ _______ _______ _____ _____    ______ ____

>  <TORSDO>
F 10

$$$$
=
 OpenBabel11072408343D

 26 27  0  0  1  0  0  0  0  0999 V2000
  186.1420  177.9920  145.2300 C   0  0  0  0  0  0  0  0  0  0  0  0
  187.4340  178.0680  144.6820 C   0  0  0  0  0  3  0  0  0  0  0  0
  188.2470  176.4820  146.3210 C   0  0  0  0  0  0  0  0  0  0  0  0
  186.9740  176.4200  146.8930 C   0  0  0  0  0  3  0  0  0  0  0  0
  185.9280  177.1740  146.3540 C   0  0  0  0  0  3  0  0  0  0  0  0
  188.4790  177.3150  145.2220 C   0  0  0  0  0  3  0  0  0  0  0  0
  185.0230  178.8450  144.6820 C   0  0  1  0  0  0  0  0  0  0  0  0
  184.0490  179.0510  145.6630 O   0  0  0  0  0  1  0  0  0  0  0  0
  185.5430  180.1390  144.2630 N   0  0  0  0  0  1  0  0  0  0  0  0
  184.3930  178.1290  143.4900 C   0  0  0  0  0  2  0  0  0  0  0  0
  184.8630  178.6630  142.2590 O   0  0  0  0  0  0  0  0  0  0  0  0
  185.6970  178.2530  140.1610 O   0  0  0  0  0  0  0  0  0  0  0  0
  186.2990  176.7680  141.7980 O   0  0  0  0  0  1  0  0  0  0  0  0
  185.6260  177.9070  141.3680 C   0  0  0  0  0  0  0  0  0  0  0  0
  189.3690  175.6980  146.9080 C   0  0  0  0  0  2  0  0  0  0  0  0
  190.6340  176.1660  146.3650 N   0  0  0  0  0  2  0  0  0  0  0  0
  190.9290  173.5530  143.0520 C   0  0  2  0  0  3  0  0  0  0  0  0
  190.0720  173.2760  144.2660 C   0  0  0  0  0  3  0  0  0  0  0  0
  191.7250  175.6030  144.2580 C   0  0  0  0  0  2  0  0  0  0  0  0
  190.1630  173.9930  145.3980 C   0  0  0  0  0  3  0  0  0  0  0  0
  192.1420  174.4270  143.3810 C   0  0  0  0  0  2  0  0  0  0  0  0
  191.1970  175.0750  145.5880 C   0  0  2  0  0  3  0  0  0  0  0  0
  190.1270  174.2000  142.0240 N   0  0  0  0  0  2  0  0  0  0  0  0
  189.6730  173.1610  141.1140 C   0  0  0  0  0  2  0  0  0  0  0  0
  188.1440  172.6330  139.5390 O   0  0  0  0  0  1  0  0  0  0  0  0
  188.5670  173.6590  140.3150 N   0  0  0  0  0  2  0  0  0  0  0  0
  1  5  1  0  0  0  0
  2  6  1  0  0  0  0
  2  1  2  0  0  0  0
  3  4  1  0  0  0  0
  3 15  1  0  0  0  0
  5  4  2  0  0  0  0
  6  3  2  0  0  0  0
  7  9  1  6  0  0  0
  7  1  1  0  0  0  0
  7  8  1  0  0  0  0
 10  7  1  0  0  0  0
 11 10  1  0  0  0  0
 12 14  2  0  0  0  0
 14 13  1  0  0  0  0
 14 11  1  0  0  0  0
 16 15  1  0  0  0  0
 17 23  1  6  0  0  0
 17 21  1  0  0  0  0
 17 18  1  0  0  0  0
 18 20  2  0  0  0  0
 19 22  1  0  0  0  0
 20 22  1  0  0  0  0
 21 19  1  0  0  0  0
 22 16  1  6  0  0  0
 24 23  1  0  0  0  0
 25 26  1  0  0  0  0
 26 24  1  0  0  0  0
M  END
>  <MODEL>
6

>  <REMARK>
 VINA RESULT:      -5.6      2.019      2.496
  Name = 
  10 active torsions:
  status: ('A' for Active; 'I' for Inactive)
    1  A    between atoms: C_1  and  C_3
    2  A    between atoms: C_1  and  C_7
    3  A    between atoms: N_2  and  C_17
    4  A    between atoms: N_2  and  C_21
    5  A    between atoms: C_5  and  N_6
    6  A    between atoms: N_6  and  C_19
    7  A    between atoms: C_7  and  O_24
    8  A    between atoms: C_12  and  C_17
    9  A    between atoms: N_16  and  C_19
   10  A    between atoms: O_24  and  C_25
                            x       y       z     vdW  Elec       q    Type
                         _______ _______ _______ _____ _____    ______ ____

>  <TORSDO>
F 10

$$$$
=
 OpenBabel11072408343D

 26 27  0  0  1  0  0  0  0  0999 V2000
  187.3210  177.1470  146.1810 C   0  0  0  0  0  0  0  0  0  0  0  0
  188.0360  177.7230  145.1170 C   0  0  0  0  0  3  0  0  0  0  0  0
  189.8780  176.2000  145.5000 C   0  0  0  0  0  0  0  0  0  0  0  0
  189.1900  175.6390  146.5780 C   0  0  0  0  0  3  0  0  0  0  0  0
  187.9200  176.1120  146.9200 C   0  0  0  0  0  3  0  0  0  0  0  0
  189.3050  177.2500  144.7770 C   0  0  0  0  0  3  0  0  0  0  0  0
  185.9720  177.6920  146.5840 C   0  0  1  0  0  0  0  0  0  0  0  0
  184.9850  176.7170  146.4060 O   0  0  0  0  0  1  0  0  0  0  0  0
  185.9910  178.0840  147.9860 N   0  0  0  0  0  1  0  0  0  0  0  0
  185.6460  178.9020  145.7120 C   0  0  0  0  0  2  0  0  0  0  0  0
  184.5240  178.6480  144.8740 O   0  0  0  0  0  0  0  0  0  0  0  0
  185.6930  179.0460  142.9410 O   0  0  0  0  0  1  0  0  0  0  0  0
  183.5450  178.2910  142.6880 O   0  0  0  0  0  0  0  0  0  0  0  0
  184.6220  178.6700  143.4830 C   0  0  0  0  0  0  0  0  0  0  0  0
  191.2410  175.7130  145.1490 C   0  0  0  0  0  2  0  0  0  0  0  0
  191.3620  174.3030  145.4870 N   0  0  0  0  0  2  0  0  0  0  0  0
  189.2530  172.9160  142.0930 C   0  0  2  0  0  3  0  0  0  0  0  0
  189.2380  172.2190  143.4340 C   0  0  0  0  0  3  0  0  0  0  0  0
  190.9110  174.5060  143.0990 C   0  0  0  0  0  2  0  0  0  0  0  0
  190.0840  172.5360  144.4280 C   0  0  0  0  0  3  0  0  0  0  0  0
  190.5480  173.6990  141.8580 C   0  0  0  0  0  2  0  0  0  0  0  0
  191.1860  173.5510  144.2560 C   0  0  2  0  0  3  0  0  0  0  0  0
  188.1150  173.8170  141.9970 N   0  0  0  0  0  2  0  0  0  0  0  0
  188.2490  174.5480  140.7460 C   0  0  0  0  0  2  0  0  0  0  0  0
  187.0450  175.9820  142.0080 O   0  0  0  0  0  1  0  0  0  0  0  0
  187.8920  175.9410  140.9530 N   0  0  0  0  0  2  0  0  0  0  0  0
  1  7  1  0  0  0  0
  1  5  1  0  0  0  0
  2  1  2  0  0  0  0
  3  4  1  0  0  0  0
  4  5  2  0  0  0  0
  6  2  1  0  0  0  0
  6  3  2  0  0  0  0
  7  8  1  6  0  0  0
  7  9  1  0  0  0  0
 10  7  1  0  0  0  0
 11 10  1  0  0  0  0
 12 14  1  0  0  0  0
 13 14  2  0  0  0  0
 14 11  1  0  0  0  0
 15 16  1  0  0  0  0
 15  3  1  0  0  0  0
 17 23  1  1  0  0  0
 17 18  1  0  0  0  0
 18 20  2  0  0  0  0
 19 22  1  0  0  0  0
 21 17  1  0  0  0  0
 21 19  1  0  0  0  0
 22 20  1  0  0  0  0
 22 16  1  1  0  0  0
 24 26  1  0  0  0  0
 24 23  1  0  0  0  0
 26 25  1  0  0  0  0
M  END
>  <MODEL>
7

>  <REMARK>
 VINA RESULT:      -5.6      2.338      3.333
  Name = 
  10 active torsions:
  status: ('A' for Active; 'I' for Inactive)
    1  A    between atoms: C_1  and  C_3
    2  A    between atoms: C_1  and  C_7
    3  A    between atoms: N_2  and  C_17
    4  A    between atoms: N_2  and  C_21
    5  A    between atoms: C_5  and  N_6
    6  A    between atoms: N_6  and  C_19
    7  A    between atoms: C_7  and  O_24
    8  A    between atoms: C_12  and  C_17
    9  A    between atoms: N_16  and  C_19
   10  A    between atoms: O_24  and  C_25
                            x       y       z     vdW  Elec       q    Type
                         _______ _______ _______ _____ _____    ______ ____

>  <TORSDO>
F 10

$$$$
=
 OpenBabel11072408343D

 26 27  0  0  1  0  0  0  0  0999 V2000
  187.7850  177.4380  144.0750 C   0  0  0  0  0  0  0  0  0  0  0  0
  187.4390  176.5480  145.1060 C   0  0  0  0  0  3  0  0  0  0  0  0
  189.6630  176.7360  146.0460 C   0  0  0  0  0  0  0  0  0  0  0  0
  190.0280  177.5990  145.0100 C   0  0  0  0  0  3  0  0  0  0  0  0
  189.0960  177.9450  144.0270 C   0  0  0  0  0  3  0  0  0  0  0  0
  188.3710  176.2020  146.0870 C   0  0  0  0  0  3  0  0  0  0  0  0
  186.7970  177.7720  142.9840 C   0  0  1  0  0  0  0  0  0  0  0  0
  187.4730  178.1190  141.8100 O   0  0  0  0  0  1  0  0  0  0  0  0
  185.9490  176.6200  142.7100 N   0  0  0  0  0  1  0  0  0  0  0  0
  185.9390  178.9510  143.4370 C   0  0  0  0  0  2  0  0  0  0  0  0
  184.8290  178.5150  144.2110 O   0  0  0  0  0  0  0  0  0  0  0  0
  183.5810  178.6760  146.1300 O   0  0  0  0  0  0  0  0  0  0  0  0
  185.7420  179.4200  146.2640 O   0  0  0  0  0  1  0  0  0  0  0  0
  184.6840  178.8610  145.5550 C   0  0  0  0  0  0  0  0  0  0  0  0
  190.6610  176.3480  147.0800 C   0  0  0  0  0  2  0  0  0  0  0  0
  191.0590  174.9620  146.8850 N   0  0  0  0  0  2  0  0  0  0  0  0
  194.9010  175.5340  145.2120 C   0  0  2  0  0  3  0  0  0  0  0  0
  194.0990  174.2620  145.0580 C   0  0  0  0  0  3  0  0  0  0  0  0
  193.0580  176.3460  146.7080 C   0  0  0  0  0  2  0  0  0  0  0  0
  192.9930  174.0090  145.7770 C   0  0  0  0  0  3  0  0  0  0  0  0
  194.5690  176.2800  146.5080 C   0  0  0  0  0  2  0  0  0  0  0  0
  192.5110  174.9310  146.8690 C   0  0  2  0  0  3  0  0  0  0  0  0
  194.6600  176.4060  144.0730 N   0  0  0  0  0  2  0  0  0  0  0  0
  194.6220  175.5650  142.8870 C   0  0  0  0  0  2  0  0  0  0  0  0
  192.5120  176.3480  142.7000 O   0  0  0  0  0  1  0  0  0  0  0  0
  193.6140  176.0620  141.9660 N   0  0  0  0  0  2  0  0  0  0  0  0
  1  2  1  0  0  0  0
  2  6  2  0  0  0  0
  3  6  1  0  0  0  0
  3 15  1  0  0  0  0
  4  3  2  0  0  0  0
  5  1  2  0  0  0  0
  5  4  1  0  0  0  0
  7  8  1  6  0  0  0
  7 10  1  0  0  0  0
  7  1  1  0  0  0  0
  9  7  1  0  0  0  0
 10 11  1  0  0  0  0
 11 14  1  0  0  0  0
 14 12  2  0  0  0  0
 14 13  1  0  0  0  0
 16 15  1  0  0  0  0
 17 23  1  6  0  0  0
 17 21  1  0  0  0  0
 18 17  1  0  0  0  0
 18 20  2  0  0  0  0
 19 22  1  0  0  0  0
 20 22  1  0  0  0  0
 21 19  1  0  0  0  0
 22 16  1  6  0  0  0
 24 23  1  0  0  0  0
 26 25  1  0  0  0  0
 26 24  1  0  0  0  0
M  END
>  <MODEL>
8

>  <REMARK>
 VINA RESULT:      -5.6      2.088      3.254
  Name = 
  10 active torsions:
  status: ('A' for Active; 'I' for Inactive)
    1  A    between atoms: C_1  and  C_3
    2  A    between atoms: C_1  and  C_7
    3  A    between atoms: N_2  and  C_17
    4  A    between atoms: N_2  and  C_21
    5  A    between atoms: C_5  and  N_6
    6  A    between atoms: N_6  and  C_19
    7  A    between atoms: C_7  and  O_24
    8  A    between atoms: C_12  and  C_17
    9  A    between atoms: N_16  and  C_19
   10  A    between atoms: O_24  and  C_25
                            x       y       z     vdW  Elec       q    Type
                         _______ _______ _______ _____ _____    ______ ____

>  <TORSDO>
F 10

$$$$
=
 OpenBabel11072408343D

 26 27  0  0  1  0  0  0  0  0999 V2000
  191.8150  176.3870  145.1400 C   0  0  0  0  0  0  0  0  0  0  0  0
  191.4790  176.0340  146.4590 C   0  0  0  0  0  3  0  0  0  0  0  0
  189.3390  177.1450  146.2350 C   0  0  0  0  0  0  0  0  0  0  0  0
  189.6740  177.5270  144.9330 C   0  0  0  0  0  3  0  0  0  0  0  0
  190.9060  177.1540  144.3900 C   0  0  0  0  0  3  0  0  0  0  0  0
  190.2470  176.4080  147.0010 C   0  0  0  0  0  3  0  0  0  0  0  0
  193.1670  176.0300  144.5700 C   0  0  1  0  0  0  0  0  0  0  0  0
  193.1890  176.2700  143.1930 O   0  0  0  0  0  1  0  0  0  0  0  0
  194.2020  176.8370  145.2000 N   0  0  0  0  0  1  0  0  0  0  0  0
  193.4370  174.5490  144.8260 C   0  0  0  0  0  2  0  0  0  0  0  0
  192.7770  173.7300  143.8680 O   0  0  0  0  0  0  0  0  0  0  0  0
  190.6060  173.2720  144.4510 O   0  0  0  0  0  1  0  0  0  0  0  0
  192.0280  171.4800  144.3590 O   0  0  0  0  0  0  0  0  0  0  0  0
  191.7660  172.8390  144.2300 C   0  0  0  0  0  0  0  0  0  0  0  0
  188.0360  177.5610  146.8230 C   0  0  0  0  0  2  0  0  0  0  0  0
  187.0480  176.5130  146.6210 N   0  0  0  0  0  2  0  0  0  0  0  0
  185.4060  178.7870  143.4550 C   0  0  2  0  0  3  0  0  0  0  0  0
  185.7380  179.3570  144.8150 C   0  0  0  0  0  3  0  0  0  0  0  0
  186.0680  176.5550  144.3890 C   0  0  0  0  0  2  0  0  0  0  0  0
  186.0400  178.5870  145.8730 C   0  0  0  0  0  3  0  0  0  0  0  0
  185.0600  177.2960  143.5180 C   0  0  0  0  0  2  0  0  0  0  0  0
  185.9790  177.0810  145.8180 C   0  0  2  0  0  3  0  0  0  0  0  0
  186.5280  178.9890  142.5520 N   0  0  0  0  0  2  0  0  0  0  0  0
  186.2500  178.2280  141.3440 C   0  0  0  0  0  2  0  0  0  0  0  0
  188.4510  177.9230  141.7460 O   0  0  0  0  0  1  0  0  0  0  0  0
  187.4620  177.5650  140.8930 N   0  0  0  0  0  2  0  0  0  0  0  0
  1  2  1  0  0  0  0
  2  6  2  0  0  0  0
  3 15  1  0  0  0  0
  3  6  1  0  0  0  0
  4  3  2  0  0  0  0
  5  4  1  0  0  0  0
  5  1  2  0  0  0  0
  7  8  1  6  0  0  0
  7 10  1  0  0  0  0
  7  1  1  0  0  0  0
  7  9  1  0  0  0  0
 11 14  1  0  0  0  0
 11 10  1  0  0  0  0
 14 13  2  0  0  0  0
 14 12  1  0  0  0  0
 16 15  1  0  0  0  0
 17 23  1  6  0  0  0
 17 21  1  0  0  0  0
 17 18  1  0  0  0  0
 18 20  2  0  0  0  0
 19 22  1  0  0  0  0
 21 19  1  0  0  0  0
 22 20  1  0  0  0  0
 22 16  1  1  0  0  0
 24 23  1  0  0  0  0
 26 24  1  0  0  0  0
 26 25  1  0  0  0  0
M  END
>  <MODEL>
9

>  <REMARK>
 VINA RESULT:      -5.5      2.631      6.700
  Name = 
  10 active torsions:
  status: ('A' for Active; 'I' for Inactive)
    1  A    between atoms: C_1  and  C_3
    2  A    between atoms: C_1  and  C_7
    3  A    between atoms: N_2  and  C_17
    4  A    between atoms: N_2  and  C_21
    5  A    between atoms: C_5  and  N_6
    6  A    between atoms: N_6  and  C_19
    7  A    between atoms: C_7  and  O_24
    8  A    between atoms: C_12  and  C_17
    9  A    between atoms: N_16  and  C_19
   10  A    between atoms: O_24  and  C_25
                            x       y       z     vdW  Elec       q    Type
                         _______ _______ _______ _____ _____    ______ ____

>  <TORSDO>
F 10

$$$$
