=
 OpenBabel11062421203D

 51 58  0  0  1  0  0  0  0  0999 V2000
  190.4160  173.3270  143.0600 C   0  0  2  0  0  3  0  0  0  0  0  0
  189.5500  173.8620  145.4400 C   0  0  0  0  0  2  0  0  0  0  0  0
  193.3780  175.9000  145.0680 C   0  0  0  0  0  2  0  0  0  0  0  0
  190.4360  175.6410  144.4630 C   0  0  1  0  0  3  0  0  0  0  0  0
  195.8240  171.6590  141.7010 N   0  0  0  0  0  0  0  0  0  0  0  0
  189.9590  175.6490  146.9880 C   0  0  1  0  0  3  0  0  0  0  0  0
  191.0620  177.5070  148.0070 F   0  0  0  0  0  0  0  0  0  0  0  0
  193.6220  175.9390  146.5780 C   0  0  0  0  0  2  0  0  0  0  0  0
  194.4670  173.6980  144.4450 C   0  0  0  0  0  2  0  0  0  0  0  0
  196.4800  171.6690  143.9620 O   0  0  0  0  0  0  0  0  0  0  0  0
  189.4410  175.3540  145.5660 C   0  0  2  0  0  0  0  0  0  0  0  0
  193.1870  174.5060  144.4640 C   0  0  1  0  0  3  0  0  0  0  0  0
  190.6640  174.0960  144.3980 C   0  0  2  0  0  0  0  0  0  0  0  0
  191.2060  176.5300  147.0380 C   0  0  1  0  0  3  0  0  0  0  0  0
  191.4920  173.6610  142.0270 C   0  0  0  0  0  2  0  0  0  0  0  0
  193.9090  173.0680  142.0110 C   0  0  1  0  0  3  0  0  0  0  0  0
  192.3750  175.6300  147.4010 C   0  0  0  0  0  2  0  0  0  0  0  0
  192.0090  173.7080  145.0320 C   0  0  0  0  0  2  0  0  0  0  0  0
  195.6320  171.9610  143.0670 C   0  0  0  0  0  0  0  0  0  0  0  0
  194.4950  172.7680  143.3130 N   0  0  0  0  0  0  0  0  0  0  0  0
  194.7710  172.3390  140.9660 C   0  0  0  0  0  2  0  0  0  0  0  0
  192.4930  172.5230  141.9470 C   0  0  0  0  0  2  0  0  0  0  0  0
  188.7510  176.3750  146.4700 C   0  0  1  0  0  3  0  0  0  0  0  0
  189.7680  176.2370  143.2140 C   0  0  1  0  0  3  0  0  0  0  0  0
  188.1540  178.0720  142.8660 C   0  0  1  0  0  3  0  0  0  0  0  0
  188.3330  176.6830  143.4420 C   0  0  0  0  0  2  0  0  0  0  0  0
  189.5160  178.5600  142.4230 C   0  0  2  0  0  3  0  0  0  0  0  0
  188.5060  178.0930  141.3900 C   0  0  0  0  0  2  0  0  0  0  0  0
  190.5200  177.4690  142.7480 C   0  0  0  0  0  2  0  0  0  0  0  0
  188.2450  172.3000  142.8070 O   0  0  0  0  0  1  0  0  0  0  0  0
  188.9820  173.4410  142.4930 C   0  0  2  0  0  3  0  0  0  0  0  0
  188.9410  173.6500  141.0050 C   0  0  0  0  0  3  0  0  0  0  0  0
  188.3580  174.6010  140.5120 O   0  0  0  0  0  0  0  0  0  0  0  0
  197.1600  171.4920  141.1600 C   0  0  0  0  0  2  0  0  0  0  0  0
  197.7040  172.8170  140.6560 C   0  0  0  0  0  2  0  0  0  0  0  0
  197.5920  171.3600  138.6380 C   0  0  0  0  0  1  0  0  0  0  0  0
  197.9410  172.7440  139.1470 C   0  0  1  0  0  3  0  0  0  0  0  0
  197.4350  173.7090  136.9960 O   0  0  0  0  0  1  0  0  0  0  0  0
  197.4610  175.2280  138.8320 C   0  0  0  0  0  1  0  0  0  0  0  0
  197.1680  173.8120  138.3600 C   0  0  2  0  0  3  0  0  0  0  0  0
  187.5490  175.8130  147.0670 N   0  0  0  0  0  2  0  0  0  0  0  0
  184.4820  178.0730  144.9890 C   0  0  2  0  0  3  0  0  0  0  0  0
  184.7220  178.2130  147.2500 N   0  0  0  0  0  2  0  0  0  0  0  0
  184.0110  178.7870  146.1820 N   0  0  0  0  0  2  0  0  0  0  0  0
  186.5150  176.6470  147.5920 C   0  0  0  0  0  3  0  0  0  0  0  0
  185.8090  177.3830  145.3150 C   0  0  0  0  0  2  0  0  0  0  0  0
  185.7790  177.4060  146.7860 C   0  0  0  0  0  0  0  0  0  0  0  0
  184.6200  179.0300  143.8140 C   0  0  0  0  0  2  0  0  0  0  0  0
  184.9120  177.8700  141.5960 N   0  0  0  0  0  1  0  0  0  0  0  0
  184.0470  178.4240  142.5800 C   0  0  0  0  0  0  0  0  0  0  0  0
  182.7960  178.3690  142.4220 O   0  0  0  0  0  0  0  0  0  0  0  0
  1 31  1  6  0  0  0
  1 13  1  0  0  0  0
  2 11  1  0  0  0  0
  3  8  1  0  0  0  0
  4 24  1  6  0  0  0
  4 11  1  0  0  0  0
  5 19  1  0  0  0  0
  6 14  1  0  0  0  0
  8 17  1  0  0  0  0
  9 12  1  0  0  0  0
 11 23  1  0  0  0  0
 11  6  1  0  0  0  0
 12 18  1  0  0  0  0
 12  3  1  0  0  0  0
 13  4  1  0  0  0  0
 13 18  1  0  0  0  0
 13  2  1  0  0  0  0
 14 17  1  0  0  0  0
 14  7  1  0  0  0  0
 15  1  1  0  0  0  0
 16 20  1  0  0  0  0
 19 20  1  0  0  0  0
 19 10  2  0  0  0  0
 20  9  1  0  0  0  0
 21  5  1  0  0  0  0
 21 16  1  0  0  0  0
 22 16  1  0  0  0  0
 22 15  1  0  0  0  0
 23  6  1  0  0  0  0
 23 41  1  0  0  0  0
 24 26  1  0  0  0  0
 25 26  1  0  0  0  0
 27 29  1  0  0  0  0
 27 25  1  0  0  0  0
 28 27  1  0  0  0  0
 28 25  1  0  0  0  0
 29 24  1  0  0  0  0
 31 30  1  0  0  0  0
 32 31  1  0  0  0  0
 33 32  2  0  0  0  0
 34  5  1  0  0  0  0
 35 34  1  0  0  0  0
 36 37  1  0  0  0  0
 37 35  1  0  0  0  0
 38 40  1  0  0  0  0
 40 39  1  0  0  0  0
 40 37  1  0  0  0  0
 41 45  1  0  0  0  0
 42 46  1  0  0  0  0
 42 44  1  0  0  0  0
 44 43  1  0  0  0  0
 46 47  1  0  0  0  0
 47 43  1  0  0  0  0
 47 45  2  0  0  0  0
 48 42  1  0  0  0  0
 49 50  1  0  0  0  0
 50 48  1  0  0  0  0
 51 50  2  0  0  0  0
M  END
>  <MODEL>
1

>  <REMARK>
 VINA RESULT:      -7.7      0.000      0.000
  Name = 
  11 active torsions:
  status: ('A' for Active; 'I' for Inactive)
    1  A    between atoms: C_1  and  C_35
    2  A    between atoms: C_2  and  C_9
    3  A    between atoms: C_3  and  C_13
    4  A    between atoms: C_4  and  C_35
    5  A    between atoms: N_10  and  C_11
    6  A    between atoms: C_11  and  C_51
    7  A    between atoms: C_13  and  C_34
    8  A    between atoms: C_28  and  C_48
    9  A    between atoms: C_28  and  C_51
   10  A    between atoms: N_36  and  C_37
   11  A    between atoms: N_36  and  C_49
                            x       y       z     vdW  Elec       q    Type
                         _______ _______ _______ _____ _____    ______ ____

>  <TORSDO>
F 11

$$$$
=
 OpenBabel11062421203D

 51 58  0  0  1  0  0  0  0  0999 V2000
  190.5100  173.3650  143.5170 C   0  0  2  0  0  3  0  0  0  0  0  0
  189.5050  174.0630  145.7970 C   0  0  0  0  0  2  0  0  0  0  0  0
  193.2240  176.2890  145.3910 C   0  0  0  0  0  2  0  0  0  0  0  0
  190.3320  175.7960  144.6930 C   0  0  1  0  0  3  0  0  0  0  0  0
  196.0610  171.9140  142.5440 N   0  0  0  0  0  0  0  0  0  0  0  0
  189.7390  176.0070  147.1850 C   0  0  1  0  0  3  0  0  0  0  0  0
  190.6850  178.0150  148.0680 F   0  0  0  0  0  0  0  0  0  0  0  0
  193.3950  176.4820  146.8990 C   0  0  0  0  0  2  0  0  0  0  0  0
  194.4640  174.1100  145.0250 C   0  0  0  0  0  2  0  0  0  0  0  0
  196.6100  172.1720  144.8190 O   0  0  0  0  0  0  0  0  0  0  0  0
  189.3050  175.5510  145.7770 C   0  0  2  0  0  0  0  0  0  0  0  0
  193.1410  174.8360  144.9140 C   0  0  1  0  0  3  0  0  0  0  0  0
  190.6510  174.2680  144.7850 C   0  0  2  0  0  0  0  0  0  0  0  0
  190.9300  176.9640  147.2020 C   0  0  1  0  0  3  0  0  0  0  0  0
  191.6120  173.6690  142.5010 C   0  0  0  0  0  2  0  0  0  0  0  0
  194.0570  173.2260  142.6400 C   0  0  1  0  0  3  0  0  0  0  0  0
  192.1300  176.1740  147.6960 C   0  0  0  0  0  2  0  0  0  0  0  0
  191.9850  174.0240  145.5070 C   0  0  0  0  0  2  0  0  0  0  0  0
  195.7890  172.3280  143.8660 C   0  0  0  0  0  0  0  0  0  0  0  0
  194.5980  173.0830  143.9880 N   0  0  0  0  0  0  0  0  0  0  0  0
  195.0070  172.4570  141.7050 C   0  0  0  0  0  2  0  0  0  0  0  0
  192.6790  172.5910  142.5710 C   0  0  0  0  0  2  0  0  0  0  0  0
  188.5170  176.6070  146.5510 C   0  0  1  0  0  3  0  0  0  0  0  0
  189.6900  176.2330  143.3680 C   0  0  1  0  0  3  0  0  0  0  0  0
  187.9810  177.9140  142.7840 C   0  0  1  0  0  3  0  0  0  0  0  0
  188.2200  176.5970  143.4900 C   0  0  0  0  0  2  0  0  0  0  0  0
  189.3290  178.4540  142.3570 C   0  0  2  0  0  3  0  0  0  0  0  0
  188.4030  177.8290  141.3290 C   0  0  0  0  0  2  0  0  0  0  0  0
  190.3830  177.4670  142.8250 C   0  0  0  0  0  2  0  0  0  0  0  0
  188.5120  172.0860  143.0600 O   0  0  0  0  0  1  0  0  0  0  0  0
  189.1000  173.3380  142.8830 C   0  0  2  0  0  3  0  0  0  0  0  0
  189.0950  173.6720  141.4170 C   0  0  0  0  0  3  0  0  0  0  0  0
  188.7250  172.8640  140.5820 O   0  0  0  0  0  0  0  0  0  0  0  0
  197.4290  171.7790  142.0770 C   0  0  0  0  0  2  0  0  0  0  0  0
  197.9360  170.3650  142.3050 C   0  0  0  0  0  2  0  0  0  0  0  0
  196.9230  168.4600  141.0590 C   0  0  0  0  0  1  0  0  0  0  0  0
  196.7690  169.3790  142.2550 C   0  0  1  0  0  3  0  0  0  0  0  0
  195.3770  168.7980  144.1370 O   0  0  0  0  0  1  0  0  0  0  0  0
  197.7240  168.8140  144.5500 C   0  0  0  0  0  1  0  0  0  0  0  0
  196.6140  168.5560  143.5420 C   0  0  2  0  0  3  0  0  0  0  0  0
  187.3220  176.0300  147.1490 N   0  0  0  0  0  2  0  0  0  0  0  0
  184.4040  178.1050  144.6990 C   0  0  2  0  0  3  0  0  0  0  0  0
  184.4130  178.3290  146.9650 N   0  0  0  0  0  2  0  0  0  0  0  0
  183.7930  178.8410  145.8120 N   0  0  0  0  0  2  0  0  0  0  0  0
  186.2140  176.8420  147.5390 C   0  0  0  0  0  3  0  0  0  0  0  0
  185.7140  177.4750  145.1790 C   0  0  0  0  0  2  0  0  0  0  0  0
  185.5370  177.5470  146.6370 C   0  0  0  0  0  0  0  0  0  0  0  0
  184.6260  179.0270  143.5090 C   0  0  0  0  0  2  0  0  0  0  0  0
  182.6620  178.2890  142.1140 N   0  0  0  0  0  1  0  0  0  0  0  0
  184.0690  178.4180  142.2680 C   0  0  0  0  0  0  0  0  0  0  0  0
  184.8410  178.0510  141.3400 O   0  0  0  0  0  0  0  0  0  0  0  0
  1 31  1  6  0  0  0
  1 13  1  0  0  0  0
  3  8  1  0  0  0  0
  4 24  1  6  0  0  0
  4 13  1  0  0  0  0
  4 11  1  0  0  0  0
  5 19  1  0  0  0  0
  6 14  1  0  0  0  0
  8 17  1  0  0  0  0
 11  2  1  0  0  0  0
 11 23  1  0  0  0  0
 11  6  1  0  0  0  0
 12  9  1  0  0  0  0
 12  3  1  0  0  0  0
 12 18  1  0  0  0  0
 13 18  1  0  0  0  0
 13  2  1  0  0  0  0
 14 17  1  0  0  0  0
 14  7  1  0  0  0  0
 15 22  1  0  0  0  0
 15  1  1  0  0  0  0
 16 20  1  0  0  0  0
 19 20  1  0  0  0  0
 19 10  2  0  0  0  0
 20  9  1  0  0  0  0
 21  5  1  0  0  0  0
 21 16  1  0  0  0  0
 22 16  1  0  0  0  0
 23 41  1  0  0  0  0
 23  6  1  0  0  0  0
 24 26  1  0  0  0  0
 25 26  1  0  0  0  0
 27 25  1  0  0  0  0
 27 29  1  0  0  0  0
 28 27  1  0  0  0  0
 28 25  1  0  0  0  0
 29 24  1  0  0  0  0
 31 30  1  0  0  0  0
 32 31  1  0  0  0  0
 33 32  2  0  0  0  0
 34 35  1  0  0  0  0
 34  5  1  0  0  0  0
 36 37  1  0  0  0  0
 37 35  1  0  0  0  0
 37 40  1  0  0  0  0
 40 38  1  0  0  0  0
 40 39  1  0  0  0  0
 41 45  1  0  0  0  0
 42 46  1  0  0  0  0
 42 44  1  0  0  0  0
 44 43  1  0  0  0  0
 46 47  1  0  0  0  0
 47 43  1  0  0  0  0
 47 45  2  0  0  0  0
 48 42  1  0  0  0  0
 49 50  1  0  0  0  0
 50 48  1  0  0  0  0
 51 50  2  0  0  0  0
M  END
>  <MODEL>
2

>  <REMARK>
 VINA RESULT:      -7.5      1.743      2.343
  Name = 
  11 active torsions:
  status: ('A' for Active; 'I' for Inactive)
    1  A    between atoms: C_1  and  C_35
    2  A    between atoms: C_2  and  C_9
    3  A    between atoms: C_3  and  C_13
    4  A    between atoms: C_4  and  C_35
    5  A    between atoms: N_10  and  C_11
    6  A    between atoms: C_11  and  C_51
    7  A    between atoms: C_13  and  C_34
    8  A    between atoms: C_28  and  C_48
    9  A    between atoms: C_28  and  C_51
   10  A    between atoms: N_36  and  C_37
   11  A    between atoms: N_36  and  C_49
                            x       y       z     vdW  Elec       q    Type
                         _______ _______ _______ _____ _____    ______ ____

>  <TORSDO>
F 11

$$$$
=
 OpenBabel11062421203D

 51 58  0  0  1  0  0  0  0  0999 V2000
  192.8320  175.3370  143.6050 C   0  0  2  0  0  3  0  0  0  0  0  0
  190.9560  175.4170  141.8240 C   0  0  0  0  0  2  0  0  0  0  0  0
  190.7440  171.4550  143.6160 C   0  0  0  0  0  2  0  0  0  0  0  0
  190.2820  174.4340  143.6910 C   0  0  1  0  0  3  0  0  0  0  0  0
  196.6180  170.9840  144.3690 N   0  0  0  0  0  0  0  0  0  0  0  0
  188.8900  174.2290  141.5400 C   0  0  1  0  0  3  0  0  0  0  0  0
  187.2510  172.5110  141.8060 F   0  0  0  0  0  0  0  0  0  0  0  0
  190.0570  170.8280  142.4020 C   0  0  0  0  0  2  0  0  0  0  0  0
  193.1870  171.0900  143.0500 C   0  0  0  0  0  2  0  0  0  0  0  0
  195.7250  169.7820  142.5520 O   0  0  0  0  0  0  0  0  0  0  0  0
  189.6510  175.1490  142.5170 C   0  0  2  0  0  0  0  0  0  0  0  0
  192.1040  172.1060  143.3460 C   0  0  1  0  0  3  0  0  0  0  0  0
  191.6400  174.5850  142.9300 C   0  0  2  0  0  0  0  0  0  0  0  0
  188.5610  172.8460  142.0990 C   0  0  1  0  0  3  0  0  0  0  0  0
  193.4180  174.5170  144.7550 C   0  0  0  0  0  2  0  0  0  0  0  0
  194.6980  172.3840  144.6850 C   0  0  1  0  0  3  0  0  0  0  0  0
  189.4970  171.8580  141.4240 C   0  0  0  0  0  2  0  0  0  0  0  0
  192.0860  173.2460  142.3240 C   0  0  0  0  0  2  0  0  0  0  0  0
  195.6460  170.7440  143.3740 C   0  0  0  0  0  0  0  0  0  0  0  0
  194.5000  171.5660  143.4940 N   0  0  0  0  0  0  0  0  0  0  0  0
  196.0810  172.0080  145.2470 C   0  0  0  0  0  2  0  0  0  0  0  0
  194.7070  173.8540  144.3030 C   0  0  0  0  0  2  0  0  0  0  0  0
  188.1580  175.3340  142.2470 C   0  0  1  0  0  3  0  0  0  0  0  0
  190.1880  175.2480  144.9900 C   0  0  1  0  0  3  0  0  0  0  0  0
  188.3210  175.8320  146.4950 C   0  0  1  0  0  3  0  0  0  0  0  0
  188.9060  176.0540  145.1160 C   0  0  0  0  0  2  0  0  0  0  0  0
  189.1500  174.7640  147.1750 C   0  0  2  0  0  3  0  0  0  0  0  0
  189.3180  176.2200  147.5710 C   0  0  0  0  0  2  0  0  0  0  0  0
  190.2250  174.3290  146.1950 C   0  0  0  0  0  2  0  0  0  0  0  0
  192.7170  177.6440  142.8980 O   0  0  0  0  0  1  0  0  0  0  0  0
  192.5450  176.8040  143.9990 C   0  0  2  0  0  3  0  0  0  0  0  0
  193.4070  177.3020  145.1260 C   0  0  0  0  0  3  0  0  0  0  0  0
  193.0480  177.2130  146.2880 O   0  0  0  0  0  0  0  0  0  0  0  0
  197.4560  169.9050  144.8610 C   0  0  0  0  0  2  0  0  0  0  0  0
  197.4150  169.8450  146.3790 C   0  0  0  0  0  2  0  0  0  0  0  0
  197.1000  168.1690  148.1960 C   0  0  0  0  0  1  0  0  0  0  0  0
  196.6180  168.6210  146.8310 C   0  0  1  0  0  3  0  0  0  0  0  0
  194.5530  168.4320  148.0610 O   0  0  0  0  0  1  0  0  0  0  0  0
  194.3770  168.1850  145.6980 C   0  0  0  0  0  1  0  0  0  0  0  0
  195.1010  168.8590  146.8530 C   0  0  2  0  0  3  0  0  0  0  0  0
  187.9270  176.4360  141.3260 N   0  0  0  0  0  2  0  0  0  0  0  0
  186.0580  179.1990  144.1010 C   0  0  2  0  0  3  0  0  0  0  0  0
  184.9580  178.4640  142.2480 N   0  0  0  0  0  2  0  0  0  0  0  0
  184.7590  179.2140  143.4200 N   0  0  0  0  0  2  0  0  0  0  0  0
  186.6620  177.0930  141.2470 C   0  0  0  0  0  3  0  0  0  0  0  0
  186.9010  178.0510  143.5390 C   0  0  0  0  0  2  0  0  0  0  0  0
  186.1800  177.7660  142.2880 C   0  0  0  0  0  0  0  0  0  0  0  0
  185.8700  179.0730  145.6060 C   0  0  0  0  0  2  0  0  0  0  0  0
  184.7920  176.9460  146.4210 N   0  0  0  0  0  1  0  0  0  0  0  0
  184.6550  178.2670  145.9120 C   0  0  0  0  0  0  0  0  0  0  0  0
  183.5070  178.7660  145.7570 O   0  0  0  0  0  0  0  0  0  0  0  0
  1 31  1  1  0  0  0
  1 15  1  0  0  0  0
  2 11  1  0  0  0  0
  2 13  1  0  0  0  0
  4 24  1  1  0  0  0
  5 34  1  0  0  0  0
  5 21  1  0  0  0  0
  6 14  1  0  0  0  0
  6 23  1  0  0  0  0
  6 11  1  0  0  0  0
  7 14  1  0  0  0  0
  8  3  1  0  0  0  0
  9 12  1  0  0  0  0
  9 20  1  0  0  0  0
 10 19  2  0  0  0  0
 11  4  1  0  0  0  0
 12  3  1  0  0  0  0
 13  1  1  0  0  0  0
 13  4  1  0  0  0  0
 16 21  1  0  0  0  0
 17 14  1  0  0  0  0
 17  8  1  0  0  0  0
 18 13  1  0  0  0  0
 18 12  1  0  0  0  0
 19 20  1  0  0  0  0
 19  5  1  0  0  0  0
 20 16  1  0  0  0  0
 22 16  1  0  0  0  0
 22 15  1  0  0  0  0
 23 11  1  0  0  0  0
 24 26  1  0  0  0  0
 24 29  1  0  0  0  0
 25 27  1  0  0  0  0
 25 28  1  0  0  0  0
 26 25  1  0  0  0  0
 27 28  1  0  0  0  0
 29 27  1  0  0  0  0
 30 31  1  0  0  0  0
 31 32  1  0  0  0  0
 32 33  2  0  0  0  0
 34 35  1  0  0  0  0
 35 37  1  0  0  0  0
 37 40  1  0  0  0  0
 37 36  1  0  0  0  0
 39 40  1  0  0  0  0
 40 38  1  0  0  0  0
 41 23  1  0  0  0  0
 42 48  1  0  0  0  0
 43 47  1  0  0  0  0
 43 44  1  0  0  0  0
 44 42  1  0  0  0  0
 45 41  1  0  0  0  0
 45 47  2  0  0  0  0
 46 42  1  0  0  0  0
 47 46  1  0  0  0  0
 48 50  1  0  0  0  0
 50 49  1  0  0  0  0
 51 50  2  0  0  0  0
M  END
>  <MODEL>
3

>  <REMARK>
 VINA RESULT:      -7.3      3.103      5.538
  Name = 
  11 active torsions:
  status: ('A' for Active; 'I' for Inactive)
    1  A    between atoms: C_1  and  C_35
    2  A    between atoms: C_2  and  C_9
    3  A    between atoms: C_3  and  C_13
    4  A    between atoms: C_4  and  C_35
    5  A    between atoms: N_10  and  C_11
    6  A    between atoms: C_11  and  C_51
    7  A    between atoms: C_13  and  C_34
    8  A    between atoms: C_28  and  C_48
    9  A    between atoms: C_28  and  C_51
   10  A    between atoms: N_36  and  C_37
   11  A    between atoms: N_36  and  C_49
                            x       y       z     vdW  Elec       q    Type
                         _______ _______ _______ _____ _____    ______ ____

>  <TORSDO>
F 11

$$$$
=
 OpenBabel11062421203D

 51 58  0  0  1  0  0  0  0  0999 V2000
  192.3720  173.8490  143.7950 C   0  0  2  0  0  3  0  0  0  0  0  0
  192.4480  171.4180  142.9120 C   0  0  0  0  0  2  0  0  0  0  0  0
  190.3840  173.7410  139.8640 C   0  0  0  0  0  2  0  0  0  0  0  0
  192.8850  172.8910  141.3170 C   0  0  1  0  0  3  0  0  0  0  0  0
  187.7160  177.3390  143.7660 N   0  0  0  0  0  0  0  0  0  0  0  0
  192.3520  170.4490  140.7180 C   0  0  1  0  0  3  0  0  0  0  0  0
  191.9180  170.2740  138.3750 F   0  0  0  0  0  0  0  0  0  0  0  0
  189.6500  172.5290  139.2880 C   0  0  0  0  0  2  0  0  0  0  0  0
  188.7340  174.5350  141.6150 C   0  0  0  0  0  2  0  0  0  0  0  0
  186.3580  175.6510  142.8440 O   0  0  0  0  0  0  0  0  0  0  0  0
  193.1620  171.4290  141.5910 C   0  0  2  0  0  0  0  0  0  0  0  0
  190.1330  174.0240  141.3480 C   0  0  1  0  0  3  0  0  0  0  0  0
  192.0270  172.8740  142.6240 C   0  0  2  0  0  0  0  0  0  0  0  0
  191.7150  171.0810  139.4810 C   0  0  1  0  0  3  0  0  0  0  0  0
  192.0260  175.2920  143.4300 C   0  0  0  0  0  2  0  0  0  0  0  0
  189.7960  176.3490  143.1040 C   0  0  1  0  0  3  0  0  0  0  0  0
  190.2260  171.1950  139.7550 C   0  0  0  0  0  2  0  0  0  0  0  0
  190.5250  172.8900  142.2990 C   0  0  0  0  0  2  0  0  0  0  0  0
  187.5080  176.0830  143.1560 C   0  0  0  0  0  0  0  0  0  0  0  0
  188.7070  175.4370  142.7700 N   0  0  0  0  0  0  0  0  0  0  0  0
  189.1480  177.5810  143.7590 C   0  0  0  0  0  2  0  0  0  0  0  0
  190.7260  175.6910  144.1070 C   0  0  0  0  0  2  0  0  0  0  0  0
  193.8530  170.4340  140.6590 C   0  0  1  0  0  3  0  0  0  0  0  0
  194.1550  173.7520  141.4020 C   0  0  1  0  0  3  0  0  0  0  0  0
  196.1710  173.9450  139.9910 C   0  0  1  0  0  3  0  0  0  0  0  0
  195.4120  173.0370  140.9350 C   0  0  0  0  0  2  0  0  0  0  0  0
  195.3100  175.1640  139.7410 C   0  0  2  0  0  3  0  0  0  0  0  0
  196.5090  175.2610  140.6660 C   0  0  0  0  0  2  0  0  0  0  0  0
  194.0210  174.9800  140.5220 C   0  0  0  0  0  2  0  0  0  0  0  0
  193.7820  172.8890  145.5060 O   0  0  0  0  0  1  0  0  0  0  0  0
  193.7990  173.7020  144.3730 C   0  0  2  0  0  3  0  0  0  0  0  0
  194.4400  175.0150  144.7290 C   0  0  0  0  0  3  0  0  0  0  0  0
  194.4890  175.4070  145.8830 O   0  0  0  0  0  0  0  0  0  0  0  0
  186.7500  178.4110  143.6050 C   0  0  0  0  0  2  0  0  0  0  0  0
  186.3750  179.0020  144.9530 C   0  0  0  0  0  2  0  0  0  0  0  0
  184.2040  178.3540  143.9160 C   0  0  0  0  0  1  0  0  0  0  0  0
  184.8650  178.8970  145.1680 C   0  0  1  0  0  3  0  0  0  0  0  0
  184.8370  178.6840  147.5700 O   0  0  0  0  0  1  0  0  0  0  0  0
  185.1010  176.6530  146.3530 C   0  0  0  0  0  1  0  0  0  0  0  0
  184.4830  178.0420  146.3850 C   0  0  2  0  0  3  0  0  0  0  0  0
  194.3600  169.2910  141.4020 N   0  0  0  0  0  2  0  0  0  0  0  0
  196.6250  168.8500  145.0770 C   0  0  2  0  0  3  0  0  0  0  0  0
  197.6650  168.9200  143.0520 N   0  0  0  0  0  2  0  0  0  0  0  0
  197.9410  168.9050  144.4300 N   0  0  0  0  0  2  0  0  0  0  0  0
  195.7600  169.0840  141.5930 C   0  0  0  0  0  3  0  0  0  0  0  0
  195.5590  169.2910  144.0710 C   0  0  0  0  0  2  0  0  0  0  0  0
  196.2990  169.1560  142.8070 C   0  0  0  0  0  0  0  0  0  0  0  0
  196.6090  169.7170  146.3280 C   0  0  0  0  0  2  0  0  0  0  0  0
  194.9190  168.5530  147.7910 N   0  0  0  0  0  1  0  0  0  0  0  0
  196.2730  168.8960  147.5250 C   0  0  0  0  0  0  0  0  0  0  0  0
  197.1900  168.4740  148.2820 O   0  0  0  0  0  0  0  0  0  0  0  0
  1 31  1  6  0  0  0
  3 12  1  0  0  0  0
  4 24  1  1  0  0  0
  4 11  1  0  0  0  0
  4 13  1  0  0  0  0
  6 11  1  0  0  0  0
  7 14  1  0  0  0  0
  8 17  1  0  0  0  0
  8  3  1  0  0  0  0
  9 20  1  0  0  0  0
 10 19  2  0  0  0  0
 11  2  1  0  0  0  0
 12  9  1  0  0  0  0
 12 18  1  0  0  0  0
 13  2  1  0  0  0  0
 13  1  1  0  0  0  0
 14 17  1  0  0  0  0
 14  6  1  0  0  0  0
 15  1  1  0  0  0  0
 15 22  1  0  0  0  0
 16 21  1  0  0  0  0
 16 22  1  0  0  0  0
 18 13  1  0  0  0  0
 19  5  1  0  0  0  0
 20 16  1  0  0  0  0
 20 19  1  0  0  0  0
 21  5  1  0  0  0  0
 23  6  1  0  0  0  0
 23 41  1  0  0  0  0
 23 11  1  0  0  0  0
 25 28  1  0  0  0  0
 25 26  1  0  0  0  0
 26 24  1  0  0  0  0
 27 25  1  0  0  0  0
 27 29  1  0  0  0  0
 27 28  1  0  0  0  0
 29 24  1  0  0  0  0
 31 32  1  0  0  0  0
 31 30  1  0  0  0  0
 32 33  2  0  0  0  0
 34  5  1  0  0  0  0
 34 35  1  0  0  0  0
 35 37  1  0  0  0  0
 36 37  1  0  0  0  0
 37 40  1  0  0  0  0
 39 40  1  0  0  0  0
 40 38  1  0  0  0  0
 41 45  1  0  0  0  0
 42 48  1  0  0  0  0
 43 44  1  0  0  0  0
 44 42  1  0  0  0  0
 45 47  2  0  0  0  0
 46 42  1  0  0  0  0
 47 43  1  0  0  0  0
 47 46  1  0  0  0  0
 48 50  1  0  0  0  0
 50 49  1  0  0  0  0
 50 51  2  0  0  0  0
M  END
>  <MODEL>
4

>  <REMARK>
 VINA RESULT:      -7.2      3.231     10.732
  Name = 
  11 active torsions:
  status: ('A' for Active; 'I' for Inactive)
    1  A    between atoms: C_1  and  C_35
    2  A    between atoms: C_2  and  C_9
    3  A    between atoms: C_3  and  C_13
    4  A    between atoms: C_4  and  C_35
    5  A    between atoms: N_10  and  C_11
    6  A    between atoms: C_11  and  C_51
    7  A    between atoms: C_13  and  C_34
    8  A    between atoms: C_28  and  C_48
    9  A    between atoms: C_28  and  C_51
   10  A    between atoms: N_36  and  C_37
   11  A    between atoms: N_36  and  C_49
                            x       y       z     vdW  Elec       q    Type
                         _______ _______ _______ _____ _____    ______ ____

>  <TORSDO>
F 11

$$$$
=
 OpenBabel11062421203D

 51 58  0  0  1  0  0  0  0  0999 V2000
  195.3880  175.4690  142.5290 C   0  0  2  0  0  3  0  0  0  0  0  0
  193.0250  175.9070  143.4880 C   0  0  0  0  0  2  0  0  0  0  0  0
  192.5490  172.7790  140.4980 C   0  0  0  0  0  2  0  0  0  0  0  0
  193.4210  173.7440  143.2180 C   0  0  1  0  0  3  0  0  0  0  0  0
  196.7340  174.9620  136.8900 N   0  0  0  0  0  0  0  0  0  0  0  0
  191.0280  174.5830  143.6400 C   0  0  1  0  0  3  0  0  0  0  0  0
  189.4690  172.8370  143.1630 F   0  0  0  0  0  0  0  0  0  0  0  0
  191.0700  173.0880  140.2580 C   0  0  0  0  0  2  0  0  0  0  0  0
  193.6540  174.2800  138.7810 C   0  0  0  0  0  2  0  0  0  0  0  0
  194.5100  175.3800  136.2400 O   0  0  0  0  0  0  0  0  0  0  0  0
  192.5120  174.6150  144.0580 C   0  0  2  0  0  0  0  0  0  0  0  0
  193.5170  173.9400  140.2500 C   0  0  1  0  0  3  0  0  0  0  0  0
  193.8790  175.0650  142.5170 C   0  0  2  0  0  0  0  0  0  0  0  0
  190.6510  173.4140  142.7320 C   0  0  1  0  0  3  0  0  0  0  0  0
  196.2110  174.5500  141.6260 C   0  0  0  0  0  2  0  0  0  0  0  0
  196.2030  174.3490  139.1460 C   0  0  1  0  0  3  0  0  0  0  0  0
  190.4560  173.9780  141.3350 C   0  0  0  0  0  2  0  0  0  0  0  0
  193.2730  175.1830  141.1100 C   0  0  0  0  0  2  0  0  0  0  0  0
  195.3550  175.1250  137.1490 C   0  0  0  0  0  0  0  0  0  0  0  0
  194.9890  174.8050  138.4780 N   0  0  0  0  0  0  0  0  0  0  0  0
  197.3380  174.4600  138.1120 C   0  0  0  0  0  2  0  0  0  0  0  0
  196.5170  175.2600  140.3190 C   0  0  0  0  0  2  0  0  0  0  0  0
  191.4220  174.1470  145.0210 C   0  0  1  0  0  3  0  0  0  0  0  0
  194.5100  173.0590  144.0560 C   0  0  1  0  0  3  0  0  0  0  0  0
  194.4740  171.2460  145.7300 C   0  0  1  0  0  3  0  0  0  0  0  0
  194.0570  172.6740  145.4540 C   0  0  0  0  0  2  0  0  0  0  0  0
  195.0460  170.6820  144.4470 C   0  0  2  0  0  3  0  0  0  0  0  0
  195.9750  171.0840  145.5790 C   0  0  0  0  0  2  0  0  0  0  0  0
  194.9560  171.7710  143.3920 C   0  0  0  0  0  2  0  0  0  0  0  0
  196.1030  176.9990  144.2560 O   0  0  0  0  0  1  0  0  0  0  0  0
  196.0100  175.6460  143.9340 C   0  0  2  0  0  3  0  0  0  0  0  0
  197.3710  175.0220  144.0690 C   0  0  0  0  0  3  0  0  0  0  0  0
  197.6180  174.2210  144.9550 O   0  0  0  0  0  0  0  0  0  0  0  0
  197.1980  174.5570  135.5750 C   0  0  0  0  0  2  0  0  0  0  0  0
  197.9400  173.2340  135.6540 C   0  0  0  0  0  2  0  0  0  0  0  0
  197.9410  170.8570  134.9030 C   0  0  0  0  0  1  0  0  0  0  0  0
  197.1420  172.1450  134.9360 C   0  0  1  0  0  3  0  0  0  0  0  0
  195.8800  171.4410  136.8660 O   0  0  0  0  0  1  0  0  0  0  0  0
  194.9130  170.9220  134.7520 C   0  0  0  0  0  1  0  0  0  0  0  0
  195.7590  171.8980  135.5550 C   0  0  2  0  0  3  0  0  0  0  0  0
  191.0890  175.1910  145.9790 N   0  0  0  0  0  2  0  0  0  0  0  0
  187.1670  176.8560  145.1610 C   0  0  2  0  0  3  0  0  0  0  0  0
  187.6190  175.8180  147.1370 N   0  0  0  0  0  2  0  0  0  0  0  0
  186.6170  176.5620  146.4900 N   0  0  0  0  0  2  0  0  0  0  0  0
  189.8940  175.1370  146.7580 C   0  0  0  0  0  3  0  0  0  0  0  0
  188.6850  176.6630  145.1980 C   0  0  0  0  0  2  0  0  0  0  0  0
  188.8330  175.8670  146.4260 C   0  0  0  0  0  0  0  0  0  0  0  0
  186.7900  178.2650  144.7270 C   0  0  0  0  0  2  0  0  0  0  0  0
  184.4940  179.2540  145.0430 N   0  0  0  0  0  1  0  0  0  0  0  0
  185.3440  178.3310  144.3740 C   0  0  0  0  0  0  0  0  0  0  0  0
  184.8810  177.5970  143.4580 O   0  0  0  0  0  0  0  0  0  0  0  0
  1 31  1  1  0  0  0
  2 11  1  0  0  0  0
  4 24  1  1  0  0  0
  4 11  1  0  0  0  0
  5 19  1  0  0  0  0
  5 21  1  0  0  0  0
  6 11  1  0  0  0  0
  6 23  1  0  0  0  0
  8  3  1  0  0  0  0
  8 17  1  0  0  0  0
  9 12  1  0  0  0  0
 10 19  2  0  0  0  0
 11 23  1  0  0  0  0
 12  3  1  0  0  0  0
 12 18  1  0  0  0  0
 13  1  1  0  0  0  0
 13  4  1  0  0  0  0
 13  2  1  0  0  0  0
 14  7  1  0  0  0  0
 14  6  1  0  0  0  0
 15  1  1  0  0  0  0
 16 22  1  0  0  0  0
 17 14  1  0  0  0  0
 18 13  1  0  0  0  0
 19 20  1  0  0  0  0
 20  9  1  0  0  0  0
 20 16  1  0  0  0  0
 21 16  1  0  0  0  0
 22 15  1  0  0  0  0
 23 41  1  0  0  0  0
 24 26  1  0  0  0  0
 26 25  1  0  0  0  0
 27 28  1  0  0  0  0
 27 25  1  0  0  0  0
 28 25  1  0  0  0  0
 29 24  1  0  0  0  0
 29 27  1  0  0  0  0
 31 32  1  0  0  0  0
 31 30  1  0  0  0  0
 32 33  2  0  0  0  0
 34 35  1  0  0  0  0
 34  5  1  0  0  0  0
 36 37  1  0  0  0  0
 37 40  1  0  0  0  0
 37 35  1  0  0  0  0
 39 40  1  0  0  0  0
 40 38  1  0  0  0  0
 41 45  1  0  0  0  0
 42 46  1  0  0  0  0
 42 44  1  0  0  0  0
 44 43  1  0  0  0  0
 46 47  1  0  0  0  0
 47 45  2  0  0  0  0
 47 43  1  0  0  0  0
 48 42  1  0  0  0  0
 50 48  1  0  0  0  0
 50 49  1  0  0  0  0
 51 50  2  0  0  0  0
M  END
>  <MODEL>
5

>  <REMARK>
 VINA RESULT:      -7.0      2.715      5.812
  Name = 
  11 active torsions:
  status: ('A' for Active; 'I' for Inactive)
    1  A    between atoms: C_1  and  C_35
    2  A    between atoms: C_2  and  C_9
    3  A    between atoms: C_3  and  C_13
    4  A    between atoms: C_4  and  C_35
    5  A    between atoms: N_10  and  C_11
    6  A    between atoms: C_11  and  C_51
    7  A    between atoms: C_13  and  C_34
    8  A    between atoms: C_28  and  C_48
    9  A    between atoms: C_28  and  C_51
   10  A    between atoms: N_36  and  C_37
   11  A    between atoms: N_36  and  C_49
                            x       y       z     vdW  Elec       q    Type
                         _______ _______ _______ _____ _____    ______ ____

>  <TORSDO>
F 11

$$$$
=
 OpenBabel11062421203D

 51 58  0  0  1  0  0  0  0  0999 V2000
  191.6890  174.0380  141.2500 C   0  0  2  0  0  3  0  0  0  0  0  0
  194.1150  174.7870  141.7550 C   0  0  0  0  0  2  0  0  0  0  0  0
  191.9320  175.1780  145.5010 C   0  0  0  0  0  2  0  0  0  0  0  0
  193.2850  173.5230  143.3740 C   0  0  1  0  0  3  0  0  0  0  0  0
  186.8540  176.8270  142.8960 N   0  0  0  0  0  0  0  0  0  0  0  0
  195.4390  174.8740  143.7540 C   0  0  1  0  0  3  0  0  0  0  0  0
  195.9550  174.9220  146.0860 F   0  0  0  0  0  0  0  0  0  0  0  0
  192.8940  176.2210  146.0730 C   0  0  0  0  0  2  0  0  0  0  0  0
  190.2340  176.6530  144.3340 C   0  0  0  0  0  2  0  0  0  0  0  0
  188.0970  178.5610  143.8920 O   0  0  0  0  0  0  0  0  0  0  0  0
  194.6510  173.9070  142.8470 C   0  0  2  0  0  0  0  0  0  0  0  0
  191.2610  175.5510  144.1760 C   0  0  1  0  0  3  0  0  0  0  0  0
  192.7060  174.5320  142.3300 C   0  0  2  0  0  0  0  0  0  0  0  0
  194.9080  174.9760  145.1830 C   0  0  1  0  0  3  0  0  0  0  0  0
  190.3350  173.7090  141.8800 C   0  0  0  0  0  2  0  0  0  0  0  0
  188.6460  175.2350  142.8860 C   0  0  1  0  0  3  0  0  0  0  0  0
  194.2080  176.3190  145.3040 C   0  0  0  0  0  2  0  0  0  0  0  0
  192.2220  175.8200  143.0150 C   0  0  0  0  0  2  0  0  0  0  0  0
  188.0520  177.4080  143.3660 C   0  0  0  0  0  0  0  0  0  0  0  0
  189.1530  176.5200  143.3530 N   0  0  0  0  0  0  0  0  0  0  0  0
  187.1510  175.4400  142.5820 C   0  0  0  0  0  2  0  0  0  0  0  0
  189.3580  174.8380  141.6040 C   0  0  0  0  0  2  0  0  0  0  0  0
  196.0060  173.5200  143.4380 C   0  0  1  0  0  3  0  0  0  0  0  0
  192.9430  172.0520  143.0940 C   0  0  1  0  0  3  0  0  0  0  0  0
  193.9770  169.9130  143.7620 C   0  0  1  0  0  3  0  0  0  0  0  0
  194.1630  171.1610  142.9260 C   0  0  0  0  0  2  0  0  0  0  0  0
  192.7160  170.0950  144.5780 C   0  0  2  0  0  3  0  0  0  0  0  0
  192.7080  169.1830  143.3650 C   0  0  0  0  0  2  0  0  0  0  0  0
  192.1510  171.4640  144.2450 C   0  0  0  0  0  2  0  0  0  0  0  0
  192.6010  173.4440  139.0940 O   0  0  0  0  0  1  0  0  0  0  0  0
  192.2100  172.9160  140.3230 C   0  0  2  0  0  3  0  0  0  0  0  0
  191.2050  171.8230  140.0820 C   0  0  0  0  0  3  0  0  0  0  0  0
  190.5670  171.7640  139.0440 O   0  0  0  0  0  0  0  0  0  0  0  0
  185.5700  177.2390  143.4340 C   0  0  0  0  0  2  0  0  0  0  0  0
  185.3880  176.7150  144.8480 C   0  0  0  0  0  2  0  0  0  0  0  0
  184.1130  178.4020  146.1650 C   0  0  0  0  0  1  0  0  0  0  0  0
  185.4950  177.8660  145.8490 C   0  0  1  0  0  3  0  0  0  0  0  0
  186.5320  178.6130  147.8930 O   0  0  0  0  0  1  0  0  0  0  0  0
  187.4910  176.6750  146.8930 C   0  0  0  0  0  1  0  0  0  0  0  0
  186.2250  177.4800  147.1430 C   0  0  2  0  0  3  0  0  0  0  0  0
  197.0630  173.6510  142.4460 N   0  0  0  0  0  2  0  0  0  0  0  0
  197.9340  173.8270  138.1990 C   0  0  2  0  0  3  0  0  0  0  0  0
  197.7610  171.8330  139.2850 N   0  0  0  0  0  2  0  0  0  0  0  0
  197.9050  172.3730  137.9960 N   0  0  0  0  0  2  0  0  0  0  0  0
  197.3660  172.5970  141.5320 C   0  0  0  0  0  3  0  0  0  0  0  0
  197.3510  174.1480  139.5780 C   0  0  0  0  0  2  0  0  0  0  0  0
  197.4260  172.8280  140.2230 C   0  0  0  0  0  0  0  0  0  0  0  0
  197.1740  174.5360  137.0880 C   0  0  0  0  0  2  0  0  0  0  0  0
  194.8160  175.3020  137.5420 N   0  0  0  0  0  1  0  0  0  0  0  0
  195.7140  174.2550  137.1960 C   0  0  0  0  0  0  0  0  0  0  0  0
  195.2710  173.1010  136.9450 O   0  0  0  0  0  0  0  0  0  0  0  0
  1 31  1  1  0  0  0
  1 15  1  0  0  0  0
  1 13  1  0  0  0  0
  2 13  1  0  0  0  0
  2 11  1  0  0  0  0
  3  8  1  0  0  0  0
  4 24  1  6  0  0  0
  5 19  1  0  0  0  0
  5 34  1  0  0  0  0
  6 14  1  0  0  0  0
 11  4  1  0  0  0  0
 11 23  1  0  0  0  0
 11  6  1  0  0  0  0
 12  9  1  0  0  0  0
 12  3  1  0  0  0  0
 13 18  1  0  0  0  0
 13  4  1  0  0  0  0
 14 17  1  0  0  0  0
 14  7  1  0  0  0  0
 16 20  1  0  0  0  0
 17  8  1  0  0  0  0
 18 12  1  0  0  0  0
 19 10  2  0  0  0  0
 20 19  1  0  0  0  0
 20  9  1  0  0  0  0
 21 16  1  0  0  0  0
 21  5  1  0  0  0  0
 22 15  1  0  0  0  0
 22 16  1  0  0  0  0
 23  6  1  0  0  0  0
 24 29  1  0  0  0  0
 25 27  1  0  0  0  0
 26 24  1  0  0  0  0
 26 25  1  0  0  0  0
 28 25  1  0  0  0  0
 28 27  1  0  0  0  0
 29 27  1  0  0  0  0
 30 31  1  0  0  0  0
 32 31  1  0  0  0  0
 33 32  2  0  0  0  0
 34 35  1  0  0  0  0
 35 37  1  0  0  0  0
 37 36  1  0  0  0  0
 37 40  1  0  0  0  0
 39 40  1  0  0  0  0
 40 38  1  0  0  0  0
 41 23  1  0  0  0  0
 42 46  1  0  0  0  0
 43 47  1  0  0  0  0
 44 42  1  0  0  0  0
 44 43  1  0  0  0  0
 45 41  1  0  0  0  0
 46 47  1  0  0  0  0
 47 45  2  0  0  0  0
 48 50  1  0  0  0  0
 48 42  1  0  0  0  0
 50 49  1  0  0  0  0
 51 50  2  0  0  0  0
M  END
>  <MODEL>
6

>  <REMARK>
 VINA RESULT:      -6.9      2.601      9.924
  Name = 
  11 active torsions:
  status: ('A' for Active; 'I' for Inactive)
    1  A    between atoms: C_1  and  C_35
    2  A    between atoms: C_2  and  C_9
    3  A    between atoms: C_3  and  C_13
    4  A    between atoms: C_4  and  C_35
    5  A    between atoms: N_10  and  C_11
    6  A    between atoms: C_11  and  C_51
    7  A    between atoms: C_13  and  C_34
    8  A    between atoms: C_28  and  C_48
    9  A    between atoms: C_28  and  C_51
   10  A    between atoms: N_36  and  C_37
   11  A    between atoms: N_36  and  C_49
                            x       y       z     vdW  Elec       q    Type
                         _______ _______ _______ _____ _____    ______ ____

>  <TORSDO>
F 11

$$$$
=
 OpenBabel11062421203D

 51 58  0  0  1  0  0  0  0  0999 V2000
  191.9910  173.2300  142.6670 C   0  0  2  0  0  3  0  0  0  0  0  0
  192.6540  173.8940  145.0800 C   0  0  0  0  0  2  0  0  0  0  0  0
  195.2480  176.1920  142.4450 C   0  0  0  0  0  2  0  0  0  0  0  0
  192.5750  175.6490  143.7310 C   0  0  1  0  0  3  0  0  0  0  0  0
  195.6800  171.8900  138.3700 N   0  0  0  0  0  0  0  0  0  0  0  0
  193.6960  175.8330  146.0370 C   0  0  1  0  0  3  0  0  0  0  0  0
  194.9660  177.8530  146.1530 F   0  0  0  0  0  0  0  0  0  0  0  0
  196.3350  176.3780  143.5050 C   0  0  0  0  0  2  0  0  0  0  0  0
  195.9970  174.0390  141.3380 C   0  0  0  0  0  2  0  0  0  0  0  0
  197.5450  172.1440  139.7850 O   0  0  0  0  0  0  0  0  0  0  0  0
  192.4710  175.3780  145.2160 C   0  0  2  0  0  0  0  0  0  0  0  0
  194.8960  174.7410  142.1040 C   0  0  1  0  0  3  0  0  0  0  0  0
  192.8950  174.1270  143.5730 C   0  0  2  0  0  0  0  0  0  0  0  0
  194.6170  176.8120  145.3110 C   0  0  1  0  0  3  0  0  0  0  0  0
  192.1950  173.5610  141.1890 C   0  0  0  0  0  2  0  0  0  0  0  0
  194.1780  173.1630  139.7380 C   0  0  1  0  0  3  0  0  0  0  0  0
  195.8660  176.0420  144.9180 C   0  0  0  0  0  2  0  0  0  0  0  0
  194.3870  173.9030  143.2810 C   0  0  0  0  0  2  0  0  0  0  0  0
  196.3040  172.2910  139.5710 C   0  0  0  0  0  0  0  0  0  0  0  0
  195.4520  173.0220  140.4340 N   0  0  0  0  0  0  0  0  0  0  0  0
  194.3270  172.4190  138.3990 C   0  0  0  0  0  2  0  0  0  0  0  0
  193.0760  172.5030  140.5470 C   0  0  0  0  0  2  0  0  0  0  0  0
  192.3420  176.4140  146.3320 C   0  0  1  0  0  3  0  0  0  0  0  0
  191.2330  176.0820  143.1210 C   0  0  1  0  0  3  0  0  0  0  0  0
  189.4260  177.5770  143.8880 C   0  0  1  0  0  3  0  0  0  0  0  0
  190.1240  176.2590  144.1450 C   0  0  0  0  0  2  0  0  0  0  0  0
  190.1980  178.3000  142.8050 C   0  0  2  0  0  3  0  0  0  0  0  0
  188.8770  177.6290  142.4740 C   0  0  0  0  0  2  0  0  0  0  0  0
  191.3760  177.4200  142.4230 C   0  0  0  0  0  2  0  0  0  0  0  0
  190.2230  172.0000  143.7600 O   0  0  0  0  0  1  0  0  0  0  0  0
  190.5000  173.1810  143.0720 C   0  0  2  0  0  3  0  0  0  0  0  0
  189.5580  173.2930  141.9050 C   0  0  0  0  0  3  0  0  0  0  0  0
  188.8070  172.3800  141.6040 O   0  0  0  0  0  0  0  0  0  0  0  0
  196.4420  171.7840  137.1390 C   0  0  0  0  0  2  0  0  0  0  0  0
  196.1580  172.9680  136.2300 C   0  0  0  0  0  2  0  0  0  0  0  0
  197.9220  173.9170  134.7470 C   0  0  0  0  0  1  0  0  0  0  0  0
  197.3830  173.8810  136.1640 C   0  0  1  0  0  3  0  0  0  0  0  0
  196.1490  175.2960  137.6770 O   0  0  0  0  0  1  0  0  0  0  0  0
  196.6680  176.2500  135.5560 C   0  0  0  0  0  1  0  0  0  0  0  0
  197.1060  175.3050  136.6650 C   0  0  2  0  0  3  0  0  0  0  0  0
  191.8040  175.8100  147.5420 N   0  0  0  0  0  2  0  0  0  0  0  0
  187.7990  177.3460  146.8900 C   0  0  2  0  0  3  0  0  0  0  0  0
  188.1490  175.1690  147.4610 N   0  0  0  0  0  2  0  0  0  0  0  0
  187.1160  176.1020  147.2670 N   0  0  0  0  0  2  0  0  0  0  0  0
  190.5520  175.1240  147.5430 C   0  0  0  0  0  3  0  0  0  0  0  0
  189.2690  177.2510  147.3060 C   0  0  0  0  0  2  0  0  0  0  0  0
  189.4070  175.8000  147.5040 C   0  0  0  0  0  0  0  0  0  0  0  0
  187.1120  178.5450  147.5250 C   0  0  0  0  0  2  0  0  0  0  0  0
  185.7160  179.1300  145.5100 N   0  0  0  0  0  1  0  0  0  0  0  0
  185.7870  178.7840  146.8880 C   0  0  0  0  0  0  0  0  0  0  0  0
  184.7260  178.6450  147.5570 O   0  0  0  0  0  0  0  0  0  0  0  0
  1 31  1  1  0  0  0
  1 13  1  0  0  0  0
  2 11  1  0  0  0  0
  3  8  1  0  0  0  0
  4 24  1  6  0  0  0
  4 11  1  0  0  0  0
  5 21  1  0  0  0  0
  5 19  1  0  0  0  0
  6 23  1  0  0  0  0
  8 17  1  0  0  0  0
  9 12  1  0  0  0  0
 11  6  1  0  0  0  0
 11 23  1  0  0  0  0
 12  3  1  0  0  0  0
 12 18  1  0  0  0  0
 13  4  1  0  0  0  0
 13  2  1  0  0  0  0
 14  6  1  0  0  0  0
 14  7  1  0  0  0  0
 15  1  1  0  0  0  0
 16 20  1  0  0  0  0
 16 22  1  0  0  0  0
 17 14  1  0  0  0  0
 18 13  1  0  0  0  0
 19 10  2  0  0  0  0
 19 20  1  0  0  0  0
 20  9  1  0  0  0  0
 21 16  1  0  0  0  0
 22 15  1  0  0  0  0
 23 41  1  0  0  0  0
 24 26  1  0  0  0  0
 25 26  1  0  0  0  0
 27 25  1  0  0  0  0
 28 27  1  0  0  0  0
 28 25  1  0  0  0  0
 29 27  1  0  0  0  0
 29 24  1  0  0  0  0
 31 30  1  0  0  0  0
 32 31  1  0  0  0  0
 33 32  2  0  0  0  0
 34  5  1  0  0  0  0
 35 34  1  0  0  0  0
 36 37  1  0  0  0  0
 37 35  1  0  0  0  0
 37 40  1  0  0  0  0
 39 40  1  0  0  0  0
 40 38  1  0  0  0  0
 41 45  1  0  0  0  0
 42 44  1  0  0  0  0
 42 46  1  0  0  0  0
 42 48  1  0  0  0  0
 43 47  1  0  0  0  0
 44 43  1  0  0  0  0
 46 47  1  0  0  0  0
 47 45  2  0  0  0  0
 49 50  1  0  0  0  0
 50 48  1  0  0  0  0
 50 51  2  0  0  0  0
M  END
>  <MODEL>
7

>  <REMARK>
 VINA RESULT:      -6.4      2.155      3.344
  Name = 
  11 active torsions:
  status: ('A' for Active; 'I' for Inactive)
    1  A    between atoms: C_1  and  C_35
    2  A    between atoms: C_2  and  C_9
    3  A    between atoms: C_3  and  C_13
    4  A    between atoms: C_4  and  C_35
    5  A    between atoms: N_10  and  C_11
    6  A    between atoms: C_11  and  C_51
    7  A    between atoms: C_13  and  C_34
    8  A    between atoms: C_28  and  C_48
    9  A    between atoms: C_28  and  C_51
   10  A    between atoms: N_36  and  C_37
   11  A    between atoms: N_36  and  C_49
                            x       y       z     vdW  Elec       q    Type
                         _______ _______ _______ _____ _____    ______ ____

>  <TORSDO>
F 11

$$$$
=
 OpenBabel11062421203D

 51 58  0  0  1  0  0  0  0  0999 V2000
  193.8380  174.8890  141.0370 C   0  0  2  0  0  3  0  0  0  0  0  0
  191.8820  175.6230  142.5650 C   0  0  0  0  0  2  0  0  0  0  0  0
  191.5580  171.2980  142.1890 C   0  0  0  0  0  2  0  0  0  0  0  0
  192.8610  173.7780  143.3030 C   0  0  1  0  0  3  0  0  0  0  0  0
  193.4600  171.1900  136.5610 N   0  0  0  0  0  0  0  0  0  0  0  0
  190.5810  174.5020  144.2420 C   0  0  1  0  0  3  0  0  0  0  0  0
  189.6150  172.7020  145.4810 F   0  0  0  0  0  0  0  0  0  0  0  0
  190.0620  171.2770  142.5100 C   0  0  0  0  0  2  0  0  0  0  0  0
  191.5210  171.5400  139.6670 C   0  0  0  0  0  2  0  0  0  0  0  0
  191.1370  170.9460  136.8560 O   0  0  0  0  0  0  0  0  0  0  0  0
  192.0240  174.9010  143.8750 C   0  0  2  0  0  0  0  0  0  0  0  0
  191.9640  172.1470  140.9810 C   0  0  1  0  0  3  0  0  0  0  0  0
  192.6200  174.4380  141.9060 C   0  0  2  0  0  0  0  0  0  0  0  0
  190.3470  172.9960  144.3440 C   0  0  1  0  0  3  0  0  0  0  0  0
  194.5950  173.6830  140.4830 C   0  0  0  0  0  2  0  0  0  0  0  0
  193.8860  172.0230  138.7690 C   0  0  1  0  0  3  0  0  0  0  0  0
  189.5550  172.5830  143.1160 C   0  0  0  0  0  2  0  0  0  0  0  0
  191.6040  173.6320  141.0820 C   0  0  0  0  0  2  0  0  0  0  0  0
  192.2570  171.3620  137.2800 C   0  0  0  0  0  0  0  0  0  0  0  0
  192.4460  171.8820  138.5820 N   0  0  0  0  0  0  0  0  0  0  0  0
  194.5420  171.5800  137.4490 C   0  0  0  0  0  2  0  0  0  0  0  0
  194.2300  173.4800  139.0220 C   0  0  0  0  0  2  0  0  0  0  0  0
  191.5040  175.0230  145.3060 C   0  0  1  0  0  3  0  0  0  0  0  0
  194.3180  173.8300  143.7870 C   0  0  1  0  0  3  0  0  0  0  0  0
  195.3670  173.7500  146.0190 C   0  0  1  0  0  3  0  0  0  0  0  0
  194.5020  174.5800  145.0960 C   0  0  0  0  0  2  0  0  0  0  0  0
  195.5930  172.4110  145.3520 C   0  0  2  0  0  3  0  0  0  0  0  0
  196.7060  173.4430  145.3720 C   0  0  0  0  0  2  0  0  0  0  0  0
  194.8450  172.4290  144.0300 C   0  0  0  0  0  2  0  0  0  0  0  0
  194.6540  177.1630  141.0630 O   0  0  0  0  0  1  0  0  0  0  0  0
  194.7700  175.9290  141.7020 C   0  0  2  0  0  3  0  0  0  0  0  0
  196.2170  175.5200  141.7060 C   0  0  0  0  0  3  0  0  0  0  0  0
  196.9900  175.9290  142.5570 O   0  0  0  0  0  0  0  0  0  0  0  0
  193.6000  170.1120  135.5980 C   0  0  0  0  0  2  0  0  0  0  0  0
  194.0160  168.8260  136.2910 C   0  0  0  0  0  2  0  0  0  0  0  0
  195.8350  169.2910  134.6530 C   0  0  0  0  0  1  0  0  0  0  0  0
  195.3540  168.3410  135.7320 C   0  0  1  0  0  3  0  0  0  0  0  0
  195.9200  168.4400  138.0730 O   0  0  0  0  0  1  0  0  0  0  0  0
  197.6650  169.0250  136.5600 C   0  0  0  0  0  1  0  0  0  0  0  0
  196.4350  168.1660  136.8080 C   0  0  2  0  0  3  0  0  0  0  0  0
  191.1600  176.4020  145.6200 N   0  0  0  0  0  2  0  0  0  0  0  0
  187.0060  177.5760  145.1870 C   0  0  2  0  0  3  0  0  0  0  0  0
  188.0120  177.5340  147.2300 N   0  0  0  0  0  2  0  0  0  0  0  0
  186.8160  177.9210  146.6010 N   0  0  0  0  0  2  0  0  0  0  0  0
  190.1930  176.7230  146.6210 C   0  0  0  0  0  3  0  0  0  0  0  0
  188.5020  177.3990  144.9160 C   0  0  0  0  0  2  0  0  0  0  0  0
  189.0140  177.2400  146.2850 C   0  0  0  0  0  0  0  0  0  0  0  0
  186.3950  178.6440  144.2920 C   0  0  0  0  0  2  0  0  0  0  0  0
  187.0060  178.2940  141.8720 N   0  0  0  0  0  1  0  0  0  0  0  0
  186.0950  178.0840  142.9440 C   0  0  0  0  0  0  0  0  0  0  0  0
  185.0550  177.3930  142.7610 O   0  0  0  0  0  0  0  0  0  0  0  0
  1 31  1  1  0  0  0
  1 13  1  0  0  0  0
  2 11  1  0  0  0  0
  3  8  1  0  0  0  0
  4 24  1  1  0  0  0
  4 11  1  0  0  0  0
  5 19  1  0  0  0  0
  5 21  1  0  0  0  0
  6 14  1  0  0  0  0
  6 23  1  0  0  0  0
  8 17  1  0  0  0  0
  9 12  1  0  0  0  0
 10 19  2  0  0  0  0
 11  6  1  0  0  0  0
 11 23  1  0  0  0  0
 12 18  1  0  0  0  0
 12  3  1  0  0  0  0
 13  2  1  0  0  0  0
 13  4  1  0  0  0  0
 14  7  1  0  0  0  0
 15  1  1  0  0  0  0
 16 22  1  0  0  0  0
 17 14  1  0  0  0  0
 18 13  1  0  0  0  0
 19 20  1  0  0  0  0
 20 16  1  0  0  0  0
 20  9  1  0  0  0  0
 21 16  1  0  0  0  0
 22 15  1  0  0  0  0
 23 41  1  0  0  0  0
 24 29  1  0  0  0  0
 24 26  1  0  0  0  0
 26 25  1  0  0  0  0
 27 28  1  0  0  0  0
 27 25  1  0  0  0  0
 28 25  1  0  0  0  0
 29 27  1  0  0  0  0
 30 31  1  0  0  0  0
 31 32  1  0  0  0  0
 32 33  2  0  0  0  0
 34 35  1  0  0  0  0
 34  5  1  0  0  0  0
 36 37  1  0  0  0  0
 37 35  1  0  0  0  0
 37 40  1  0  0  0  0
 39 40  1  0  0  0  0
 40 38  1  0  0  0  0
 41 45  1  0  0  0  0
 42 44  1  0  0  0  0
 44 43  1  0  0  0  0
 46 42  1  0  0  0  0
 46 47  1  0  0  0  0
 47 45  2  0  0  0  0
 47 43  1  0  0  0  0
 48 42  1  0  0  0  0
 49 50  1  0  0  0  0
 50 48  1  0  0  0  0
 51 50  2  0  0  0  0
M  END
>  <MODEL>
8

>  <REMARK>
 VINA RESULT:      -6.4      3.107      5.517
  Name = 
  11 active torsions:
  status: ('A' for Active; 'I' for Inactive)
    1  A    between atoms: C_1  and  C_35
    2  A    between atoms: C_2  and  C_9
    3  A    between atoms: C_3  and  C_13
    4  A    between atoms: C_4  and  C_35
    5  A    between atoms: N_10  and  C_11
    6  A    between atoms: C_11  and  C_51
    7  A    between atoms: C_13  and  C_34
    8  A    between atoms: C_28  and  C_48
    9  A    between atoms: C_28  and  C_51
   10  A    between atoms: N_36  and  C_37
   11  A    between atoms: N_36  and  C_49
                            x       y       z     vdW  Elec       q    Type
                         _______ _______ _______ _____ _____    ______ ____

>  <TORSDO>
F 11

$$$$
=
 OpenBabel11062421203D

 51 58  0  0  1  0  0  0  0  0999 V2000
  193.1220  173.3100  143.2700 C   0  0  2  0  0  3  0  0  0  0  0  0
  193.1960  170.9350  142.2450 C   0  0  0  0  0  2  0  0  0  0  0  0
  191.0750  173.4200  139.3680 C   0  0  0  0  0  2  0  0  0  0  0  0
  193.6030  172.5020  140.7320 C   0  0  1  0  0  3  0  0  0  0  0  0
  188.4480  176.7690  143.5130 N   0  0  0  0  0  0  0  0  0  0  0  0
  193.0730  170.0960  139.9990 C   0  0  1  0  0  3  0  0  0  0  0  0
  192.6050  170.0550  137.6570 F   0  0  0  0  0  0  0  0  0  0  0  0
  190.3390  172.2390  138.7320 C   0  0  0  0  0  2  0  0  0  0  0  0
  189.4480  174.1010  141.1860 C   0  0  0  0  0  2  0  0  0  0  0  0
  187.0840  175.1290  142.5130 O   0  0  0  0  0  0  0  0  0  0  0  0
  193.8910  171.0280  140.9160 C   0  0  2  0  0  0  0  0  0  0  0  0
  190.8460  173.6150  140.8690 C   0  0  1  0  0  3  0  0  0  0  0  0
  192.7640  172.4030  142.0490 C   0  0  2  0  0  0  0  0  0  0  0  0
  192.4140  170.7950  138.8110 C   0  0  1  0  0  3  0  0  0  0  0  0
  192.7620  174.7700  142.9940 C   0  0  0  0  0  2  0  0  0  0  0  0
  190.5230  175.8310  142.7630 C   0  0  1  0  0  3  0  0  0  0  0  0
  190.9290  170.8840  139.1120 C   0  0  0  0  0  2  0  0  0  0  0  0
  191.2570  172.4290  141.7470 C   0  0  0  0  0  2  0  0  0  0  0  0
  188.2370  175.5490  142.8320 C   0  0  0  0  0  0  0  0  0  0  0  0
  189.4330  174.9340  142.3930 N   0  0  0  0  0  0  0  0  0  0  0  0
  189.8780  177.0190  143.4990 C   0  0  0  0  0  2  0  0  0  0  0  0
  191.4710  175.1210  143.7130 C   0  0  0  0  0  2  0  0  0  0  0  0
  194.5730  170.0930  139.9180 C   0  0  1  0  0  3  0  0  0  0  0  0
  194.8690  173.3640  140.8490 C   0  0  1  0  0  3  0  0  0  0  0  0
  196.8410  173.6850  139.4010 C   0  0  1  0  0  3  0  0  0  0  0  0
  196.1160  172.6990  140.2910 C   0  0  0  0  0  2  0  0  0  0  0  0
  195.9660  174.9130  139.2740 C   0  0  2  0  0  3  0  0  0  0  0  0
  197.1920  174.9460  140.1690 C   0  0  0  0  0  2  0  0  0  0  0  0
  194.7020  174.6570  140.0750 C   0  0  0  0  0  2  0  0  0  0  0  0
  194.5540  172.3050  144.9350 O   0  0  0  0  0  1  0  0  0  0  0  0
  194.5580  173.1380  143.8180 C   0  0  2  0  0  3  0  0  0  0  0  0
  195.2180  174.4380  144.1850 C   0  0  0  0  0  3  0  0  0  0  0  0
  196.3820  174.6630  143.8970 O   0  0  0  0  0  0  0  0  0  0  0  0
  187.4740  177.8420  143.4280 C   0  0  0  0  0  2  0  0  0  0  0  0
  186.8740  178.1300  144.7940 C   0  0  0  0  0  2  0  0  0  0  0  0
  185.0540  177.1690  146.1980 C   0  0  0  0  0  1  0  0  0  0  0  0
  185.4080  177.6960  144.8220 C   0  0  1  0  0  3  0  0  0  0  0  0
  183.7800  178.4870  143.2280 O   0  0  0  0  0  1  0  0  0  0  0  0
  185.1150  180.1660  144.2660 C   0  0  0  0  0  1  0  0  0  0  0  0
  184.4370  178.8130  144.4130 C   0  0  2  0  0  3  0  0  0  0  0  0
  195.0970  168.9110  140.5860 N   0  0  0  0  0  2  0  0  0  0  0  0
  196.0560  168.1810  144.7540 C   0  0  2  0  0  3  0  0  0  0  0  0
  197.6590  168.8250  143.2700 N   0  0  0  0  0  2  0  0  0  0  0  0
  197.4600  168.5940  144.6420 N   0  0  0  0  0  2  0  0  0  0  0  0
  196.3620  168.9250  141.2470 C   0  0  0  0  0  3  0  0  0  0  0  0
  195.3100  168.6100  143.4870 C   0  0  0  0  0  2  0  0  0  0  0  0
  196.4360  168.8560  142.5740 C   0  0  0  0  0  0  0  0  0  0  0  0
  195.4240  168.7720  146.0050 C   0  0  0  0  0  2  0  0  0  0  0  0
  197.1080  168.5420  147.8650 N   0  0  0  0  0  1  0  0  0  0  0  0
  196.4700  169.3570  146.8900 C   0  0  0  0  0  0  0  0  0  0  0  0
  196.8160  170.5620  146.7520 O   0  0  0  0  0  0  0  0  0  0  0  0
  1 31  1  6  0  0  0
  3 12  1  0  0  0  0
  4 24  1  1  0  0  0
  4 11  1  0  0  0  0
  4 13  1  0  0  0  0
  6 11  1  0  0  0  0
  7 14  1  0  0  0  0
  8 17  1  0  0  0  0
  8  3  1  0  0  0  0
  9 20  1  0  0  0  0
 10 19  2  0  0  0  0
 11  2  1  0  0  0  0
 12  9  1  0  0  0  0
 12 18  1  0  0  0  0
 13  2  1  0  0  0  0
 13  1  1  0  0  0  0
 14 17  1  0  0  0  0
 14  6  1  0  0  0  0
 15  1  1  0  0  0  0
 15 22  1  0  0  0  0
 16 21  1  0  0  0  0
 16 22  1  0  0  0  0
 18 13  1  0  0  0  0
 19  5  1  0  0  0  0
 20 16  1  0  0  0  0
 20 19  1  0  0  0  0
 21  5  1  0  0  0  0
 23  6  1  0  0  0  0
 23 41  1  0  0  0  0
 23 11  1  0  0  0  0
 25 28  1  0  0  0  0
 25 26  1  0  0  0  0
 26 24  1  0  0  0  0
 27 25  1  0  0  0  0
 27 29  1  0  0  0  0
 27 28  1  0  0  0  0
 29 24  1  0  0  0  0
 31 32  1  0  0  0  0
 31 30  1  0  0  0  0
 33 32  2  0  0  0  0
 34  5  1  0  0  0  0
 34 35  1  0  0  0  0
 35 37  1  0  0  0  0
 37 36  1  0  0  0  0
 38 40  1  0  0  0  0
 39 40  1  0  0  0  0
 40 37  1  0  0  0  0
 41 45  1  0  0  0  0
 42 48  1  0  0  0  0
 43 44  1  0  0  0  0
 44 42  1  0  0  0  0
 45 47  2  0  0  0  0
 46 42  1  0  0  0  0
 47 43  1  0  0  0  0
 47 46  1  0  0  0  0
 48 50  1  0  0  0  0
 50 49  1  0  0  0  0
 51 50  2  0  0  0  0
M  END
>  <MODEL>
9

>  <REMARK>
 VINA RESULT:      -6.3      3.174     10.743
  Name = 
  11 active torsions:
  status: ('A' for Active; 'I' for Inactive)
    1  A    between atoms: C_1  and  C_35
    2  A    between atoms: C_2  and  C_9
    3  A    between atoms: C_3  and  C_13
    4  A    between atoms: C_4  and  C_35
    5  A    between atoms: N_10  and  C_11
    6  A    between atoms: C_11  and  C_51
    7  A    between atoms: C_13  and  C_34
    8  A    between atoms: C_28  and  C_48
    9  A    between atoms: C_28  and  C_51
   10  A    between atoms: N_36  and  C_37
   11  A    between atoms: N_36  and  C_49
                            x       y       z     vdW  Elec       q    Type
                         _______ _______ _______ _____ _____    ______ ____

>  <TORSDO>
F 11

$$$$
