=
 OpenBabel11062421533D

 37 40  0  0  1  0  0  0  0  0999 V2000
  191.5630  174.0400  141.0320 C   0  0  2  0  0  3  0  0  0  0  0  0
  188.0610  174.2500  142.2140 N   0  0  0  0  0  2  0  0  0  0  0  0
  192.4410  172.9100  141.3270 N   0  0  2  0  0  0  0  0  0  0  0  0
  192.9970  174.6240  146.4740 C   0  0  0  0  0  2  0  0  0  0  0  0
  193.8010  173.3330  141.0410 C   0  0  0  0  0  2  0  0  0  0  0  0
  186.4530  177.3950  143.1470 O   0  0  0  0  0  1  0  0  0  0  0  0
  194.8540  175.0030  144.9310 N   0  0  0  0  0  0  0  0  0  0  0  0
  194.5230  173.6390  142.3390 C   0  0  0  0  0  2  0  0  0  0  0  0
  189.1160  174.1010  139.9960 C   0  0  2  0  0  3  0  0  0  0  0  0
  188.8290  177.4270  144.8740 N   0  0  0  0  0  2  0  0  0  0  0  0
  192.5220  176.0130  146.7590 C   0  0  0  0  0  3  0  0  0  0  0  0
  188.0690  173.5300  140.9520 C   0  0  0  0  0  2  0  0  0  0  0  0
  187.2770  175.4620  142.0300 C   0  0  0  0  0  2  0  0  0  0  0  0
  190.9890  174.5710  142.3320 C   0  0  0  0  0  1  0  0  0  0  0  0
  188.6570  173.9700  138.6860 O   0  0  0  0  0  1  0  0  0  0  0  0
  190.7950  171.9990  140.1090 C   0  0  1  0  0  0  0  0  0  0  0  0
  193.4780  174.5150  145.0360 C   0  0  0  0  0  2  0  0  0  0  0  0
  190.1710  174.4130  145.7160 C   0  0  0  0  0  2  0  0  0  0  0  0
  190.5250  173.4820  140.1090 C   0  0  2  0  0  3  0  0  0  0  0  0
  195.0160  175.0770  142.3210 C   0  0  2  0  0  3  0  0  0  0  0  0
  195.9340  176.8500  143.7620 O   0  0  0  0  0  1  0  0  0  0  0  0
  188.7290  176.7930  143.5620 C   0  0  0  0  0  2  0  0  0  0  0  0
  187.3100  176.3030  143.2940 C   0  0  1  0  0  3  0  0  0  0  0  0
  188.7980  176.3950  145.9070 C   0  0  0  0  0  2  0  0  0  0  0  0
  195.1400  175.7090  143.6640 C   0  0  2  0  0  0  0  0  0  0  0  0
  190.5900  171.4520  138.7060 C   0  0  0  0  0  1  0  0  0  0  0  0
  190.1160  175.7030  146.0220 C   0  0  0  0  0  0  0  0  0  0  0  0
  191.2750  176.4590  146.5490 C   0  0  0  0  0  3  0  0  0  0  0  0
  192.1540  171.8820  140.4630 O   0  0  0  0  0  0  0  0  0  0  0  0
  194.0150  175.9290  142.8490 O   0  0  0  0  0  0  0  0  0  0  0  0
  195.6810  173.9310  145.0220 O   0  0  0  0  0  0  0  0  0  0  0  0
  197.8470  173.8700  145.6910 O   0  0  0  0  0  0  0  0  0  0  0  0
  196.5730  174.2490  146.0500 C   0  0  0  0  0  3  0  0  0  0  0  0
  197.1490  173.0950  146.5320 O   0  0  0  0  0  0  0  0  0  0  0  0
  189.9220  171.2360  141.1180 C   0  0  0  0  0  2  0  0  0  0  0  0
  190.6940  170.1880  141.9070 C   0  0  0  0  0  2  0  0  0  0  0  0
  190.5930  168.9470  141.2770 O   0  0  0  0  0  1  0  0  0  0  0  0
  1  3  1  0  0  0  0
  1 14  1  1  0  0  0
  3  5  1  6  0  0  0
  4 11  1  0  0  0  0
  5  8  1  0  0  0  0
  6 23  1  0  0  0  0
  7 31  1  0  0  0  0
  7 17  1  0  0  0  0
  9 15  1  6  0  0  0
  9 19  1  0  0  0  0
  9 12  1  0  0  0  0
 10 24  1  0  0  0  0
 12  2  1  0  0  0  0
 13  2  1  0  0  0  0
 13 23  1  0  0  0  0
 16 26  1  6  0  0  0
 16 29  1  0  0  0  0
 16 35  1  0  0  0  0
 17  4  1  0  0  0  0
 18 27  2  0  0  0  0
 19 16  1  0  0  0  0
 19  1  1  0  0  0  0
 20  8  1  0  0  0  0
 20 30  1  0  0  0  0
 20 25  1  0  0  0  0
 22 10  1  0  0  0  0
 23 22  1  0  0  0  0
 24 27  1  0  0  0  0
 25 21  1  0  0  0  0
 25  7  1  0  0  0  0
 27 28  1  0  0  0  0
 28 11  2  0  0  0  0
 29  3  1  0  0  0  0
 30 25  1  0  0  0  0
 31 33  1  0  0  0  0
 32 33  1  0  0  0  0
 32 34  1  0  0  0  0
 33 34  1  0  0  0  0
 35 36  1  0  0  0  0
 37 36  1  0  0  0  0
M  END
>  <MODEL>
1

>  <REMARK>
 VINA RESULT:      -7.1      0.000      0.000
  Name = 
  4 active torsions:
  status: ('A' for Active; 'I' for Inactive)
    1  A    between atoms: N_7  and  O_17
    2  A    between atoms: C_13  and  C_24
    3  A    between atoms: O_17  and  C_26
    4  A    between atoms: C_19  and  C_24
                            x       y       z     vdW  Elec       q    Type
                         _______ _______ _______ _____ _____    ______ ____

>  <TORSDO>
F 4

$$$$
=
 OpenBabel11062421533D

 37 40  0  0  1  0  0  0  0  0999 V2000
  190.5520  174.4850  144.8440 C   0  0  2  0  0  3  0  0  0  0  0  0
  189.6230  177.5370  146.7240 N   0  0  0  0  0  2  0  0  0  0  0  0
  191.4880  174.4900  143.7230 N   0  0  2  0  0  0  0  0  0  0  0  0
  187.7140  176.7840  140.5240 C   0  0  0  0  0  2  0  0  0  0  0  0
  191.3200  173.2320  143.0150 C   0  0  0  0  0  2  0  0  0  0  0  0
  186.2970  178.0800  148.1320 O   0  0  0  0  0  1  0  0  0  0  0  0
  188.1720  174.4020  140.2310 N   0  0  0  0  0  0  0  0  0  0  0  0
  190.5180  173.4630  141.7490 C   0  0  0  0  0  2  0  0  0  0  0  0
  190.8020  175.4570  147.3060 C   0  0  2  0  0  3  0  0  0  0  0  0
  185.6530  177.5650  145.3120 N   0  0  0  0  0  2  0  0  0  0  0  0
  186.3150  176.7850  141.0530 C   0  0  0  0  0  3  0  0  0  0  0  0
  190.8260  176.9850  147.3240 C   0  0  0  0  0  2  0  0  0  0  0  0
  188.5710  177.5100  147.7290 C   0  0  0  0  0  2  0  0  0  0  0  0
  189.4670  175.5130  144.5860 C   0  0  0  0  0  1  0  0  0  0  0  0
  191.4700  174.9770  148.4320 O   0  0  0  0  0  1  0  0  0  0  0  0
  192.7380  175.1560  145.4580 C   0  0  1  0  0  0  0  0  0  0  0  0
  188.4770  175.5790  141.0470 C   0  0  0  0  0  2  0  0  0  0  0  0
  188.0620  178.2900  143.0180 C   0  0  0  0  0  2  0  0  0  0  0  0
  191.3950  174.8000  146.0410 C   0  0  2  0  0  3  0  0  0  0  0  0
  189.2700  172.5960  141.7710 C   0  0  2  0  0  3  0  0  0  0  0  0
  187.1030  172.2520  140.6520 O   0  0  0  0  0  1  0  0  0  0  0  0
  186.7930  177.0230  146.0470 C   0  0  0  0  0  2  0  0  0  0  0  0
  187.2620  177.9900  147.1280 C   0  0  1  0  0  3  0  0  0  0  0  0
  186.1180  178.6220  144.4190 C   0  0  0  0  0  2  0  0  0  0  0  0
  188.1190  173.1410  141.0000 C   0  0  2  0  0  0  0  0  0  0  0  0
  193.8350  174.5950  146.3490 C   0  0  0  0  0  1  0  0  0  0  0  0
  186.7680  178.0550  143.2000 C   0  0  0  0  0  0  0  0  0  0  0  0
  185.9310  177.3320  142.2150 C   0  0  0  0  0  3  0  0  0  0  0  0
  192.7720  174.5050  144.2090 O   0  0  0  0  0  0  0  0  0  0  0  0
  188.2110  173.3010  142.3950 O   0  0  0  0  0  0  0  0  0  0  0  0
  189.1420  174.2900  139.2890 O   0  0  0  0  0  0  0  0  0  0  0  0
  188.9770  174.5310  137.0400 O   0  0  0  0  0  0  0  0  0  0  0  0
  188.4790  173.8610  138.1360 C   0  0  0  0  0  3  0  0  0  0  0  0
  187.8100  174.9220  137.5700 O   0  0  0  0  0  0  0  0  0  0  0  0
  192.9200  176.6700  145.2660 C   0  0  0  0  0  2  0  0  0  0  0  0
  194.2950  177.1670  145.6940 C   0  0  0  0  0  2  0  0  0  0  0  0
  195.1780  177.1120  144.6150 O   0  0  0  0  0  1  0  0  0  0  0  0
  1 14  1  6  0  0  0
  1 19  1  0  0  0  0
  2 12  1  0  0  0  0
  2 13  1  0  0  0  0
  3  5  1  1  0  0  0
  3 29  1  0  0  0  0
  3  1  1  0  0  0  0
  4 17  1  0  0  0  0
  4 11  1  0  0  0  0
  7 25  1  0  0  0  0
  7 17  1  0  0  0  0
  8 20  1  0  0  0  0
  8  5  1  0  0  0  0
  9 12  1  0  0  0  0
  9 15  1  1  0  0  0
 10 22  1  0  0  0  0
 11 28  2  0  0  0  0
 16 19  1  0  0  0  0
 16 26  1  1  0  0  0
 18 27  2  0  0  0  0
 19  9  1  0  0  0  0
 20 30  1  0  0  0  0
 21 25  1  0  0  0  0
 22 23  1  0  0  0  0
 23 13  1  0  0  0  0
 23  6  1  0  0  0  0
 24 10  1  0  0  0  0
 25 20  1  0  0  0  0
 25 30  1  0  0  0  0
 27 24  1  0  0  0  0
 28 27  1  0  0  0  0
 29 16  1  0  0  0  0
 31  7  1  0  0  0  0
 32 34  1  0  0  0  0
 32 33  1  0  0  0  0
 33 31  1  0  0  0  0
 34 33  1  0  0  0  0
 35 16  1  0  0  0  0
 35 36  1  0  0  0  0
 37 36  1  0  0  0  0
M  END
>  <MODEL>
2

>  <REMARK>
 VINA RESULT:      -6.5      2.632      7.299
  Name = 
  4 active torsions:
  status: ('A' for Active; 'I' for Inactive)
    1  A    between atoms: N_7  and  O_17
    2  A    between atoms: C_13  and  C_24
    3  A    between atoms: O_17  and  C_26
    4  A    between atoms: C_19  and  C_24
                            x       y       z     vdW  Elec       q    Type
                         _______ _______ _______ _____ _____    ______ ____

>  <TORSDO>
F 4

$$$$
=
 OpenBabel11062421533D

 37 40  0  0  1  0  0  0  0  0999 V2000
  194.6020  174.8140  143.3120 C   0  0  2  0  0  3  0  0  0  0  0  0
  194.8130  171.4790  141.7190 N   0  0  0  0  0  2  0  0  0  0  0  0
  194.2700  175.0080  144.7210 N   0  0  2  0  0  0  0  0  0  0  0  0
  189.0470  173.8160  143.7020 C   0  0  0  0  0  2  0  0  0  0  0  0
  193.9150  176.4060  144.8930 C   0  0  0  0  0  2  0  0  0  0  0  0
  193.8510  170.8580  138.2490 O   0  0  0  0  0  1  0  0  0  0  0  0
  189.6420  176.1600  144.0500 N   0  0  0  0  0  0  0  0  0  0  0  0
  192.4080  176.5410  144.9950 C   0  0  0  0  0  2  0  0  0  0  0  0
  196.4390  173.2700  142.1670 C   0  0  2  0  0  3  0  0  0  0  0  0
  191.4000  172.0720  139.3200 N   0  0  0  0  0  2  0  0  0  0  0  0
  188.6470  173.7910  142.2620 C   0  0  0  0  0  3  0  0  0  0  0  0
  196.1090  171.7840  142.3010 C   0  0  0  0  0  2  0  0  0  0  0  0
  194.9920  171.3430  140.2810 C   0  0  0  0  0  2  0  0  0  0  0  0
  193.5290  173.9580  142.6660 C   0  0  0  0  0  1  0  0  0  0  0  0
  197.8170  173.4200  142.0170 O   0  0  0  0  0  1  0  0  0  0  0  0
  196.1930  173.8610  144.7830 C   0  0  1  0  0  0  0  0  0  0  0  0
  190.1800  174.8050  143.9200 C   0  0  0  0  0  2  0  0  0  0  0  0
  190.8410  171.7410  142.6620 C   0  0  0  0  0  2  0  0  0  0  0  0
  195.9510  174.1650  143.3280 C   0  0  2  0  0  3  0  0  0  0  0  0
  191.9030  177.4660  143.8990 C   0  0  2  0  0  3  0  0  0  0  0  0
  189.8530  178.2200  142.7630 O   0  0  0  0  0  1  0  0  0  0  0  0
  192.7620  172.3410  139.7750 C   0  0  0  0  0  2  0  0  0  0  0  0
  193.6510  171.1140  139.6070 C   0  0  1  0  0  3  0  0  0  0  0  0
  190.7260  171.2270  140.3010 C   0  0  0  0  0  2  0  0  0  0  0  0
  190.5050  177.2030  143.4580 C   0  0  2  0  0  0  0  0  0  0  0  0
  197.6560  174.1140  145.1110 C   0  0  0  0  0  1  0  0  0  0  0  0
  190.2860  172.0190  141.4880 C   0  0  0  0  0  0  0  0  0  0  0  0
  189.2010  173.0120  141.3210 C   0  0  0  0  0  3  0  0  0  0  0  0
  195.3910  174.7860  145.4820 O   0  0  0  0  0  0  0  0  0  0  0  0
  191.6090  176.7100  142.7370 O   0  0  0  0  0  0  0  0  0  0  0  0
  189.4970  176.4230  145.3730 O   0  0  0  0  0  0  0  0  0  0  0  0
  187.9870  177.3400  146.7930 O   0  0  0  0  0  0  0  0  0  0  0  0
  188.1840  176.8820  145.5100 C   0  0  0  0  0  3  0  0  0  0  0  0
  187.5300  176.1260  146.4560 O   0  0  0  0  0  0  0  0  0  0  0  0
  195.7950  172.4270  145.1660 C   0  0  0  0  0  2  0  0  0  0  0  0
  196.8300  171.7300  146.0380 C   0  0  0  0  0  2  0  0  0  0  0  0
  197.2170  170.5260  145.4490 O   0  0  0  0  0  1  0  0  0  0  0  0
  1 14  1  1  0  0  0
  1 19  1  0  0  0  0
  1  3  1  0  0  0  0
  2 12  1  0  0  0  0
  3  5  1  6  0  0  0
  3 29  1  0  0  0  0
  4 17  1  0  0  0  0
  5  8  1  0  0  0  0
  6 23  1  0  0  0  0
  7 31  1  0  0  0  0
  9 15  1  1  0  0  0
  9 12  1  0  0  0  0
  9 19  1  0  0  0  0
 10 22  1  0  0  0  0
 10 24  1  0  0  0  0
 11  4  1  0  0  0  0
 13  2  1  0  0  0  0
 16 26  1  1  0  0  0
 16 35  1  0  0  0  0
 16 29  1  0  0  0  0
 17  7  1  0  0  0  0
 19 16  1  0  0  0  0
 20  8  1  0  0  0  0
 21 25  1  0  0  0  0
 23 22  1  0  0  0  0
 23 13  1  0  0  0  0
 24 27  1  0  0  0  0
 25 20  1  0  0  0  0
 25  7  1  0  0  0  0
 27 18  2  0  0  0  0
 28 27  1  0  0  0  0
 28 11  2  0  0  0  0
 30 25  1  0  0  0  0
 30 20  1  0  0  0  0
 31 33  1  0  0  0  0
 33 34  1  0  0  0  0
 33 32  1  0  0  0  0
 34 32  1  0  0  0  0
 35 36  1  0  0  0  0
 37 36  1  0  0  0  0
M  END
>  <MODEL>
3

>  <REMARK>
 VINA RESULT:      -6.4      2.316      7.081
  Name = 
  4 active torsions:
  status: ('A' for Active; 'I' for Inactive)
    1  A    between atoms: N_7  and  O_17
    2  A    between atoms: C_13  and  C_24
    3  A    between atoms: O_17  and  C_26
    4  A    between atoms: C_19  and  C_24
                            x       y       z     vdW  Elec       q    Type
                         _______ _______ _______ _____ _____    ______ ____

>  <TORSDO>
F 4

$$$$
=
 OpenBabel11062421533D

 37 40  0  0  1  0  0  0  0  0999 V2000
  190.2460  175.4830  142.1950 C   0  0  2  0  0  3  0  0  0  0  0  0
  192.9200  175.8310  144.7310 N   0  0  0  0  0  2  0  0  0  0  0  0
  189.1820  174.4850  142.2840 N   0  0  2  0  0  0  0  0  0  0  0  0
  192.6950  170.5520  140.8930 C   0  0  0  0  0  2  0  0  0  0  0  0
  188.5640  174.3940  140.9730 C   0  0  0  0  0  2  0  0  0  0  0  0
  196.3400  176.8130  143.9060 O   0  0  0  0  0  1  0  0  0  0  0  0
  191.1160  171.3330  139.1990 N   0  0  0  0  0  0  0  0  0  0  0  0
  189.0490  173.1430  140.2670 C   0  0  0  0  0  2  0  0  0  0  0  0
  191.0820  177.2780  143.9680 C   0  0  2  0  0  3  0  0  0  0  0  0
  195.9650  174.4910  142.1460 N   0  0  0  0  0  2  0  0  0  0  0  0
  194.0100  171.0080  140.3480 C   0  0  0  0  0  3  0  0  0  0  0  0
  191.7840  176.6290  145.1600 C   0  0  0  0  0  2  0  0  0  0  0  0
  194.0430  176.7320  144.5210 C   0  0  0  0  0  2  0  0  0  0  0  0
  191.5870  174.7870  142.3180 C   0  0  0  0  0  1  0  0  0  0  0  0
  190.5610  178.5100  144.3610 O   0  0  0  0  0  1  0  0  0  0  0  0
  188.8510  175.7750  144.0860 C   0  0  1  0  0  0  0  0  0  0  0  0
  191.6060  171.5590  140.5590 C   0  0  0  0  0  2  0  0  0  0  0  0
  193.7060  172.1450  143.1390 C   0  0  0  0  0  2  0  0  0  0  0  0
  189.9650  176.4350  143.3160 C   0  0  2  0  0  3  0  0  0  0  0  0
  189.7070  173.5230  138.9500 C   0  0  2  0  0  3  0  0  0  0  0  0
  191.1160  172.6340  137.1370 O   0  0  0  0  0  1  0  0  0  0  0  0
  194.9200  175.4040  142.5980 C   0  0  0  0  0  2  0  0  0  0  0  0
  195.2360  175.9630  143.9810 C   0  0  1  0  0  3  0  0  0  0  0  0
  195.8510  173.2330  142.8780 C   0  0  0  0  0  2  0  0  0  0  0  0
  190.7550  172.5740  138.4820 C   0  0  2  0  0  0  0  0  0  0  0  0
  187.8710  176.8370  144.5570 C   0  0  0  0  0  1  0  0  0  0  0  0
  194.7390  172.3930  142.3420 C   0  0  0  0  0  0  0  0  0  0  0  0
  194.8740  171.8090  140.9880 C   0  0  0  0  0  3  0  0  0  0  0  0
  188.2160  174.9350  143.1490 O   0  0  0  0  0  0  0  0  0  0  0  0
  191.0880  173.7610  139.1610 O   0  0  0  0  0  0  0  0  0  0  0  0
  190.0120  170.5480  139.2820 O   0  0  0  0  0  0  0  0  0  0  0  0
  190.2190  168.4230  138.5190 O   0  0  0  0  0  0  0  0  0  0  0  0
  190.0580  169.7380  138.1440 C   0  0  0  0  0  3  0  0  0  0  0  0
  191.2810  169.1100  138.0760 O   0  0  0  0  0  0  0  0  0  0  0  0
  189.3610  174.9450  145.2750 C   0  0  0  0  0  2  0  0  0  0  0  0
  188.7420  175.3580  146.6030 C   0  0  0  0  0  2  0  0  0  0  0  0
  189.0390  174.4100  147.5820 O   0  0  0  0  0  1  0  0  0  0  0  0
  1  3  1  0  0  0  0
  1 14  1  1  0  0  0
  1 19  1  0  0  0  0
  2 12  1  0  0  0  0
  3  5  1  6  0  0  0
  3 29  1  0  0  0  0
  6 23  1  0  0  0  0
  7 31  1  0  0  0  0
  7 17  1  0  0  0  0
  8  5  1  0  0  0  0
  9 15  1  1  0  0  0
  9 12  1  0  0  0  0
 10 22  1  0  0  0  0
 10 24  1  0  0  0  0
 11  4  1  0  0  0  0
 11 28  2  0  0  0  0
 13  2  1  0  0  0  0
 16 26  1  1  0  0  0
 16 35  1  0  0  0  0
 17  4  1  0  0  0  0
 19  9  1  0  0  0  0
 19 16  1  0  0  0  0
 20 30  1  0  0  0  0
 20  8  1  0  0  0  0
 21 25  1  0  0  0  0
 22 23  1  0  0  0  0
 23 13  1  0  0  0  0
 25 20  1  0  0  0  0
 25 30  1  0  0  0  0
 25  7  1  0  0  0  0
 27 24  1  0  0  0  0
 27 18  2  0  0  0  0
 28 27  1  0  0  0  0
 29 16  1  0  0  0  0
 33 32  1  0  0  0  0
 33 31  1  0  0  0  0
 34 33  1  0  0  0  0
 34 32  1  0  0  0  0
 35 36  1  0  0  0  0
 36 37  1  0  0  0  0
M  END
>  <MODEL>
4

>  <REMARK>
 VINA RESULT:      -6.4      2.221      7.285
  Name = 
  4 active torsions:
  status: ('A' for Active; 'I' for Inactive)
    1  A    between atoms: N_7  and  O_17
    2  A    between atoms: C_13  and  C_24
    3  A    between atoms: O_17  and  C_26
    4  A    between atoms: C_19  and  C_24
                            x       y       z     vdW  Elec       q    Type
                         _______ _______ _______ _____ _____    ______ ____

>  <TORSDO>
F 4

$$$$
=
 OpenBabel11062421533D

 37 40  0  0  1  0  0  0  0  0999 V2000
  193.7660  176.1220  142.3620 C   0  0  2  0  0  3  0  0  0  0  0  0
  194.5770  173.2990  140.1090 N   0  0  0  0  0  2  0  0  0  0  0  0
  193.6830  175.9890  143.8140 N   0  0  2  0  0  0  0  0  0  0  0  0
  188.9090  173.3950  143.3500 C   0  0  0  0  0  2  0  0  0  0  0  0
  192.9930  177.1640  144.3170 C   0  0  0  0  0  2  0  0  0  0  0  0
  193.1510  172.9380  136.7650 O   0  0  0  0  0  1  0  0  0  0  0  0
  188.8810  175.7270  144.0770 N   0  0  0  0  0  0  0  0  0  0  0  0
  191.5610  176.8050  144.6640 C   0  0  0  0  0  2  0  0  0  0  0  0
  195.6920  175.4190  140.6700 C   0  0  2  0  0  3  0  0  0  0  0  0
  190.7250  173.1520  138.4080 N   0  0  0  0  0  2  0  0  0  0  0  0
  188.2510  173.4630  142.0080 C   0  0  0  0  0  3  0  0  0  0  0  0
  195.8260  173.9020  140.5440 C   0  0  0  0  0  2  0  0  0  0  0  0
  194.4950  173.4430  138.6630 C   0  0  0  0  0  2  0  0  0  0  0  0
  192.8690  175.0820  141.7190 C   0  0  0  0  0  1  0  0  0  0  0  0
  196.9140  176.0120  140.3540 O   0  0  0  0  0  1  0  0  0  0  0  0
  195.8220  175.5030  143.3590 C   0  0  1  0  0  0  0  0  0  0  0  0
  189.7390  174.6430  143.5960 C   0  0  0  0  0  2  0  0  0  0  0  0
  190.9640  172.1640  141.6570 C   0  0  0  0  0  2  0  0  0  0  0  0
  195.2170  175.9310  142.0470 C   0  0  2  0  0  3  0  0  0  0  0  0
  190.6090  177.6800  143.8660 C   0  0  2  0  0  3  0  0  0  0  0  0
  188.2440  177.9190  143.2200 O   0  0  0  0  0  1  0  0  0  0  0  0
  192.0200  173.7600  138.7030 C   0  0  0  0  0  2  0  0  0  0  0  0
  193.1640  172.9110  138.1600 C   0  0  1  0  0  3  0  0  0  0  0  0
  190.5260  172.0010  139.2830 C   0  0  0  0  0  2  0  0  0  0  0  0
  189.2810  177.0640  143.5890 C   0  0  2  0  0  0  0  0  0  0  0  0
  197.1900  176.1480  143.5130 C   0  0  0  0  0  1  0  0  0  0  0  0
  190.1300  172.4280  140.6580 C   0  0  0  0  0  0  0  0  0  0  0  0
  188.8000  173.0470  140.8590 C   0  0  0  0  0  3  0  0  0  0  0  0
  194.9510  176.0160  144.3410 O   0  0  0  0  0  0  0  0  0  0  0  0
  190.3100  177.0540  142.6300 O   0  0  0  0  0  0  0  0  0  0  0  0
  188.9380  175.7290  145.4320 O   0  0  0  0  0  0  0  0  0  0  0  0
  188.0570  177.2270  146.8890 O   0  0  0  0  0  0  0  0  0  0  0  0
  187.7710  176.3790  145.8420 C   0  0  0  0  0  3  0  0  0  0  0  0
  187.4910  176.0410  147.1470 O   0  0  0  0  0  0  0  0  0  0  0  0
  195.9270  173.9760  143.4950 C   0  0  0  0  0  2  0  0  0  0  0  0
  197.0410  173.5330  144.4330 C   0  0  0  0  0  2  0  0  0  0  0  0
  196.5460  173.3970  145.7300 O   0  0  0  0  0  1  0  0  0  0  0  0
  1 14  1  6  0  0  0
  1  3  1  0  0  0  0
  2 12  1  0  0  0  0
  3  5  1  1  0  0  0
  3 29  1  0  0  0  0
  4 17  1  0  0  0  0
  5  8  1  0  0  0  0
  6 23  1  0  0  0  0
  7 31  1  0  0  0  0
  9 15  1  1  0  0  0
  9 19  1  0  0  0  0
 10 22  1  0  0  0  0
 10 24  1  0  0  0  0
 11  4  1  0  0  0  0
 12  9  1  0  0  0  0
 13  2  1  0  0  0  0
 16 35  1  0  0  0  0
 16 26  1  1  0  0  0
 16 29  1  0  0  0  0
 17  7  1  0  0  0  0
 19  1  1  0  0  0  0
 19 16  1  0  0  0  0
 20  8  1  0  0  0  0
 21 25  1  0  0  0  0
 23 13  1  0  0  0  0
 23 22  1  0  0  0  0
 24 27  1  0  0  0  0
 25 20  1  0  0  0  0
 25  7  1  0  0  0  0
 27 28  1  0  0  0  0
 27 18  2  0  0  0  0
 28 11  2  0  0  0  0
 30 25  1  0  0  0  0
 30 20  1  0  0  0  0
 31 33  1  0  0  0  0
 32 34  1  0  0  0  0
 33 32  1  0  0  0  0
 33 34  1  0  0  0  0
 35 36  1  0  0  0  0
 36 37  1  0  0  0  0
M  END
>  <MODEL>
5

>  <REMARK>
 VINA RESULT:      -6.3      2.343      7.058
  Name = 
  4 active torsions:
  status: ('A' for Active; 'I' for Inactive)
    1  A    between atoms: N_7  and  O_17
    2  A    between atoms: C_13  and  C_24
    3  A    between atoms: O_17  and  C_26
    4  A    between atoms: C_19  and  C_24
                            x       y       z     vdW  Elec       q    Type
                         _______ _______ _______ _____ _____    ______ ____

>  <TORSDO>
F 4

$$$$
=
 OpenBabel11062421533D

 37 40  0  0  1  0  0  0  0  0999 V2000
  194.4130  173.2470  143.4530 C   0  0  2  0  0  3  0  0  0  0  0  0
  193.4200  176.1410  145.5380 N   0  0  0  0  0  2  0  0  0  0  0  0
  194.8040  173.3670  142.0510 N   0  0  2  0  0  0  0  0  0  0  0  0
  189.6030  174.1660  140.6210 C   0  0  0  0  0  2  0  0  0  0  0  0
  194.7570  172.0350  141.4730 C   0  0  0  0  0  2  0  0  0  0  0  0
  190.8810  175.9380  148.1570 O   0  0  0  0  0  1  0  0  0  0  0  0
  190.5920  171.9770  140.1760 N   0  0  0  0  0  0  0  0  0  0  0  0
  193.5030  171.8890  140.6330 C   0  0  0  0  0  2  0  0  0  0  0  0
  195.2860  174.5380  145.6070 C   0  0  2  0  0  3  0  0  0  0  0  0
  189.3930  174.9350  145.8310 N   0  0  0  0  0  2  0  0  0  0  0  0
  188.5790  173.8550  141.6650 C   0  0  0  0  0  3  0  0  0  0  0  0
  194.8660  176.0070  145.6100 C   0  0  0  0  0  2  0  0  0  0  0  0
  192.8890  175.9530  146.8800 C   0  0  0  0  0  2  0  0  0  0  0  0
  193.0620  173.9080  143.6470 C   0  0  0  0  0  1  0  0  0  0  0  0
  196.4420  174.3930  146.3730 O   0  0  0  0  0  1  0  0  0  0  0  0
  196.3670  174.5470  143.1400 C   0  0  1  0  0  0  0  0  0  0  0  0
  190.8250  173.2810  140.7990 C   0  0  0  0  0  2  0  0  0  0  0  0
  190.4170  175.9970  142.7630 C   0  0  0  0  0  2  0  0  0  0  0  0
  195.5160  173.9170  144.2120 C   0  0  2  0  0  3  0  0  0  0  0  0
  192.6720  170.7280  141.1550 C   0  0  2  0  0  3  0  0  0  0  0  0
  190.4470  169.6850  140.9960 O   0  0  0  0  0  1  0  0  0  0  0  0
  190.8320  174.8110  146.0500 C   0  0  0  0  0  2  0  0  0  0  0  0
  191.3710  175.9900  146.8520 C   0  0  1  0  0  3  0  0  0  0  0  0
  189.1500  175.9620  144.8230 C   0  0  0  0  0  2  0  0  0  0  0  0
  191.2080  170.8490  140.9060 C   0  0  2  0  0  0  0  0  0  0  0  0
  197.8320  174.4110  143.5200 C   0  0  0  0  0  1  0  0  0  0  0  0
  189.4210  175.4480  143.4480 C   0  0  0  0  0  0  0  0  0  0  0  0
  188.5240  174.4150  142.8820 C   0  0  0  0  0  3  0  0  0  0  0  0
  196.1110  173.7840  141.9830 O   0  0  0  0  0  0  0  0  0  0  0  0
  191.7740  171.1940  142.1470 O   0  0  0  0  0  0  0  0  0  0  0  0
  191.1160  172.0160  138.9250 O   0  0  0  0  0  0  0  0  0  0  0  0
  190.3620  171.8650  136.7920 O   0  0  0  0  0  0  0  0  0  0  0  0
  190.1160  171.5000  138.0970 C   0  0  0  0  0  3  0  0  0  0  0  0
  189.4390  172.5370  137.4940 O   0  0  0  0  0  0  0  0  0  0  0  0
  196.0090  176.0200  142.8870 C   0  0  0  0  0  2  0  0  0  0  0  0
  196.1790  176.4370  141.4320 C   0  0  0  0  0  2  0  0  0  0  0  0
  194.9420  176.7800  140.8870 O   0  0  0  0  0  1  0  0  0  0  0  0
  1 14  1  6  0  0  0
  1 19  1  0  0  0  0
  2 12  1  0  0  0  0
  2 13  1  0  0  0  0
  3  5  1  1  0  0  0
  3  1  1  0  0  0  0
  4 17  1  0  0  0  0
  4 11  1  0  0  0  0
  7 17  1  0  0  0  0
  7 25  1  0  0  0  0
  8 20  1  0  0  0  0
  8  5  1  0  0  0  0
  9 12  1  0  0  0  0
  9 15  1  1  0  0  0
 10 22  1  0  0  0  0
 11 28  2  0  0  0  0
 16 26  1  1  0  0  0
 16 19  1  0  0  0  0
 18 27  2  0  0  0  0
 19  9  1  0  0  0  0
 20 30  1  0  0  0  0
 22 23  1  0  0  0  0
 23 13  1  0  0  0  0
 23  6  1  0  0  0  0
 24 10  1  0  0  0  0
 25 21  1  0  0  0  0
 25 20  1  0  0  0  0
 25 30  1  0  0  0  0
 27 24  1  0  0  0  0
 28 27  1  0  0  0  0
 29  3  1  0  0  0  0
 29 16  1  0  0  0  0
 31  7  1  0  0  0  0
 32 34  1  0  0  0  0
 32 33  1  0  0  0  0
 33 31  1  0  0  0  0
 34 33  1  0  0  0  0
 35 16  1  0  0  0  0
 36 35  1  0  0  0  0
 37 36  1  0  0  0  0
M  END
>  <MODEL>
6

>  <REMARK>
 VINA RESULT:      -6.3      2.043      6.903
  Name = 
  4 active torsions:
  status: ('A' for Active; 'I' for Inactive)
    1  A    between atoms: N_7  and  O_17
    2  A    between atoms: C_13  and  C_24
    3  A    between atoms: O_17  and  C_26
    4  A    between atoms: C_19  and  C_24
                            x       y       z     vdW  Elec       q    Type
                         _______ _______ _______ _____ _____    ______ ____

>  <TORSDO>
F 4

$$$$
=
 OpenBabel11062421533D

 37 40  0  0  1  0  0  0  0  0999 V2000
  194.4420  173.7040  143.8660 C   0  0  2  0  0  3  0  0  0  0  0  0
  193.7780  170.7510  141.7340 N   0  0  0  0  0  2  0  0  0  0  0  0
  193.9940  173.8080  145.2520 N   0  0  2  0  0  0  0  0  0  0  0  0
  188.8700  174.6430  143.5820 C   0  0  0  0  0  2  0  0  0  0  0  0
  194.0950  175.2050  145.6360 C   0  0  0  0  0  2  0  0  0  0  0  0
  193.1730  170.9780  138.1390 O   0  0  0  0  0  1  0  0  0  0  0  0
  190.1420  176.5660  144.3890 N   0  0  0  0  0  0  0  0  0  0  0  0
  192.7160  175.8370  145.6270 C   0  0  0  0  0  2  0  0  0  0  0  0
  195.8180  171.7920  142.6330 C   0  0  2  0  0  3  0  0  0  0  0  0
  191.1260  172.8070  139.1860 N   0  0  0  0  0  2  0  0  0  0  0  0
  188.6950  174.9530  142.1300 C   0  0  0  0  0  3  0  0  0  0  0  0
  195.0060  170.5080  142.4730 C   0  0  0  0  0  2  0  0  0  0  0  0
  194.1060  170.7580  140.3160 C   0  0  0  0  0  2  0  0  0  0  0  0
  193.2530  173.3670  142.9870 C   0  0  0  0  0  1  0  0  0  0  0  0
  197.1760  171.4760  142.6340 O   0  0  0  0  0  1  0  0  0  0  0  0
  195.4080  172.0700  145.2810 C   0  0  1  0  0  0  0  0  0  0  0  0
  190.2210  175.1400  144.0700 C   0  0  0  0  0  2  0  0  0  0  0  0
  190.0180  172.2380  142.3550 C   0  0  0  0  0  2  0  0  0  0  0  0
  195.4880  172.6330  143.8850 C   0  0  2  0  0  3  0  0  0  0  0  0
  192.7030  177.0190  144.6710 C   0  0  2  0  0  3  0  0  0  0  0  0
  191.1960  178.5820  143.5100 O   0  0  0  0  0  1  0  0  0  0  0  0
  192.4210  172.5240  139.7990 C   0  0  0  0  0  2  0  0  0  0  0  0
  192.8750  171.1000  139.4970 C   0  0  1  0  0  3  0  0  0  0  0  0
  190.0800  172.1210  139.9390 C   0  0  0  0  0  2  0  0  0  0  0  0
  191.3740  177.3170  144.0680 C   0  0  2  0  0  0  0  0  0  0  0  0
  196.8110  171.7550  145.7750 C   0  0  0  0  0  1  0  0  0  0  0  0
  189.7580  172.8460  141.2040 C   0  0  0  0  0  0  0  0  0  0  0  0
  189.0930  174.1670  141.1200 C   0  0  0  0  0  3  0  0  0  0  0  0
  194.8610  173.1110  146.0580 O   0  0  0  0  0  0  0  0  0  0  0  0
  192.3480  176.5770  143.3730 O   0  0  0  0  0  0  0  0  0  0  0  0
  189.9040  176.6800  145.7200 O   0  0  0  0  0  0  0  0  0  0  0  0
  188.3490  177.5310  147.1330 O   0  0  0  0  0  0  0  0  0  0  0  0
  188.7370  177.4420  145.8150 C   0  0  0  0  0  3  0  0  0  0  0  0
  187.7210  176.6650  146.3250 O   0  0  0  0  0  0  0  0  0  0  0  0
  194.5130  170.8230  145.3680 C   0  0  0  0  0  2  0  0  0  0  0  0
  195.2110  169.6270  146.0010 C   0  0  0  0  0  2  0  0  0  0  0  0
  194.5620  169.2690  147.1830 O   0  0  0  0  0  1  0  0  0  0  0  0
  1 14  1  6  0  0  0
  1 19  1  0  0  0  0
  1  3  1  0  0  0  0
  2 12  1  0  0  0  0
  3  5  1  1  0  0  0
  3 29  1  0  0  0  0
  4 17  1  0  0  0  0
  6 23  1  0  0  0  0
  7 31  1  0  0  0  0
  8  5  1  0  0  0  0
  9 15  1  1  0  0  0
  9 19  1  0  0  0  0
 10 22  1  0  0  0  0
 10 24  1  0  0  0  0
 11  4  1  0  0  0  0
 12  9  1  0  0  0  0
 13  2  1  0  0  0  0
 16 35  1  0  0  0  0
 16 26  1  1  0  0  0
 16 29  1  0  0  0  0
 17  7  1  0  0  0  0
 19 16  1  0  0  0  0
 20  8  1  0  0  0  0
 21 25  1  0  0  0  0
 23 22  1  0  0  0  0
 23 13  1  0  0  0  0
 24 27  1  0  0  0  0
 25  7  1  0  0  0  0
 25 20  1  0  0  0  0
 27 18  2  0  0  0  0
 28 27  1  0  0  0  0
 28 11  2  0  0  0  0
 30 25  1  0  0  0  0
 30 20  1  0  0  0  0
 31 33  1  0  0  0  0
 33 34  1  0  0  0  0
 33 32  1  0  0  0  0
 34 32  1  0  0  0  0
 35 36  1  0  0  0  0
 36 37  1  0  0  0  0
M  END
>  <MODEL>
7

>  <REMARK>
 VINA RESULT:      -6.3      2.633      6.717
  Name = 
  4 active torsions:
  status: ('A' for Active; 'I' for Inactive)
    1  A    between atoms: N_7  and  O_17
    2  A    between atoms: C_13  and  C_24
    3  A    between atoms: O_17  and  C_26
    4  A    between atoms: C_19  and  C_24
                            x       y       z     vdW  Elec       q    Type
                         _______ _______ _______ _____ _____    ______ ____

>  <TORSDO>
F 4

$$$$
=
 OpenBabel11062421533D

 37 40  0  0  1  0  0  0  0  0999 V2000
  192.1790  176.5290  143.7750 C   0  0  2  0  0  3  0  0  0  0  0  0
  193.9590  173.3110  143.3460 N   0  0  0  0  0  2  0  0  0  0  0  0
  191.2220  176.7770  144.8500 N   0  0  2  0  0  0  0  0  0  0  0  0
  187.5170  173.6680  142.3300 C   0  0  0  0  0  2  0  0  0  0  0  0
  190.4670  177.9650  144.4910 C   0  0  0  0  0  2  0  0  0  0  0  0
  194.8300  171.9320  140.0770 O   0  0  0  0  0  1  0  0  0  0  0  0
  187.2440  176.0940  142.2220 N   0  0  0  0  0  0  0  0  0  0  0  0
  189.0940  177.5630  143.9850 C   0  0  0  0  0  2  0  0  0  0  0  0
  194.6720  175.6090  143.8610 C   0  0  2  0  0  3  0  0  0  0  0  0
  191.9320  172.3180  139.7870 N   0  0  0  0  0  2  0  0  0  0  0  0
  187.8170  173.3100  140.9090 C   0  0  0  0  0  3  0  0  0  0  0  0
  194.7300  174.1360  144.2610 C   0  0  0  0  0  2  0  0  0  0  0  0
  194.7820  173.0580  142.1720 C   0  0  0  0  0  2  0  0  0  0  0  0
  191.7750  175.2680  143.0360 C   0  0  0  0  0  1  0  0  0  0  0  0
  195.8780  176.2220  144.1990 O   0  0  0  0  0  1  0  0  0  0  0  0
  193.1500  176.4150  145.9310 C   0  0  1  0  0  0  0  0  0  0  0  0
  188.1260  175.0170  142.6750 C   0  0  0  0  0  2  0  0  0  0  0  0
  190.0700  172.2560  142.6360 C   0  0  0  0  0  2  0  0  0  0  0  0
  193.5020  176.4150  144.4660 C   0  0  2  0  0  3  0  0  0  0  0  0
  188.8970  178.0910  142.5730 C   0  0  2  0  0  3  0  0  0  0  0  0
  187.4380  177.9030  140.5980 O   0  0  0  0  0  1  0  0  0  0  0  0
  192.8260  173.1140  140.6230 C   0  0  0  0  0  2  0  0  0  0  0  0
  193.9920  172.2770  141.1380 C   0  0  1  0  0  3  0  0  0  0  0  0
  191.1500  171.4250  140.6370 C   0  0  0  0  0  2  0  0  0  0  0  0
  187.9640  177.2890  141.7340 C   0  0  2  0  0  0  0  0  0  0  0  0
  194.1910  177.2170  146.6960 C   0  0  0  0  0  1  0  0  0  0  0  0
  190.0380  172.1570  141.3130 C   0  0  0  0  0  0  0  0  0  0  0  0
  188.9150  172.6650  140.4920 C   0  0  0  0  0  3  0  0  0  0  0  0
  191.9070  177.0750  146.0020 O   0  0  0  0  0  0  0  0  0  0  0  0
  189.3600  177.1330  141.6380 O   0  0  0  0  0  0  0  0  0  0  0  0
  186.4670  176.4610  143.2720 O   0  0  0  0  0  0  0  0  0  0  0  0
  185.4110  178.4670  143.3100 O   0  0  0  0  0  0  0  0  0  0  0  0
  185.4400  177.2270  142.7120 C   0  0  0  0  0  3  0  0  0  0  0  0
  184.5180  177.5410  143.6850 O   0  0  0  0  0  0  0  0  0  0  0  0
  193.0260  174.9980  146.5130 C   0  0  0  0  0  2  0  0  0  0  0  0
  191.6570  174.7150  147.1160 C   0  0  0  0  0  2  0  0  0  0  0  0
  191.5660  175.2910  148.3830 O   0  0  0  0  0  1  0  0  0  0  0  0
  1 14  1  1  0  0  0
  1 19  1  0  0  0  0
  1  3  1  0  0  0  0
  2 12  1  0  0  0  0
  3  5  1  6  0  0  0
  3 29  1  0  0  0  0
  4 17  1  0  0  0  0
  6 23  1  0  0  0  0
  7 17  1  0  0  0  0
  7 31  1  0  0  0  0
  8  5  1  0  0  0  0
  9 15  1  1  0  0  0
  9 12  1  0  0  0  0
  9 19  1  0  0  0  0
 10 22  1  0  0  0  0
 10 24  1  0  0  0  0
 11  4  1  0  0  0  0
 13  2  1  0  0  0  0
 16 29  1  0  0  0  0
 16 35  1  0  0  0  0
 16 26  1  1  0  0  0
 19 16  1  0  0  0  0
 20  8  1  0  0  0  0
 21 25  1  0  0  0  0
 22 23  1  0  0  0  0
 23 13  1  0  0  0  0
 24 27  1  0  0  0  0
 25  7  1  0  0  0  0
 25 20  1  0  0  0  0
 27 18  2  0  0  0  0
 28 11  2  0  0  0  0
 28 27  1  0  0  0  0
 30 25  1  0  0  0  0
 30 20  1  0  0  0  0
 32 34  1  0  0  0  0
 33 31  1  0  0  0  0
 33 32  1  0  0  0  0
 33 34  1  0  0  0  0
 35 36  1  0  0  0  0
 36 37  1  0  0  0  0
M  END
>  <MODEL>
8

>  <REMARK>
 VINA RESULT:      -6.2      2.156      7.977
  Name = 
  4 active torsions:
  status: ('A' for Active; 'I' for Inactive)
    1  A    between atoms: N_7  and  O_17
    2  A    between atoms: C_13  and  C_24
    3  A    between atoms: O_17  and  C_26
    4  A    between atoms: C_19  and  C_24
                            x       y       z     vdW  Elec       q    Type
                         _______ _______ _______ _____ _____    ______ ____

>  <TORSDO>
F 4

$$$$
=
 OpenBabel11062421533D

 37 40  0  0  1  0  0  0  0  0999 V2000
  193.3680  173.8250  143.6260 C   0  0  2  0  0  3  0  0  0  0  0  0
  193.6440  176.6710  145.9780 N   0  0  0  0  0  2  0  0  0  0  0  0
  193.5640  173.9560  142.1840 N   0  0  2  0  0  0  0  0  0  0  0  0
  188.7160  176.4050  141.7010 C   0  0  0  0  0  2  0  0  0  0  0  0
  193.0200  172.7600  141.5640 C   0  0  0  0  0  2  0  0  0  0  0  0
  191.5880  176.9880  148.9800 O   0  0  0  0  0  1  0  0  0  0  0  0
  188.8990  174.0730  140.9960 N   0  0  0  0  0  0  0  0  0  0  0  0
  191.6720  173.0760  140.9440 C   0  0  0  0  0  2  0  0  0  0  0  0
  194.9090  174.5850  145.6540 C   0  0  2  0  0  3  0  0  0  0  0  0
  189.5330  176.7010  146.9000 N   0  0  0  0  0  2  0  0  0  0  0  0
  187.8130  176.3170  142.8900 C   0  0  0  0  0  3  0  0  0  0  0  0
  194.9710  176.1050  145.7950 C   0  0  0  0  0  2  0  0  0  0  0  0
  193.2880  176.5240  147.3810 C   0  0  0  0  0  2  0  0  0  0  0  0
  192.3330  174.8380  144.0770 C   0  0  0  0  0  1  0  0  0  0  0  0
  196.0630  174.0290  146.2040 O   0  0  0  0  0  1  0  0  0  0  0  0
  195.5590  174.5050  143.0420 C   0  0  1  0  0  0  0  0  0  0  0  0
  189.6150  175.1820  141.6280 C   0  0  0  0  0  2  0  0  0  0  0  0
  190.3680  177.6970  143.7530 C   0  0  0  0  0  2  0  0  0  0  0  0
  194.7250  174.0590  144.2140 C   0  0  2  0  0  3  0  0  0  0  0  0
  190.6090  172.1730  141.5480 C   0  0  2  0  0  3  0  0  0  0  0  0
  188.1730  171.8620  141.7250 O   0  0  0  0  0  1  0  0  0  0  0  0
  190.8780  176.1330  146.8640 C   0  0  0  0  0  2  0  0  0  0  0  0
  191.8700  177.0150  147.6140 C   0  0  1  0  0  3  0  0  0  0  0  0
  189.4740  177.8460  145.9960 C   0  0  0  0  0  2  0  0  0  0  0  0
  189.2360  172.7490  141.5590 C   0  0  2  0  0  0  0  0  0  0  0  0
  196.9500  173.9020  143.1590 C   0  0  0  0  0  1  0  0  0  0  0  0
  189.3640  177.4070  144.5730 C   0  0  0  0  0  0  0  0  0  0  0  0
  188.1170  176.7490  144.1220 C   0  0  0  0  0  3  0  0  0  0  0  0
  194.9100  173.9670  141.9130 O   0  0  0  0  0  0  0  0  0  0  0  0
  190.0590  172.7890  142.6990 O   0  0  0  0  0  0  0  0  0  0  0  0
  189.2170  174.0720  139.6770 O   0  0  0  0  0  0  0  0  0  0  0  0
  188.3260  173.1250  137.8200 O   0  0  0  0  0  0  0  0  0  0  0  0
  188.0310  173.7350  139.0190 C   0  0  0  0  0  3  0  0  0  0  0  0
  187.9600  174.4140  137.8230 O   0  0  0  0  0  0  0  0  0  0  0  0
  195.6430  176.0350  142.9200 C   0  0  0  0  0  2  0  0  0  0  0  0
  195.5110  176.5310  141.4860 C   0  0  0  0  0  2  0  0  0  0  0  0
  196.7740  176.6530  140.9070 O   0  0  0  0  0  1  0  0  0  0  0  0
  1 14  1  1  0  0  0
  1 19  1  0  0  0  0
  2 13  1  0  0  0  0
  3  5  1  6  0  0  0
  3  1  1  0  0  0  0
  4 11  1  0  0  0  0
  7 25  1  0  0  0  0
  7 17  1  0  0  0  0
  8 20  1  0  0  0  0
  8  5  1  0  0  0  0
  9 12  1  0  0  0  0
  9 15  1  6  0  0  0
 11 28  2  0  0  0  0
 12  2  1  0  0  0  0
 13 23  1  0  0  0  0
 16 26  1  1  0  0  0
 16 19  1  0  0  0  0
 17  4  1  0  0  0  0
 18 27  2  0  0  0  0
 19  9  1  0  0  0  0
 20 25  1  0  0  0  0
 20 30  1  0  0  0  0
 22 10  1  0  0  0  0
 22 23  1  0  0  0  0
 23  6  1  0  0  0  0
 24 10  1  0  0  0  0
 25 21  1  0  0  0  0
 25 30  1  0  0  0  0
 27 24  1  0  0  0  0
 28 27  1  0  0  0  0
 29  3  1  0  0  0  0
 29 16  1  0  0  0  0
 31  7  1  0  0  0  0
 32 34  1  0  0  0  0
 32 33  1  0  0  0  0
 33 31  1  0  0  0  0
 34 33  1  0  0  0  0
 35 16  1  0  0  0  0
 36 35  1  0  0  0  0
 37 36  1  0  0  0  0
M  END
>  <MODEL>
9

>  <REMARK>
 VINA RESULT:      -6.0      2.039      6.965
  Name = 
  4 active torsions:
  status: ('A' for Active; 'I' for Inactive)
    1  A    between atoms: N_7  and  O_17
    2  A    between atoms: C_13  and  C_24
    3  A    between atoms: O_17  and  C_26
    4  A    between atoms: C_19  and  C_24
                            x       y       z     vdW  Elec       q    Type
                         _______ _______ _______ _____ _____    ______ ____

>  <TORSDO>
F 4

$$$$
