=
 OpenBabel11062420233D

 49 54  0  0  1  0  0  0  0  0999 V2000
  191.4960  175.1950  146.5430 C   0  0  1  0  0  3  0  0  0  0  0  0
  190.7250  174.6130  142.3850 C   0  0  2  0  0  3  0  0  0  0  0  0
  192.3120  172.5690  144.5960 C   0  0  0  0  0  2  0  0  0  0  0  0
  193.0550  172.5590  143.2660 C   0  0  0  0  0  0  0  0  0  0  0  0
  185.7980  176.6420  141.9360 F   0  0  0  0  0  0  0  0  0  0  0  0
  195.0560  172.0560  141.9610 C   0  0  0  0  0  3  0  0  0  0  0  0
  190.6300  176.2490  145.7870 C   0  0  1  0  0  3  0  0  0  0  0  0
  184.9000  178.0210  143.6600 C   0  0  0  0  0  0  0  0  0  0  0  0
  189.6220  175.4520  141.6610 C   0  0  2  0  0  3  0  0  0  0  0  0
  190.0970  177.1250  143.3230 C   0  0  2  0  0  3  0  0  0  0  0  0
  187.1230  177.4350  145.2900 C   0  0  0  0  0  0  0  0  0  0  0  0
  190.8400  176.1420  144.2720 C   0  0  2  0  0  3  0  0  0  0  0  0
  188.6650  175.0150  146.3570 O   0  0  0  0  0  0  0  0  0  0  0  0
  189.1620  176.1120  146.1440 C   0  0  0  0  0  0  0  0  0  0  0  0
  189.8020  178.5270  143.8320 C   0  0  0  0  0  1  0  0  0  0  0  0
  189.9700  172.2000  142.1150 C   0  0  0  0  0  0  0  0  0  0  0  0
  190.9800  173.2230  142.0060 N   0  0  0  0  0  0  0  0  0  0  0  0
  188.0200  175.8960  143.4370 C   0  0  0  0  0  2  0  0  0  0  0  0
  193.0230  173.2910  145.7620 C   0  0  0  0  0  2  0  0  0  0  0  0
  188.8730  172.4420  142.6860 O   0  0  0  0  0  0  0  0  0  0  0  0
  188.3140  177.3430  146.2250 C   0  0  0  0  0  2  0  0  0  0  0  0
  192.8080  174.8100  145.8220 C   0  0  0  0  0  2  0  0  0  0  0  0
  185.9110  177.1820  143.1780 C   0  0  0  0  0  0  0  0  0  0  0  0
  189.0100  176.5060  142.5300 N   0  0  2  0  0  0  0  0  0  0  0  0
  194.3900  172.3860  140.7840 C   0  0  0  0  0  3  0  0  0  0  0  0
  184.9950  178.5640  144.9390 C   0  0  0  0  0  3  0  0  0  0  0  0
  186.1010  178.2790  145.7390 C   0  0  0  0  0  3  0  0  0  0  0  0
  192.3680  172.8400  142.0420 C   0  0  0  0  0  0  0  0  0  0  0  0
  193.0540  172.7670  140.8260 C   0  0  0  0  0  3  0  0  0  0  0  0
  183.7100  178.3380  142.8230 C   0  0  0  0  0  1  0  0  0  0  0  0
  187.0290  176.8820  143.9780 C   0  0  0  0  0  0  0  0  0  0  0  0
  190.5810  174.7130  143.8600 C   0  0  0  0  0  2  0  0  0  0  0  0
  194.4030  172.1240  143.1990 C   0  0  0  0  0  0  0  0  0  0  0  0
  194.9880  170.2020  144.6730 C   0  0  0  0  0  3  0  0  0  0  0  0
  195.1470  171.6800  144.4270 C   0  0  1  0  0  3  0  0  0  0  0  0
  196.6220  172.1260  144.4040 C   0  0  0  0  0  2  0  0  0  0  0  0
  196.7890  170.4210  146.3170 C   0  0  0  0  0  2  0  0  0  0  0  0
  197.5480  171.3080  145.3260 C   0  0  0  0  0  2  0  0  0  0  0  0
  195.7680  169.6050  145.5800 C   0  0  0  0  0  3  0  0  0  0  0  0
  191.5810  176.7840  148.2950 O   0  0  0  0  0  0  0  0  0  0  0  0
  191.7720  175.6290  147.9490 C   0  0  0  0  0  3  0  0  0  0  0  0
  187.8870  175.5460  140.0180 O   0  0  0  0  0  1  0  0  0  0  0  0
  188.6000  174.6730  140.8380 C   0  0  0  0  0  2  0  0  0  0  0  0
  190.2170  170.8190  141.5900 C   0  0  0  0  0  2  0  0  0  0  0  0
  190.4690  170.8350  140.0860 C   0  0  0  0  0  2  0  0  0  0  0  0
  189.3440  171.5280  139.3290 C   0  0  0  0  0  2  0  0  0  0  0  0
  190.6790  173.2720  138.4030 O   0  0  0  0  0  1  0  0  0  0  0  0
  189.8830  172.3210  138.1880 C   0  0  0  0  0  0  0  0  0  0  0  0
  189.5310  171.9930  136.8860 O   0  0  0  0  0  0  0  0  0  0  0  0
  1 41  1  1  0  0  0
  2 32  1  1  0  0  0
  3 19  1  0  0  0  0
  4  3  1  0  0  0  0
  5 23  1  0  0  0  0
  6 33  2  0  0  0  0
  7 14  1  6  0  0  0
  7  1  1  0  0  0  0
  8 26  1  0  0  0  0
  9 43  1  1  0  0  0
  9  2  1  0  0  0  0
  9 24  1  0  0  0  0
 10 15  1  1  0  0  0
 10 12  1  0  0  0  0
 11 27  1  0  0  0  0
 11 21  1  0  0  0  0
 12 32  1  6  0  0  0
 12  7  1  0  0  0  0
 14 21  1  0  0  0  0
 14 13  2  0  0  0  0
 16 20  2  0  0  0  0
 17 28  1  0  0  0  0
 17 16  1  0  0  0  0
 17  2  1  0  0  0  0
 18 31  1  0  0  0  0
 19 22  1  0  0  0  0
 22  1  1  0  0  0  0
 23  8  2  0  0  0  0
 23 31  1  0  0  0  0
 24 10  1  0  0  0  0
 24 18  1  1  0  0  0
 25 29  2  0  0  0  0
 25  6  1  0  0  0  0
 26 27  2  0  0  0  0
 28  4  2  0  0  0  0
 29 28  1  0  0  0  0
 30  8  1  0  0  0  0
 31 11  2  0  0  0  0
 33  4  1  0  0  0  0
 34 39  2  0  0  0  0
 35 33  1  6  0  0  0
 35 34  1  0  0  0  0
 36 35  1  0  0  0  0
 36 38  1  0  0  0  0
 38 37  1  0  0  0  0
 39 37  1  0  0  0  0
 41 40  2  0  0  0  0
 42 43  1  0  0  0  0
 44 16  1  0  0  0  0
 45 44  1  0  0  0  0
 46 45  1  0  0  0  0
 48 47  1  0  0  0  0
 48 46  1  0  0  0  0
 49 48  2  0  0  0  0
M  END
>  <MODEL>
1

>  <REMARK>
 VINA RESULT:      -8.2      0.000      0.000
  Name = 
  7 active torsions:
  status: ('A' for Active; 'I' for Inactive)
    1  A    between atoms: C_1  and  C_32
    2  A    between atoms: C_5  and  C_26
    3  A    between atoms: C_5  and  C_37
    4  A    between atoms: C_10  and  C_13
    5  A    between atoms: C_10  and  C_37
    6  A    between atoms: C_16  and  C_49
    7  A    between atoms: C_17  and  C_34
                            x       y       z     vdW  Elec       q    Type
                         _______ _______ _______ _____ _____    ______ ____

>  <TORSDO>
F 7

$$$$
=
 OpenBabel11062420233D

 49 54  0  0  1  0  0  0  0  0999 V2000
  191.6700  175.1070  146.4360 C   0  0  1  0  0  3  0  0  0  0  0  0
  190.8840  174.3800  142.3030 C   0  0  2  0  0  3  0  0  0  0  0  0
  192.4510  172.4010  144.5850 C   0  0  0  0  0  2  0  0  0  0  0  0
  193.1920  172.3330  143.2560 C   0  0  0  0  0  0  0  0  0  0  0  0
  185.9810  176.4500  141.7870 F   0  0  0  0  0  0  0  0  0  0  0  0
  195.1840  171.7580  141.9670 C   0  0  0  0  0  3  0  0  0  0  0  0
  190.8150  176.1420  145.6420 C   0  0  1  0  0  3  0  0  0  0  0  0
  185.1020  177.9030  143.4600 C   0  0  0  0  0  0  0  0  0  0  0  0
  189.7900  175.2060  141.5500 C   0  0  2  0  0  3  0  0  0  0  0  0
  190.2870  176.9330  143.1480 C   0  0  2  0  0  3  0  0  0  0  0  0
  187.3210  177.3510  145.1070 C   0  0  0  0  0  0  0  0  0  0  0  0
  191.0210  175.9770  144.1310 C   0  0  2  0  0  3  0  0  0  0  0  0
  188.8370  174.9540  146.2610 O   0  0  0  0  0  0  0  0  0  0  0  0
  189.3460  176.0370  146.0060 C   0  0  0  0  0  0  0  0  0  0  0  0
  190.0110  178.3560  143.6060 C   0  0  0  0  0  1  0  0  0  0  0  0
  190.1000  171.9680  142.1240 C   0  0  0  0  0  0  0  0  0  0  0  0
  191.1220  172.9750  141.9760 N   0  0  0  0  0  0  0  0  0  0  0  0
  188.1970  175.7340  143.3110 C   0  0  0  0  0  2  0  0  0  0  0  0
  193.1730  173.1570  145.7230 C   0  0  0  0  0  2  0  0  0  0  0  0
  189.0070  172.2440  142.6870 O   0  0  0  0  0  0  0  0  0  0  0  0
  188.5130  177.2790  146.0420 C   0  0  0  0  0  2  0  0  0  0  0  0
  192.9760  174.6800  145.7270 C   0  0  0  0  0  2  0  0  0  0  0  0
  186.1030  177.0350  143.0070 C   0  0  0  0  0  0  0  0  0  0  0  0
  189.1920  176.2980  142.3800 N   0  0  2  0  0  0  0  0  0  0  0  0
  194.5190  172.0520  140.7800 C   0  0  0  0  0  3  0  0  0  0  0  0
  185.2070  178.4920  144.7170 C   0  0  0  0  0  3  0  0  0  0  0  0
  186.3100  178.2230  145.5260 C   0  0  0  0  0  3  0  0  0  0  0  0
  192.5050  172.5760  142.0230 C   0  0  0  0  0  0  0  0  0  0  0  0
  193.1880  172.4510  140.8100 C   0  0  0  0  0  3  0  0  0  0  0  0
  183.9150  178.2030  142.6130 C   0  0  0  0  0  1  0  0  0  0  0  0
  187.2190  176.7520  143.8170 C   0  0  0  0  0  0  0  0  0  0  0  0
  190.7440  174.5370  143.7730 C   0  0  0  0  0  2  0  0  0  0  0  0
  194.5340  171.8800  143.2030 C   0  0  0  0  0  0  0  0  0  0  0  0
  194.9800  170.0460  144.8300 C   0  0  0  0  0  3  0  0  0  0  0  0
  195.2750  171.4720  144.4460 C   0  0  1  0  0  3  0  0  0  0  0  0
  196.7850  171.7630  144.3410 C   0  0  0  0  0  2  0  0  0  0  0  0
  196.8530  170.2250  146.3970 C   0  0  0  0  0  2  0  0  0  0  0  0
  197.6590  170.9390  145.3080 C   0  0  0  0  0  2  0  0  0  0  0  0
  195.7300  169.4550  145.7650 C   0  0  0  0  0  3  0  0  0  0  0  0
  191.6610  176.7250  148.1630 O   0  0  0  0  0  0  0  0  0  0  0  0
  191.9540  175.5900  147.8240 C   0  0  0  0  0  3  0  0  0  0  0  0
  189.2520  174.1260  139.4850 O   0  0  0  0  0  1  0  0  0  0  0  0
  188.7570  174.4080  140.7580 C   0  0  0  0  0  2  0  0  0  0  0  0
  190.3290  170.5660  141.6500 C   0  0  0  0  0  2  0  0  0  0  0  0
  190.2960  170.4830  140.1270 C   0  0  0  0  0  2  0  0  0  0  0  0
  191.3230  169.4960  139.5900 C   0  0  0  0  0  2  0  0  0  0  0  0
  192.6470  169.2290  137.6260 O   0  0  0  0  0  0  0  0  0  0  0  0
  191.9110  169.9860  138.3110 C   0  0  0  0  0  0  0  0  0  0  0  0
  191.6220  171.2660  137.8590 O   0  0  0  0  0  1  0  0  0  0  0  0
  1 41  1  1  0  0  0
  2 32  1  1  0  0  0
  3 19  1  0  0  0  0
  4  3  1  0  0  0  0
  5 23  1  0  0  0  0
  6 33  2  0  0  0  0
  7 14  1  6  0  0  0
  7  1  1  0  0  0  0
  8 26  1  0  0  0  0
  9 43  1  1  0  0  0
  9  2  1  0  0  0  0
  9 24  1  0  0  0  0
 10 15  1  1  0  0  0
 10 12  1  0  0  0  0
 11 27  1  0  0  0  0
 11 21  1  0  0  0  0
 12 32  1  6  0  0  0
 12  7  1  0  0  0  0
 14 21  1  0  0  0  0
 14 13  2  0  0  0  0
 16 20  2  0  0  0  0
 17 28  1  0  0  0  0
 17 16  1  0  0  0  0
 17  2  1  0  0  0  0
 18 31  1  0  0  0  0
 19 22  1  0  0  0  0
 22  1  1  0  0  0  0
 23  8  2  0  0  0  0
 23 31  1  0  0  0  0
 24 10  1  0  0  0  0
 24 18  1  1  0  0  0
 25 29  2  0  0  0  0
 25  6  1  0  0  0  0
 26 27  2  0  0  0  0
 28  4  2  0  0  0  0
 29 28  1  0  0  0  0
 30  8  1  0  0  0  0
 31 11  2  0  0  0  0
 33  4  1  0  0  0  0
 34 39  2  0  0  0  0
 35 33  1  6  0  0  0
 35 34  1  0  0  0  0
 36 35  1  0  0  0  0
 36 38  1  0  0  0  0
 38 37  1  0  0  0  0
 39 37  1  0  0  0  0
 41 40  2  0  0  0  0
 42 43  1  0  0  0  0
 44 16  1  0  0  0  0
 45 44  1  0  0  0  0
 46 45  1  0  0  0  0
 47 48  2  0  0  0  0
 48 46  1  0  0  0  0
 49 48  1  0  0  0  0
M  END
>  <MODEL>
2

>  <REMARK>
 VINA RESULT:      -8.2      0.897      1.032
  Name = 
  7 active torsions:
  status: ('A' for Active; 'I' for Inactive)
    1  A    between atoms: C_1  and  C_32
    2  A    between atoms: C_5  and  C_26
    3  A    between atoms: C_5  and  C_37
    4  A    between atoms: C_10  and  C_13
    5  A    between atoms: C_10  and  C_37
    6  A    between atoms: C_16  and  C_49
    7  A    between atoms: C_17  and  C_34
                            x       y       z     vdW  Elec       q    Type
                         _______ _______ _______ _____ _____    ______ ____

>  <TORSDO>
F 7

$$$$
=
 OpenBabel11062420233D

 49 54  0  0  1  0  0  0  0  0999 V2000
  189.2830  172.9200  139.8500 C   0  0  1  0  0  3  0  0  0  0  0  0
  192.3780  174.4540  142.3590 C   0  0  2  0  0  3  0  0  0  0  0  0
  189.0000  174.6830  142.7080 C   0  0  0  0  0  2  0  0  0  0  0  0
  189.6430  176.0130  143.0780 C   0  0  0  0  0  0  0  0  0  0  0  0
  195.9270  170.4580  142.2090 F   0  0  0  0  0  0  0  0  0  0  0  0
  189.4600  178.4100  143.5040 C   0  0  0  0  0  3  0  0  0  0  0  0
  190.7640  172.5600  139.5180 C   0  0  1  0  0  3  0  0  0  0  0  0
  195.7680  168.7650  140.5390 C   0  0  0  0  0  0  0  0  0  0  0  0
  193.8290  173.8790  142.2630 C   0  0  2  0  0  3  0  0  0  0  0  0
  193.2600  173.3820  139.9800 C   0  0  2  0  0  3  0  0  0  0  0  0
  193.2880  169.8130  139.7090 C   0  0  0  0  0  0  0  0  0  0  0  0
  191.7290  173.5350  140.2030 C   0  0  2  0  0  3  0  0  0  0  0  0
  190.5760  170.6110  140.8860 O   0  0  0  0  0  0  0  0  0  0  0  0
  191.0800  171.1260  139.8970 C   0  0  0  0  0  0  0  0  0  0  0  0
  193.7390  172.8390  138.6430 C   0  0  0  0  0  1  0  0  0  0  0  0
  191.6660  173.9960  144.7560 C   0  0  0  0  0  0  0  0  0  0  0  0
  191.8270  174.8950  143.6400 N   0  0  0  0  0  0  0  0  0  0  0  0
  193.4600  171.5760  141.5720 C   0  0  0  0  0  2  0  0  0  0  0  0
  188.2010  174.6640  141.3850 C   0  0  0  0  0  2  0  0  0  0  0  0
  191.8560  172.7590  144.6140 O   0  0  0  0  0  0  0  0  0  0  0  0
  192.0280  170.3390  139.0480 C   0  0  0  0  0  2  0  0  0  0  0  0
  189.0350  174.4220  140.1190 C   0  0  0  0  0  2  0  0  0  0  0  0
  195.2440  169.8940  141.1790 C   0  0  0  0  0  0  0  0  0  0  0  0
  194.0040  172.8840  141.1600 N   0  0  2  0  0  0  0  0  0  0  0  0
  190.7890  178.4540  143.9180 C   0  0  0  0  0  3  0  0  0  0  0  0
  195.0670  168.1660  139.4960 C   0  0  0  0  0  3  0  0  0  0  0  0
  193.8440  168.6930  139.0830 C   0  0  0  0  0  3  0  0  0  0  0  0
  190.9910  176.0650  143.5600 C   0  0  0  0  0  0  0  0  0  0  0  0
  191.5440  177.2870  143.9510 C   0  0  0  0  0  3  0  0  0  0  0  0
  197.0720  168.1850  140.9660 C   0  0  0  0  0  1  0  0  0  0  0  0
  194.0080  170.4310  140.7740 C   0  0  0  0  0  0  0  0  0  0  0  0
  191.4100  173.5570  141.6780 C   0  0  0  0  0  2  0  0  0  0  0  0
  188.8730  177.2040  143.0980 C   0  0  0  0  0  0  0  0  0  0  0  0
  186.5740  177.8510  143.8070 C   0  0  0  0  0  3  0  0  0  0  0  0
  187.4140  177.2010  142.7390 C   0  0  1  0  0  3  0  0  0  0  0  0
  187.1610  177.7920  141.3390 C   0  0  0  0  0  2  0  0  0  0  0  0
  184.7380  177.8240  142.1880 C   0  0  0  0  0  2  0  0  0  0  0  0
  185.7200  178.2900  141.1090 C   0  0  0  0  0  2  0  0  0  0  0  0
  185.2960  178.1410  143.5440 C   0  0  0  0  0  3  0  0  0  0  0  0
  188.1820  173.0330  137.7570 O   0  0  0  0  0  0  0  0  0  0  0  0
  188.3520  172.4110  138.7940 C   0  0  0  0  0  3  0  0  0  0  0  0
  195.8700  173.4510  143.4340 O   0  0  0  0  0  1  0  0  0  0  0  0
  194.4830  173.4550  143.5760 C   0  0  0  0  0  2  0  0  0  0  0  0
  191.2310  174.5060  146.0950 C   0  0  0  0  0  2  0  0  0  0  0  0
  189.7710  174.1610  146.3740 C   0  0  0  0  0  2  0  0  0  0  0  0
  189.1810  175.0370  147.4690 C   0  0  0  0  0  2  0  0  0  0  0  0
  187.3300  176.1510  146.4600 O   0  0  0  0  0  0  0  0  0  0  0  0
  188.5120  176.2350  146.8860 C   0  0  0  0  0  0  0  0  0  0  0  0
  189.1800  177.4500  146.8400 O   0  0  0  0  0  1  0  0  0  0  0  0
  1 41  1  6  0  0  0
  1 22  1  0  0  0  0
  2 32  1  1  0  0  0
  2 17  1  0  0  0  0
  3  4  1  0  0  0  0
  4 33  2  0  0  0  0
  4 28  1  0  0  0  0
  6 25  2  0  0  0  0
  7  1  1  0  0  0  0
  7 14  1  1  0  0  0
  7 12  1  0  0  0  0
  8 30  1  0  0  0  0
  8 23  1  0  0  0  0
  9  2  1  0  0  0  0
  9 43  1  1  0  0  0
 10 15  1  6  0  0  0
 10 12  1  0  0  0  0
 10 24  1  0  0  0  0
 11 31  1  0  0  0  0
 12 32  1  1  0  0  0
 14 13  2  0  0  0  0
 16 44  1  0  0  0  0
 17 16  1  0  0  0  0
 19  3  1  0  0  0  0
 20 16  2  0  0  0  0
 21 11  1  0  0  0  0
 21 14  1  0  0  0  0
 22 19  1  0  0  0  0
 23  5  1  0  0  0  0
 24 18  1  1  0  0  0
 24  9  1  0  0  0  0
 25 29  1  0  0  0  0
 26  8  2  0  0  0  0
 27 26  1  0  0  0  0
 27 11  2  0  0  0  0
 28 17  1  0  0  0  0
 28 29  2  0  0  0  0
 31 23  2  0  0  0  0
 31 18  1  0  0  0  0
 33  6  1  0  0  0  0
 35 33  1  1  0  0  0
 35 34  1  0  0  0  0
 36 35  1  0  0  0  0
 37 39  1  0  0  0  0
 38 36  1  0  0  0  0
 38 37  1  0  0  0  0
 39 34  2  0  0  0  0
 40 41  2  0  0  0  0
 42 43  1  0  0  0  0
 44 45  1  0  0  0  0
 45 46  1  0  0  0  0
 47 48  2  0  0  0  0
 48 46  1  0  0  0  0
 49 48  1  0  0  0  0
M  END
>  <MODEL>
3

>  <REMARK>
 VINA RESULT:      -7.6      2.858      9.313
  Name = 
  7 active torsions:
  status: ('A' for Active; 'I' for Inactive)
    1  A    between atoms: C_1  and  C_32
    2  A    between atoms: C_5  and  C_26
    3  A    between atoms: C_5  and  C_37
    4  A    between atoms: C_10  and  C_13
    5  A    between atoms: C_10  and  C_37
    6  A    between atoms: C_16  and  C_49
    7  A    between atoms: C_17  and  C_34
                            x       y       z     vdW  Elec       q    Type
                         _______ _______ _______ _____ _____    ______ ____

>  <TORSDO>
F 7

$$$$
=
 OpenBabel11062420233D

 49 54  0  0  1  0  0  0  0  0999 V2000
  193.0970  175.1340  145.4250 C   0  0  1  0  0  3  0  0  0  0  0  0
  190.4910  175.0840  142.0440 C   0  0  2  0  0  3  0  0  0  0  0  0
  192.9210  172.8720  142.9340 C   0  0  0  0  0  2  0  0  0  0  0  0
  192.9660  173.1020  141.4290 C   0  0  0  0  0  0  0  0  0  0  0  0
  185.9150  176.7920  144.2180 F   0  0  0  0  0  0  0  0  0  0  0  0
  194.1370  172.9330  139.2930 C   0  0  0  0  0  3  0  0  0  0  0  0
  191.9790  176.2180  145.3240 C   0  0  1  0  0  3  0  0  0  0  0  0
  185.9150  177.8480  146.3550 C   0  0  0  0  0  0  0  0  0  0  0  0
  189.1790  175.9340  142.0450 C   0  0  2  0  0  3  0  0  0  0  0  0
  190.3680  177.3880  143.5470 C   0  0  2  0  0  3  0  0  0  0  0  0
  188.6390  177.2040  146.6760 C   0  0  0  0  0  0  0  0  0  0  0  0
  191.4650  176.3390  143.8840 C   0  0  2  0  0  3  0  0  0  0  0  0
  190.5010  174.7770  146.5260 O   0  0  0  0  0  0  0  0  0  0  0  0
  190.8420  175.9260  146.2850 C   0  0  0  0  0  0  0  0  0  0  0  0
  190.3420  178.6800  144.3480 C   0  0  0  0  0  1  0  0  0  0  0  0
  189.6970  172.6830  141.7720 C   0  0  0  0  0  0  0  0  0  0  0  0
  190.5430  173.7830  141.3770 N   0  0  0  0  0  0  0  0  0  0  0  0
  188.5790  176.0070  144.4010 C   0  0  0  0  0  2  0  0  0  0  0  0
  194.0910  173.4740  143.7450 C   0  0  0  0  0  2  0  0  0  0  0  0
  188.9880  172.7630  142.8110 O   0  0  0  0  0  0  0  0  0  0  0  0
  190.1270  177.0690  146.9360 C   0  0  0  0  0  2  0  0  0  0  0  0
  193.9270  174.9500  144.1340 C   0  0  0  0  0  2  0  0  0  0  0  0
  186.5890  177.1610  145.3390 C   0  0  0  0  0  0  0  0  0  0  0  0
  189.0380  176.8090  143.2510 N   0  0  2  0  0  0  0  0  0  0  0  0
  193.0020  173.3750  138.6180 C   0  0  0  0  0  3  0  0  0  0  0  0
  186.5910  178.2130  147.5170 C   0  0  0  0  0  3  0  0  0  0  0  0
  187.9410  177.9000  147.6680 C   0  0  0  0  0  3  0  0  0  0  0  0
  191.7900  173.5000  140.7140 C   0  0  0  0  0  0  0  0  0  0  0  0
  191.8370  173.6480  139.3250 C   0  0  0  0  0  3  0  0  0  0  0  0
  184.4730  178.1910  146.2150 C   0  0  0  0  0  1  0  0  0  0  0  0
  187.9500  176.8340  145.4830 C   0  0  0  0  0  0  0  0  0  0  0  0
  191.0450  174.9670  143.4160 C   0  0  0  0  0  2  0  0  0  0  0  0
  194.1300  172.7800  140.6870 C   0  0  0  0  0  0  0  0  0  0  0  0
  195.4840  170.7380  141.1410 C   0  0  0  0  0  3  0  0  0  0  0  0
  195.3570  172.2240  141.3530 C   0  0  1  0  0  3  0  0  0  0  0  0
  196.6310  172.9940  140.9560 C   0  0  0  0  0  2  0  0  0  0  0  0
  197.7610  170.9460  142.0130 C   0  0  0  0  0  2  0  0  0  0  0  0
  197.9410  172.2090  141.1660 C   0  0  0  0  0  2  0  0  0  0  0  0
  196.6290  170.1290  141.4620 C   0  0  0  0  0  3  0  0  0  0  0  0
  194.5270  176.4740  146.7530 O   0  0  0  0  0  0  0  0  0  0  0  0
  193.9920  175.3870  146.5980 C   0  0  0  0  0  3  0  0  0  0  0  0
  187.5800  175.4550  140.3320 O   0  0  0  0  0  1  0  0  0  0  0  0
  187.8920  175.2040  141.6680 C   0  0  0  0  0  2  0  0  0  0  0  0
  189.6740  171.4120  140.9830 C   0  0  0  0  0  2  0  0  0  0  0  0
  190.5180  170.3290  141.6480 C   0  0  0  0  0  2  0  0  0  0  0  0
  191.5590  169.7570  140.6950 C   0  0  0  0  0  2  0  0  0  0  0  0
  191.0680  170.4490  138.4680 O   0  0  0  0  0  0  0  0  0  0  0  0
  190.9770  169.5460  139.3390 C   0  0  0  0  0  0  0  0  0  0  0  0
  190.3610  168.3420  139.0280 O   0  0  0  0  0  1  0  0  0  0  0  0
  1 41  1  1  0  0  0
  2  9  1  0  0  0  0
  2 32  1  1  0  0  0
  3 19  1  0  0  0  0
  4  3  1  0  0  0  0
  5 23  1  0  0  0  0
  6 33  1  0  0  0  0
  7  1  1  0  0  0  0
  7 14  1  1  0  0  0
  8 26  1  0  0  0  0
  9 43  1  1  0  0  0
  9 24  1  0  0  0  0
 10 12  1  0  0  0  0
 10 15  1  1  0  0  0
 11 21  1  0  0  0  0
 11 27  1  0  0  0  0
 12 32  1  1  0  0  0
 12  7  1  0  0  0  0
 14 13  2  0  0  0  0
 14 21  1  0  0  0  0
 16 20  2  0  0  0  0
 17 16  1  0  0  0  0
 17  2  1  0  0  0  0
 18 31  1  0  0  0  0
 19 22  1  0  0  0  0
 22  1  1  0  0  0  0
 23 31  1  0  0  0  0
 23  8  2  0  0  0  0
 24 10  1  0  0  0  0
 24 18  1  1  0  0  0
 25  6  2  0  0  0  0
 25 29  1  0  0  0  0
 26 27  2  0  0  0  0
 28 17  1  0  0  0  0
 28  4  1  0  0  0  0
 29 28  2  0  0  0  0
 30  8  1  0  0  0  0
 31 11  2  0  0  0  0
 33  4  2  0  0  0  0
 34 35  1  0  0  0  0
 34 39  2  0  0  0  0
 35 33  1  6  0  0  0
 36 38  1  0  0  0  0
 36 35  1  0  0  0  0
 38 37  1  0  0  0  0
 39 37  1  0  0  0  0
 41 40  2  0  0  0  0
 42 43  1  0  0  0  0
 44 45  1  0  0  0  0
 44 16  1  0  0  0  0
 46 45  1  0  0  0  0
 47 48  2  0  0  0  0
 48 46  1  0  0  0  0
 49 48  1  0  0  0  0
M  END
>  <MODEL>
4

>  <REMARK>
 VINA RESULT:      -7.5      1.884      2.412
  Name = 
  7 active torsions:
  status: ('A' for Active; 'I' for Inactive)
    1  A    between atoms: C_1  and  C_32
    2  A    between atoms: C_5  and  C_26
    3  A    between atoms: C_5  and  C_37
    4  A    between atoms: C_10  and  C_13
    5  A    between atoms: C_10  and  C_37
    6  A    between atoms: C_16  and  C_49
    7  A    between atoms: C_17  and  C_34
                            x       y       z     vdW  Elec       q    Type
                         _______ _______ _______ _____ _____    ______ ____

>  <TORSDO>
F 7

$$$$
=
 OpenBabel11062420233D

 49 54  0  0  1  0  0  0  0  0999 V2000
  194.9720  175.6500  142.3370 C   0  0  1  0  0  3  0  0  0  0  0  0
  192.4790  172.3560  141.2600 C   0  0  2  0  0  3  0  0  0  0  0  0
  191.6700  175.2430  142.8710 C   0  0  0  0  0  2  0  0  0  0  0  0
  190.9450  174.0730  143.5230 C   0  0  0  0  0  0  0  0  0  0  0  0
  194.4200  171.1030  136.4380 F   0  0  0  0  0  0  0  0  0  0  0  0
  189.7000  173.1320  145.4010 C   0  0  0  0  0  3  0  0  0  0  0  0
  195.5830  174.4960  141.4840 C   0  0  1  0  0  3  0  0  0  0  0  0
  196.5390  171.9390  135.7360 C   0  0  0  0  0  0  0  0  0  0  0  0
  192.9400  171.3440  140.1610 C   0  0  2  0  0  3  0  0  0  0  0  0
  195.1690  171.9390  140.8390 C   0  0  2  0  0  3  0  0  0  0  0  0
  196.6540  173.5780  138.0250 C   0  0  0  0  0  0  0  0  0  0  0  0
  194.7250  173.2280  141.5870 C   0  0  2  0  0  3  0  0  0  0  0  0
  194.9580  175.6610  139.4950 O   0  0  0  0  0  0  0  0  0  0  0  0
  195.7620  174.9160  140.0380 C   0  0  0  0  0  0  0  0  0  0  0  0
  196.6580  171.6920  140.6600 C   0  0  0  0  0  1  0  0  0  0  0  0
  190.3190  173.3440  140.3530 C   0  0  0  0  0  0  0  0  0  0  0  0
  191.0680  172.7110  141.4100 N   0  0  0  0  0  0  0  0  0  0  0  0
  194.3320  172.7100  138.7080 C   0  0  0  0  0  2  0  0  0  0  0  0
  192.8130  175.8750  143.6990 C   0  0  0  0  0  2  0  0  0  0  0  0
  190.9010  173.7510  139.3110 O   0  0  0  0  0  0  0  0  0  0  0  0
  196.9370  174.3990  139.2680 C   0  0  0  0  0  2  0  0  0  0  0  0
  194.1750  175.1770  143.5740 C   0  0  0  0  0  2  0  0  0  0  0  0
  195.4920  171.9070  136.6640 C   0  0  0  0  0  0  0  0  0  0  0  0
  194.3310  171.5910  139.6690 N   0  0  2  0  0  0  0  0  0  0  0  0
  189.4590  171.9670  144.6780 C   0  0  0  0  0  3  0  0  0  0  0  0
  197.6330  172.7740  135.9470 C   0  0  0  0  0  3  0  0  0  0  0  0
  197.6890  173.5780  137.0850 C   0  0  0  0  0  3  0  0  0  0  0  0
  190.6390  172.8920  142.7730 C   0  0  0  0  0  0  0  0  0  0  0  0
  189.9200  171.8530  143.3720 C   0  0  0  0  0  3  0  0  0  0  0  0
  196.4980  171.0900  134.5130 C   0  0  0  0  0  1  0  0  0  0  0  0
  195.5350  172.7180  137.8130 C   0  0  0  0  0  0  0  0  0  0  0  0
  193.3060  173.5890  141.2200 C   0  0  0  0  0  2  0  0  0  0  0  0
  190.4230  174.1920  144.8370 C   0  0  0  0  0  0  0  0  0  0  0  0
  189.2600  176.1240  145.8940 C   0  0  0  0  0  3  0  0  0  0  0  0
  190.5840  175.4560  145.6330 C   0  0  1  0  0  3  0  0  0  0  0  0
  191.4010  175.2290  146.9200 C   0  0  0  0  0  2  0  0  0  0  0  0
  190.4450  177.5410  147.5000 C   0  0  0  0  0  2  0  0  0  0  0  0
  191.1820  176.2980  148.0100 C   0  0  0  0  0  2  0  0  0  0  0  0
  189.1970  177.1230  146.7800 C   0  0  0  0  0  3  0  0  0  0  0  0
  196.2930  176.8330  143.9060 O   0  0  0  0  0  0  0  0  0  0  0  0
  196.0200  176.6440  142.7310 C   0  0  0  0  0  3  0  0  0  0  0  0
  191.1150  169.9880  139.4160 O   0  0  0  0  0  1  0  0  0  0  0  0
  191.9420  171.0470  139.0440 C   0  0  0  0  0  2  0  0  0  0  0  0
  188.8440  173.5680  140.4850 C   0  0  0  0  0  2  0  0  0  0  0  0
  188.5330  175.0210  140.8320 C   0  0  0  0  0  2  0  0  0  0  0  0
  187.7590  175.1380  142.1380 C   0  0  0  0  0  2  0  0  0  0  0  0
  186.6150  177.0280  143.0340 O   0  0  0  0  0  1  0  0  0  0  0  0
  187.6950  176.5580  142.5900 C   0  0  0  0  0  0  0  0  0  0  0  0
  188.8320  177.3520  142.5490 O   0  0  0  0  0  0  0  0  0  0  0  0
  1 41  1  1  0  0  0
  1 22  1  0  0  0  0
  2 32  1  6  0  0  0
  2 17  1  0  0  0  0
  3  4  1  0  0  0  0
  3 19  1  0  0  0  0
  4 33  1  0  0  0  0
  5 23  1  0  0  0  0
  7 14  1  6  0  0  0
  7 12  1  0  0  0  0
  7  1  1  0  0  0  0
  8 26  2  0  0  0  0
  8 23  1  0  0  0  0
  9 43  1  6  0  0  0
  9  2  1  0  0  0  0
 10 15  1  6  0  0  0
 10 12  1  0  0  0  0
 11 21  1  0  0  0  0
 12 32  1  6  0  0  0
 13 14  2  0  0  0  0
 16 44  1  0  0  0  0
 16 17  1  0  0  0  0
 17 28  1  0  0  0  0
 20 16  2  0  0  0  0
 21 14  1  0  0  0  0
 22 19  1  0  0  0  0
 23 31  2  0  0  0  0
 24 18  1  6  0  0  0
 24  9  1  0  0  0  0
 24 10  1  0  0  0  0
 25  6  1  0  0  0  0
 26 27  1  0  0  0  0
 27 11  2  0  0  0  0
 28 29  1  0  0  0  0
 28  4  2  0  0  0  0
 29 25  2  0  0  0  0
 30  8  1  0  0  0  0
 31 11  1  0  0  0  0
 31 18  1  0  0  0  0
 33  6  2  0  0  0  0
 34 39  2  0  0  0  0
 35 33  1  1  0  0  0
 35 34  1  0  0  0  0
 35 36  1  0  0  0  0
 36 38  1  0  0  0  0
 37 38  1  0  0  0  0
 39 37  1  0  0  0  0
 41 40  2  0  0  0  0
 43 42  1  0  0  0  0
 44 45  1  0  0  0  0
 45 46  1  0  0  0  0
 46 48  1  0  0  0  0
 48 47  1  0  0  0  0
 49 48  2  0  0  0  0
M  END
>  <MODEL>
5

>  <REMARK>
 VINA RESULT:      -7.4      3.401      8.249
  Name = 
  7 active torsions:
  status: ('A' for Active; 'I' for Inactive)
    1  A    between atoms: C_1  and  C_32
    2  A    between atoms: C_5  and  C_26
    3  A    between atoms: C_5  and  C_37
    4  A    between atoms: C_10  and  C_13
    5  A    between atoms: C_10  and  C_37
    6  A    between atoms: C_16  and  C_49
    7  A    between atoms: C_17  and  C_34
                            x       y       z     vdW  Elec       q    Type
                         _______ _______ _______ _____ _____    ______ ____

>  <TORSDO>
F 7

$$$$
=
 OpenBabel11062420233D

 49 54  0  0  1  0  0  0  0  0999 V2000
  190.7200  173.7310  140.6390 C   0  0  1  0  0  3  0  0  0  0  0  0
  194.6740  174.1110  142.2030 C   0  0  2  0  0  3  0  0  0  0  0  0
  191.7280  173.6910  143.8540 C   0  0  0  0  0  2  0  0  0  0  0  0
  192.5910  174.7020  144.5980 C   0  0  0  0  0  0  0  0  0  0  0  0
  197.4850  171.2720  138.6500 F   0  0  0  0  0  0  0  0  0  0  0  0
  192.8210  176.4780  146.2580 C   0  0  0  0  0  3  0  0  0  0  0  0
  191.9170  173.7900  139.6420 C   0  0  1  0  0  3  0  0  0  0  0  0
  196.5330  170.6940  136.5420 C   0  0  0  0  0  0  0  0  0  0  0  0
  195.9140  173.8610  141.2830 C   0  0  2  0  0  3  0  0  0  0  0  0
  194.4680  174.5610  139.4940 C   0  0  2  0  0  3  0  0  0  0  0  0
  194.0400  171.6950  137.3920 C   0  0  0  0  0  0  0  0  0  0  0  0
  193.1620  174.3780  140.3170 C   0  0  2  0  0  3  0  0  0  0  0  0
  192.0780  171.4080  139.7250 O   0  0  0  0  0  0  0  0  0  0  0  0
  192.2120  172.4220  139.0550 C   0  0  0  0  0  0  0  0  0  0  0  0
  194.3420  174.8620  138.0080 C   0  0  0  0  0  1  0  0  0  0  0  0
  194.8940  172.3830  144.0550 C   0  0  0  0  0  0  0  0  0  0  0  0
  194.7020  173.7440  143.6180 N   0  0  0  0  0  0  0  0  0  0  0  0
  195.0840  172.2320  139.6790 C   0  0  0  0  0  2  0  0  0  0  0  0
  190.4850  174.2640  143.1350 C   0  0  0  0  0  2  0  0  0  0  0  0
  194.8920  171.4380  143.2220 O   0  0  0  0  0  0  0  0  0  0  0  0
  192.6810  172.3230  137.6380 C   0  0  0  0  0  2  0  0  0  0  0  0
  190.7430  174.8260  141.7300 C   0  0  0  0  0  2  0  0  0  0  0  0
  196.4080  171.2460  137.8220 C   0  0  0  0  0  0  0  0  0  0  0  0
  195.5540  173.6200  139.8510 N   0  0  2  0  0  0  0  0  0  0  0  0
  194.2040  176.4690  146.0990 C   0  0  0  0  0  3  0  0  0  0  0  0
  195.4300  170.6440  135.6930 C   0  0  0  0  0  3  0  0  0  0  0  0
  194.2000  171.1480  136.1150 C   0  0  0  0  0  3  0  0  0  0  0  0
  194.0190  174.6660  144.4880 C   0  0  0  0  0  0  0  0  0  0  0  0
  194.7960  175.5640  145.2250 C   0  0  0  0  0  3  0  0  0  0  0  0
  197.8370  170.1490  136.0730 C   0  0  0  0  0  1  0  0  0  0  0  0
  195.1700  171.7530  138.2600 C   0  0  0  0  0  0  0  0  0  0  0  0
  193.4360  173.5860  141.5730 C   0  0  0  0  0  2  0  0  0  0  0  0
  192.0080  175.5980  145.5300 C   0  0  0  0  0  0  0  0  0  0  0  0
  190.1950  174.8540  147.0680 C   0  0  0  0  0  3  0  0  0  0  0  0
  190.5300  175.5960  145.8020 C   0  0  1  0  0  3  0  0  0  0  0  0
  189.9340  177.0170  145.7670 C   0  0  0  0  0  2  0  0  0  0  0  0
  187.9530  175.8200  146.8790 C   0  0  0  0  0  2  0  0  0  0  0  0
  188.5930  177.1630  146.5150 C   0  0  0  0  0  2  0  0  0  0  0  0
  188.9630  174.9560  147.5770 C   0  0  0  0  0  3  0  0  0  0  0  0
  188.5390  174.5410  140.1990 O   0  0  0  0  0  0  0  0  0  0  0  0
  189.4100  173.7340  139.9140 C   0  0  0  0  0  3  0  0  0  0  0  0
  197.9400  173.6120  142.5290 O   0  0  0  0  0  1  0  0  0  0  0  0
  196.9760  172.9020  141.8150 C   0  0  0  0  0  2  0  0  0  0  0  0
  195.0580  172.0590  145.5080 C   0  0  0  0  0  2  0  0  0  0  0  0
  196.5290  172.0440  145.9100 C   0  0  0  0  0  2  0  0  0  0  0  0
  197.1900  170.7090  145.5930 C   0  0  0  0  0  2  0  0  0  0  0  0
  196.4420  169.3540  147.4060 O   0  0  0  0  0  1  0  0  0  0  0  0
  196.4050  169.5790  146.1680 C   0  0  0  0  0  0  0  0  0  0  0  0
  195.6110  168.7950  145.3440 O   0  0  0  0  0  0  0  0  0  0  0  0
  1 41  1  6  0  0  0
  1 22  1  0  0  0  0
  2 32  1  6  0  0  0
  2 17  1  0  0  0  0
  3  4  1  0  0  0  0
  4 33  1  0  0  0  0
  7 14  1  1  0  0  0
  7 12  1  0  0  0  0
  7  1  1  0  0  0  0
  8 23  1  0  0  0  0
  9 43  1  1  0  0  0
  9  2  1  0  0  0  0
 10 15  1  6  0  0  0
 10 24  1  0  0  0  0
 10 12  1  0  0  0  0
 11 21  1  0  0  0  0
 11 31  1  0  0  0  0
 12 32  1  1  0  0  0
 14 13  2  0  0  0  0
 16 44  1  0  0  0  0
 17 16  1  0  0  0  0
 17 28  1  0  0  0  0
 19  3  1  0  0  0  0
 20 16  2  0  0  0  0
 21 14  1  0  0  0  0
 22 19  1  0  0  0  0
 23 31  2  0  0  0  0
 23  5  1  0  0  0  0
 24 18  1  1  0  0  0
 24  9  1  0  0  0  0
 25  6  1  0  0  0  0
 26 27  1  0  0  0  0
 26  8  2  0  0  0  0
 27 11  2  0  0  0  0
 28  4  2  0  0  0  0
 28 29  1  0  0  0  0
 29 25  2  0  0  0  0
 30  8  1  0  0  0  0
 31 18  1  0  0  0  0
 33  6  2  0  0  0  0
 34 39  2  0  0  0  0
 35 33  1  1  0  0  0
 35 34  1  0  0  0  0
 36 35  1  0  0  0  0
 36 38  1  0  0  0  0
 37 39  1  0  0  0  0
 38 37  1  0  0  0  0
 41 40  2  0  0  0  0
 43 42  1  0  0  0  0
 44 45  1  0  0  0  0
 46 45  1  0  0  0  0
 46 48  1  0  0  0  0
 48 47  1  0  0  0  0
 49 48  2  0  0  0  0
M  END
>  <MODEL>
6

>  <REMARK>
 VINA RESULT:      -7.2      3.860      9.009
  Name = 
  7 active torsions:
  status: ('A' for Active; 'I' for Inactive)
    1  A    between atoms: C_1  and  C_32
    2  A    between atoms: C_5  and  C_26
    3  A    between atoms: C_5  and  C_37
    4  A    between atoms: C_10  and  C_13
    5  A    between atoms: C_10  and  C_37
    6  A    between atoms: C_16  and  C_49
    7  A    between atoms: C_17  and  C_34
                            x       y       z     vdW  Elec       q    Type
                         _______ _______ _______ _____ _____    ______ ____

>  <TORSDO>
F 7

$$$$
=
 OpenBabel11062420233D

 49 54  0  0  1  0  0  0  0  0999 V2000
  189.5550  174.2210  140.8870 C   0  0  1  0  0  3  0  0  0  0  0  0
  193.1540  173.0570  142.8650 C   0  0  2  0  0  3  0  0  0  0  0  0
  192.5700  173.5390  139.5470 C   0  0  0  0  0  2  0  0  0  0  0  0
  193.4450  172.3070  139.7380 C   0  0  0  0  0  0  0  0  0  0  0  0
  192.9820  176.1180  147.2450 F   0  0  0  0  0  0  0  0  0  0  0  0
  194.4150  170.2420  138.8700 C   0  0  0  0  0  3  0  0  0  0  0  0
  189.5770  174.1940  142.4460 C   0  0  1  0  0  3  0  0  0  0  0  0
  190.9520  177.1900  147.8890 C   0  0  0  0  0  0  0  0  0  0  0  0
  193.3300  173.3110  144.3980 C   0  0  2  0  0  3  0  0  0  0  0  0
  190.9330  173.1430  144.4910 C   0  0  2  0  0  3  0  0  0  0  0  0
  189.7540  176.3770  145.4720 C   0  0  0  0  0  0  0  0  0  0  0  0
  190.7410  173.3370  142.9610 C   0  0  2  0  0  3  0  0  0  0  0  0
  190.2720  176.4790  142.4560 O   0  0  0  0  0  0  0  0  0  0  0  0
  189.6410  175.5960  143.0200 C   0  0  0  0  0  0  0  0  0  0  0  0
  189.6950  173.1390  145.3730 C   0  0  0  0  0  1  0  0  0  0  0  0
  195.0400  174.3730  141.7790 C   0  0  0  0  0  0  0  0  0  0  0  0
  194.2930  173.1500  141.9520 N   0  0  0  0  0  0  0  0  0  0  0  0
  191.9830  175.2990  144.7800 C   0  0  0  0  0  2  0  0  0  0  0  0
  191.1180  173.2730  139.0910 C   0  0  0  0  0  2  0  0  0  0  0  0
  194.6380  175.4470  142.3000 O   0  0  0  0  0  0  0  0  0  0  0  0
  188.9230  175.8940  144.2990 C   0  0  0  0  0  2  0  0  0  0  0  0
  190.1260  172.9500  140.2170 C   0  0  0  0  0  2  0  0  0  0  0  0
  191.6890  176.4330  146.9710 C   0  0  0  0  0  0  0  0  0  0  0  0
  192.1020  173.8560  145.0560 N   0  0  2  0  0  0  0  0  0  0  0  0
  195.1880  170.1030  140.0200 C   0  0  0  0  0  3  0  0  0  0  0  0
  189.6330  177.5360  147.6090 C   0  0  0  0  0  3  0  0  0  0  0  0
  189.0410  177.1240  146.4150 C   0  0  0  0  0  3  0  0  0  0  0  0
  194.2880  172.1800  140.8880 C   0  0  0  0  0  0  0  0  0  0  0  0
  195.1280  171.0700  141.0170 C   0  0  0  0  0  3  0  0  0  0  0  0
  191.5660  177.6410  149.1690 C   0  0  0  0  0  1  0  0  0  0  0  0
  191.1040  176.0170  145.7600 C   0  0  0  0  0  0  0  0  0  0  0  0
  192.0150  173.8430  142.3280 C   0  0  0  0  0  2  0  0  0  0  0  0
  193.5560  171.3380  138.7090 C   0  0  0  0  0  0  0  0  0  0  0  0
  193.7280  171.8030  136.2680 C   0  0  0  0  0  3  0  0  0  0  0  0
  192.8070  171.4780  137.4140 C   0  0  1  0  0  3  0  0  0  0  0  0
  191.9080  170.2590  137.1300 C   0  0  0  0  0  2  0  0  0  0  0  0
  191.8400  171.3130  134.7890 C   0  0  0  0  0  2  0  0  0  0  0  0
  191.5230  170.0840  135.6470 C   0  0  0  0  0  2  0  0  0  0  0  0
  193.2640  171.7300  135.0160 C   0  0  0  0  0  3  0  0  0  0  0  0
  187.8210  175.6690  140.1800 O   0  0  0  0  0  0  0  0  0  0  0  0
  188.1810  174.5190  140.3710 C   0  0  0  0  0  3  0  0  0  0  0  0
  195.5540  173.0670  145.2450 O   0  0  0  0  0  1  0  0  0  0  0  0
  194.6150  174.0120  144.8310 C   0  0  0  0  0  2  0  0  0  0  0  0
  196.2830  174.4000  140.9460 C   0  0  0  0  0  2  0  0  0  0  0  0
  196.0900  175.2410  139.6870 C   0  0  0  0  0  2  0  0  0  0  0  0
  196.1260  174.3890  138.4260 C   0  0  0  0  0  2  0  0  0  0  0  0
  194.4010  175.2300  137.0120 O   0  0  0  0  0  1  0  0  0  0  0  0
  195.6350  175.1630  137.2500 C   0  0  0  0  0  0  0  0  0  0  0  0
  196.5360  175.8340  136.4340 O   0  0  0  0  0  0  0  0  0  0  0  0
  1 41  1  1  0  0  0
  1  7  1  0  0  0  0
  2 32  1  6  0  0  0
  2  9  1  0  0  0  0
  3  4  1  0  0  0  0
  4 28  1  0  0  0  0
  6 25  2  0  0  0  0
  7 12  1  0  0  0  0
  7 14  1  1  0  0  0
  8 30  1  0  0  0  0
  9 43  1  6  0  0  0
  9 24  1  0  0  0  0
 10 24  1  0  0  0  0
 10 15  1  1  0  0  0
 11 31  2  0  0  0  0
 11 27  1  0  0  0  0
 12 32  1  1  0  0  0
 12 10  1  0  0  0  0
 13 14  2  0  0  0  0
 14 21  1  0  0  0  0
 16 17  1  0  0  0  0
 16 20  2  0  0  0  0
 17  2  1  0  0  0  0
 18 31  1  0  0  0  0
 19  3  1  0  0  0  0
 19 22  1  0  0  0  0
 21 11  1  0  0  0  0
 22  1  1  0  0  0  0
 23  5  1  0  0  0  0
 23  8  2  0  0  0  0
 24 18  1  6  0  0  0
 25 29  1  0  0  0  0
 26  8  1  0  0  0  0
 27 26  2  0  0  0  0
 28 29  2  0  0  0  0
 28 17  1  0  0  0  0
 31 23  1  0  0  0  0
 33  6  1  0  0  0  0
 33  4  2  0  0  0  0
 34 35  1  0  0  0  0
 35 33  1  1  0  0  0
 36 35  1  0  0  0  0
 37 39  1  0  0  0  0
 37 38  1  0  0  0  0
 38 36  1  0  0  0  0
 39 34  2  0  0  0  0
 40 41  2  0  0  0  0
 43 42  1  0  0  0  0
 44 16  1  0  0  0  0
 45 44  1  0  0  0  0
 46 45  1  0  0  0  0
 47 48  1  0  0  0  0
 48 46  1  0  0  0  0
 49 48  2  0  0  0  0
M  END
>  <MODEL>
7

>  <REMARK>
 VINA RESULT:      -7.1      3.138      6.469
  Name = 
  7 active torsions:
  status: ('A' for Active; 'I' for Inactive)
    1  A    between atoms: C_1  and  C_32
    2  A    between atoms: C_5  and  C_26
    3  A    between atoms: C_5  and  C_37
    4  A    between atoms: C_10  and  C_13
    5  A    between atoms: C_10  and  C_37
    6  A    between atoms: C_16  and  C_49
    7  A    between atoms: C_17  and  C_34
                            x       y       z     vdW  Elec       q    Type
                         _______ _______ _______ _____ _____    ______ ____

>  <TORSDO>
F 7

$$$$
=
 OpenBabel11062420233D

 49 54  0  0  1  0  0  0  0  0999 V2000
  191.3050  172.9800  140.7240 C   0  0  1  0  0  3  0  0  0  0  0  0
  193.0260  173.6130  144.5790 C   0  0  2  0  0  3  0  0  0  0  0  0
  194.5460  173.4030  141.5410 C   0  0  0  0  0  2  0  0  0  0  0  0
  195.3750  172.6590  142.5800 C   0  0  0  0  0  0  0  0  0  0  0  0
  189.4230  176.8690  146.8160 F   0  0  0  0  0  0  0  0  0  0  0  0
  197.1380  171.0650  143.1390 C   0  0  0  0  0  3  0  0  0  0  0  0
  190.3550  173.1590  141.9480 C   0  0  1  0  0  3  0  0  0  0  0  0
  187.2540  177.1090  145.8570 C   0  0  0  0  0  0  0  0  0  0  0  0
  192.1390  174.1050  145.7690 C   0  0  2  0  0  3  0  0  0  0  0  0
  190.3410  173.0040  144.6130 C   0  0  2  0  0  3  0  0  0  0  0  0
  188.0690  175.5890  143.6280 C   0  0  0  0  0  0  0  0  0  0  0  0
  191.1060  172.9110  143.2630 C   0  0  2  0  0  3  0  0  0  0  0  0
  190.3120  175.5130  141.5450 O   0  0  0  0  0  0  0  0  0  0  0  0
  189.7040  174.5290  141.9440 C   0  0  0  0  0  0  0  0  0  0  0  0
  188.8710  172.6140  144.6310 C   0  0  0  0  0  1  0  0  0  0  0  0
  194.7860  175.4270  144.3010 C   0  0  0  0  0  0  0  0  0  0  0  0
  194.4190  174.0410  144.4540 N   0  0  0  0  0  0  0  0  0  0  0  0
  190.4180  175.4180  144.6590 C   0  0  0  0  0  2  0  0  0  0  0  0
  193.8170  172.5220  140.5020 C   0  0  0  0  0  2  0  0  0  0  0  0
  193.9020  176.3060  144.1190 O   0  0  0  0  0  0  0  0  0  0  0  0
  188.3010  174.6710  142.4440 C   0  0  0  0  0  2  0  0  0  0  0  0
  192.4550  171.9720  140.9500 C   0  0  0  0  0  2  0  0  0  0  0  0
  188.5570  176.6020  145.8030 C   0  0  0  0  0  0  0  0  0  0  0  0
  190.6830  174.1900  145.4310 N   0  0  2  0  0  0  0  0  0  0  0  0
  197.0280  171.3920  144.4880 C   0  0  0  0  0  3  0  0  0  0  0  0
  186.3650  176.8590  144.8140 C   0  0  0  0  0  3  0  0  0  0  0  0
  186.7700  176.0990  143.7180 C   0  0  0  0  0  3  0  0  0  0  0  0
  195.3150  173.0250  143.9630 C   0  0  0  0  0  0  0  0  0  0  0  0
  196.1270  172.3700  144.8930 C   0  0  0  0  0  3  0  0  0  0  0  0
  186.8010  177.9240  147.0180 C   0  0  0  0  0  1  0  0  0  0  0  0
  188.9790  175.8390  144.6980 C   0  0  0  0  0  0  0  0  0  0  0  0
  192.3240  173.8030  143.2840 C   0  0  0  0  0  2  0  0  0  0  0  0
  196.3350  171.6950  142.1790 C   0  0  0  0  0  0  0  0  0  0  0  0
  197.4120  172.3880  140.0420 C   0  0  0  0  0  3  0  0  0  0  0  0
  196.5530  171.3610  140.7300 C   0  0  1  0  0  3  0  0  0  0  0  0
  197.0740  169.9230  140.5400 C   0  0  0  0  0  2  0  0  0  0  0  0
  197.5780  170.8060  138.1820 C   0  0  0  0  0  2  0  0  0  0  0  0
  197.7910  169.6790  139.1960 C   0  0  0  0  0  2  0  0  0  0  0  0
  197.8950  172.1250  138.8240 C   0  0  0  0  0  3  0  0  0  0  0  0
  189.7780  171.6770  139.4690 O   0  0  0  0  0  0  0  0  0  0  0  0
  190.5350  172.6350  139.4880 C   0  0  0  0  0  3  0  0  0  0  0  0
  191.9460  175.4370  147.7470 O   0  0  0  0  0  1  0  0  0  0  0  0
  192.6530  175.3110  146.5510 C   0  0  0  0  0  2  0  0  0  0  0  0
  196.2230  175.8470  144.3160 C   0  0  0  0  0  2  0  0  0  0  0  0
  196.5750  176.6670  143.0790 C   0  0  0  0  0  2  0  0  0  0  0  0
  197.3690  175.8540  142.0660 C   0  0  0  0  0  2  0  0  0  0  0  0
  197.5560  175.8300  139.6900 O   0  0  0  0  0  0  0  0  0  0  0  0
  196.8230  176.0400  140.6920 C   0  0  0  0  0  0  0  0  0  0  0  0
  195.4990  176.4170  140.5150 O   0  0  0  0  0  1  0  0  0  0  0  0
  1 41  1  6  0  0  0
  1 22  1  0  0  0  0
  1  7  1  0  0  0  0
  2 32  1  6  0  0  0
  2  9  1  0  0  0  0
  3  4  1  0  0  0  0
  4 28  1  0  0  0  0
  6 25  2  0  0  0  0
  7 14  1  1  0  0  0
  7 12  1  0  0  0  0
  8 30  1  0  0  0  0
  9 43  1  6  0  0  0
 10 15  1  6  0  0  0
 10 24  1  0  0  0  0
 11 27  2  0  0  0  0
 11 31  1  0  0  0  0
 12 32  1  1  0  0  0
 12 10  1  0  0  0  0
 13 14  2  0  0  0  0
 14 21  1  0  0  0  0
 16 44  1  0  0  0  0
 16 17  1  0  0  0  0
 17  2  1  0  0  0  0
 18 31  1  0  0  0  0
 19 22  1  0  0  0  0
 19  3  1  0  0  0  0
 20 16  2  0  0  0  0
 21 11  1  0  0  0  0
 23  8  1  0  0  0  0
 23  5  1  0  0  0  0
 24 18  1  6  0  0  0
 24  9  1  0  0  0  0
 25 29  1  0  0  0  0
 26  8  2  0  0  0  0
 27 26  1  0  0  0  0
 28 17  1  0  0  0  0
 28 29  2  0  0  0  0
 31 23  2  0  0  0  0
 33  4  2  0  0  0  0
 33  6  1  0  0  0  0
 34 35  1  0  0  0  0
 35 33  1  1  0  0  0
 36 35  1  0  0  0  0
 37 39  1  0  0  0  0
 37 38  1  0  0  0  0
 38 36  1  0  0  0  0
 39 34  2  0  0  0  0
 40 41  2  0  0  0  0
 43 42  1  0  0  0  0
 45 44  1  0  0  0  0
 46 45  1  0  0  0  0
 47 48  2  0  0  0  0
 48 46  1  0  0  0  0
 49 48  1  0  0  0  0
M  END
>  <MODEL>
8

>  <REMARK>
 VINA RESULT:      -6.8      2.899      5.732
  Name = 
  7 active torsions:
  status: ('A' for Active; 'I' for Inactive)
    1  A    between atoms: C_1  and  C_32
    2  A    between atoms: C_5  and  C_26
    3  A    between atoms: C_5  and  C_37
    4  A    between atoms: C_10  and  C_13
    5  A    between atoms: C_10  and  C_37
    6  A    between atoms: C_16  and  C_49
    7  A    between atoms: C_17  and  C_34
                            x       y       z     vdW  Elec       q    Type
                         _______ _______ _______ _____ _____    ______ ____

>  <TORSDO>
F 7

$$$$
=
 OpenBabel11062420233D

 49 54  0  0  1  0  0  0  0  0999 V2000
  189.7500  173.2710  140.6190 C   0  0  1  0  0  3  0  0  0  0  0  0
  192.9800  171.8490  143.0200 C   0  0  2  0  0  3  0  0  0  0  0  0
  192.7340  172.0580  139.6320 C   0  0  0  0  0  2  0  0  0  0  0  0
  193.4070  170.7470  140.0160 C   0  0  0  0  0  0  0  0  0  0  0  0
  192.8990  175.3440  147.0660 F   0  0  0  0  0  0  0  0  0  0  0  0
  194.1400  168.4920  139.4350 C   0  0  0  0  0  3  0  0  0  0  0  0
  189.6450  173.4040  142.1700 C   0  0  1  0  0  3  0  0  0  0  0  0
  190.9980  176.7380  147.4180 C   0  0  0  0  0  0  0  0  0  0  0  0
  193.0690  172.2350  144.5330 C   0  0  2  0  0  3  0  0  0  0  0  0
  190.6730  172.4000  144.4190 C   0  0  2  0  0  3  0  0  0  0  0  0
  189.8910  175.8460  144.9850 C   0  0  0  0  0  0  0  0  0  0  0  0
  190.6310  172.4570  142.8660 C   0  0  2  0  0  3  0  0  0  0  0  0
  190.6550  175.5640  142.0330 O   0  0  0  0  0  0  0  0  0  0  0  0
  189.8620  174.8370  142.6150 C   0  0  0  0  0  0  0  0  0  0  0  0
  189.3810  172.6530  145.1800 C   0  0  0  0  0  1  0  0  0  0  0  0
  195.1130  172.7810  141.9970 C   0  0  0  0  0  0  0  0  0  0  0  0
  194.1890  171.6950  142.2120 N   0  0  0  0  0  0  0  0  0  0  0  0
  191.9920  174.4150  144.6040 C   0  0  0  0  0  2  0  0  0  0  0  0
  191.2990  171.9420  139.0700 C   0  0  0  0  0  2  0  0  0  0  0  0
  194.8280  173.9480  142.3770 O   0  0  0  0  0  0  0  0  0  0  0  0
  189.0950  175.3590  143.7900 C   0  0  0  0  0  2  0  0  0  0  0  0
  190.1860  171.8730  140.1250 C   0  0  0  0  0  2  0  0  0  0  0  0
  191.6900  175.7990  146.6450 C   0  0  0  0  0  0  0  0  0  0  0  0
  191.8820  173.0050  145.0220 N   0  0  2  0  0  0  0  0  0  0  0  0
  194.7920  168.3710  140.6590 C   0  0  0  0  0  3  0  0  0  0  0  0
  189.7670  177.2270  146.9860 C   0  0  0  0  0  3  0  0  0  0  0  0
  189.2190  176.7760  145.7860 C   0  0  0  0  0  3  0  0  0  0  0  0
  194.1310  170.6280  141.2460 C   0  0  0  0  0  0  0  0  0  0  0  0
  194.7920  169.4350  141.5530 C   0  0  0  0  0  3  0  0  0  0  0  0
  191.5660  177.2340  148.7020 C   0  0  0  0  0  1  0  0  0  0  0  0
  191.1490  175.3410  145.4290 C   0  0  0  0  0  0  0  0  0  0  0  0
  192.0100  172.7200  142.3100 C   0  0  0  0  0  2  0  0  0  0  0  0
  193.4600  169.6690  139.0950 C   0  0  0  0  0  0  0  0  0  0  0  0
  193.8880  169.9030  136.6520 C   0  0  0  0  0  3  0  0  0  0  0  0
  192.8440  169.7730  137.7290 C   0  0  1  0  0  3  0  0  0  0  0  0
  191.8440  168.6320  137.4560 C   0  0  0  0  0  2  0  0  0  0  0  0
  192.0900  169.4820  135.0460 C   0  0  0  0  0  2  0  0  0  0  0  0
  191.5700  168.3700  135.9620 C   0  0  0  0  0  2  0  0  0  0  0  0
  193.5260  169.7700  135.3720 C   0  0  0  0  0  3  0  0  0  0  0  0
  188.2490  174.8740  139.7340 O   0  0  0  0  0  0  0  0  0  0  0  0
  188.4780  173.6950  139.9530 C   0  0  0  0  0  3  0  0  0  0  0  0
  195.1800  171.7780  145.5610 O   0  0  0  0  0  1  0  0  0  0  0  0
  194.4020  172.8000  145.0160 C   0  0  0  0  0  2  0  0  0  0  0  0
  196.4100  172.5560  141.2830 C   0  0  0  0  0  2  0  0  0  0  0  0
  196.5330  173.4560  140.0570 C   0  0  0  0  0  2  0  0  0  0  0  0
  197.6880  174.4390  140.1900 C   0  0  0  0  0  2  0  0  0  0  0  0
  196.4890  176.4250  140.7360 O   0  0  0  0  0  0  0  0  0  0  0  0
  197.3270  175.5610  141.1030 C   0  0  0  0  0  0  0  0  0  0  0  0
  197.8930  175.6370  142.3670 O   0  0  0  0  0  1  0  0  0  0  0  0
  1 41  1  6  0  0  0
  1  7  1  0  0  0  0
  2 32  1  6  0  0  0
  2  9  1  0  0  0  0
  3  4  1  0  0  0  0
  4 28  1  0  0  0  0
  6 25  2  0  0  0  0
  7 14  1  6  0  0  0
  7 12  1  0  0  0  0
  8 30  1  0  0  0  0
  9 43  1  6  0  0  0
  9 24  1  0  0  0  0
 10 24  1  0  0  0  0
 10 15  1  1  0  0  0
 11 31  2  0  0  0  0
 11 27  1  0  0  0  0
 12 32  1  1  0  0  0
 12 10  1  0  0  0  0
 13 14  2  0  0  0  0
 14 21  1  0  0  0  0
 16 17  1  0  0  0  0
 16 20  2  0  0  0  0
 17  2  1  0  0  0  0
 18 31  1  0  0  0  0
 19  3  1  0  0  0  0
 19 22  1  0  0  0  0
 21 11  1  0  0  0  0
 22  1  1  0  0  0  0
 23  5  1  0  0  0  0
 23  8  2  0  0  0  0
 24 18  1  6  0  0  0
 25 29  1  0  0  0  0
 26  8  1  0  0  0  0
 27 26  2  0  0  0  0
 28 29  2  0  0  0  0
 28 17  1  0  0  0  0
 31 23  1  0  0  0  0
 33  6  1  0  0  0  0
 33  4  2  0  0  0  0
 34 35  1  0  0  0  0
 35 33  1  1  0  0  0
 36 35  1  0  0  0  0
 37 39  1  0  0  0  0
 37 38  1  0  0  0  0
 38 36  1  0  0  0  0
 39 34  2  0  0  0  0
 40 41  2  0  0  0  0
 43 42  1  0  0  0  0
 44 16  1  0  0  0  0
 45 46  1  0  0  0  0
 45 44  1  0  0  0  0
 46 48  1  0  0  0  0
 47 48  2  0  0  0  0
 48 49  1  0  0  0  0
M  END
>  <MODEL>
9

>  <REMARK>
 VINA RESULT:      -6.6      3.449      6.770
  Name = 
  7 active torsions:
  status: ('A' for Active; 'I' for Inactive)
    1  A    between atoms: C_1  and  C_32
    2  A    between atoms: C_5  and  C_26
    3  A    between atoms: C_5  and  C_37
    4  A    between atoms: C_10  and  C_13
    5  A    between atoms: C_10  and  C_37
    6  A    between atoms: C_16  and  C_49
    7  A    between atoms: C_17  and  C_34
                            x       y       z     vdW  Elec       q    Type
                         _______ _______ _______ _____ _____    ______ ____

>  <TORSDO>
F 7

$$$$
