=
 OpenBabel11062421103D

 27 30  0  0  1  0  0  0  0  0999 V2000
  187.6330  177.3890  144.1920 C   0  0  0  0  0  2  0  0  0  0  0  0
  180.3710  177.6680  141.1570 O   0  0  0  0  0  0  0  0  0  0  0  0
  184.8990  178.4740  147.3870 C   0  0  0  0  0  2  0  0  0  0  0  0
  181.3140  178.3810  141.5850 C   0  0  0  0  0  0  0  0  0  0  0  0
  186.9720  177.2660  142.8170 C   0  0  1  0  0  3  0  0  0  0  0  0
  185.1830  178.2820  141.3810 C   0  0  0  0  0  0  0  0  0  0  0  0
  186.1240  178.5120  142.5150 C   0  0  1  0  0  3  0  0  0  0  0  0
  185.4970  178.1070  140.1740 O   0  0  0  0  0  0  0  0  0  0  0  0
  185.1720  178.7180  143.6060 N   0  0  0  0  0  0  0  0  0  0  0  0
  183.8340  178.3620  141.9030 C   0  0  0  0  0  0  0  0  0  0  0  0
  186.7120  177.0780  146.4420 C   0  0  0  0  0  3  0  0  0  0  0  0
  185.8160  177.3820  147.4770 O   0  0  0  0  0  0  0  0  0  0  0  0
  183.8440  178.5840  143.1720 N   0  0  0  0  0  0  0  0  0  0  0  0
  186.6150  177.6760  145.2530 C   0  0  0  0  0  0  0  0  0  0  0  0
  185.5820  178.7510  145.0110 C   0  0  2  0  0  3  0  0  0  0  0  0
  184.3860  178.6070  145.9580 C   0  0  0  0  0  2  0  0  0  0  0  0
  182.6480  178.1070  141.1450 N   0  0  0  0  0  2  0  0  0  0  0  0
  180.0730  179.3600  143.3850 F   0  0  0  0  0  0  0  0  0  0  0  0
  181.0240  179.4460  142.4370 O   0  0  0  0  0  0  0  0  0  0  0  0
  188.0610  177.0840  141.7750 C   0  0  0  0  0  2  0  0  0  0  0  0
  188.2080  175.6750  141.4590 N   0  0  0  0  0  2  0  0  0  0  0  0
  189.4200  175.2950  141.9260 O   0  0  0  0  0  0  0  0  0  0  0  0
  189.1480  174.2290  142.7850 C   0  0  0  0  0  2  0  0  0  0  0  0
  190.2360  175.1960  145.6020 C   0  0  0  0  0  2  0  0  0  0  0  0
  189.7300  173.8330  145.1700 C   0  0  0  0  0  2  0  0  0  0  0  0
  190.2840  174.0670  143.7780 C   0  0  0  0  0  3  0  0  0  0  0  0
  190.7890  175.4290  144.2100 C   0  0  0  0  0  2  0  0  0  0  0  0
  1 14  1  0  0  0  0
  2  4  2  0  0  0  0
  3 12  1  0  0  0  0
  4 19  1  0  0  0  0
  5 20  1  6  0  0  0
  5  1  1  0  0  0  0
  6 10  1  0  0  0  0
  7  6  1  6  0  0  0
  7  5  1  0  0  0  0
  7  9  1  0  0  0  0
  8  6  2  0  0  0  0
  9 15  1  0  0  0  0
 10 13  2  0  0  0  0
 11 12  1  0  0  0  0
 13  9  1  0  0  0  0
 14 11  2  0  0  0  0
 15 14  1  0  0  0  0
 15 16  1  1  0  0  0
 16  3  1  0  0  0  0
 17  4  1  0  0  0  0
 17 10  1  0  0  0  0
 19 18  1  0  0  0  0
 21 20  1  0  0  0  0
 21 22  1  0  0  0  0
 22 23  1  0  0  0  0
 23 26  1  0  0  0  0
 25 24  1  0  0  0  0
 26 27  1  0  0  0  0
 26 25  1  0  0  0  0
 27 24  1  0  0  0  0
M  END
>  <MODEL>
1

>  <REMARK>
 VINA RESULT:      -7.2      0.000      0.000
  Name = 
  6 active torsions:
  status: ('A' for Active; 'I' for Inactive)
    1  A    between atoms: C_2  and  C_7
    2  A    between atoms: C_2  and  N_26
    3  A    between atoms: C_6  and  O_27
    4  A    between atoms: C_12  and  C_13
    5  A    between atoms: C_12  and  O_22
    6  A    between atoms: O_22  and  N_26
                            x       y       z     vdW  Elec       q    Type
                         _______ _______ _______ _____ _____    ______ ____

>  <TORSDO>
F 6

$$$$
=
 OpenBabel11062421103D

 27 30  0  0  1  0  0  0  0  0999 V2000
  186.6560  178.3120  143.8630 C   0  0  0  0  0  2  0  0  0  0  0  0
  188.7030  172.2570  139.2620 O   0  0  0  0  0  0  0  0  0  0  0  0
  184.1810  178.4570  140.2980 C   0  0  0  0  0  2  0  0  0  0  0  0
  188.7820  173.5070  139.3810 C   0  0  0  0  0  0  0  0  0  0  0  0
  187.7140  177.2060  143.8470 C   0  0  1  0  0  3  0  0  0  0  0  0
  189.2850  175.9910  142.3140 C   0  0  0  0  0  0  0  0  0  0  0  0
  188.5150  177.2480  142.5340 C   0  0  1  0  0  3  0  0  0  0  0  0
  190.2660  175.5870  142.9910 O   0  0  0  0  0  0  0  0  0  0  0  0
  187.5850  177.1870  141.4060 N   0  0  0  0  0  0  0  0  0  0  0  0
  188.7440  175.3420  141.1360 C   0  0  0  0  0  0  0  0  0  0  0  0
  184.4740  178.4540  142.7560 C   0  0  0  0  0  3  0  0  0  0  0  0
  183.6480  178.4660  141.6230 O   0  0  0  0  0  0  0  0  0  0  0  0
  187.7630  176.0200  140.6470 N   0  0  0  0  0  0  0  0  0  0  0  0
  185.7870  178.2420  142.6460 C   0  0  0  0  0  0  0  0  0  0  0  0
  186.4320  178.0810  141.2890 C   0  0  2  0  0  3  0  0  0  0  0  0
  185.4290  177.5830  140.2430 C   0  0  0  0  0  2  0  0  0  0  0  0
  189.1540  174.0630  140.6460 N   0  0  0  0  0  2  0  0  0  0  0  0
  187.3090  174.5860  137.8310 F   0  0  0  0  0  0  0  0  0  0  0  0
  188.5520  174.3080  138.2630 O   0  0  0  0  0  0  0  0  0  0  0  0
  188.6270  177.3960  145.0450 C   0  0  0  0  0  2  0  0  0  0  0  0
  188.6410  176.1870  145.8480 N   0  0  0  0  0  2  0  0  0  0  0  0
  187.4570  176.1380  146.5010 O   0  0  0  0  0  0  0  0  0  0  0  0
  187.3740  177.3590  147.1710 C   0  0  0  0  0  2  0  0  0  0  0  0
  184.4550  178.3920  146.4840 C   0  0  0  0  0  2  0  0  0  0  0  0
  184.9480  176.9860  146.7710 C   0  0  0  0  0  2  0  0  0  0  0  0
  185.9770  177.5420  147.7360 C   0  0  0  0  0  3  0  0  0  0  0  0
  185.4840  178.9460  147.4480 C   0  0  0  0  0  2  0  0  0  0  0  0
  2  4  2  0  0  0  0
  3 12  1  0  0  0  0
  4 17  1  0  0  0  0
  5  1  1  0  0  0  0
  5 20  1  1  0  0  0
  6  8  2  0  0  0  0
  7  6  1  1  0  0  0
  7  5  1  0  0  0  0
  9  7  1  0  0  0  0
 10  6  1  0  0  0  0
 12 11  1  0  0  0  0
 13 10  2  0  0  0  0
 13  9  1  0  0  0  0
 14 11  2  0  0  0  0
 14  1  1  0  0  0  0
 15 16  1  6  0  0  0
 15  9  1  0  0  0  0
 15 14  1  0  0  0  0
 16  3  1  0  0  0  0
 17 10  1  0  0  0  0
 18 19  1  0  0  0  0
 19  4  1  0  0  0  0
 20 21  1  0  0  0  0
 21 22  1  0  0  0  0
 22 23  1  0  0  0  0
 23 26  1  0  0  0  0
 24 25  1  0  0  0  0
 24 27  1  0  0  0  0
 25 26  1  0  0  0  0
 27 26  1  0  0  0  0
M  END
>  <MODEL>
2

>  <REMARK>
 VINA RESULT:      -7.0      3.083      6.184
  Name = 
  6 active torsions:
  status: ('A' for Active; 'I' for Inactive)
    1  A    between atoms: C_2  and  C_7
    2  A    between atoms: C_2  and  N_26
    3  A    between atoms: C_6  and  O_27
    4  A    between atoms: C_12  and  C_13
    5  A    between atoms: C_12  and  O_22
    6  A    between atoms: O_22  and  N_26
                            x       y       z     vdW  Elec       q    Type
                         _______ _______ _______ _____ _____    ______ ____

>  <TORSDO>
F 6

$$$$
=
 OpenBabel11062421103D

 27 30  0  0  1  0  0  0  0  0999 V2000
  188.2920  176.2340  141.6060 C   0  0  0  0  0  2  0  0  0  0  0  0
  186.4130  179.7630  148.3920 O   0  0  0  0  0  0  0  0  0  0  0  0
  184.3980  178.0880  141.1050 C   0  0  0  0  0  2  0  0  0  0  0  0
  186.1490  178.7740  147.6600 C   0  0  0  0  0  0  0  0  0  0  0  0
  188.8640  176.3500  143.0210 C   0  0  1  0  0  3  0  0  0  0  0  0
  188.1870  176.3400  145.4370 C   0  0  0  0  0  0  0  0  0  0  0  0
  187.8220  175.9010  144.0590 C   0  0  1  0  0  3  0  0  0  0  0  0
  189.1610  175.9260  146.1190 O   0  0  0  0  0  0  0  0  0  0  0  0
  186.5900  176.6650  143.8600 N   0  0  0  0  0  0  0  0  0  0  0  0
  187.1820  177.2850  145.8820 C   0  0  0  0  0  0  0  0  0  0  0  0
  186.7310  177.6790  140.3880 C   0  0  0  0  0  3  0  0  0  0  0  0
  185.4950  178.3200  140.2210 O   0  0  0  0  0  0  0  0  0  0  0  0
  186.2970  177.4780  144.9660 N   0  0  0  0  0  0  0  0  0  0  0  0
  186.9940  176.9720  141.4890 C   0  0  0  0  0  0  0  0  0  0  0  0
  185.9400  176.7820  142.5540 C   0  0  2  0  0  3  0  0  0  0  0  0
  184.9040  177.9110  142.5310 C   0  0  0  0  0  2  0  0  0  0  0  0
  187.2250  178.0020  147.1180 N   0  0  0  0  0  2  0  0  0  0  0  0
  184.0830  179.0040  146.4690 F   0  0  0  0  0  0  0  0  0  0  0  0
  184.8140  178.4320  147.4420 O   0  0  0  0  0  0  0  0  0  0  0  0
  190.1160  175.4960  143.1050 C   0  0  0  0  0  2  0  0  0  0  0  0
  191.2930  176.3410  143.0150 N   0  0  0  0  0  2  0  0  0  0  0  0
  192.1950  175.8490  143.8950 O   0  0  0  0  0  0  0  0  0  0  0  0
  192.3020  176.8350  144.8760 C   0  0  0  0  0  2  0  0  0  0  0  0
  194.8270  175.4660  146.2200 C   0  0  0  0  0  2  0  0  0  0  0  0
  194.1770  176.8050  146.5100 C   0  0  0  0  0  2  0  0  0  0  0  0
  192.8200  176.2230  146.1650 C   0  0  0  0  0  3  0  0  0  0  0  0
  193.4710  174.8850  145.8760 C   0  0  0  0  0  2  0  0  0  0  0  0
  1  5  1  0  0  0  0
  3 16  1  0  0  0  0
  4  2  2  0  0  0  0
  5 20  1  6  0  0  0
  5  7  1  0  0  0  0
  6 10  1  0  0  0  0
  6  8  2  0  0  0  0
  7  6  1  1  0  0  0
  9  7  1  0  0  0  0
  9 13  1  0  0  0  0
 10 17  1  0  0  0  0
 11 14  2  0  0  0  0
 12 11  1  0  0  0  0
 12  3  1  0  0  0  0
 13 10  2  0  0  0  0
 14  1  1  0  0  0  0
 14 15  1  0  0  0  0
 15 16  1  1  0  0  0
 15  9  1  0  0  0  0
 17  4  1  0  0  0  0
 18 19  1  0  0  0  0
 19  4  1  0  0  0  0
 21 20  1  0  0  0  0
 21 22  1  0  0  0  0
 22 23  1  0  0  0  0
 23 26  1  0  0  0  0
 24 25  1  0  0  0  0
 26 25  1  0  0  0  0
 27 26  1  0  0  0  0
 27 24  1  0  0  0  0
M  END
>  <MODEL>
3

>  <REMARK>
 VINA RESULT:      -6.8      2.688      5.200
  Name = 
  6 active torsions:
  status: ('A' for Active; 'I' for Inactive)
    1  A    between atoms: C_2  and  C_7
    2  A    between atoms: C_2  and  N_26
    3  A    between atoms: C_6  and  O_27
    4  A    between atoms: C_12  and  C_13
    5  A    between atoms: C_12  and  O_22
    6  A    between atoms: O_22  and  N_26
                            x       y       z     vdW  Elec       q    Type
                         _______ _______ _______ _____ _____    ______ ____

>  <TORSDO>
F 6

$$$$
=
 OpenBabel11062421103D

 27 30  0  0  1  0  0  0  0  0999 V2000
  184.3840  178.2730  143.8020 C   0  0  0  0  0  2  0  0  0  0  0  0
  192.0580  176.6480  143.1050 O   0  0  0  0  0  0  0  0  0  0  0  0
  185.9590  177.5690  147.7870 C   0  0  0  0  0  2  0  0  0  0  0  0
  190.9350  176.1350  143.3490 C   0  0  0  0  0  0  0  0  0  0  0  0
  185.3990  178.0510  142.6790 C   0  0  1  0  0  3  0  0  0  0  0  0
  187.3260  176.5900  142.0110 C   0  0  0  0  0  0  0  0  0  0  0  0
  186.0920  176.6890  142.8430 C   0  0  1  0  0  3  0  0  0  0  0  0
  187.3790  176.5540  140.7540 O   0  0  0  0  0  0  0  0  0  0  0  0
  186.6740  176.6070  144.1830 N   0  0  0  0  0  0  0  0  0  0  0  0
  188.4580  176.4780  142.9100 C   0  0  0  0  0  0  0  0  0  0  0  0
  184.7050  178.9290  146.1420 C   0  0  0  0  0  3  0  0  0  0  0  0
  185.2320  178.7460  147.4290 O   0  0  0  0  0  0  0  0  0  0  0  0
  188.0730  176.5140  144.1390 N   0  0  0  0  0  0  0  0  0  0  0  0
  185.0220  178.1000  145.1460 C   0  0  0  0  0  0  0  0  0  0  0  0
  185.9030  176.8970  145.3930 C   0  0  2  0  0  3  0  0  0  0  0  0
  186.8090  177.1020  146.6110 C   0  0  0  0  0  2  0  0  0  0  0  0
  189.8280  176.4520  142.5000 N   0  0  0  0  0  2  0  0  0  0  0  0
  190.8140  175.6460  145.6910 F   0  0  0  0  0  0  0  0  0  0  0  0
  190.8180  175.2370  144.4090 O   0  0  0  0  0  0  0  0  0  0  0  0
  184.6710  178.1330  141.3490 C   0  0  0  0  0  2  0  0  0  0  0  0
  183.2390  178.1980  141.5780 N   0  0  0  0  0  2  0  0  0  0  0  0
  182.6610  178.4230  140.3750 O   0  0  0  0  0  0  0  0  0  0  0  0
  181.3080  178.1500  140.5780 C   0  0  0  0  0  2  0  0  0  0  0  0
  178.6670  179.8490  141.0200 C   0  0  0  0  0  2  0  0  0  0  0  0
  179.3150  178.8070  141.9130 C   0  0  0  0  0  2  0  0  0  0  0  0
  180.6850  179.2420  141.4280 C   0  0  0  0  0  3  0  0  0  0  0  0
  180.0360  180.2820  140.5360 C   0  0  0  0  0  2  0  0  0  0  0  0
  1 14  1  0  0  0  0
  2  4  2  0  0  0  0
  4 19  1  0  0  0  0
  5 20  1  6  0  0  0
  5  7  1  0  0  0  0
  5  1  1  0  0  0  0
  6 10  1  0  0  0  0
  7  6  1  6  0  0  0
  7  9  1  0  0  0  0
  8  6  2  0  0  0  0
  9 15  1  0  0  0  0
 10 13  2  0  0  0  0
 11 12  1  0  0  0  0
 12  3  1  0  0  0  0
 13  9  1  0  0  0  0
 14 15  1  0  0  0  0
 14 11  2  0  0  0  0
 15 16  1  1  0  0  0
 16  3  1  0  0  0  0
 17 10  1  0  0  0  0
 17  4  1  0  0  0  0
 19 18  1  0  0  0  0
 20 21  1  0  0  0  0
 22 23  1  0  0  0  0
 22 21  1  0  0  0  0
 23 26  1  0  0  0  0
 24 25  1  0  0  0  0
 26 25  1  0  0  0  0
 27 24  1  0  0  0  0
 27 26  1  0  0  0  0
M  END
>  <MODEL>
4

>  <REMARK>
 VINA RESULT:      -6.8      2.876      7.319
  Name = 
  6 active torsions:
  status: ('A' for Active; 'I' for Inactive)
    1  A    between atoms: C_2  and  C_7
    2  A    between atoms: C_2  and  N_26
    3  A    between atoms: C_6  and  O_27
    4  A    between atoms: C_12  and  C_13
    5  A    between atoms: C_12  and  O_22
    6  A    between atoms: O_22  and  N_26
                            x       y       z     vdW  Elec       q    Type
                         _______ _______ _______ _____ _____    ______ ____

>  <TORSDO>
F 6

$$$$
=
 OpenBabel11062421103D

 27 30  0  0  1  0  0  0  0  0999 V2000
  188.3850  177.6740  144.0130 C   0  0  0  0  0  2  0  0  0  0  0  0
  192.0500  171.5120  140.7530 O   0  0  0  0  0  0  0  0  0  0  0  0
  190.1550  175.3350  147.2150 C   0  0  0  0  0  2  0  0  0  0  0  0
  191.0380  171.8480  141.4210 C   0  0  0  0  0  0  0  0  0  0  0  0
  188.5480  177.0560  142.6220 C   0  0  1  0  0  3  0  0  0  0  0  0
  188.5870  174.8500  141.4270 C   0  0  0  0  0  0  0  0  0  0  0  0
  188.1070  175.5830  142.6340 C   0  0  1  0  0  3  0  0  0  0  0  0
  188.2080  175.0350  140.2410 O   0  0  0  0  0  0  0  0  0  0  0  0
  188.8430  174.8730  143.6810 N   0  0  0  0  0  0  0  0  0  0  0  0
  189.5240  173.8370  141.8690 C   0  0  0  0  0  0  0  0  0  0  0  0
  189.7700  177.4720  146.0250 C   0  0  0  0  0  3  0  0  0  0  0  0
  190.3840  176.7350  147.0480 O   0  0  0  0  0  0  0  0  0  0  0  0
  189.6780  173.8790  143.1480 N   0  0  0  0  0  0  0  0  0  0  0  0
  189.0960  176.8600  145.0490 C   0  0  0  0  0  0  0  0  0  0  0  0
  188.9140  175.3600  145.0590 C   0  0  2  0  0  3  0  0  0  0  0  0
  190.0230  174.6620  145.8540 C   0  0  0  0  0  2  0  0  0  0  0  0
  190.2730  172.9830  141.0010 N   0  0  0  0  0  2  0  0  0  0  0  0
  191.3140  171.1530  143.6970 F   0  0  0  0  0  0  0  0  0  0  0  0
  190.6670  171.0750  142.5200 O   0  0  0  0  0  0  0  0  0  0  0  0
  187.7190  177.8630  141.6380 C   0  0  0  0  0  2  0  0  0  0  0  0
  186.3370  177.4210  141.6830 N   0  0  0  0  0  2  0  0  0  0  0  0
  185.5990  178.4900  142.0620 O   0  0  0  0  0  0  0  0  0  0  0  0
  184.6210  177.9600  142.9060 C   0  0  0  0  0  2  0  0  0  0  0  0
  185.5820  179.2990  145.6160 C   0  0  0  0  0  2  0  0  0  0  0  0
  185.4200  179.9050  144.2340 C   0  0  0  0  0  2  0  0  0  0  0  0
  184.2480  178.9820  143.9640 C   0  0  0  0  0  3  0  0  0  0  0  0
  184.4100  178.3770  145.3450 C   0  0  0  0  0  2  0  0  0  0  0  0
  1 14  1  0  0  0  0
  2  4  2  0  0  0  0
  4 19  1  0  0  0  0
  5 20  1  6  0  0  0
  5  7  1  0  0  0  0
  5  1  1  0  0  0  0
  6 10  1  0  0  0  0
  7  6  1  6  0  0  0
  7  9  1  0  0  0  0
  8  6  2  0  0  0  0
  9 15  1  0  0  0  0
 10 13  2  0  0  0  0
 11 12  1  0  0  0  0
 12  3  1  0  0  0  0
 13  9  1  0  0  0  0
 14 15  1  0  0  0  0
 14 11  2  0  0  0  0
 15 16  1  6  0  0  0
 16  3  1  0  0  0  0
 17  4  1  0  0  0  0
 17 10  1  0  0  0  0
 19 18  1  0  0  0  0
 20 21  1  0  0  0  0
 21 22  1  0  0  0  0
 22 23  1  0  0  0  0
 23 26  1  0  0  0  0
 25 24  1  0  0  0  0
 26 25  1  0  0  0  0
 26 27  1  0  0  0  0
 27 24  1  0  0  0  0
M  END
>  <MODEL>
5

>  <REMARK>
 VINA RESULT:      -6.7      3.661      7.109
  Name = 
  6 active torsions:
  status: ('A' for Active; 'I' for Inactive)
    1  A    between atoms: C_2  and  C_7
    2  A    between atoms: C_2  and  N_26
    3  A    between atoms: C_6  and  O_27
    4  A    between atoms: C_12  and  C_13
    5  A    between atoms: C_12  and  O_22
    6  A    between atoms: O_22  and  N_26
                            x       y       z     vdW  Elec       q    Type
                         _______ _______ _______ _____ _____    ______ ____

>  <TORSDO>
F 6

$$$$
=
 OpenBabel11062421103D

 27 30  0  0  1  0  0  0  0  0999 V2000
  187.4650  177.2360  144.1110 C   0  0  0  0  0  2  0  0  0  0  0  0
  180.1570  177.6830  141.2100 O   0  0  0  0  0  0  0  0  0  0  0  0
  184.8340  178.4930  147.3280 C   0  0  0  0  0  2  0  0  0  0  0  0
  181.1320  178.3740  141.6010 C   0  0  0  0  0  0  0  0  0  0  0  0
  186.7730  177.1000  142.7520 C   0  0  1  0  0  3  0  0  0  0  0  0
  184.9910  178.1400  141.3250 C   0  0  0  0  0  0  0  0  0  0  0  0
  185.9610  178.3670  142.4340 C   0  0  1  0  0  3  0  0  0  0  0  0
  185.2740  177.9230  140.1170 O   0  0  0  0  0  0  0  0  0  0  0  0
  185.0390  178.6320  143.5380 N   0  0  0  0  0  0  0  0  0  0  0  0
  183.6550  178.2780  141.8710 C   0  0  0  0  0  0  0  0  0  0  0  0
  186.5800  177.0140  146.3860 C   0  0  0  0  0  3  0  0  0  0  0  0
  185.7160  177.3740  147.4300 O   0  0  0  0  0  0  0  0  0  0  0  0
  183.6990  178.5320  143.1330 N   0  0  0  0  0  0  0  0  0  0  0  0
  186.4800  177.5840  145.1830 C   0  0  0  0  0  0  0  0  0  0  0  0
  185.4780  178.6870  144.9330 C   0  0  2  0  0  3  0  0  0  0  0  0
  184.2970  178.6070  145.9060 C   0  0  0  0  0  2  0  0  0  0  0  0
  182.4470  178.0440  141.1420 N   0  0  0  0  0  2  0  0  0  0  0  0
  180.0310  179.4090  143.4600 F   0  0  0  0  0  0  0  0  0  0  0  0
  180.8950  179.4700  142.4310 O   0  0  0  0  0  0  0  0  0  0  0  0
  187.8350  176.8550  141.6940 C   0  0  0  0  0  2  0  0  0  0  0  0
  188.5270  175.6110  141.9730 N   0  0  0  0  0  2  0  0  0  0  0  0
  188.6060  174.9370  140.8030 O   0  0  0  0  0  0  0  0  0  0  0  0
  189.3760  173.8110  141.0960 C   0  0  0  0  0  2  0  0  0  0  0  0
  189.3170  172.4390  138.2370 C   0  0  0  0  0  2  0  0  0  0  0  0
  189.9690  171.9750  139.5260 C   0  0  0  0  0  2  0  0  0  0  0  0
  188.8500  172.6140  140.3250 C   0  0  0  0  0  3  0  0  0  0  0  0
  188.1990  173.0770  139.0360 C   0  0  0  0  0  2  0  0  0  0  0  0
  1 14  1  0  0  0  0
  2  4  2  0  0  0  0
  3 12  1  0  0  0  0
  4 19  1  0  0  0  0
  5 20  1  6  0  0  0
  5  1  1  0  0  0  0
  6 10  1  0  0  0  0
  7  6  1  6  0  0  0
  7  5  1  0  0  0  0
  7  9  1  0  0  0  0
  8  6  2  0  0  0  0
  9 15  1  0  0  0  0
 10 13  2  0  0  0  0
 11 12  1  0  0  0  0
 13  9  1  0  0  0  0
 14 11  2  0  0  0  0
 15 14  1  0  0  0  0
 15 16  1  1  0  0  0
 16  3  1  0  0  0  0
 17  4  1  0  0  0  0
 17 10  1  0  0  0  0
 19 18  1  0  0  0  0
 20 21  1  0  0  0  0
 22 23  1  0  0  0  0
 22 21  1  0  0  0  0
 24 27  1  0  0  0  0
 24 25  1  0  0  0  0
 25 26  1  0  0  0  0
 26 23  1  0  0  0  0
 27 26  1  0  0  0  0
M  END
>  <MODEL>
6

>  <REMARK>
 VINA RESULT:      -6.5      1.629      2.430
  Name = 
  6 active torsions:
  status: ('A' for Active; 'I' for Inactive)
    1  A    between atoms: C_2  and  C_7
    2  A    between atoms: C_2  and  N_26
    3  A    between atoms: C_6  and  O_27
    4  A    between atoms: C_12  and  C_13
    5  A    between atoms: C_12  and  O_22
    6  A    between atoms: O_22  and  N_26
                            x       y       z     vdW  Elec       q    Type
                         _______ _______ _______ _____ _____    ______ ____

>  <TORSDO>
F 6

$$$$
=
 OpenBabel11062421103D

 27 30  0  0  1  0  0  0  0  0999 V2000
  186.3460  178.3440  144.2110 C   0  0  0  0  0  2  0  0  0  0  0  0
  188.9070  172.4010  139.7220 O   0  0  0  0  0  0  0  0  0  0  0  0
  184.0210  178.3530  140.5430 C   0  0  0  0  0  2  0  0  0  0  0  0
  188.9140  173.6540  139.8400 C   0  0  0  0  0  0  0  0  0  0  0  0
  187.4620  177.2960  144.2430 C   0  0  1  0  0  3  0  0  0  0  0  0
  189.1580  176.1650  142.7820 C   0  0  0  0  0  0  0  0  0  0  0  0
  188.3130  177.3800  142.9660 C   0  0  1  0  0  3  0  0  0  0  0  0
  190.1300  175.8150  143.5020 O   0  0  0  0  0  0  0  0  0  0  0  0
  187.4370  177.2670  141.7990 N   0  0  0  0  0  0  0  0  0  0  0  0
  188.7030  175.4870  141.5850 C   0  0  0  0  0  0  0  0  0  0  0  0
  184.2080  178.3680  143.0110 C   0  0  0  0  0  3  0  0  0  0  0  0
  183.4320  178.3340  141.8440 O   0  0  0  0  0  0  0  0  0  0  0  0
  187.7100  176.1100  141.0530 N   0  0  0  0  0  0  0  0  0  0  0  0
  185.5350  178.2260  142.9580 C   0  0  0  0  0  0  0  0  0  0  0  0
  186.2440  178.0980  141.6300 C   0  0  2  0  0  3  0  0  0  0  0  0
  185.3140  177.5460  140.5440 C   0  0  0  0  0  2  0  0  0  0  0  0
  189.2020  174.2300  141.1180 N   0  0  0  0  0  2  0  0  0  0  0  0
  187.4480  174.7230  138.2760 F   0  0  0  0  0  0  0  0  0  0  0  0
  188.6890  174.4400  138.7100 O   0  0  0  0  0  0  0  0  0  0  0  0
  188.3110  177.5370  145.4780 C   0  0  0  0  0  2  0  0  0  0  0  0
  187.9710  176.5660  146.5030 N   0  0  0  0  0  2  0  0  0  0  0  0
  189.1280  175.9720  146.8760 O   0  0  0  0  0  0  0  0  0  0  0  0
  190.0610  177.0090  146.9110 C   0  0  0  0  0  2  0  0  0  0  0  0
  192.3870  174.8910  146.5100 C   0  0  0  0  0  2  0  0  0  0  0  0
  192.4200  176.4040  146.4040 C   0  0  0  0  0  2  0  0  0  0  0  0
  191.3690  176.5050  147.4920 C   0  0  0  0  0  3  0  0  0  0  0  0
  191.3370  174.9930  147.5980 C   0  0  0  0  0  2  0  0  0  0  0  0
  1  5  1  0  0  0  0
  2  4  2  0  0  0  0
  3 16  1  0  0  0  0
  3 12  1  0  0  0  0
  4 17  1  0  0  0  0
  5 20  1  1  0  0  0
  6  8  2  0  0  0  0
  7  6  1  1  0  0  0
  7  5  1  0  0  0  0
  9  7  1  0  0  0  0
 10  6  1  0  0  0  0
 12 11  1  0  0  0  0
 13 10  2  0  0  0  0
 13  9  1  0  0  0  0
 14 11  2  0  0  0  0
 14  1  1  0  0  0  0
 15 16  1  6  0  0  0
 15  9  1  0  0  0  0
 15 14  1  0  0  0  0
 17 10  1  0  0  0  0
 18 19  1  0  0  0  0
 19  4  1  0  0  0  0
 20 21  1  0  0  0  0
 21 22  1  0  0  0  0
 22 23  1  0  0  0  0
 23 26  1  0  0  0  0
 24 27  1  0  0  0  0
 25 24  1  0  0  0  0
 25 26  1  0  0  0  0
 26 27  1  0  0  0  0
M  END
>  <MODEL>
7

>  <REMARK>
 VINA RESULT:      -6.4      3.139      5.720
  Name = 
  6 active torsions:
  status: ('A' for Active; 'I' for Inactive)
    1  A    between atoms: C_2  and  C_7
    2  A    between atoms: C_2  and  N_26
    3  A    between atoms: C_6  and  O_27
    4  A    between atoms: C_12  and  C_13
    5  A    between atoms: C_12  and  O_22
    6  A    between atoms: O_22  and  N_26
                            x       y       z     vdW  Elec       q    Type
                         _______ _______ _______ _____ _____    ______ ____

>  <TORSDO>
F 6

$$$$
=
 OpenBabel11062421103D

 27 30  0  0  1  0  0  0  0  0999 V2000
  187.9130  176.1700  147.1990 C   0  0  0  0  0  2  0  0  0  0  0  0
  186.9730  175.8390  139.3870 O   0  0  0  0  0  0  0  0  0  0  0  0
  184.8430  179.0410  146.1080 C   0  0  0  0  0  2  0  0  0  0  0  0
  187.4420  176.5420  140.3190 C   0  0  0  0  0  0  0  0  0  0  0  0
  188.5650  175.4660  146.0060 C   0  0  1  0  0  3  0  0  0  0  0  0
  189.3120  175.8560  143.6430 C   0  0  0  0  0  0  0  0  0  0  0  0
  189.0190  176.4950  144.9580 C   0  0  1  0  0  3  0  0  0  0  0  0
  190.2590  175.0650  143.3910 O   0  0  0  0  0  0  0  0  0  0  0  0
  187.8800  177.3370  144.5910 N   0  0  0  0  0  0  0  0  0  0  0  0
  188.3490  176.3580  142.6830 C   0  0  0  0  0  0  0  0  0  0  0  0
  185.6760  177.1400  147.4570 C   0  0  0  0  0  3  0  0  0  0  0  0
  184.6540  178.0310  147.1000 O   0  0  0  0  0  0  0  0  0  0  0  0
  187.5270  177.1780  143.2420 N   0  0  0  0  0  0  0  0  0  0  0  0
  186.8070  177.0750  146.7500 C   0  0  0  0  0  0  0  0  0  0  0  0
  187.0470  178.0110  145.5880 C   0  0  2  0  0  3  0  0  0  0  0  0
  185.7300  178.5120  144.9870 C   0  0  0  0  0  2  0  0  0  0  0  0
  188.2400  175.9150  141.3270 N   0  0  0  0  0  2  0  0  0  0  0  0
  186.0030  178.4350  140.6090 F   0  0  0  0  0  0  0  0  0  0  0  0
  187.2080  177.9160  140.3110 O   0  0  0  0  0  0  0  0  0  0  0  0
  189.7420  174.6520  146.5130 C   0  0  0  0  0  2  0  0  0  0  0  0
  190.3510  175.3250  147.6460 N   0  0  0  0  0  2  0  0  0  0  0  0
  191.6900  175.1780  147.5120 O   0  0  0  0  0  0  0  0  0  0  0  0
  192.1380  176.4250  147.0740 C   0  0  0  0  0  2  0  0  0  0  0  0
  194.9470  175.2900  146.1370 C   0  0  0  0  0  2  0  0  0  0  0  0
  193.5450  174.8200  145.7970 C   0  0  0  0  0  2  0  0  0  0  0  0
  193.0460  176.2500  145.8700 C   0  0  0  0  0  3  0  0  0  0  0  0
  194.4470  176.7180  146.2090 C   0  0  0  0  0  2  0  0  0  0  0  0
  2  4  2  0  0  0  0
  3 12  1  0  0  0  0
  4 17  1  0  0  0  0
  5 20  1  1  0  0  0
  5  1  1  0  0  0  0
  7  6  1  6  0  0  0
  7  5  1  0  0  0  0
  8  6  2  0  0  0  0
  9  7  1  0  0  0  0
  9 15  1  0  0  0  0
 10 13  2  0  0  0  0
 10  6  1  0  0  0  0
 12 11  1  0  0  0  0
 13  9  1  0  0  0  0
 14  1  1  0  0  0  0
 14 11  2  0  0  0  0
 15 16  1  6  0  0  0
 15 14  1  0  0  0  0
 16  3  1  0  0  0  0
 17 10  1  0  0  0  0
 19  4  1  0  0  0  0
 19 18  1  0  0  0  0
 20 21  1  0  0  0  0
 22 21  1  0  0  0  0
 23 22  1  0  0  0  0
 24 27  1  0  0  0  0
 25 26  1  0  0  0  0
 25 24  1  0  0  0  0
 26 27  1  0  0  0  0
 26 23  1  0  0  0  0
M  END
>  <MODEL>
8

>  <REMARK>
 VINA RESULT:      -6.4      3.176      4.772
  Name = 
  6 active torsions:
  status: ('A' for Active; 'I' for Inactive)
    1  A    between atoms: C_2  and  C_7
    2  A    between atoms: C_2  and  N_26
    3  A    between atoms: C_6  and  O_27
    4  A    between atoms: C_12  and  C_13
    5  A    between atoms: C_12  and  O_22
    6  A    between atoms: O_22  and  N_26
                            x       y       z     vdW  Elec       q    Type
                         _______ _______ _______ _____ _____    ______ ____

>  <TORSDO>
F 6

$$$$
=
 OpenBabel11062421103D

 27 30  0  0  1  0  0  0  0  0999 V2000
  188.2820  175.6830  141.4260 C   0  0  0  0  0  2  0  0  0  0  0  0
  191.4440  176.2820  148.6140 O   0  0  0  0  0  0  0  0  0  0  0  0
  189.4830  171.7050  142.6840 C   0  0  0  0  0  2  0  0  0  0  0  0
  191.7210  176.0930  147.4010 C   0  0  0  0  0  0  0  0  0  0  0  0
  188.6590  176.7930  142.4110 C   0  0  1  0  0  3  0  0  0  0  0  0
  190.4590  177.4900  144.0130 C   0  0  0  0  0  0  0  0  0  0  0  0
  190.1430  176.6840  142.7990 C   0  0  1  0  0  3  0  0  0  0  0  0
  190.4470  178.7460  144.1000 O   0  0  0  0  0  0  0  0  0  0  0  0
  190.4060  175.3360  143.3050 N   0  0  0  0  0  0  0  0  0  0  0  0
  190.8480  176.5720  145.0650 C   0  0  0  0  0  0  0  0  0  0  0  0
  187.8170  173.3050  141.7960 C   0  0  0  0  0  3  0  0  0  0  0  0
  188.1650  172.0180  142.2300 O   0  0  0  0  0  0  0  0  0  0  0  0
  190.7880  175.3520  144.6550 N   0  0  0  0  0  0  0  0  0  0  0  0
  188.6470  174.3360  141.9680 C   0  0  0  0  0  0  0  0  0  0  0  0
  190.0170  174.1320  142.5700 C   0  0  2  0  0  3  0  0  0  0  0  0
  190.0630  172.8830  143.4570 C   0  0  0  0  0  2  0  0  0  0  0  0
  191.1400  176.9500  146.4130 N   0  0  0  0  0  2  0  0  0  0  0  0
  193.8560  175.3570  146.6020 F   0  0  0  0  0  0  0  0  0  0  0  0
  192.6230  175.0840  147.0630 O   0  0  0  0  0  0  0  0  0  0  0  0
  188.3650  178.1330  141.7610 C   0  0  0  0  0  2  0  0  0  0  0  0
  187.0660  178.6140  142.1950 N   0  0  0  0  0  2  0  0  0  0  0  0
  186.9810  178.3640  143.5220 O   0  0  0  0  0  0  0  0  0  0  0  0
  185.8230  179.0270  143.9310 C   0  0  0  0  0  2  0  0  0  0  0  0
  185.1430  177.4110  146.5740 C   0  0  0  0  0  2  0  0  0  0  0  0
  184.3780  178.5300  145.8930 C   0  0  0  0  0  2  0  0  0  0  0  0
  184.8510  178.0330  144.5410 C   0  0  0  0  0  3  0  0  0  0  0  0
  185.6160  176.9160  145.2220 C   0  0  0  0  0  2  0  0  0  0  0  0
  1 14  1  0  0  0  0
  1  5  1  0  0  0  0
  3 16  1  0  0  0  0
  4  2  2  0  0  0  0
  5 20  1  6  0  0  0
  5  7  1  0  0  0  0
  6  8  2  0  0  0  0
  6 10  1  0  0  0  0
  7  9  1  0  0  0  0
  7  6  1  1  0  0  0
  9 13  1  0  0  0  0
 10 17  1  0  0  0  0
 11 14  2  0  0  0  0
 11 12  1  0  0  0  0
 12  3  1  0  0  0  0
 13 10  2  0  0  0  0
 14 15  1  0  0  0  0
 15  9  1  0  0  0  0
 15 16  1  1  0  0  0
 17  4  1  0  0  0  0
 18 19  1  0  0  0  0
 19  4  1  0  0  0  0
 20 21  1  0  0  0  0
 21 22  1  0  0  0  0
 22 23  1  0  0  0  0
 23 26  1  0  0  0  0
 25 24  1  0  0  0  0
 26 27  1  0  0  0  0
 26 25  1  0  0  0  0
 27 24  1  0  0  0  0
M  END
>  <MODEL>
9

>  <REMARK>
 VINA RESULT:      -6.4      4.128      7.812
  Name = 
  6 active torsions:
  status: ('A' for Active; 'I' for Inactive)
    1  A    between atoms: C_2  and  C_7
    2  A    between atoms: C_2  and  N_26
    3  A    between atoms: C_6  and  O_27
    4  A    between atoms: C_12  and  C_13
    5  A    between atoms: C_12  and  O_22
    6  A    between atoms: O_22  and  N_26
                            x       y       z     vdW  Elec       q    Type
                         _______ _______ _______ _____ _____    ______ ____

>  <TORSDO>
F 6

$$$$
