=
 OpenBabel11062421213D

 51 58  0  0  1  0  0  0  0  0999 V2000
  195.0620  175.1090  145.7410 C   0  0  0  0  0  2  0  0  0  0  0  0
  194.5140  173.7150  143.3350 O   0  0  0  0  0  0  0  0  0  0  0  0
  193.4510  174.4850  143.9010 C   0  0  1  0  0  3  0  0  0  0  0  0
  195.7700  173.5650  143.9310 C   0  0  0  0  0  0  0  0  0  0  0  0
  193.9870  175.6230  144.7780 C   0  0  1  0  0  3  0  0  0  0  0  0
  196.2400  174.5310  144.9720 C   0  0  0  0  0  2  0  0  0  0  0  0
  196.5490  172.6700  143.5140 O   0  0  0  0  0  0  0  0  0  0  0  0
  190.2200  175.8810  146.6730 C   0  0  1  0  0  3  0  0  0  0  0  0
  190.5050  175.5390  145.3170 O   0  0  0  0  0  0  0  0  0  0  0  0
  192.6980  175.8440  146.9170 C   0  0  0  0  0  2  0  0  0  0  0  0
  191.4970  176.3710  144.7290 C   0  0  2  0  0  3  0  0  0  0  0  0
  192.8420  176.3590  145.4920 C   0  0  2  0  0  3  0  0  0  0  0  0
  191.4110  176.3900  147.4990 C   0  0  0  0  0  2  0  0  0  0  0  0
  189.0030  176.7490  146.8090 C   0  0  0  0  0  0  0  0  0  0  0  0
  187.7750  176.3430  146.1920 N   0  0  0  0  0  2  0  0  0  0  0  0
  189.0740  177.8370  147.4380 O   0  0  0  0  0  0  0  0  0  0  0  0
  186.5900  178.2480  143.8630 N   0  0  0  0  0  2  0  0  0  0  0  0
  186.6050  177.1600  146.0650 C   0  0  2  0  0  3  0  0  0  0  0  0
  184.5930  179.2010  144.1320 C   0  0  0  0  0  3  0  0  0  0  0  0
  185.5160  178.9240  143.2550 N   0  0  0  0  0  0  0  0  0  0  0  0
  185.5010  177.0060  146.7950 C   0  0  0  0  0  3  0  0  0  0  0  0
  186.3770  178.2450  145.1340 C   0  0  2  0  0  3  0  0  0  0  0  0
  184.4830  177.9760  146.3180 C   0  0  0  0  0  3  0  0  0  0  0  0
  185.0860  178.7360  145.4150 C   0  0  2  0  0  3  0  0  0  0  0  0
  191.3930  178.2310  143.0820 C   0  0  0  0  0  2  0  0  0  0  0  0
  189.9740  177.7760  143.3590 C   0  0  0  0  0  2  0  0  0  0  0  0
  190.9980  177.7900  144.4790 C   0  0  0  0  0  3  0  0  0  0  0  0
  192.5960  175.0680  142.7690 C   0  0  0  0  0  2  0  0  0  0  0  0
  190.8050  172.2590  140.0390 C   0  0  0  0  0  2  0  0  0  0  0  0
  193.4180  174.7890  140.1000 O   0  0  0  0  0  0  0  0  0  0  0  0
  191.9740  174.0260  141.8320 C   0  0  2  0  0  3  0  0  0  0  0  0
  192.5030  174.0490  140.4200 C   0  0  0  0  0  0  0  0  0  0  0  0
  189.7880  173.0940  140.8390 C   0  0  2  0  0  3  0  0  0  0  0  0
  190.4330  174.0550  141.8520 C   0  0  1  0  0  3  0  0  0  0  0  0
  189.7170  172.7880  142.3460 C   0  0  2  0  0  3  0  0  0  0  0  0
  191.8730  173.1420  139.3950 C   0  0  1  0  0  3  0  0  0  0  0  0
  192.1460  169.8390  142.0790 C   0  0  0  0  0  2  0  0  0  0  0  0
  190.7130  170.3720  142.0640 C   0  0  0  0  0  2  0  0  0  0  0  0
  192.3820  170.8920  144.2610 N   0  0  0  0  0  0  0  0  0  0  0  0
  191.3820  171.8570  143.8980 C   0  0  0  0  0  3  0  0  0  0  0  0
  190.5810  171.6540  142.8460 C   0  0  0  0  0  0  0  0  0  0  0  0
  193.7510  168.9960  143.8380 N   0  0  0  0  0  2  0  0  0  0  0  0
  192.7260  169.9220  143.4670 C   0  0  0  0  0  0  0  0  0  0  0  0
  196.0680  168.4660  144.9970 O   0  0  0  0  0  0  0  0  0  0  0  0
  194.7180  169.0630  145.2820 S   0  0  0  0  0  0  0  0  0  0  0  0
  194.8850  170.5020  145.6820 O   0  0  0  0  0  0  0  0  0  0  0  0
  193.9920  168.1660  146.6410 C   0  0  0  0  0  2  0  0  0  0  0  0
  194.6370  168.5520  147.8830 N   0  0  0  0  0  1  0  0  0  0  0  0
  192.8530  172.3120  138.7890 O   0  0  0  0  0  0  0  0  0  0  0  0
  193.0520  172.3440  137.4380 C   0  0  0  0  0  0  0  0  0  0  0  0
  193.2250  172.3670  136.2460 C   0  0  0  0  0  3  0  0  0  0  0  0
  2  3  1  0  0  0  0
  2  4  1  0  0  0  0
  3 28  1  6  0  0  0
  3  5  1  0  0  0  0
  4  6  1  0  0  0  0
  5 12  1  0  0  0  0
  5  1  1  1  0  0  0
  6  1  1  0  0  0  0
  7  4  2  0  0  0  0
  8 14  1  6  0  0  0
  8 13  1  0  0  0  0
  9  8  1  0  0  0  0
 10 13  1  0  0  0  0
 11 27  1  1  0  0  0
 11  9  1  0  0  0  0
 11 12  1  0  0  0  0
 12 10  1  1  0  0  0
 14 16  2  0  0  0  0
 15 14  1  0  0  0  0
 18 15  1  6  0  0  0
 18 21  1  0  0  0  0
 20 17  1  0  0  0  0
 20 19  2  0  0  0  0
 22 17  1  6  0  0  0
 22 24  1  0  0  0  0
 22 18  1  0  0  0  0
 23 21  2  0  0  0  0
 24 19  1  6  0  0  0
 24 23  1  0  0  0  0
 25 26  1  0  0  0  0
 25 27  1  0  0  0  0
 26 27  1  0  0  0  0
 30 32  2  0  0  0  0
 31 34  1  0  0  0  0
 31 28  1  1  0  0  0
 32 31  1  0  0  0  0
 33 29  1  6  0  0  0
 33 34  1  0  0  0  0
 33 35  1  0  0  0  0
 34 35  1  0  0  0  0
 35 41  1  0  0  0  0
 36 29  1  0  0  0  0
 36 32  1  0  0  0  0
 37 43  1  0  0  0  0
 38 37  1  0  0  0  0
 38 41  1  0  0  0  0
 40 39  1  0  0  0  0
 41 40  2  0  0  0  0
 42 45  1  0  0  0  0
 43 42  1  0  0  0  0
 43 39  2  0  0  0  0
 44 45  2  0  0  0  0
 45 46  2  0  0  0  0
 45 47  1  0  0  0  0
 47 48  1  0  0  0  0
 49 36  1  0  0  0  0
 50 49  1  0  0  0  0
 51 50  3  0  0  0  0
M  END
>  <MODEL>
1

>  <REMARK>
 VINA RESULT:      -8.2      0.000      0.000
  Name = 
  11 active torsions:
  status: ('A' for Active; 'I' for Inactive)
    1  A    between atoms: C_3  and  C_4
    2  A    between atoms: C_7  and  O_51
    3  A    between atoms: C_9  and  N_20
    4  A    between atoms: C_14  and  C_47
    5  A    between atoms: C_16  and  S_19
    6  A    between atoms: S_19  and  N_44
    7  A    between atoms: C_24  and  C_47
    8  A    between atoms: C_32  and  C_43
    9  A    between atoms: C_33  and  C_38
   10  A    between atoms: C_35  and  C_36
   11  A    between atoms: C_42  and  O_51
                            x       y       z     vdW  Elec       q    Type
                         _______ _______ _______ _____ _____    ______ ____

>  <TORSDO>
F 11

$$$$
=
 OpenBabel11062421213D

 51 58  0  0  1  0  0  0  0  0999 V2000
  194.1620  174.9760  145.7800 C   0  0  0  0  0  2  0  0  0  0  0  0
  195.2040  172.7970  144.2990 O   0  0  0  0  0  0  0  0  0  0  0  0
  193.9650  173.3550  143.8560 C   0  0  1  0  0  3  0  0  0  0  0  0
  195.8840  173.2230  145.4430 C   0  0  0  0  0  0  0  0  0  0  0  0
  193.8180  174.8180  144.2960 C   0  0  1  0  0  3  0  0  0  0  0  0
  195.6010  174.5610  146.0460 C   0  0  0  0  0  2  0  0  0  0  0  0
  196.8140  172.5140  145.9080 O   0  0  0  0  0  0  0  0  0  0  0  0
  190.6360  177.5840  144.5440 C   0  0  1  0  0  3  0  0  0  0  0  0
  191.1440  176.7300  145.5660 O   0  0  0  0  0  0  0  0  0  0  0  0
  192.5660  176.7120  143.2350 C   0  0  0  0  0  2  0  0  0  0  0  0
  191.4200  175.4130  145.1070 C   0  0  2  0  0  3  0  0  0  0  0  0
  192.4290  175.3680  143.9360 C   0  0  2  0  0  3  0  0  0  0  0  0
  191.1940  177.3440  143.1330 C   0  0  0  0  0  2  0  0  0  0  0  0
  189.1380  177.6920  144.5670 C   0  0  0  0  0  0  0  0  0  0  0  0
  188.4620  177.8370  145.8220 N   0  0  0  0  0  2  0  0  0  0  0  0
  188.4870  177.6260  143.4930 O   0  0  0  0  0  0  0  0  0  0  0  0
  185.9170  179.5100  144.7320 N   0  0  0  0  0  2  0  0  0  0  0  0
  187.0450  177.7430  146.0120 C   0  0  2  0  0  3  0  0  0  0  0  0
  183.8550  178.8250  145.2320 C   0  0  0  0  0  3  0  0  0  0  0  0
  184.5420  179.6140  144.4540 N   0  0  0  0  0  0  0  0  0  0  0  0
  186.4150  176.6390  146.4180 C   0  0  0  0  0  3  0  0  0  0  0  0
  186.0470  178.7640  145.7750 C   0  0  2  0  0  3  0  0  0  0  0  0
  184.9550  176.9040  146.4120 C   0  0  0  0  0  3  0  0  0  0  0  0
  184.8080  178.1890  146.1230 C   0  0  2  0  0  3  0  0  0  0  0  0
  190.2410  173.2480  145.4290 C   0  0  0  0  0  2  0  0  0  0  0  0
  189.4090  174.3310  146.0850 C   0  0  0  0  0  2  0  0  0  0  0  0
  190.1520  174.6240  144.7950 C   0  0  0  0  0  3  0  0  0  0  0  0
  193.8940  173.2710  142.3260 C   0  0  0  0  0  2  0  0  0  0  0  0
  190.6130  170.8830  140.8800 C   0  0  0  0  0  2  0  0  0  0  0  0
  191.8340  174.3060  140.7260 O   0  0  0  0  0  0  0  0  0  0  0  0
  192.7630  172.3870  141.7850 C   0  0  2  0  0  3  0  0  0  0  0  0
  191.7170  173.1190  140.9830 C   0  0  0  0  0  0  0  0  0  0  0  0
  190.9100  170.6990  142.3800 C   0  0  2  0  0  3  0  0  0  0  0  0
  192.1180  171.5120  142.8770 C   0  0  1  0  0  3  0  0  0  0  0  0
  192.2350  169.9890  142.7110 C   0  0  2  0  0  3  0  0  0  0  0  0
  190.5050  172.3610  140.5070 C   0  0  1  0  0  3  0  0  0  0  0  0
  192.8620  168.8500  139.1080 C   0  0  0  0  0  2  0  0  0  0  0  0
  192.4420  168.5200  140.5410 C   0  0  0  0  0  2  0  0  0  0  0  0
  194.9220  169.7390  140.0510 N   0  0  0  0  0  0  0  0  0  0  0  0
  194.2330  170.0250  141.2770 C   0  0  0  0  0  3  0  0  0  0  0  0
  193.0400  169.4790  141.5380 C   0  0  0  0  0  0  0  0  0  0  0  0
  195.0360  168.9170  137.8240 N   0  0  0  0  0  2  0  0  0  0  0  0
  194.3350  169.1570  139.0470 C   0  0  0  0  0  0  0  0  0  0  0  0
  197.5970  168.8180  138.4710 O   0  0  0  0  0  0  0  0  0  0  0  0
  196.6610  169.4170  137.4580 S   0  0  0  0  0  0  0  0  0  0  0  0
  197.0220  168.9130  136.0890 O   0  0  0  0  0  0  0  0  0  0  0  0
  196.8630  171.1880  137.4960 C   0  0  0  0  0  2  0  0  0  0  0  0
  197.7450  171.5570  138.5880 N   0  0  0  0  0  1  0  0  0  0  0  0
  190.3660  172.4710  139.0980 O   0  0  0  0  0  0  0  0  0  0  0  0
  189.3120  173.1480  138.5540 C   0  0  0  0  0  0  0  0  0  0  0  0
  188.3830  173.7410  138.0690 C   0  0  0  0  0  3  0  0  0  0  0  0
  1  6  1  0  0  0  0
  2  4  1  0  0  0  0
  3 28  1  6  0  0  0
  3  5  1  0  0  0  0
  3  2  1  0  0  0  0
  4  7  2  0  0  0  0
  4  6  1  0  0  0  0
  5  1  1  1  0  0  0
  8 14  1  6  0  0  0
  8  9  1  0  0  0  0
 11 27  1  6  0  0  0
 11  9  1  0  0  0  0
 12 10  1  1  0  0  0
 12  5  1  0  0  0  0
 12 11  1  0  0  0  0
 13 10  1  0  0  0  0
 13  8  1  0  0  0  0
 14 15  1  0  0  0  0
 16 14  2  0  0  0  0
 18 15  1  6  0  0  0
 18 21  1  0  0  0  0
 20 17  1  0  0  0  0
 20 19  2  0  0  0  0
 22 17  1  6  0  0  0
 22 18  1  0  0  0  0
 22 24  1  0  0  0  0
 23 21  2  0  0  0  0
 24 19  1  6  0  0  0
 24 23  1  0  0  0  0
 25 26  1  0  0  0  0
 27 25  1  0  0  0  0
 27 26  1  0  0  0  0
 30 32  2  0  0  0  0
 31 28  1  1  0  0  0
 31 34  1  0  0  0  0
 32 31  1  0  0  0  0
 33 29  1  6  0  0  0
 33 35  1  0  0  0  0
 33 34  1  0  0  0  0
 35 34  1  0  0  0  0
 36 29  1  0  0  0  0
 36 32  1  0  0  0  0
 37 38  1  0  0  0  0
 38 41  1  0  0  0  0
 39 40  1  0  0  0  0
 40 41  2  0  0  0  0
 41 35  1  0  0  0  0
 42 43  1  0  0  0  0
 43 37  1  0  0  0  0
 43 39  2  0  0  0  0
 45 47  1  0  0  0  0
 45 42  1  0  0  0  0
 45 44  2  0  0  0  0
 46 45  2  0  0  0  0
 47 48  1  0  0  0  0
 49 36  1  0  0  0  0
 50 49  1  0  0  0  0
 51 50  3  0  0  0  0
M  END
>  <MODEL>
2

>  <REMARK>
 VINA RESULT:      -8.2      2.771      4.007
  Name = 
  11 active torsions:
  status: ('A' for Active; 'I' for Inactive)
    1  A    between atoms: C_3  and  C_4
    2  A    between atoms: C_7  and  O_51
    3  A    between atoms: C_9  and  N_20
    4  A    between atoms: C_14  and  C_47
    5  A    between atoms: C_16  and  S_19
    6  A    between atoms: S_19  and  N_44
    7  A    between atoms: C_24  and  C_47
    8  A    between atoms: C_32  and  C_43
    9  A    between atoms: C_33  and  C_38
   10  A    between atoms: C_35  and  C_36
   11  A    between atoms: C_42  and  O_51
                            x       y       z     vdW  Elec       q    Type
                         _______ _______ _______ _____ _____    ______ ____

>  <TORSDO>
F 11

$$$$
=
 OpenBabel11062421213D

 51 58  0  0  1  0  0  0  0  0999 V2000
  191.3200  171.9260  140.4400 C   0  0  0  0  0  2  0  0  0  0  0  0
  193.7200  172.0320  141.9420 O   0  0  0  0  0  0  0  0  0  0  0  0
  192.6440  172.8710  142.3690 C   0  0  1  0  0  3  0  0  0  0  0  0
  193.6720  171.2230  140.8040 C   0  0  0  0  0  0  0  0  0  0  0  0
  191.2860  172.3160  141.9200 C   0  0  1  0  0  3  0  0  0  0  0  0
  192.3610  170.8450  140.1920 C   0  0  0  0  0  2  0  0  0  0  0  0
  194.7370  170.7270  140.3530 O   0  0  0  0  0  0  0  0  0  0  0  0
  189.5520  176.1420  142.3570 C   0  0  1  0  0  3  0  0  0  0  0  0
  190.6450  175.5800  143.0820 O   0  0  0  0  0  0  0  0  0  0  0  0
  189.7230  174.0530  141.0140 C   0  0  0  0  0  2  0  0  0  0  0  0
  190.4270  174.2270  143.4600 C   0  0  2  0  0  3  0  0  0  0  0  0
  190.1480  173.2910  142.2610 C   0  0  2  0  0  3  0  0  0  0  0  0
  188.7990  175.1780  141.4290 C   0  0  0  0  0  2  0  0  0  0  0  0
  188.6330  176.9500  143.2270 C   0  0  0  0  0  0  0  0  0  0  0  0
  187.2270  176.9610  142.9470 N   0  0  0  0  0  2  0  0  0  0  0  0
  189.1010  177.6330  144.1740 O   0  0  0  0  0  0  0  0  0  0  0  0
  185.4790  176.8680  145.6670 N   0  0  0  0  0  2  0  0  0  0  0  0
  186.2710  177.8390  143.5540 C   0  0  2  0  0  3  0  0  0  0  0  0
  184.2190  178.6200  146.2240 C   0  0  0  0  0  3  0  0  0  0  0  0
  184.7350  177.5110  146.6730 N   0  0  0  0  0  0  0  0  0  0  0  0
  186.1700  179.1400  143.2810 C   0  0  0  0  0  3  0  0  0  0  0  0
  185.2910  177.5180  144.5700 C   0  0  2  0  0  3  0  0  0  0  0  0
  185.1300  179.7250  144.1640 C   0  0  0  0  0  3  0  0  0  0  0  0
  184.5850  178.7120  144.8230 C   0  0  2  0  0  3  0  0  0  0  0  0
  189.8490  173.1070  145.6030 C   0  0  0  0  0  2  0  0  0  0  0  0
  189.9250  174.5970  145.8640 C   0  0  0  0  0  2  0  0  0  0  0  0
  189.3680  174.0860  144.5480 C   0  0  0  0  0  3  0  0  0  0  0  0
  192.6720  172.9860  143.8980 C   0  0  0  0  0  2  0  0  0  0  0  0
  196.3340  174.4030  145.6670 C   0  0  0  0  0  2  0  0  0  0  0  0
  194.6010  171.2740  145.0040 O   0  0  0  0  0  0  0  0  0  0  0  0
  193.9890  173.5140  144.4780 C   0  0  2  0  0  3  0  0  0  0  0  0
  194.8860  172.4580  145.0730 C   0  0  0  0  0  0  0  0  0  0  0  0
  195.0770  175.1590  146.1350 C   0  0  2  0  0  3  0  0  0  0  0  0
  193.7800  174.6850  145.4570 C   0  0  1  0  0  3  0  0  0  0  0  0
  194.3970  176.0380  145.0700 C   0  0  2  0  0  3  0  0  0  0  0  0
  196.1500  172.8890  145.7720 C   0  0  1  0  0  3  0  0  0  0  0  0
  197.3480  176.0590  142.6280 C   0  0  0  0  0  2  0  0  0  0  0  0
  196.4200  176.8140  143.5810 C   0  0  0  0  0  2  0  0  0  0  0  0
  195.3430  175.3010  141.4750 N   0  0  0  0  0  0  0  0  0  0  0  0
  194.5980  175.4310  142.6950 C   0  0  0  0  0  3  0  0  0  0  0  0
  195.0860  176.1270  143.7280 C   0  0  0  0  0  0  0  0  0  0  0  0
  197.3290  175.4510  140.1770 N   0  0  0  0  0  2  0  0  0  0  0  0
  196.6000  175.6250  141.3960 C   0  0  0  0  0  0  0  0  0  0  0  0
  196.5650  173.2520  138.9230 O   0  0  0  0  0  0  0  0  0  0  0  0
  196.7220  174.7330  138.7140 S   0  0  0  0  0  0  0  0  0  0  0  0
  195.3810  175.3350  138.4040 O   0  0  0  0  0  0  0  0  0  0  0  0
  197.8060  174.9830  137.3210 C   0  0  0  0  0  2  0  0  0  0  0  0
  197.1540  175.8310  136.3400 N   0  0  0  0  0  1  0  0  0  0  0  0
  197.2820  172.2470  145.2040 O   0  0  0  0  0  0  0  0  0  0  0  0
  197.5190  172.3170  143.8600 C   0  0  0  0  0  0  0  0  0  0  0  0
  197.7330  172.3760  142.6760 C   0  0  0  0  0  3  0  0  0  0  0  0
  2  3  1  0  0  0  0
  3 28  1  1  0  0  0
  4  2  1  0  0  0  0
  5  1  1  6  0  0  0
  5 12  1  0  0  0  0
  5  3  1  0  0  0  0
  6  1  1  0  0  0  0
  6  4  1  0  0  0  0
  7  4  2  0  0  0  0
  8  9  1  0  0  0  0
  8 14  1  1  0  0  0
  9 11  1  0  0  0  0
 10 13  1  0  0  0  0
 11 27  1  1  0  0  0
 12 10  1  6  0  0  0
 12 11  1  0  0  0  0
 13  8  1  0  0  0  0
 14 16  2  0  0  0  0
 15 14  1  0  0  0  0
 17 20  1  0  0  0  0
 18 15  1  1  0  0  0
 18 22  1  0  0  0  0
 19 20  2  0  0  0  0
 21 18  1  0  0  0  0
 21 23  2  0  0  0  0
 22 24  1  0  0  0  0
 22 17  1  1  0  0  0
 24 23  1  1  0  0  0
 24 19  1  0  0  0  0
 25 26  1  0  0  0  0
 27 25  1  0  0  0  0
 27 26  1  0  0  0  0
 29 36  1  0  0  0  0
 30 32  2  0  0  0  0
 31 28  1  1  0  0  0
 31 32  1  0  0  0  0
 31 34  1  0  0  0  0
 32 36  1  0  0  0  0
 33 29  1  6  0  0  0
 34 33  1  0  0  0  0
 35 34  1  0  0  0  0
 35 33  1  0  0  0  0
 37 38  1  0  0  0  0
 38 41  1  0  0  0  0
 39 40  1  0  0  0  0
 40 41  2  0  0  0  0
 41 35  1  0  0  0  0
 42 43  1  0  0  0  0
 43 39  2  0  0  0  0
 43 37  1  0  0  0  0
 45 44  2  0  0  0  0
 45 42  1  0  0  0  0
 46 45  2  0  0  0  0
 47 45  1  0  0  0  0
 48 47  1  0  0  0  0
 49 36  1  0  0  0  0
 50 49  1  0  0  0  0
 51 50  3  0  0  0  0
M  END
>  <MODEL>
3

>  <REMARK>
 VINA RESULT:      -8.0      3.135      6.153
  Name = 
  11 active torsions:
  status: ('A' for Active; 'I' for Inactive)
    1  A    between atoms: C_3  and  C_4
    2  A    between atoms: C_7  and  O_51
    3  A    between atoms: C_9  and  N_20
    4  A    between atoms: C_14  and  C_47
    5  A    between atoms: C_16  and  S_19
    6  A    between atoms: S_19  and  N_44
    7  A    between atoms: C_24  and  C_47
    8  A    between atoms: C_32  and  C_43
    9  A    between atoms: C_33  and  C_38
   10  A    between atoms: C_35  and  C_36
   11  A    between atoms: C_42  and  O_51
                            x       y       z     vdW  Elec       q    Type
                         _______ _______ _______ _____ _____    ______ ____

>  <TORSDO>
F 11

$$$$
=
 OpenBabel11062421213D

 51 58  0  0  1  0  0  0  0  0999 V2000
  194.6930  175.3190  146.0780 C   0  0  0  0  0  2  0  0  0  0  0  0
  194.2000  173.6900  143.8130 O   0  0  0  0  0  0  0  0  0  0  0  0
  193.0970  174.4340  144.3360 C   0  0  1  0  0  3  0  0  0  0  0  0
  195.4730  173.6750  144.3910 C   0  0  0  0  0  0  0  0  0  0  0  0
  193.5700  175.6770  145.1010 C   0  0  1  0  0  3  0  0  0  0  0  0
  195.8950  174.7560  145.3350 C   0  0  0  0  0  2  0  0  0  0  0  0
  196.3030  172.8000  144.0340 O   0  0  0  0  0  0  0  0  0  0  0  0
  189.6750  175.9120  146.7190 C   0  0  1  0  0  3  0  0  0  0  0  0
  190.0560  175.6540  145.3680 O   0  0  0  0  0  0  0  0  0  0  0  0
  192.1250  175.7900  147.1460 C   0  0  0  0  0  2  0  0  0  0  0  0
  191.1090  176.4960  144.9150 C   0  0  2  0  0  3  0  0  0  0  0  0
  192.3900  176.3950  145.7750 C   0  0  2  0  0  3  0  0  0  0  0  0
  190.8100  176.3310  147.6650 C   0  0  0  0  0  2  0  0  0  0  0  0
  188.4710  176.8030  146.8230 C   0  0  0  0  0  0  0  0  0  0  0  0
  187.2730  176.4530  146.1190 N   0  0  0  0  0  2  0  0  0  0  0  0
  188.5290  177.8600  147.5020 O   0  0  0  0  0  0  0  0  0  0  0  0
  185.8780  177.9200  143.5960 N   0  0  0  0  0  2  0  0  0  0  0  0
  186.1310  177.3030  145.9600 C   0  0  2  0  0  3  0  0  0  0  0  0
  183.9720  179.0380  143.8910 C   0  0  0  0  0  3  0  0  0  0  0  0
  184.7640  178.5280  142.9900 N   0  0  0  0  0  0  0  0  0  0  0  0
  185.1230  177.3730  146.8310 C   0  0  0  0  0  3  0  0  0  0  0  0
  185.8290  178.1890  144.8560 C   0  0  2  0  0  3  0  0  0  0  0  0
  184.0930  178.2910  146.2830 C   0  0  0  0  0  3  0  0  0  0  0  0
  184.6060  178.8110  145.1760 C   0  0  2  0  0  3  0  0  0  0  0  0
  191.1660  178.4610  143.3930 C   0  0  0  0  0  2  0  0  0  0  0  0
  189.7210  178.0310  143.5410 C   0  0  0  0  0  2  0  0  0  0  0  0
  190.6630  177.9420  144.7280 C   0  0  0  0  0  3  0  0  0  0  0  0
  192.1860  174.8610  143.1780 C   0  0  0  0  0  2  0  0  0  0  0  0
  189.4930  171.8050  141.7780 C   0  0  0  0  0  2  0  0  0  0  0  0
  189.6910  175.4290  142.0240 O   0  0  0  0  0  0  0  0  0  0  0  0
  191.2680  173.7550  142.6440 C   0  0  2  0  0  3  0  0  0  0  0  0
  189.9460  174.2380  142.1020 C   0  0  0  0  0  0  0  0  0  0  0  0
  190.0670  171.5410  143.1820 C   0  0  2  0  0  3  0  0  0  0  0  0
  191.0710  172.6070  143.6530 C   0  0  1  0  0  3  0  0  0  0  0  0
  191.5710  171.2160  143.2330 C   0  0  2  0  0  3  0  0  0  0  0  0
  188.9260  173.2200  141.6610 C   0  0  1  0  0  3  0  0  0  0  0  0
  192.0060  170.2820  139.5440 C   0  0  0  0  0  2  0  0  0  0  0  0
  192.1030  169.8990  141.0210 C   0  0  0  0  0  2  0  0  0  0  0  0
  193.4250  172.1870  140.0740 N   0  0  0  0  0  0  0  0  0  0  0  0
  192.9350  172.1710  141.4240 C   0  0  0  0  0  3  0  0  0  0  0  0
  192.2840  171.1070  141.9050 C   0  0  0  0  0  0  0  0  0  0  0  0
  193.5290  171.3660  137.8460 N   0  0  0  0  0  2  0  0  0  0  0  0
  193.0540  171.3050  139.1940 C   0  0  0  0  0  0  0  0  0  0  0  0
  195.7900  172.7280  138.0050 O   0  0  0  0  0  0  0  0  0  0  0  0
  194.5440  172.6080  137.1730 S   0  0  0  0  0  0  0  0  0  0  0  0
  194.9180  172.2150  135.7720 O   0  0  0  0  0  0  0  0  0  0  0  0
  193.7490  174.2030  137.1340 C   0  0  0  0  0  2  0  0  0  0  0  0
  194.4900  175.1400  137.9580 N   0  0  0  0  0  1  0  0  0  0  0  0
  188.5380  173.4500  140.3150 O   0  0  0  0  0  0  0  0  0  0  0  0
  189.4630  173.4300  139.3100 C   0  0  0  0  0  0  0  0  0  0  0  0
  190.2770  173.4160  138.4220 C   0  0  0  0  0  3  0  0  0  0  0  0
  2  3  1  0  0  0  0
  2  4  1  0  0  0  0
  3 28  1  6  0  0  0
  3  5  1  0  0  0  0
  4  6  1  0  0  0  0
  5 12  1  0  0  0  0
  5  1  1  1  0  0  0
  6  1  1  0  0  0  0
  7  4  2  0  0  0  0
  8 14  1  6  0  0  0
  8 13  1  0  0  0  0
  9  8  1  0  0  0  0
 10 13  1  0  0  0  0
 11 27  1  1  0  0  0
 11  9  1  0  0  0  0
 11 12  1  0  0  0  0
 12 10  1  1  0  0  0
 14 16  2  0  0  0  0
 15 14  1  0  0  0  0
 18 15  1  6  0  0  0
 18 21  1  0  0  0  0
 20 17  1  0  0  0  0
 20 19  2  0  0  0  0
 22 17  1  6  0  0  0
 22 24  1  0  0  0  0
 22 18  1  0  0  0  0
 23 21  2  0  0  0  0
 24 19  1  6  0  0  0
 24 23  1  0  0  0  0
 25 26  1  0  0  0  0
 25 27  1  0  0  0  0
 26 27  1  0  0  0  0
 30 32  2  0  0  0  0
 31 28  1  1  0  0  0
 31 34  1  0  0  0  0
 32 31  1  0  0  0  0
 33 29  1  6  0  0  0
 33 35  1  0  0  0  0
 33 34  1  0  0  0  0
 35 34  1  0  0  0  0
 36 29  1  0  0  0  0
 36 32  1  0  0  0  0
 37 38  1  0  0  0  0
 38 41  1  0  0  0  0
 39 40  1  0  0  0  0
 40 41  2  0  0  0  0
 41 35  1  0  0  0  0
 42 43  1  0  0  0  0
 43 37  1  0  0  0  0
 43 39  2  0  0  0  0
 45 42  1  0  0  0  0
 45 44  2  0  0  0  0
 46 45  2  0  0  0  0
 47 45  1  0  0  0  0
 47 48  1  0  0  0  0
 49 36  1  0  0  0  0
 50 49  1  0  0  0  0
 51 50  3  0  0  0  0
M  END
>  <MODEL>
4

>  <REMARK>
 VINA RESULT:      -7.9      2.509      3.839
  Name = 
  11 active torsions:
  status: ('A' for Active; 'I' for Inactive)
    1  A    between atoms: C_3  and  C_4
    2  A    between atoms: C_7  and  O_51
    3  A    between atoms: C_9  and  N_20
    4  A    between atoms: C_14  and  C_47
    5  A    between atoms: C_16  and  S_19
    6  A    between atoms: S_19  and  N_44
    7  A    between atoms: C_24  and  C_47
    8  A    between atoms: C_32  and  C_43
    9  A    between atoms: C_33  and  C_38
   10  A    between atoms: C_35  and  C_36
   11  A    between atoms: C_42  and  O_51
                            x       y       z     vdW  Elec       q    Type
                         _______ _______ _______ _____ _____    ______ ____

>  <TORSDO>
F 11

$$$$
=
 OpenBabel11062421213D

 51 58  0  0  1  0  0  0  0  0999 V2000
  187.6820  177.1630  147.5630 C   0  0  0  0  0  2  0  0  0  0  0  0
  185.8860  177.4780  145.3940 O   0  0  0  0  0  0  0  0  0  0  0  0
  187.1840  176.9570  145.0980 C   0  0  1  0  0  3  0  0  0  0  0  0
  185.4850  177.8920  146.6670 C   0  0  0  0  0  0  0  0  0  0  0  0
  187.8090  176.2750  146.3220 C   0  0  1  0  0  3  0  0  0  0  0  0
  186.2190  177.4300  147.8860 C   0  0  0  0  0  2  0  0  0  0  0  0
  184.4370  178.5760  146.7930 O   0  0  0  0  0  0  0  0  0  0  0  0
  191.9680  176.1680  147.0510 C   0  0  1  0  0  3  0  0  0  0  0  0
  191.1650  177.2890  146.6850 O   0  0  0  0  0  0  0  0  0  0  0  0
  189.7800  174.9880  147.1820 C   0  0  0  0  0  2  0  0  0  0  0  0
  190.2210  176.9900  145.6640 C   0  0  2  0  0  3  0  0  0  0  0  0
  189.2560  175.8410  146.0360 C   0  0  2  0  0  3  0  0  0  0  0  0
  191.2710  174.8000  147.0000 C   0  0  0  0  0  2  0  0  0  0  0  0
  193.3060  176.1660  146.3690 C   0  0  0  0  0  0  0  0  0  0  0  0
  193.7220  175.0050  145.6400 N   0  0  0  0  0  2  0  0  0  0  0  0
  194.0620  177.1670  146.4650 O   0  0  0  0  0  0  0  0  0  0  0  0
  195.5890  176.5270  143.4800 N   0  0  0  0  0  2  0  0  0  0  0  0
  195.0400  174.7840  145.1210 C   0  0  2  0  0  3  0  0  0  0  0  0
  197.6790  175.8270  143.1470 C   0  0  0  0  0  3  0  0  0  0  0  0
  196.8530  176.8120  142.9320 N   0  0  0  0  0  0  0  0  0  0  0  0
  195.9750  174.0590  145.7370 C   0  0  0  0  0  3  0  0  0  0  0  0
  195.6140  175.3090  143.9010 C   0  0  2  0  0  3  0  0  0  0  0  0
  197.2250  174.1330  144.9400 C   0  0  0  0  0  3  0  0  0  0  0  0
  196.9250  174.7940  143.8310 C   0  0  2  0  0  3  0  0  0  0  0  0
  190.3690  177.7900  143.3150 C   0  0  0  0  0  2  0  0  0  0  0  0
  191.7340  177.9650  143.9520 C   0  0  0  0  0  2  0  0  0  0  0  0
  190.8800  176.7610  144.3080 C   0  0  0  0  0  3  0  0  0  0  0  0
  187.0700  175.9470  143.9500 C   0  0  0  0  0  2  0  0  0  0  0  0
  186.6810  177.6980  140.0330 C   0  0  0  0  0  2  0  0  0  0  0  0
  187.9850  174.6910  141.6120 O   0  0  0  0  0  0  0  0  0  0  0  0
  186.8750  176.5710  142.5630 C   0  0  2  0  0  3  0  0  0  0  0  0
  187.4720  175.7820  141.4240 C   0  0  0  0  0  0  0  0  0  0  0  0
  187.2310  178.6620  141.1010 C   0  0  2  0  0  3  0  0  0  0  0  0
  187.3140  178.0470  142.5080 C   0  0  1  0  0  3  0  0  0  0  0  0
  186.2290  179.0870  142.1900 C   0  0  2  0  0  3  0  0  0  0  0  0
  187.4350  176.3680  140.0370 C   0  0  1  0  0  3  0  0  0  0  0  0
  182.5390  178.6430  143.1140 C   0  0  0  0  0  2  0  0  0  0  0  0
  183.9930  178.1870  143.2380 C   0  0  0  0  0  2  0  0  0  0  0  0
  182.8060  178.4240  140.7050 N   0  0  0  0  0  0  0  0  0  0  0  0
  184.2140  178.6700  140.8430 C   0  0  0  0  0  3  0  0  0  0  0  0
  184.8120  178.5850  142.0360 C   0  0  0  0  0  0  0  0  0  0  0  0
  180.6070  178.1510  141.5640 N   0  0  0  0  0  2  0  0  0  0  0  0
  182.0120  178.3600  141.7320 C   0  0  0  0  0  0  0  0  0  0  0  0
  180.6430  177.3700  139.0380 O   0  0  0  0  0  0  0  0  0  0  0  0
  179.7600  178.0500  140.0480 S   0  0  0  0  0  0  0  0  0  0  0  0
  178.5140  177.2350  140.2470 O   0  0  0  0  0  0  0  0  0  0  0  0
  179.3090  179.6490  139.4010 C   0  0  0  0  0  2  0  0  0  0  0  0
  179.6280  180.6780  140.3740 N   0  0  0  0  0  1  0  0  0  0  0  0
  186.8000  175.4770  139.1320 O   0  0  0  0  0  0  0  0  0  0  0  0
  186.7060  175.7840  137.8040 C   0  0  0  0  0  0  0  0  0  0  0  0
  186.6290  176.0550  136.6330 C   0  0  0  0  0  3  0  0  0  0  0  0
  1  6  1  0  0  0  0
  2  4  1  0  0  0  0
  3 28  1  6  0  0  0
  3  2  1  0  0  0  0
  3  5  1  0  0  0  0
  4  7  2  0  0  0  0
  4  6  1  0  0  0  0
  5  1  1  1  0  0  0
  8 14  1  6  0  0  0
  9  8  1  0  0  0  0
 11 27  1  6  0  0  0
 11 12  1  0  0  0  0
 11  9  1  0  0  0  0
 12  5  1  0  0  0  0
 12 10  1  1  0  0  0
 13  8  1  0  0  0  0
 13 10  1  0  0  0  0
 14 16  2  0  0  0  0
 15 14  1  0  0  0  0
 18 15  1  1  0  0  0
 18 21  1  0  0  0  0
 20 19  2  0  0  0  0
 20 17  1  0  0  0  0
 22 17  1  1  0  0  0
 22 18  1  0  0  0  0
 23 21  2  0  0  0  0
 24 19  1  1  0  0  0
 24 22  1  0  0  0  0
 24 23  1  0  0  0  0
 25 26  1  0  0  0  0
 25 27  1  0  0  0  0
 26 27  1  0  0  0  0
 29 36  1  0  0  0  0
 31 28  1  1  0  0  0
 32 30  2  0  0  0  0
 32 31  1  0  0  0  0
 33 29  1  6  0  0  0
 33 35  1  0  0  0  0
 33 34  1  0  0  0  0
 34 31  1  0  0  0  0
 35 34  1  0  0  0  0
 36 32  1  0  0  0  0
 37 38  1  0  0  0  0
 39 40  1  0  0  0  0
 39 43  2  0  0  0  0
 40 41  2  0  0  0  0
 41 35  1  0  0  0  0
 41 38  1  0  0  0  0
 42 43  1  0  0  0  0
 43 37  1  0  0  0  0
 44 45  2  0  0  0  0
 45 46  2  0  0  0  0
 45 42  1  0  0  0  0
 47 45  1  0  0  0  0
 47 48  1  0  0  0  0
 49 36  1  0  0  0  0
 50 49  1  0  0  0  0
 51 50  3  0  0  0  0
M  END
>  <MODEL>
5

>  <REMARK>
 VINA RESULT:      -7.8      4.966     10.148
  Name = 
  11 active torsions:
  status: ('A' for Active; 'I' for Inactive)
    1  A    between atoms: C_3  and  C_4
    2  A    between atoms: C_7  and  O_51
    3  A    between atoms: C_9  and  N_20
    4  A    between atoms: C_14  and  C_47
    5  A    between atoms: C_16  and  S_19
    6  A    between atoms: S_19  and  N_44
    7  A    between atoms: C_24  and  C_47
    8  A    between atoms: C_32  and  C_43
    9  A    between atoms: C_33  and  C_38
   10  A    between atoms: C_35  and  C_36
   11  A    between atoms: C_42  and  O_51
                            x       y       z     vdW  Elec       q    Type
                         _______ _______ _______ _____ _____    ______ ____

>  <TORSDO>
F 11

$$$$
=
 OpenBabel11062421213D

 51 58  0  0  1  0  0  0  0  0999 V2000
  194.2250  175.4430  145.5530 C   0  0  0  0  0  2  0  0  0  0  0  0
  194.8730  172.7890  144.8020 O   0  0  0  0  0  0  0  0  0  0  0  0
  193.6180  173.3080  144.3550 C   0  0  1  0  0  3  0  0  0  0  0  0
  195.7540  173.4910  145.6300 C   0  0  0  0  0  0  0  0  0  0  0  0
  193.6390  174.8390  144.2740 C   0  0  1  0  0  3  0  0  0  0  0  0
  195.6580  174.9770  145.7610 C   0  0  0  0  0  2  0  0  0  0  0  0
  196.6980  172.8750  146.1900 O   0  0  0  0  0  0  0  0  0  0  0  0
  190.5140  177.6750  144.4640 C   0  0  1  0  0  3  0  0  0  0  0  0
  191.0390  176.8680  145.5160 O   0  0  0  0  0  0  0  0  0  0  0  0
  192.3870  176.6960  143.1480 C   0  0  0  0  0  2  0  0  0  0  0  0
  191.2780  175.5230  145.1220 C   0  0  2  0  0  3  0  0  0  0  0  0
  192.2490  175.3950  143.9260 C   0  0  2  0  0  3  0  0  0  0  0  0
  191.0240  177.3470  143.0520 C   0  0  0  0  0  2  0  0  0  0  0  0
  189.0200  177.8110  144.5260 C   0  0  0  0  0  0  0  0  0  0  0  0
  188.3750  177.9190  145.8000 N   0  0  0  0  0  2  0  0  0  0  0  0
  188.3430  177.8020  143.4650 O   0  0  0  0  0  0  0  0  0  0  0  0
  185.8180  179.5150  144.6260 N   0  0  0  0  0  2  0  0  0  0  0  0
  186.9600  177.8460  146.0190 C   0  0  2  0  0  3  0  0  0  0  0  0
  183.7620  178.8800  145.2090 C   0  0  0  0  0  3  0  0  0  0  0  0
  184.4390  179.6040  144.3630 N   0  0  0  0  0  0  0  0  0  0  0  0
  186.3340  176.7790  146.5180 C   0  0  0  0  0  3  0  0  0  0  0  0
  185.9620  178.8500  145.7210 C   0  0  2  0  0  3  0  0  0  0  0  0
  184.8740  177.0490  146.5150 C   0  0  0  0  0  3  0  0  0  0  0  0
  184.7270  178.3090  146.1310 C   0  0  2  0  0  3  0  0  0  0  0  0
  190.1000  173.3730  145.5390 C   0  0  0  0  0  2  0  0  0  0  0  0
  189.3160  174.4730  146.2260 C   0  0  0  0  0  2  0  0  0  0  0  0
  189.9880  174.7420  144.8920 C   0  0  0  0  0  3  0  0  0  0  0  0
  193.2980  172.7250  142.9730 C   0  0  0  0  0  2  0  0  0  0  0  0
  196.4640  173.3320  140.1150 C   0  0  0  0  0  2  0  0  0  0  0  0
  195.2440  170.7840  142.4070 O   0  0  0  0  0  0  0  0  0  0  0  0
  194.3860  172.9500  141.9150 C   0  0  2  0  0  3  0  0  0  0  0  0
  195.3760  171.8210  141.7770 C   0  0  0  0  0  0  0  0  0  0  0  0
  196.2710  174.5030  141.0970 C   0  0  2  0  0  3  0  0  0  0  0  0
  195.1030  174.3040  142.0780 C   0  0  1  0  0  3  0  0  0  0  0  0
  194.9710  175.3070  140.9230 C   0  0  2  0  0  3  0  0  0  0  0  0
  196.5500  171.9940  140.8480 C   0  0  1  0  0  3  0  0  0  0  0  0
  194.1420  174.0190  137.4130 C   0  0  0  0  0  2  0  0  0  0  0  0
  194.5050  175.1800  138.3390 C   0  0  0  0  0  2  0  0  0  0  0  0
  192.2690  173.5790  138.9040 N   0  0  0  0  0  0  0  0  0  0  0  0
  193.0030  174.1640  139.9910 C   0  0  0  0  0  3  0  0  0  0  0  0
  194.0850  174.9160  139.7630 C   0  0  0  0  0  0  0  0  0  0  0  0
  192.0060  172.9150  136.6370 N   0  0  0  0  0  2  0  0  0  0  0  0
  192.7430  173.5360  137.6940 C   0  0  0  0  0  0  0  0  0  0  0  0
  189.4390  173.0530  137.2520 O   0  0  0  0  0  0  0  0  0  0  0  0
  190.4900  172.0780  136.8000 S   0  0  0  0  0  0  0  0  0  0  0  0
  190.1050  171.5180  135.4600 O   0  0  0  0  0  0  0  0  0  0  0  0
  190.5590  170.7480  137.9850 C   0  0  0  0  0  2  0  0  0  0  0  0
  189.6920  169.6660  137.5570 N   0  0  0  0  0  1  0  0  0  0  0  0
  196.5900  170.9460  139.8900 O   0  0  0  0  0  0  0  0  0  0  0  0
  195.5110  170.6920  139.0920 C   0  0  0  0  0  0  0  0  0  0  0  0
  194.5620  170.4630  138.3870 C   0  0  0  0  0  3  0  0  0  0  0  0
  1  6  1  0  0  0  0
  2  4  1  0  0  0  0
  3 28  1  6  0  0  0
  3  2  1  0  0  0  0
  4  6  1  0  0  0  0
  4  7  2  0  0  0  0
  5  3  1  0  0  0  0
  5  1  1  1  0  0  0
  8 14  1  6  0  0  0
  8  9  1  0  0  0  0
 11 27  1  6  0  0  0
 11  9  1  0  0  0  0
 12 10  1  1  0  0  0
 12  5  1  0  0  0  0
 12 11  1  0  0  0  0
 13 10  1  0  0  0  0
 13  8  1  0  0  0  0
 14 15  1  0  0  0  0
 16 14  2  0  0  0  0
 18 15  1  6  0  0  0
 18 21  1  0  0  0  0
 20 17  1  0  0  0  0
 20 19  2  0  0  0  0
 22 17  1  6  0  0  0
 22 18  1  0  0  0  0
 22 24  1  0  0  0  0
 23 21  2  0  0  0  0
 24 19  1  6  0  0  0
 24 23  1  0  0  0  0
 25 26  1  0  0  0  0
 27 25  1  0  0  0  0
 27 26  1  0  0  0  0
 29 36  1  0  0  0  0
 31 34  1  0  0  0  0
 31 28  1  1  0  0  0
 32 31  1  0  0  0  0
 32 30  2  0  0  0  0
 33 29  1  6  0  0  0
 33 34  1  0  0  0  0
 35 33  1  0  0  0  0
 35 34  1  0  0  0  0
 36 32  1  0  0  0  0
 37 43  1  0  0  0  0
 37 38  1  0  0  0  0
 38 41  1  0  0  0  0
 39 40  1  0  0  0  0
 41 40  2  0  0  0  0
 41 35  1  0  0  0  0
 42 45  1  0  0  0  0
 42 43  1  0  0  0  0
 43 39  2  0  0  0  0
 45 44  2  0  0  0  0
 45 47  1  0  0  0  0
 46 45  2  0  0  0  0
 48 47  1  0  0  0  0
 49 36  1  0  0  0  0
 50 49  1  0  0  0  0
 51 50  3  0  0  0  0
M  END
>  <MODEL>
6

>  <REMARK>
 VINA RESULT:      -7.7      3.268      5.049
  Name = 
  11 active torsions:
  status: ('A' for Active; 'I' for Inactive)
    1  A    between atoms: C_3  and  C_4
    2  A    between atoms: C_7  and  O_51
    3  A    between atoms: C_9  and  N_20
    4  A    between atoms: C_14  and  C_47
    5  A    between atoms: C_16  and  S_19
    6  A    between atoms: S_19  and  N_44
    7  A    between atoms: C_24  and  C_47
    8  A    between atoms: C_32  and  C_43
    9  A    between atoms: C_33  and  C_38
   10  A    between atoms: C_35  and  C_36
   11  A    between atoms: C_42  and  O_51
                            x       y       z     vdW  Elec       q    Type
                         _______ _______ _______ _____ _____    ______ ____

>  <TORSDO>
F 11

$$$$
=
 OpenBabel11062421213D

 51 58  0  0  1  0  0  0  0  0999 V2000
  191.4660  173.2060  140.3740 C   0  0  0  0  0  2  0  0  0  0  0  0
  193.5770  171.9200  141.7580 O   0  0  0  0  0  0  0  0  0  0  0  0
  193.0420  173.1100  142.3420 C   0  0  1  0  0  3  0  0  0  0  0  0
  193.1620  171.4020  140.5280 C   0  0  0  0  0  0  0  0  0  0  0  0
  191.5960  173.3550  141.8920 C   0  0  1  0  0  3  0  0  0  0  0  0
  191.8480  171.8000  139.9370 C   0  0  0  0  0  2  0  0  0  0  0  0
  193.8570  170.5170  139.9650 O   0  0  0  0  0  0  0  0  0  0  0  0
  190.3050  176.0430  144.8850 C   0  0  1  0  0  3  0  0  0  0  0  0
  189.6940  174.8220  144.4710 O   0  0  0  0  0  0  0  0  0  0  0  0
  192.1140  175.3500  143.3210 C   0  0  0  0  0  2  0  0  0  0  0  0
  189.6720  174.6590  143.0590 C   0  0  2  0  0  3  0  0  0  0  0  0
  191.0750  174.7050  142.4130 C   0  0  2  0  0  3  0  0  0  0  0  0
  191.4750  176.5320  144.0190 C   0  0  0  0  0  2  0  0  0  0  0  0
  189.3040  177.1240  145.1760 C   0  0  0  0  0  0  0  0  0  0  0  0
  188.1000  176.7980  145.8800 N   0  0  0  0  0  2  0  0  0  0  0  0
  189.5150  178.2980  144.7780 O   0  0  0  0  0  0  0  0  0  0  0  0
  185.7040  177.7860  143.9440 N   0  0  0  0  0  2  0  0  0  0  0  0
  186.9760  177.6710  146.0420 C   0  0  2  0  0  3  0  0  0  0  0  0
  184.0810  179.0710  144.7720 C   0  0  0  0  0  3  0  0  0  0  0  0
  184.4190  178.3270  143.7560 N   0  0  0  0  0  0  0  0  0  0  0  0
  186.4440  177.9960  147.2210 C   0  0  0  0  0  3  0  0  0  0  0  0
  186.1980  178.3200  145.0080 C   0  0  2  0  0  3  0  0  0  0  0  0
  185.2510  178.8450  146.9800 C   0  0  0  0  0  3  0  0  0  0  0  0
  185.2160  179.0800  145.6750 C   0  0  2  0  0  3  0  0  0  0  0  0
  188.1040  174.9430  141.1500 C   0  0  0  0  0  2  0  0  0  0  0  0
  187.2980  175.0340  142.4300 C   0  0  0  0  0  2  0  0  0  0  0  0
  188.7000  175.6140  142.3750 C   0  0  0  0  0  3  0  0  0  0  0  0
  193.0900  172.9860  143.8700 C   0  0  0  0  0  2  0  0  0  0  0  0
  196.9900  172.9780  145.6980 C   0  0  0  0  0  2  0  0  0  0  0  0
  194.2380  170.6970  145.0200 O   0  0  0  0  0  0  0  0  0  0  0  0
  194.5010  172.9990  144.4710 C   0  0  2  0  0  3  0  0  0  0  0  0
  194.9380  171.6950  145.0880 C   0  0  0  0  0  0  0  0  0  0  0  0
  196.0920  174.1490  146.1380 C   0  0  2  0  0  3  0  0  0  0  0  0
  194.7220  174.1770  145.4400 C   0  0  1  0  0  3  0  0  0  0  0  0
  195.7990  175.2030  145.0560 C   0  0  2  0  0  3  0  0  0  0  0  0
  196.2610  171.6390  145.8070 C   0  0  1  0  0  3  0  0  0  0  0  0
  197.9400  173.4200  142.4280 C   0  0  0  0  0  2  0  0  0  0  0  0
  197.8410  174.3500  143.6380 C   0  0  0  0  0  2  0  0  0  0  0  0
  196.3550  174.8990  141.3200 N   0  0  0  0  0  0  0  0  0  0  0  0
  195.8230  175.2790  142.5980 C   0  0  0  0  0  3  0  0  0  0  0  0
  196.4920  175.0170  143.7260 C   0  0  0  0  0  0  0  0  0  0  0  0
  197.8460  173.6900  139.9180 N   0  0  0  0  0  2  0  0  0  0  0  0
  197.3600  174.0810  141.2050 C   0  0  0  0  0  0  0  0  0  0  0  0
  197.2700  175.6290  138.2160 O   0  0  0  0  0  0  0  0  0  0  0  0
  197.1610  174.1390  138.3840 S   0  0  0  0  0  0  0  0  0  0  0  0
  197.9370  173.4570  137.2930 O   0  0  0  0  0  0  0  0  0  0  0  0
  195.4420  173.6890  138.2380 C   0  0  0  0  0  2  0  0  0  0  0  0
  194.6090  174.8550  138.4710 N   0  0  0  0  0  1  0  0  0  0  0  0
  197.0850  170.6200  145.2630 O   0  0  0  0  0  0  0  0  0  0  0  0
  197.3710  169.4960  145.9860 C   0  0  0  0  0  0  0  0  0  0  0  0
  197.6190  168.5070  146.6270 C   0  0  0  0  0  3  0  0  0  0  0  0
  2  3  1  0  0  0  0
  3 28  1  1  0  0  0
  4  2  1  0  0  0  0
  5  1  1  6  0  0  0
  5  3  1  0  0  0  0
  5 12  1  0  0  0  0
  6  1  1  0  0  0  0
  6  4  1  0  0  0  0
  7  4  2  0  0  0  0
  8 14  1  6  0  0  0
  9  8  1  0  0  0  0
 10 13  1  0  0  0  0
 11 27  1  6  0  0  0
 11  9  1  0  0  0  0
 12 11  1  0  0  0  0
 12 10  1  1  0  0  0
 13  8  1  0  0  0  0
 14 15  1  0  0  0  0
 16 14  2  0  0  0  0
 18 15  1  6  0  0  0
 18 21  1  0  0  0  0
 20 17  1  0  0  0  0
 20 19  2  0  0  0  0
 22 17  1  6  0  0  0
 22 24  1  0  0  0  0
 22 18  1  0  0  0  0
 23 21  2  0  0  0  0
 24 19  1  6  0  0  0
 24 23  1  0  0  0  0
 25 27  1  0  0  0  0
 25 26  1  0  0  0  0
 27 26  1  0  0  0  0
 29 36  1  0  0  0  0
 30 32  2  0  0  0  0
 31 28  1  1  0  0  0
 31 32  1  0  0  0  0
 31 34  1  0  0  0  0
 32 36  1  0  0  0  0
 33 29  1  6  0  0  0
 34 33  1  0  0  0  0
 35 34  1  0  0  0  0
 35 33  1  0  0  0  0
 37 38  1  0  0  0  0
 38 41  1  0  0  0  0
 39 40  1  0  0  0  0
 40 41  2  0  0  0  0
 41 35  1  0  0  0  0
 42 43  1  0  0  0  0
 43 39  2  0  0  0  0
 43 37  1  0  0  0  0
 44 45  2  0  0  0  0
 45 42  1  0  0  0  0
 46 45  2  0  0  0  0
 47 45  1  0  0  0  0
 47 48  1  0  0  0  0
 49 36  1  0  0  0  0
 49 50  1  0  0  0  0
 50 51  3  0  0  0  0
M  END
>  <MODEL>
7

>  <REMARK>
 VINA RESULT:      -7.7      2.949      5.974
  Name = 
  11 active torsions:
  status: ('A' for Active; 'I' for Inactive)
    1  A    between atoms: C_3  and  C_4
    2  A    between atoms: C_7  and  O_51
    3  A    between atoms: C_9  and  N_20
    4  A    between atoms: C_14  and  C_47
    5  A    between atoms: C_16  and  S_19
    6  A    between atoms: S_19  and  N_44
    7  A    between atoms: C_24  and  C_47
    8  A    between atoms: C_32  and  C_43
    9  A    between atoms: C_33  and  C_38
   10  A    between atoms: C_35  and  C_36
   11  A    between atoms: C_42  and  O_51
                            x       y       z     vdW  Elec       q    Type
                         _______ _______ _______ _____ _____    ______ ____

>  <TORSDO>
F 11

$$$$
=
 OpenBabel11062421213D

 51 58  0  0  1  0  0  0  0  0999 V2000
  192.9190  170.3800  142.8640 C   0  0  0  0  0  2  0  0  0  0  0  0
  195.0450  171.1240  144.5840 O   0  0  0  0  0  0  0  0  0  0  0  0
  194.0240  172.0970  144.3480 C   0  0  1  0  0  3  0  0  0  0  0  0
  195.0800  169.8690  143.9710 C   0  0  0  0  0  0  0  0  0  0  0  0
  192.6980  171.4350  143.9530 C   0  0  1  0  0  3  0  0  0  0  0  0
  193.8480  169.2820  143.3610 C   0  0  0  0  0  2  0  0  0  0  0  0
  196.1360  169.1860  144.0240 O   0  0  0  0  0  0  0  0  0  0  0  0
  188.8930  172.7150  142.6370 C   0  0  1  0  0  3  0  0  0  0  0  0
  189.8660  171.9580  141.9200 O   0  0  0  0  0  0  0  0  0  0  0  0
  190.4750  172.4360  144.5390 C   0  0  0  0  0  2  0  0  0  0  0  0
  191.1910  172.4470  142.0900 C   0  0  2  0  0  3  0  0  0  0  0  0
  191.6460  172.4880  143.5670 C   0  0  2  0  0  3  0  0  0  0  0  0
  189.3520  173.2880  143.9860 C   0  0  0  0  0  2  0  0  0  0  0  0
  188.2010  173.7330  141.7780 C   0  0  0  0  0  0  0  0  0  0  0  0
  188.1660  175.1020  142.1980 N   0  0  0  0  0  2  0  0  0  0  0  0
  187.6340  173.3760  140.7130 O   0  0  0  0  0  0  0  0  0  0  0  0
  185.5660  176.7920  143.1190 N   0  0  0  0  0  2  0  0  0  0  0  0
  187.3740  176.1320  141.5930 C   0  0  2  0  0  3  0  0  0  0  0  0
  184.8020  178.4320  141.8160 C   0  0  0  0  0  3  0  0  0  0  0  0
  184.7320  177.9200  143.0130 N   0  0  0  0  0  0  0  0  0  0  0  0
  187.7970  176.9170  140.6010 C   0  0  0  0  0  3  0  0  0  0  0  0
  186.0300  176.5400  141.9430 C   0  0  2  0  0  3  0  0  0  0  0  0
  186.7340  177.9090  140.3030 C   0  0  0  0  0  3  0  0  0  0  0  0
  185.6910  177.5770  141.0510 C   0  0  2  0  0  3  0  0  0  0  0  0
  192.5990  173.6680  140.4460 C   0  0  0  0  0  2  0  0  0  0  0  0
  191.1870  173.6150  139.8980 C   0  0  0  0  0  2  0  0  0  0  0  0
  191.4160  173.7820  141.3890 C   0  0  0  0  0  3  0  0  0  0  0  0
  193.8220  172.9320  145.6180 C   0  0  0  0  0  2  0  0  0  0  0  0
  193.4760  177.1660  144.9050 C   0  0  0  0  0  2  0  0  0  0  0  0
  194.4880  174.1330  143.1710 O   0  0  0  0  0  0  0  0  0  0  0  0
  193.6430  174.4350  145.3760 C   0  0  2  0  0  3  0  0  0  0  0  0
  194.0970  174.9160  144.0210 C   0  0  0  0  0  0  0  0  0  0  0  0
  194.1760  176.8070  146.2290 C   0  0  2  0  0  3  0  0  0  0  0  0
  194.2470  175.2950  146.5040 C   0  0  1  0  0  3  0  0  0  0  0  0
  193.2760  176.1760  147.3060 C   0  0  2  0  0  3  0  0  0  0  0  0
  194.0710  176.3940  143.7280 C   0  0  1  0  0  3  0  0  0  0  0  0
  189.6950  174.8530  147.6170 C   0  0  0  0  0  2  0  0  0  0  0  0
  191.0960  174.7350  147.0180 C   0  0  0  0  0  2  0  0  0  0  0  0
  189.6500  177.1250  146.7450 N   0  0  0  0  0  0  0  0  0  0  0  0
  191.0830  177.1800  146.8270 C   0  0  0  0  0  3  0  0  0  0  0  0
  191.8050  176.0640  146.9770 C   0  0  0  0  0  0  0  0  0  0  0  0
  187.5520  176.0400  147.0030 N   0  0  0  0  0  2  0  0  0  0  0  0
  188.9810  176.0550  147.0580 C   0  0  0  0  0  0  0  0  0  0  0  0
  187.1500  178.1850  145.5100 O   0  0  0  0  0  0  0  0  0  0  0  0
  186.5260  177.3930  146.6260 S   0  0  0  0  0  0  0  0  0  0  0  0
  185.1900  176.8730  146.1780 O   0  0  0  0  0  0  0  0  0  0  0  0
  186.2870  178.4860  148.0140 C   0  0  0  0  0  2  0  0  0  0  0  0
  187.5610  179.0540  148.4150 N   0  0  0  0  0  1  0  0  0  0  0  0
  193.3010  176.6620  142.5660 O   0  0  0  0  0  0  0  0  0  0  0  0
  191.9980  177.0580  142.6700 C   0  0  0  0  0  0  0  0  0  0  0  0
  190.8500  177.4120  142.7640 C   0  0  0  0  0  3  0  0  0  0  0  0
  1  6  1  0  0  0  0
  3  2  1  0  0  0  0
  3 28  1  1  0  0  0
  4  7  2  0  0  0  0
  4  2  1  0  0  0  0
  5  1  1  6  0  0  0
  5  3  1  0  0  0  0
  6  4  1  0  0  0  0
  8 14  1  6  0  0  0
  8 13  1  0  0  0  0
  9 11  1  0  0  0  0
  9  8  1  0  0  0  0
 11 27  1  1  0  0  0
 11 12  1  0  0  0  0
 12  5  1  0  0  0  0
 12 10  1  1  0  0  0
 13 10  1  0  0  0  0
 14 15  1  0  0  0  0
 16 14  2  0  0  0  0
 18 22  1  0  0  0  0
 18 15  1  1  0  0  0
 19 20  2  0  0  0  0
 20 17  1  0  0  0  0
 21 18  1  0  0  0  0
 22 17  1  1  0  0  0
 23 21  2  0  0  0  0
 24 23  1  1  0  0  0
 24 19  1  0  0  0  0
 24 22  1  0  0  0  0
 25 27  1  0  0  0  0
 26 25  1  0  0  0  0
 26 27  1  0  0  0  0
 30 32  2  0  0  0  0
 31 28  1  1  0  0  0
 31 34  1  0  0  0  0
 32 31  1  0  0  0  0
 33 29  1  6  0  0  0
 33 34  1  0  0  0  0
 33 35  1  0  0  0  0
 34 35  1  0  0  0  0
 36 32  1  0  0  0  0
 36 29  1  0  0  0  0
 38 37  1  0  0  0  0
 39 40  1  0  0  0  0
 39 43  2  0  0  0  0
 40 41  2  0  0  0  0
 41 38  1  0  0  0  0
 41 35  1  0  0  0  0
 42 43  1  0  0  0  0
 43 37  1  0  0  0  0
 44 45  2  0  0  0  0
 45 42  1  0  0  0  0
 45 47  1  0  0  0  0
 46 45  2  0  0  0  0
 47 48  1  0  0  0  0
 49 50  1  0  0  0  0
 49 36  1  0  0  0  0
 50 51  3  0  0  0  0
M  END
>  <MODEL>
8

>  <REMARK>
 VINA RESULT:      -7.6      3.274      6.653
  Name = 
  11 active torsions:
  status: ('A' for Active; 'I' for Inactive)
    1  A    between atoms: C_3  and  C_4
    2  A    between atoms: C_7  and  O_51
    3  A    between atoms: C_9  and  N_20
    4  A    between atoms: C_14  and  C_47
    5  A    between atoms: C_16  and  S_19
    6  A    between atoms: S_19  and  N_44
    7  A    between atoms: C_24  and  C_47
    8  A    between atoms: C_32  and  C_43
    9  A    between atoms: C_33  and  C_38
   10  A    between atoms: C_35  and  C_36
   11  A    between atoms: C_42  and  O_51
                            x       y       z     vdW  Elec       q    Type
                         _______ _______ _______ _____ _____    ______ ____

>  <TORSDO>
F 11

$$$$
=
 OpenBabel11062421213D

 51 58  0  0  1  0  0  0  0  0999 V2000
  193.4240  176.1920  142.4560 C   0  0  0  0  0  2  0  0  0  0  0  0
  194.9290  175.1700  144.6290 O   0  0  0  0  0  0  0  0  0  0  0  0
  193.5070  175.0490  144.7050 C   0  0  1  0  0  3  0  0  0  0  0  0
  195.6010  175.8130  143.5860 C   0  0  0  0  0  0  0  0  0  0  0  0
  192.8680  175.0480  143.3100 C   0  0  1  0  0  3  0  0  0  0  0  0
  194.9270  176.0430  142.2710 C   0  0  0  0  0  2  0  0  0  0  0  0
  196.8160  176.1090  143.7230 O   0  0  0  0  0  0  0  0  0  0  0  0
  188.9930  176.3350  142.2290 C   0  0  1  0  0  3  0  0  0  0  0  0
  190.0390  177.0950  142.8300 O   0  0  0  0  0  0  0  0  0  0  0  0
  190.7290  174.5560  142.0980 C   0  0  0  0  0  2  0  0  0  0  0  0
  190.7140  176.3940  143.8670 C   0  0  2  0  0  3  0  0  0  0  0  0
  191.3340  175.0560  143.4030 C   0  0  2  0  0  3  0  0  0  0  0  0
  189.2390  174.8230  142.1240 C   0  0  0  0  0  2  0  0  0  0  0  0
  187.6390  176.6670  142.7880 C   0  0  0  0  0  0  0  0  0  0  0  0
  187.4410  177.9170  143.4590 N   0  0  0  0  0  2  0  0  0  0  0  0
  186.6980  175.8380  142.6890 O   0  0  0  0  0  0  0  0  0  0  0  0
  186.6380  177.7610  146.5880 N   0  0  0  0  0  2  0  0  0  0  0  0
  186.2770  178.2750  144.2130 C   0  0  2  0  0  3  0  0  0  0  0  0
  184.6960  178.6190  147.2690 C   0  0  0  0  0  3  0  0  0  0  0  0
  185.8530  178.1790  147.6780 N   0  0  0  0  0  0  0  0  0  0  0  0
  185.3550  179.1450  143.8010 C   0  0  0  0  0  3  0  0  0  0  0  0
  185.8990  177.8170  145.5330 C   0  0  2  0  0  3  0  0  0  0  0  0
  184.3550  179.3170  144.8840 C   0  0  0  0  0  3  0  0  0  0  0  0
  184.6710  178.4430  145.8290 C   0  0  2  0  0  3  0  0  0  0  0  0
  190.7120  176.3640  146.3530 C   0  0  0  0  0  2  0  0  0  0  0  0
  189.8340  177.5140  145.9020 C   0  0  0  0  0  2  0  0  0  0  0  0
  189.8500  176.2180  145.1120 C   0  0  0  0  0  3  0  0  0  0  0  0
  193.1520  173.7460  145.4320 C   0  0  0  0  0  2  0  0  0  0  0  0
  194.4810  170.0770  143.6080 C   0  0  0  0  0  2  0  0  0  0  0  0
  191.3880  171.8010  144.4390 O   0  0  0  0  0  0  0  0  0  0  0  0
  193.6530  172.4700  144.7430 C   0  0  2  0  0  3  0  0  0  0  0  0
  192.5670  171.5150  144.3150 C   0  0  0  0  0  0  0  0  0  0  0  0
  195.1840  170.4080  144.9380 C   0  0  2  0  0  3  0  0  0  0  0  0
  194.7450  171.7470  145.5550 C   0  0  1  0  0  3  0  0  0  0  0  0
  196.1300  171.6210  144.9040 C   0  0  2  0  0  3  0  0  0  0  0  0
  192.9620  170.1810  143.7350 C   0  0  1  0  0  3  0  0  0  0  0  0
  197.9170  172.4360  141.6160 C   0  0  0  0  0  2  0  0  0  0  0  0
  197.6970  172.7200  143.1020 C   0  0  0  0  0  2  0  0  0  0  0  0
  195.5180  172.7300  141.3330 N   0  0  0  0  0  0  0  0  0  0  0  0
  195.3110  172.3220  142.6940 C   0  0  0  0  0  3  0  0  0  0  0  0
  196.3290  172.2850  143.5610 C   0  0  0  0  0  0  0  0  0  0  0  0
  196.8810  173.2120  139.4470 N   0  0  0  0  0  2  0  0  0  0  0  0
  196.7060  172.8390  140.8160 C   0  0  0  0  0  0  0  0  0  0  0  0
  196.2290  173.7600  136.9440 O   0  0  0  0  0  0  0  0  0  0  0  0
  195.6130  173.4740  138.2860 S   0  0  0  0  0  0  0  0  0  0  0  0
  194.7800  172.2280  138.1950 O   0  0  0  0  0  0  0  0  0  0  0  0
  194.5590  174.8470  138.7140 C   0  0  0  0  0  2  0  0  0  0  0  0
  193.8410  175.2990  137.5360 N   0  0  0  0  0  1  0  0  0  0  0  0
  192.3790  169.9990  142.4530 O   0  0  0  0  0  0  0  0  0  0  0  0
  192.3540  171.0230  141.5490 C   0  0  0  0  0  0  0  0  0  0  0  0
  192.3280  171.9230  140.7490 C   0  0  0  0  0  3  0  0  0  0  0  0
  2  3  1  0  0  0  0
  3 28  1  6  0  0  0
  4  7  2  0  0  0  0
  4  2  1  0  0  0  0
  5  1  1  6  0  0  0
  5 12  1  0  0  0  0
  5  3  1  0  0  0  0
  6  1  1  0  0  0  0
  6  4  1  0  0  0  0
  8 14  1  1  0  0  0
  8  9  1  0  0  0  0
  9 11  1  0  0  0  0
 10 13  1  0  0  0  0
 11 27  1  1  0  0  0
 12 10  1  6  0  0  0
 12 11  1  0  0  0  0
 13  8  1  0  0  0  0
 14 15  1  0  0  0  0
 16 14  2  0  0  0  0
 17 20  1  0  0  0  0
 18 15  1  1  0  0  0
 18 22  1  0  0  0  0
 19 20  2  0  0  0  0
 21 18  1  0  0  0  0
 21 23  2  0  0  0  0
 22 24  1  0  0  0  0
 22 17  1  1  0  0  0
 24 23  1  6  0  0  0
 24 19  1  0  0  0  0
 26 25  1  0  0  0  0
 27 26  1  0  0  0  0
 27 25  1  0  0  0  0
 29 36  1  0  0  0  0
 31 28  1  1  0  0  0
 31 34  1  0  0  0  0
 32 30  2  0  0  0  0
 32 31  1  0  0  0  0
 33 29  1  6  0  0  0
 33 34  1  0  0  0  0
 35 33  1  0  0  0  0
 35 34  1  0  0  0  0
 36 32  1  0  0  0  0
 37 38  1  0  0  0  0
 38 41  1  0  0  0  0
 39 40  1  0  0  0  0
 40 41  2  0  0  0  0
 41 35  1  0  0  0  0
 42 43  1  0  0  0  0
 43 39  2  0  0  0  0
 43 37  1  0  0  0  0
 44 45  2  0  0  0  0
 45 47  1  0  0  0  0
 45 42  1  0  0  0  0
 46 45  2  0  0  0  0
 48 47  1  0  0  0  0
 49 36  1  0  0  0  0
 50 49  1  0  0  0  0
 51 50  3  0  0  0  0
M  END
>  <MODEL>
9

>  <REMARK>
 VINA RESULT:      -7.6      2.922      5.179
  Name = 
  11 active torsions:
  status: ('A' for Active; 'I' for Inactive)
    1  A    between atoms: C_3  and  C_4
    2  A    between atoms: C_7  and  O_51
    3  A    between atoms: C_9  and  N_20
    4  A    between atoms: C_14  and  C_47
    5  A    between atoms: C_16  and  S_19
    6  A    between atoms: S_19  and  N_44
    7  A    between atoms: C_24  and  C_47
    8  A    between atoms: C_32  and  C_43
    9  A    between atoms: C_33  and  C_38
   10  A    between atoms: C_35  and  C_36
   11  A    between atoms: C_42  and  O_51
                            x       y       z     vdW  Elec       q    Type
                         _______ _______ _______ _____ _____    ______ ____

>  <TORSDO>
F 11

$$$$
