=
 OpenBabel11062422233D

 41 47  0  0  1  0  0  0  0  0999 V2000
  186.1040  176.6750  145.5040 N   0  0  0  0  0  2  0  0  0  0  0  0
  189.7480  175.0040  141.8490 C   0  0  1  0  0  0  0  0  0  0  0  0
  188.4640  175.6630  141.3020 C   0  0  0  0  0  2  0  0  0  0  0  0
  189.1670  171.6360  142.1840 C   0  0  0  0  0  2  0  0  0  0  0  0
  194.0460  175.3850  145.6170 C   0  0  0  0  0  2  0  0  0  0  0  0
  190.6680  176.1130  142.3840 C   0  0  0  0  0  2  0  0  0  0  0  0
  190.0870  174.0430  145.3580 C   0  0  0  0  0  1  0  0  0  0  0  0
  193.0210  175.3890  146.7600 C   0  0  0  0  0  2  0  0  0  0  0  0
  190.6040  172.1660  144.0430 O   0  0  0  0  0  0  0  0  0  0  0  0
  189.5860  177.7460  144.6640 N   0  0  0  0  0  0  0  0  0  0  0  0
  191.4050  176.7670  145.4250 C   0  0  1  0  0  3  0  0  0  0  0  0
  190.4890  173.5800  143.9730 C   0  0  2  0  0  0  0  0  0  0  0  0
  186.8780  176.5290  146.6650 N   0  0  0  0  0  0  0  0  0  0  0  0
  188.2290  176.8920  146.4850 C   0  0  0  0  0  2  0  0  0  0  0  0
  187.0620  177.1750  144.5080 C   0  0  1  0  0  3  0  0  0  0  0  0
  188.4110  172.8970  142.6100 C   0  0  0  0  0  2  0  0  0  0  0  0
  191.8950  175.6360  143.1650 C   0  0  2  0  0  3  0  0  0  0  0  0
  192.1370  176.6330  146.7600 C   0  0  0  0  0  2  0  0  0  0  0  0
  186.3870  176.6660  142.0950 N   0  0  2  0  0  0  0  0  0  0  0  0
  186.3430  176.0040  147.9050 C   0  0  0  0  0  1  0  0  0  0  0  0
  188.3690  177.2570  145.2330 C   0  0  0  0  0  0  0  0  0  0  0  0
  191.8710  174.1720  143.6390 C   0  0  0  0  0  2  0  0  0  0  0  0
  189.3580  174.0420  143.0030 C   0  0  2  0  0  3  0  0  0  0  0  0
  190.5900  171.6250  142.7430 C   0  0  1  0  0  3  0  0  0  0  0  0
  193.8280  176.4960  144.5830 C   0  0  0  0  0  2  0  0  0  0  0  0
  190.6980  177.9740  145.4100 O   0  0  0  0  0  0  0  0  0  0  0  0
  187.1100  176.2070  143.3190 C   0  0  1  0  0  3  0  0  0  0  0  0
  192.3500  176.6670  144.2070 C   0  0  2  0  0  3  0  0  0  0  0  0
  187.8590  176.7570  142.1830 C   0  0  1  0  0  3  0  0  0  0  0  0
  184.3420  177.9020  142.7430 C   0  0  0  0  0  2  0  0  0  0  0  0
  185.4680  178.3940  140.6570 C   0  0  0  0  0  2  0  0  0  0  0  0
  186.5100  179.1550  142.7440 C   0  0  0  0  0  1  0  0  0  0  0  0
  185.7250  178.0030  142.1010 C   0  0  0  0  0  0  0  0  0  0  0  0
  183.3120  178.1300  141.6550 C   0  0  0  0  0  2  0  0  0  0  0  0
  184.0510  177.9680  140.3500 C   0  0  0  0  0  2  0  0  0  0  0  0
  190.5940  169.2650  141.9150 O   0  0  0  0  0  0  0  0  0  0  0  0
  191.1320  170.2370  142.7520 C   0  0  0  0  0  0  0  0  0  0  0  0
  192.1130  169.9560  143.4890 O   0  0  0  0  0  1  0  0  0  0  0  0
  189.6790  173.7940  139.6220 O   0  0  0  0  0  0  0  0  0  0  0  0
  191.6680  174.0960  140.7010 O   0  0  0  0  0  1  0  0  0  0  0  0
  190.4180  174.2670  140.7020 C   0  0  0  0  0  0  0  0  0  0  0  0
  1 13  1  0  0  0  0
  2 41  1  6  0  0  0
  2  6  1  0  0  0  0
  2 23  1  0  0  0  0
  3  2  1  0  0  0  0
  3 29  1  0  0  0  0
  4 16  1  0  0  0  0
  4 24  1  0  0  0  0
  5  8  1  0  0  0  0
  8 18  1  0  0  0  0
 10 21  2  0  0  0  0
 10 26  1  0  0  0  0
 11 18  1  1  0  0  0
 12  9  1  0  0  0  0
 12  7  1  1  0  0  0
 13 20  1  0  0  0  0
 14 13  1  0  0  0  0
 15 21  1  1  0  0  0
 15  1  1  0  0  0  0
 17  6  1  1  0  0  0
 17 22  1  0  0  0  0
 17 28  1  0  0  0  0
 19 33  1  1  0  0  0
 19 29  1  0  0  0  0
 19 27  1  0  0  0  0
 21 14  1  0  0  0  0
 22 12  1  0  0  0  0
 23 16  1  6  0  0  0
 23 12  1  0  0  0  0
 24 37  1  1  0  0  0
 24  9  1  0  0  0  0
 25  5  1  0  0  0  0
 26 11  1  0  0  0  0
 27 15  1  0  0  0  0
 28 25  1  0  0  0  0
 28 11  1  0  0  0  0
 29 27  1  0  0  0  0
 31 33  1  0  0  0  0
 33 30  1  0  0  0  0
 33 32  1  0  0  0  0
 34 30  1  0  0  0  0
 35 31  1  0  0  0  0
 35 34  1  0  0  0  0
 36 37  2  0  0  0  0
 37 38  1  0  0  0  0
 39 41  2  0  0  0  0
 40 41  1  0  0  0  0
M  END
>  <MODEL>
1

>  <REMARK>
 VINA RESULT:      -8.4      0.000      0.000
  Name = 
  3 active torsions:
  status: ('A' for Active; 'I' for Inactive)
    1  A    between atoms: C_3  and  C_36
    2  A    between atoms: C_17  and  C_35
    3  A    between atoms: C_23  and  N_28
                            x       y       z     vdW  Elec       q    Type
                         _______ _______ _______ _____ _____    ______ ____

>  <TORSDO>
F 3

$$$$
=
 OpenBabel11062422233D

 41 47  0  0  1  0  0  0  0  0999 V2000
  187.2460  177.5560  142.3660 N   0  0  0  0  0  2  0  0  0  0  0  0
  191.0440  175.0400  145.3120 C   0  0  1  0  0  0  0  0  0  0  0  0
  190.0170  175.8950  146.0840 C   0  0  0  0  0  2  0  0  0  0  0  0
  193.6750  177.0600  144.4230 C   0  0  0  0  0  2  0  0  0  0  0  0
  191.8200  171.0210  141.3030 C   0  0  0  0  0  2  0  0  0  0  0  0
  190.3640  173.7220  144.9060 C   0  0  0  0  0  2  0  0  0  0  0  0
  191.3220  175.1630  141.6710 C   0  0  0  0  0  1  0  0  0  0  0  0
  191.1370  171.9370  140.2780 C   0  0  0  0  0  2  0  0  0  0  0  0
  193.4600  175.5370  142.5700 O   0  0  0  0  0  0  0  0  0  0  0  0
  187.9980  173.9630  143.0690 N   0  0  0  0  0  2  0  0  0  0  0  0
  189.4950  172.7700  141.9820 C   0  0  1  0  0  3  0  0  0  0  0  0
  192.1840  175.0100  142.9060 C   0  0  2  0  0  0  0  0  0  0  0  0
  187.4760  176.9280  141.1330 N   0  0  0  0  0  0  0  0  0  0  0  0
  187.7850  175.5570  141.2530 C   0  0  0  0  0  3  0  0  0  0  0  0
  187.4290  176.4760  143.3460 C   0  0  1  0  0  3  0  0  0  0  0  0
  192.1530  177.1750  144.3040 C   0  0  0  0  0  2  0  0  0  0  0  0
  191.1590  172.8350  143.9440 C   0  0  2  0  0  3  0  0  0  0  0  0
  189.6610  172.1740  140.5830 C   0  0  0  0  0  2  0  0  0  0  0  0
  188.0700  177.3080  145.6770 N   0  0  2  0  0  0  0  0  0  0  0  0
  187.4520  177.6410  139.8720 C   0  0  0  0  0  1  0  0  0  0  0  0
  187.7790  175.2700  142.5330 C   0  0  0  0  0  0  0  0  0  0  0  0
  192.3350  173.5090  143.2160 C   0  0  0  0  0  2  0  0  0  0  0  0
  191.4820  175.8170  144.0420 C   0  0  2  0  0  3  0  0  0  0  0  0
  194.1910  175.7910  143.7460 C   0  0  1  0  0  3  0  0  0  0  0  0
  190.9610  170.7210  142.5380 C   0  0  0  0  0  2  0  0  0  0  0  0
  188.1310  172.8650  142.2800 O   0  0  0  0  0  0  0  0  0  0  0  0
  188.5400  176.8650  144.3290 C   0  0  1  0  0  3  0  0  0  0  0  0
  190.2420  171.9690  143.0700 C   0  0  2  0  0  3  0  0  0  0  0  0
  188.6150  175.9500  145.4750 C   0  0  1  0  0  3  0  0  0  0  0  0
  186.0010  178.6670  145.6410 C   0  0  0  0  0  2  0  0  0  0  0  0
  186.4460  177.1510  147.4750 C   0  0  0  0  0  2  0  0  0  0  0  0
  185.7770  176.1940  145.3170 C   0  0  0  0  0  1  0  0  0  0  0  0
  186.6080  177.3050  145.9740 C   0  0  0  0  0  0  0  0  0  0  0  0
  185.5940  179.3210  146.9470 C   0  0  0  0  0  2  0  0  0  0  0  0
  186.3050  178.5490  148.0300 C   0  0  0  0  0  2  0  0  0  0  0  0
  196.0610  176.6380  142.3160 O   0  0  0  0  0  0  0  0  0  0  0  0
  195.6420  175.9240  143.4350 C   0  0  0  0  0  0  0  0  0  0  0  0
  196.4950  175.4280  144.2160 O   0  0  0  0  0  1  0  0  0  0  0  0
  193.0930  173.7140  145.9990 O   0  0  0  0  0  0  0  0  0  0  0  0
  192.4250  175.5150  147.2350 O   0  0  0  0  0  1  0  0  0  0  0  0
  192.2150  174.7680  146.2400 C   0  0  0  0  0  0  0  0  0  0  0  0
  2  3  1  0  0  0  0
  2 41  1  1  0  0  0
  5 25  1  0  0  0  0
  6  2  1  0  0  0  0
  8 18  1  0  0  0  0
  8  5  1  0  0  0  0
  9 12  1  0  0  0  0
  9 24  1  0  0  0  0
 11 18  1  6  0  0  0
 11 26  1  0  0  0  0
 11 28  1  0  0  0  0
 12  7  1  6  0  0  0
 12 22  1  0  0  0  0
 12 23  1  0  0  0  0
 13 14  1  0  0  0  0
 13  1  1  0  0  0  0
 14 21  2  0  0  0  0
 15  1  1  6  0  0  0
 15 27  1  0  0  0  0
 16  4  1  0  0  0  0
 17 22  1  6  0  0  0
 17  6  1  0  0  0  0
 19 33  1  6  0  0  0
 20 13  1  0  0  0  0
 21 10  1  0  0  0  0
 21 15  1  0  0  0  0
 23 16  1  1  0  0  0
 23  2  1  0  0  0  0
 24 37  1  6  0  0  0
 24  4  1  0  0  0  0
 25 28  1  0  0  0  0
 26 10  1  0  0  0  0
 27 29  1  0  0  0  0
 27 19  1  0  0  0  0
 28 17  1  0  0  0  0
 29 19  1  0  0  0  0
 29  3  1  0  0  0  0
 30 33  1  0  0  0  0
 30 34  1  0  0  0  0
 31 35  1  0  0  0  0
 32 33  1  0  0  0  0
 33 31  1  0  0  0  0
 34 35  1  0  0  0  0
 36 37  2  0  0  0  0
 37 38  1  0  0  0  0
 39 41  2  0  0  0  0
 41 40  1  0  0  0  0
M  END
>  <MODEL>
2

>  <REMARK>
 VINA RESULT:      -8.0      2.216      5.551
  Name = 
  3 active torsions:
  status: ('A' for Active; 'I' for Inactive)
    1  A    between atoms: C_3  and  C_36
    2  A    between atoms: C_17  and  C_35
    3  A    between atoms: C_23  and  N_28
                            x       y       z     vdW  Elec       q    Type
                         _______ _______ _______ _____ _____    ______ ____

>  <TORSDO>
F 3

$$$$
=
 OpenBabel11062422233D

 41 47  0  0  1  0  0  0  0  0999 V2000
  195.9700  174.6140  143.8690 N   0  0  0  0  0  2  0  0  0  0  0  0
  191.0920  172.2960  143.3580 C   0  0  1  0  0  0  0  0  0  0  0  0
  192.3180  171.3620  143.2820 C   0  0  0  0  0  2  0  0  0  0  0  0
  190.4130  173.4360  140.1900 C   0  0  0  0  0  2  0  0  0  0  0  0
  188.5200  176.5360  146.2270 C   0  0  0  0  0  2  0  0  0  0  0  0
  190.8570  172.6640  144.8320 C   0  0  0  0  0  2  0  0  0  0  0  0
  191.4190  175.9340  143.2650 C   0  0  0  0  0  1  0  0  0  0  0  0
  189.7480  177.4240  145.9800 C   0  0  0  0  0  2  0  0  0  0  0  0
  189.8760  175.3060  141.6080 O   0  0  0  0  0  0  0  0  0  0  0  0
  193.0770  174.1650  146.1920 N   0  0  0  0  0  2  0  0  0  0  0  0
  191.3180  175.4870  146.2570 C   0  0  1  0  0  3  0  0  0  0  0  0
  190.4980  174.8290  142.7930 C   0  0  2  0  0  0  0  0  0  0  0  0
  195.5620  175.8910  144.2790 N   0  0  0  0  0  0  0  0  0  0  0  0
  194.4600  175.8700  145.1600 C   0  0  0  0  0  3  0  0  0  0  0  0
  195.0360  173.7120  144.5570 C   0  0  1  0  0  3  0  0  0  0  0  0
  191.6800  173.3500  141.0450 C   0  0  0  0  0  2  0  0  0  0  0  0
  189.8160  173.7570  145.0830 C   0  0  2  0  0  3  0  0  0  0  0  0
  191.0000  176.9190  146.6900 C   0  0  0  0  0  2  0  0  0  0  0  0
  194.7540  171.4520  143.3950 N   0  0  2  0  0  0  0  0  0  0  0  0
  196.1830  177.1080  143.7960 C   0  0  0  0  0  1  0  0  0  0  0  0
  194.1230  174.6130  145.3270 C   0  0  0  0  0  0  0  0  0  0  0  0
  189.4130  174.6050  143.8630 C   0  0  0  0  0  2  0  0  0  0  0  0
  191.3940  173.5780  142.5380 C   0  0  2  0  0  3  0  0  0  0  0  0
  189.3150  174.2270  140.9000 C   0  0  1  0  0  3  0  0  0  0  0  0
  188.8430  175.2130  146.9340 C   0  0  0  0  0  2  0  0  0  0  0  0
  192.3960  175.0100  147.0100 O   0  0  0  0  0  0  0  0  0  0  0  0
  194.2880  172.8670  143.5180 C   0  0  1  0  0  3  0  0  0  0  0  0
  190.1030  174.5400  146.3720 C   0  0  2  0  0  3  0  0  0  0  0  0
  193.5180  171.7800  144.1350 C   0  0  1  0  0  3  0  0  0  0  0  0
  197.2070  171.3650  143.7140 C   0  0  0  0  0  2  0  0  0  0  0  0
  195.8280  169.4500  144.2520 C   0  0  0  0  0  2  0  0  0  0  0  0
  195.7660  171.3830  145.7620 C   0  0  0  0  0  1  0  0  0  0  0  0
  195.8480  170.9670  144.2860 C   0  0  0  0  0  0  0  0  0  0  0  0
  197.9070  170.0980  143.2650 C   0  0  0  0  0  2  0  0  0  0  0  0
  196.8350  169.0390  143.2020 C   0  0  0  0  0  2  0  0  0  0  0  0
  187.5470  175.8470  140.1910 O   0  0  0  0  0  1  0  0  0  0  0  0
  188.3120  174.7180  139.9150 C   0  0  0  0  0  0  0  0  0  0  0  0
  188.1900  174.1360  138.8060 O   0  0  0  0  0  0  0  0  0  0  0  0
  188.5960  171.9160  143.1300 O   0  0  0  0  0  1  0  0  0  0  0  0
  190.0670  170.5720  142.0130 O   0  0  0  0  0  0  0  0  0  0  0  0
  189.8970  171.5410  142.8030 C   0  0  0  0  0  0  0  0  0  0  0  0
  1 13  1  0  0  0  0
  2 41  1  6  0  0  0
  2  6  1  0  0  0  0
  3  2  1  0  0  0  0
  3 29  1  0  0  0  0
  4 24  1  0  0  0  0
  4 16  1  0  0  0  0
  5 25  1  0  0  0  0
  6 17  1  0  0  0  0
  8  5  1  0  0  0  0
  8 18  1  0  0  0  0
  9 12  1  0  0  0  0
 10 26  1  0  0  0  0
 11 28  1  0  0  0  0
 11 18  1  1  0  0  0
 11 26  1  0  0  0  0
 12  7  1  1  0  0  0
 12 22  1  0  0  0  0
 13 14  1  0  0  0  0
 14 21  2  0  0  0  0
 15  1  1  6  0  0  0
 15 21  1  0  0  0  0
 17 22  1  6  0  0  0
 17 28  1  0  0  0  0
 19 27  1  0  0  0  0
 19 29  1  0  0  0  0
 19 33  1  1  0  0  0
 20 13  1  0  0  0  0
 21 10  1  0  0  0  0
 23 16  1  6  0  0  0
 23 12  1  0  0  0  0
 23  2  1  0  0  0  0
 24 37  1  6  0  0  0
 24  9  1  0  0  0  0
 27 29  1  0  0  0  0
 27 15  1  0  0  0  0
 28 25  1  0  0  0  0
 30 33  1  0  0  0  0
 31 33  1  0  0  0  0
 33 32  1  0  0  0  0
 34 30  1  0  0  0  0
 35 34  1  0  0  0  0
 35 31  1  0  0  0  0
 37 36  1  0  0  0  0
 38 37  2  0  0  0  0
 40 41  2  0  0  0  0
 41 39  1  0  0  0  0
M  END
>  <MODEL>
3

>  <REMARK>
 VINA RESULT:      -7.9      3.357      7.677
  Name = 
  3 active torsions:
  status: ('A' for Active; 'I' for Inactive)
    1  A    between atoms: C_3  and  C_36
    2  A    between atoms: C_17  and  C_35
    3  A    between atoms: C_23  and  N_28
                            x       y       z     vdW  Elec       q    Type
                         _______ _______ _______ _____ _____    ______ ____

>  <TORSDO>
F 3

$$$$
=
 OpenBabel11062422233D

 41 47  0  0  1  0  0  0  0  0999 V2000
  189.0310  176.2080  143.3190 N   0  0  0  0  0  2  0  0  0  0  0  0
  193.9950  174.0340  143.5750 C   0  0  1  0  0  0  0  0  0  0  0  0
  193.5070  174.8040  144.8190 C   0  0  0  0  0  2  0  0  0  0  0  0
  195.5410  176.2630  141.4680 C   0  0  0  0  0  2  0  0  0  0  0  0
  192.7160  170.0730  139.6370 C   0  0  0  0  0  2  0  0  0  0  0  0
  193.3030  172.6610  143.5560 C   0  0  0  0  0  2  0  0  0  0  0  0
  192.2040  174.1610  140.3920 C   0  0  0  0  0  1  0  0  0  0  0  0
  191.5150  170.9240  139.1980 C   0  0  0  0  0  2  0  0  0  0  0  0
  194.4490  174.7180  139.9790 O   0  0  0  0  0  0  0  0  0  0  0  0
  190.3050  172.6940  143.3390 N   0  0  0  0  0  2  0  0  0  0  0  0
  191.0340  171.6250  141.5580 C   0  0  1  0  0  3  0  0  0  0  0  0
  193.6140  174.0870  140.9400 C   0  0  2  0  0  0  0  0  0  0  0  0
  188.5860  175.5950  142.1380 N   0  0  0  0  0  0  0  0  0  0  0  0
  189.0090  174.2550  142.0110 C   0  0  0  0  0  3  0  0  0  0  0  0
  189.8030  175.1520  143.9890 C   0  0  1  0  0  3  0  0  0  0  0  0
  194.2040  176.2500  142.2130 C   0  0  0  0  0  2  0  0  0  0  0  0
  193.4950  171.8400  142.2790 C   0  0  2  0  0  3  0  0  0  0  0  0
  190.4420  171.0380  140.2760 C   0  0  0  0  0  2  0  0  0  0  0  0
  191.5640  176.0470  145.6130 N   0  0  2  0  0  0  0  0  0  0  0  0
  187.8170  176.2970  141.1300 C   0  0  0  0  0  1  0  0  0  0  0  0
  189.7320  173.9750  143.0680 C   0  0  0  0  0  0  0  0  0  0  0  0
  194.0200  172.6060  141.0510 C   0  0  0  0  0  2  0  0  0  0  0  0
  193.6010  174.8380  142.3070 C   0  0  2  0  0  3  0  0  0  0  0  0
  195.6880  175.0380  140.5660 C   0  0  1  0  0  3  0  0  0  0  0  0
  192.7070  169.7090  141.1270 C   0  0  0  0  0  2  0  0  0  0  0  0
  190.0590  171.6070  142.5620 O   0  0  0  0  0  0  0  0  0  0  0  0
  191.2410  175.6380  144.2130 C   0  0  1  0  0  3  0  0  0  0  0  0
  192.3140  170.8950  142.0190 C   0  0  2  0  0  3  0  0  0  0  0  0
  192.0030  174.7380  145.0870 C   0  0  1  0  0  3  0  0  0  0  0  0
  189.6300  177.1680  146.6770 C   0  0  0  0  0  2  0  0  0  0  0  0
  191.2150  175.9180  148.0130 C   0  0  0  0  0  2  0  0  0  0  0  0
  189.6350  174.6650  146.6140 C   0  0  0  0  0  1  0  0  0  0  0  0
  190.5140  175.9230  146.6660 C   0  0  0  0  0  0  0  0  0  0  0  0
  189.9020  177.9160  147.9670 C   0  0  0  0  0  2  0  0  0  0  0  0
  191.1910  177.3460  148.5050 C   0  0  0  0  0  2  0  0  0  0  0  0
  196.3540  175.2860  138.1680 O   0  0  0  0  0  0  0  0  0  0  0  0
  196.7110  175.2910  139.5130 C   0  0  0  0  0  0  0  0  0  0  0  0
  197.8950  175.5570  139.8450 O   0  0  0  0  0  1  0  0  0  0  0  0
  196.2760  174.7950  144.3790 O   0  0  0  0  0  1  0  0  0  0  0  0
  196.0690  172.8610  143.1830 O   0  0  0  0  0  0  0  0  0  0  0  0
  195.5000  173.8660  143.6910 C   0  0  0  0  0  0  0  0  0  0  0  0
  1 15  1  0  0  0  0
  2 41  1  1  0  0  0
  2  3  1  0  0  0  0
  3 29  1  0  0  0  0
  4 16  1  0  0  0  0
  5 25  1  0  0  0  0
  6  2  1  0  0  0  0
  8  5  1  0  0  0  0
  8 18  1  0  0  0  0
  9 24  1  0  0  0  0
  9 12  1  0  0  0  0
 11 18  1  6  0  0  0
 11 28  1  0  0  0  0
 11 26  1  0  0  0  0
 12  7  1  6  0  0  0
 12 22  1  0  0  0  0
 12 23  1  0  0  0  0
 13  1  1  0  0  0  0
 14 13  1  0  0  0  0
 14 21  2  0  0  0  0
 15 21  1  6  0  0  0
 15 27  1  0  0  0  0
 17 22  1  6  0  0  0
 17  6  1  0  0  0  0
 19 33  1  1  0  0  0
 20 13  1  0  0  0  0
 21 10  1  0  0  0  0
 23 16  1  6  0  0  0
 23  2  1  0  0  0  0
 24 37  1  6  0  0  0
 24  4  1  0  0  0  0
 25 28  1  0  0  0  0
 26 10  1  0  0  0  0
 27 29  1  0  0  0  0
 27 19  1  0  0  0  0
 28 17  1  0  0  0  0
 29 19  1  0  0  0  0
 30 34  1  0  0  0  0
 31 35  1  0  0  0  0
 32 33  1  0  0  0  0
 33 30  1  0  0  0  0
 33 31  1  0  0  0  0
 34 35  1  0  0  0  0
 36 37  2  0  0  0  0
 37 38  1  0  0  0  0
 40 41  2  0  0  0  0
 41 39  1  0  0  0  0
M  END
>  <MODEL>
4

>  <REMARK>
 VINA RESULT:      -7.3      3.091      6.670
  Name = 
  3 active torsions:
  status: ('A' for Active; 'I' for Inactive)
    1  A    between atoms: C_3  and  C_36
    2  A    between atoms: C_17  and  C_35
    3  A    between atoms: C_23  and  N_28
                            x       y       z     vdW  Elec       q    Type
                         _______ _______ _______ _____ _____    ______ ____

>  <TORSDO>
F 3

$$$$
=
 OpenBabel11062422233D

 41 47  0  0  1  0  0  0  0  0999 V2000
  188.1350  175.3030  140.2730 N   0  0  0  0  0  2  0  0  0  0  0  0
  191.7140  175.1890  144.3480 C   0  0  1  0  0  0  0  0  0  0  0  0
  190.5350  176.1760  144.4840 C   0  0  0  0  0  2  0  0  0  0  0  0
  194.2720  176.7910  142.7080 C   0  0  0  0  0  2  0  0  0  0  0  0
  193.2990  169.8240  143.1120 C   0  0  0  0  0  2  0  0  0  0  0  0
  191.1950  173.7740  144.6510 C   0  0  0  0  0  2  0  0  0  0  0  0
  192.4390  173.4570  141.2140 C   0  0  0  0  0  1  0  0  0  0  0  0
  192.6810  169.9820  141.7160 C   0  0  0  0  0  2  0  0  0  0  0  0
  194.4110  174.5180  141.9230 O   0  0  0  0  0  0  0  0  0  0  0  0
  189.0680  172.7200  142.8080 N   0  0  0  0  0  2  0  0  0  0  0  0
  190.7780  171.3480  142.6130 C   0  0  1  0  0  3  0  0  0  0  0  0
  193.1470  174.0770  142.4000 C   0  0  2  0  0  0  0  0  0  0  0  0
  188.5670  174.1680  139.5730 N   0  0  0  0  0  0  0  0  0  0  0  0
  188.9630  173.1090  140.4160 C   0  0  0  0  0  3  0  0  0  0  0  0
  188.2750  174.9170  141.6830 C   0  0  1  0  0  3  0  0  0  0  0  0
  192.7730  176.6260  142.4450 C   0  0  0  0  0  2  0  0  0  0  0  0
  192.1720  172.6330  144.3550 C   0  0  2  0  0  3  0  0  0  0  0  0
  191.1650  170.1450  141.7510 C   0  0  0  0  0  2  0  0  0  0  0  0
  188.5520  176.9060  143.2660 N   0  0  2  0  0  0  0  0  0  0  0  0
  188.6460  174.1190  138.1260 C   0  0  0  0  0  1  0  0  0  0  0  0
  188.8180  173.5230  141.6520 C   0  0  0  0  0  0  0  0  0  0  0  0
  193.3750  172.9840  143.4610 C   0  0  0  0  0  2  0  0  0  0  0  0
  192.2480  175.2520  142.8920 C   0  0  2  0  0  3  0  0  0  0  0  0
  194.9670  175.4350  142.8360 C   0  0  1  0  0  3  0  0  0  0  0  0
  192.3160  170.0920  144.2600 C   0  0  0  0  0  2  0  0  0  0  0  0
  189.3840  171.4020  142.7250 O   0  0  0  0  0  0  0  0  0  0  0  0
  189.2200  175.8990  142.3880 C   0  0  1  0  0  3  0  0  0  0  0  0
  191.4420  171.3280  144.0070 C   0  0  2  0  0  3  0  0  0  0  0  0
  189.2210  175.7230  143.8450 C   0  0  1  0  0  3  0  0  0  0  0  0
  186.4090  177.8370  142.4470 C   0  0  0  0  0  2  0  0  0  0  0  0
  186.7370  177.3950  144.8040 C   0  0  0  0  0  2  0  0  0  0  0  0
  186.4050  175.4840  143.3020 C   0  0  0  0  0  1  0  0  0  0  0  0
  187.0690  176.8630  143.4220 C   0  0  0  0  0  0  0  0  0  0  0  0
  185.8010  178.9620  143.2610 C   0  0  0  0  0  2  0  0  0  0  0  0
  186.4290  178.8640  144.6290 C   0  0  0  0  0  2  0  0  0  0  0  0
  197.0850  176.7600  142.9370 O   0  0  0  0  0  1  0  0  0  0  0  0
  196.4300  175.5800  142.5990 C   0  0  0  0  0  0  0  0  0  0  0  0
  197.0860  174.6110  142.1350 O   0  0  0  0  0  0  0  0  0  0  0  0
  193.6780  174.6570  145.8600 O   0  0  0  0  0  1  0  0  0  0  0  0
  192.8740  176.7910  145.7340 O   0  0  0  0  0  0  0  0  0  0  0  0
  192.7760  175.5910  145.3560 C   0  0  0  0  0  0  0  0  0  0  0  0
  2  3  1  0  0  0  0
  2  6  1  0  0  0  0
  2 41  1  1  0  0  0
  4 24  1  0  0  0  0
  5 25  1  0  0  0  0
  8 18  1  0  0  0  0
  8  5  1  0  0  0  0
  9 12  1  0  0  0  0
  9 24  1  0  0  0  0
 11 18  1  1  0  0  0
 11 26  1  0  0  0  0
 11 28  1  0  0  0  0
 12  7  1  6  0  0  0
 12 23  1  0  0  0  0
 12 22  1  0  0  0  0
 13  1  1  0  0  0  0
 13 14  1  0  0  0  0
 14 21  2  0  0  0  0
 15  1  1  6  0  0  0
 15 27  1  0  0  0  0
 16  4  1  0  0  0  0
 17 22  1  6  0  0  0
 17  6  1  0  0  0  0
 19 33  1  6  0  0  0
 19 29  1  0  0  0  0
 20 13  1  0  0  0  0
 21 15  1  0  0  0  0
 21 10  1  0  0  0  0
 23 16  1  1  0  0  0
 23  2  1  0  0  0  0
 24 37  1  6  0  0  0
 26 10  1  0  0  0  0
 27 19  1  0  0  0  0
 27 29  1  0  0  0  0
 28 25  1  0  0  0  0
 28 17  1  0  0  0  0
 29  3  1  0  0  0  0
 30 34  1  0  0  0  0
 30 33  1  0  0  0  0
 32 33  1  0  0  0  0
 33 31  1  0  0  0  0
 34 35  1  0  0  0  0
 35 31  1  0  0  0  0
 37 36  1  0  0  0  0
 38 37  2  0  0  0  0
 41 40  2  0  0  0  0
 41 39  1  0  0  0  0
M  END
>  <MODEL>
5

>  <REMARK>
 VINA RESULT:      -7.1      2.475      5.622
  Name = 
  3 active torsions:
  status: ('A' for Active; 'I' for Inactive)
    1  A    between atoms: C_3  and  C_36
    2  A    between atoms: C_17  and  C_35
    3  A    between atoms: C_23  and  N_28
                            x       y       z     vdW  Elec       q    Type
                         _______ _______ _______ _____ _____    ______ ____

>  <TORSDO>
F 3

$$$$
=
 OpenBabel11062422233D

 41 47  0  0  1  0  0  0  0  0999 V2000
  189.8770  175.8990  146.3440 N   0  0  0  0  0  2  0  0  0  0  0  0
  191.1610  173.7160  141.5460 C   0  0  1  0  0  0  0  0  0  0  0  0
  189.8290  174.4900  141.6250 C   0  0  0  0  0  2  0  0  0  0  0  0
  190.5550  170.4440  142.3960 C   0  0  0  0  0  2  0  0  0  0  0  0
  196.7600  173.7630  142.7640 C   0  0  0  0  0  2  0  0  0  0  0  0
  192.3090  174.7380  141.4840 C   0  0  0  0  0  2  0  0  0  0  0  0
  193.0760  172.8480  144.5350 C   0  0  0  0  0  1  0  0  0  0  0  0
  196.4170  173.9180  144.2520 C   0  0  0  0  0  2  0  0  0  0  0  0
  192.7470  170.8810  143.2930 O   0  0  0  0  0  0  0  0  0  0  0  0
  192.5920  176.5570  143.8600 N   0  0  0  0  0  0  0  0  0  0  0  0
  194.4700  175.4140  143.7400 C   0  0  1  0  0  3  0  0  0  0  0  0
  192.7220  172.2960  143.1700 C   0  0  2  0  0  0  0  0  0  0  0  0
  191.1010  175.7110  147.0030 N   0  0  0  0  0  0  0  0  0  0  0  0
  192.2210  175.9190  146.1710 C   0  0  0  0  0  2  0  0  0  0  0  0
  190.2710  176.2570  144.9740 C   0  0  1  0  0  3  0  0  0  0  0  0
  190.1990  171.7940  143.0240 C   0  0  0  0  0  2  0  0  0  0  0  0
  193.7190  174.1590  141.6220 C   0  0  2  0  0  3  0  0  0  0  0  0
  195.7430  175.2490  144.5710 C   0  0  0  0  0  2  0  0  0  0  0  0
  188.4780  175.7400  143.2260 N   0  0  2  0  0  0  0  0  0  0  0  0
  191.1920  175.2910  148.3870 C   0  0  0  0  0  1  0  0  0  0  0  0
  191.7670  176.2230  144.9790 C   0  0  0  0  0  0  0  0  0  0  0  0
  193.8130  172.7240  142.1700 C   0  0  0  0  0  2  0  0  0  0  0  0
  191.3040  172.8440  142.8210 C   0  0  2  0  0  3  0  0  0  0  0  0
  192.0650  170.3000  142.2070 C   0  0  1  0  0  3  0  0  0  0  0  0
  196.1570  174.8550  141.8700 C   0  0  0  0  0  2  0  0  0  0  0  0
  193.9400  176.6900  143.9640 O   0  0  0  0  0  0  0  0  0  0  0  0
  189.6630  175.2480  143.9910 C   0  0  1  0  0  3  0  0  0  0  0  0
  194.6990  175.1700  142.2320 C   0  0  2  0  0  3  0  0  0  0  0  0
  189.8110  175.6740  142.5940 C   0  0  1  0  0  3  0  0  0  0  0  0
  187.2320  177.2420  144.7490 C   0  0  0  0  0  2  0  0  0  0  0  0
  186.9950  177.4510  142.3490 C   0  0  0  0  0  2  0  0  0  0  0  0
  189.0770  178.2390  143.3810 C   0  0  0  0  0  1  0  0  0  0  0  0
  188.0070  177.1390  143.4370 C   0  0  0  0  0  0  0  0  0  0  0  0
  185.7790  177.5060  144.4060 C   0  0  0  0  0  2  0  0  0  0  0  0
  185.6360  177.1660  142.9430 C   0  0  0  0  0  2  0  0  0  0  0  0
  192.5140  168.2710  140.8150 O   0  0  0  0  0  0  0  0  0  0  0  0
  192.4340  168.8630  142.0720 C   0  0  0  0  0  0  0  0  0  0  0  0
  192.7210  168.1940  143.0980 O   0  0  0  0  0  1  0  0  0  0  0  0
  189.9360  172.4000  139.7600 O   0  0  0  0  0  1  0  0  0  0  0  0
  192.2090  172.6060  139.6750 O   0  0  0  0  0  0  0  0  0  0  0  0
  191.1360  172.8720  140.2840 C   0  0  0  0  0  0  0  0  0  0  0  0
  1 13  1  0  0  0  0
  2 41  1  6  0  0  0
  2  3  1  0  0  0  0
  2 23  1  0  0  0  0
  3 29  1  0  0  0  0
  4 16  1  0  0  0  0
  5  8  1  0  0  0  0
  6  2  1  0  0  0  0
  8 18  1  0  0  0  0
 10 26  1  0  0  0  0
 10 21  2  0  0  0  0
 11 26  1  0  0  0  0
 11 18  1  1  0  0  0
 12  9  1  0  0  0  0
 12  7  1  1  0  0  0
 13 20  1  0  0  0  0
 14 13  1  0  0  0  0
 15 21  1  1  0  0  0
 15  1  1  0  0  0  0
 17  6  1  1  0  0  0
 17 22  1  0  0  0  0
 17 28  1  0  0  0  0
 19 33  1  1  0  0  0
 19 27  1  0  0  0  0
 21 14  1  0  0  0  0
 22 12  1  0  0  0  0
 23 16  1  6  0  0  0
 23 12  1  0  0  0  0
 24 37  1  1  0  0  0
 24  4  1  0  0  0  0
 24  9  1  0  0  0  0
 25 28  1  0  0  0  0
 25  5  1  0  0  0  0
 27 15  1  0  0  0  0
 28 11  1  0  0  0  0
 29 19  1  0  0  0  0
 29 27  1  0  0  0  0
 31 35  1  0  0  0  0
 31 33  1  0  0  0  0
 32 33  1  0  0  0  0
 33 30  1  0  0  0  0
 34 30  1  0  0  0  0
 35 34  1  0  0  0  0
 36 37  2  0  0  0  0
 37 38  1  0  0  0  0
 39 41  1  0  0  0  0
 40 41  2  0  0  0  0
M  END
>  <MODEL>
6

>  <REMARK>
 VINA RESULT:      -7.1      2.139      3.102
  Name = 
  3 active torsions:
  status: ('A' for Active; 'I' for Inactive)
    1  A    between atoms: C_3  and  C_36
    2  A    between atoms: C_17  and  C_35
    3  A    between atoms: C_23  and  N_28
                            x       y       z     vdW  Elec       q    Type
                         _______ _______ _______ _____ _____    ______ ____

>  <TORSDO>
F 3

$$$$
=
 OpenBabel11062422233D

 41 47  0  0  1  0  0  0  0  0999 V2000
  190.1300  172.6970  140.5310 N   0  0  0  0  0  2  0  0  0  0  0  0
  195.2620  172.5020  142.2810 C   0  0  1  0  0  0  0  0  0  0  0  0
  195.0180  172.1480  140.7990 C   0  0  0  0  0  2  0  0  0  0  0  0
  194.9670  169.6270  144.1360 C   0  0  0  0  0  2  0  0  0  0  0  0
  194.2030  176.2150  146.5130 C   0  0  0  0  0  2  0  0  0  0  0  0
  195.1790  174.0300  142.4310 C   0  0  0  0  0  2  0  0  0  0  0  0
  192.5170  172.8560  144.6660 C   0  0  0  0  0  1  0  0  0  0  0  0
  192.7020  175.9350  146.3590 C   0  0  0  0  0  2  0  0  0  0  0  0
  194.0660  171.3390  145.5700 O   0  0  0  0  0  0  0  0  0  0  0  0
  192.5370  175.2870  141.7440 N   0  0  0  0  0  0  0  0  0  0  0  0
  192.9000  175.7500  143.8660 C   0  0  1  0  0  3  0  0  0  0  0  0
  193.9460  172.3610  144.5910 C   0  0  2  0  0  0  0  0  0  0  0  0
  189.5460  173.3220  141.6420 N   0  0  0  0  0  0  0  0  0  0  0  0
  190.3600  174.3250  142.2110 C   0  0  0  0  0  2  0  0  0  0  0  0
  191.4290  173.3700  140.3960 C   0  0  1  0  0  3  0  0  0  0  0  0
  194.1080  170.2950  143.0590 C   0  0  0  0  0  2  0  0  0  0  0  0
  195.1800  174.5550  143.8680 C   0  0  2  0  0  3  0  0  0  0  0  0
  192.1430  176.4070  145.0210 C   0  0  0  0  0  2  0  0  0  0  0  0
  193.1910  171.9620  139.1920 N   0  0  2  0  0  0  0  0  0  0  0  0
  188.2570  172.9310  142.1760 C   0  0  0  0  0  1  0  0  0  0  0  0
  191.4700  174.3640  141.5140 C   0  0  0  0  0  0  0  0  0  0  0  0
  194.8870  173.5200  144.9690 C   0  0  0  0  0  2  0  0  0  0  0  0
  194.1580  171.8300  143.1400 C   0  0  2  0  0  3  0  0  0  0  0  0
  195.2170  170.5700  145.3120 C   0  0  1  0  0  3  0  0  0  0  0  0
  194.8820  176.6920  145.2220 C   0  0  0  0  0  2  0  0  0  0  0  0
  192.4480  176.2900  142.6560 O   0  0  0  0  0  0  0  0  0  0  0  0
  192.5530  172.3310  140.4920 C   0  0  1  0  0  3  0  0  0  0  0  0
  194.4330  175.8900  143.9930 C   0  0  2  0  0  3  0  0  0  0  0  0
  193.8610  172.8900  140.1270 C   0  0  1  0  0  3  0  0  0  0  0  0
  191.4000  172.0440  137.4860 C   0  0  0  0  0  2  0  0  0  0  0  0
  193.7220  172.2830  136.8440 C   0  0  0  0  0  2  0  0  0  0  0  0
  192.6340  174.1660  137.9820 C   0  0  0  0  0  1  0  0  0  0  0  0
  192.7330  172.6340  137.9410 C   0  0  0  0  0  0  0  0  0  0  0  0
  191.6490  171.2800  136.2000 C   0  0  0  0  0  2  0  0  0  0  0  0
  193.1430  171.0880  136.1210 C   0  0  0  0  0  2  0  0  0  0  0  0
  194.6420  169.1120  147.2610 O   0  0  0  0  0  1  0  0  0  0  0  0
  195.6050  169.7940  146.5240 C   0  0  0  0  0  0  0  0  0  0  0  0
  196.8160  169.7170  146.8540 O   0  0  0  0  0  0  0  0  0  0  0  0
  197.2180  170.9120  142.0120 O   0  0  0  0  0  0  0  0  0  0  0  0
  197.3180  172.6040  143.5430 O   0  0  0  0  0  1  0  0  0  0  0  0
  196.6480  172.0080  142.6550 C   0  0  0  0  0  0  0  0  0  0  0  0
  1 13  1  0  0  0  0
  2  6  1  0  0  0  0
  2 41  1  1  0  0  0
  2 23  1  0  0  0  0
  3  2  1  0  0  0  0
  4 24  1  0  0  0  0
  8  5  1  0  0  0  0
 10 26  1  0  0  0  0
 11 28  1  0  0  0  0
 11 18  1  1  0  0  0
 12  7  1  1  0  0  0
 12 22  1  0  0  0  0
 12  9  1  0  0  0  0
 13 20  1  0  0  0  0
 13 14  1  0  0  0  0
 15 27  1  0  0  0  0
 15  1  1  1  0  0  0
 15 21  1  0  0  0  0
 16  4  1  0  0  0  0
 17  6  1  6  0  0  0
 17 28  1  0  0  0  0
 17 22  1  0  0  0  0
 18  8  1  0  0  0  0
 19 33  1  6  0  0  0
 19 29  1  0  0  0  0
 19 27  1  0  0  0  0
 21 10  2  0  0  0  0
 21 14  1  0  0  0  0
 23 16  1  1  0  0  0
 23 12  1  0  0  0  0
 24  9  1  0  0  0  0
 24 37  1  1  0  0  0
 25  5  1  0  0  0  0
 26 11  1  0  0  0  0
 28 25  1  0  0  0  0
 29 27  1  0  0  0  0
 29  3  1  0  0  0  0
 30 33  1  0  0  0  0
 31 33  1  0  0  0  0
 33 32  1  0  0  0  0
 34 30  1  0  0  0  0
 35 34  1  0  0  0  0
 35 31  1  0  0  0  0
 37 38  2  0  0  0  0
 37 36  1  0  0  0  0
 39 41  2  0  0  0  0
 41 40  1  0  0  0  0
M  END
>  <MODEL>
7

>  <REMARK>
 VINA RESULT:      -6.5      4.017      6.610
  Name = 
  3 active torsions:
  status: ('A' for Active; 'I' for Inactive)
    1  A    between atoms: C_3  and  C_36
    2  A    between atoms: C_17  and  C_35
    3  A    between atoms: C_23  and  N_28
                            x       y       z     vdW  Elec       q    Type
                         _______ _______ _______ _____ _____    ______ ____

>  <TORSDO>
F 3

$$$$
=
 OpenBabel11062422233D

 41 47  0  0  1  0  0  0  0  0999 V2000
  189.2770  173.8850  142.1270 N   0  0  0  0  0  2  0  0  0  0  0  0
  194.4960  174.1640  143.5820 C   0  0  1  0  0  0  0  0  0  0  0  0
  193.5050  175.0440  144.3720 C   0  0  0  0  0  2  0  0  0  0  0  0
  195.5950  175.9560  140.8660 C   0  0  0  0  0  2  0  0  0  0  0  0
  195.5930  168.9390  141.5040 C   0  0  0  0  0  2  0  0  0  0  0  0
  194.3490  172.7140  144.0720 C   0  0  0  0  0  2  0  0  0  0  0  0
  193.5320  172.4450  140.5050 C   0  0  0  0  0  1  0  0  0  0  0  0
  194.3020  169.0160  140.6770 C   0  0  0  0  0  2  0  0  0  0  0  0
  195.4730  173.6900  140.0570 O   0  0  0  0  0  0  0  0  0  0  0  0
  191.6580  171.4420  143.6550 N   0  0  0  0  0  2  0  0  0  0  0  0
  193.0920  170.2240  142.5120 C   0  0  1  0  0  3  0  0  0  0  0  0
  194.7180  173.1470  141.1310 C   0  0  2  0  0  0  0  0  0  0  0  0
  189.3490  172.7790  141.2680 N   0  0  0  0  0  0  0  0  0  0  0  0
  190.2300  171.7750  141.7230 C   0  0  0  0  0  3  0  0  0  0  0  0
  190.1970  173.5380  143.2190 C   0  0  1  0  0  3  0  0  0  0  0  0
  194.2160  175.6540  141.4580 C   0  0  0  0  0  2  0  0  0  0  0  0
  195.0960  171.6590  143.2530 C   0  0  2  0  0  3  0  0  0  0  0  0
  193.0450  169.0440  141.5400 C   0  0  0  0  0  2  0  0  0  0  0  0
  191.1250  175.5730  144.4590 N   0  0  2  0  0  0  0  0  0  0  0  0
  188.6290  172.7110  140.0120 C   0  0  0  0  0  1  0  0  0  0  0  0
  190.7500  172.1970  142.8500 C   0  0  0  0  0  0  0  0  0  0  0  0
  195.5800  172.0990  141.8590 C   0  0  0  0  0  2  0  0  0  0  0  0
  194.1390  174.2470  142.0740 C   0  0  2  0  0  3  0  0  0  0  0  0
  196.3580  174.6690  140.5480 C   0  0  1  0  0  3  0  0  0  0  0  0
  195.3790  169.1390  143.0100 C   0  0  0  0  0  2  0  0  0  0  0  0
  191.9870  170.1550  143.3690 O   0  0  0  0  0  0  0  0  0  0  0  0
  191.2860  174.6130  143.3250 C   0  0  1  0  0  3  0  0  0  0  0  0
  194.4090  170.2880  143.3170 C   0  0  2  0  0  3  0  0  0  0  0  0
  192.0980  174.4650  144.5390 C   0  0  1  0  0  3  0  0  0  0  0  0
  188.7120  176.0130  144.7990 C   0  0  0  0  0  2  0  0  0  0  0  0
  190.2720  176.2270  146.6370 C   0  0  0  0  0  2  0  0  0  0  0  0
  189.6860  173.9700  145.8710 C   0  0  0  0  0  1  0  0  0  0  0  0
  189.9780  175.4020  145.3970 C   0  0  0  0  0  0  0  0  0  0  0  0
  188.3530  177.2310  145.6270 C   0  0  0  0  0  2  0  0  0  0  0  0
  189.5860  177.5570  146.4320 C   0  0  0  0  0  2  0  0  0  0  0  0
  197.8500  173.9430  138.6770 O   0  0  0  0  0  0  0  0  0  0  0  0
  197.4360  174.9390  139.5560 C   0  0  0  0  0  0  0  0  0  0  0  0
  197.9410  176.0890  139.4810 O   0  0  0  0  0  1  0  0  0  0  0  0
  196.1170  175.9970  144.2450 O   0  0  0  0  0  1  0  0  0  0  0  0
  196.8890  173.9010  143.7690 O   0  0  0  0  0  0  0  0  0  0  0  0
  195.8980  174.6770  143.8590 C   0  0  0  0  0  0  0  0  0  0  0  0
  2 41  1  1  0  0  0
  2  6  1  0  0  0  0
  2  3  1  0  0  0  0
  3 29  1  0  0  0  0
  4 16  1  0  0  0  0
  5 25  1  0  0  0  0
  8  5  1  0  0  0  0
  8 18  1  0  0  0  0
  9 24  1  0  0  0  0
  9 12  1  0  0  0  0
 11 18  1  6  0  0  0
 11 28  1  0  0  0  0
 11 26  1  0  0  0  0
 12  7  1  6  0  0  0
 12 22  1  0  0  0  0
 12 23  1  0  0  0  0
 13 14  1  0  0  0  0
 13  1  1  0  0  0  0
 14 21  2  0  0  0  0
 15  1  1  6  0  0  0
 15 27  1  0  0  0  0
 17 22  1  6  0  0  0
 17 28  1  0  0  0  0
 17  6  1  0  0  0  0
 19 29  1  0  0  0  0
 19 33  1  1  0  0  0
 20 13  1  0  0  0  0
 21 15  1  0  0  0  0
 21 10  1  0  0  0  0
 23 16  1  6  0  0  0
 23  2  1  0  0  0  0
 24 37  1  6  0  0  0
 24  4  1  0  0  0  0
 25 28  1  0  0  0  0
 26 10  1  0  0  0  0
 27 19  1  0  0  0  0
 27 29  1  0  0  0  0
 30 33  1  0  0  0  0
 30 34  1  0  0  0  0
 33 32  1  0  0  0  0
 33 31  1  0  0  0  0
 34 35  1  0  0  0  0
 35 31  1  0  0  0  0
 36 37  2  0  0  0  0
 38 37  1  0  0  0  0
 40 41  2  0  0  0  0
 41 39  1  0  0  0  0
M  END
>  <MODEL>
8

>  <REMARK>
 VINA RESULT:      -6.5      3.681      6.872
  Name = 
  3 active torsions:
  status: ('A' for Active; 'I' for Inactive)
    1  A    between atoms: C_3  and  C_36
    2  A    between atoms: C_17  and  C_35
    3  A    between atoms: C_23  and  N_28
                            x       y       z     vdW  Elec       q    Type
                         _______ _______ _______ _____ _____    ______ ____

>  <TORSDO>
F 3

$$$$
=
 OpenBabel11062422233D

 41 47  0  0  1  0  0  0  0  0999 V2000
  193.4260  173.1400  138.2300 N   0  0  0  0  0  2  0  0  0  0  0  0
  190.9660  172.6310  143.0390 C   0  0  1  0  0  0  0  0  0  0  0  0
  190.7070  171.5170  142.0020 C   0  0  0  0  0  2  0  0  0  0  0  0
  188.6200  175.0960  142.5750 C   0  0  0  0  0  2  0  0  0  0  0  0
  194.9100  175.8570  145.6580 C   0  0  0  0  0  2  0  0  0  0  0  0
  192.3660  172.4160  143.6370 C   0  0  0  0  0  2  0  0  0  0  0  0
  192.6310  175.7580  142.1450 C   0  0  0  0  0  1  0  0  0  0  0  0
  195.3440  176.4040  144.2910 C   0  0  0  0  0  2  0  0  0  0  0  0
  190.6080  176.2970  143.2110 O   0  0  0  0  0  0  0  0  0  0  0  0
  194.6680  172.5790  141.7110 N   0  0  0  0  0  2  0  0  0  0  0  0
  194.9930  174.1790  143.1870 C   0  0  1  0  0  3  0  0  0  0  0  0
  191.5330  175.2320  143.0460 C   0  0  2  0  0  0  0  0  0  0  0  0
  194.2920  174.1980  138.5400 N   0  0  0  0  0  0  0  0  0  0  0  0
  194.8300  174.1170  139.8420 C   0  0  0  0  0  3  0  0  0  0  0  0
  193.4230  172.3230  139.4510 C   0  0  1  0  0  3  0  0  0  0  0  0
  189.5660  174.3340  141.6440 C   0  0  0  0  0  2  0  0  0  0  0  0
  192.8870  173.5480  144.5250 C   0  0  2  0  0  3  0  0  0  0  0  0
  195.9680  175.3390  143.3950 C   0  0  0  0  0  2  0  0  0  0  0  0
  191.3180  170.8970  139.7230 N   0  0  2  0  0  0  0  0  0  0  0  0
  194.5570  175.2910  137.6260 C   0  0  0  0  0  1  0  0  0  0  0  0
  194.3290  173.0420  140.4020 C   0  0  0  0  0  0  0  0  0  0  0  0
  192.1450  174.8920  144.4180 C   0  0  0  0  0  2  0  0  0  0  0  0
  190.9090  174.0030  142.3160 C   0  0  2  0  0  3  0  0  0  0  0  0
  189.3870  175.7930  143.6990 C   0  0  1  0  0  3  0  0  0  0  0  0
  194.9720  174.3270  145.7630 C   0  0  0  0  0  2  0  0  0  0  0  0
  195.6340  173.1670  142.4640 O   0  0  0  0  0  0  0  0  0  0  0  0
  191.9880  172.2070  139.9820 C   0  0  1  0  0  3  0  0  0  0  0  0
  194.4190  173.6300  144.5120 C   0  0  2  0  0  3  0  0  0  0  0  0
  191.8700  171.2140  141.0560 C   0  0  1  0  0  3  0  0  0  0  0  0
  192.0960  170.0770  137.5210 C   0  0  0  0  0  2  0  0  0  0  0  0
  191.3010  168.5260  139.2000 C   0  0  0  0  0  2  0  0  0  0  0  0
  193.5060  169.5530  139.5230 C   0  0  0  0  0  1  0  0  0  0  0  0
  192.0770  169.8190  139.0260 C   0  0  0  0  0  0  0  0  0  0  0  0
  191.2540  169.0040  136.8590 C   0  0  0  0  0  2  0  0  0  0  0  0
  190.4420  168.3800  137.9660 C   0  0  0  0  0  2  0  0  0  0  0  0
  187.1840  176.7690  144.3660 O   0  0  0  0  0  0  0  0  0  0  0  0
  188.5670  176.8910  144.2810 C   0  0  0  0  0  0  0  0  0  0  0  0
  189.1340  177.9160  144.7420 O   0  0  0  0  0  1  0  0  0  0  0  0
  190.0930  173.0930  145.3730 O   0  0  0  0  0  1  0  0  0  0  0  0
  188.8210  171.9160  143.8860 O   0  0  0  0  0  0  0  0  0  0  0  0
  189.9050  172.5170  144.1190 C   0  0  0  0  0  0  0  0  0  0  0  0
  1 13  1  0  0  0  0
  2  6  1  0  0  0  0
  2 41  1  1  0  0  0
  3  2  1  0  0  0  0
  4 24  1  0  0  0  0
  5 25  1  0  0  0  0
  8  5  1  0  0  0  0
  9 24  1  0  0  0  0
 10 26  1  0  0  0  0
 11 18  1  1  0  0  0
 11 28  1  0  0  0  0
 12  7  1  6  0  0  0
 12  9  1  0  0  0  0
 12 22  1  0  0  0  0
 13 14  1  0  0  0  0
 14 21  2  0  0  0  0
 15  1  1  6  0  0  0
 15 27  1  0  0  0  0
 15 21  1  0  0  0  0
 16  4  1  0  0  0  0
 17  6  1  6  0  0  0
 18  8  1  0  0  0  0
 19 33  1  6  0  0  0
 19 27  1  0  0  0  0
 19 29  1  0  0  0  0
 20 13  1  0  0  0  0
 21 10  1  0  0  0  0
 22 17  1  0  0  0  0
 23 16  1  1  0  0  0
 23  2  1  0  0  0  0
 23 12  1  0  0  0  0
 24 37  1  6  0  0  0
 26 11  1  0  0  0  0
 27 29  1  0  0  0  0
 28 17  1  0  0  0  0
 28 25  1  0  0  0  0
 29  3  1  0  0  0  0
 30 33  1  0  0  0  0
 33 31  1  0  0  0  0
 33 32  1  0  0  0  0
 34 30  1  0  0  0  0
 34 35  1  0  0  0  0
 35 31  1  0  0  0  0
 37 36  2  0  0  0  0
 37 38  1  0  0  0  0
 40 41  2  0  0  0  0
 41 39  1  0  0  0  0
M  END
>  <MODEL>
9

>  <REMARK>
 VINA RESULT:      -6.5      3.859      7.518
  Name = 
  3 active torsions:
  status: ('A' for Active; 'I' for Inactive)
    1  A    between atoms: C_3  and  C_36
    2  A    between atoms: C_17  and  C_35
    3  A    between atoms: C_23  and  N_28
                            x       y       z     vdW  Elec       q    Type
                         _______ _______ _______ _____ _____    ______ ____

>  <TORSDO>
F 3

$$$$
