=
 OpenBabel11062421413D

 41 45  0  0  1  0  0  0  0  0999 V2000
  188.8920  171.8980  140.6800 O   0  0  0  0  0  0  0  0  0  0  0  0
  188.7790  177.3090  144.7940 C   0  0  2  0  0  3  0  0  0  0  0  0
  190.2850  171.9310  140.8090 C   0  0  0  0  0  0  0  0  0  0  0  0
  190.8700  176.3700  145.4780 C   0  0  1  0  0  3  0  0  0  0  0  0
  194.0800  175.5810  144.9370 C   0  0  1  0  0  3  0  0  0  0  0  0
  190.9740  173.1930  141.2750 C   0  0  1  0  0  3  0  0  0  0  0  0
  190.0620  174.1050  142.1230 C   0  0  2  0  0  0  0  0  0  0  0  0
  192.0880  177.2110  145.1020 C   0  0  0  0  0  2  0  0  0  0  0  0
  188.6660  174.2040  141.4810 C   0  0  1  0  0  3  0  0  0  0  0  0
  188.7320  174.8490  140.1770 N   0  0  0  0  0  1  0  0  0  0  0  0
  187.7710  178.0880  146.7720 C   0  0  0  0  0  2  0  0  0  0  0  0
  194.8150  171.3190  142.5730 N   0  0  0  0  0  2  0  0  0  0  0  0
  192.7660  172.2240  145.0130 C   0  0  0  0  0  2  0  0  0  0  0  0
  193.8040  175.6010  143.4300 C   0  0  0  0  0  1  0  0  0  0  0  0
  190.6690  175.4070  142.1460 O   0  0  0  0  0  0  0  0  0  0  0  0
  186.5820  178.0360  145.7980 C   0  0  1  0  0  3  0  0  0  0  0  0
  190.3040  176.4910  142.9580 C   0  0  0  0  0  0  0  0  0  0  0  0
  190.5240  177.6590  142.5390 O   0  0  0  0  0  0  0  0  0  0  0  0
  193.3680  176.6800  145.7450 C   0  0  0  0  0  2  0  0  0  0  0  0
  194.8400  169.7810  144.3030 O   0  0  0  0  0  0  0  0  0  0  0  0
  194.9040  173.3210  144.9630 C   0  0  1  0  0  3  0  0  0  0  0  0
  194.7190  172.6600  142.0170 C   0  0  0  0  0  2  0  0  0  0  0  0
  189.9190  173.5230  143.5340 C   0  0  0  0  0  1  0  0  0  0  0  0
  194.6580  170.9780  143.9580 C   0  0  0  0  0  0  0  0  0  0  0  0
  190.1670  177.0420  146.6690 C   0  0  0  0  0  2  0  0  0  0  0  0
  194.2470  171.9590  145.0240 C   0  0  2  0  0  3  0  0  0  0  0  0
  187.0720  177.1320  144.2630 S   0  0  0  0  0  0  0  0  0  0  0  0
  189.7950  176.2910  144.3600 C   0  0  2  0  0  3  0  0  0  0  0  0
  193.9600  174.2570  145.5690 N   0  0  2  0  0  0  0  0  0  0  0  0
  193.4290  172.8430  141.2860 C   0  0  0  0  0  3  0  0  0  0  0  0
  188.0280  172.8190  141.3450 C   0  0  0  0  0  2  0  0  0  0  0  0
  190.9790  170.9200  140.3980 N   0  0  0  0  0  2  0  0  0  0  0  0
  192.2890  172.9460  141.9620 C   0  0  0  0  0  3  0  0  0  0  0  0
  188.7210  177.0550  146.2430 C   0  0  2  0  0  3  0  0  0  0  0  0
  192.6230  173.6930  145.3700 C   0  0  0  0  0  2  0  0  0  0  0  0
  184.5220  176.7830  146.9440 C   0  0  0  0  0  3  0  0  0  0  0  0
  185.4530  177.3490  146.4280 C   0  0  0  0  0  0  0  0  0  0  0  0
  196.2090  173.3220  145.7450 C   0  0  0  0  0  2  0  0  0  0  0  0
  197.3720  173.3020  144.8140 C   0  0  0  0  0  0  0  0  0  0  0  0
  197.9400  172.0950  144.4350 O   0  0  0  0  0  1  0  0  0  0  0  0
  197.8220  174.3820  144.3490 O   0  0  0  0  0  0  0  0  0  0  0  0
  1  3  1  0  0  0  0
  1 31  1  0  0  0  0
  2 27  1  6  0  0  0
  2 34  1  0  0  0  0
  3  6  1  0  0  0  0
  4  8  1  6  0  0  0
  4 25  1  0  0  0  0
  5 14  1  6  0  0  0
  5 29  1  0  0  0  0
  5 19  1  0  0  0  0
  6 33  1  1  0  0  0
  6  7  1  0  0  0  0
  7 15  1  0  0  0  0
  7 23  1  1  0  0  0
  8 19  1  0  0  0  0
  9 10  1  6  0  0  0
  9  7  1  0  0  0  0
 12 24  1  0  0  0  0
 13 35  1  0  0  0  0
 15 17  1  0  0  0  0
 16 37  1  1  0  0  0
 16 11  1  0  0  0  0
 18 17  2  0  0  0  0
 21 26  1  0  0  0  0
 21 29  1  0  0  0  0
 21 38  1  1  0  0  0
 22 12  1  0  0  0  0
 24 20  2  0  0  0  0
 24 26  1  0  0  0  0
 26 13  1  6  0  0  0
 27 16  1  0  0  0  0
 28 17  1  6  0  0  0
 28  2  1  0  0  0  0
 28  4  1  0  0  0  0
 29 35  1  6  0  0  0
 30 33  2  0  0  0  0
 30 22  1  0  0  0  0
 31  9  1  0  0  0  0
 32  3  2  0  0  0  0
 34 25  1  1  0  0  0
 34 11  1  0  0  0  0
 37 36  3  0  0  0  0
 39 38  1  0  0  0  0
 40 39  1  0  0  0  0
 41 39  2  0  0  0  0
M  END
>  <MODEL>
1

>  <REMARK>
 VINA RESULT:      -7.7      0.000      0.000
  Name = 
  3 active torsions:
  status: ('A' for Active; 'I' for Inactive)
    1  A    between atoms: C_14  and  C_26
    2  A    between atoms: C_18  and  C_27
    3  A    between atoms: C_24  and  C_26
                            x       y       z     vdW  Elec       q    Type
                         _______ _______ _______ _____ _____    ______ ____

>  <TORSDO>
F 3

$$$$
=
 OpenBabel11062421413D

 41 45  0  0  1  0  0  0  0  0999 V2000
  187.8310  177.9790  143.8390 O   0  0  0  0  0  0  0  0  0  0  0  0
  189.8020  173.1780  139.4480 C   0  0  2  0  0  3  0  0  0  0  0  0
  188.7050  177.3850  144.7550 C   0  0  0  0  0  0  0  0  0  0  0  0
  191.7330  173.2010  140.8590 C   0  0  1  0  0  3  0  0  0  0  0  0
  193.2810  172.6040  143.7700 C   0  0  1  0  0  3  0  0  0  0  0  0
  189.1740  175.9630  144.5460 C   0  0  1  0  0  3  0  0  0  0  0  0
  189.1290  175.5200  143.0680 C   0  0  2  0  0  0  0  0  0  0  0  0
  191.9230  171.9290  141.6830 C   0  0  0  0  0  2  0  0  0  0  0  0
  187.8130  175.9830  142.4150 C   0  0  1  0  0  3  0  0  0  0  0  0
  186.6640  175.3360  143.0340 N   0  0  0  0  0  1  0  0  0  0  0  0
  190.6330  172.9210  137.2620 C   0  0  0  0  0  2  0  0  0  0  0  0
  192.7870  176.1430  147.1640 N   0  0  0  0  0  2  0  0  0  0  0  0
  193.3750  176.2050  143.9050 C   0  0  0  0  0  2  0  0  0  0  0  0
  191.9220  172.6630  144.4750 C   0  0  0  0  0  1  0  0  0  0  0  0
  189.1880  174.0850  143.0540 O   0  0  0  0  0  0  0  0  0  0  0  0
  189.2050  173.4300  137.0110 C   0  0  1  0  0  3  0  0  0  0  0  0
  189.3820  173.2620  141.9340 C   0  0  0  0  0  0  0  0  0  0  0  0
  188.9040  172.0970  141.9530 O   0  0  0  0  0  0  0  0  0  0  0  0
  193.2740  171.9090  142.3970 C   0  0  0  0  0  2  0  0  0  0  0  0
  194.5310  177.5770  146.6540 O   0  0  0  0  0  0  0  0  0  0  0  0
  194.2810  174.3330  145.1100 C   0  0  1  0  0  3  0  0  0  0  0  0
  191.9830  174.9440  146.9800 C   0  0  0  0  0  2  0  0  0  0  0  0
  190.3050  176.1430  142.3070 C   0  0  0  0  0  1  0  0  0  0  0  0
  193.8800  176.5500  146.3280 C   0  0  0  0  0  0  0  0  0  0  0  0
  192.1340  172.9000  139.4060 C   0  0  0  0  0  2  0  0  0  0  0  0
  194.2740  175.8460  145.0570 C   0  0  2  0  0  3  0  0  0  0  0  0
  188.4640  174.0210  138.5960 S   0  0  0  0  0  0  0  0  0  0  0  0
  190.2590  173.6840  140.7860 C   0  0  2  0  0  3  0  0  0  0  0  0
  194.0200  173.8760  143.7460 N   0  0  2  0  0  0  0  0  0  0  0  0
  190.6370  175.2850  146.4290 C   0  0  0  0  0  3  0  0  0  0  0  0
  187.6640  177.5040  142.5030 C   0  0  0  0  0  2  0  0  0  0  0  0
  188.9990  178.0160  145.8440 N   0  0  0  0  0  2  0  0  0  0  0  0
  190.5130  175.6700  145.1630 C   0  0  0  0  0  3  0  0  0  0  0  0
  190.9820  173.4670  138.6160 C   0  0  2  0  0  3  0  0  0  0  0  0
  193.2420  174.9300  143.0910 C   0  0  0  0  0  2  0  0  0  0  0  0
  189.2500  175.4360  135.2490 C   0  0  0  0  0  3  0  0  0  0  0  0
  189.2300  174.5300  136.0460 C   0  0  0  0  0  0  0  0  0  0  0  0
  195.6340  173.8200  145.5790 C   0  0  0  0  0  2  0  0  0  0  0  0
  196.6250  173.8790  144.4680 C   0  0  0  0  0  0  0  0  0  0  0  0
  197.2260  175.0830  144.1340 O   0  0  0  0  0  1  0  0  0  0  0  0
  196.9380  172.8280  143.8510 O   0  0  0  0  0  0  0  0  0  0  0  0
  1  3  1  0  0  0  0
  2 27  1  6  0  0  0
  2 28  1  0  0  0  0
  3 32  2  0  0  0  0
  4 25  1  6  0  0  0
  4  8  1  0  0  0  0
  5 14  1  6  0  0  0
  6  3  1  0  0  0  0
  6 33  1  6  0  0  0
  7 23  1  6  0  0  0
  7  6  1  0  0  0  0
  8 19  1  0  0  0  0
  9 31  1  0  0  0  0
  9 10  1  1  0  0  0
  9  7  1  0  0  0  0
 15  7  1  0  0  0  0
 16 37  1  6  0  0  0
 16 11  1  0  0  0  0
 16 27  1  0  0  0  0
 17 18  2  0  0  0  0
 17 15  1  0  0  0  0
 19  5  1  0  0  0  0
 21 38  1  6  0  0  0
 22 12  1  0  0  0  0
 24 20  2  0  0  0  0
 24 12  1  0  0  0  0
 26 13  1  6  0  0  0
 26 21  1  0  0  0  0
 26 24  1  0  0  0  0
 28  4  1  0  0  0  0
 28 17  1  1  0  0  0
 29 35  1  6  0  0  0
 29  5  1  0  0  0  0
 29 21  1  0  0  0  0
 30 22  1  0  0  0  0
 31  1  1  0  0  0  0
 33 30  2  0  0  0  0
 34 11  1  6  0  0  0
 34 25  1  0  0  0  0
 34  2  1  0  0  0  0
 35 13  1  0  0  0  0
 36 37  3  0  0  0  0
 39 38  1  0  0  0  0
 40 39  1  0  0  0  0
 41 39  2  0  0  0  0
M  END
>  <MODEL>
2

>  <REMARK>
 VINA RESULT:      -7.5      2.731      6.102
  Name = 
  3 active torsions:
  status: ('A' for Active; 'I' for Inactive)
    1  A    between atoms: C_14  and  C_26
    2  A    between atoms: C_18  and  C_27
    3  A    between atoms: C_24  and  C_26
                            x       y       z     vdW  Elec       q    Type
                         _______ _______ _______ _____ _____    ______ ____

>  <TORSDO>
F 3

$$$$
=
 OpenBabel11062421413D

 41 45  0  0  1  0  0  0  0  0999 V2000
  189.7000  172.1360  140.1890 O   0  0  0  0  0  0  0  0  0  0  0  0
  196.0990  174.2870  140.9880 C   0  0  2  0  0  3  0  0  0  0  0  0
  189.5040  172.4760  141.5320 C   0  0  0  0  0  0  0  0  0  0  0  0
  195.0610  175.5650  142.7240 C   0  0  1  0  0  3  0  0  0  0  0  0
  193.5290  175.8350  145.6900 C   0  0  1  0  0  3  0  0  0  0  0  0
  190.6900  172.6350  142.4560 C   0  0  1  0  0  3  0  0  0  0  0  0
  191.9950  172.9950  141.7130 C   0  0  2  0  0  0  0  0  0  0  0  0
  195.4720  175.1540  144.1360 C   0  0  0  0  0  2  0  0  0  0  0  0
  192.1380  172.1320  140.4450 C   0  0  1  0  0  3  0  0  0  0  0  0
  192.2760  170.7220  140.7830 N   0  0  0  0  0  1  0  0  0  0  0  0
  197.6830  175.7300  140.0170 C   0  0  0  0  0  2  0  0  0  0  0  0
  188.6610  175.0660  145.6050 N   0  0  0  0  0  2  0  0  0  0  0  0
  190.7200  176.7300  143.6150 C   0  0  0  0  0  2  0  0  0  0  0  0
  193.0890  174.3720  145.5670 C   0  0  0  0  0  1  0  0  0  0  0  0
  193.0830  172.7120  142.6070 O   0  0  0  0  0  0  0  0  0  0  0  0
  197.5350  174.6380  138.9450 C   0  0  1  0  0  3  0  0  0  0  0  0
  194.4270  173.0750  142.4370 C   0  0  0  0  0  0  0  0  0  0  0  0
  195.3160  172.3570  142.9660 O   0  0  0  0  0  0  0  0  0  0  0  0
  194.9530  176.1320  145.1880 C   0  0  0  0  0  2  0  0  0  0  0  0
  187.8280  177.1680  145.1050 O   0  0  0  0  0  0  0  0  0  0  0  0
  191.2980  176.6970  145.9480 C   0  0  1  0  0  3  0  0  0  0  0  0
  189.7250  174.1130  145.8820 C   0  0  0  0  0  2  0  0  0  0  0  0
  191.9660  174.4730  141.3060 C   0  0  0  0  0  1  0  0  0  0  0  0
  188.8480  176.4430  145.2450 C   0  0  0  0  0  0  0  0  0  0  0  0
  196.2210  176.3550  142.0950 C   0  0  0  0  0  2  0  0  0  0  0  0
  190.1920  177.0690  144.9830 C   0  0  2  0  0  3  0  0  0  0  0  0
  196.0870  173.5630  139.3440 S   0  0  0  0  0  0  0  0  0  0  0  0
  194.8180  174.3650  141.7690 C   0  0  2  0  0  3  0  0  0  0  0  0
  192.5490  176.8170  145.2010 N   0  0  2  0  0  0  0  0  0  0  0  0
  189.8950  173.1590  144.7450 C   0  0  0  0  0  3  0  0  0  0  0  0
  190.9410  172.3290  139.5120 C   0  0  0  0  0  2  0  0  0  0  0  0
  188.3000  172.5210  142.0010 N   0  0  0  0  0  2  0  0  0  0  0  0
  190.4400  173.5720  143.6050 C   0  0  0  0  0  3  0  0  0  0  0  0
  196.3680  175.7140  140.7390 C   0  0  2  0  0  3  0  0  0  0  0  0
  192.2210  176.5850  143.7920 C   0  0  0  0  0  2  0  0  0  0  0  0
  197.1720  175.7590  136.5490 C   0  0  0  0  0  3  0  0  0  0  0  0
  197.3360  175.2540  137.6310 C   0  0  0  0  0  0  0  0  0  0  0  0
  191.3110  177.6440  147.1380 C   0  0  0  0  0  2  0  0  0  0  0  0
  191.3960  176.8770  148.4110 C   0  0  0  0  0  0  0  0  0  0  0  0
  191.6060  177.5410  149.6110 O   0  0  0  0  0  1  0  0  0  0  0  0
  191.2510  175.6270  148.4020 O   0  0  0  0  0  0  0  0  0  0  0  0
  1  3  1  0  0  0  0
  2 27  1  6  0  0  0
  2 28  1  0  0  0  0
  3 32  2  0  0  0  0
  3  6  1  0  0  0  0
  4 25  1  6  0  0  0
  4  8  1  0  0  0  0
  5 14  1  6  0  0  0
  6 33  1  1  0  0  0
  7 23  1  6  0  0  0
  7  6  1  0  0  0  0
  7 15  1  0  0  0  0
  8 19  1  0  0  0  0
  9 10  1  1  0  0  0
  9  7  1  0  0  0  0
 12 22  1  0  0  0  0
 13 35  1  0  0  0  0
 16 37  1  6  0  0  0
 16 27  1  0  0  0  0
 16 11  1  0  0  0  0
 17 15  1  0  0  0  0
 17 18  2  0  0  0  0
 19  5  1  0  0  0  0
 20 24  2  0  0  0  0
 21 38  1  1  0  0  0
 24 12  1  0  0  0  0
 26 13  1  6  0  0  0
 26 24  1  0  0  0  0
 26 21  1  0  0  0  0
 28 17  1  1  0  0  0
 28  4  1  0  0  0  0
 29 35  1  6  0  0  0
 29  5  1  0  0  0  0
 29 21  1  0  0  0  0
 30 22  1  0  0  0  0
 31  1  1  0  0  0  0
 31  9  1  0  0  0  0
 33 30  2  0  0  0  0
 34 11  1  1  0  0  0
 34  2  1  0  0  0  0
 34 25  1  0  0  0  0
 36 37  3  0  0  0  0
 38 39  1  0  0  0  0
 39 40  1  0  0  0  0
 41 39  2  0  0  0  0
M  END
>  <MODEL>
3

>  <REMARK>
 VINA RESULT:      -7.3      3.436      7.189
  Name = 
  3 active torsions:
  status: ('A' for Active; 'I' for Inactive)
    1  A    between atoms: C_14  and  C_26
    2  A    between atoms: C_18  and  C_27
    3  A    between atoms: C_24  and  C_26
                            x       y       z     vdW  Elec       q    Type
                         _______ _______ _______ _____ _____    ______ ____

>  <TORSDO>
F 3

$$$$
=
 OpenBabel11062421413D

 41 45  0  0  1  0  0  0  0  0999 V2000
  188.2640  176.2090  142.3860 O   0  0  0  0  0  0  0  0  0  0  0  0
  191.4330  170.8850  139.5880 C   0  0  2  0  0  3  0  0  0  0  0  0
  189.1040  176.0250  143.4900 C   0  0  0  0  0  0  0  0  0  0  0  0
  193.1600  171.5970  141.0820 C   0  0  1  0  0  3  0  0  0  0  0  0
  194.4270  172.0260  144.1540 C   0  0  1  0  0  3  0  0  0  0  0  0
  189.8010  174.7010  143.7020 C   0  0  1  0  0  3  0  0  0  0  0  0
  189.9970  173.9020  142.3950 C   0  0  2  0  0  0  0  0  0  0  0  0
  193.4400  170.6250  142.2260 C   0  0  0  0  0  2  0  0  0  0  0  0
  188.7130  173.9490  141.5460 C   0  0  1  0  0  3  0  0  0  0  0  0
  187.6090  173.2870  142.2280 N   0  0  0  0  0  1  0  0  0  0  0  0
  192.5450  170.2400  137.6170 C   0  0  0  0  0  2  0  0  0  0  0  0
  193.0140  176.1570  146.4390 N   0  0  0  0  0  2  0  0  0  0  0  0
  193.9640  175.5060  143.3340 C   0  0  0  0  0  2  0  0  0  0  0  0
  193.0010  172.0200  144.7150 C   0  0  0  0  0  1  0  0  0  0  0  0
  190.2710  172.5420  142.7670 O   0  0  0  0  0  0  0  0  0  0  0  0
  191.0950  170.4120  137.1340 C   0  0  1  0  0  3  0  0  0  0  0  0
  190.7160  171.5130  141.9240 C   0  0  0  0  0  0  0  0  0  0  0  0
  190.4190  170.3240  142.2160 O   0  0  0  0  0  0  0  0  0  0  0  0
  194.6850  171.0200  143.0180 C   0  0  0  0  0  2  0  0  0  0  0  0
  194.5720  177.7010  145.6980 O   0  0  0  0  0  0  0  0  0  0  0  0
  194.9930  174.1820  145.0570 C   0  0  1  0  0  3  0  0  0  0  0  0
  192.4260  174.8290  146.5210 C   0  0  0  0  0  2  0  0  0  0  0  0
  191.1480  174.5110  141.5850 C   0  0  0  0  0  1  0  0  0  0  0  0
  194.1240  176.5280  145.6090 C   0  0  0  0  0  0  0  0  0  0  0  0
  193.7690  171.0180  139.7950 C   0  0  0  0  0  2  0  0  0  0  0  0
  194.7660  175.6090  144.6040 C   0  0  2  0  0  3  0  0  0  0  0  0
  190.0930  171.2420  138.4460 S   0  0  0  0  0  0  0  0  0  0  0  0
  191.6490  171.7810  140.7740 C   0  0  2  0  0  3  0  0  0  0  0  0
  194.9650  173.3610  143.8480 N   0  0  2  0  0  0  0  0  0  0  0  0
  191.1180  174.7810  145.8010 C   0  0  0  0  0  3  0  0  0  0  0  0
  188.3290  175.3940  141.2160 C   0  0  0  0  0  2  0  0  0  0  0  0
  189.1700  176.9500  144.3910 N   0  0  0  0  0  2  0  0  0  0  0  0
  191.0880  174.8100  144.4720 C   0  0  0  0  0  3  0  0  0  0  0  0
  192.6460  171.1590  138.7990 C   0  0  2  0  0  3  0  0  0  0  0  0
  194.1210  174.0660  142.8800 C   0  0  0  0  0  2  0  0  0  0  0  0
  191.0500  171.8920  134.9120 C   0  0  0  0  0  3  0  0  0  0  0  0
  191.0690  171.2240  135.9160 C   0  0  0  0  0  0  0  0  0  0  0  0
  196.3430  174.0480  145.7450 C   0  0  0  0  0  2  0  0  0  0  0  0
  197.4230  173.8580  144.7370 C   0  0  0  0  0  0  0  0  0  0  0  0
  197.9170  172.5890  144.4760 O   0  0  0  0  0  1  0  0  0  0  0  0
  197.8680  174.8490  144.1000 O   0  0  0  0  0  0  0  0  0  0  0  0
  1  3  1  0  0  0  0
  2 27  1  6  0  0  0
  2 28  1  0  0  0  0
  3  6  1  0  0  0  0
  3 32  2  0  0  0  0
  4 25  1  6  0  0  0
  4  8  1  0  0  0  0
  5 14  1  6  0  0  0
  6 33  1  6  0  0  0
  7 23  1  6  0  0  0
  7 15  1  0  0  0  0
  7  6  1  0  0  0  0
  8 19  1  0  0  0  0
  9 10  1  1  0  0  0
  9  7  1  0  0  0  0
 12 22  1  0  0  0  0
 16 37  1  6  0  0  0
 16 11  1  0  0  0  0
 16 27  1  0  0  0  0
 17 18  2  0  0  0  0
 17 15  1  0  0  0  0
 19  5  1  0  0  0  0
 21 38  1  6  0  0  0
 24 20  2  0  0  0  0
 24 12  1  0  0  0  0
 26 13  1  6  0  0  0
 26 21  1  0  0  0  0
 26 24  1  0  0  0  0
 28  4  1  0  0  0  0
 28 17  1  1  0  0  0
 29 35  1  6  0  0  0
 29  5  1  0  0  0  0
 29 21  1  0  0  0  0
 30 22  1  0  0  0  0
 31  9  1  0  0  0  0
 31  1  1  0  0  0  0
 33 30  2  0  0  0  0
 34 11  1  6  0  0  0
 34  2  1  0  0  0  0
 34 25  1  0  0  0  0
 35 13  1  0  0  0  0
 36 37  3  0  0  0  0
 39 38  1  0  0  0  0
 40 39  1  0  0  0  0
 41 39  2  0  0  0  0
M  END
>  <MODEL>
4

>  <REMARK>
 VINA RESULT:      -6.9      2.744      6.538
  Name = 
  3 active torsions:
  status: ('A' for Active; 'I' for Inactive)
    1  A    between atoms: C_14  and  C_26
    2  A    between atoms: C_18  and  C_27
    3  A    between atoms: C_24  and  C_26
                            x       y       z     vdW  Elec       q    Type
                         _______ _______ _______ _____ _____    ______ ____

>  <TORSDO>
F 3

$$$$
=
 OpenBabel11062421413D

 41 45  0  0  1  0  0  0  0  0999 V2000
  194.7530  176.7970  145.3590 O   0  0  0  0  0  0  0  0  0  0  0  0
  188.3080  175.1240  143.9900 C   0  0  2  0  0  3  0  0  0  0  0  0
  195.1180  175.6720  144.6130 C   0  0  0  0  0  0  0  0  0  0  0  0
  189.3670  174.0680  142.1230 C   0  0  1  0  0  3  0  0  0  0  0  0
  191.3300  171.7120  140.7740 C   0  0  1  0  0  3  0  0  0  0  0  0
  194.1140  174.5720  144.3560 C   0  0  1  0  0  3  0  0  0  0  0  0
  192.6500  175.0600  144.4200 C   0  0  2  0  0  0  0  0  0  0  0  0
  189.3120  172.5420  142.1510 C   0  0  0  0  0  2  0  0  0  0  0  0
  192.4530  175.9910  145.6300 C   0  0  1  0  0  3  0  0  0  0  0  0
  192.6650  175.2770  146.8820 N   0  0  0  0  0  1  0  0  0  0  0  0
  186.3160  176.0410  143.1380 C   0  0  0  0  0  2  0  0  0  0  0  0
  196.1530  172.7210  140.8410 N   0  0  0  0  0  2  0  0  0  0  0  0
  193.4750  174.5410  140.1480 C   0  0  0  0  0  2  0  0  0  0  0  0
  192.0240  171.5500  142.1320 C   0  0  0  0  0  1  0  0  0  0  0  0
  191.8220  173.8960  144.5760 O   0  0  0  0  0  0  0  0  0  0  0  0
  186.4820  176.7980  144.4660 C   0  0  1  0  0  3  0  0  0  0  0  0
  190.4250  173.8380  144.4710 C   0  0  0  0  0  0  0  0  0  0  0  0
  189.8090  172.9500  145.1190 O   0  0  0  0  0  0  0  0  0  0  0  0
  189.8080  171.9290  140.8430 C   0  0  0  0  0  2  0  0  0  0  0  0
  196.4420  173.9270  138.8870 O   0  0  0  0  0  0  0  0  0  0  0  0
  193.3510  172.2110  139.5700 C   0  0  1  0  0  3  0  0  0  0  0  0
  195.3710  171.9670  141.8090 C   0  0  0  0  0  2  0  0  0  0  0  0
  192.3070  175.8310  143.1400 C   0  0  0  0  0  1  0  0  0  0  0  0
  195.6320  173.3720  139.6740 C   0  0  0  0  0  0  0  0  0  0  0  0
  187.9780  174.5940  141.7260 C   0  0  0  0  0  2  0  0  0  0  0  0
  194.1650  173.4680  139.3490 C   0  0  2  0  0  3  0  0  0  0  0  0
  188.1650  176.4800  145.1600 S   0  0  0  0  0  0  0  0  0  0  0  0
  189.6680  174.7090  143.5050 C   0  0  2  0  0  3  0  0  0  0  0  0
  191.9870  172.6520  139.8530 N   0  0  2  0  0  0  0  0  0  0  0  0
  195.1910  172.7460  143.0710 C   0  0  0  0  0  3  0  0  0  0  0  0
  193.3960  177.1950  145.5520 C   0  0  0  0  0  2  0  0  0  0  0  0
  196.3540  175.5230  144.2620 N   0  0  0  0  0  2  0  0  0  0  0  0
  194.3750  173.7950  143.0950 C   0  0  0  0  0  3  0  0  0  0  0  0
  187.7170  175.6650  142.7550 C   0  0  2  0  0  3  0  0  0  0  0  0
  192.0910  173.9890  140.4430 C   0  0  0  0  0  2  0  0  0  0  0  0
  186.1670  179.4180  144.0610 C   0  0  0  0  0  3  0  0  0  0  0  0
  186.3110  178.2350  144.2450 C   0  0  0  0  0  0  0  0  0  0  0  0
  193.3660  171.3380  138.3240 C   0  0  0  0  0  2  0  0  0  0  0  0
  193.9030  169.9860  138.6440 C   0  0  0  0  0  0  0  0  0  0  0  0
  195.2660  169.8030  138.8240 O   0  0  0  0  0  1  0  0  0  0  0  0
  193.1150  169.0140  138.7790 O   0  0  0  0  0  0  0  0  0  0  0  0
  1 31  1  0  0  0  0
  2 27  1  1  0  0  0
  3  1  1  0  0  0  0
  4 25  1  1  0  0  0
  4  8  1  0  0  0  0
  4 28  1  0  0  0  0
  5 19  1  0  0  0  0
  5 14  1  1  0  0  0
  6 33  1  6  0  0  0
  6  7  1  0  0  0  0
  6  3  1  0  0  0  0
  7 23  1  6  0  0  0
  7 15  1  0  0  0  0
  7  9  1  0  0  0  0
  9 10  1  1  0  0  0
 11 16  1  0  0  0  0
 12 22  1  0  0  0  0
 13 35  1  0  0  0  0
 16 37  1  6  0  0  0
 16 27  1  0  0  0  0
 17 15  1  0  0  0  0
 17 18  2  0  0  0  0
 19  8  1  0  0  0  0
 20 24  2  0  0  0  0
 21 38  1  6  0  0  0
 21 29  1  0  0  0  0
 22 30  1  0  0  0  0
 24 12  1  0  0  0  0
 26 21  1  0  0  0  0
 26 24  1  0  0  0  0
 26 13  1  1  0  0  0
 28  2  1  0  0  0  0
 28 17  1  1  0  0  0
 29 35  1  1  0  0  0
 29  5  1  0  0  0  0
 30 33  2  0  0  0  0
 31  9  1  0  0  0  0
 32  3  2  0  0  0  0
 34 25  1  6  0  0  0
 34 11  1  0  0  0  0
 34  2  1  0  0  0  0
 36 37  3  0  0  0  0
 38 39  1  0  0  0  0
 39 41  2  0  0  0  0
 39 40  1  0  0  0  0
M  END
>  <MODEL>
5

>  <REMARK>
 VINA RESULT:      -6.9      2.592      5.515
  Name = 
  3 active torsions:
  status: ('A' for Active; 'I' for Inactive)
    1  A    between atoms: C_14  and  C_26
    2  A    between atoms: C_18  and  C_27
    3  A    between atoms: C_24  and  C_26
                            x       y       z     vdW  Elec       q    Type
                         _______ _______ _______ _____ _____    ______ ____

>  <TORSDO>
F 3

$$$$
=
 OpenBabel11062421413D

 41 45  0  0  1  0  0  0  0  0999 V2000
  189.2820  172.4980  139.6740 O   0  0  0  0  0  0  0  0  0  0  0  0
  196.0450  172.7640  140.3170 C   0  0  2  0  0  3  0  0  0  0  0  0
  189.2230  172.7690  141.0450 C   0  0  0  0  0  0  0  0  0  0  0  0
  195.4430  174.1300  142.1850 C   0  0  1  0  0  3  0  0  0  0  0  0
  194.1220  174.5640  145.2340 C   0  0  1  0  0  3  0  0  0  0  0  0
  190.4310  172.5260  141.9200 C   0  0  1  0  0  3  0  0  0  0  0  0
  191.7640  172.5770  141.1430 C   0  0  2  0  0  0  0  0  0  0  0  0
  195.7620  173.5100  143.5440 C   0  0  0  0  0  2  0  0  0  0  0  0
  191.6320  171.8130  139.8120 C   0  0  1  0  0  3  0  0  0  0  0  0
  191.3880  170.3960  140.0430 N   0  0  0  0  0  1  0  0  0  0  0  0
  197.9370  173.7970  139.3760 C   0  0  0  0  0  2  0  0  0  0  0  0
  189.2300  175.1530  145.3260 N   0  0  0  0  0  2  0  0  0  0  0  0
  191.6120  176.3520  143.3620 C   0  0  0  0  0  2  0  0  0  0  0  0
  193.2960  173.2900  145.0280 C   0  0  0  0  0  1  0  0  0  0  0  0
  192.7570  171.9380  141.9620 O   0  0  0  0  0  0  0  0  0  0  0  0
  197.4670  172.8770  138.2370 C   0  0  1  0  0  3  0  0  0  0  0  0
  194.1440  171.9370  141.7540 C   0  0  0  0  0  0  0  0  0  0  0  0
  194.8160  170.9640  142.1880 O   0  0  0  0  0  0  0  0  0  0  0  0
  195.5590  174.5040  144.6870 C   0  0  0  0  0  2  0  0  0  0  0  0
  188.9910  177.4340  145.0150 O   0  0  0  0  0  0  0  0  0  0  0  0
  192.2200  175.9740  145.6570 C   0  0  1  0  0  3  0  0  0  0  0  0
  189.9990  173.9280  145.4840 C   0  0  0  0  0  2  0  0  0  0  0  0
  192.1300  174.0350  140.8430 C   0  0  0  0  0  1  0  0  0  0  0  0
  189.7760  176.4510  145.0550 C   0  0  0  0  0  0  0  0  0  0  0  0
  196.7580  174.6250  141.5600 C   0  0  0  0  0  2  0  0  0  0  0  0
  191.2330  176.7090  144.7740 C   0  0  2  0  0  3  0  0  0  0  0  0
  195.7910  172.2050  138.6280 S   0  0  0  0  0  0  0  0  0  0  0  0
  194.8550  173.1230  141.1610 C   0  0  2  0  0  3  0  0  0  0  0  0
  193.4360  175.8120  144.8620 N   0  0  2  0  0  0  0  0  0  0  0  0
  189.8710  173.0590  144.2760 C   0  0  0  0  0  3  0  0  0  0  0  0
  190.5100  172.4020  138.9530 C   0  0  0  0  0  2  0  0  0  0  0  0
  188.0900  173.1000  141.5720 N   0  0  0  0  0  2  0  0  0  0  0  0
  190.4780  173.3990  143.1430 C   0  0  0  0  0  3  0  0  0  0  0  0
  196.6870  174.0790  140.1560 C   0  0  2  0  0  3  0  0  0  0  0  0
  193.0200  175.7920  143.4580 C   0  0  0  0  0  2  0  0  0  0  0  0
  197.3650  174.2470  135.9480 C   0  0  0  0  0  3  0  0  0  0  0  0
  197.4100  173.6270  136.9810 C   0  0  0  0  0  0  0  0  0  0  0  0
  192.5230  176.7840  146.9090 C   0  0  0  0  0  2  0  0  0  0  0  0
  191.4680  176.5660  147.9360 C   0  0  0  0  0  0  0  0  0  0  0  0
  191.2040  175.2860  148.4030 O   0  0  0  0  0  1  0  0  0  0  0  0
  190.8330  177.5470  148.4020 O   0  0  0  0  0  0  0  0  0  0  0  0
  1  3  1  0  0  0  0
  2 27  1  6  0  0  0
  2 28  1  0  0  0  0
  3 32  2  0  0  0  0
  3  6  1  0  0  0  0
  4 25  1  6  0  0  0
  4  8  1  0  0  0  0
  5 14  1  6  0  0  0
  6 33  1  1  0  0  0
  7 23  1  6  0  0  0
  7  6  1  0  0  0  0
  7 15  1  0  0  0  0
  8 19  1  0  0  0  0
  9 10  1  1  0  0  0
  9  7  1  0  0  0  0
 12 22  1  0  0  0  0
 13 35  1  0  0  0  0
 16 37  1  6  0  0  0
 16 27  1  0  0  0  0
 16 11  1  0  0  0  0
 17 15  1  0  0  0  0
 17 18  2  0  0  0  0
 19  5  1  0  0  0  0
 20 24  2  0  0  0  0
 21 38  1  1  0  0  0
 24 12  1  0  0  0  0
 26 13  1  6  0  0  0
 26 24  1  0  0  0  0
 26 21  1  0  0  0  0
 28 17  1  1  0  0  0
 28  4  1  0  0  0  0
 29 35  1  6  0  0  0
 29  5  1  0  0  0  0
 29 21  1  0  0  0  0
 30 22  1  0  0  0  0
 31  1  1  0  0  0  0
 31  9  1  0  0  0  0
 33 30  2  0  0  0  0
 34 11  1  1  0  0  0
 34  2  1  0  0  0  0
 34 25  1  0  0  0  0
 36 37  3  0  0  0  0
 38 39  1  0  0  0  0
 39 41  2  0  0  0  0
 39 40  1  0  0  0  0
M  END
>  <MODEL>
6

>  <REMARK>
 VINA RESULT:      -6.8      3.317      7.395
  Name = 
  3 active torsions:
  status: ('A' for Active; 'I' for Inactive)
    1  A    between atoms: C_14  and  C_26
    2  A    between atoms: C_18  and  C_27
    3  A    between atoms: C_24  and  C_26
                            x       y       z     vdW  Elec       q    Type
                         _______ _______ _______ _____ _____    ______ ____

>  <TORSDO>
F 3

$$$$
=
 OpenBabel11062421413D

 41 45  0  0  1  0  0  0  0  0999 V2000
  187.7910  175.6530  143.8020 O   0  0  0  0  0  0  0  0  0  0  0  0
  190.7220  173.2210  138.1710 C   0  0  2  0  0  3  0  0  0  0  0  0
  188.9670  175.2970  144.4700 C   0  0  0  0  0  0  0  0  0  0  0  0
  192.6950  173.7440  139.4170 C   0  0  1  0  0  3  0  0  0  0  0  0
  194.8150  173.2300  141.9600 C   0  0  1  0  0  3  0  0  0  0  0  0
  189.9120  174.2890  143.8590 C   0  0  1  0  0  3  0  0  0  0  0  0
  189.7990  174.2050  142.3210 C   0  0  2  0  0  0  0  0  0  0  0  0
  193.5020  172.5240  139.8550 C   0  0  0  0  0  2  0  0  0  0  0  0
  188.3180  174.2020  141.8980 C   0  0  1  0  0  3  0  0  0  0  0  0
  187.6340  173.0140  142.3890 N   0  0  0  0  0  1  0  0  0  0  0  0
  191.2110  173.8250  135.9510 C   0  0  0  0  0  2  0  0  0  0  0  0
  193.5490  175.3920  146.2040 N   0  0  0  0  0  2  0  0  0  0  0  0
  193.5140  176.4100  143.0530 C   0  0  0  0  0  2  0  0  0  0  0  0
  193.6790  172.5550  142.7360 C   0  0  0  0  0  1  0  0  0  0  0  0
  190.4110  172.9690  141.9180 O   0  0  0  0  0  0  0  0  0  0  0  0
  189.6760  173.7270  135.9320 C   0  0  1  0  0  3  0  0  0  0  0  0
  190.7220  172.5730  140.6090 C   0  0  0  0  0  0  0  0  0  0  0  0
  190.7490  171.3420  140.3430 O   0  0  0  0  0  0  0  0  0  0  0  0
  194.8510  172.9170  140.4540 C   0  0  0  0  0  2  0  0  0  0  0  0
  194.4810  177.5000  145.9940 O   0  0  0  0  0  0  0  0  0  0  0  0
  195.2670  174.8790  143.6520 C   0  0  1  0  0  3  0  0  0  0  0  0
  193.2590  174.0390  145.7540 C   0  0  0  0  0  2  0  0  0  0  0  0
  190.4940  175.4150  141.6860 C   0  0  0  0  0  1  0  0  0  0  0  0
  194.2390  176.3940  145.4440 C   0  0  0  0  0  0  0  0  0  0  0  0
  192.9340  173.9670  137.9140 C   0  0  0  0  0  2  0  0  0  0  0  0
  194.6600  176.2190  144.0090 C   0  0  2  0  0  3  0  0  0  0  0  0
  189.0390  173.5880  137.6600 S   0  0  0  0  0  0  0  0  0  0  0  0
  191.1600  173.5650  139.5660 C   0  0  2  0  0  3  0  0  0  0  0  0
  194.9830  174.6660  142.2350 N   0  0  2  0  0  0  0  0  0  0  0  0
  191.8160  173.8940  145.3980 C   0  0  0  0  0  3  0  0  0  0  0  0
  187.6040  175.4590  142.4010 C   0  0  0  0  0  2  0  0  0  0  0  0
  189.1670  175.7370  145.6690 N   0  0  0  0  0  2  0  0  0  0  0  0
  191.3420  174.4590  144.2920 C   0  0  0  0  0  3  0  0  0  0  0  0
  191.5380  174.1550  137.3770 C   0  0  2  0  0  3  0  0  0  0  0  0
  193.7570  175.4110  141.9360 C   0  0  0  0  0  2  0  0  0  0  0  0
  188.6390  175.9000  134.7780 C   0  0  0  0  0  3  0  0  0  0  0  0
  189.1090  174.9190  135.2990 C   0  0  0  0  0  0  0  0  0  0  0  0
  196.7700  174.8940  143.8830 C   0  0  0  0  0  2  0  0  0  0  0  0
  197.4370  175.7940  142.9030 C   0  0  0  0  0  0  0  0  0  0  0  0
  197.9410  175.2810  141.7170 O   0  0  0  0  0  0  0  0  0  0  0  0
  197.5190  177.0280  143.1380 O   0  0  0  0  0  1  0  0  0  0  0  0
  1  3  1  0  0  0  0
  2 27  1  1  0  0  0
  2 28  1  0  0  0  0
  3 32  2  0  0  0  0
  4 25  1  6  0  0  0
  4 28  1  0  0  0  0
  4  8  1  0  0  0  0
  5 29  1  0  0  0  0
  5 14  1  6  0  0  0
  6 33  1  6  0  0  0
  6  3  1  0  0  0  0
  7 23  1  6  0  0  0
  7  6  1  0  0  0  0
  8 19  1  0  0  0  0
  9  7  1  0  0  0  0
  9 10  1  1  0  0  0
  9 31  1  0  0  0  0
 15  7  1  0  0  0  0
 16 37  1  1  0  0  0
 16 11  1  0  0  0  0
 16 27  1  0  0  0  0
 17 15  1  0  0  0  0
 18 17  2  0  0  0  0
 19  5  1  0  0  0  0
 21 38  1  6  0  0  0
 21 26  1  0  0  0  0
 22 12  1  0  0  0  0
 24 20  2  0  0  0  0
 24 12  1  0  0  0  0
 26 13  1  6  0  0  0
 26 24  1  0  0  0  0
 28 17  1  1  0  0  0
 29 35  1  1  0  0  0
 29 21  1  0  0  0  0
 30 22  1  0  0  0  0
 31  1  1  0  0  0  0
 33 30  2  0  0  0  0
 34 11  1  6  0  0  0
 34 25  1  0  0  0  0
 34  2  1  0  0  0  0
 35 13  1  0  0  0  0
 36 37  3  0  0  0  0
 39 41  1  0  0  0  0
 39 38  1  0  0  0  0
 40 39  2  0  0  0  0
M  END
>  <MODEL>
7

>  <REMARK>
 VINA RESULT:      -6.5      3.117      6.238
  Name = 
  3 active torsions:
  status: ('A' for Active; 'I' for Inactive)
    1  A    between atoms: C_14  and  C_26
    2  A    between atoms: C_18  and  C_27
    3  A    between atoms: C_24  and  C_26
                            x       y       z     vdW  Elec       q    Type
                         _______ _______ _______ _____ _____    ______ ____

>  <TORSDO>
F 3

$$$$
=
 OpenBabel11062421413D

 41 45  0  0  1  0  0  0  0  0999 V2000
  187.9980  174.9820  138.9260 O   0  0  0  0  0  0  0  0  0  0  0  0
  192.6690  170.2540  140.3540 C   0  0  2  0  0  3  0  0  0  0  0  0
  188.0770  175.3500  140.2740 C   0  0  0  0  0  0  0  0  0  0  0  0
  193.1700  171.8060  142.1030 C   0  0  1  0  0  3  0  0  0  0  0  0
  192.4270  173.3870  144.9620 C   0  0  1  0  0  3  0  0  0  0  0  0
  188.6490  174.3900  141.2910 C   0  0  1  0  0  3  0  0  0  0  0  0
  189.6240  173.3630  140.6750 C   0  0  2  0  0  0  0  0  0  0  0  0
  192.8410  171.2980  143.5050 C   0  0  0  0  0  2  0  0  0  0  0  0
  189.0490  172.8090  139.3580 C   0  0  1  0  0  3  0  0  0  0  0  0
  187.8200  172.0640  139.5940 N   0  0  0  0  0  1  0  0  0  0  0  0
  194.7550  169.4550  139.6160 C   0  0  0  0  0  2  0  0  0  0  0  0
  189.5940  177.3880  144.4630 N   0  0  0  0  0  2  0  0  0  0  0  0
  192.1920  176.2340  142.7640 C   0  0  0  0  0  2  0  0  0  0  0  0
  190.9420  173.1200  144.6940 C   0  0  0  0  0  1  0  0  0  0  0  0
  189.7630  172.2910  141.6210 O   0  0  0  0  0  0  0  0  0  0  0  0
  193.8270  169.0660  138.4540 C   0  0  1  0  0  3  0  0  0  0  0  0
  190.7000  171.2480  141.5780 C   0  0  0  0  0  0  0  0  0  0  0  0
  190.4010  170.1470  142.1130 O   0  0  0  0  0  0  0  0  0  0  0  0
  193.3750  172.2320  144.5900 C   0  0  0  0  0  2  0  0  0  0  0  0
  191.1470  179.0590  144.0680 O   0  0  0  0  0  0  0  0  0  0  0  0
  192.1800  175.7740  145.1230 C   0  0  1  0  0  3  0  0  0  0  0  0
  189.1890  176.0190  144.7420 C   0  0  0  0  0  2  0  0  0  0  0  0
  190.9690  174.0390  140.3830 C   0  0  0  0  0  1  0  0  0  0  0  0
  190.9390  177.8270  144.2250 C   0  0  0  0  0  0  0  0  0  0  0  0
  194.4520  171.1050  141.6240 C   0  0  0  0  0  2  0  0  0  0  0  0
  192.1190  176.8990  144.1120 C   0  0  2  0  0  3  0  0  0  0  0  0
  192.1870  169.8900  138.6620 S   0  0  0  0  0  0  0  0  0  0  0  0
  192.0910  171.4570  141.0430 C   0  0  2  0  0  3  0  0  0  0  0  0
  192.9180  174.6880  144.4810 N   0  0  2  0  0  0  0  0  0  0  0  0
  188.5300  175.4050  143.5500 C   0  0  0  0  0  3  0  0  0  0  0  0
  188.7890  173.9390  138.3580 C   0  0  0  0  0  2  0  0  0  0  0  0
  187.5350  176.4600  140.6550 N   0  0  0  0  0  2  0  0  0  0  0  0
  189.2560  175.0680  142.4880 C   0  0  0  0  0  3  0  0  0  0  0  0
  194.0840  170.6450  140.2360 C   0  0  2  0  0  3  0  0  0  0  0  0
  192.7100  174.8330  143.0380 C   0  0  0  0  0  2  0  0  0  0  0  0
  194.9110  169.8180  136.1330 C   0  0  0  0  0  3  0  0  0  0  0  0
  194.4210  169.4800  137.1810 C   0  0  0  0  0  0  0  0  0  0  0  0
  192.9080  176.2230  146.3810 C   0  0  0  0  0  2  0  0  0  0  0  0
  194.3550  176.4290  146.0970 C   0  0  0  0  0  0  0  0  0  0  0  0
  194.8170  177.6770  145.7060 O   0  0  0  0  0  0  0  0  0  0  0  0
  195.1640  175.4760  146.2400 O   0  0  0  0  0  1  0  0  0  0  0  0
  1  3  1  0  0  0  0
  2 27  1  6  0  0  0
  2 28  1  0  0  0  0
  3 32  2  0  0  0  0
  3  6  1  0  0  0  0
  4 25  1  6  0  0  0
  4  8  1  0  0  0  0
  5 14  1  6  0  0  0
  6 33  1  1  0  0  0
  7 23  1  6  0  0  0
  7  6  1  0  0  0  0
  7 15  1  0  0  0  0
  8 19  1  0  0  0  0
  9 10  1  1  0  0  0
  9  7  1  0  0  0  0
 12 22  1  0  0  0  0
 13 35  1  0  0  0  0
 16 37  1  6  0  0  0
 16 27  1  0  0  0  0
 16 11  1  0  0  0  0
 17 15  1  0  0  0  0
 17 18  2  0  0  0  0
 19  5  1  0  0  0  0
 20 24  2  0  0  0  0
 21 38  1  1  0  0  0
 24 12  1  0  0  0  0
 26 13  1  6  0  0  0
 26 24  1  0  0  0  0
 26 21  1  0  0  0  0
 28 17  1  1  0  0  0
 28  4  1  0  0  0  0
 29 35  1  6  0  0  0
 29  5  1  0  0  0  0
 29 21  1  0  0  0  0
 30 22  1  0  0  0  0
 31  1  1  0  0  0  0
 31  9  1  0  0  0  0
 33 30  2  0  0  0  0
 34 11  1  1  0  0  0
 34  2  1  0  0  0  0
 34 25  1  0  0  0  0
 36 37  3  0  0  0  0
 39 41  1  0  0  0  0
 39 38  1  0  0  0  0
 40 39  2  0  0  0  0
M  END
>  <MODEL>
8

>  <REMARK>
 VINA RESULT:      -6.5      3.072      7.182
  Name = 
  3 active torsions:
  status: ('A' for Active; 'I' for Inactive)
    1  A    between atoms: C_14  and  C_26
    2  A    between atoms: C_18  and  C_27
    3  A    between atoms: C_24  and  C_26
                            x       y       z     vdW  Elec       q    Type
                         _______ _______ _______ _____ _____    ______ ____

>  <TORSDO>
F 3

$$$$
=
 OpenBabel11062421413D

 41 45  0  0  1  0  0  0  0  0999 V2000
  189.3450  173.7780  138.6150 O   0  0  0  0  0  0  0  0  0  0  0  0
  195.3280  171.1350  140.4680 C   0  0  2  0  0  3  0  0  0  0  0  0
  189.1510  174.0770  139.9680 C   0  0  0  0  0  0  0  0  0  0  0  0
  195.0250  172.6670  142.2800 C   0  0  1  0  0  3  0  0  0  0  0  0
  193.4680  173.6900  145.0650 C   0  0  1  0  0  3  0  0  0  0  0  0
  189.9530  173.3590  141.0280 C   0  0  1  0  0  3  0  0  0  0  0  0
  191.3020  172.8170  140.5050 C   0  0  2  0  0  0  0  0  0  0  0  0
  194.7900  171.9990  143.6340 C   0  0  0  0  0  2  0  0  0  0  0  0
  191.1110  172.1560  139.1280 C   0  0  1  0  0  3  0  0  0  0  0  0
  190.2490  170.9850  139.2240 N   0  0  0  0  0  1  0  0  0  0  0  0
  197.6190  171.2380  139.9460 C   0  0  0  0  0  2  0  0  0  0  0  0
  189.3660  176.3190  144.3190 N   0  0  0  0  0  2  0  0  0  0  0  0
  192.3540  176.3400  142.8900 C   0  0  0  0  0  2  0  0  0  0  0  0
  192.2330  172.8880  144.6380 C   0  0  0  0  0  1  0  0  0  0  0  0
  191.7570  171.8330  141.4470 O   0  0  0  0  0  0  0  0  0  0  0  0
  197.0260  170.5840  138.6870 C   0  0  1  0  0  3  0  0  0  0  0  0
  193.0240  171.2330  141.4910 C   0  0  0  0  0  0  0  0  0  0  0  0
  193.1260  170.0750  141.9770 O   0  0  0  0  0  0  0  0  0  0  0  0
  194.8180  173.0080  144.7800 C   0  0  0  0  0  2  0  0  0  0  0  0
  190.1810  178.4750  144.1120 O   0  0  0  0  0  0  0  0  0  0  0  0
  192.3020  175.7870  145.2280 C   0  0  1  0  0  3  0  0  0  0  0  0
  189.4980  174.8860  144.5370 C   0  0  0  0  0  2  0  0  0  0  0  0
  192.3020  173.9720  140.3660 C   0  0  0  0  0  1  0  0  0  0  0  0
  190.4520  177.2520  144.2310 C   0  0  0  0  0  0  0  0  0  0  0  0
  196.5170  172.5370  141.9310 C   0  0  0  0  0  2  0  0  0  0  0  0
  191.9050  176.8540  144.2310 C   0  0  2  0  0  3  0  0  0  0  0  0
  195.1830  170.7030  138.7310 S   0  0  0  0  0  0  0  0  0  0  0  0
  194.2690  171.9870  141.1080 C   0  0  2  0  0  3  0  0  0  0  0  0
  193.4590  175.1030  144.6550 N   0  0  2  0  0  0  0  0  0  0  0  0
  189.2420  174.1300  143.2750 C   0  0  0  0  0  3  0  0  0  0  0  0
  190.5270  173.1500  138.1210 C   0  0  0  0  0  2  0  0  0  0  0  0
  188.1890  174.8730  140.3040 N   0  0  0  0  0  2  0  0  0  0  0  0
  190.1370  174.1530  142.2910 C   0  0  0  0  0  3  0  0  0  0  0  0
  196.4860  172.0450  140.5060 C   0  0  2  0  0  3  0  0  0  0  0  0
  193.3450  175.2330  143.2000 C   0  0  0  0  0  2  0  0  0  0  0  0
  197.9410  171.8160  136.5020 C   0  0  0  0  0  3  0  0  0  0  0  0
  197.5290  171.2600  137.4900 C   0  0  0  0  0  0  0  0  0  0  0  0
  192.6800  176.4150  146.5620 C   0  0  0  0  0  2  0  0  0  0  0  0
  191.5840  176.2260  147.5530 C   0  0  0  0  0  0  0  0  0  0  0  0
  190.5770  177.1740  147.6660 O   0  0  0  0  0  0  0  0  0  0  0  0
  191.5570  175.1920  148.2690 O   0  0  0  0  0  1  0  0  0  0  0  0
  1  3  1  0  0  0  0
  2 27  1  6  0  0  0
  2 34  1  0  0  0  0
  2 28  1  0  0  0  0
  3 32  2  0  0  0  0
  3  6  1  0  0  0  0
  4 25  1  6  0  0  0
  4  8  1  0  0  0  0
  5 14  1  6  0  0  0
  6 33  1  1  0  0  0
  7 23  1  6  0  0  0
  7  6  1  0  0  0  0
  7 15  1  0  0  0  0
  8 19  1  0  0  0  0
  9 10  1  1  0  0  0
  9  7  1  0  0  0  0
 12 22  1  0  0  0  0
 13 35  1  0  0  0  0
 15 17  1  0  0  0  0
 16 37  1  6  0  0  0
 16 27  1  0  0  0  0
 16 11  1  0  0  0  0
 17 18  2  0  0  0  0
 19  5  1  0  0  0  0
 20 24  2  0  0  0  0
 21 38  1  1  0  0  0
 24 12  1  0  0  0  0
 26 13  1  6  0  0  0
 26 24  1  0  0  0  0
 26 21  1  0  0  0  0
 28 17  1  1  0  0  0
 28  4  1  0  0  0  0
 29 35  1  6  0  0  0
 29  5  1  0  0  0  0
 29 21  1  0  0  0  0
 30 22  1  0  0  0  0
 31  1  1  0  0  0  0
 31  9  1  0  0  0  0
 33 30  2  0  0  0  0
 34 11  1  1  0  0  0
 34 25  1  0  0  0  0
 36 37  3  0  0  0  0
 38 39  1  0  0  0  0
 39 40  2  0  0  0  0
 39 41  1  0  0  0  0
M  END
>  <MODEL>
9

>  <REMARK>
 VINA RESULT:      -6.5      3.209      7.618
  Name = 
  3 active torsions:
  status: ('A' for Active; 'I' for Inactive)
    1  A    between atoms: C_14  and  C_26
    2  A    between atoms: C_18  and  C_27
    3  A    between atoms: C_24  and  C_26
                            x       y       z     vdW  Elec       q    Type
                         _______ _______ _______ _____ _____    ______ ____

>  <TORSDO>
F 3

$$$$
