=
 OpenBabel11062419463D

 46 52  0  0  1  0  0  0  0  0999 V2000
  189.2200  175.8500  142.4340 C   0  0  2  0  0  3  0  0  0  0  0  0
  191.4330  176.7820  146.9850 O   0  0  0  0  0  1  0  0  0  0  0  0
  188.5500  176.0100  145.0300 C   0  0  0  0  0  2  0  0  0  0  0  0
  191.1240  177.2840  143.2600 C   0  0  0  0  0  2  0  0  0  0  0  0
  190.8970  176.5560  145.7110 C   0  0  2  0  0  3  0  0  0  0  0  0
  191.7600  177.2640  144.6530 C   0  0  1  0  0  3  0  0  0  0  0  0
  186.7960  176.3230  143.2130 C   0  0  0  0  0  2  0  0  0  0  0  0
  187.5390  177.6450  143.2190 C   0  0  2  0  0  3  0  0  0  0  0  0
  190.6950  175.8900  142.8200 C   0  0  0  0  0  2  0  0  0  0  0  0
  189.4580  177.0460  145.6920 C   0  0  0  0  0  2  0  0  0  0  0  0
  188.2700  176.3450  143.5540 C   0  0  2  0  0  0  0  0  0  0  0  0
  189.0630  174.3610  140.3530 C   0  0  0  0  0  2  0  0  0  0  0  0
  189.4210  172.9100  140.0700 C   0  0  2  0  0  3  0  0  0  0  0  0
  188.3270  172.2590  139.5030 O   0  0  0  0  0  1  0  0  0  0  0  0
  189.7480  173.3690  142.4570 C   0  0  0  0  0  2  0  0  0  0  0  0
  188.8980  174.4650  141.8570 C   0  0  1  0  0  3  0  0  0  0  0  0
  189.7560  172.2670  141.4110 C   0  0  2  0  0  3  0  0  0  0  0  0
  192.0090  169.4530  141.4120 C   0  0  0  0  0  2  0  0  0  0  0  0
  193.6620  170.7490  142.8280 C   0  0  1  0  0  3  0  0  0  0  0  0
  192.5700  168.7420  143.6420 O   0  0  0  0  0  1  0  0  0  0  0  0
  191.0880  171.5120  141.3700 C   0  0  2  0  0  3  0  0  0  0  0  0
  190.9180  170.2080  141.8740 O   0  0  0  0  0  0  0  0  0  0  0  0
  193.0840  169.3590  142.4940 C   0  0  1  0  0  3  0  0  0  0  0  0
  192.2160  172.2780  142.0960 C   0  0  0  0  0  2  0  0  0  0  0  0
  192.6360  171.6050  143.2540 O   0  0  0  0  0  0  0  0  0  0  0  0
  195.5270  170.4020  146.1200 C   0  0  0  0  0  3  0  0  0  0  0  0
  194.8310  170.6790  143.8000 C   0  0  0  0  0  0  0  0  0  0  0  0
  197.1950  170.5690  144.3860 C   0  0  0  0  0  3  0  0  0  0  0  0
  196.8650  170.4350  145.7340 C   0  0  0  0  0  3  0  0  0  0  0  0
  196.1970  170.6860  143.4060 C   0  0  0  0  0  0  0  0  0  0  0  0
  194.5220  170.5140  145.1610 C   0  0  0  0  0  3  0  0  0  0  0  0
  196.5710  170.8040  142.0270 N   0  0  0  0  0  2  0  0  0  0  0  0
  197.0880  172.0270  141.4230 C   0  0  0  0  0  2  0  0  0  0  0  0
  196.1040  173.0200  141.4600 O   0  0  0  0  0  1  0  0  0  0  0  0
  193.0880  176.6380  144.5890 C   0  0  0  0  0  0  0  0  0  0  0  0
  194.1750  176.1140  144.5560 C   0  0  0  0  0  0  0  0  0  0  0  0
  195.4650  175.4840  144.5390 C   0  0  0  0  0  0  0  0  0  0  0  0
  197.5630  174.9620  143.9410 N   0  0  0  0  0  0  0  0  0  0  0  0
  195.8910  174.3750  145.4310 C   0  0  0  0  0  2  0  0  0  0  0  0
  197.2720  174.1480  144.9040 C   0  0  0  0  0  3  0  0  0  0  0  0
  196.4400  175.8020  143.7060 C   0  0  0  0  0  3  0  0  0  0  0  0
  187.1860  178.3590  144.3700 O   0  0  0  0  0  0  0  0  0  0  0  0
  185.3550  179.8660  144.2070 C   0  0  0  0  0  2  0  0  0  0  0  0
  185.7900  178.4210  144.3360 C   0  0  2  0  0  3  0  0  0  0  0  0
  183.8520  178.7950  145.8310 C   0  0  0  0  0  1  0  0  0  0  0  0
  185.2910  179.1800  145.5520 C   0  0  2  0  0  3  0  0  0  0  0  0
  1  9  1  1  0  0  0
  1 11  1  0  0  0  0
  3 10  1  0  0  0  0
  4  6  1  0  0  0  0
  5  2  1  1  0  0  0
  6 35  1  6  0  0  0
  6  5  1  0  0  0  0
  7  8  1  0  0  0  0
  8 11  1  0  0  0  0
  8 42  1  1  0  0  0
  9  4  1  0  0  0  0
 10  5  1  0  0  0  0
 11  7  1  6  0  0  0
 11  3  1  0  0  0  0
 13 14  1  1  0  0  0
 13 12  1  0  0  0  0
 13 17  1  0  0  0  0
 16 12  1  6  0  0  0
 16  1  1  0  0  0  0
 16 15  1  0  0  0  0
 17 15  1  1  0  0  0
 18 22  1  0  0  0  0
 18 23  1  0  0  0  0
 19 25  1  0  0  0  0
 19 27  1  1  0  0  0
 21 17  1  0  0  0  0
 21 22  1  0  0  0  0
 21 24  1  1  0  0  0
 23 19  1  0  0  0  0
 23 20  1  1  0  0  0
 24 25  1  0  0  0  0
 27 31  1  0  0  0  0
 28 29  2  0  0  0  0
 29 26  1  0  0  0  0
 30 27  2  0  0  0  0
 30 28  1  0  0  0  0
 31 26  2  0  0  0  0
 32 30  1  0  0  0  0
 33 34  1  0  0  0  0
 33 32  1  0  0  0  0
 36 35  3  0  0  0  0
 37 36  1  0  0  0  0
 37 39  1  0  0  0  0
 38 40  2  0  0  0  0
 40 39  1  0  0  0  0
 41 38  1  0  0  0  0
 41 37  2  0  0  0  0
 43 44  1  0  0  0  0
 43 46  1  0  0  0  0
 44 42  1  1  0  0  0
 44 46  1  0  0  0  0
 46 45  1  6  0  0  0
M  END
>  <MODEL>
1

>  <REMARK>
 VINA RESULT:      -8.0      0.000      0.000
  Name = 
  9 active torsions:
  status: ('A' for Active; 'I' for Inactive)
    1  A    between atoms: C_1  and  C_21
    2  A    between atoms: C_2  and  C_42
    3  A    between atoms: C_8  and  C_16
    4  A    between atoms: C_13  and  C_15
    5  A    between atoms: C_14  and  N_37
    6  A    between atoms: C_20  and  N_37
    7  A    between atoms: O_24  and  C_28
    8  A    between atoms: O_24  and  C_32
    9  A    between atoms: C_25  and  C_46
                            x       y       z     vdW  Elec       q    Type
                         _______ _______ _______ _____ _____    ______ ____

>  <TORSDO>
F 9

$$$$
=
 OpenBabel11062419463D

 46 52  0  0  1  0  0  0  0  0999 V2000
  195.2430  173.3270  144.1460 C   0  0  2  0  0  3  0  0  0  0  0  0
  191.7690  169.7550  142.8640 O   0  0  0  0  0  1  0  0  0  0  0  0
  194.1740  171.0740  145.1440 C   0  0  0  0  0  2  0  0  0  0  0  0
  194.4450  172.2680  142.0010 C   0  0  0  0  0  2  0  0  0  0  0  0
  192.7120  170.7530  143.1370 C   0  0  2  0  0  3  0  0  0  0  0  0
  193.2360  171.3460  141.8180 C   0  0  1  0  0  3  0  0  0  0  0  0
  196.4470  171.8980  145.9390 C   0  0  0  0  0  2  0  0  0  0  0  0
  196.7480  171.2770  144.5880 C   0  0  2  0  0  3  0  0  0  0  0  0
  194.1800  173.3370  143.0520 C   0  0  0  0  0  2  0  0  0  0  0  0
  193.8300  170.1530  143.9740 C   0  0  0  0  0  2  0  0  0  0  0  0
  195.4020  171.9530  144.8460 C   0  0  2  0  0  0  0  0  0  0  0  0
  194.9330  175.8620  144.3720 C   0  0  0  0  0  2  0  0  0  0  0  0
  194.0260  176.7380  145.2230 C   0  0  2  0  0  3  0  0  0  0  0  0
  194.7900  177.6860  145.9010 O   0  0  0  0  0  1  0  0  0  0  0  0
  193.7270  174.3930  145.8780 C   0  0  0  0  0  2  0  0  0  0  0  0
  195.0030  174.5220  145.0790 C   0  0  1  0  0  3  0  0  0  0  0  0
  193.3440  175.8200  146.2320 C   0  0  2  0  0  3  0  0  0  0  0  0
  189.8490  174.9430  146.3330 C   0  0  0  0  0  2  0  0  0  0  0  0
  189.3050  176.8370  144.7420 C   0  0  1  0  0  3  0  0  0  0  0  0
  188.9580  174.5140  144.1390 O   0  0  0  0  0  1  0  0  0  0  0  0
  191.8270  176.0260  146.2640 C   0  0  2  0  0  3  0  0  0  0  0  0
  191.1710  174.8440  145.8710 O   0  0  0  0  0  0  0  0  0  0  0  0
  188.9280  175.4180  145.2090 C   0  0  1  0  0  3  0  0  0  0  0  0
  191.3860  177.2470  145.4260 C   0  0  0  0  0  2  0  0  0  0  0  0
  190.6370  176.8610  144.3030 O   0  0  0  0  0  0  0  0  0  0  0  0
  187.8340  177.7450  141.3580 C   0  0  0  0  0  3  0  0  0  0  0  0
  188.3250  177.3970  143.7210 C   0  0  0  0  0  0  0  0  0  0  0  0
  186.2060  178.3790  143.0210 C   0  0  0  0  0  3  0  0  0  0  0  0
  186.5950  178.2930  141.6850 C   0  0  0  0  0  3  0  0  0  0  0  0
  187.0500  177.9330  144.0500 C   0  0  0  0  0  0  0  0  0  0  0  0
  188.6840  177.2940  142.3660 C   0  0  0  0  0  3  0  0  0  0  0  0
  186.6100  178.0200  145.4120 N   0  0  0  0  0  2  0  0  0  0  0  0
  185.8040  177.0000  146.0750 C   0  0  0  0  0  2  0  0  0  0  0  0
  186.2430  176.8400  147.3930 O   0  0  0  0  0  1  0  0  0  0  0  0
  192.1560  172.0660  141.1290 C   0  0  0  0  0  0  0  0  0  0  0  0
  191.2560  172.6390  140.5640 C   0  0  0  0  0  0  0  0  0  0  0  0
  190.1740  173.3010  139.8900 C   0  0  0  0  0  0  0  0  0  0  0  0
  188.9100  174.1730  138.2560 N   0  0  0  0  0  0  0  0  0  0  0  0
  189.0090  173.9360  140.5570 C   0  0  0  0  0  2  0  0  0  0  0  0
  188.2920  174.4640  139.3540 C   0  0  0  0  0  3  0  0  0  0  0  0
  190.0880  173.4450  138.5800 C   0  0  0  0  0  3  0  0  0  0  0  0
  196.6650  169.8850  144.7000 O   0  0  0  0  0  0  0  0  0  0  0  0
  197.9410  168.1660  145.7320 C   0  0  0  0  0  2  0  0  0  0  0  0
  197.3990  169.5750  145.8480 C   0  0  2  0  0  3  0  0  0  0  0  0
  197.1450  168.4510  148.0400 C   0  0  0  0  0  1  0  0  0  0  0  0
  196.7220  168.4330  146.5840 C   0  0  2  0  0  3  0  0  0  0  0  0
  1  9  1  6  0  0  0
  1 11  1  0  0  0  0
  1 16  1  0  0  0  0
  4  9  1  0  0  0  0
  5  2  1  6  0  0  0
  5 10  1  0  0  0  0
  6 35  1  1  0  0  0
  6  4  1  0  0  0  0
  6  5  1  0  0  0  0
  8 42  1  1  0  0  0
  8 11  1  0  0  0  0
  8  7  1  0  0  0  0
 10  3  1  0  0  0  0
 11  3  1  1  0  0  0
 11  7  1  0  0  0  0
 12 13  1  0  0  0  0
 13 14  1  1  0  0  0
 13 17  1  0  0  0  0
 16 12  1  6  0  0  0
 16 15  1  0  0  0  0
 17 15  1  6  0  0  0
 17 21  1  0  0  0  0
 19 27  1  6  0  0  0
 19 23  1  0  0  0  0
 21 24  1  6  0  0  0
 22 21  1  0  0  0  0
 22 18  1  0  0  0  0
 23 20  1  6  0  0  0
 23 18  1  0  0  0  0
 25 19  1  0  0  0  0
 25 24  1  0  0  0  0
 26 29  2  0  0  0  0
 26 31  1  0  0  0  0
 27 30  1  0  0  0  0
 28 30  2  0  0  0  0
 29 28  1  0  0  0  0
 30 32  1  0  0  0  0
 31 27  2  0  0  0  0
 32 33  1  0  0  0  0
 33 34  1  0  0  0  0
 36 35  3  0  0  0  0
 37 39  1  0  0  0  0
 37 36  1  0  0  0  0
 38 41  1  0  0  0  0
 38 40  2  0  0  0  0
 40 39  1  0  0  0  0
 41 37  2  0  0  0  0
 43 44  1  0  0  0  0
 43 46  1  0  0  0  0
 44 42  1  6  0  0  0
 44 46  1  0  0  0  0
 46 45  1  1  0  0  0
M  END
>  <MODEL>
2

>  <REMARK>
 VINA RESULT:      -7.7      2.885      9.813
  Name = 
  9 active torsions:
  status: ('A' for Active; 'I' for Inactive)
    1  A    between atoms: C_1  and  C_21
    2  A    between atoms: C_2  and  C_42
    3  A    between atoms: C_8  and  C_16
    4  A    between atoms: C_13  and  C_15
    5  A    between atoms: C_14  and  N_37
    6  A    between atoms: C_20  and  N_37
    7  A    between atoms: O_24  and  C_28
    8  A    between atoms: O_24  and  C_32
    9  A    between atoms: C_25  and  C_46
                            x       y       z     vdW  Elec       q    Type
                         _______ _______ _______ _____ _____    ______ ____

>  <TORSDO>
F 9

$$$$
=
 OpenBabel11062419463D

 46 52  0  0  1  0  0  0  0  0999 V2000
  189.3130  175.9160  142.3740 C   0  0  2  0  0  3  0  0  0  0  0  0
  191.5960  176.6600  146.9240 O   0  0  0  0  0  1  0  0  0  0  0  0
  188.7060  175.8660  144.9900 C   0  0  0  0  0  2  0  0  0  0  0  0
  191.1610  177.3910  143.2510 C   0  0  0  0  0  2  0  0  0  0  0  0
  191.0390  176.4910  145.6520 C   0  0  2  0  0  3  0  0  0  0  0  0
  191.8350  177.3130  144.6240 C   0  0  1  0  0  3  0  0  0  0  0  0
  186.8890  176.2050  143.2400 C   0  0  0  0  0  2  0  0  0  0  0  0
  187.5630  177.5620  143.3190 C   0  0  2  0  0  3  0  0  0  0  0  0
  190.7930  176.0090  142.7270 C   0  0  0  0  0  2  0  0  0  0  0  0
  189.5770  176.9030  145.6990 C   0  0  0  0  0  2  0  0  0  0  0  0
  188.3690  176.2840  143.5480 C   0  0  2  0  0  0  0  0  0  0  0  0
  188.5870  174.6450  140.2690 C   0  0  0  0  0  2  0  0  0  0  0  0
  189.0620  173.3640  139.6000 C   0  0  2  0  0  3  0  0  0  0  0  0
  187.9760  172.5180  139.3820 O   0  0  0  0  0  1  0  0  0  0  0  0
  190.2600  173.6560  141.7200 C   0  0  0  0  0  2  0  0  0  0  0  0
  189.0470  174.5570  141.7120 C   0  0  1  0  0  3  0  0  0  0  0  0
  190.0400  172.6980  140.5610 C   0  0  2  0  0  3  0  0  0  0  0  0
  193.1400  170.9420  140.0120 C   0  0  0  0  0  2  0  0  0  0  0  0
  194.2250  173.0740  139.1790 C   0  0  1  0  0  3  0  0  0  0  0  0
  194.9760  171.9530  141.1950 O   0  0  0  0  0  1  0  0  0  0  0  0
  191.3500  172.3070  139.8700 C   0  0  2  0  0  3  0  0  0  0  0  0
  192.1950  171.6430  140.7790 O   0  0  0  0  0  0  0  0  0  0  0  0
  194.4420  171.7380  139.9180 C   0  0  1  0  0  3  0  0  0  0  0  0
  192.0420  173.5180  139.2040 C   0  0  0  0  0  2  0  0  0  0  0  0
  193.2520  173.8360  139.8400 O   0  0  0  0  0  0  0  0  0  0  0  0
  197.0680  175.5230  139.7800 C   0  0  0  0  0  3  0  0  0  0  0  0
  195.5250  173.8290  138.9430 C   0  0  0  0  0  0  0  0  0  0  0  0
  197.6240  174.2800  137.7880 C   0  0  0  0  0  3  0  0  0  0  0  0
  197.9400  175.2640  138.7240 C   0  0  0  0  0  3  0  0  0  0  0  0
  196.4290  173.5500  137.8820 C   0  0  0  0  0  0  0  0  0  0  0  0
  195.8780  174.8060  139.8910 C   0  0  0  0  0  3  0  0  0  0  0  0
  196.1450  172.5320  136.9130 N   0  0  0  0  0  2  0  0  0  0  0  0
  196.7190  171.1920  136.9440 C   0  0  0  0  0  2  0  0  0  0  0  0
  197.3430  170.9780  138.1780 O   0  0  0  0  0  1  0  0  0  0  0  0
  193.1910  176.7650  144.4860 C   0  0  0  0  0  0  0  0  0  0  0  0
  194.3020  176.3130  144.3520 C   0  0  0  0  0  0  0  0  0  0  0  0
  195.6200  175.7700  144.1690 C   0  0  0  0  0  0  0  0  0  0  0  0
  197.7090  175.4850  143.4050 N   0  0  0  0  0  0  0  0  0  0  0  0
  196.1400  174.5430  144.8240 C   0  0  0  0  0  2  0  0  0  0  0  0
  197.5040  174.4940  144.2110 C   0  0  0  0  0  3  0  0  0  0  0  0
  196.5360  176.2890  143.3730 C   0  0  0  0  0  3  0  0  0  0  0  0
  187.2040  178.1780  144.5230 O   0  0  0  0  0  0  0  0  0  0  0  0
  185.4430  179.7590  144.3110 C   0  0  0  0  0  2  0  0  0  0  0  0
  185.8130  178.2980  144.4610 C   0  0  2  0  0  3  0  0  0  0  0  0
  183.8640  178.7690  145.9140 C   0  0  0  0  0  1  0  0  0  0  0  0
  185.3240  179.0890  145.6610 C   0  0  2  0  0  3  0  0  0  0  0  0
  1  9  1  1  0  0  0
  1 11  1  0  0  0  0
  3 10  1  0  0  0  0
  4  6  1  0  0  0  0
  5 10  1  0  0  0  0
  5  2  1  1  0  0  0
  6 35  1  6  0  0  0
  6  5  1  0  0  0  0
  7  8  1  0  0  0  0
  8 11  1  0  0  0  0
  8 42  1  1  0  0  0
  9  4  1  0  0  0  0
 11  7  1  6  0  0  0
 11  3  1  0  0  0  0
 13 14  1  1  0  0  0
 13 12  1  0  0  0  0
 13 17  1  0  0  0  0
 16 12  1  6  0  0  0
 16 15  1  0  0  0  0
 16  1  1  0  0  0  0
 17 15  1  1  0  0  0
 18 22  1  0  0  0  0
 19 27  1  1  0  0  0
 19 25  1  0  0  0  0
 19 23  1  0  0  0  0
 21 24  1  1  0  0  0
 21 17  1  0  0  0  0
 21 22  1  0  0  0  0
 23 18  1  0  0  0  0
 23 20  1  1  0  0  0
 24 25  1  0  0  0  0
 26 31  1  0  0  0  0
 27 31  2  0  0  0  0
 28 30  2  0  0  0  0
 28 29  1  0  0  0  0
 29 26  2  0  0  0  0
 30 27  1  0  0  0  0
 32 33  1  0  0  0  0
 32 30  1  0  0  0  0
 33 34  1  0  0  0  0
 36 35  3  0  0  0  0
 37 36  1  0  0  0  0
 37 39  1  0  0  0  0
 38 40  2  0  0  0  0
 40 39  1  0  0  0  0
 41 38  1  0  0  0  0
 41 37  2  0  0  0  0
 43 44  1  0  0  0  0
 43 46  1  0  0  0  0
 44 42  1  1  0  0  0
 44 46  1  0  0  0  0
 46 45  1  6  0  0  0
M  END
>  <MODEL>
3

>  <REMARK>
 VINA RESULT:      -7.6      2.190      3.260
  Name = 
  9 active torsions:
  status: ('A' for Active; 'I' for Inactive)
    1  A    between atoms: C_1  and  C_21
    2  A    between atoms: C_2  and  C_42
    3  A    between atoms: C_8  and  C_16
    4  A    between atoms: C_13  and  C_15
    5  A    between atoms: C_14  and  N_37
    6  A    between atoms: C_20  and  N_37
    7  A    between atoms: O_24  and  C_28
    8  A    between atoms: O_24  and  C_32
    9  A    between atoms: C_25  and  C_46
                            x       y       z     vdW  Elec       q    Type
                         _______ _______ _______ _____ _____    ______ ____

>  <TORSDO>
F 9

$$$$
=
 OpenBabel11062419463D

 46 52  0  0  1  0  0  0  0  0999 V2000
  192.0950  172.3410  142.9610 C   0  0  2  0  0  3  0  0  0  0  0  0
  195.3170  175.7600  145.0590 O   0  0  0  0  0  1  0  0  0  0  0  0
  194.4150  173.5700  142.3920 C   0  0  0  0  0  2  0  0  0  0  0  0
  192.8250  172.9410  145.3000 C   0  0  0  0  0  2  0  0  0  0  0  0
  194.4050  174.8240  144.5590 C   0  0  2  0  0  3  0  0  0  0  0  0
  193.6630  174.1490  145.7260 C   0  0  1  0  0  3  0  0  0  0  0  0
  193.7980  171.3700  141.2700 C   0  0  0  0  0  2  0  0  0  0  0  0
  194.2460  170.9480  142.6560 C   0  0  2  0  0  3  0  0  0  0  0  0
  191.8950  173.2840  144.1430 C   0  0  0  0  0  2  0  0  0  0  0  0
  195.1560  173.8160  143.7050 C   0  0  0  0  0  2  0  0  0  0  0  0
  193.5550  172.2950  142.4430 C   0  0  2  0  0  0  0  0  0  0  0  0
  189.6480  172.1040  142.2330 C   0  0  0  0  0  2  0  0  0  0  0  0
  188.6580  173.0400  141.5570 C   0  0  2  0  0  3  0  0  0  0  0  0
  188.1010  172.4100  140.4450 O   0  0  0  0  0  1  0  0  0  0  0  0
  190.8560  174.1240  141.6490 C   0  0  0  0  0  2  0  0  0  0  0  0
  191.0260  172.6440  141.9020 C   0  0  1  0  0  3  0  0  0  0  0  0
  189.4440  174.2660  141.1050 C   0  0  2  0  0  3  0  0  0  0  0  0
  189.1930  177.6710  142.2620 C   0  0  0  0  0  2  0  0  0  0  0  0
  187.1990  177.0590  143.7000 C   0  0  1  0  0  3  0  0  0  0  0  0
  189.2910  177.8230  144.6620 O   0  0  0  0  0  1  0  0  0  0  0  0
  188.7770  175.5720  141.5470 C   0  0  2  0  0  3  0  0  0  0  0  0
  189.6910  176.3580  142.2750 O   0  0  0  0  0  0  0  0  0  0  0  0
  188.4390  177.9650  143.5590 C   0  0  1  0  0  3  0  0  0  0  0  0
  187.4670  175.3230  142.3280 C   0  0  0  0  0  2  0  0  0  0  0  0
  187.5840  175.7100  143.6720 O   0  0  0  0  0  0  0  0  0  0  0  0
  186.0280  177.1630  147.3130 C   0  0  0  0  0  3  0  0  0  0  0  0
  186.3480  177.4170  144.9090 C   0  0  0  0  0  0  0  0  0  0  0  0
  184.5720  178.6250  146.0630 C   0  0  0  0  0  3  0  0  0  0  0  0
  184.9470  178.0410  147.2720 C   0  0  0  0  0  3  0  0  0  0  0  0
  185.2600  178.3320  144.8760 C   0  0  0  0  0  0  0  0  0  0  0  0
  186.7250  176.8630  146.1440 C   0  0  0  0  0  3  0  0  0  0  0  0
  184.8600  178.9650  143.6530 N   0  0  0  0  0  2  0  0  0  0  0  0
  184.0140  178.3330  142.6460 C   0  0  0  0  0  2  0  0  0  0  0  0
  184.6550  178.3740  141.4040 O   0  0  0  0  0  1  0  0  0  0  0  0
  192.8140  175.1310  146.4140 C   0  0  0  0  0  0  0  0  0  0  0  0
  192.1300  175.9370  146.9970 C   0  0  0  0  0  0  0  0  0  0  0  0
  191.3280  176.8920  147.7100 C   0  0  0  0  0  0  0  0  0  0  0  0
  189.6360  178.2640  148.2430 N   0  0  0  0  0  0  0  0  0  0  0  0
  191.7290  177.5840  148.9620 C   0  0  0  0  0  2  0  0  0  0  0  0
  190.5240  178.4460  149.1660 C   0  0  0  0  0  3  0  0  0  0  0  0
  190.1290  177.2930  147.3290 C   0  0  0  0  0  3  0  0  0  0  0  0
  195.6360  171.0800  142.7450 O   0  0  0  0  0  0  0  0  0  0  0  0
  195.4780  170.3930  145.0140 C   0  0  0  0  0  2  0  0  0  0  0  0
  196.0330  170.0820  143.6400 C   0  0  2  0  0  3  0  0  0  0  0  0
  197.7860  169.6030  145.3220 C   0  0  0  0  0  1  0  0  0  0  0  0
  196.9280  170.6900  144.7050 C   0  0  2  0  0  3  0  0  0  0  0  0
  1  9  1  1  0  0  0
  3 11  1  0  0  0  0
  3 10  1  0  0  0  0
  4  6  1  0  0  0  0
  5  2  1  1  0  0  0
  5  6  1  0  0  0  0
  6 35  1  6  0  0  0
  7  8  1  0  0  0  0
  8 42  1  6  0  0  0
  9  4  1  0  0  0  0
 10  5  1  0  0  0  0
 11  7  1  6  0  0  0
 11  8  1  0  0  0  0
 11  1  1  0  0  0  0
 13 14  1  6  0  0  0
 13 12  1  0  0  0  0
 16 15  1  1  0  0  0
 16 12  1  0  0  0  0
 16  1  1  0  0  0  0
 17 21  1  0  0  0  0
 17 13  1  0  0  0  0
 17 15  1  1  0  0  0
 18 22  1  0  0  0  0
 18 23  1  0  0  0  0
 19 27  1  1  0  0  0
 21 22  1  0  0  0  0
 21 24  1  1  0  0  0
 23 19  1  0  0  0  0
 23 20  1  1  0  0  0
 24 25  1  0  0  0  0
 25 19  1  0  0  0  0
 27 31  1  0  0  0  0
 28 29  2  0  0  0  0
 29 26  1  0  0  0  0
 30 27  2  0  0  0  0
 30 28  1  0  0  0  0
 31 26  2  0  0  0  0
 32 30  1  0  0  0  0
 33 32  1  0  0  0  0
 34 33  1  0  0  0  0
 35 36  3  0  0  0  0
 36 37  1  0  0  0  0
 37 39  1  0  0  0  0
 38 40  2  0  0  0  0
 39 40  1  0  0  0  0
 41 37  2  0  0  0  0
 41 38  1  0  0  0  0
 44 42  1  6  0  0  0
 44 46  1  0  0  0  0
 44 43  1  0  0  0  0
 46 43  1  0  0  0  0
 46 45  1  1  0  0  0
M  END
>  <MODEL>
4

>  <REMARK>
 VINA RESULT:      -7.6      3.177      9.053
  Name = 
  9 active torsions:
  status: ('A' for Active; 'I' for Inactive)
    1  A    between atoms: C_1  and  C_21
    2  A    between atoms: C_2  and  C_42
    3  A    between atoms: C_8  and  C_16
    4  A    between atoms: C_13  and  C_15
    5  A    between atoms: C_14  and  N_37
    6  A    between atoms: C_20  and  N_37
    7  A    between atoms: O_24  and  C_28
    8  A    between atoms: O_24  and  C_32
    9  A    between atoms: C_25  and  C_46
                            x       y       z     vdW  Elec       q    Type
                         _______ _______ _______ _____ _____    ______ ____

>  <TORSDO>
F 9

$$$$
=
 OpenBabel11062419463D

 46 52  0  0  1  0  0  0  0  0999 V2000
  188.8110  176.0190  142.3500 C   0  0  2  0  0  3  0  0  0  0  0  0
  191.1830  176.9010  146.8290 O   0  0  0  0  0  1  0  0  0  0  0  0
  188.2270  176.1820  144.9670 C   0  0  0  0  0  2  0  0  0  0  0  0
  190.7640  177.4180  143.1180 C   0  0  0  0  0  2  0  0  0  0  0  0
  190.6030  176.6870  145.5740 C   0  0  2  0  0  3  0  0  0  0  0  0
  191.4430  177.3840  144.4890 C   0  0  1  0  0  3  0  0  0  0  0  0
  186.4210  176.5300  143.2070 C   0  0  0  0  0  2  0  0  0  0  0  0
  187.1860  177.8390  143.1930 C   0  0  2  0  0  3  0  0  0  0  0  0
  190.2970  176.0330  142.6890 C   0  0  0  0  0  2  0  0  0  0  0  0
  189.1730  177.2010  145.6010 C   0  0  0  0  0  2  0  0  0  0  0  0
  187.9050  176.5260  143.5010 C   0  0  2  0  0  0  0  0  0  0  0  0
  188.6450  174.5120  140.2820 C   0  0  0  0  0  2  0  0  0  0  0  0
  188.9510  173.0440  140.0240 C   0  0  2  0  0  3  0  0  0  0  0  0
  187.8460  172.4310  139.4370 O   0  0  0  0  0  1  0  0  0  0  0  0
  189.2370  173.5190  142.4140 C   0  0  0  0  0  2  0  0  0  0  0  0
  188.4470  174.6400  141.7800 C   0  0  1  0  0  3  0  0  0  0  0  0
  189.2260  172.4050  141.3810 C   0  0  2  0  0  3  0  0  0  0  0  0
  191.8370  170.2670  142.6510 C   0  0  0  0  0  2  0  0  0  0  0  0
  193.5820  171.6310  141.4210 C   0  0  1  0  0  3  0  0  0  0  0  0
  193.5220  171.5040  143.8430 O   0  0  0  0  0  1  0  0  0  0  0  0
  190.5270  171.5960  141.3820 C   0  0  2  0  0  3  0  0  0  0  0  0
  190.9360  171.3430  142.7060 O   0  0  0  0  0  0  0  0  0  0  0  0
  193.2770  170.7790  142.6690 C   0  0  1  0  0  3  0  0  0  0  0  0
  191.6350  172.2720  140.5450 C   0  0  0  0  0  2  0  0  0  0  0  0
  192.6950  172.7150  141.3520 O   0  0  0  0  0  0  0  0  0  0  0  0
  197.3630  171.3750  141.6900 C   0  0  0  0  0  3  0  0  0  0  0  0
  195.0440  172.0420  141.3360 C   0  0  0  0  0  0  0  0  0  0  0  0
  196.8750  173.5240  140.7090 C   0  0  0  0  0  3  0  0  0  0  0  0
  197.8030  172.5890  141.1670 C   0  0  0  0  0  3  0  0  0  0  0  0
  195.4970  173.2690  140.7790 C   0  0  0  0  0  0  0  0  0  0  0  0
  195.9980  171.1030  141.7650 C   0  0  0  0  0  3  0  0  0  0  0  0
  194.5720  174.2450  140.2820 N   0  0  0  0  0  2  0  0  0  0  0  0
  194.9280  175.3060  139.3470 C   0  0  0  0  0  2  0  0  0  0  0  0
  194.0510  175.2850  138.2580 O   0  0  0  0  0  1  0  0  0  0  0  0
  192.7580  176.7360  144.3820 C   0  0  0  0  0  0  0  0  0  0  0  0
  193.8480  176.2230  144.2990 C   0  0  0  0  0  0  0  0  0  0  0  0
  195.1540  175.6330  144.2040 C   0  0  0  0  0  0  0  0  0  0  0  0
  197.3140  175.3360  143.6780 N   0  0  0  0  0  0  0  0  0  0  0  0
  195.5310  174.2940  144.7240 C   0  0  0  0  0  2  0  0  0  0  0  0
  196.9620  174.2520  144.2900 C   0  0  0  0  0  3  0  0  0  0  0  0
  196.1900  176.2070  143.6200 C   0  0  0  0  0  3  0  0  0  0  0  0
  186.8820  178.5560  144.3550 O   0  0  0  0  0  0  0  0  0  0  0  0
  184.9010  179.8690  144.4020 C   0  0  0  0  0  2  0  0  0  0  0  0
  185.4910  178.4760  144.4690 C   0  0  2  0  0  3  0  0  0  0  0  0
  183.6940  178.6520  146.1640 C   0  0  0  0  0  1  0  0  0  0  0  0
  185.0500  179.1810  145.7390 C   0  0  2  0  0  3  0  0  0  0  0  0
  1  9  1  1  0  0  0
  1 11  1  0  0  0  0
  3 10  1  0  0  0  0
  4  6  1  0  0  0  0
  5 10  1  0  0  0  0
  5  2  1  1  0  0  0
  6 35  1  6  0  0  0
  6  5  1  0  0  0  0
  8  7  1  0  0  0  0
  8 11  1  0  0  0  0
  8 42  1  1  0  0  0
  9  4  1  0  0  0  0
 11  7  1  6  0  0  0
 11  3  1  0  0  0  0
 13 14  1  1  0  0  0
 13 12  1  0  0  0  0
 13 17  1  0  0  0  0
 16 12  1  6  0  0  0
 16  1  1  0  0  0  0
 16 15  1  0  0  0  0
 17 21  1  0  0  0  0
 17 15  1  1  0  0  0
 18 23  1  0  0  0  0
 18 22  1  0  0  0  0
 19 27  1  1  0  0  0
 19 23  1  0  0  0  0
 21 24  1  6  0  0  0
 21 22  1  0  0  0  0
 23 20  1  1  0  0  0
 24 25  1  0  0  0  0
 25 19  1  0  0  0  0
 26 31  1  0  0  0  0
 27 31  2  0  0  0  0
 28 30  2  0  0  0  0
 28 29  1  0  0  0  0
 29 26  2  0  0  0  0
 30 27  1  0  0  0  0
 32 30  1  0  0  0  0
 33 32  1  0  0  0  0
 34 33  1  0  0  0  0
 36 35  3  0  0  0  0
 37 36  1  0  0  0  0
 37 39  1  0  0  0  0
 38 40  2  0  0  0  0
 40 39  1  0  0  0  0
 41 38  1  0  0  0  0
 41 37  2  0  0  0  0
 43 44  1  0  0  0  0
 43 46  1  0  0  0  0
 44 42  1  1  0  0  0
 44 46  1  0  0  0  0
 46 45  1  6  0  0  0
M  END
>  <MODEL>
5

>  <REMARK>
 VINA RESULT:      -7.4      1.566      2.078
  Name = 
  9 active torsions:
  status: ('A' for Active; 'I' for Inactive)
    1  A    between atoms: C_1  and  C_21
    2  A    between atoms: C_2  and  C_42
    3  A    between atoms: C_8  and  C_16
    4  A    between atoms: C_13  and  C_15
    5  A    between atoms: C_14  and  N_37
    6  A    between atoms: C_20  and  N_37
    7  A    between atoms: O_24  and  C_28
    8  A    between atoms: O_24  and  C_32
    9  A    between atoms: C_25  and  C_46
                            x       y       z     vdW  Elec       q    Type
                         _______ _______ _______ _____ _____    ______ ____

>  <TORSDO>
F 9

$$$$
=
 OpenBabel11062419463D

 46 52  0  0  1  0  0  0  0  0999 V2000
  191.1040  172.9820  143.9180 C   0  0  2  0  0  3  0  0  0  0  0  0
  191.5770  177.0760  146.9980 O   0  0  0  0  0  1  0  0  0  0  0  0
  192.9170  174.8640  144.5420 C   0  0  0  0  0  2  0  0  0  0  0  0
  190.2410  173.6430  146.1940 C   0  0  0  0  0  2  0  0  0  0  0  0
  191.3830  175.9430  146.2010 C   0  0  2  0  0  3  0  0  0  0  0  0
  190.3420  175.0190  146.8580 C   0  0  1  0  0  3  0  0  0  0  0  0
  193.6420  172.6430  143.5310 C   0  0  0  0  0  2  0  0  0  0  0  0
  193.3540  172.2970  144.9790 C   0  0  2  0  0  3  0  0  0  0  0  0
  190.0430  173.7610  144.6880 C   0  0  0  0  0  2  0  0  0  0  0  0
  192.7190  175.2450  146.0090 C   0  0  0  0  0  2  0  0  0  0  0  0
  192.5560  173.3920  144.2730 C   0  0  2  0  0  0  0  0  0  0  0  0
  189.8330  171.8980  141.9730 C   0  0  0  0  0  2  0  0  0  0  0  0
  189.0510  172.4510  140.7910 C   0  0  2  0  0  3  0  0  0  0  0  0
  189.5200  171.8800  139.6100 O   0  0  0  0  0  1  0  0  0  0  0  0
  190.0920  174.3090  142.0070 C   0  0  0  0  0  2  0  0  0  0  0  0
  190.7530  173.0160  142.4230 C   0  0  1  0  0  3  0  0  0  0  0  0
  189.2970  173.9550  140.7610 C   0  0  2  0  0  3  0  0  0  0  0  0
  186.9240  176.3370  139.4600 C   0  0  0  0  0  2  0  0  0  0  0  0
  186.2160  176.9500  141.8140 C   0  0  1  0  0  3  0  0  0  0  0  0
  187.2860  178.5490  140.3370 O   0  0  0  0  0  1  0  0  0  0  0  0
  187.9920  174.7500  140.6570 C   0  0  2  0  0  3  0  0  0  0  0  0
  188.1930  175.9080  139.8810 O   0  0  0  0  0  0  0  0  0  0  0  0
  186.4130  177.4540  140.3700 C   0  0  1  0  0  3  0  0  0  0  0  0
  187.3910  175.0700  142.0430 C   0  0  0  0  0  2  0  0  0  0  0  0
  187.4250  176.4470  142.3160 O   0  0  0  0  0  0  0  0  0  0  0  0
  185.9420  179.7000  144.4220 C   0  0  0  0  0  3  0  0  0  0  0  0
  185.5770  177.9950  142.7160 C   0  0  0  0  0  0  0  0  0  0  0  0
  183.7290  179.3680  143.5200 C   0  0  0  0  0  3  0  0  0  0  0  0
  184.5890  180.0320  144.3930 C   0  0  0  0  0  3  0  0  0  0  0  0
  184.2020  178.3540  142.6720 C   0  0  0  0  0  0  0  0  0  0  0  0
  186.4300  178.6970  143.5850 C   0  0  0  0  0  3  0  0  0  0  0  0
  183.2930  177.7050  141.7720 N   0  0  0  0  0  2  0  0  0  0  0  0
  182.8290  178.2890  140.5180 C   0  0  0  0  0  2  0  0  0  0  0  0
  181.4440  178.4750  140.5730 O   0  0  0  0  0  1  0  0  0  0  0  0
  189.0250  175.6720  146.8630 C   0  0  0  0  0  0  0  0  0  0  0  0
  187.9470  176.2130  146.8880 C   0  0  0  0  0  0  0  0  0  0  0  0
  186.6650  176.8590  146.9420 C   0  0  0  0  0  0  0  0  0  0  0  0
  185.0310  178.2840  147.5130 N   0  0  0  0  0  0  0  0  0  0  0  0
  185.4500  176.4160  146.2120 C   0  0  0  0  0  3  0  0  0  0  0  0
  184.4780  177.4420  146.7030 C   0  0  0  0  0  3  0  0  0  0  0  0
  186.3990  177.9290  147.6680 C   0  0  0  0  0  2  0  0  0  0  0  0
  194.3710  172.8250  145.7830 O   0  0  0  0  0  0  0  0  0  0  0  0
  196.5480  171.9070  146.0410 C   0  0  0  0  0  2  0  0  0  0  0  0
  195.5540  172.5440  145.0930 C   0  0  2  0  0  3  0  0  0  0  0  0
  197.7900  173.5100  144.6510 C   0  0  0  0  0  1  0  0  0  0  0  0
  196.6850  173.3680  145.6790 C   0  0  2  0  0  3  0  0  0  0  0  0
  1 11  1  0  0  0  0
  1  9  1  1  0  0  0
  3 10  1  0  0  0  0
  4  6  1  0  0  0  0
  5  6  1  0  0  0  0
  5  2  1  1  0  0  0
  6 35  1  6  0  0  0
  7  8  1  0  0  0  0
  8 42  1  1  0  0  0
  9  4  1  0  0  0  0
 10  5  1  0  0  0  0
 11  7  1  6  0  0  0
 11  3  1  0  0  0  0
 11  8  1  0  0  0  0
 13 14  1  6  0  0  0
 13 12  1  0  0  0  0
 15 16  1  0  0  0  0
 16 12  1  1  0  0  0
 16  1  1  0  0  0  0
 17 13  1  0  0  0  0
 17 15  1  1  0  0  0
 18 22  1  0  0  0  0
 18 23  1  0  0  0  0
 19 25  1  0  0  0  0
 19 27  1  1  0  0  0
 21 17  1  0  0  0  0
 21 24  1  1  0  0  0
 22 21  1  0  0  0  0
 23 20  1  1  0  0  0
 23 19  1  0  0  0  0
 24 25  1  0  0  0  0
 27 31  1  0  0  0  0
 28 29  2  0  0  0  0
 29 26  1  0  0  0  0
 30 27  2  0  0  0  0
 30 28  1  0  0  0  0
 31 26  2  0  0  0  0
 32 30  1  0  0  0  0
 33 34  1  0  0  0  0
 33 32  1  0  0  0  0
 35 36  3  0  0  0  0
 36 37  1  0  0  0  0
 37 41  1  0  0  0  0
 38 41  1  0  0  0  0
 39 40  1  0  0  0  0
 39 37  2  0  0  0  0
 40 38  2  0  0  0  0
 44 46  1  0  0  0  0
 44 42  1  1  0  0  0
 44 43  1  0  0  0  0
 46 45  1  6  0  0  0
 46 43  1  0  0  0  0
M  END
>  <MODEL>
6

>  <REMARK>
 VINA RESULT:      -7.4      3.749      9.615
  Name = 
  9 active torsions:
  status: ('A' for Active; 'I' for Inactive)
    1  A    between atoms: C_1  and  C_21
    2  A    between atoms: C_2  and  C_42
    3  A    between atoms: C_8  and  C_16
    4  A    between atoms: C_13  and  C_15
    5  A    between atoms: C_14  and  N_37
    6  A    between atoms: C_20  and  N_37
    7  A    between atoms: O_24  and  C_28
    8  A    between atoms: O_24  and  C_32
    9  A    between atoms: C_25  and  C_46
                            x       y       z     vdW  Elec       q    Type
                         _______ _______ _______ _____ _____    ______ ____

>  <TORSDO>
F 9

$$$$
=
 OpenBabel11062419463D

 46 52  0  0  1  0  0  0  0  0999 V2000
  190.4620  175.6730  144.9680 C   0  0  2  0  0  3  0  0  0  0  0  0
  187.8480  175.6610  140.5370 O   0  0  0  0  0  1  0  0  0  0  0  0
  188.7520  177.2350  143.6080 C   0  0  0  0  0  2  0  0  0  0  0  0
  189.3790  173.9210  143.5110 C   0  0  0  0  0  2  0  0  0  0  0  0
  188.5740  175.5870  141.7310 C   0  0  2  0  0  3  0  0  0  0  0  0
  188.8120  174.1130  142.1020 C   0  0  1  0  0  3  0  0  0  0  0  0
  189.0180  177.4830  146.1270 C   0  0  0  0  0  2  0  0  0  0  0  0
  188.1580  176.2420  145.9820 C   0  0  2  0  0  3  0  0  0  0  0  0
  190.6150  174.7830  143.7390 C   0  0  0  0  0  2  0  0  0  0  0  0
  187.8100  176.3290  142.8150 C   0  0  0  0  0  2  0  0  0  0  0  0
  189.2090  176.5830  144.9250 C   0  0  2  0  0  0  0  0  0  0  0  0
  192.5730  175.8570  146.4120 C   0  0  0  0  0  2  0  0  0  0  0  0
  194.0390  176.1150  146.1010 C   0  0  2  0  0  3  0  0  0  0  0  0
  194.5080  177.1650  146.8890 O   0  0  0  0  0  1  0  0  0  0  0  0
  192.7280  176.3340  144.0400 C   0  0  0  0  0  2  0  0  0  0  0  0
  191.7940  176.3920  145.2260 C   0  0  1  0  0  3  0  0  0  0  0  0
  194.1170  176.5100  144.6310 C   0  0  2  0  0  3  0  0  0  0  0  0
  197.2240  175.8360  142.9300 C   0  0  0  0  0  2  0  0  0  0  0  0
  196.0160  174.3630  141.2610 C   0  0  1  0  0  3  0  0  0  0  0  0
  197.1250  176.4160  140.5970 O   0  0  0  0  0  1  0  0  0  0  0  0
  195.1790  175.7060  143.8740 C   0  0  2  0  0  3  0  0  0  0  0  0
  196.0660  176.5790  143.2160 O   0  0  0  0  0  0  0  0  0  0  0  0
  197.1910  175.3360  141.4870 C   0  0  1  0  0  3  0  0  0  0  0  0
  194.5520  174.6720  142.9130 C   0  0  0  0  0  2  0  0  0  0  0  0
  194.8030  174.9960  141.5700 O   0  0  0  0  0  0  0  0  0  0  0  0
  195.1100  173.7800  137.6170 C   0  0  0  0  0  3  0  0  0  0  0  0
  196.0330  173.7370  139.8740 C   0  0  0  0  0  0  0  0  0  0  0  0
  196.8990  172.2510  138.1470 C   0  0  0  0  0  3  0  0  0  0  0  0
  195.9870  172.7690  137.2290 C   0  0  0  0  0  3  0  0  0  0  0  0
  196.9430  172.7230  139.4670 C   0  0  0  0  0  0  0  0  0  0  0  0
  195.1410  174.2640  138.9240 C   0  0  0  0  0  3  0  0  0  0  0  0
  197.9070  172.1810  140.3800 N   0  0  0  0  0  2  0  0  0  0  0  0
  197.8800  170.8100  140.8760 C   0  0  0  0  0  2  0  0  0  0  0  0
  196.8240  170.6590  141.7790 O   0  0  0  0  0  1  0  0  0  0  0  0
  189.7000  173.4840  141.1140 C   0  0  0  0  0  0  0  0  0  0  0  0
  190.4260  172.9480  140.3130 C   0  0  0  0  0  0  0  0  0  0  0  0
  191.2900  172.2910  139.3720 C   0  0  0  0  0  0  0  0  0  0  0  0
  192.1300  171.5310  137.4370 N   0  0  0  0  0  0  0  0  0  0  0  0
  192.4870  171.4860  139.7230 C   0  0  0  0  0  2  0  0  0  0  0  0
  192.9090  171.0560  138.3540 C   0  0  0  0  0  3  0  0  0  0  0  0
  191.1150  172.3060  138.0630 C   0  0  0  0  0  3  0  0  0  0  0  0
  186.8720  176.6250  145.5840 O   0  0  0  0  0  0  0  0  0  0  0  0
  184.8100  177.3370  146.5290 C   0  0  0  0  0  2  0  0  0  0  0  0
  186.3070  177.2100  146.7220 C   0  0  2  0  0  3  0  0  0  0  0  0
  185.5870  179.4160  147.5850 C   0  0  0  0  0  1  0  0  0  0  0  0
  185.6960  178.5480  146.3470 C   0  0  2  0  0  3  0  0  0  0  0  0
  1  9  1  6  0  0  0
  1 16  1  0  0  0  0
  4  9  1  0  0  0  0
  5  2  1  6  0  0  0
  5  6  1  0  0  0  0
  5 10  1  0  0  0  0
  6 35  1  6  0  0  0
  6  4  1  0  0  0  0
  8 42  1  6  0  0  0
  8  7  1  0  0  0  0
 10  3  1  0  0  0  0
 11  3  1  6  0  0  0
 11  1  1  0  0  0  0
 11  8  1  0  0  0  0
 11  7  1  0  0  0  0
 13 12  1  0  0  0  0
 13 14  1  1  0  0  0
 16 15  1  6  0  0  0
 16 12  1  0  0  0  0
 17 15  1  6  0  0  0
 17 13  1  0  0  0  0
 18 22  1  0  0  0  0
 19 27  1  6  0  0  0
 19 23  1  0  0  0  0
 19 25  1  0  0  0  0
 21 24  1  6  0  0  0
 21 17  1  0  0  0  0
 22 21  1  0  0  0  0
 23 20  1  6  0  0  0
 23 18  1  0  0  0  0
 25 24  1  0  0  0  0
 26 31  1  0  0  0  0
 28 30  2  0  0  0  0
 29 26  2  0  0  0  0
 29 28  1  0  0  0  0
 30 27  1  0  0  0  0
 30 32  1  0  0  0  0
 31 27  2  0  0  0  0
 32 33  1  0  0  0  0
 33 34  1  0  0  0  0
 36 35  3  0  0  0  0
 37 39  1  0  0  0  0
 37 36  1  0  0  0  0
 38 41  1  0  0  0  0
 38 40  2  0  0  0  0
 40 39  1  0  0  0  0
 41 37  2  0  0  0  0
 43 44  1  0  0  0  0
 44 42  1  6  0  0  0
 46 43  1  0  0  0  0
 46 44  1  0  0  0  0
 46 45  1  1  0  0  0
M  END
>  <MODEL>
7

>  <REMARK>
 VINA RESULT:      -7.3      2.750      5.957
  Name = 
  9 active torsions:
  status: ('A' for Active; 'I' for Inactive)
    1  A    between atoms: C_1  and  C_21
    2  A    between atoms: C_2  and  C_42
    3  A    between atoms: C_8  and  C_16
    4  A    between atoms: C_13  and  C_15
    5  A    between atoms: C_14  and  N_37
    6  A    between atoms: C_20  and  N_37
    7  A    between atoms: O_24  and  C_28
    8  A    between atoms: O_24  and  C_32
    9  A    between atoms: C_25  and  C_46
                            x       y       z     vdW  Elec       q    Type
                         _______ _______ _______ _____ _____    ______ ____

>  <TORSDO>
F 9

$$$$
=
 OpenBabel11062419463D

 46 52  0  0  1  0  0  0  0  0999 V2000
  191.5820  172.1390  140.3000 C   0  0  2  0  0  3  0  0  0  0  0  0
  195.2800  175.6930  139.8910 O   0  0  0  0  0  1  0  0  0  0  0  0
  192.6830  173.7280  138.4350 C   0  0  0  0  0  2  0  0  0  0  0  0
  193.8210  172.5540  141.3850 C   0  0  0  0  0  2  0  0  0  0  0  0
  194.3040  174.7070  140.0730 C   0  0  2  0  0  3  0  0  0  0  0  0
  194.6930  173.8060  141.2580 C   0  0  1  0  0  3  0  0  0  0  0  0
  191.4360  171.6120  137.7680 C   0  0  0  0  0  2  0  0  0  0  0  0
  192.7740  171.0950  138.2620 C   0  0  2  0  0  3  0  0  0  0  0  0
  192.3380  172.9000  141.3830 C   0  0  0  0  0  2  0  0  0  0  0  0
  194.1590  173.9170  138.7830 C   0  0  0  0  0  2  0  0  0  0  0  0
  192.1560  172.3510  138.8750 C   0  0  2  0  0  0  0  0  0  0  0  0
  189.5220  172.0730  141.8240 C   0  0  0  0  0  2  0  0  0  0  0  0
  188.3480  173.0150  142.0450 C   0  0  2  0  0  3  0  0  0  0  0  0
  187.1520  172.3120  141.9210 O   0  0  0  0  0  1  0  0  0  0  0  0
  189.7230  173.8620  140.1990 C   0  0  0  0  0  2  0  0  0  0  0  0
  190.0810  172.4160  140.4560 C   0  0  1  0  0  3  0  0  0  0  0  0
  188.4260  174.0820  140.9590 C   0  0  2  0  0  3  0  0  0  0  0  0
  189.5260  177.2050  142.3870 C   0  0  0  0  0  2  0  0  0  0  0  0
  187.4770  177.2710  143.8750 C   0  0  1  0  0  3  0  0  0  0  0  0
  189.7190  177.0880  144.7830 O   0  0  0  0  0  1  0  0  0  0  0  0
  188.3210  175.4980  141.5350 C   0  0  2  0  0  3  0  0  0  0  0  0
  189.4810  175.8050  142.2720 O   0  0  0  0  0  0  0  0  0  0  0  0
  188.9670  177.6440  143.7400 C   0  0  1  0  0  3  0  0  0  0  0  0
  187.0310  175.6980  142.3610 C   0  0  0  0  0  2  0  0  0  0  0  0
  187.3130  175.8870  143.7230 O   0  0  0  0  0  0  0  0  0  0  0  0
  186.9150  177.8500  147.5880 C   0  0  0  0  0  3  0  0  0  0  0  0
  186.8510  177.8160  145.1500 C   0  0  0  0  0  0  0  0  0  0  0  0
  185.3440  179.2570  146.4150 C   0  0  0  0  0  3  0  0  0  0  0  0
  185.8830  178.7870  147.6120 C   0  0  0  0  0  3  0  0  0  0  0  0
  185.8160  178.7900  145.1780 C   0  0  0  0  0  0  0  0  0  0  0  0
  187.3980  177.3780  146.3690 C   0  0  0  0  0  3  0  0  0  0  0  0
  185.2520  179.3090  143.9660 N   0  0  0  0  0  2  0  0  0  0  0  0
  184.1710  178.6640  143.2270 C   0  0  0  0  0  2  0  0  0  0  0  0
  184.6330  178.2740  141.9670 O   0  0  0  0  0  1  0  0  0  0  0  0
  194.6490  174.5770  142.5090 C   0  0  0  0  0  0  0  0  0  0  0  0
  194.5920  175.2040  143.5390 C   0  0  0  0  0  0  0  0  0  0  0  0
  194.5000  175.9460  144.7650 C   0  0  0  0  0  0  0  0  0  0  0  0
  194.7620  177.5780  146.2800 N   0  0  0  0  0  0  0  0  0  0  0  0
  193.8500  175.4680  146.0110 C   0  0  0  0  0  2  0  0  0  0  0  0
  194.1190  176.6410  146.8990 C   0  0  0  0  0  3  0  0  0  0  0  0
  195.0040  177.1540  144.9450 C   0  0  0  0  0  3  0  0  0  0  0  0
  193.7570  171.4030  137.3150 O   0  0  0  0  0  0  0  0  0  0  0  0
  195.0290  170.0700  138.8170 C   0  0  0  0  0  2  0  0  0  0  0  0
  194.6550  170.3330  137.3730 C   0  0  2  0  0  3  0  0  0  0  0  0
  197.0860  169.8750  137.4850 C   0  0  0  0  0  1  0  0  0  0  0  0
  195.9840  170.8220  137.9200 C   0  0  2  0  0  3  0  0  0  0  0  0
  1 16  1  0  0  0  0
  1  9  1  1  0  0  0
  3 10  1  0  0  0  0
  3 11  1  0  0  0  0
  5  2  1  6  0  0  0
  5  6  1  0  0  0  0
  6  4  1  0  0  0  0
  6 35  1  1  0  0  0
  7  8  1  0  0  0  0
  8 42  1  6  0  0  0
  8 11  1  0  0  0  0
  9  4  1  0  0  0  0
 10  5  1  0  0  0  0
 11  7  1  6  0  0  0
 11  1  1  0  0  0  0
 12 13  1  0  0  0  0
 13 14  1  6  0  0  0
 16 15  1  1  0  0  0
 16 12  1  0  0  0  0
 17 15  1  1  0  0  0
 17 21  1  0  0  0  0
 17 13  1  0  0  0  0
 18 23  1  0  0  0  0
 19 27  1  1  0  0  0
 21 22  1  0  0  0  0
 21 24  1  1  0  0  0
 22 18  1  0  0  0  0
 23 19  1  0  0  0  0
 23 20  1  1  0  0  0
 24 25  1  0  0  0  0
 25 19  1  0  0  0  0
 26 29  1  0  0  0  0
 27 30  2  0  0  0  0
 27 31  1  0  0  0  0
 28 29  2  0  0  0  0
 30 28  1  0  0  0  0
 31 26  2  0  0  0  0
 32 30  1  0  0  0  0
 33 32  1  0  0  0  0
 34 33  1  0  0  0  0
 35 36  3  0  0  0  0
 36 37  1  0  0  0  0
 37 41  2  0  0  0  0
 37 39  1  0  0  0  0
 38 40  2  0  0  0  0
 39 40  1  0  0  0  0
 41 38  1  0  0  0  0
 44 42  1  1  0  0  0
 44 46  1  0  0  0  0
 44 43  1  0  0  0  0
 46 45  1  6  0  0  0
 46 43  1  0  0  0  0
M  END
>  <MODEL>
8

>  <REMARK>
 VINA RESULT:      -6.7      3.292      9.064
  Name = 
  9 active torsions:
  status: ('A' for Active; 'I' for Inactive)
    1  A    between atoms: C_1  and  C_21
    2  A    between atoms: C_2  and  C_42
    3  A    between atoms: C_8  and  C_16
    4  A    between atoms: C_13  and  C_15
    5  A    between atoms: C_14  and  N_37
    6  A    between atoms: C_20  and  N_37
    7  A    between atoms: O_24  and  C_28
    8  A    between atoms: O_24  and  C_32
    9  A    between atoms: C_25  and  C_46
                            x       y       z     vdW  Elec       q    Type
                         _______ _______ _______ _____ _____    ______ ____

>  <TORSDO>
F 9

$$$$
=
 OpenBabel11062419463D

 46 52  0  0  1  0  0  0  0  0999 V2000
  193.9890  173.4400  139.7140 C   0  0  2  0  0  3  0  0  0  0  0  0
  189.7630  171.1220  141.5150 O   0  0  0  0  0  1  0  0  0  0  0  0
  193.2510  171.0810  140.7660 C   0  0  0  0  0  2  0  0  0  0  0  0
  191.5230  173.5110  139.1890 C   0  0  0  0  0  2  0  0  0  0  0  0
  190.8660  171.8090  140.9940 C   0  0  2  0  0  3  0  0  0  0  0  0
  190.3870  172.8750  139.9940 C   0  0  1  0  0  3  0  0  0  0  0  0
  195.3440  171.2670  139.3290 C   0  0  0  0  0  2  0  0  0  0  0  0
  194.2150  171.2820  138.3160 C   0  0  2  0  0  3  0  0  0  0  0  0
  192.6340  174.0250  140.0950 C   0  0  0  0  0  2  0  0  0  0  0  0
  191.8070  170.8060  140.3470 C   0  0  0  0  0  2  0  0  0  0  0  0
  194.0160  171.8900  139.7040 C   0  0  2  0  0  0  0  0  0  0  0  0
  195.3730  175.5500  140.1680 C   0  0  0  0  0  2  0  0  0  0  0  0
  195.8460  176.2430  141.4360 C   0  0  2  0  0  3  0  0  0  0  0  0
  197.2220  176.4550  141.3700 O   0  0  0  0  0  1  0  0  0  0  0  0
  194.7380  174.1380  142.0340 C   0  0  0  0  0  2  0  0  0  0  0  0
  195.0760  174.1160  140.5620 C   0  0  1  0  0  3  0  0  0  0  0  0
  195.5320  175.3060  142.5970 C   0  0  2  0  0  3  0  0  0  0  0  0
  194.6230  176.1790  145.9750 C   0  0  0  0  0  2  0  0  0  0  0  0
  192.1900  176.3630  145.2960 C   0  0  1  0  0  3  0  0  0  0  0  0
  192.9590  174.6930  146.8790 O   0  0  0  0  0  1  0  0  0  0  0  0
  194.7910  176.0220  143.7300 C   0  0  2  0  0  3  0  0  0  0  0  0
  194.9190  175.2910  144.9270 O   0  0  0  0  0  0  0  0  0  0  0  0
  193.1740  176.0020  146.4270 C   0  0  1  0  0  3  0  0  0  0  0  0
  193.3150  176.3090  143.3730 C   0  0  0  0  0  2  0  0  0  0  0  0
  192.4360  175.5610  144.1720 O   0  0  0  0  0  0  0  0  0  0  0  0
  188.9390  177.5360  146.8750 C   0  0  0  0  0  3  0  0  0  0  0  0
  190.7380  176.3330  145.7520 C   0  0  0  0  0  0  0  0  0  0  0  0
  188.4960  175.3840  145.8780 C   0  0  0  0  0  3  0  0  0  0  0  0
  188.0550  176.4960  146.5930 C   0  0  0  0  0  3  0  0  0  0  0  0
  189.8280  175.2850  145.4450 C   0  0  0  0  0  0  0  0  0  0  0  0
  190.2640  177.4570  146.4500 C   0  0  0  0  0  3  0  0  0  0  0  0
  190.2430  174.1360  144.6960 N   0  0  0  0  0  2  0  0  0  0  0  0
  189.7720  172.7790  144.9530 C   0  0  0  0  0  2  0  0  0  0  0  0
  190.7820  171.8650  144.6380 O   0  0  0  0  0  1  0  0  0  0  0  0
  189.6270  173.9170  140.6990 C   0  0  0  0  0  0  0  0  0  0  0  0
  189.0210  174.7780  141.2890 C   0  0  0  0  0  0  0  0  0  0  0  0
  188.3180  175.8060  142.0050 C   0  0  0  0  0  0  0  0  0  0  0  0
  187.8880  177.7250  143.0820 N   0  0  0  0  0  0  0  0  0  0  0  0
  186.9090  175.7190  142.4680 C   0  0  0  0  0  2  0  0  0  0  0  0
  186.7920  177.0410  143.1580 C   0  0  0  0  0  3  0  0  0  0  0  0
  188.8480  176.9610  142.3620 C   0  0  0  0  0  3  0  0  0  0  0  0
  193.6700  169.9960  138.2240 O   0  0  0  0  0  0  0  0  0  0  0  0
  192.0240  170.7800  136.6980 C   0  0  0  0  0  2  0  0  0  0  0  0
  193.2320  169.8890  136.9000 C   0  0  2  0  0  3  0  0  0  0  0  0
  191.5770  168.6680  135.5220 C   0  0  0  0  0  1  0  0  0  0  0  0
  191.8370  169.2910  136.8800 C   0  0  2  0  0  3  0  0  0  0  0  0
  1  9  1  1  0  0  0
  1 16  1  0  0  0  0
  4  6  1  0  0  0  0
  4  9  1  0  0  0  0
  5  2  1  6  0  0  0
  6 35  1  1  0  0  0
  6  5  1  0  0  0  0
  8 42  1  1  0  0  0
  8  7  1  0  0  0  0
  8 11  1  0  0  0  0
 10  3  1  0  0  0  0
 10  5  1  0  0  0  0
 11  7  1  1  0  0  0
 11  1  1  0  0  0  0
 11  3  1  0  0  0  0
 12 13  1  0  0  0  0
 13 14  1  6  0  0  0
 13 17  1  0  0  0  0
 16 12  1  6  0  0  0
 16 15  1  0  0  0  0
 17 15  1  6  0  0  0
 17 21  1  0  0  0  0
 18 23  1  0  0  0  0
 19 27  1  1  0  0  0
 19 23  1  0  0  0  0
 21 24  1  6  0  0  0
 21 22  1  0  0  0  0
 22 18  1  0  0  0  0
 23 20  1  6  0  0  0
 24 25  1  0  0  0  0
 25 19  1  0  0  0  0
 27 31  1  0  0  0  0
 28 29  2  0  0  0  0
 29 26  1  0  0  0  0
 30 27  2  0  0  0  0
 30 28  1  0  0  0  0
 31 26  2  0  0  0  0
 32 33  1  0  0  0  0
 32 30  1  0  0  0  0
 34 33  1  0  0  0  0
 35 36  3  0  0  0  0
 36 37  1  0  0  0  0
 37 41  2  0  0  0  0
 37 39  1  0  0  0  0
 38 40  2  0  0  0  0
 39 40  1  0  0  0  0
 41 38  1  0  0  0  0
 43 46  1  0  0  0  0
 43 44  1  0  0  0  0
 44 42  1  1  0  0  0
 46 45  1  6  0  0  0
 46 44  1  0  0  0  0
M  END
>  <MODEL>
9

>  <REMARK>
 VINA RESULT:      -6.7      3.200      8.700
  Name = 
  9 active torsions:
  status: ('A' for Active; 'I' for Inactive)
    1  A    between atoms: C_1  and  C_21
    2  A    between atoms: C_2  and  C_42
    3  A    between atoms: C_8  and  C_16
    4  A    between atoms: C_13  and  C_15
    5  A    between atoms: C_14  and  N_37
    6  A    between atoms: C_20  and  N_37
    7  A    between atoms: O_24  and  C_28
    8  A    between atoms: O_24  and  C_32
    9  A    between atoms: C_25  and  C_46
                            x       y       z     vdW  Elec       q    Type
                         _______ _______ _______ _____ _____    ______ ____

>  <TORSDO>
F 9

$$$$
