=
 OpenBabel11062421093D

 27 28  0  0  1  0  0  0  0  0999 V2000
  188.6130  173.3330  140.7380 O   0  0  0  0  0  1  0  0  0  0  0  0
  188.7930  174.5980  141.2850 C   0  0  0  0  0  0  0  0  0  0  0  0
  189.9000  174.8920  142.1170 C   0  0  0  0  0  0  0  0  0  0  0  0
  189.0670  177.1710  142.3300 C   0  0  0  0  0  3  0  0  0  0  0  0
  187.8470  175.5820  140.9940 C   0  0  0  0  0  3  0  0  0  0  0  0
  190.0410  176.2100  142.6390 C   0  0  0  0  0  0  0  0  0  0  0  0
  187.9750  176.8610  141.5240 C   0  0  0  0  0  0  0  0  0  0  0  0
  191.1730  176.6470  143.5010 C   0  0  0  0  0  0  0  0  0  0  0  0
  191.3640  176.1040  144.8100 N   0  0  0  0  0  2  0  0  0  0  0  0
  191.9940  177.4970  143.0600 O   0  0  0  0  0  0  0  0  0  0  0  0
  192.1000  176.4420  147.0380 N   0  0  0  0  0  1  0  0  0  0  0  0
  192.5070  176.4400  145.6460 C   0  0  1  0  0  3  0  0  0  0  0  0
  194.4180  175.3150  143.8260 O   0  0  0  0  0  0  0  0  0  0  0  0
  194.9590  175.4850  146.3800 O   0  0  0  0  0  1  0  0  0  0  0  0
  193.2190  173.6640  145.6840 O   0  0  0  0  0  1  0  0  0  0  0  0
  193.8320  175.2160  145.4090 P   0  0  0  0  0  0  0  0  0  0  0  0
  190.6690  172.9740  143.3520 O   0  0  0  0  0  0  0  0  0  0  0  0
  190.8820  173.8400  142.4630 C   0  0  0  0  0  3  0  0  0  0  0  0
  186.9750  177.9100  141.1900 C   0  0  0  0  0  2  0  0  0  0  0  0
  185.7830  177.6870  141.9310 O   0  0  0  0  0  0  0  0  0  0  0  0
  185.6580  179.2300  143.7770 C   0  0  0  0  0  3  0  0  0  0  0  0
  185.4380  178.7040  147.5160 C   0  0  0  0  0  1  0  0  0  0  0  0
  185.5730  179.4880  145.1480 C   0  0  0  0  0  3  0  0  0  0  0  0
  185.5670  177.1100  145.5980 C   0  0  0  0  0  3  0  0  0  0  0  0
  185.6520  176.8510  144.2260 C   0  0  0  0  0  3  0  0  0  0  0  0
  185.6980  177.9130  143.3080 C   0  0  0  0  0  0  0  0  0  0  0  0
  185.5280  178.4280  146.0580 C   0  0  0  0  0  0  0  0  0  0  0  0
  1  2  1  0  0  0  0
  2  3  1  0  0  0  0
  3 18  1  0  0  0  0
  3  6  2  0  0  0  0
  4  6  1  0  0  0  0
  5  2  2  0  0  0  0
  5  7  1  0  0  0  0
  6  8  1  0  0  0  0
  7  4  2  0  0  0  0
  8  9  1  0  0  0  0
  9 12  1  0  0  0  0
 10  8  2  0  0  0  0
 12 11  1  1  0  0  0
 13 16  2  0  0  0  0
 16 12  1  0  0  0  0
 16 15  1  0  0  0  0
 16 14  1  0  0  0  0
 18 17  2  0  0  0  0
 19  7  1  0  0  0  0
 19 20  1  0  0  0  0
 20 26  1  0  0  0  0
 21 23  1  0  0  0  0
 23 27  2  0  0  0  0
 24 27  1  0  0  0  0
 25 24  2  0  0  0  0
 26 21  2  0  0  0  0
 26 25  1  0  0  0  0
 27 22  1  0  0  0  0
M  END
>  <MODEL>
1

>  <REMARK>
 VINA RESULT:      -6.4      0.000      0.000
  Name = 
  7 active torsions:
  status: ('A' for Active; 'I' for Inactive)
    1  A    between atoms: C_1  and  C_22
    2  A    between atoms: N_5  and  C_24
    3  A    between atoms: C_6  and  C_26
    4  A    between atoms: C_6  and  O_27
    5  A    between atoms: C_14  and  C_21
    6  A    between atoms: P_20  and  C_24
    7  A    between atoms: C_23  and  O_27
                            x       y       z     vdW  Elec       q    Type
                         _______ _______ _______ _____ _____    ______ ____

>  <TORSDO>
F 7

$$$$
=
 OpenBabel11062421093D

 27 28  0  0  1  0  0  0  0  0999 V2000
  188.2420  173.1200  140.0770 O   0  0  0  0  0  1  0  0  0  0  0  0
  188.5860  174.0600  141.0410 C   0  0  0  0  0  0  0  0  0  0  0  0
  189.3910  173.7140  142.1550 C   0  0  0  0  0  0  0  0  0  0  0  0
  189.2270  176.0210  142.9210 C   0  0  0  0  0  3  0  0  0  0  0  0
  188.1160  175.3640  140.8880 C   0  0  0  0  0  3  0  0  0  0  0  0
  189.7240  174.7220  143.1050 C   0  0  0  0  0  0  0  0  0  0  0  0
  188.4240  176.3400  141.8290 C   0  0  0  0  0  0  0  0  0  0  0  0
  190.5820  174.4890  144.2990 C   0  0  0  0  0  0  0  0  0  0  0  0
  192.0090  174.4930  144.2020 N   0  0  0  0  0  2  0  0  0  0  0  0
  190.0400  174.3080  145.4240 O   0  0  0  0  0  0  0  0  0  0  0  0
  194.1190  173.7210  144.9580 N   0  0  0  0  0  1  0  0  0  0  0  0
  192.8800  174.3580  145.3600 C   0  0  1  0  0  3  0  0  0  0  0  0
  192.1370  176.3530  147.2830 O   0  0  0  0  0  1  0  0  0  0  0  0
  194.6460  176.0130  146.6270 O   0  0  0  0  0  1  0  0  0  0  0  0
  193.1270  177.1660  144.8400 O   0  0  0  0  0  0  0  0  0  0  0  0
  193.2460  175.9980  146.0570 P   0  0  0  0  0  0  0  0  0  0  0  0
  189.2480  171.4930  143.0710 O   0  0  0  0  0  0  0  0  0  0  0  0
  189.8560  172.3220  142.3440 C   0  0  0  0  0  3  0  0  0  0  0  0
  187.9380  177.7330  141.6450 C   0  0  0  0  0  2  0  0  0  0  0  0
  186.5650  177.8120  142.0080 O   0  0  0  0  0  0  0  0  0  0  0  0
  185.9170  179.2640  143.8180 C   0  0  0  0  0  3  0  0  0  0  0  0
  184.8460  178.5620  147.3770 C   0  0  0  0  0  1  0  0  0  0  0  0
  185.4950  179.4560  145.1370 C   0  0  0  0  0  3  0  0  0  0  0  0
  185.5170  177.0630  145.4960 C   0  0  0  0  0  3  0  0  0  0  0  0
  185.9410  176.8690  144.1770 C   0  0  0  0  0  3  0  0  0  0  0  0
  186.1430  177.9720  143.3300 C   0  0  0  0  0  0  0  0  0  0  0  0
  185.2950  178.3560  145.9750 C   0  0  0  0  0  0  0  0  0  0  0  0
  1  2  1  0  0  0  0
  2  3  1  0  0  0  0
  3 18  1  0  0  0  0
  3  6  2  0  0  0  0
  4  6  1  0  0  0  0
  5  2  2  0  0  0  0
  5  7  1  0  0  0  0
  6  8  1  0  0  0  0
  7  4  2  0  0  0  0
  8 10  2  0  0  0  0
  9  8  1  0  0  0  0
  9 12  1  0  0  0  0
 12 11  1  6  0  0  0
 12 16  1  0  0  0  0
 15 16  2  0  0  0  0
 16 14  1  0  0  0  0
 16 13  1  0  0  0  0
 18 17  2  0  0  0  0
 19  7  1  0  0  0  0
 19 20  1  0  0  0  0
 20 26  1  0  0  0  0
 21 23  1  0  0  0  0
 23 27  2  0  0  0  0
 24 27  1  0  0  0  0
 25 24  2  0  0  0  0
 26 21  2  0  0  0  0
 26 25  1  0  0  0  0
 27 22  1  0  0  0  0
M  END
>  <MODEL>
2

>  <REMARK>
 VINA RESULT:      -6.4      1.522      1.923
  Name = 
  7 active torsions:
  status: ('A' for Active; 'I' for Inactive)
    1  A    between atoms: C_1  and  C_22
    2  A    between atoms: N_5  and  C_24
    3  A    between atoms: C_6  and  C_26
    4  A    between atoms: C_6  and  O_27
    5  A    between atoms: C_14  and  C_21
    6  A    between atoms: P_20  and  C_24
    7  A    between atoms: C_23  and  O_27
                            x       y       z     vdW  Elec       q    Type
                         _______ _______ _______ _____ _____    ______ ____

>  <TORSDO>
F 7

$$$$
=
 OpenBabel11062421093D

 27 28  0  0  1  0  0  0  0  0999 V2000
  192.2230  177.4980  148.5100 O   0  0  0  0  0  1  0  0  0  0  0  0
  191.9260  176.6350  147.4620 C   0  0  0  0  0  0  0  0  0  0  0  0
  192.9270  176.1920  146.5620 C   0  0  0  0  0  0  0  0  0  0  0  0
  191.2280  174.8960  145.3930 C   0  0  0  0  0  3  0  0  0  0  0  0
  190.6050  176.2100  147.3130 C   0  0  0  0  0  3  0  0  0  0  0  0
  192.5670  175.2970  145.5150 C   0  0  0  0  0  0  0  0  0  0  0  0
  190.2530  175.3530  146.2760 C   0  0  0  0  0  0  0  0  0  0  0  0
  193.5310  174.7420  144.5260 C   0  0  0  0  0  0  0  0  0  0  0  0
  194.0930  175.5600  143.4960 N   0  0  0  0  0  2  0  0  0  0  0  0
  193.8790  173.5320  144.6120 O   0  0  0  0  0  0  0  0  0  0  0  0
  194.9000  175.6940  141.2710 N   0  0  0  0  0  1  0  0  0  0  0  0
  195.1050  175.0770  142.5680 C   0  0  1  0  0  3  0  0  0  0  0  0
  197.0450  174.7130  144.6490 O   0  0  0  0  0  1  0  0  0  0  0  0
  197.8080  175.0740  142.1740 O   0  0  0  0  0  0  0  0  0  0  0  0
  196.8670  177.1740  143.4120 O   0  0  0  0  0  1  0  0  0  0  0  0
  196.7640  175.5020  143.1800 P   0  0  0  0  0  0  0  0  0  0  0  0
  194.7490  177.6900  146.0810 O   0  0  0  0  0  0  0  0  0  0  0  0
  194.3200  176.6750  146.6900 C   0  0  0  0  0  3  0  0  0  0  0  0
  188.8480  174.8870  146.1390 C   0  0  0  0  0  2  0  0  0  0  0  0
  187.9870  175.7350  146.8870 O   0  0  0  0  0  0  0  0  0  0  0  0
  187.5770  177.4040  145.1980 C   0  0  0  0  0  3  0  0  0  0  0  0
  184.5270  179.4820  144.3700 C   0  0  0  0  0  1  0  0  0  0  0  0
  186.7320  178.3270  144.5740 C   0  0  0  0  0  3  0  0  0  0  0  0
  184.9590  177.7510  146.1170 C   0  0  0  0  0  3  0  0  0  0  0  0
  185.8030  176.8280  146.7420 C   0  0  0  0  0  3  0  0  0  0  0  0
  187.1190  176.6490  146.2840 C   0  0  0  0  0  0  0  0  0  0  0  0
  185.4240  178.5000  145.0340 C   0  0  0  0  0  0  0  0  0  0  0  0
  2  1  1  0  0  0  0
  3 18  1  0  0  0  0
  3  2  2  0  0  0  0
  4  6  2  0  0  0  0
  4  7  1  0  0  0  0
  5  2  1  0  0  0  0
  6  3  1  0  0  0  0
  7  5  2  0  0  0  0
  8 10  2  0  0  0  0
  8  6  1  0  0  0  0
  9  8  1  0  0  0  0
 12 11  1  6  0  0  0
 12 16  1  0  0  0  0
 12  9  1  0  0  0  0
 14 16  2  0  0  0  0
 16 15  1  0  0  0  0
 16 13  1  0  0  0  0
 17 18  2  0  0  0  0
 19  7  1  0  0  0  0
 19 20  1  0  0  0  0
 21 26  1  0  0  0  0
 22 27  1  0  0  0  0
 23 27  1  0  0  0  0
 23 21  2  0  0  0  0
 24 25  1  0  0  0  0
 26 25  2  0  0  0  0
 26 20  1  0  0  0  0
 27 24  2  0  0  0  0
M  END
>  <MODEL>
3

>  <REMARK>
 VINA RESULT:      -6.3      3.277      4.961
  Name = 
  7 active torsions:
  status: ('A' for Active; 'I' for Inactive)
    1  A    between atoms: C_1  and  C_22
    2  A    between atoms: N_5  and  C_24
    3  A    between atoms: C_6  and  C_26
    4  A    between atoms: C_6  and  O_27
    5  A    between atoms: C_14  and  C_21
    6  A    between atoms: P_20  and  C_24
    7  A    between atoms: C_23  and  O_27
                            x       y       z     vdW  Elec       q    Type
                         _______ _______ _______ _____ _____    ______ ____

>  <TORSDO>
F 7

$$$$
=
 OpenBabel11062421093D

 27 28  0  0  1  0  0  0  0  0999 V2000
  183.2800  179.1310  143.3860 O   0  0  0  0  0  1  0  0  0  0  0  0
  184.3890  178.3400  143.6640 C   0  0  0  0  0  0  0  0  0  0  0  0
  185.2460  177.8810  142.6340 C   0  0  0  0  0  0  0  0  0  0  0  0
  186.5920  176.7610  144.3280 C   0  0  0  0  0  3  0  0  0  0  0  0
  184.6410  178.0040  144.9950 C   0  0  0  0  0  3  0  0  0  0  0  0
  186.3750  177.0840  142.9800 C   0  0  0  0  0  0  0  0  0  0  0  0
  185.7310  177.2080  145.3270 C   0  0  0  0  0  0  0  0  0  0  0  0
  187.3610  176.5650  141.9930 C   0  0  0  0  0  0  0  0  0  0  0  0
  187.8770  175.2340  142.0860 N   0  0  0  0  0  2  0  0  0  0  0  0
  187.7320  177.3050  141.0410 O   0  0  0  0  0  0  0  0  0  0  0  0
  190.1450  174.8370  141.5240 N   0  0  0  0  0  1  0  0  0  0  0  0
  188.7710  174.6630  141.0910 C   0  0  1  0  0  3  0  0  0  0  0  0
  187.9450  172.5820  139.2980 O   0  0  0  0  0  0  0  0  0  0  0  0
  189.6670  172.0840  141.2030 O   0  0  0  0  0  1  0  0  0  0  0  0
  187.1860  172.4330  141.9460 O   0  0  0  0  0  1  0  0  0  0  0  0
  188.4260  172.8890  140.8890 P   0  0  0  0  0  0  0  0  0  0  0  0
  183.8670  177.9060  140.6620 O   0  0  0  0  0  0  0  0  0  0  0  0
  184.9580  178.1980  141.2180 C   0  0  0  0  0  3  0  0  0  0  0  0
  186.0050  176.8740  146.7490 C   0  0  0  0  0  2  0  0  0  0  0  0
  187.2570  177.4240  147.1370 O   0  0  0  0  0  0  0  0  0  0  0  0
  189.6040  177.4800  146.5970 C   0  0  0  0  0  3  0  0  0  0  0  0
  192.2250  174.7620  146.3760 C   0  0  0  0  0  1  0  0  0  0  0  0
  190.8290  176.8330  146.4080 C   0  0  0  0  0  3  0  0  0  0  0  0
  189.7920  174.7110  146.9360 C   0  0  0  0  0  3  0  0  0  0  0  0
  188.5660  175.3570  147.1250 C   0  0  0  0  0  3  0  0  0  0  0  0
  188.4670  176.7490  146.9560 C   0  0  0  0  0  0  0  0  0  0  0  0
  190.9220  175.4490  146.5770 C   0  0  0  0  0  0  0  0  0  0  0  0
  1  2  1  0  0  0  0
  2  5  1  0  0  0  0
  3  6  1  0  0  0  0
  3  2  2  0  0  0  0
  4  7  1  0  0  0  0
  5  7  2  0  0  0  0
  6  4  2  0  0  0  0
  7 19  1  0  0  0  0
  8  9  1  0  0  0  0
  8  6  1  0  0  0  0
 10  8  2  0  0  0  0
 12 11  1  1  0  0  0
 12  9  1  0  0  0  0
 13 16  2  0  0  0  0
 16 12  1  0  0  0  0
 16 14  1  0  0  0  0
 16 15  1  0  0  0  0
 17 18  2  0  0  0  0
 18  3  1  0  0  0  0
 19 20  1  0  0  0  0
 21 26  1  0  0  0  0
 22 27  1  0  0  0  0
 23 27  1  0  0  0  0
 23 21  2  0  0  0  0
 24 25  1  0  0  0  0
 26 25  2  0  0  0  0
 26 20  1  0  0  0  0
 27 24  2  0  0  0  0
M  END
>  <MODEL>
4

>  <REMARK>
 VINA RESULT:      -6.3      3.499      6.144
  Name = 
  7 active torsions:
  status: ('A' for Active; 'I' for Inactive)
    1  A    between atoms: C_1  and  C_22
    2  A    between atoms: N_5  and  C_24
    3  A    between atoms: C_6  and  C_26
    4  A    between atoms: C_6  and  O_27
    5  A    between atoms: C_14  and  C_21
    6  A    between atoms: P_20  and  C_24
    7  A    between atoms: C_23  and  O_27
                            x       y       z     vdW  Elec       q    Type
                         _______ _______ _______ _____ _____    ______ ____

>  <TORSDO>
F 7

$$$$
=
 OpenBabel11062421093D

 27 28  0  0  1  0  0  0  0  0999 V2000
  188.7190  174.0230  140.3060 O   0  0  0  0  0  1  0  0  0  0  0  0
  188.8630  174.3940  141.6380 C   0  0  0  0  0  0  0  0  0  0  0  0
  188.4230  175.6580  142.1040 C   0  0  0  0  0  0  0  0  0  0  0  0
  189.1910  175.0430  144.3320 C   0  0  0  0  0  3  0  0  0  0  0  0
  189.4560  173.4860  142.5140 C   0  0  0  0  0  3  0  0  0  0  0  0
  188.5830  175.9790  143.4820 C   0  0  0  0  0  0  0  0  0  0  0  0
  189.6320  173.8110  143.8550 C   0  0  0  0  0  0  0  0  0  0  0  0
  188.1390  177.2600  144.0950 C   0  0  0  0  0  0  0  0  0  0  0  0
  186.7500  177.5750  144.2370 N   0  0  0  0  0  2  0  0  0  0  0  0
  189.0030  178.0750  144.5200 O   0  0  0  0  0  0  0  0  0  0  0  0
  185.6110  179.6340  143.9490 N   0  0  0  0  0  1  0  0  0  0  0  0
  186.2780  178.7760  144.9100 C   0  0  1  0  0  3  0  0  0  0  0  0
  185.0690  176.6470  146.4060 O   0  0  0  0  0  1  0  0  0  0  0  0
  185.5390  178.9600  147.5340 O   0  0  0  0  0  1  0  0  0  0  0  0
  183.5640  178.8860  145.8250 O   0  0  0  0  0  0  0  0  0  0  0  0
  185.1080  178.3280  146.2290 P   0  0  0  0  0  0  0  0  0  0  0  0
  186.5910  176.7600  141.0000 O   0  0  0  0  0  0  0  0  0  0  0  0
  187.8320  176.6410  141.1690 C   0  0  0  0  0  3  0  0  0  0  0  0
  190.2450  172.8280  144.7870 C   0  0  0  0  0  2  0  0  0  0  0  0
  191.6590  172.8500  144.6430 O   0  0  0  0  0  0  0  0  0  0  0  0
  192.4660  174.5080  146.1930 C   0  0  0  0  0  3  0  0  0  0  0  0
  194.7470  177.4940  145.7590 C   0  0  0  0  0  1  0  0  0  0  0  0
  193.2230  175.6490  146.4750 C   0  0  0  0  0  3  0  0  0  0  0  0
  193.9070  175.7720  144.1570 C   0  0  0  0  0  3  0  0  0  0  0  0
  193.1500  174.6300  143.8740 C   0  0  0  0  0  3  0  0  0  0  0  0
  192.4250  173.9920  144.8940 C   0  0  0  0  0  0  0  0  0  0  0  0
  193.9430  176.2800  145.4580 C   0  0  0  0  0  0  0  0  0  0  0  0
  1  2  1  0  0  0  0
  2  3  2  0  0  0  0
  2  5  1  0  0  0  0
  3  6  1  0  0  0  0
  5  7  2  0  0  0  0
  6  8  1  0  0  0  0
  6  4  2  0  0  0  0
  7  4  1  0  0  0  0
  7 19  1  0  0  0  0
  8  9  1  0  0  0  0
  8 10  2  0  0  0  0
  9 12  1  0  0  0  0
 12 11  1  6  0  0  0
 12 16  1  0  0  0  0
 15 16  2  0  0  0  0
 16 13  1  0  0  0  0
 16 14  1  0  0  0  0
 17 18  2  0  0  0  0
 18  3  1  0  0  0  0
 20 19  1  0  0  0  0
 20 26  1  0  0  0  0
 21 23  1  0  0  0  0
 24 27  1  0  0  0  0
 25 24  2  0  0  0  0
 25 26  1  0  0  0  0
 26 21  2  0  0  0  0
 27 22  1  0  0  0  0
 27 23  2  0  0  0  0
M  END
>  <MODEL>
5

>  <REMARK>
 VINA RESULT:      -6.3      3.385      6.893
  Name = 
  7 active torsions:
  status: ('A' for Active; 'I' for Inactive)
    1  A    between atoms: C_1  and  C_22
    2  A    between atoms: N_5  and  C_24
    3  A    between atoms: C_6  and  C_26
    4  A    between atoms: C_6  and  O_27
    5  A    between atoms: C_14  and  C_21
    6  A    between atoms: P_20  and  C_24
    7  A    between atoms: C_23  and  O_27
                            x       y       z     vdW  Elec       q    Type
                         _______ _______ _______ _____ _____    ______ ____

>  <TORSDO>
F 7

$$$$
=
 OpenBabel11062421093D

 27 28  0  0  1  0  0  0  0  0999 V2000
  186.5670  178.2320  146.4330 O   0  0  0  0  0  1  0  0  0  0  0  0
  186.5790  177.7630  145.1240 C   0  0  0  0  0  0  0  0  0  0  0  0
  185.6510  178.2340  144.1630 C   0  0  0  0  0  0  0  0  0  0  0  0
  186.6890  176.7630  142.5210 C   0  0  0  0  0  3  0  0  0  0  0  0
  187.5340  176.8090  144.7750 C   0  0  0  0  0  3  0  0  0  0  0  0
  185.7190  177.7280  142.8330 C   0  0  0  0  0  0  0  0  0  0  0  0
  187.5830  176.3000  143.4820 C   0  0  0  0  0  0  0  0  0  0  0  0
  184.8190  178.1630  141.7300 C   0  0  0  0  0  0  0  0  0  0  0  0
  183.3960  178.0670  141.8490 N   0  0  0  0  0  2  0  0  0  0  0  0
  185.3190  178.6470  140.6780 O   0  0  0  0  0  0  0  0  0  0  0  0
  182.2930  177.5420  139.8180 N   0  0  0  0  0  1  0  0  0  0  0  0
  182.4830  178.5640  140.8310 C   0  0  1  0  0  3  0  0  0  0  0  0
  180.1710  180.2580  140.7410 O   0  0  0  0  0  0  0  0  0  0  0  0
  179.9620  177.7700  141.5210 O   0  0  0  0  0  1  0  0  0  0  0  0
  181.1080  179.4170  143.1960 O   0  0  0  0  0  1  0  0  0  0  0  0
  180.8780  178.9720  141.5800 P   0  0  0  0  0  0  0  0  0  0  0  0
  183.6750  178.9430  145.3390 O   0  0  0  0  0  0  0  0  0  0  0  0
  184.6080  179.2140  144.5390 C   0  0  0  0  0  3  0  0  0  0  0  0
  188.6200  175.3000  143.1130 C   0  0  0  0  0  2  0  0  0  0  0  0
  189.1510  174.7050  144.2900 O   0  0  0  0  0  0  0  0  0  0  0  0
  191.3840  175.5680  144.0210 C   0  0  0  0  0  3  0  0  0  0  0  0
  194.1160  176.3670  146.5120 C   0  0  0  0  0  1  0  0  0  0  0  0
  192.6070  175.9790  144.5590 C   0  0  0  0  0  3  0  0  0  0  0  0
  191.8000  175.4730  146.7840 C   0  0  0  0  0  3  0  0  0  0  0  0
  190.5760  175.0630  146.2460 C   0  0  0  0  0  3  0  0  0  0  0  0
  190.3620  175.1090  144.8590 C   0  0  0  0  0  0  0  0  0  0  0  0
  192.8140  175.9310  145.9400 C   0  0  0  0  0  0  0  0  0  0  0  0
  2  1  1  0  0  0  0
  3 18  1  0  0  0  0
  3  2  2  0  0  0  0
  4  6  2  0  0  0  0
  4  7  1  0  0  0  0
  5  2  1  0  0  0  0
  6  3  1  0  0  0  0
  7  5  2  0  0  0  0
  8  9  1  0  0  0  0
  8  6  1  0  0  0  0
 10  8  2  0  0  0  0
 12 11  1  6  0  0  0
 12 16  1  0  0  0  0
 12  9  1  0  0  0  0
 13 16  2  0  0  0  0
 14 16  1  0  0  0  0
 16 15  1  0  0  0  0
 18 17  2  0  0  0  0
 19  7  1  0  0  0  0
 19 20  1  0  0  0  0
 20 26  1  0  0  0  0
 21 23  2  0  0  0  0
 21 26  1  0  0  0  0
 23 27  1  0  0  0  0
 25 24  1  0  0  0  0
 26 25  2  0  0  0  0
 27 22  1  0  0  0  0
 27 24  2  0  0  0  0
M  END
>  <MODEL>
6

>  <REMARK>
 VINA RESULT:      -6.2      4.666      8.716
  Name = 
  7 active torsions:
  status: ('A' for Active; 'I' for Inactive)
    1  A    between atoms: C_1  and  C_22
    2  A    between atoms: N_5  and  C_24
    3  A    between atoms: C_6  and  C_26
    4  A    between atoms: C_6  and  O_27
    5  A    between atoms: C_14  and  C_21
    6  A    between atoms: P_20  and  C_24
    7  A    between atoms: C_23  and  O_27
                            x       y       z     vdW  Elec       q    Type
                         _______ _______ _______ _____ _____    ______ ____

>  <TORSDO>
F 7

$$$$
=
 OpenBabel11062421093D

 27 28  0  0  1  0  0  0  0  0999 V2000
  194.7660  175.6640  146.5140 O   0  0  0  0  0  1  0  0  0  0  0  0
  193.5020  175.6500  145.9350 C   0  0  0  0  0  0  0  0  0  0  0  0
  193.2850  175.1030  144.6470 C   0  0  0  0  0  0  0  0  0  0  0  0
  190.9240  175.6630  144.8640 C   0  0  0  0  0  3  0  0  0  0  0  0
  192.4400  176.1920  146.6600 C   0  0  0  0  0  3  0  0  0  0  0  0
  191.9660  175.1030  144.1100 C   0  0  0  0  0  0  0  0  0  0  0  0
  191.1570  176.2110  146.1230 C   0  0  0  0  0  0  0  0  0  0  0  0
  191.6080  174.5350  142.7810 C   0  0  0  0  0  0  0  0  0  0  0  0
  190.8650  173.3180  142.6670 N   0  0  0  0  0  2  0  0  0  0  0  0
  191.9470  175.1510  141.7330 O   0  0  0  0  0  0  0  0  0  0  0  0
  190.5030  171.3320  141.4250 N   0  0  0  0  0  1  0  0  0  0  0  0
  190.4200  172.7800  141.3900 C   0  0  1  0  0  3  0  0  0  0  0  0
  188.1870  172.6290  139.5960 O   0  0  0  0  0  0  0  0  0  0  0  0
  187.8050  172.7700  142.1800 O   0  0  0  0  0  1  0  0  0  0  0  0
  188.6040  174.9640  141.0070 O   0  0  0  0  0  1  0  0  0  0  0  0
  188.7000  173.2770  141.0720 P   0  0  0  0  0  0  0  0  0  0  0  0
  195.2030  175.3010  143.2060 O   0  0  0  0  0  0  0  0  0  0  0  0
  194.4160  174.5660  143.8570 C   0  0  0  0  0  3  0  0  0  0  0  0
  190.0270  176.7700  146.9120 C   0  0  0  0  0  2  0  0  0  0  0  0
  188.8150  176.1340  146.5270 O   0  0  0  0  0  0  0  0  0  0  0  0
  186.5040  176.7110  146.8870 C   0  0  0  0  0  3  0  0  0  0  0  0
  184.1380  179.0010  145.0250 C   0  0  0  0  0  1  0  0  0  0  0  0
  185.3500  177.4130  146.5240 C   0  0  0  0  0  3  0  0  0  0  0  0
  186.5340  178.4000  144.6580 C   0  0  0  0  0  3  0  0  0  0  0  0
  187.6890  177.6990  145.0200 C   0  0  0  0  0  3  0  0  0  0  0  0
  187.6790  176.8490  146.1390 C   0  0  0  0  0  0  0  0  0  0  0  0
  185.3660  178.2560  145.4100 C   0  0  0  0  0  0  0  0  0  0  0  0
  2  1  1  0  0  0  0
  2  5  1  0  0  0  0
  3  2  2  0  0  0  0
  4  7  1  0  0  0  0
  6  3  1  0  0  0  0
  6  4  2  0  0  0  0
  7  5  2  0  0  0  0
  7 19  1  0  0  0  0
  8  6  1  0  0  0  0
  9  8  1  0  0  0  0
 10  8  2  0  0  0  0
 12 11  1  1  0  0  0
 12  9  1  0  0  0  0
 13 16  2  0  0  0  0
 15 16  1  0  0  0  0
 16 12  1  0  0  0  0
 16 14  1  0  0  0  0
 17 18  2  0  0  0  0
 18  3  1  0  0  0  0
 20 19  1  0  0  0  0
 22 27  1  0  0  0  0
 23 21  1  0  0  0  0
 24 25  2  0  0  0  0
 24 27  1  0  0  0  0
 25 26  1  0  0  0  0
 26 20  1  0  0  0  0
 26 21  2  0  0  0  0
 27 23  2  0  0  0  0
M  END
>  <MODEL>
7

>  <REMARK>
 VINA RESULT:      -6.1      2.841      5.338
  Name = 
  7 active torsions:
  status: ('A' for Active; 'I' for Inactive)
    1  A    between atoms: C_1  and  C_22
    2  A    between atoms: N_5  and  C_24
    3  A    between atoms: C_6  and  C_26
    4  A    between atoms: C_6  and  O_27
    5  A    between atoms: C_14  and  C_21
    6  A    between atoms: P_20  and  C_24
    7  A    between atoms: C_23  and  O_27
                            x       y       z     vdW  Elec       q    Type
                         _______ _______ _______ _____ _____    ______ ____

>  <TORSDO>
F 7

$$$$
=
 OpenBabel11062421093D

 27 28  0  0  1  0  0  0  0  0999 V2000
  188.4320  172.8450  142.0210 O   0  0  0  0  0  1  0  0  0  0  0  0
  188.9150  174.1240  142.2700 C   0  0  0  0  0  0  0  0  0  0  0  0
  190.1310  174.3310  142.9680 C   0  0  0  0  0  0  0  0  0  0  0  0
  189.8040  176.7320  142.7150 C   0  0  0  0  0  3  0  0  0  0  0  0
  188.1690  175.2100  141.8130 C   0  0  0  0  0  3  0  0  0  0  0  0
  190.5850  175.6630  143.1820 C   0  0  0  0  0  0  0  0  0  0  0  0
  188.6040  176.5110  142.0450 C   0  0  0  0  0  0  0  0  0  0  0  0
  191.8550  176.0080  143.8760 C   0  0  0  0  0  0  0  0  0  0  0  0
  193.1270  175.7060  143.2950 N   0  0  0  0  0  2  0  0  0  0  0  0
  191.8110  176.6000  144.9900 O   0  0  0  0  0  0  0  0  0  0  0  0
  194.7260  175.1780  144.9630 N   0  0  0  0  0  1  0  0  0  0  0  0
  194.3880  176.1070  143.9010 C   0  0  1  0  0  3  0  0  0  0  0  0
  197.0130  177.0240  143.1990 O   0  0  0  0  0  1  0  0  0  0  0  0
  196.1700  174.6800  142.4010 O   0  0  0  0  0  1  0  0  0  0  0  0
  195.1220  176.7560  141.2080 O   0  0  0  0  0  0  0  0  0  0  0  0
  195.7090  176.0980  142.6520 P   0  0  0  0  0  0  0  0  0  0  0  0
  190.5770  172.5610  144.5360 O   0  0  0  0  0  0  0  0  0  0  0  0
  190.9030  173.1820  143.4910 C   0  0  0  0  0  3  0  0  0  0  0  0
  187.8140  177.6630  141.5350 C   0  0  0  0  0  2  0  0  0  0  0  0
  186.4740  177.5670  142.0000 O   0  0  0  0  0  0  0  0  0  0  0  0
  185.9270  176.7670  144.2060 C   0  0  0  0  0  3  0  0  0  0  0  0
  185.0030  178.5650  147.4020 C   0  0  0  0  0  1  0  0  0  0  0  0
  185.5660  177.0050  145.5350 C   0  0  0  0  0  3  0  0  0  0  0  0
  185.5710  179.3870  145.1140 C   0  0  0  0  0  3  0  0  0  0  0  0
  185.9330  179.1510  143.7830 C   0  0  0  0  0  3  0  0  0  0  0  0
  186.1130  177.8370  143.3230 C   0  0  0  0  0  0  0  0  0  0  0  0
  185.3880  178.3140  145.9880 C   0  0  0  0  0  0  0  0  0  0  0  0
  1  2  1  0  0  0  0
  2  3  1  0  0  0  0
  3  6  2  0  0  0  0
  3 18  1  0  0  0  0
  4  6  1  0  0  0  0
  5  7  1  0  0  0  0
  5  2  2  0  0  0  0
  6  8  1  0  0  0  0
  7  4  2  0  0  0  0
  8 10  2  0  0  0  0
  9  8  1  0  0  0  0
  9 12  1  0  0  0  0
 12 11  1  1  0  0  0
 14 16  1  0  0  0  0
 15 16  2  0  0  0  0
 16 13  1  0  0  0  0
 16 12  1  0  0  0  0
 18 17  2  0  0  0  0
 19 20  1  0  0  0  0
 19  7  1  0  0  0  0
 20 26  1  0  0  0  0
 21 23  1  0  0  0  0
 23 27  2  0  0  0  0
 24 27  1  0  0  0  0
 25 24  2  0  0  0  0
 26 25  1  0  0  0  0
 26 21  2  0  0  0  0
 27 22  1  0  0  0  0
M  END
>  <MODEL>
8

>  <REMARK>
 VINA RESULT:      -6.1      1.711      2.277
  Name = 
  7 active torsions:
  status: ('A' for Active; 'I' for Inactive)
    1  A    between atoms: C_1  and  C_22
    2  A    between atoms: N_5  and  C_24
    3  A    between atoms: C_6  and  C_26
    4  A    between atoms: C_6  and  O_27
    5  A    between atoms: C_14  and  C_21
    6  A    between atoms: P_20  and  C_24
    7  A    between atoms: C_23  and  O_27
                            x       y       z     vdW  Elec       q    Type
                         _______ _______ _______ _____ _____    ______ ____

>  <TORSDO>
F 7

$$$$
=
 OpenBabel11062421093D

 27 28  0  0  1  0  0  0  0  0999 V2000
  194.0820  175.2840  146.0480 O   0  0  0  0  0  1  0  0  0  0  0  0
  192.7030  175.2160  145.8830 C   0  0  0  0  0  0  0  0  0  0  0  0
  192.1040  174.2130  145.0820 C   0  0  0  0  0  0  0  0  0  0  0  0
  189.9250  175.1620  145.6190 C   0  0  0  0  0  3  0  0  0  0  0  0
  191.9140  176.1680  146.5300 C   0  0  0  0  0  3  0  0  0  0  0  0
  190.6850  174.1830  144.9590 C   0  0  0  0  0  0  0  0  0  0  0  0
  190.5310  176.1500  146.3900 C   0  0  0  0  0  0  0  0  0  0  0  0
  189.9390  173.1660  144.1700 C   0  0  0  0  0  0  0  0  0  0  0  0
  189.5730  173.4040  142.8070 N   0  0  0  0  0  2  0  0  0  0  0  0
  189.6430  172.0620  144.7050 O   0  0  0  0  0  0  0  0  0  0  0  0
  187.4910  172.6300  141.9800 N   0  0  0  0  0  1  0  0  0  0  0  0
  188.9230  172.4000  141.9780 C   0  0  1  0  0  3  0  0  0  0  0  0
  188.2460  172.6740  139.2040 O   0  0  0  0  0  0  0  0  0  0  0  0
  190.4670  173.6960  140.1340 O   0  0  0  0  0  1  0  0  0  0  0  0
  190.3990  171.0940  139.8970 O   0  0  0  0  0  1  0  0  0  0  0  0
  189.5460  172.5050  140.2720 P   0  0  0  0  0  0  0  0  0  0  0  0
  193.1450  172.0630  144.7890 O   0  0  0  0  0  0  0  0  0  0  0  0
  192.9390  173.2280  144.3590 C   0  0  0  0  0  3  0  0  0  0  0  0
  189.6970  177.1540  147.1010 C   0  0  0  0  0  2  0  0  0  0  0  0
  188.3740  176.6560  147.2530 O   0  0  0  0  0  0  0  0  0  0  0  0
  187.4440  177.8060  145.3510 C   0  0  0  0  0  3  0  0  0  0  0  0
  183.9500  179.0370  144.5860 C   0  0  0  0  0  1  0  0  0  0  0  0
  186.3620  178.3930  144.6890 C   0  0  0  0  0  3  0  0  0  0  0  0
  184.9210  177.8440  146.5540 C   0  0  0  0  0  3  0  0  0  0  0  0
  186.0020  177.2570  147.2170 C   0  0  0  0  0  3  0  0  0  0  0  0
  187.2720  177.2350  146.6160 C   0  0  0  0  0  0  0  0  0  0  0  0
  185.1010  178.4120  145.2900 C   0  0  0  0  0  0  0  0  0  0  0  0
  2  1  1  0  0  0  0
  2  5  1  0  0  0  0
  3  2  2  0  0  0  0
  4  7  1  0  0  0  0
  6  3  1  0  0  0  0
  6  4  2  0  0  0  0
  7  5  2  0  0  0  0
  7 19  1  0  0  0  0
  8 10  2  0  0  0  0
  8  6  1  0  0  0  0
  9  8  1  0  0  0  0
 12 11  1  6  0  0  0
 12  9  1  0  0  0  0
 13 16  2  0  0  0  0
 14 16  1  0  0  0  0
 15 16  1  0  0  0  0
 16 12  1  0  0  0  0
 18 17  2  0  0  0  0
 18  3  1  0  0  0  0
 19 20  1  0  0  0  0
 21 26  1  0  0  0  0
 22 27  1  0  0  0  0
 23 27  1  0  0  0  0
 23 21  2  0  0  0  0
 24 25  1  0  0  0  0
 26 25  2  0  0  0  0
 26 20  1  0  0  0  0
 27 24  2  0  0  0  0
M  END
>  <MODEL>
9

>  <REMARK>
 VINA RESULT:      -6.1      3.177      5.301
  Name = 
  7 active torsions:
  status: ('A' for Active; 'I' for Inactive)
    1  A    between atoms: C_1  and  C_22
    2  A    between atoms: N_5  and  C_24
    3  A    between atoms: C_6  and  C_26
    4  A    between atoms: C_6  and  O_27
    5  A    between atoms: C_14  and  C_21
    6  A    between atoms: P_20  and  C_24
    7  A    between atoms: C_23  and  O_27
                            x       y       z     vdW  Elec       q    Type
                         _______ _______ _______ _____ _____    ______ ____

>  <TORSDO>
F 7

$$$$
