=
 OpenBabel11072409193D

 64 71  0  0  1  0  0  0  0  0999 V2000
  191.0600  176.6710  142.7110 C   0  0  0  0  0  1  0  0  0  0  0  0
  190.4080  175.0580  147.0910 C   0  0  0  0  0  3  0  0  0  0  0  0
  191.7350  176.7130  144.0710 C   0  0  2  0  0  0  0  0  0  0  0  0
  188.7960  176.7970  146.5270 C   0  0  0  0  0  0  0  0  0  0  0  0
  191.1640  175.4420  145.9850 C   0  0  0  0  0  0  0  0  0  0  0  0
  192.4590  174.8660  145.5700 C   0  0  0  0  0  2  0  0  0  0  0  0
  192.7330  175.5350  144.2130 C   0  0  2  0  0  3  0  0  0  0  0  0
  190.7630  176.4680  145.1650 C   0  0  0  0  0  0  0  0  0  0  0  0
  189.5860  177.1770  145.4250 C   0  0  0  0  0  3  0  0  0  0  0  0
  189.2140  175.7430  147.3570 C   0  0  0  0  0  3  0  0  0  0  0  0
  192.3560  177.9500  144.2640 O   0  0  0  0  0  1  0  0  0  0  0  0
  195.0850  175.2270  144.9020 O   0  0  0  0  0  0  0  0  0  0  0  0
  197.4620  171.5070  144.8600 C   0  0  0  0  0  2  0  0  0  0  0  0
  194.2150  175.9170  144.0210 C   0  0  1  0  0  3  0  0  0  0  0  0
  195.1280  174.4280  142.1090 C   0  0  0  0  0  2  0  0  0  0  0  0
  195.1380  173.8610  144.5460 C   0  0  2  0  0  3  0  0  0  0  0  0
  196.1400  172.2340  142.7580 C   0  0  1  0  0  3  0  0  0  0  0  0
  194.5760  176.7050  141.8140 O   0  0  0  0  0  0  0  0  0  0  0  0
  195.6790  173.0680  145.7410 C   0  0  0  0  0  2  0  0  0  0  0  0
  196.4010  171.1500  143.8120 C   0  0  0  0  0  2  0  0  0  0  0  0
  195.9060  173.6970  143.2050 C   0  0  1  0  0  3  0  0  0  0  0  0
  197.1750  172.7970  145.6320 C   0  0  0  0  0  2  0  0  0  0  0  0
  194.6570  175.7660  142.5900 C   0  0  0  0  0  0  0  0  0  0  0  0
  196.8670  172.0260  141.5570 O   0  0  0  0  0  0  0  0  0  0  0  0
  197.5880  169.6500  138.9520 C   0  0  0  0  0  2  0  0  0  0  0  0
  195.8870  171.1450  138.2140 O   0  0  0  0  0  0  0  0  0  0  0  0
  194.7470  171.2570  140.3490 C   0  0  1  0  0  3  0  0  0  0  0  0
  197.2040  169.0140  141.1800 O   0  0  0  0  0  0  0  0  0  0  0  0
  196.2370  171.1200  140.6670 C   0  0  1  0  0  0  0  0  0  0  0  0
  197.5250  170.4730  136.6120 C   0  0  0  0  0  1  0  0  0  0  0  0
  195.7790  171.8860  139.4100 C   0  0  1  0  0  3  0  0  0  0  0  0
  197.2440  170.8310  138.0550 C   0  0  2  0  0  3  0  0  0  0  0  0
  197.0270  169.8700  140.3280 C   0  0  0  0  0  0  0  0  0  0  0  0
  194.2370  170.0570  139.8450 O   0  0  0  0  0  1  0  0  0  0  0  0
  187.5340  177.5250  146.8690 C   0  0  0  0  0  2  0  0  0  0  0  0
  186.6100  176.6810  147.4970 O   0  0  0  0  0  0  0  0  0  0  0  0
  185.4480  176.7570  146.7260 C   0  0  0  0  0  2  0  0  0  0  0  0
  185.3320  177.5090  144.3900 C   0  0  2  0  0  3  0  0  0  0  0  0
  184.3180  178.1320  145.1400 O   0  0  0  0  0  0  0  0  0  0  0  0
  185.5540  177.9420  145.7880 C   0  0  1  0  0  3  0  0  0  0  0  0
  185.9140  178.4790  143.3460 C   0  0  1  0  0  3  0  0  0  0  0  0
  186.0220  179.9480  143.7710 C   0  0  0  0  0  1  0  0  0  0  0  0
  187.2130  177.9240  142.7570 C   0  0  2  0  0  3  0  0  0  0  0  0
  188.4620  179.2050  142.3900 S   0  0  0  0  0  1  0  0  0  0  0  0
  187.2760  175.7260  141.7910 C   0  0  0  0  0  0  0  0  0  0  0  0
  186.9680  176.9820  141.6140 C   0  0  0  0  0  0  0  0  0  0  0  0
  187.5640  174.4720  141.9960 C   0  0  0  0  0  3  0  0  0  0  0  0
  184.9370  177.7660  140.2950 N   0  0  0  0  0  0  0  0  0  0  0  0
  187.0030  177.4700  139.2930 O   0  0  0  0  0  0  0  0  0  0  0  0
  186.3230  177.4160  140.3530 C   0  0  0  0  0  0  0  0  0  0  0  0
  182.0860  178.1120  140.1320 N   0  0  0  0  0  1  0  0  0  0  0  0
  182.1110  178.3810  142.4360 O   0  0  0  0  0  0  0  0  0  0  0  0
  184.1730  177.9770  141.4520 N   0  0  0  0  0  0  0  0  0  0  0  0
  182.7610  178.1580  141.3850 C   0  0  0  0  0  0  0  0  0  0  0  0
  188.5910  174.1010  143.0120 C   0  0  0  0  0  2  0  0  0  0  0  0
  189.3790  172.6750  141.1560 C   0  0  0  0  0  2  0  0  0  0  0  0
  190.7550  172.8230  143.1800 C   0  0  1  0  0  3  0  0  0  0  0  0
  191.6460  172.8260  141.9540 C   0  0  0  0  0  2  0  0  0  0  0  0
  190.8010  172.2800  140.8260 C   0  0  2  0  0  3  0  0  0  0  0  0
  189.3000  172.7920  142.6650 C   0  0  1  0  0  0  0  0  0  0  0  0
  188.5800  171.7010  143.1650 O   0  0  0  0  0  1  0  0  0  0  0  0
  191.1870  172.8570  139.6190 O   0  0  0  0  0  1  0  0  0  0  0  0
  192.6450  171.4840  144.1160 C   0  0  0  0  0  1  0  0  0  0  0  0
  191.1380  171.6500  144.0790 C   0  0  0  0  0  2  0  0  0  0  0  0
  2 10  1  0  0  0  0
  3  1  1  6  0  0  0
  3  7  1  0  0  0  0
  3 11  1  0  0  0  0
  3  8  1  0  0  0  0
  4 35  1  0  0  0  0
  4 10  2  0  0  0  0
  5  2  2  0  0  0  0
  6  5  1  0  0  0  0
  7  6  1  1  0  0  0
  8  9  2  0  0  0  0
  8  5  1  0  0  0  0
  9  4  1  0  0  0  0
 13 22  1  0  0  0  0
 14 23  1  6  0  0  0
 14  7  1  0  0  0  0
 14 12  1  0  0  0  0
 15 23  1  0  0  0  0
 16 12  1  0  0  0  0
 16 19  1  1  0  0  0
 17 24  1  6  0  0  0
 17 21  1  0  0  0  0
 17 20  1  0  0  0  0
 18 23  2  0  0  0  0
 20 13  1  0  0  0  0
 21 15  1  6  0  0  0
 21 16  1  0  0  0  0
 22 19  1  0  0  0  0
 25 33  1  0  0  0  0
 27 34  1  6  0  0  0
 27 29  1  0  0  0  0
 29 24  1  1  0  0  0
 31 26  1  6  0  0  0
 31 27  1  0  0  0  0
 31 29  1  0  0  0  0
 32 30  1  6  0  0  0
 32 26  1  0  0  0  0
 32 25  1  0  0  0  0
 33 29  1  0  0  0  0
 33 28  2  0  0  0  0
 35 36  1  0  0  0  0
 37 36  1  0  0  0  0
 38 41  1  6  0  0  0
 38 39  1  0  0  0  0
 38 40  1  0  0  0  0
 39 40  1  0  0  0  0
 40 37  1  1  0  0  0
 41 42  1  1  0  0  0
 43 44  1  6  0  0  0
 43 41  1  0  0  0  0
 45 47  2  0  0  0  0
 46 45  2  0  0  0  0
 46 43  1  0  0  0  0
 47 55  1  0  0  0  0
 48 50  1  0  0  0  0
 48 53  2  0  0  0  0
 49 50  2  0  0  0  0
 50 46  1  0  0  0  0
 51 54  1  0  0  0  0
 54 53  1  0  0  0  0
 54 52  2  0  0  0  0
 56 60  1  0  0  0  0
 57 64  1  1  0  0  0
 58 57  1  0  0  0  0
 59 62  1  6  0  0  0
 59 56  1  0  0  0  0
 59 58  1  0  0  0  0
 60 55  1  0  0  0  0
 60 61  1  1  0  0  0
 60 57  1  0  0  0  0
 64 63  1  0  0  0  0
M  END
>  <MODEL>
1

>  <REMARK>
 VINA RESULT:      -6.8      0.000      0.000
  Name = 
  15 active torsions:
  status: ('A' for Active; 'I' for Inactive)
    1  A    between atoms: N_1  and  N_48
    2  A    between atoms: C_4  and  O_33
    3  A    between atoms: C_4  and  C_44
    4  A    between atoms: O_7  and  C_30
    5  A    between atoms: O_7  and  C_43
    6  A    between atoms: C_11  and  C_20
    7  A    between atoms: C_11  and  C_35
    8  A    between atoms: C_14  and  C_37
    9  A    between atoms: C_16  and  C_18
   10  A    between atoms: C_16  and  O_33
   11  A    between atoms: C_20  and  C_21
   12  A    between atoms: C_25  and  C_56
   13  A    between atoms: C_35  and  C_36
   14  A    between atoms: C_38  and  C_50
   15  A    between atoms: C_40  and  C_50
                            x       y       z     vdW  Elec       q    Type
                         _______ _______ _______ _____ _____    ______ ____

>  <TORSDO>
F 15

$$$$
=
 OpenBabel11072409193D

 64 71  0  0  1  0  0  0  0  0999 V2000
  192.6030  172.0760  140.7780 C   0  0  0  0  0  1  0  0  0  0  0  0
  195.9230  171.9100  144.1190 C   0  0  0  0  0  3  0  0  0  0  0  0
  192.8440  171.4440  142.1380 C   0  0  2  0  0  0  0  0  0  0  0  0
  196.6000  170.6890  142.1210 C   0  0  0  0  0  0  0  0  0  0  0  0
  194.6150  171.9170  143.6350 C   0  0  0  0  0  0  0  0  0  0  0  0
  193.4350  172.4840  144.3170 C   0  0  0  0  0  2  0  0  0  0  0  0
  192.3220  172.3730  143.2620 C   0  0  2  0  0  3  0  0  0  0  0  0
  194.2950  171.3340  142.4330 C   0  0  0  0  0  0  0  0  0  0  0  0
  195.2690  170.6950  141.6620 C   0  0  0  0  0  3  0  0  0  0  0  0
  196.9190  171.2920  143.3490 C   0  0  0  0  0  3  0  0  0  0  0  0
  192.2580  170.1770  142.1920 O   0  0  0  0  0  1  0  0  0  0  0  0
  190.7310  172.5160  145.1470 O   0  0  0  0  0  0  0  0  0  0  0  0
  188.8100  176.1270  146.8120 C   0  0  0  0  0  2  0  0  0  0  0  0
  190.9650  171.9580  143.8660 C   0  0  1  0  0  3  0  0  0  0  0  0
  189.1970  173.6050  142.9330 C   0  0  0  0  0  2  0  0  0  0  0  0
  190.5280  173.9100  145.0290 C   0  0  2  0  0  3  0  0  0  0  0  0
  188.7570  175.6780  144.2640 C   0  0  1  0  0  3  0  0  0  0  0  0
  189.4410  171.3950  142.1380 O   0  0  0  0  0  0  0  0  0  0  0  0
  190.7440  174.5500  146.4060 C   0  0  0  0  0  2  0  0  0  0  0  0
  189.1390  176.6330  145.4020 C   0  0  0  0  0  2  0  0  0  0  0  0
  189.1590  174.1850  144.3480 C   0  0  1  0  0  3  0  0  0  0  0  0
  189.4380  174.7730  147.1570 C   0  0  0  0  0  2  0  0  0  0  0  0
  189.8190  172.2420  142.9310 C   0  0  0  0  0  0  0  0  0  0  0  0
  187.5000  175.9840  143.6810 O   0  0  0  0  0  0  0  0  0  0  0  0
  185.3990  178.6700  142.5320 C   0  0  0  0  0  2  0  0  0  0  0  0
  186.5230  177.6920  140.6740 O   0  0  0  0  0  0  0  0  0  0  0  0
  188.6230  177.3550  141.8370 C   0  0  1  0  0  3  0  0  0  0  0  0
  186.8710  178.8970  144.3490 O   0  0  0  0  0  0  0  0  0  0  0  0
  187.5200  177.1520  142.8770 C   0  0  1  0  0  0  0  0  0  0  0  0
  184.2570  178.3690  140.3500 C   0  0  0  0  0  1  0  0  0  0  0  0
  187.2820  176.7540  141.4070 C   0  0  1  0  0  3  0  0  0  0  0  0
  185.2740  177.7800  141.3040 C   0  0  2  0  0  3  0  0  0  0  0  0
  186.6130  178.2800  143.3280 C   0  0  0  0  0  0  0  0  0  0  0  0
  188.7320  178.7050  141.4900 O   0  0  0  0  0  1  0  0  0  0  0  0
  197.6880  170.0090  141.3490 C   0  0  0  0  0  2  0  0  0  0  0  0
  197.6660  170.3790  139.9990 O   0  0  0  0  0  0  0  0  0  0  0  0
  197.9410  169.2100  139.2860 C   0  0  0  0  0  2  0  0  0  0  0  0
  196.1620  169.6440  137.6480 C   0  0  2  0  0  3  0  0  0  0  0  0
  196.8600  168.4760  137.2920 O   0  0  0  0  0  0  0  0  0  0  0  0
  196.6580  168.6930  138.6690 C   0  0  1  0  0  3  0  0  0  0  0  0
  194.6600  169.4960  137.3470 C   0  0  1  0  0  3  0  0  0  0  0  0
  193.9340  168.3520  138.0640 C   0  0  0  0  0  1  0  0  0  0  0  0
  193.9450  170.8430  137.4830 C   0  0  2  0  0  3  0  0  0  0  0  0
  192.1940  170.8030  136.9670 S   0  0  0  0  0  1  0  0  0  0  0  0
  195.4750  172.6850  137.6640 C   0  0  0  0  0  0  0  0  0  0  0  0
  194.7250  171.9700  136.8710 C   0  0  0  0  0  0  0  0  0  0  0  0
  196.2400  173.3700  138.4670 C   0  0  0  0  0  3  0  0  0  0  0  0
  193.8700  173.2040  134.8150 N   0  0  0  0  0  2  0  0  0  0  0  0
  195.5040  171.5700  134.6670 O   0  0  0  0  0  0  0  0  0  0  0  0
  194.7300  172.2300  135.4130 C   0  0  0  0  0  0  0  0  0  0  0  0
  195.0070  175.7900  135.3630 N   0  0  0  0  0  1  0  0  0  0  0  0
  193.0860  176.2390  136.5840 O   0  0  0  0  0  0  0  0  0  0  0  0
  193.1700  174.1480  135.5800 N   0  0  0  0  0  2  0  0  0  0  0  0
  193.7250  175.4290  135.8660 C   0  0  0  0  0  0  0  0  0  0  0  0
  195.9180  173.4400  139.9220 C   0  0  0  0  0  2  0  0  0  0  0  0
  194.3430  175.3000  140.3200 C   0  0  0  0  0  2  0  0  0  0  0  0
  196.1770  174.9620  141.9120 C   0  0  1  0  0  3  0  0  0  0  0  0
  194.9110  175.3280  142.6600 C   0  0  0  0  0  2  0  0  0  0  0  0
  193.9920  175.9540  141.6370 C   0  0  2  0  0  3  0  0  0  0  0  0
  195.7960  174.8800  140.4180 C   0  0  1  0  0  0  0  0  0  0  0  0
  196.5670  175.7360  139.6230 O   0  0  0  0  0  1  0  0  0  0  0  0
  192.6640  175.6870  141.9620 O   0  0  0  0  0  1  0  0  0  0  0  0
  196.8360  176.8640  143.3910 C   0  0  0  0  0  1  0  0  0  0  0  0
  197.2670  175.9790  142.2370 C   0  0  0  0  0  2  0  0  0  0  0  0
  3  1  1  6  0  0  0
  3 11  1  0  0  0  0
  3  8  1  0  0  0  0
  3  7  1  0  0  0  0
  4 10  1  0  0  0  0
  5  2  1  0  0  0  0
  5  6  1  0  0  0  0
  7 14  1  0  0  0  0
  7  6  1  1  0  0  0
  8  5  2  0  0  0  0
  9  4  2  0  0  0  0
  9  8  1  0  0  0  0
 10  2  2  0  0  0  0
 13 22  1  0  0  0  0
 14 23  1  6  0  0  0
 14 12  1  0  0  0  0
 16 12  1  0  0  0  0
 16 19  1  1  0  0  0
 17 24  1  1  0  0  0
 17 21  1  0  0  0  0
 17 20  1  0  0  0  0
 18 23  2  0  0  0  0
 19 22  1  0  0  0  0
 20 13  1  0  0  0  0
 21 15  1  6  0  0  0
 21 16  1  0  0  0  0
 23 15  1  0  0  0  0
 25 33  1  0  0  0  0
 26 32  1  0  0  0  0
 27 34  1  6  0  0  0
 27 29  1  0  0  0  0
 29 33  1  0  0  0  0
 29 24  1  1  0  0  0
 31 26  1  6  0  0  0
 31 27  1  0  0  0  0
 31 29  1  0  0  0  0
 32 30  1  6  0  0  0
 32 25  1  0  0  0  0
 33 28  2  0  0  0  0
 35  4  1  0  0  0  0
 36 35  1  0  0  0  0
 37 36  1  0  0  0  0
 38 41  1  6  0  0  0
 38 40  1  0  0  0  0
 39 38  1  0  0  0  0
 39 40  1  0  0  0  0
 40 37  1  1  0  0  0
 41 43  1  0  0  0  0
 41 42  1  1  0  0  0
 43 44  1  6  0  0  0
 45 47  2  0  0  0  0
 46 43  1  0  0  0  0
 46 45  2  0  0  0  0
 47 55  1  0  0  0  0
 48 50  1  0  0  0  0
 48 53  1  0  0  0  0
 49 50  2  0  0  0  0
 50 46  1  0  0  0  0
 51 54  1  0  0  0  0
 53 54  1  0  0  0  0
 54 52  2  0  0  0  0
 55 60  1  0  0  0  0
 56 60  1  0  0  0  0
 56 59  1  0  0  0  0
 57 64  1  6  0  0  0
 57 58  1  0  0  0  0
 59 62  1  1  0  0  0
 59 58  1  0  0  0  0
 60 61  1  6  0  0  0
 60 57  1  0  0  0  0
 64 63  1  0  0  0  0
M  END
>  <MODEL>
2

>  <REMARK>
 VINA RESULT:      -6.2      3.461     10.307
  Name = 
  15 active torsions:
  status: ('A' for Active; 'I' for Inactive)
    1  A    between atoms: N_1  and  N_48
    2  A    between atoms: C_4  and  O_33
    3  A    between atoms: C_4  and  C_44
    4  A    between atoms: O_7  and  C_30
    5  A    between atoms: O_7  and  C_43
    6  A    between atoms: C_11  and  C_20
    7  A    between atoms: C_11  and  C_35
    8  A    between atoms: C_14  and  C_37
    9  A    between atoms: C_16  and  C_18
   10  A    between atoms: C_16  and  O_33
   11  A    between atoms: C_20  and  C_21
   12  A    between atoms: C_25  and  C_56
   13  A    between atoms: C_35  and  C_36
   14  A    between atoms: C_38  and  C_50
   15  A    between atoms: C_40  and  C_50
                            x       y       z     vdW  Elec       q    Type
                         _______ _______ _______ _____ _____    ______ ____

>  <TORSDO>
F 15

$$$$
=
 OpenBabel11072409193D

 64 71  0  0  1  0  0  0  0  0999 V2000
  192.2130  176.9880  143.1250 C   0  0  0  0  0  1  0  0  0  0  0  0
  190.2730  174.3670  146.5270 C   0  0  0  0  0  3  0  0  0  0  0  0
  192.5100  176.5270  144.5420 C   0  0  2  0  0  0  0  0  0  0  0  0
  189.0590  176.4550  146.2030 C   0  0  0  0  0  0  0  0  0  0  0  0
  191.3280  174.9000  145.7890 C   0  0  0  0  0  0  0  0  0  0  0  0
  192.6160  174.2380  145.5040 C   0  0  0  0  0  2  0  0  0  0  0  0
  193.3040  175.1970  144.5190 C   0  0  2  0  0  3  0  0  0  0  0  0
  191.2660  176.1680  145.2660 C   0  0  0  0  0  0  0  0  0  0  0  0
  190.1450  176.9770  145.4750 C   0  0  0  0  0  3  0  0  0  0  0  0
  189.1310  175.1540  146.7300 C   0  0  0  0  0  3  0  0  0  0  0  0
  193.1880  177.5290  145.2420 O   0  0  0  0  0  1  0  0  0  0  0  0
  195.3700  174.2390  145.4790 O   0  0  0  0  0  0  0  0  0  0  0  0
  197.3100  170.4040  144.4670 C   0  0  0  0  0  2  0  0  0  0  0  0
  194.8170  175.3420  144.7820 C   0  0  1  0  0  3  0  0  0  0  0  0
  196.0300  174.4840  142.6600 C   0  0  0  0  0  2  0  0  0  0  0  0
  195.3770  173.1020  144.6400 C   0  0  2  0  0  3  0  0  0  0  0  0
  196.6310  172.0570  142.5950 C   0  0  1  0  0  3  0  0  0  0  0  0
  195.7920  176.7790  143.1660 O   0  0  0  0  0  0  0  0  0  0  0  0
  195.5240  171.8530  145.5180 C   0  0  0  0  0  2  0  0  0  0  0  0
  196.5150  170.6420  143.1780 C   0  0  0  0  0  2  0  0  0  0  0  0
  196.4350  173.2840  143.5180 C   0  0  1  0  0  3  0  0  0  0  0  0
  196.9650  171.3680  145.6060 C   0  0  0  0  0  2  0  0  0  0  0  0
  195.5860  175.6290  143.5190 C   0  0  0  0  0  0  0  0  0  0  0  0
  197.6110  172.1570  141.5730 O   0  0  0  0  0  0  0  0  0  0  0  0
  195.1060  170.3800  139.6980 C   0  0  0  0  0  2  0  0  0  0  0  0
  197.1990  170.2210  138.5750 O   0  0  0  0  0  0  0  0  0  0  0  0
  197.8830  172.4960  139.0530 C   0  0  1  0  0  3  0  0  0  0  0  0
  194.7780  172.5610  140.5060 O   0  0  0  0  0  0  0  0  0  0  0  0
  197.0780  172.0270  140.2660 C   0  0  1  0  0  0  0  0  0  0  0  0
  195.8020  168.2840  138.5680 C   0  0  0  0  0  1  0  0  0  0  0  0
  197.9360  171.0240  139.4700 C   0  0  1  0  0  3  0  0  0  0  0  0
  196.2870  169.4880  139.3470 C   0  0  2  0  0  3  0  0  0  0  0  0
  195.5960  171.7150  140.1850 C   0  0  0  0  0  0  0  0  0  0  0  0
  197.0440  172.7020  137.9540 O   0  0  0  0  0  1  0  0  0  0  0  0
  187.8360  177.2750  146.4750 C   0  0  0  0  0  2  0  0  0  0  0  0
  186.9080  176.5690  147.2500 O   0  0  0  0  0  0  0  0  0  0  0  0
  185.6530  177.0040  146.8200 C   0  0  0  0  0  2  0  0  0  0  0  0
  185.3230  177.5240  144.4410 C   0  0  2  0  0  3  0  0  0  0  0  0
  184.5730  178.4150  145.2300 O   0  0  0  0  0  0  0  0  0  0  0  0
  185.8350  178.0410  145.7310 C   0  0  1  0  0  3  0  0  0  0  0  0
  185.9090  178.2440  143.2130 C   0  0  1  0  0  3  0  0  0  0  0  0
  185.9610  179.7740  143.2850 C   0  0  0  0  0  1  0  0  0  0  0  0
  187.2420  177.6140  142.8030 C   0  0  2  0  0  3  0  0  0  0  0  0
  188.6220  178.8070  142.7030 S   0  0  0  0  0  1  0  0  0  0  0  0
  187.6370  175.5470  141.6450 C   0  0  0  0  0  0  0  0  0  0  0  0
  187.1150  176.7420  141.5870 C   0  0  0  0  0  0  0  0  0  0  0  0
  188.1410  174.3490  141.7300 C   0  0  0  0  0  3  0  0  0  0  0  0
  186.6670  176.6630  139.0830 N   0  0  0  0  0  0  0  0  0  0  0  0
  185.4130  177.9910  140.5070 O   0  0  0  0  0  0  0  0  0  0  0  0
  186.3550  177.1620  140.3870 C   0  0  0  0  0  0  0  0  0  0  0  0
  187.1000  175.5860  136.4510 N   0  0  0  0  0  1  0  0  0  0  0  0
  188.4750  174.0110  137.4570 O   0  0  0  0  0  0  0  0  0  0  0  0
  187.5170  175.5660  138.8890 N   0  0  0  0  0  0  0  0  0  0  0  0
  187.7340  175.0170  137.5910 C   0  0  0  0  0  0  0  0  0  0  0  0
  189.2550  174.0760  142.6830 C   0  0  0  0  0  2  0  0  0  0  0  0
  189.3430  172.0260  141.3100 C   0  0  0  0  0  2  0  0  0  0  0  0
  191.2160  172.5010  142.8200 C   0  0  1  0  0  3  0  0  0  0  0  0
  191.7420  171.9510  141.5090 C   0  0  0  0  0  2  0  0  0  0  0  0
  190.5680  171.2710  140.8440 C   0  0  2  0  0  3  0  0  0  0  0  0
  189.6840  172.6090  142.6670 C   0  0  1  0  0  0  0  0  0  0  0  0
  188.9970  171.8910  143.6520 O   0  0  0  0  0  1  0  0  0  0  0  0
  190.6850  171.3630  139.4590 O   0  0  0  0  0  1  0  0  0  0  0  0
  192.6110  170.5250  143.4460 C   0  0  0  0  0  1  0  0  0  0  0  0
  191.6810  171.6050  143.9650 C   0  0  0  0  0  2  0  0  0  0  0  0
  2 10  1  0  0  0  0
  3  1  1  6  0  0  0
  3 11  1  0  0  0  0
  3  8  1  0  0  0  0
  4 35  1  0  0  0  0
  4 10  2  0  0  0  0
  5  2  2  0  0  0  0
  6  5  1  0  0  0  0
  7  3  1  0  0  0  0
  7 14  1  0  0  0  0
  7  6  1  1  0  0  0
  8  9  2  0  0  0  0
  8  5  1  0  0  0  0
  9  4  1  0  0  0  0
 13 22  1  0  0  0  0
 14 23  1  6  0  0  0
 14 12  1  0  0  0  0
 15 23  1  0  0  0  0
 16 12  1  0  0  0  0
 16 19  1  1  0  0  0
 17 24  1  1  0  0  0
 17 20  1  0  0  0  0
 17 21  1  0  0  0  0
 18 23  2  0  0  0  0
 19 22  1  0  0  0  0
 20 13  1  0  0  0  0
 21 15  1  6  0  0  0
 21 16  1  0  0  0  0
 25 33  1  0  0  0  0
 26 32  1  0  0  0  0
 27 34  1  6  0  0  0
 27 31  1  0  0  0  0
 27 29  1  0  0  0  0
 29 24  1  1  0  0  0
 31 26  1  6  0  0  0
 31 29  1  0  0  0  0
 32 30  1  6  0  0  0
 32 25  1  0  0  0  0
 33 29  1  0  0  0  0
 33 28  2  0  0  0  0
 35 36  1  0  0  0  0
 37 36  1  0  0  0  0
 38 41  1  6  0  0  0
 38 39  1  0  0  0  0
 38 40  1  0  0  0  0
 39 40  1  0  0  0  0
 40 37  1  1  0  0  0
 41 42  1  1  0  0  0
 43 44  1  6  0  0  0
 43 41  1  0  0  0  0
 45 47  2  0  0  0  0
 46 45  2  0  0  0  0
 46 43  1  0  0  0  0
 47 55  1  0  0  0  0
 48 50  1  0  0  0  0
 50 49  2  0  0  0  0
 50 46  1  0  0  0  0
 51 54  1  0  0  0  0
 52 54  2  0  0  0  0
 53 48  2  0  0  0  0
 54 53  1  0  0  0  0
 56 60  1  0  0  0  0
 57 64  1  1  0  0  0
 58 57  1  0  0  0  0
 59 62  1  6  0  0  0
 59 56  1  0  0  0  0
 59 58  1  0  0  0  0
 60 55  1  0  0  0  0
 60 57  1  0  0  0  0
 60 61  1  1  0  0  0
 63 64  1  0  0  0  0
M  END
>  <MODEL>
3

>  <REMARK>
 VINA RESULT:      -6.2      1.501      2.292
  Name = 
  15 active torsions:
  status: ('A' for Active; 'I' for Inactive)
    1  A    between atoms: N_1  and  N_48
    2  A    between atoms: C_4  and  O_33
    3  A    between atoms: C_4  and  C_44
    4  A    between atoms: O_7  and  C_30
    5  A    between atoms: O_7  and  C_43
    6  A    between atoms: C_11  and  C_20
    7  A    between atoms: C_11  and  C_35
    8  A    between atoms: C_14  and  C_37
    9  A    between atoms: C_16  and  C_18
   10  A    between atoms: C_16  and  O_33
   11  A    between atoms: C_20  and  C_21
   12  A    between atoms: C_25  and  C_56
   13  A    between atoms: C_35  and  C_36
   14  A    between atoms: C_38  and  C_50
   15  A    between atoms: C_40  and  C_50
                            x       y       z     vdW  Elec       q    Type
                         _______ _______ _______ _____ _____    ______ ____

>  <TORSDO>
F 15

$$$$
=
 OpenBabel11072409193D

 64 71  0  0  1  0  0  0  0  0999 V2000
  187.0760  177.9660  146.4840 C   0  0  0  0  0  1  0  0  0  0  0  0
  189.8680  178.0700  142.6890 C   0  0  0  0  0  3  0  0  0  0  0  0
  188.0400  177.0650  145.7340 C   0  0  2  0  0  0  0  0  0  0  0  0
  187.5120  178.0430  142.0670 C   0  0  0  0  0  0  0  0  0  0  0  0
  189.5010  177.6880  143.9790 C   0  0  0  0  0  0  0  0  0  0  0  0
  190.4190  177.4180  145.1030 C   0  0  0  0  0  2  0  0  0  0  0  0
  189.4740  177.2220  146.3010 C   0  0  2  0  0  3  0  0  0  0  0  0
  188.1860  177.4880  144.3190 C   0  0  0  0  0  0  0  0  0  0  0  0
  187.1680  177.6410  143.3730 C   0  0  0  0  0  3  0  0  0  0  0  0
  188.8600  178.2500  141.7310 C   0  0  0  0  0  3  0  0  0  0  0  0
  187.6000  175.7390  145.7840 O   0  0  0  0  0  1  0  0  0  0  0  0
  189.6800  174.7930  146.7090 O   0  0  0  0  0  0  0  0  0  0  0  0
  191.8590  171.8090  144.2930 C   0  0  0  0  0  2  0  0  0  0  0  0
  189.9260  176.0850  147.2390 C   0  0  1  0  0  3  0  0  0  0  0  0
  192.4430  175.6880  146.7740 C   0  0  0  0  0  2  0  0  0  0  0  0
  190.5380  174.5580  145.6120 C   0  0  2  0  0  3  0  0  0  0  0  0
  193.0260  174.0000  145.0230 C   0  0  1  0  0  3  0  0  0  0  0  0
  191.6530  176.8490  148.6740 O   0  0  0  0  0  0  0  0  0  0  0  0
  189.9610  173.4050  144.7820 C   0  0  0  0  0  2  0  0  0  0  0  0
  192.6030  173.0800  143.8690 C   0  0  0  0  0  2  0  0  0  0  0  0
  191.9980  174.3820  146.1150 C   0  0  1  0  0  3  0  0  0  0  0  0
  190.5980  172.0640  145.1240 C   0  0  0  0  0  2  0  0  0  0  0  0
  191.3650  176.2350  147.6590 C   0  0  0  0  0  0  0  0  0  0  0  0
  194.3690  173.7930  145.4330 O   0  0  0  0  0  0  0  0  0  0  0  0
  194.6400  175.7850  142.4490 C   0  0  0  0  0  2  0  0  0  0  0  0
  196.2320  174.0160  142.3690 O   0  0  0  0  0  0  0  0  0  0  0  0
  196.8030  174.1240  144.7210 C   0  0  1  0  0  3  0  0  0  0  0  0
  194.5720  176.7250  144.6010 O   0  0  0  0  0  0  0  0  0  0  0  0
  195.3160  174.4710  144.6260 C   0  0  1  0  0  0  0  0  0  0  0  0
  195.1370  174.5970  140.3280 C   0  0  0  0  0  1  0  0  0  0  0  0
  195.9440  173.4680  143.6380 C   0  0  1  0  0  3  0  0  0  0  0  0
  195.0120  174.4460  141.8290 C   0  0  2  0  0  3  0  0  0  0  0  0
  194.8200  175.7290  143.9400 C   0  0  0  0  0  0  0  0  0  0  0  0
  197.5870  175.1650  144.2150 O   0  0  0  0  0  1  0  0  0  0  0  0
  186.4710  178.2100  141.0040 C   0  0  0  0  0  2  0  0  0  0  0  0
  186.8000  177.4910  139.8490 O   0  0  0  0  0  0  0  0  0  0  0  0
  186.7960  176.1470  140.2290 C   0  0  0  0  0  2  0  0  0  0  0  0
  188.5160  174.4410  140.6330 C   0  0  2  0  0  3  0  0  0  0  0  0
  187.7780  174.1070  139.4830 O   0  0  0  0  0  0  0  0  0  0  0  0
  188.0410  175.4760  139.6870 C   0  0  1  0  0  3  0  0  0  0  0  0
  190.0010  174.0780  140.4520 C   0  0  1  0  0  3  0  0  0  0  0  0
  190.9610  174.5930  141.5300 C   0  0  0  0  0  1  0  0  0  0  0  0
  190.1610  172.5820  140.1660 C   0  0  2  0  0  3  0  0  0  0  0  0
  189.6530  171.5090  141.5540 S   0  0  0  0  0  1  0  0  0  0  0  0
  191.9860  173.0080  138.6650 C   0  0  0  0  0  0  0  0  0  0  0  0
  191.5160  172.2450  139.6140 C   0  0  0  0  0  0  0  0  0  0  0  0
  192.4510  173.7960  137.7370 C   0  0  0  0  0  3  0  0  0  0  0  0
  192.1410  169.7850  139.7930 N   0  0  0  0  0  2  0  0  0  0  0  0
  193.2580  171.4190  140.9950 O   0  0  0  0  0  0  0  0  0  0  0  0
  192.3470  171.1500  140.1650 C   0  0  0  0  0  0  0  0  0  0  0  0
  193.2000  169.7730  137.1180 N   0  0  0  0  0  1  0  0  0  0  0  0
  191.0860  169.1260  136.4160 O   0  0  0  0  0  0  0  0  0  0  0  0
  191.3350  169.4230  138.7040 N   0  0  0  0  0  2  0  0  0  0  0  0
  191.8450  169.4210  137.3730 C   0  0  0  0  0  0  0  0  0  0  0  0
  191.5090  174.5720  136.8790 C   0  0  0  0  0  2  0  0  0  0  0  0
  191.7850  176.3940  135.2360 C   0  0  0  0  0  2  0  0  0  0  0  0
  193.6690  174.8710  135.6180 C   0  0  1  0  0  3  0  0  0  0  0  0
  194.1800  176.2910  135.4680 C   0  0  0  0  0  2  0  0  0  0  0  0
  193.0680  177.0620  134.7950 C   0  0  2  0  0  3  0  0  0  0  0  0
  192.1290  174.9480  135.5340 C   0  0  1  0  0  0  0  0  0  0  0  0
  191.6090  174.1420  134.5150 O   0  0  0  0  0  1  0  0  0  0  0  0
  193.0840  178.3890  135.2210 O   0  0  0  0  0  1  0  0  0  0  0  0
  195.1390  172.8910  135.2180 C   0  0  0  0  0  1  0  0  0  0  0  0
  194.3220  173.9860  134.5590 C   0  0  0  0  0  2  0  0  0  0  0  0
  2  5  1  0  0  0  0
  3 11  1  0  0  0  0
  3  7  1  0  0  0  0
  3  1  1  1  0  0  0
  4  9  2  0  0  0  0
  5  8  2  0  0  0  0
  5  6  1  0  0  0  0
  7  6  1  6  0  0  0
  7 14  1  0  0  0  0
  8  3  1  0  0  0  0
  9  8  1  0  0  0  0
 10  4  1  0  0  0  0
 10  2  2  0  0  0  0
 13 22  1  0  0  0  0
 14 12  1  6  0  0  0
 14 23  1  0  0  0  0
 15 23  1  0  0  0  0
 16 19  1  1  0  0  0
 16 21  1  0  0  0  0
 16 12  1  0  0  0  0
 17 24  1  1  0  0  0
 17 21  1  0  0  0  0
 19 22  1  0  0  0  0
 20 13  1  0  0  0  0
 20 17  1  0  0  0  0
 21 15  1  6  0  0  0
 23 18  2  0  0  0  0
 25 33  1  0  0  0  0
 27 34  1  6  0  0  0
 29 27  1  0  0  0  0
 29 24  1  1  0  0  0
 31 26  1  6  0  0  0
 31 29  1  0  0  0  0
 31 27  1  0  0  0  0
 32 30  1  6  0  0  0
 32 26  1  0  0  0  0
 32 25  1  0  0  0  0
 33 28  2  0  0  0  0
 33 29  1  0  0  0  0
 35  4  1  0  0  0  0
 36 37  1  0  0  0  0
 36 35  1  0  0  0  0
 38 41  1  6  0  0  0
 39 40  1  0  0  0  0
 39 38  1  0  0  0  0
 40 37  1  1  0  0  0
 40 38  1  0  0  0  0
 41 42  1  1  0  0  0
 43 41  1  0  0  0  0
 43 44  1  1  0  0  0
 45 46  2  0  0  0  0
 46 50  1  0  0  0  0
 46 43  1  0  0  0  0
 47 45  2  0  0  0  0
 48 50  1  0  0  0  0
 50 49  2  0  0  0  0
 51 54  1  0  0  0  0
 52 54  2  0  0  0  0
 53 48  1  0  0  0  0
 54 53  1  0  0  0  0
 55 47  1  0  0  0  0
 56 60  1  0  0  0  0
 57 64  1  6  0  0  0
 58 57  1  0  0  0  0
 59 62  1  1  0  0  0
 59 56  1  0  0  0  0
 59 58  1  0  0  0  0
 60 61  1  6  0  0  0
 60 57  1  0  0  0  0
 60 55  1  0  0  0  0
 64 63  1  0  0  0  0
M  END
>  <MODEL>
4

>  <REMARK>
 VINA RESULT:      -5.9      3.915      7.230
  Name = 
  15 active torsions:
  status: ('A' for Active; 'I' for Inactive)
    1  A    between atoms: N_1  and  N_48
    2  A    between atoms: C_4  and  O_33
    3  A    between atoms: C_4  and  C_44
    4  A    between atoms: O_7  and  C_30
    5  A    between atoms: O_7  and  C_43
    6  A    between atoms: C_11  and  C_20
    7  A    between atoms: C_11  and  C_35
    8  A    between atoms: C_14  and  C_37
    9  A    between atoms: C_16  and  C_18
   10  A    between atoms: C_16  and  O_33
   11  A    between atoms: C_20  and  C_21
   12  A    between atoms: C_25  and  C_56
   13  A    between atoms: C_35  and  C_36
   14  A    between atoms: C_38  and  C_50
   15  A    between atoms: C_40  and  C_50
                            x       y       z     vdW  Elec       q    Type
                         _______ _______ _______ _____ _____    ______ ____

>  <TORSDO>
F 15

$$$$
=
 OpenBabel11072409193D

 64 71  0  0  1  0  0  0  0  0999 V2000
  190.2540  173.4120  139.2040 C   0  0  0  0  0  1  0  0  0  0  0  0
  194.1570  171.4380  140.9600 C   0  0  0  0  0  3  0  0  0  0  0  0
  190.6620  172.2650  140.1130 C   0  0  2  0  0  0  0  0  0  0  0  0
  193.9390  171.0200  138.5690 C   0  0  0  0  0  0  0  0  0  0  0  0
  192.8200  171.8340  140.9820 C   0  0  0  0  0  0  0  0  0  0  0  0
  192.0550  172.2560  142.1720 C   0  0  0  0  0  2  0  0  0  0  0  0
  190.7180  172.7410  141.5870 C   0  0  2  0  0  3  0  0  0  0  0  0
  192.0540  171.8300  139.8420 C   0  0  0  0  0  0  0  0  0  0  0  0
  192.5870  171.4080  138.6210 C   0  0  0  0  0  3  0  0  0  0  0  0
  194.7160  171.0320  139.7400 C   0  0  0  0  0  3  0  0  0  0  0  0
  189.7920  171.1840  139.9450 O   0  0  0  0  0  1  0  0  0  0  0  0
  189.7070  172.5400  143.8320 O   0  0  0  0  0  0  0  0  0  0  0  0
  188.9660  175.7490  146.7730 C   0  0  0  0  0  2  0  0  0  0  0  0
  189.5040  172.3310  142.4450 C   0  0  1  0  0  3  0  0  0  0  0  0
  187.8930  174.3590  142.4760 C   0  0  0  0  0  2  0  0  0  0  0  0
  189.7410  173.9260  144.1050 C   0  0  2  0  0  3  0  0  0  0  0  0
  188.1910  176.0240  144.3190 C   0  0  1  0  0  3  0  0  0  0  0  0
  187.5180  172.4380  141.1540 O   0  0  0  0  0  0  0  0  0  0  0  0
  190.4110  174.1370  145.4680 C   0  0  0  0  0  2  0  0  0  0  0  0
  189.0160  176.5810  145.4870 C   0  0  0  0  0  2  0  0  0  0  0  0
  188.3200  174.5300  143.9350 C   0  0  1  0  0  3  0  0  0  0  0  0
  189.4000  174.2910  146.5970 C   0  0  0  0  0  2  0  0  0  0  0  0
  188.2320  172.9880  141.9770 C   0  0  0  0  0  0  0  0  0  0  0  0
  186.9060  176.6170  144.2150 O   0  0  0  0  0  0  0  0  0  0  0  0
  184.6260  178.9850  142.7520 C   0  0  0  0  0  2  0  0  0  0  0  0
  185.7860  177.8290  141.0240 O   0  0  0  0  0  0  0  0  0  0  0  0
  187.9170  177.7840  142.1770 C   0  0  1  0  0  3  0  0  0  0  0  0
  186.1020  179.5510  144.4890 O   0  0  0  0  0  0  0  0  0  0  0  0
  186.8420  177.6610  143.2590 C   0  0  1  0  0  0  0  0  0  0  0  0
  183.4770  178.3150  140.6570 C   0  0  0  0  0  1  0  0  0  0  0  0
  186.6120  177.0500  141.8620 C   0  0  1  0  0  3  0  0  0  0  0  0
  184.5420  177.9270  141.6610 C   0  0  2  0  0  3  0  0  0  0  0  0
  185.8710  178.7830  143.5690 C   0  0  0  0  0  0  0  0  0  0  0  0
  187.9360  179.0770  141.6450 O   0  0  0  0  0  1  0  0  0  0  0  0
  194.5650  170.5440  137.2950 C   0  0  0  0  0  2  0  0  0  0  0  0
  195.9630  170.5520  137.3780 O   0  0  0  0  0  0  0  0  0  0  0  0
  196.4000  171.2810  136.2700 C   0  0  0  0  0  2  0  0  0  0  0  0
  197.5240  172.8250  137.8160 C   0  0  2  0  0  3  0  0  0  0  0  0
  197.9380  173.0890  136.4980 O   0  0  0  0  0  0  0  0  0  0  0  0
  196.5870  172.7290  136.6740 C   0  0  1  0  0  3  0  0  0  0  0  0
  197.3870  174.1320  138.6170 C   0  0  1  0  0  3  0  0  0  0  0  0
  197.6010  175.4320  137.8350 C   0  0  0  0  0  1  0  0  0  0  0  0
  196.0950  174.1290  139.4390 C   0  0  2  0  0  3  0  0  0  0  0  0
  194.6890  174.9430  138.6060 S   0  0  0  0  0  1  0  0  0  0  0  0
  196.9220  173.7890  141.6680 C   0  0  0  0  0  0  0  0  0  0  0  0
  196.3110  174.6000  140.8480 C   0  0  0  0  0  0  0  0  0  0  0  0
  197.5560  172.9770  142.4660 C   0  0  0  0  0  3  0  0  0  0  0  0
  194.7950  176.1980  142.1240 N   0  0  0  0  0  2  0  0  0  0  0  0
  196.6310  176.9490  140.9280 O   0  0  0  0  0  0  0  0  0  0  0  0
  195.9370  175.9620  141.2950 C   0  0  0  0  0  0  0  0  0  0  0  0
  195.1110  175.7920  144.9550 N   0  0  0  0  0  1  0  0  0  0  0  0
  193.6860  173.9750  144.7270 O   0  0  0  0  0  0  0  0  0  0  0  0
  194.1220  175.1570  142.7780 N   0  0  0  0  0  2  0  0  0  0  0  0
  194.2760  174.9390  144.1790 C   0  0  0  0  0  0  0  0  0  0  0  0
  197.5290  171.5080  142.2070 C   0  0  0  0  0  2  0  0  0  0  0  0
  197.9230  171.4650  144.6440 C   0  0  0  0  0  2  0  0  0  0  0  0
  195.8040  170.5770  143.7880 C   0  0  1  0  0  3  0  0  0  0  0  0
  195.5540  171.3590  145.0630 C   0  0  0  0  0  2  0  0  0  0  0  0
  196.8940  171.4660  145.7530 C   0  0  2  0  0  3  0  0  0  0  0  0
  197.3120  170.7000  143.4860 C   0  0  1  0  0  0  0  0  0  0  0  0
  197.9410  169.4540  143.3870 O   0  0  0  0  0  1  0  0  0  0  0  0
  196.9680  172.6580  146.4690 O   0  0  0  0  0  1  0  0  0  0  0  0
  194.5080  169.0220  145.2540 C   0  0  0  0  0  1  0  0  0  0  0  0
  195.3040  169.1460  143.9690 C   0  0  0  0  0  2  0  0  0  0  0  0
  2  5  1  0  0  0  0
  3  1  1  6  0  0  0
  3  7  1  0  0  0  0
  4  9  2  0  0  0  0
  4 10  1  0  0  0  0
  5  6  1  0  0  0  0
  7  6  1  1  0  0  0
  7 14  1  0  0  0  0
  8  3  1  0  0  0  0
  8  5  2  0  0  0  0
  9  8  1  0  0  0  0
 10  2  2  0  0  0  0
 11  3  1  0  0  0  0
 12 16  1  0  0  0  0
 14 23  1  6  0  0  0
 14 12  1  0  0  0  0
 16 19  1  1  0  0  0
 17 24  1  1  0  0  0
 17 20  1  0  0  0  0
 18 23  2  0  0  0  0
 19 22  1  0  0  0  0
 20 13  1  0  0  0  0
 21 15  1  6  0  0  0
 21 16  1  0  0  0  0
 21 17  1  0  0  0  0
 22 13  1  0  0  0  0
 23 15  1  0  0  0  0
 25 33  1  0  0  0  0
 26 32  1  0  0  0  0
 27 34  1  6  0  0  0
 27 29  1  0  0  0  0
 29 33  1  0  0  0  0
 29 24  1  1  0  0  0
 31 26  1  6  0  0  0
 31 27  1  0  0  0  0
 31 29  1  0  0  0  0
 32 30  1  6  0  0  0
 32 25  1  0  0  0  0
 33 28  2  0  0  0  0
 35 36  1  0  0  0  0
 35  4  1  0  0  0  0
 37 36  1  0  0  0  0
 38 41  1  1  0  0  0
 39 40  1  0  0  0  0
 39 38  1  0  0  0  0
 40 37  1  6  0  0  0
 40 38  1  0  0  0  0
 41 42  1  6  0  0  0
 41 43  1  0  0  0  0
 43 44  1  6  0  0  0
 43 46  1  0  0  0  0
 45 47  2  0  0  0  0
 46 50  1  0  0  0  0
 46 45  2  0  0  0  0
 48 53  1  0  0  0  0
 49 50  2  0  0  0  0
 50 48  1  0  0  0  0
 53 54  1  0  0  0  0
 54 52  2  0  0  0  0
 54 51  1  0  0  0  0
 55 47  1  0  0  0  0
 55 60  1  0  0  0  0
 56 59  1  0  0  0  0
 57 64  1  1  0  0  0
 57 58  1  0  0  0  0
 58 59  1  0  0  0  0
 59 62  1  6  0  0  0
 60 61  1  6  0  0  0
 60 57  1  0  0  0  0
 60 56  1  0  0  0  0
 64 63  1  0  0  0  0
M  END
>  <MODEL>
5

>  <REMARK>
 VINA RESULT:      -5.8      3.248     10.486
  Name = 
  15 active torsions:
  status: ('A' for Active; 'I' for Inactive)
    1  A    between atoms: N_1  and  N_48
    2  A    between atoms: C_4  and  O_33
    3  A    between atoms: C_4  and  C_44
    4  A    between atoms: O_7  and  C_30
    5  A    between atoms: O_7  and  C_43
    6  A    between atoms: C_11  and  C_20
    7  A    between atoms: C_11  and  C_35
    8  A    between atoms: C_14  and  C_37
    9  A    between atoms: C_16  and  C_18
   10  A    between atoms: C_16  and  O_33
   11  A    between atoms: C_20  and  C_21
   12  A    between atoms: C_25  and  C_56
   13  A    between atoms: C_35  and  C_36
   14  A    between atoms: C_38  and  C_50
   15  A    between atoms: C_40  and  C_50
                            x       y       z     vdW  Elec       q    Type
                         _______ _______ _______ _____ _____    ______ ____

>  <TORSDO>
F 15

$$$$
=
 OpenBabel11072409193D

 64 71  0  0  1  0  0  0  0  0999 V2000
  187.0220  177.9120  146.3920 C   0  0  0  0  0  1  0  0  0  0  0  0
  189.6320  177.9160  142.4690 C   0  0  0  0  0  3  0  0  0  0  0  0
  187.9550  176.9920  145.6230 C   0  0  2  0  0  0  0  0  0  0  0  0
  187.2490  177.8620  141.9590 C   0  0  0  0  0  0  0  0  0  0  0  0
  189.3280  177.5710  143.7840 C   0  0  0  0  0  0  0  0  0  0  0  0
  190.3000  177.3360  144.8710 C   0  0  0  0  0  2  0  0  0  0  0  0
  189.4130  177.1710  146.1170 C   0  0  2  0  0  3  0  0  0  0  0  0
  188.0320  177.3750  144.1910 C   0  0  0  0  0  0  0  0  0  0  0  0
  186.9700  177.4970  143.2900 C   0  0  0  0  0  3  0  0  0  0  0  0
  188.5790  178.0640  141.5540 C   0  0  0  0  0  3  0  0  0  0  0  0
  187.5240  175.6670  145.7320 O   0  0  0  0  0  1  0  0  0  0  0  0
  189.7520  174.7590  146.5340 O   0  0  0  0  0  0  0  0  0  0  0  0
  192.1410  171.9030  144.1610 C   0  0  0  0  0  2  0  0  0  0  0  0
  189.9140  176.0630  147.0660 C   0  0  1  0  0  3  0  0  0  0  0  0
  192.4580  175.8130  146.6430 C   0  0  0  0  0  2  0  0  0  0  0  0
  190.6410  174.5730  145.4510 C   0  0  2  0  0  3  0  0  0  0  0  0
  193.1660  174.1590  144.9050 C   0  0  1  0  0  3  0  0  0  0  0  0
  191.5700  176.9280  148.5270 O   0  0  0  0  0  0  0  0  0  0  0  0
  190.1450  173.3870  144.6150 C   0  0  0  0  0  2  0  0  0  0  0  0
  192.8170  173.2150  143.7470 C   0  0  0  0  0  2  0  0  0  0  0  0
  192.1000  174.4830  145.9790 C   0  0  1  0  0  3  0  0  0  0  0  0
  190.8540  172.0860  144.9700 C   0  0  0  0  0  2  0  0  0  0  0  0
  191.3350  176.2980  147.5080 C   0  0  0  0  0  0  0  0  0  0  0  0
  194.5120  174.0310  145.3380 O   0  0  0  0  0  0  0  0  0  0  0  0
  194.7030  176.0720  142.3810 C   0  0  0  0  0  2  0  0  0  0  0  0
  196.2090  174.2390  142.1780 O   0  0  0  0  0  0  0  0  0  0  0  0
  196.9150  174.2730  144.4960 C   0  0  1  0  0  3  0  0  0  0  0  0
  194.7960  176.9690  144.5500 O   0  0  0  0  0  0  0  0  0  0  0  0
  195.4420  174.6850  144.4910 C   0  0  1  0  0  0  0  0  0  0  0  0
  195.0290  174.9090  140.2140 C   0  0  0  0  0  1  0  0  0  0  0  0
  195.9690  173.6780  143.4510 C   0  0  1  0  0  3  0  0  0  0  0  0
  194.9810  174.7320  141.7160 C   0  0  2  0  0  3  0  0  0  0  0  0
  194.9630  175.9770  143.8580 C   0  0  0  0  0  0  0  0  0  0  0  0
  197.7140  175.2900  143.9660 O   0  0  0  0  0  1  0  0  0  0  0  0
  186.1590  177.9950  140.9420 C   0  0  0  0  0  2  0  0  0  0  0  0
  186.6630  177.9160  139.6380 O   0  0  0  0  0  0  0  0  0  0  0  0
  186.4250  176.6030  139.2240 C   0  0  0  0  0  2  0  0  0  0  0  0
  187.8140  174.5790  139.1330 C   0  0  2  0  0  3  0  0  0  0  0  0
  187.4320  174.9510  137.8310 O   0  0  0  0  0  0  0  0  0  0  0  0
  187.7220  175.9990  138.7260 C   0  0  1  0  0  3  0  0  0  0  0  0
  189.2530  174.0340  139.1450 C   0  0  1  0  0  3  0  0  0  0  0  0
  189.8280  173.6670  140.5170 C   0  0  0  0  0  1  0  0  0  0  0  0
  189.4190  172.9220  138.1040 C   0  0  2  0  0  3  0  0  0  0  0  0
  189.3610  171.2380  138.8100 S   0  0  0  0  0  1  0  0  0  0  0  0
  191.7460  172.6630  137.5740 C   0  0  0  0  0  0  0  0  0  0  0  0
  190.5950  173.1530  137.2010 C   0  0  0  0  0  0  0  0  0  0  0  0
  192.8810  172.1440  137.9490 C   0  0  0  0  0  3  0  0  0  0  0  0
  191.1800  175.0330  135.5870 N   0  0  0  0  0  2  0  0  0  0  0  0
  189.7030  173.3450  135.0120 O   0  0  0  0  0  0  0  0  0  0  0  0
  190.4680  173.8290  135.8900 C   0  0  0  0  0  0  0  0  0  0  0  0
  193.9210  174.5610  134.8500 N   0  0  0  0  0  1  0  0  0  0  0  0
  194.5070  175.6660  136.8040 O   0  0  0  0  0  0  0  0  0  0  0  0
  192.2290  175.4990  136.3920 N   0  0  0  0  0  2  0  0  0  0  0  0
  193.5910  175.2650  136.0430 C   0  0  0  0  0  0  0  0  0  0  0  0
  193.1390  171.8850  139.3950 C   0  0  0  0  0  2  0  0  0  0  0  0
  195.4980  171.1660  139.2810 C   0  0  0  0  0  2  0  0  0  0  0  0
  194.1000  170.2980  141.0990 C   0  0  1  0  0  3  0  0  0  0  0  0
  195.4830  170.6200  141.6270 C   0  0  0  0  0  2  0  0  0  0  0  0
  196.3820  170.6950  140.4140 C   0  0  2  0  0  3  0  0  0  0  0  0
  194.0910  170.7090  139.6110 C   0  0  1  0  0  0  0  0  0  0  0  0
  193.7520  169.6470  138.7650 O   0  0  0  0  0  1  0  0  0  0  0  0
  197.4040  171.6160  140.6340 O   0  0  0  0  0  1  0  0  0  0  0  0
  193.1110  168.6540  142.6990 C   0  0  0  0  0  1  0  0  0  0  0  0
  193.7920  168.8250  141.3550 C   0  0  0  0  0  2  0  0  0  0  0  0
  2  5  1  0  0  0  0
  3 11  1  0  0  0  0
  3  7  1  0  0  0  0
  3  1  1  1  0  0  0
  4  9  2  0  0  0  0
  5  8  2  0  0  0  0
  5  6  1  0  0  0  0
  7  6  1  6  0  0  0
  7 14  1  0  0  0  0
  8  3  1  0  0  0  0
  9  8  1  0  0  0  0
 10  4  1  0  0  0  0
 10  2  2  0  0  0  0
 13 22  1  0  0  0  0
 14 12  1  6  0  0  0
 14 23  1  0  0  0  0
 15 23  1  0  0  0  0
 16 19  1  1  0  0  0
 16 21  1  0  0  0  0
 16 12  1  0  0  0  0
 17 24  1  1  0  0  0
 17 21  1  0  0  0  0
 19 22  1  0  0  0  0
 20 13  1  0  0  0  0
 20 17  1  0  0  0  0
 21 15  1  6  0  0  0
 23 18  2  0  0  0  0
 25 33  1  0  0  0  0
 27 34  1  6  0  0  0
 29 27  1  0  0  0  0
 29 24  1  1  0  0  0
 31 26  1  6  0  0  0
 31 29  1  0  0  0  0
 31 27  1  0  0  0  0
 32 30  1  6  0  0  0
 32 26  1  0  0  0  0
 32 25  1  0  0  0  0
 33 29  1  0  0  0  0
 33 28  2  0  0  0  0
 35  4  1  0  0  0  0
 36 35  1  0  0  0  0
 37 36  1  0  0  0  0
 38 41  1  6  0  0  0
 39 40  1  0  0  0  0
 39 38  1  0  0  0  0
 40 38  1  0  0  0  0
 40 37  1  1  0  0  0
 41 42  1  1  0  0  0
 43 44  1  1  0  0  0
 43 41  1  0  0  0  0
 45 47  2  0  0  0  0
 46 45  2  0  0  0  0
 46 43  1  0  0  0  0
 47 55  1  0  0  0  0
 48 50  1  0  0  0  0
 48 53  1  0  0  0  0
 49 50  2  0  0  0  0
 50 46  1  0  0  0  0
 51 54  1  0  0  0  0
 54 53  1  0  0  0  0
 54 52  2  0  0  0  0
 55 60  1  0  0  0  0
 56 60  1  0  0  0  0
 56 59  1  0  0  0  0
 57 64  1  6  0  0  0
 57 58  1  0  0  0  0
 59 62  1  1  0  0  0
 59 58  1  0  0  0  0
 60 61  1  6  0  0  0
 60 57  1  0  0  0  0
 64 63  1  0  0  0  0
M  END
>  <MODEL>
6

>  <REMARK>
 VINA RESULT:      -5.7      3.193      6.694
  Name = 
  15 active torsions:
  status: ('A' for Active; 'I' for Inactive)
    1  A    between atoms: N_1  and  N_48
    2  A    between atoms: C_4  and  O_33
    3  A    between atoms: C_4  and  C_44
    4  A    between atoms: O_7  and  C_30
    5  A    between atoms: O_7  and  C_43
    6  A    between atoms: C_11  and  C_20
    7  A    between atoms: C_11  and  C_35
    8  A    between atoms: C_14  and  C_37
    9  A    between atoms: C_16  and  C_18
   10  A    between atoms: C_16  and  O_33
   11  A    between atoms: C_20  and  C_21
   12  A    between atoms: C_25  and  C_56
   13  A    between atoms: C_35  and  C_36
   14  A    between atoms: C_38  and  C_50
   15  A    between atoms: C_40  and  C_50
                            x       y       z     vdW  Elec       q    Type
                         _______ _______ _______ _____ _____    ______ ____

>  <TORSDO>
F 15

$$$$
=
 OpenBabel11072409193D

 64 71  0  0  1  0  0  0  0  0999 V2000
  191.7030  177.1030  142.5670 C   0  0  0  0  0  1  0  0  0  0  0  0
  195.6500  175.5820  144.6450 C   0  0  0  0  0  3  0  0  0  0  0  0
  192.3350  175.8050  143.0390 C   0  0  2  0  0  0  0  0  0  0  0  0
  196.0690  176.3300  142.3640 C   0  0  0  0  0  0  0  0  0  0  0  0
  194.2860  175.5670  144.3580 C   0  0  0  0  0  0  0  0  0  0  0  0
  193.2060  175.1540  145.2750 C   0  0  0  0  0  2  0  0  0  0  0  0
  191.9230  175.5070  144.5030 C   0  0  2  0  0  3  0  0  0  0  0  0
  193.8130  175.9200  143.1180 C   0  0  0  0  0  0  0  0  0  0  0  0
  194.6880  176.2900  142.0930 C   0  0  0  0  0  3  0  0  0  0  0  0
  196.5440  175.9710  143.6370 C   0  0  0  0  0  3  0  0  0  0  0  0
  191.9920  174.7590  142.1770 O   0  0  0  0  0  1  0  0  0  0  0  0
  190.1940  174.4720  145.9330 O   0  0  0  0  0  0  0  0  0  0  0  0
  186.6850  176.4090  147.7840 C   0  0  0  0  0  2  0  0  0  0  0  0
  190.8180  174.4440  144.6610 C   0  0  1  0  0  3  0  0  0  0  0  0
  188.6500  175.4700  143.6840 C   0  0  0  0  0  2  0  0  0  0  0  0
  189.4200  175.6480  146.0580 C   0  0  2  0  0  3  0  0  0  0  0  0
  187.1740  176.7310  145.2630 C   0  0  1  0  0  3  0  0  0  0  0  0
  189.9400  173.8590  142.5370 O   0  0  0  0  0  0  0  0  0  0  0  0
  189.1490  175.8950  147.5460 C   0  0  0  0  0  2  0  0  0  0  0  0
  186.9440  177.3860  146.6310 C   0  0  0  0  0  2  0  0  0  0  0  0
  188.1730  175.5550  145.1350 C   0  0  1  0  0  3  0  0  0  0  0  0
  187.7890  175.3680  147.9860 C   0  0  0  0  0  2  0  0  0  0  0  0
  189.7990  174.5190  143.5540 C   0  0  0  0  0  0  0  0  0  0  0  0
  186.0000  176.6800  144.4680 O   0  0  0  0  0  0  0  0  0  0  0  0
  183.3040  178.6560  143.1370 C   0  0  0  0  0  2  0  0  0  0  0  0
  184.9710  178.3590  141.4630 O   0  0  0  0  0  0  0  0  0  0  0  0
  186.8500  178.5770  142.9780 C   0  0  1  0  0  3  0  0  0  0  0  0
  184.3040  179.1080  145.2140 O   0  0  0  0  0  0  0  0  0  0  0  0
  185.7380  177.8860  143.7710 C   0  0  1  0  0  0  0  0  0  0  0  0
  182.6900  178.2910  140.7610 C   0  0  0  0  0  1  0  0  0  0  0  0
  185.8840  177.6330  142.2570 C   0  0  1  0  0  3  0  0  0  0  0  0
  183.6870  177.9470  141.8460 C   0  0  2  0  0  3  0  0  0  0  0  0
  184.4380  178.5820  144.1200 C   0  0  0  0  0  0  0  0  0  0  0  0
  186.5360  179.9220  142.7580 O   0  0  0  0  0  1  0  0  0  0  0  0
  197.0600  176.7030  141.3050 C   0  0  0  0  0  2  0  0  0  0  0  0
  197.9050  175.6300  140.9940 O   0  0  0  0  0  0  0  0  0  0  0  0
  197.5960  175.2800  139.6780 C   0  0  0  0  0  2  0  0  0  0  0  0
  196.6220  173.3920  138.4430 C   0  0  2  0  0  3  0  0  0  0  0  0
  197.1860  172.9310  139.6460 O   0  0  0  0  0  0  0  0  0  0  0  0
  196.5480  174.1860  139.6900 C   0  0  1  0  0  3  0  0  0  0  0  0
  195.3250  172.6290  138.1210 C   0  0  1  0  0  3  0  0  0  0  0  0
  194.7580  172.8210  136.7100 C   0  0  0  0  0  1  0  0  0  0  0  0
  195.4480  171.1580  138.5270 C   0  0  2  0  0  3  0  0  0  0  0  0
  195.7960  170.0340  137.1290 S   0  0  0  0  0  1  0  0  0  0  0  0
  194.1700  171.2740  140.5560 C   0  0  0  0  0  0  0  0  0  0  0  0
  194.3080  170.7030  139.3910 C   0  0  0  0  0  0  0  0  0  0  0  0
  194.0330  171.8730  141.7050 C   0  0  0  0  0  3  0  0  0  0  0  0
  192.0440  170.1070  138.3920 N   0  0  0  0  0  2  0  0  0  0  0  0
  193.5690  168.4810  139.0180 O   0  0  0  0  0  0  0  0  0  0  0  0
  193.3090  169.7120  138.9290 C   0  0  0  0  0  0  0  0  0  0  0  0
  190.3900  171.7820  140.0460 N   0  0  0  0  0  1  0  0  0  0  0  0
  190.6940  173.4420  138.4550 O   0  0  0  0  0  0  0  0  0  0  0  0
  191.7720  171.4320  138.0250 N   0  0  0  0  0  2  0  0  0  0  0  0
  190.9470  172.2700  138.8310 C   0  0  0  0  0  0  0  0  0  0  0  0
  195.2170  172.4970  142.3650 C   0  0  0  0  0  2  0  0  0  0  0  0
  196.9800  172.3190  144.0840 C   0  0  0  0  0  2  0  0  0  0  0  0
  194.8550  171.1580  144.4680 C   0  0  1  0  0  3  0  0  0  0  0  0
  195.3410  171.7780  145.7630 C   0  0  0  0  0  2  0  0  0  0  0  0
  196.8130  172.0540  145.5640 C   0  0  2  0  0  3  0  0  0  0  0  0
  195.8730  171.5610  143.3790 C   0  0  1  0  0  0  0  0  0  0  0  0
  196.4290  170.4530  142.7310 O   0  0  0  0  0  1  0  0  0  0  0  0
  197.1900  173.1780  146.2950 O   0  0  0  0  0  1  0  0  0  0  0  0
  194.5660  169.3190  146.1340 C   0  0  0  0  0  1  0  0  0  0  0  0
  194.6890  169.6530  144.6600 C   0  0  0  0  0  2  0  0  0  0  0  0
  3  1  1  6  0  0  0
  3  8  1  0  0  0  0
  3  7  1  0  0  0  0
  4 10  1  0  0  0  0
  5  2  1  0  0  0  0
  5  6  1  0  0  0  0
  7 14  1  0  0  0  0
  7  6  1  1  0  0  0
  8  5  2  0  0  0  0
  9  4  2  0  0  0  0
  9  8  1  0  0  0  0
 10  2  2  0  0  0  0
 11  3  1  0  0  0  0
 12 16  1  0  0  0  0
 13 22  1  0  0  0  0
 14 23  1  6  0  0  0
 14 12  1  0  0  0  0
 16 19  1  1  0  0  0
 17 24  1  1  0  0  0
 17 20  1  0  0  0  0
 18 23  2  0  0  0  0
 19 22  1  0  0  0  0
 20 13  1  0  0  0  0
 21 15  1  6  0  0  0
 21 17  1  0  0  0  0
 21 16  1  0  0  0  0
 23 15  1  0  0  0  0
 25 33  1  0  0  0  0
 26 32  1  0  0  0  0
 27 34  1  6  0  0  0
 27 29  1  0  0  0  0
 29 33  1  0  0  0  0
 29 24  1  1  0  0  0
 31 26  1  6  0  0  0
 31 27  1  0  0  0  0
 31 29  1  0  0  0  0
 32 30  1  6  0  0  0
 32 25  1  0  0  0  0
 33 28  2  0  0  0  0
 35  4  1  0  0  0  0
 36 35  1  0  0  0  0
 37 36  1  0  0  0  0
 38 41  1  1  0  0  0
 38 39  1  0  0  0  0
 38 40  1  0  0  0  0
 39 40  1  0  0  0  0
 40 37  1  6  0  0  0
 41 42  1  6  0  0  0
 41 43  1  0  0  0  0
 43 44  1  6  0  0  0
 43 46  1  0  0  0  0
 45 47  2  0  0  0  0
 46 45  2  0  0  0  0
 47 55  1  0  0  0  0
 48 50  1  0  0  0  0
 50 49  2  0  0  0  0
 50 46  1  0  0  0  0
 52 54  2  0  0  0  0
 53 48  1  0  0  0  0
 53 54  1  0  0  0  0
 54 51  1  0  0  0  0
 55 60  1  0  0  0  0
 56 59  1  0  0  0  0
 57 64  1  1  0  0  0
 57 58  1  0  0  0  0
 59 58  1  0  0  0  0
 59 62  1  1  0  0  0
 60 61  1  6  0  0  0
 60 56  1  0  0  0  0
 60 57  1  0  0  0  0
 64 63  1  0  0  0  0
M  END
>  <MODEL>
7

>  <REMARK>
 VINA RESULT:      -5.7      3.238     10.072
  Name = 
  15 active torsions:
  status: ('A' for Active; 'I' for Inactive)
    1  A    between atoms: N_1  and  N_48
    2  A    between atoms: C_4  and  O_33
    3  A    between atoms: C_4  and  C_44
    4  A    between atoms: O_7  and  C_30
    5  A    between atoms: O_7  and  C_43
    6  A    between atoms: C_11  and  C_20
    7  A    between atoms: C_11  and  C_35
    8  A    between atoms: C_14  and  C_37
    9  A    between atoms: C_16  and  C_18
   10  A    between atoms: C_16  and  O_33
   11  A    between atoms: C_20  and  C_21
   12  A    between atoms: C_25  and  C_56
   13  A    between atoms: C_35  and  C_36
   14  A    between atoms: C_38  and  C_50
   15  A    between atoms: C_40  and  C_50
                            x       y       z     vdW  Elec       q    Type
                         _______ _______ _______ _____ _____    ______ ____

>  <TORSDO>
F 15

$$$$
=
 OpenBabel11072409193D

 64 71  0  0  1  0  0  0  0  0999 V2000
  194.3970  171.8920  145.7660 C   0  0  0  0  0  1  0  0  0  0  0  0
  190.5480  171.6940  143.0540 C   0  0  0  0  0  3  0  0  0  0  0  0
  193.5060  172.8160  144.9530 C   0  0  2  0  0  0  0  0  0  0  0  0
  192.4660  170.6550  141.9660 C   0  0  0  0  0  0  0  0  0  0  0  0
  191.4220  172.2810  143.9670 C   0  0  0  0  0  0  0  0  0  0  0  0
  191.0520  173.1990  145.0630 C   0  0  0  0  0  2  0  0  0  0  0  0
  192.3670  173.3820  145.8390 C   0  0  2  0  0  3  0  0  0  0  0  0
  192.7770  172.0710  143.8960 C   0  0  0  0  0  0  0  0  0  0  0  0
  193.3290  171.2730  142.8900 C   0  0  0  0  0  3  0  0  0  0  0  0
  191.0800  170.8720  142.0490 C   0  0  0  0  0  3  0  0  0  0  0  0
  194.2690  173.8310  144.3700 O   0  0  0  0  0  1  0  0  0  0  0  0
  192.9540  175.7150  145.2760 O   0  0  0  0  0  0  0  0  0  0  0  0
  190.9260  178.4150  142.4320 C   0  0  0  0  0  2  0  0  0  0  0  0
  192.5820  174.8310  146.3200 C   0  0  1  0  0  3  0  0  0  0  0  0
  190.2550  175.9700  146.3200 C   0  0  0  0  0  2  0  0  0  0  0  0
  191.8600  175.9080  144.4030 C   0  0  2  0  0  3  0  0  0  0  0  0
  189.5590  177.1400  144.2220 C   0  0  1  0  0  3  0  0  0  0  0  0
  191.3260  175.2310  148.2910 O   0  0  0  0  0  0  0  0  0  0  0  0
  192.3920  176.4580  143.0730 C   0  0  0  0  0  2  0  0  0  0  0  0
  189.7780  177.4450  142.7340 C   0  0  0  0  0  2  0  0  0  0  0  0
  190.7660  176.7540  145.1110 C   0  0  1  0  0  3  0  0  0  0  0  0
  192.2840  177.9750  142.9850 C   0  0  0  0  0  2  0  0  0  0  0  0
  191.3920  175.3570  147.0790 C   0  0  0  0  0  0  0  0  0  0  0  0
  188.5460  177.9420  144.8090 O   0  0  0  0  0  0  0  0  0  0  0  0
  185.1660  179.1700  144.6750 C   0  0  0  0  0  2  0  0  0  0  0  0
  185.1930  177.0350  145.7270 O   0  0  0  0  0  0  0  0  0  0  0  0
  186.8740  176.0850  144.2630 C   0  0  1  0  0  3  0  0  0  0  0  0
  186.5950  179.1790  142.8100 O   0  0  0  0  0  0  0  0  0  0  0  0
  187.2340  177.5630  144.4270 C   0  0  1  0  0  0  0  0  0  0  0  0
  183.6960  178.6720  146.6100 C   0  0  0  0  0  1  0  0  0  0  0  0
  186.5760  176.7910  145.5880 C   0  0  1  0  0  3  0  0  0  0  0  0
  185.0480  178.4050  145.9850 C   0  0  2  0  0  3  0  0  0  0  0  0
  186.3530  178.6770  143.8960 C   0  0  0  0  0  0  0  0  0  0  0  0
  185.7300  175.9410  143.4730 O   0  0  0  0  0  1  0  0  0  0  0  0
  192.9940  169.8000  140.8560 C   0  0  0  0  0  2  0  0  0  0  0  0
  194.3760  169.6070  140.9720 O   0  0  0  0  0  0  0  0  0  0  0  0
  194.8440  169.4510  139.6660 C   0  0  0  0  0  2  0  0  0  0  0  0
  195.6810  170.6770  137.7090 C   0  0  2  0  0  3  0  0  0  0  0  0
  194.3360  171.0160  137.9410 O   0  0  0  0  0  0  0  0  0  0  0  0
  195.1400  170.8160  139.0800 C   0  0  1  0  0  3  0  0  0  0  0  0
  196.4790  171.9050  137.2350 C   0  0  1  0  0  3  0  0  0  0  0  0
  197.9380  171.6540  136.8380 C   0  0  0  0  0  1  0  0  0  0  0  0
  195.6930  172.6870  136.1790 C   0  0  2  0  0  3  0  0  0  0  0  0
  196.4410  172.6340  134.5140 S   0  0  0  0  0  1  0  0  0  0  0  0
  194.0780  174.3580  136.7840 C   0  0  0  0  0  0  0  0  0  0  0  0
  195.3430  174.0740  136.6340 C   0  0  0  0  0  0  0  0  0  0  0  0
  192.8120  174.6150  136.9530 C   0  0  0  0  0  3  0  0  0  0  0  0
  196.8220  175.2490  138.3400 N   0  0  0  0  0  2  0  0  0  0  0  0
  196.8690  175.8060  136.0930 O   0  0  0  0  0  0  0  0  0  0  0  0
  196.3740  175.0740  136.9930 C   0  0  0  0  0  0  0  0  0  0  0  0
  194.8000  175.8250  140.3030 N   0  0  0  0  0  1  0  0  0  0  0  0
  195.3070  173.7670  141.2480 O   0  0  0  0  0  0  0  0  0  0  0  0
  196.5210  174.3250  139.3500 N   0  0  0  0  0  2  0  0  0  0  0  0
  195.5270  174.6020  140.3350 C   0  0  0  0  0  0  0  0  0  0  0  0
  191.7870  173.8380  136.1970 C   0  0  0  0  0  2  0  0  0  0  0  0
  189.9020  172.2560  136.4020 C   0  0  0  0  0  2  0  0  0  0  0  0
  191.1460  172.8580  138.4270 C   0  0  1  0  0  3  0  0  0  0  0  0
  190.8120  171.3800  138.4520 C   0  0  0  0  0  2  0  0  0  0  0  0
  189.6920  171.1910  137.4550 C   0  0  2  0  0  3  0  0  0  0  0  0
  190.6200  173.4050  137.0830 C   0  0  1  0  0  0  0  0  0  0  0  0
  189.7180  174.4620  137.2520 O   0  0  0  0  0  1  0  0  0  0  0  0
  189.7770  169.9270  136.8770 O   0  0  0  0  0  1  0  0  0  0  0  0
  191.6600  174.0950  140.5360 C   0  0  0  0  0  1  0  0  0  0  0  0
  190.5550  173.5300  139.6640 C   0  0  0  0  0  2  0  0  0  0  0  0
  2  5  1  0  0  0  0
  3  1  1  1  0  0  0
  3  7  1  0  0  0  0
  4 10  1  0  0  0  0
  4  9  2  0  0  0  0
  5  6  1  0  0  0  0
  7  6  1  6  0  0  0
  7 14  1  0  0  0  0
  8  5  2  0  0  0  0
  8  3  1  0  0  0  0
  9  8  1  0  0  0  0
 10  2  2  0  0  0  0
 11  3  1  0  0  0  0
 13 20  1  0  0  0  0
 13 22  1  0  0  0  0
 14 12  1  6  0  0  0
 14 23  1  0  0  0  0
 15 23  1  0  0  0  0
 16 19  1  6  0  0  0
 16 21  1  0  0  0  0
 16 12  1  0  0  0  0
 17 24  1  1  0  0  0
 17 21  1  0  0  0  0
 20 17  1  0  0  0  0
 21 15  1  1  0  0  0
 22 19  1  0  0  0  0
 23 18  2  0  0  0  0
 25 32  1  0  0  0  0
 26 32  1  0  0  0  0
 27 34  1  6  0  0  0
 27 29  1  0  0  0  0
 27 31  1  0  0  0  0
 28 33  2  0  0  0  0
 29 24  1  1  0  0  0
 29 31  1  0  0  0  0
 31 26  1  6  0  0  0
 32 30  1  6  0  0  0
 33 29  1  0  0  0  0
 33 25  1  0  0  0  0
 35 36  1  0  0  0  0
 35  4  1  0  0  0  0
 37 36  1  0  0  0  0
 38 41  1  6  0  0  0
 38 39  1  0  0  0  0
 38 40  1  0  0  0  0
 39 40  1  0  0  0  0
 40 37  1  1  0  0  0
 41 42  1  6  0  0  0
 43 44  1  6  0  0  0
 43 46  1  0  0  0  0
 43 41  1  0  0  0  0
 45 47  2  0  0  0  0
 46 45  2  0  0  0  0
 46 50  1  0  0  0  0
 48 53  1  0  0  0  0
 49 50  2  0  0  0  0
 50 48  1  0  0  0  0
 51 54  1  0  0  0  0
 53 54  1  0  0  0  0
 54 52  2  0  0  0  0
 55 47  1  0  0  0  0
 55 60  1  0  0  0  0
 56 60  1  0  0  0  0
 56 59  1  0  0  0  0
 57 58  1  0  0  0  0
 57 64  1  1  0  0  0
 59 62  1  6  0  0  0
 59 58  1  0  0  0  0
 60 61  1  1  0  0  0
 60 57  1  0  0  0  0
 64 63  1  0  0  0  0
M  END
>  <MODEL>
8

>  <REMARK>
 VINA RESULT:      -5.7      3.853     10.035
  Name = 
  15 active torsions:
  status: ('A' for Active; 'I' for Inactive)
    1  A    between atoms: N_1  and  N_48
    2  A    between atoms: C_4  and  O_33
    3  A    between atoms: C_4  and  C_44
    4  A    between atoms: O_7  and  C_30
    5  A    between atoms: O_7  and  C_43
    6  A    between atoms: C_11  and  C_20
    7  A    between atoms: C_11  and  C_35
    8  A    between atoms: C_14  and  C_37
    9  A    between atoms: C_16  and  C_18
   10  A    between atoms: C_16  and  O_33
   11  A    between atoms: C_20  and  C_21
   12  A    between atoms: C_25  and  C_56
   13  A    between atoms: C_35  and  C_36
   14  A    between atoms: C_38  and  C_50
   15  A    between atoms: C_40  and  C_50
                            x       y       z     vdW  Elec       q    Type
                         _______ _______ _______ _____ _____    ______ ____

>  <TORSDO>
F 15

$$$$
=
 OpenBabel11072409193D

 64 71  0  0  1  0  0  0  0  0999 V2000
  192.6640  176.1930  143.2610 C   0  0  0  0  0  1  0  0  0  0  0  0
  191.0280  175.2240  147.5720 C   0  0  0  0  0  3  0  0  0  0  0  0
  193.0860  176.3230  144.7140 C   0  0  2  0  0  0  0  0  0  0  0  0
  189.7980  177.0570  146.5380 C   0  0  0  0  0  0  0  0  0  0  0  0
  192.0140  175.3760  146.5990 C   0  0  0  0  0  0  0  0  0  0  0  0
  193.2690  174.6050  146.5010 C   0  0  0  0  0  2  0  0  0  0  0  0
  193.8690  175.0630  145.1610 C   0  0  2  0  0  3  0  0  0  0  0  0
  191.9100  176.3330  145.6190 C   0  0  0  0  0  0  0  0  0  0  0  0
  190.8160  177.2020  145.5770 C   0  0  0  0  0  3  0  0  0  0  0  0
  189.9120  176.0720  147.5340 C   0  0  0  0  0  3  0  0  0  0  0  0
  193.8280  177.4930  144.8980 O   0  0  0  0  0  1  0  0  0  0  0  0
  196.0890  174.0390  145.5200 O   0  0  0  0  0  0  0  0  0  0  0  0
  197.9410  170.7180  143.2770 C   0  0  0  0  0  2  0  0  0  0  0  0
  195.4000  175.2410  145.2210 C   0  0  1  0  0  3  0  0  0  0  0  0
  196.2720  175.0230  142.7920 C   0  0  0  0  0  2  0  0  0  0  0  0
  195.9900  173.1500  144.4260 C   0  0  2  0  0  3  0  0  0  0  0  0
  196.9200  172.7350  142.0160 C   0  0  1  0  0  3  0  0  0  0  0  0
  196.0580  177.0980  143.9000 O   0  0  0  0  0  0  0  0  0  0  0  0
  196.3120  171.7350  144.9210 C   0  0  0  0  0  2  0  0  0  0  0  0
  196.9400  171.2150  142.2270 C   0  0  0  0  0  2  0  0  0  0  0  0
  196.8450  173.6780  143.2410 C   0  0  1  0  0  3  0  0  0  0  0  0
  197.7620  171.3430  144.6630 C   0  0  0  0  0  2  0  0  0  0  0  0
  195.9440  175.8850  143.9730 C   0  0  0  0  0  0  0  0  0  0  0  0
  197.7170  173.1520  140.9180 O   0  0  0  0  0  0  0  0  0  0  0  0
  194.9450  171.5980  139.2310 C   0  0  0  0  0  2  0  0  0  0  0  0
  196.8750  171.5010  137.8400 O   0  0  0  0  0  0  0  0  0  0  0  0
  197.6800  173.7110  138.4220 C   0  0  1  0  0  3  0  0  0  0  0  0
  194.7850  173.7030  140.2600 O   0  0  0  0  0  0  0  0  0  0  0  0
  197.0200  173.1500  139.6830 C   0  0  1  0  0  0  0  0  0  0  0  0
  195.4310  169.5990  137.8440 C   0  0  0  0  0  1  0  0  0  0  0  0
  197.7420  172.2070  138.7000 C   0  0  1  0  0  3  0  0  0  0  0  0
  196.0460  170.7190  138.6560 C   0  0  2  0  0  3  0  0  0  0  0  0
  195.5310  172.8740  139.7650 C   0  0  0  0  0  0  0  0  0  0  0  0
  196.7170  174.0310  137.4610 O   0  0  0  0  0  1  0  0  0  0  0  0
  188.6080  177.9650  146.5570 C   0  0  0  0  0  2  0  0  0  0  0  0
  187.6090  177.4830  147.4110 O   0  0  0  0  0  0  0  0  0  0  0  0
  186.4680  177.3520  146.6160 C   0  0  0  0  0  2  0  0  0  0  0  0
  186.1480  176.4230  144.3640 C   0  0  2  0  0  3  0  0  0  0  0  0
  185.7350  177.7680  144.3850 O   0  0  0  0  0  0  0  0  0  0  0  0
  186.8680  177.4440  145.1580 C   0  0  1  0  0  3  0  0  0  0  0  0
  186.8340  176.0840  143.0290 C   0  0  1  0  0  3  0  0  0  0  0  0
  186.3350  176.8470  141.7970 C   0  0  0  0  0  1  0  0  0  0  0  0
  188.3570  176.1140  143.1810 C   0  0  2  0  0  3  0  0  0  0  0  0
  189.1830  177.3280  142.0940 S   0  0  0  0  0  1  0  0  0  0  0  0
  189.2260  174.2510  141.9390 C   0  0  0  0  0  0  0  0  0  0  0  0
  188.9670  174.7430  143.1200 C   0  0  0  0  0  0  0  0  0  0  0  0
  189.5030  173.7880  140.7530 C   0  0  0  0  0  3  0  0  0  0  0  0
  190.4240  173.0450  144.3320 N   0  0  0  0  0  0  0  0  0  0  0  0
  188.7140  174.1750  145.4090 O   0  0  0  0  0  0  0  0  0  0  0  0
  189.3520  173.9910  144.3370 C   0  0  0  0  0  0  0  0  0  0  0  0
  192.8240  171.4780  144.5830 N   0  0  0  0  0  1  0  0  0  0  0  0
  193.3510  172.1690  142.4310 O   0  0  0  0  0  0  0  0  0  0  0  0
  191.3390  172.9600  143.2730 N   0  0  0  0  0  0  0  0  0  0  0  0
  192.5360  172.1950  143.3870 C   0  0  0  0  0  0  0  0  0  0  0  0
  188.7440  174.2790  139.5670 C   0  0  0  0  0  2  0  0  0  0  0  0
  188.6520  174.2850  137.0990 C   0  0  0  0  0  2  0  0  0  0  0  0
  190.5590  173.2000  138.1940 C   0  0  1  0  0  3  0  0  0  0  0  0
  191.0350  173.9620  136.9730 C   0  0  0  0  0  2  0  0  0  0  0  0
  189.8060  174.1960  136.1260 C   0  0  2  0  0  3  0  0  0  0  0  0
  189.0420  173.4610  138.3110 C   0  0  1  0  0  0  0  0  0  0  0  0
  188.2940  172.2790  138.3100 O   0  0  0  0  0  1  0  0  0  0  0  0
  189.9310  175.3940  135.4260 O   0  0  0  0  0  1  0  0  0  0  0  0
  191.3480  171.1570  139.3970 C   0  0  0  0  0  1  0  0  0  0  0  0
  190.9430  171.7290  138.0520 C   0  0  0  0  0  2  0  0  0  0  0  0
  3  1  1  6  0  0  0
  3 11  1  0  0  0  0
  3  7  1  0  0  0  0
  3  8  1  0  0  0  0
  4 35  1  0  0  0  0
  4 10  2  0  0  0  0
  5  2  2  0  0  0  0
  6  5  1  0  0  0  0
  7 14  1  0  0  0  0
  7  6  1  1  0  0  0
  8  5  1  0  0  0  0
  9  8  2  0  0  0  0
  9  4  1  0  0  0  0
 10  2  1  0  0  0  0
 13 22  1  0  0  0  0
 14 23  1  6  0  0  0
 14 12  1  0  0  0  0
 15 23  1  0  0  0  0
 16 19  1  1  0  0  0
 16 12  1  0  0  0  0
 17 24  1  1  0  0  0
 17 20  1  0  0  0  0
 17 21  1  0  0  0  0
 18 23  2  0  0  0  0
 20 13  1  0  0  0  0
 21 15  1  6  0  0  0
 21 16  1  0  0  0  0
 22 19  1  0  0  0  0
 25 33  1  0  0  0  0
 26 32  1  0  0  0  0
 27 34  1  6  0  0  0
 27 31  1  0  0  0  0
 27 29  1  0  0  0  0
 29 33  1  0  0  0  0
 29 24  1  1  0  0  0
 31 26  1  6  0  0  0
 31 29  1  0  0  0  0
 32 30  1  6  0  0  0
 32 25  1  0  0  0  0
 33 28  2  0  0  0  0
 35 36  1  0  0  0  0
 37 36  1  0  0  0  0
 38 41  1  6  0  0  0
 38 39  1  0  0  0  0
 38 40  1  0  0  0  0
 39 40  1  0  0  0  0
 40 37  1  1  0  0  0
 41 42  1  6  0  0  0
 41 43  1  0  0  0  0
 43 44  1  6  0  0  0
 45 46  2  0  0  0  0
 46 43  1  0  0  0  0
 46 50  1  0  0  0  0
 47 45  2  0  0  0  0
 48 50  1  0  0  0  0
 50 49  2  0  0  0  0
 52 54  2  0  0  0  0
 53 54  1  0  0  0  0
 53 48  2  0  0  0  0
 54 51  1  0  0  0  0
 55 47  1  0  0  0  0
 56 60  1  0  0  0  0
 57 64  1  6  0  0  0
 57 60  1  0  0  0  0
 58 57  1  0  0  0  0
 59 62  1  1  0  0  0
 59 58  1  0  0  0  0
 59 56  1  0  0  0  0
 60 61  1  1  0  0  0
 60 55  1  0  0  0  0
 64 63  1  0  0  0  0
M  END
>  <MODEL>
9

>  <REMARK>
 VINA RESULT:      -5.6      2.881      4.314
  Name = 
  15 active torsions:
  status: ('A' for Active; 'I' for Inactive)
    1  A    between atoms: N_1  and  N_48
    2  A    between atoms: C_4  and  O_33
    3  A    between atoms: C_4  and  C_44
    4  A    between atoms: O_7  and  C_30
    5  A    between atoms: O_7  and  C_43
    6  A    between atoms: C_11  and  C_20
    7  A    between atoms: C_11  and  C_35
    8  A    between atoms: C_14  and  C_37
    9  A    between atoms: C_16  and  C_18
   10  A    between atoms: C_16  and  O_33
   11  A    between atoms: C_20  and  C_21
   12  A    between atoms: C_25  and  C_56
   13  A    between atoms: C_35  and  C_36
   14  A    between atoms: C_38  and  C_50
   15  A    between atoms: C_40  and  C_50
                            x       y       z     vdW  Elec       q    Type
                         _______ _______ _______ _____ _____    ______ ____

>  <TORSDO>
F 15

$$$$
