=
 OpenBabel11062418193D

 49 57  0  0  1  0  0  0  0  0999 V2000
  189.4320  175.3410  143.9440 N   0  0  0  0  0  0  0  0  0  0  0  0
  196.9300  170.6680  141.1500 C   0  0  2  0  0  3  0  0  0  0  0  0
  197.8770  170.1280  140.0690 C   0  0  2  0  0  3  0  0  0  0  0  0
  193.0160  174.1260  144.6770 C   0  0  1  0  0  3  0  0  0  0  0  0
  190.5250  173.1400  143.3510 C   0  0  2  0  0  3  0  0  0  0  0  0
  193.9620  171.9310  144.1660 O   0  0  0  0  0  0  0  0  0  0  0  0
  197.4330  170.4720  138.7940 O   0  0  0  0  0  0  0  0  0  0  0  0
  197.9340  168.6290  140.1070 C   0  0  0  0  0  2  0  0  0  0  0  0
  195.4360  170.7760  140.7240 C   0  0  1  0  0  3  0  0  0  0  0  0
  193.1600  176.7910  145.6010 N   0  0  0  0  0  2  0  0  0  0  0  0
  194.9110  169.5030  140.0660 C   0  0  0  0  0  2  0  0  0  0  0  0
  194.3580  174.9000  144.6110 C   0  0  2  0  0  3  0  0  0  0  0  0
  195.7340  170.4690  143.7830 C   0  0  0  0  0  1  0  0  0  0  0  0
  189.2000  173.7270  141.3170 C   0  0  0  0  0  2  0  0  0  0  0  0
  191.8540  175.0720  144.2980 C   0  0  1  0  0  3  0  0  0  0  0  0
  195.2590  169.4540  138.5790 C   0  0  0  0  0  2  0  0  0  0  0  0
  190.5990  173.5290  141.8830 C   0  0  0  0  0  2  0  0  0  0  0  0
  194.4190  171.2200  141.8030 C   0  0  1  0  0  3  0  0  0  0  0  0
  196.5900  173.0000  141.8320 O   0  0  0  0  0  0  0  0  0  0  0  0
  190.4900  174.3710  144.2660 C   0  0  1  0  0  3  0  0  0  0  0  0
  194.9760  171.6610  143.2010 C   0  0  1  0  0  0  0  0  0  0  0  0
  193.0300  172.8960  143.7410 C   0  0  1  0  0  3  0  0  0  0  0  0
  195.2880  174.5540  145.7710 C   0  0  0  0  0  2  0  0  0  0  0  0
  196.7650  169.3220  138.3410 C   0  0  2  0  0  3  0  0  0  0  0  0
  193.6090  172.2010  141.2270 O   0  0  0  0  0  1  0  0  0  0  0  0
  197.5310  171.9620  141.7180 C   0  0  0  0  0  2  0  0  0  0  0  0
  188.4220  175.2330  143.1250 C   0  0  0  0  0  0  0  0  0  0  0  0
  191.6630  172.2070  143.7390 C   0  0  0  0  0  2  0  0  0  0  0  0
  188.2540  174.1050  142.3150 O   0  0  0  0  0  0  0  0  0  0  0  0
  194.1610  176.4190  144.6030 C   0  0  0  0  0  2  0  0  0  0  0  0
  196.8320  173.1880  144.2860 C   0  0  0  0  0  2  0  0  0  0  0  0
  196.0330  173.2380  145.5870 C   0  0  0  0  0  2  0  0  0  0  0  0
  197.2670  168.1670  138.9710 O   0  0  0  0  0  0  0  0  0  0  0  0
  191.8270  176.3110  145.2120 C   0  0  0  0  0  2  0  0  0  0  0  0
  195.9290  172.8870  143.0750 C   0  0  1  0  0  3  0  0  0  0  0  0
  185.9000  178.0200  144.0990 C   0  0  0  0  0  0  0  0  0  0  0  0
  188.4380  177.6420  146.3030 C   0  0  0  0  0  1  0  0  0  0  0  0
  187.4240  176.3230  143.0430 C   0  0  0  0  0  0  0  0  0  0  0  0
  187.2630  177.3750  144.1360 C   0  0  2  0  0  3  0  0  0  0  0  0
  186.7240  176.4520  141.9060 C   0  0  0  0  0  3  0  0  0  0  0  0
  185.7980  177.6120  141.6690 C   0  0  2  0  0  3  0  0  0  0  0  0
  186.5080  178.6520  141.0960 F   0  0  0  0  0  0  0  0  0  0  0  0
  185.1910  178.3490  145.7060 S   0  0  0  0  0  0  0  0  0  0  0  0
  186.0380  176.8330  146.2270 C   0  0  1  0  0  3  0  0  0  0  0  0
  187.4150  176.8040  145.5480 C   0  0  2  0  0  3  0  0  0  0  0  0
  185.1840  178.0820  142.9580 C   0  0  0  0  0  0  0  0  0  0  0  0
  183.7860  178.6090  142.9360 C   0  0  0  0  0  1  0  0  0  0  0  0
  185.5740  177.9710  148.0660 C   0  0  0  0  0  1  0  0  0  0  0  0
  186.1370  176.7750  147.6200 O   0  0  0  0  0  0  0  0  0  0  0  0
  1 20  1  0  0  0  0
  2 26  1  6  0  0  0
  3  8  1  6  0  0  0
  3  2  1  0  0  0  0
  5 28  1  0  0  0  0
  5 20  1  0  0  0  0
  7  3  1  0  0  0  0
  9  2  1  0  0  0  0
  9 18  1  0  0  0  0
 11  9  1  0  0  0  0
 12  4  1  0  0  0  0
 12 23  1  0  0  0  0
 14 17  1  0  0  0  0
 14 29  1  0  0  0  0
 15  4  1  0  0  0  0
 15 34  1  0  0  0  0
 16 11  1  0  0  0  0
 17  5  1  0  0  0  0
 18 21  1  0  0  0  0
 19 35  1  0  0  0  0
 20 15  1  0  0  0  0
 21 13  1  0  0  0  0
 21  6  1  0  0  0  0
 22  6  1  0  0  0  0
 22  4  1  0  0  0  0
 24 16  1  0  0  0  0
 24  7  1  0  0  0  0
 24 33  1  0  0  0  0
 25 18  1  0  0  0  0
 26 19  1  0  0  0  0
 27  1  2  0  0  0  0
 28 22  1  0  0  0  0
 29 27  1  0  0  0  0
 30 12  1  0  0  0  0
 30 10  1  0  0  0  0
 31 32  1  0  0  0  0
 32 23  1  0  0  0  0
 33  8  1  0  0  0  0
 34 10  1  0  0  0  0
 35 21  1  0  0  0  0
 35 31  1  0  0  0  0
 36 39  1  0  0  0  0
 36 43  1  0  0  0  0
 38 27  1  0  0  0  0
 38 39  1  0  0  0  0
 39 45  1  0  0  0  0
 40 38  2  0  0  0  0
 41 40  1  0  0  0  0
 41 46  1  0  0  0  0
 42 41  1  0  0  0  0
 43 44  1  0  0  0  0
 44 49  1  0  0  0  0
 45 44  1  0  0  0  0
 45 37  1  0  0  0  0
 46 36  2  0  0  0  0
 47 46  1  0  0  0  0
 49 48  1  0  0  0  0
M  END
>  <MODEL>
1

>  <REMARK>
 VINA RESULT:      -9.4      0.000      0.000
  Name = 
  2 active torsions:
  status: ('A' for Active; 'I' for Inactive)
    1  A    between atoms: C_10  and  C_37
    2  A    between atoms: O_27  and  C_43
                            x       y       z     vdW  Elec       q    Type
                         _______ _______ _______ _____ _____    ______ ____

>  <TORSDO>
F 2

$$$$
=
 OpenBabel11062418193D

 49 57  0  0  1  0  0  0  0  0999 V2000
  190.2800  175.3690  145.3850 N   0  0  0  0  0  0  0  0  0  0  0  0
  197.1030  174.4600  139.1830 C   0  0  2  0  0  3  0  0  0  0  0  0
  197.7740  174.7700  137.8360 C   0  0  2  0  0  3  0  0  0  0  0  0
  194.0050  174.6890  144.6650 C   0  0  1  0  0  3  0  0  0  0  0  0
  191.3290  174.0770  143.4810 C   0  0  2  0  0  3  0  0  0  0  0  0
  194.9340  173.3290  142.8580 O   0  0  0  0  0  0  0  0  0  0  0  0
  196.9950  175.6370  137.0730 O   0  0  0  0  0  0  0  0  0  0  0  0
  197.9400  173.5210  137.0200 C   0  0  0  0  0  2  0  0  0  0  0  0
  195.5460  174.4780  139.1620 C   0  0  1  0  0  3  0  0  0  0  0  0
  194.2020  176.4360  146.8760 N   0  0  0  0  0  2  0  0  0  0  0  0
  194.9570  173.6670  138.0110 C   0  0  0  0  0  2  0  0  0  0  0  0
  195.2290  175.6300  144.8050 C   0  0  2  0  0  3  0  0  0  0  0  0
  196.6410  172.6740  141.4170 C   0  0  0  0  0  1  0  0  0  0  0  0
  189.4880  175.3700  142.3950 C   0  0  0  0  0  2  0  0  0  0  0  0
  192.7230  175.4400  145.0920 C   0  0  1  0  0  3  0  0  0  0  0  0
  194.9130  174.4780  136.7160 C   0  0  0  0  0  2  0  0  0  0  0  0
  190.9960  175.1860  142.4950 C   0  0  0  0  0  2  0  0  0  0  0  0
  194.8140  174.0760  140.4640 C   0  0  1  0  0  3  0  0  0  0  0  0
  196.7940  175.9630  141.0970 O   0  0  0  0  0  0  0  0  0  0  0  0
  191.4480  174.6070  144.9160 C   0  0  1  0  0  3  0  0  0  0  0  0
  195.6810  173.8160  141.7450 C   0  0  1  0  0  0  0  0  0  0  0  0
  193.8600  174.1670  143.2170 C   0  0  1  0  0  3  0  0  0  0  0  0
  196.4480  174.9180  145.3880 C   0  0  0  0  0  2  0  0  0  0  0  0
  196.3120  174.7920  136.1830 C   0  0  2  0  0  3  0  0  0  0  0  0
  193.8190  175.0300  140.6890 O   0  0  0  0  0  1  0  0  0  0  0  0
  197.7420  175.3500  140.2580 C   0  0  0  0  0  2  0  0  0  0  0  0
  189.1030  175.5100  144.8390 C   0  0  0  0  0  0  0  0  0  0  0  0
  192.5880  173.3270  143.0730 C   0  0  0  0  0  2  0  0  0  0  0  0
  188.8080  174.9700  143.5830 O   0  0  0  0  0  0  0  0  0  0  0  0
  194.9350  176.8510  145.6820 C   0  0  0  0  0  2  0  0  0  0  0  0
  197.6460  174.8750  143.1470 C   0  0  0  0  0  2  0  0  0  0  0  0
  197.2070  174.0740  144.3720 C   0  0  0  0  0  2  0  0  0  0  0  0
  197.0360  173.6050  135.9600 O   0  0  0  0  0  0  0  0  0  0  0  0
  192.8480  175.9800  146.5290 C   0  0  0  0  0  2  0  0  0  0  0  0
  196.4840  175.0840  142.1580 C   0  0  1  0  0  3  0  0  0  0  0  0
  186.0790  177.8230  145.6090 C   0  0  0  0  0  0  0  0  0  0  0  0
  185.9220  176.3300  142.5780 C   0  0  0  0  0  1  0  0  0  0  0  0
  188.0450  176.2580  145.5580 C   0  0  0  0  0  0  0  0  0  0  0  0
  186.7310  176.6630  144.8970 C   0  0  2  0  0  3  0  0  0  0  0  0
  188.2090  176.4750  146.8710 C   0  0  0  0  0  3  0  0  0  0  0  0
  187.1290  177.0910  147.7170 C   0  0  2  0  0  3  0  0  0  0  0  0
  186.3070  176.0910  148.2040 F   0  0  0  0  0  0  0  0  0  0  0  0
  185.3040  179.0150  144.5270 S   0  0  0  0  0  0  0  0  0  0  0  0
  186.6470  178.6220  143.3740 C   0  0  1  0  0  3  0  0  0  0  0  0
  186.9020  177.1100  143.4430 C   0  0  2  0  0  3  0  0  0  0  0  0
  186.3080  178.0620  146.9150 C   0  0  0  0  0  0  0  0  0  0  0  0
  185.7640  179.2740  147.5990 C   0  0  0  0  0  1  0  0  0  0  0  0
  187.4180  178.6580  141.3010 C   0  0  0  0  0  1  0  0  0  0  0  0
  186.3270  179.0430  142.0800 O   0  0  0  0  0  0  0  0  0  0  0  0
  2 26  1  1  0  0  0
  3  8  1  6  0  0  0
  3  2  1  0  0  0  0
  4 12  1  0  0  0  0
  4 15  1  0  0  0  0
  5 20  1  0  0  0  0
  6 22  1  0  0  0  0
  7  3  1  0  0  0  0
  9  2  1  0  0  0  0
  9 18  1  0  0  0  0
 11  9  1  0  0  0  0
 12 23  1  0  0  0  0
 12 30  1  0  0  0  0
 13 21  1  0  0  0  0
 14 17  1  0  0  0  0
 14 29  1  0  0  0  0
 15 34  1  0  0  0  0
 16 11  1  0  0  0  0
 17  5  1  0  0  0  0
 18 25  1  0  0  0  0
 18 21  1  0  0  0  0
 19 35  1  0  0  0  0
 20 15  1  0  0  0  0
 20  1  1  0  0  0  0
 21 35  1  0  0  0  0
 21  6  1  0  0  0  0
 22  4  1  0  0  0  0
 24 16  1  0  0  0  0
 24  7  1  0  0  0  0
 26 19  1  0  0  0  0
 27  1  2  0  0  0  0
 27 38  1  0  0  0  0
 28 22  1  0  0  0  0
 28  5  1  0  0  0  0
 29 27  1  0  0  0  0
 30 10  1  0  0  0  0
 31 32  1  0  0  0  0
 32 23  1  0  0  0  0
 33 24  1  0  0  0  0
 33  8  1  0  0  0  0
 34 10  1  0  0  0  0
 35 31  1  0  0  0  0
 36 46  2  0  0  0  0
 37 45  1  0  0  0  0
 38 40  2  0  0  0  0
 39 38  1  0  0  0  0
 39 36  1  0  0  0  0
 40 41  1  0  0  0  0
 41 42  1  0  0  0  0
 43 36  1  0  0  0  0
 44 45  1  0  0  0  0
 44 43  1  0  0  0  0
 45 39  1  0  0  0  0
 46 47  1  0  0  0  0
 46 41  1  0  0  0  0
 48 49  1  0  0  0  0
 49 44  1  0  0  0  0
M  END
>  <MODEL>
2

>  <REMARK>
 VINA RESULT:      -9.3      2.852      3.688
  Name = 
  2 active torsions:
  status: ('A' for Active; 'I' for Inactive)
    1  A    between atoms: C_10  and  C_37
    2  A    between atoms: O_27  and  C_43
                            x       y       z     vdW  Elec       q    Type
                         _______ _______ _______ _____ _____    ______ ____

>  <TORSDO>
F 2

$$$$
=
 OpenBabel11062418193D

 49 57  0  0  1  0  0  0  0  0999 V2000
  192.2150  172.4700  139.9580 N   0  0  0  0  0  0  0  0  0  0  0  0
  187.7960  176.9130  146.7830 C   0  0  2  0  0  3  0  0  0  0  0  0
  186.5360  177.2840  147.5790 C   0  0  2  0  0  3  0  0  0  0  0  0
  192.3130  173.9980  143.4960 C   0  0  1  0  0  3  0  0  0  0  0  0
  191.1040  174.5710  140.8220 C   0  0  2  0  0  3  0  0  0  0  0  0
  191.3000  176.1000  144.2230 O   0  0  0  0  0  0  0  0  0  0  0  0
  185.4040  176.6760  147.0410 O   0  0  0  0  0  0  0  0  0  0  0  0
  186.2860  178.7630  147.5280 C   0  0  0  0  0  2  0  0  0  0  0  0
  187.5620  176.6430  145.2680 C   0  0  1  0  0  3  0  0  0  0  0  0
  193.6980  171.5740  143.9260 N   0  0  0  0  0  2  0  0  0  0  0  0
  186.7390  177.7340  144.5890 C   0  0  0  0  0  2  0  0  0  0  0  0
  192.2470  173.2990  144.8790 C   0  0  2  0  0  3  0  0  0  0  0  0
  190.4590  177.5540  145.8360 C   0  0  0  0  0  1  0  0  0  0  0  0
  189.3730  173.5290  139.3540 C   0  0  0  0  0  2  0  0  0  0  0  0
  192.2460  172.9340  142.3760 C   0  0  1  0  0  3  0  0  0  0  0  0
  185.2400  177.5130  144.7870 C   0  0  0  0  0  2  0  0  0  0  0  0
  189.7360  173.9090  140.7830 C   0  0  0  0  0  2  0  0  0  0  0  0
  188.8100  176.3620  144.3960 C   0  0  1  0  0  3  0  0  0  0  0  0
  188.9350  174.7420  146.6850 O   0  0  0  0  0  0  0  0  0  0  0  0
  192.2320  173.5410  140.9670 C   0  0  1  0  0  3  0  0  0  0  0  0
  190.1960  176.2320  145.1160 C   0  0  1  0  0  0  0  0  0  0  0  0
  191.1670  175.0210  143.3280 C   0  0  1  0  0  3  0  0  0  0  0  0
  193.2140  173.9140  145.8880 C   0  0  0  0  0  2  0  0  0  0  0  0
  184.8190  177.6780  146.2490 C   0  0  2  0  0  3  0  0  0  0  0  0
  188.5190  175.2460  143.6090 O   0  0  0  0  0  1  0  0  0  0  0  0
  188.5270  175.7890  147.5310 C   0  0  0  0  0  2  0  0  0  0  0  0
  191.5050  172.3620  138.8690 C   0  0  0  0  0  0  0  0  0  0  0  0
  191.1850  175.6220  141.9200 C   0  0  0  0  0  2  0  0  0  0  0  0
  190.5220  173.3010  138.5390 O   0  0  0  0  0  0  0  0  0  0  0  0
  192.5450  171.7990  144.7950 C   0  0  0  0  0  2  0  0  0  0  0  0
  191.3390  175.0480  147.1770 C   0  0  0  0  0  2  0  0  0  0  0  0
  192.7060  175.2070  146.5130 C   0  0  0  0  0  2  0  0  0  0  0  0
  185.1630  178.9580  146.7230 O   0  0  0  0  0  0  0  0  0  0  0  0
  193.3730  171.8950  142.5290 C   0  0  0  0  0  2  0  0  0  0  0  0
  190.1990  175.0590  146.1400 C   0  0  1  0  0  3  0  0  0  0  0  0
  193.1210  169.9890  136.2540 C   0  0  0  0  0  0  0  0  0  0  0  0
  195.3650  171.6670  138.1490 C   0  0  0  0  0  1  0  0  0  0  0  0
  191.7370  171.2240  137.9500 C   0  0  0  0  0  0  0  0  0  0  0  0
  193.1360  170.7650  137.5480 C   0  0  2  0  0  3  0  0  0  0  0  0
  190.6760  170.5020  137.5610 C   0  0  0  0  0  3  0  0  0  0  0  0
  190.8240  169.2430  136.7530 C   0  0  2  0  0  3  0  0  0  0  0  0
  190.9700  168.1670  137.6100 F   0  0  0  0  0  0  0  0  0  0  0  0
  194.5050  170.3220  135.1740 S   0  0  0  0  0  0  0  0  0  0  0  0
  194.4170  172.0120  135.8250 C   0  0  1  0  0  3  0  0  0  0  0  0
  194.1100  171.9250  137.3270 C   0  0  2  0  0  3  0  0  0  0  0  0
  192.0220  169.3220  135.8490 C   0  0  0  0  0  0  0  0  0  0  0  0
  191.9580  168.6520  134.5140 C   0  0  0  0  0  1  0  0  0  0  0  0
  196.1990  172.0110  134.5160 C   0  0  0  0  0  1  0  0  0  0  0  0
  195.6050  172.7030  135.5710 O   0  0  0  0  0  0  0  0  0  0  0  0
  1 20  1  0  0  0  0
  2 26  1  1  0  0  0
  2  3  1  0  0  0  0
  3  8  1  6  0  0  0
  4 12  1  0  0  0  0
  5 20  1  0  0  0  0
  5 28  1  0  0  0  0
  6 21  1  0  0  0  0
  7  3  1  0  0  0  0
  9  2  1  0  0  0  0
 10 30  1  0  0  0  0
 11 16  1  0  0  0  0
 11  9  1  0  0  0  0
 12 23  1  0  0  0  0
 14 17  1  0  0  0  0
 15 34  1  0  0  0  0
 15  4  1  0  0  0  0
 16 24  1  0  0  0  0
 17  5  1  0  0  0  0
 18 21  1  0  0  0  0
 18  9  1  0  0  0  0
 19 26  1  0  0  0  0
 20 15  1  0  0  0  0
 21 13  1  0  0  0  0
 21 35  1  0  0  0  0
 22  4  1  0  0  0  0
 22  6  1  0  0  0  0
 23 32  1  0  0  0  0
 24 33  1  0  0  0  0
 24  7  1  0  0  0  0
 25 18  1  0  0  0  0
 27  1  2  0  0  0  0
 28 22  1  0  0  0  0
 29 27  1  0  0  0  0
 29 14  1  0  0  0  0
 30 12  1  0  0  0  0
 32 31  1  0  0  0  0
 33  8  1  0  0  0  0
 34 10  1  0  0  0  0
 35 19  1  0  0  0  0
 35 31  1  0  0  0  0
 36 39  1  0  0  0  0
 38 27  1  0  0  0  0
 39 38  1  0  0  0  0
 40 38  2  0  0  0  0
 41 40  1  0  0  0  0
 41 42  1  0  0  0  0
 43 44  1  0  0  0  0
 43 36  1  0  0  0  0
 44 45  1  0  0  0  0
 45 39  1  0  0  0  0
 45 37  1  0  0  0  0
 46 36  2  0  0  0  0
 46 41  1  0  0  0  0
 47 46  1  0  0  0  0
 48 49  1  0  0  0  0
 49 44  1  0  0  0  0
M  END
>  <MODEL>
3

>  <REMARK>
 VINA RESULT:      -9.0      4.090     10.381
  Name = 
  2 active torsions:
  status: ('A' for Active; 'I' for Inactive)
    1  A    between atoms: C_10  and  C_37
    2  A    between atoms: O_27  and  C_43
                            x       y       z     vdW  Elec       q    Type
                         _______ _______ _______ _____ _____    ______ ____

>  <TORSDO>
F 2

$$$$
=
 OpenBabel11062418193D

 49 57  0  0  1  0  0  0  0  0999 V2000
  188.9590  176.1960  143.9680 N   0  0  0  0  0  0  0  0  0  0  0  0
  195.8300  169.9870  143.6710 C   0  0  2  0  0  3  0  0  0  0  0  0
  196.5550  168.7280  144.1700 C   0  0  2  0  0  3  0  0  0  0  0  0
  191.5980  174.3030  141.8910 C   0  0  1  0  0  3  0  0  0  0  0  0
  191.3130  175.5270  144.6040 C   0  0  2  0  0  3  0  0  0  0  0  0
  193.8990  173.7930  142.5420 O   0  0  0  0  0  0  0  0  0  0  0  0
  195.8950  168.1660  145.2610 O   0  0  0  0  0  0  0  0  0  0  0  0
  197.9410  169.0590  144.6400 C   0  0  0  0  0  2  0  0  0  0  0  0
  195.0750  170.7910  144.7690 C   0  0  1  0  0  3  0  0  0  0  0  0
  189.3650  174.1620  140.1670 N   0  0  0  0  0  2  0  0  0  0  0  0
  195.9290  171.0570  146.0050 C   0  0  0  0  0  2  0  0  0  0  0  0
  191.4270  173.0910  140.9390 C   0  0  2  0  0  3  0  0  0  0  0  0
  195.8830  172.5840  142.3880 C   0  0  0  0  0  1  0  0  0  0  0  0
  189.9770  175.0760  146.6650 C   0  0  0  0  0  2  0  0  0  0  0  0
  190.2240  174.6990  142.4780 C   0  0  1  0  0  3  0  0  0  0  0  0
  195.9150  169.8690  146.9660 C   0  0  0  0  0  2  0  0  0  0  0  0
  190.7940  174.4510  145.5430 C   0  0  0  0  0  2  0  0  0  0  0  0
  194.4090  172.1220  144.3440 C   0  0  1  0  0  3  0  0  0  0  0  0
  193.6720  170.1260  142.5120 O   0  0  0  0  0  0  0  0  0  0  0  0
  190.3070  175.8470  143.4910 C   0  0  1  0  0  3  0  0  0  0  0  0
  194.4210  172.4960  142.8210 C   0  0  1  0  0  0  0  0  0  0  0  0
  192.5930  173.9850  143.0320 C   0  0  1  0  0  3  0  0  0  0  0  0
  192.2700  173.2230  139.6720 C   0  0  0  0  0  2  0  0  0  0  0  0
  196.6080  168.6390  146.3750 C   0  0  2  0  0  3  0  0  0  0  0  0
  193.1180  172.1250  144.8760 O   0  0  0  0  0  1  0  0  0  0  0  0
  194.9760  169.6020  142.4540 C   0  0  0  0  0  2  0  0  0  0  0  0
  188.5420  176.4460  145.1790 C   0  0  0  0  0  0  0  0  0  0  0  0
  192.6680  175.1520  144.0200 C   0  0  0  0  0  2  0  0  0  0  0  0
  189.3880  176.3190  146.2860 O   0  0  0  0  0  0  0  0  0  0  0  0
  189.9700  172.8780  140.5140 C   0  0  0  0  0  2  0  0  0  0  0  0
  193.9290  171.4610  140.4460 C   0  0  0  0  0  2  0  0  0  0  0  0
  193.7360  172.8630  139.8720 C   0  0  0  0  0  2  0  0  0  0  0  0
  197.9400  168.9370  146.0300 O   0  0  0  0  0  0  0  0  0  0  0  0
  189.2120  175.0100  141.3580 C   0  0  0  0  0  2  0  0  0  0  0  0
  193.6760  171.4290  141.9660 C   0  0  1  0  0  3  0  0  0  0  0  0
  184.9300  177.7350  144.5720 C   0  0  0  0  0  0  0  0  0  0  0  0
  186.2300  176.0290  141.9570 C   0  0  0  0  0  1  0  0  0  0  0  0
  187.1420  176.8750  145.3990 C   0  0  0  0  0  0  0  0  0  0  0  0
  186.0750  176.7890  144.3110 C   0  0  2  0  0  3  0  0  0  0  0  0
  186.7820  177.2390  146.6380 C   0  0  0  0  0  3  0  0  0  0  0  0
  185.3540  177.5460  146.9940 C   0  0  2  0  0  3  0  0  0  0  0  0
  184.7210  176.3800  147.3840 F   0  0  0  0  0  0  0  0  0  0  0  0
  184.2770  178.5280  143.1110 S   0  0  0  0  0  0  0  0  0  0  0  0
  185.9850  178.4900  142.5050 C   0  0  1  0  0  3  0  0  0  0  0  0
  186.6030  177.1470  142.9200 C   0  0  2  0  0  3  0  0  0  0  0  0
  184.6240  178.1390  145.8210 C   0  0  0  0  0  0  0  0  0  0  0  0
  183.5710  179.1680  146.0780 C   0  0  0  0  0  1  0  0  0  0  0  0
  184.7040  178.5150  140.7020 C   0  0  0  0  0  1  0  0  0  0  0  0
  186.0240  178.6810  141.1210 O   0  0  0  0  0  0  0  0  0  0  0  0
  1 27  2  0  0  0  0
  2 26  1  6  0  0  0
  2  3  1  0  0  0  0
  2  9  1  0  0  0  0
  3  8  1  1  0  0  0
  3  7  1  0  0  0  0
  4 15  1  0  0  0  0
  4 22  1  0  0  0  0
  5 17  1  0  0  0  0
  6 21  1  0  0  0  0
  6 22  1  0  0  0  0
  7 24  1  0  0  0  0
  8 33  1  0  0  0  0
  9 11  1  0  0  0  0
 10 30  1  0  0  0  0
 10 34  1  0  0  0  0
 11 16  1  0  0  0  0
 12  4  1  0  0  0  0
 13 21  1  0  0  0  0
 15 20  1  0  0  0  0
 17 14  1  0  0  0  0
 18  9  1  0  0  0  0
 18 25  1  0  0  0  0
 20  1  1  0  0  0  0
 20  5  1  0  0  0  0
 21 18  1  0  0  0  0
 22 28  1  0  0  0  0
 23 32  1  0  0  0  0
 23 12  1  0  0  0  0
 24 16  1  0  0  0  0
 26 19  1  0  0  0  0
 27 38  1  0  0  0  0
 27 29  1  0  0  0  0
 28  5  1  0  0  0  0
 29 14  1  0  0  0  0
 30 12  1  0  0  0  0
 31 35  1  0  0  0  0
 32 31  1  0  0  0  0
 33 24  1  0  0  0  0
 34 15  1  0  0  0  0
 35 19  1  0  0  0  0
 35 21  1  0  0  0  0
 36 46  2  0  0  0  0
 37 45  1  0  0  0  0
 38 40  2  0  0  0  0
 39 36  1  0  0  0  0
 39 38  1  0  0  0  0
 40 41  1  0  0  0  0
 41 42  1  0  0  0  0
 43 36  1  0  0  0  0
 44 45  1  0  0  0  0
 44 43  1  0  0  0  0
 45 39  1  0  0  0  0
 46 47  1  0  0  0  0
 46 41  1  0  0  0  0
 48 49  1  0  0  0  0
 49 44  1  0  0  0  0
M  END
>  <MODEL>
4

>  <REMARK>
 VINA RESULT:      -8.3      2.572      4.676
  Name = 
  2 active torsions:
  status: ('A' for Active; 'I' for Inactive)
    1  A    between atoms: C_10  and  C_37
    2  A    between atoms: O_27  and  C_43
                            x       y       z     vdW  Elec       q    Type
                         _______ _______ _______ _____ _____    ______ ____

>  <TORSDO>
F 2

$$$$
=
 OpenBabel11062418193D

 49 57  0  0  1  0  0  0  0  0999 V2000
  191.8930  172.7930  139.9670 N   0  0  0  0  0  0  0  0  0  0  0  0
  187.4490  176.9970  146.9260 C   0  0  2  0  0  3  0  0  0  0  0  0
  186.1860  177.3380  147.7320 C   0  0  2  0  0  3  0  0  0  0  0  0
  191.9800  174.2040  143.5530 C   0  0  1  0  0  3  0  0  0  0  0  0
  190.7740  174.8610  140.8970 C   0  0  2  0  0  3  0  0  0  0  0  0
  190.9590  176.2790  144.3470 O   0  0  0  0  0  0  0  0  0  0  0  0
  185.0570  176.7440  147.1720 O   0  0  0  0  0  0  0  0  0  0  0  0
  185.9320  178.8170  147.7280 C   0  0  0  0  0  2  0  0  0  0  0  0
  187.2180  176.7760  145.4030 C   0  0  1  0  0  3  0  0  0  0  0  0
  193.3720  171.7720  143.9050 N   0  0  0  0  0  2  0  0  0  0  0  0
  186.3930  177.8860  144.7580 C   0  0  0  0  0  2  0  0  0  0  0  0
  191.9140  173.4610  144.9120 C   0  0  2  0  0  3  0  0  0  0  0  0
  190.1110  177.6760  146.0050 C   0  0  0  0  0  1  0  0  0  0  0  0
  189.0480  173.8620  139.3930 C   0  0  0  0  0  2  0  0  0  0  0  0
  191.9180  173.1780  142.3980 C   0  0  1  0  0  3  0  0  0  0  0  0
  184.8940  177.6540  144.9460 C   0  0  0  0  0  2  0  0  0  0  0  0
  189.4080  174.1960  140.8340 C   0  0  0  0  0  2  0  0  0  0  0  0
  188.4680  176.5280  144.5230 C   0  0  1  0  0  3  0  0  0  0  0  0
  188.5950  174.8340  146.7590 O   0  0  0  0  0  0  0  0  0  0  0  0
  191.9040  173.8300  141.0100 C   0  0  1  0  0  3  0  0  0  0  0  0
  189.8540  176.3780  145.2420 C   0  0  1  0  0  0  0  0  0  0  0  0
  190.8310  175.2300  143.4160 C   0  0  1  0  0  3  0  0  0  0  0  0
  192.8770  174.0450  145.9420 C   0  0  0  0  0  2  0  0  0  0  0  0
  184.4700  177.7700  146.4120 C   0  0  2  0  0  3  0  0  0  0  0  0
  188.1820  175.4370  143.7000 O   0  0  0  0  0  1  0  0  0  0  0  0
  188.1820  175.8510  147.6380 C   0  0  0  0  0  2  0  0  0  0  0  0
  191.1840  172.7190  138.8730 C   0  0  0  0  0  0  0  0  0  0  0  0
  190.8490  175.8760  142.0280 C   0  0  0  0  0  2  0  0  0  0  0  0
  190.1980  173.6650  138.5730 O   0  0  0  0  0  0  0  0  0  0  0  0
  192.2170  171.9650  144.7800 C   0  0  0  0  0  2  0  0  0  0  0  0
  190.9970  175.1310  147.2640 C   0  0  0  0  0  2  0  0  0  0  0  0
  192.3650  175.3160  146.6080 C   0  0  0  0  0  2  0  0  0  0  0  0
  184.8100  179.0350  146.9280 O   0  0  0  0  0  0  0  0  0  0  0  0
  193.0480  172.1380  142.5190 C   0  0  0  0  0  2  0  0  0  0  0  0
  189.8590  175.1720  146.2270 C   0  0  1  0  0  3  0  0  0  0  0  0
  192.3360  169.3440  137.3340 C   0  0  0  0  0  0  0  0  0  0  0  0
  191.6350  169.1720  140.6390 C   0  0  0  0  0  1  0  0  0  0  0  0
  191.4220  171.6110  137.9190 C   0  0  0  0  0  0  0  0  0  0  0  0
  191.6040  170.1640  138.3670 C   0  0  2  0  0  3  0  0  0  0  0  0
  191.3510  171.8840  136.6080 C   0  0  0  0  0  3  0  0  0  0  0  0
  191.4280  170.8030  135.5650 C   0  0  2  0  0  3  0  0  0  0  0  0
  190.1570  170.3210  135.3140 F   0  0  0  0  0  0  0  0  0  0  0  0
  193.5000  168.1680  138.0100 S   0  0  0  0  0  0  0  0  0  0  0  0
  193.7750  169.4070  139.3050 C   0  0  1  0  0  3  0  0  0  0  0  0
  192.4180  170.0330  139.6570 C   0  0  2  0  0  3  0  0  0  0  0  0
  192.3050  169.6730  136.0270 C   0  0  0  0  0  0  0  0  0  0  0  0
  193.1230  168.9400  135.0140 C   0  0  0  0  0  1  0  0  0  0  0  0
  195.3590  169.7580  140.8080 C   0  0  0  0  0  1  0  0  0  0  0  0
  194.3930  168.8310  140.4180 O   0  0  0  0  0  0  0  0  0  0  0  0
  1 20  1  0  0  0  0
  2 26  1  1  0  0  0
  2  3  1  0  0  0  0
  3  8  1  6  0  0  0
  4 12  1  0  0  0  0
  5 20  1  0  0  0  0
  5 28  1  0  0  0  0
  6 21  1  0  0  0  0
  7  3  1  0  0  0  0
  9  2  1  0  0  0  0
 10 30  1  0  0  0  0
 11 16  1  0  0  0  0
 11  9  1  0  0  0  0
 12 23  1  0  0  0  0
 14 17  1  0  0  0  0
 15 34  1  0  0  0  0
 15  4  1  0  0  0  0
 16 24  1  0  0  0  0
 17  5  1  0  0  0  0
 18 21  1  0  0  0  0
 18  9  1  0  0  0  0
 19 26  1  0  0  0  0
 20 15  1  0  0  0  0
 21 13  1  0  0  0  0
 21 35  1  0  0  0  0
 22  4  1  0  0  0  0
 22  6  1  0  0  0  0
 23 32  1  0  0  0  0
 24 33  1  0  0  0  0
 24  7  1  0  0  0  0
 25 18  1  0  0  0  0
 27  1  2  0  0  0  0
 28 22  1  0  0  0  0
 29 27  1  0  0  0  0
 29 14  1  0  0  0  0
 30 12  1  0  0  0  0
 32 31  1  0  0  0  0
 33  8  1  0  0  0  0
 34 10  1  0  0  0  0
 35 19  1  0  0  0  0
 35 31  1  0  0  0  0
 36 43  1  0  0  0  0
 36 39  1  0  0  0  0
 38 39  1  0  0  0  0
 38 27  1  0  0  0  0
 39 45  1  0  0  0  0
 40 38  2  0  0  0  0
 41 46  1  0  0  0  0
 41 40  1  0  0  0  0
 42 41  1  0  0  0  0
 43 44  1  0  0  0  0
 44 45  1  0  0  0  0
 44 49  1  0  0  0  0
 45 37  1  0  0  0  0
 46 36  2  0  0  0  0
 47 46  1  0  0  0  0
 49 48  1  0  0  0  0
M  END
>  <MODEL>
5

>  <REMARK>
 VINA RESULT:      -8.2      3.767     10.139
  Name = 
  2 active torsions:
  status: ('A' for Active; 'I' for Inactive)
    1  A    between atoms: C_10  and  C_37
    2  A    between atoms: O_27  and  C_43
                            x       y       z     vdW  Elec       q    Type
                         _______ _______ _______ _____ _____    ______ ____

>  <TORSDO>
F 2

$$$$
=
 OpenBabel11062418193D

 49 57  0  0  1  0  0  0  0  0999 V2000
  194.7840  172.7500  140.8250 N   0  0  0  0  0  0  0  0  0  0  0  0
  187.9310  177.0430  145.3500 C   0  0  2  0  0  3  0  0  0  0  0  0
  186.4490  177.2810  145.6750 C   0  0  2  0  0  3  0  0  0  0  0  0
  193.5740  174.5910  143.9890 C   0  0  1  0  0  3  0  0  0  0  0  0
  193.2090  174.7180  141.0250 C   0  0  2  0  0  3  0  0  0  0  0  0
  192.1350  176.5640  144.0880 O   0  0  0  0  0  0  0  0  0  0  0  0
  185.6270  176.4550  144.9110 O   0  0  0  0  0  0  0  0  0  0  0  0
  186.0500  178.6910  145.3510 C   0  0  0  0  0  2  0  0  0  0  0  0
  188.2220  176.6020  143.8850 C   0  0  1  0  0  3  0  0  0  0  0  0
  195.0380  172.4660  145.1380 N   0  0  0  0  0  2  0  0  0  0  0  0
  187.5280  177.4830  142.8500 C   0  0  0  0  0  2  0  0  0  0  0  0
  193.1610  174.0200  145.3710 C   0  0  2  0  0  3  0  0  0  0  0  0
  190.6580  178.0080  145.1630 C   0  0  0  0  0  1  0  0  0  0  0  0
  192.1690  173.2870  139.2620 C   0  0  0  0  0  2  0  0  0  0  0  0
  193.9940  173.4320  143.0550 C   0  0  1  0  0  3  0  0  0  0  0  0
  186.0810  177.0460  142.6190 C   0  0  0  0  0  2  0  0  0  0  0  0
  192.0150  173.8480  140.6690 C   0  0  0  0  0  2  0  0  0  0  0  0
  189.7050  176.4440  143.4720 C   0  0  1  0  0  3  0  0  0  0  0  0
  189.2990  175.0800  145.8920 O   0  0  0  0  0  0  0  0  0  0  0  0
  194.3510  173.8970  141.6380 C   0  0  1  0  0  3  0  0  0  0  0  0
  190.7990  176.6010  144.5840 C   0  0  1  0  0  0  0  0  0  0  0  0
  192.4230  175.4010  143.3490 C   0  0  1  0  0  3  0  0  0  0  0  0
  193.6780  174.8690  146.5290 C   0  0  0  0  0  2  0  0  0  0  0  0
  185.2040  177.2760  143.8520 C   0  0  2  0  0  3  0  0  0  0  0  0
  189.8160  175.2280  142.7930 O   0  0  0  0  0  1  0  0  0  0  0  0
  188.5210  176.1220  146.4270 C   0  0  0  0  0  2  0  0  0  0  0  0
  194.4720  172.4320  139.5990 C   0  0  0  0  0  0  0  0  0  0  0  0
  192.8110  175.8650  141.9420 C   0  0  0  0  0  2  0  0  0  0  0  0
  193.5350  173.1700  138.8660 O   0  0  0  0  0  0  0  0  0  0  0  0
  193.6520  172.5840  145.5840 C   0  0  0  0  0  2  0  0  0  0  0  0
  191.3700  175.8060  147.0320 C   0  0  0  0  0  2  0  0  0  0  0  0
  192.8460  176.1180  146.7920 C   0  0  0  0  0  2  0  0  0  0  0  0
  185.2230  178.6320  144.2280 O   0  0  0  0  0  0  0  0  0  0  0  0
  195.1340  172.6030  143.6780 C   0  0  0  0  0  2  0  0  0  0  0  0
  190.6220  175.5410  145.7120 C   0  0  1  0  0  3  0  0  0  0  0  0
  196.3770  169.0920  139.0560 C   0  0  0  0  0  0  0  0  0  0  0  0
  194.6080  169.2050  141.9370 C   0  0  0  0  0  1  0  0  0  0  0  0
  195.1190  171.2660  138.9550 C   0  0  0  0  0  0  0  0  0  0  0  0
  195.2660  169.9180  139.6560 C   0  0  2  0  0  3  0  0  0  0  0  0
  195.4760  171.3740  137.6670 C   0  0  0  0  0  3  0  0  0  0  0  0
  196.0010  170.2020  136.8860 C   0  0  2  0  0  3  0  0  0  0  0  0
  194.9400  169.5260  136.3120 F   0  0  0  0  0  0  0  0  0  0  0  0
  197.3400  168.1700  140.2450 S   0  0  0  0  0  0  0  0  0  0  0  0
  197.0450  169.5750  141.3530 C   0  0  1  0  0  3  0  0  0  0  0  0
  195.5990  170.0460  141.1440 C   0  0  2  0  0  3  0  0  0  0  0  0
  196.7640  169.2620  137.7760 C   0  0  0  0  0  0  0  0  0  0  0  0
  197.9410  168.5360  137.2090 C   0  0  0  0  0  1  0  0  0  0  0  0
  197.8360  170.3670  143.2610 C   0  0  0  0  0  1  0  0  0  0  0  0
  197.2950  169.2190  142.6810 O   0  0  0  0  0  0  0  0  0  0  0  0
  1 20  1  0  0  0  0
  2  3  1  0  0  0  0
  2 26  1  1  0  0  0
  3  8  1  6  0  0  0
  4 12  1  0  0  0  0
  5 20  1  0  0  0  0
  5 28  1  0  0  0  0
  6 21  1  0  0  0  0
  7  3  1  0  0  0  0
  9  2  1  0  0  0  0
 10 30  1  0  0  0  0
 11  9  1  0  0  0  0
 12 30  1  0  0  0  0
 12 23  1  0  0  0  0
 14 17  1  0  0  0  0
 15 34  1  0  0  0  0
 15  4  1  0  0  0  0
 16 11  1  0  0  0  0
 16 24  1  0  0  0  0
 17  5  1  0  0  0  0
 18  9  1  0  0  0  0
 18 21  1  0  0  0  0
 19 26  1  0  0  0  0
 20 15  1  0  0  0  0
 21 13  1  0  0  0  0
 21 35  1  0  0  0  0
 22  4  1  0  0  0  0
 22  6  1  0  0  0  0
 23 32  1  0  0  0  0
 24 33  1  0  0  0  0
 24  7  1  0  0  0  0
 25 18  1  0  0  0  0
 27  1  2  0  0  0  0
 28 22  1  0  0  0  0
 29 14  1  0  0  0  0
 29 27  1  0  0  0  0
 32 31  1  0  0  0  0
 33  8  1  0  0  0  0
 34 10  1  0  0  0  0
 35 19  1  0  0  0  0
 35 31  1  0  0  0  0
 36 39  1  0  0  0  0
 36 43  1  0  0  0  0
 38 27  1  0  0  0  0
 38 39  1  0  0  0  0
 39 45  1  0  0  0  0
 40 38  2  0  0  0  0
 41 40  1  0  0  0  0
 41 46  1  0  0  0  0
 42 41  1  0  0  0  0
 43 44  1  0  0  0  0
 44 49  1  0  0  0  0
 45 44  1  0  0  0  0
 45 37  1  0  0  0  0
 46 36  2  0  0  0  0
 47 46  1  0  0  0  0
 49 48  1  0  0  0  0
M  END
>  <MODEL>
6

>  <REMARK>
 VINA RESULT:      -8.0      3.829     10.346
  Name = 
  2 active torsions:
  status: ('A' for Active; 'I' for Inactive)
    1  A    between atoms: C_10  and  C_37
    2  A    between atoms: O_27  and  C_43
                            x       y       z     vdW  Elec       q    Type
                         _______ _______ _______ _____ _____    ______ ____

>  <TORSDO>
F 2

$$$$
=
 OpenBabel11062418193D

 49 57  0  0  1  0  0  0  0  0999 V2000
  188.8210  174.4240  143.1840 N   0  0  0  0  0  0  0  0  0  0  0  0
  195.3310  170.6610  137.7700 C   0  0  2  0  0  3  0  0  0  0  0  0
  196.2410  170.6540  136.5320 C   0  0  2  0  0  3  0  0  0  0  0  0
  191.9450  172.1900  142.8600 C   0  0  1  0  0  3  0  0  0  0  0  0
  189.4490  172.8140  141.3380 C   0  0  2  0  0  3  0  0  0  0  0  0
  192.4240  170.5710  141.0920 O   0  0  0  0  0  0  0  0  0  0  0  0
  196.0210  171.7780  135.7400 O   0  0  0  0  0  0  0  0  0  0  0  0
  195.9560  169.4620  135.6650 C   0  0  0  0  0  2  0  0  0  0  0  0
  193.9530  171.3570  137.5700 C   0  0  1  0  0  3  0  0  0  0  0  0
  192.5860  173.6640  145.1830 N   0  0  0  0  0  2  0  0  0  0  0  0
  193.2280  170.8900  136.3110 C   0  0  0  0  0  2  0  0  0  0  0  0
  193.4260  172.5020  143.2000 C   0  0  2  0  0  3  0  0  0  0  0  0
  193.8540  169.2430  139.8210 C   0  0  0  0  0  1  0  0  0  0  0  0
  188.5090  174.7860  140.1290 C   0  0  0  0  0  2  0  0  0  0  0  0
  191.0700  173.4230  143.1810 C   0  0  1  0  0  3  0  0  0  0  0  0
  193.7090  171.6460  135.0730 C   0  0  0  0  0  2  0  0  0  0  0  0
  189.7610  173.9620  140.3920 C   0  0  0  0  0  2  0  0  0  0  0  0
  192.9540  171.3080  138.7520 C   0  0  1  0  0  3  0  0  0  0  0  0
  195.4530  172.1380  139.7250 O   0  0  0  0  0  0  0  0  0  0  0  0
  189.5960  173.2310  142.8080 C   0  0  1  0  0  3  0  0  0  0  0  0
  193.4470  170.6880  140.1050 C   0  0  1  0  0  0  0  0  0  0  0  0
  191.7810  171.7910  141.3750 C   0  0  1  0  0  3  0  0  0  0  0  0
  194.1290  171.3260  143.8740 C   0  0  0  0  0  2  0  0  0  0  0  0
  195.1630  171.3210  134.7250 C   0  0  2  0  0  3  0  0  0  0  0  0
  192.4490  172.5990  138.9180 O   0  0  0  0  0  1  0  0  0  0  0  0
  196.1450  171.1770  138.9650 C   0  0  0  0  0  2  0  0  0  0  0  0
  187.9040  175.0680  142.5160 C   0  0  0  0  0  0  0  0  0  0  0  0
  190.3020  171.5910  141.0330 C   0  0  0  0  0  2  0  0  0  0  0  0
  187.5720  174.7170  141.2030 O   0  0  0  0  0  0  0  0  0  0  0  0
  193.5760  173.7240  144.1100 C   0  0  0  0  0  2  0  0  0  0  0  0
  195.4740  170.7760  141.7890 C   0  0  0  0  0  2  0  0  0  0  0  0
  194.5760  170.2400  142.9020 C   0  0  0  0  0  2  0  0  0  0  0  0
  195.3260  169.9380  134.5150 O   0  0  0  0  0  0  0  0  0  0  0  0
  191.2270  173.8460  144.6540 C   0  0  0  0  0  2  0  0  0  0  0  0
  194.6570  171.4770  140.6870 C   0  0  1  0  0  3  0  0  0  0  0  0
  186.8090  177.7900  145.0590 C   0  0  0  0  0  0  0  0  0  0  0  0
  190.0960  177.0080  145.2230 C   0  0  0  0  0  1  0  0  0  0  0  0
  187.1890  176.1980  143.1520 C   0  0  0  0  0  0  0  0  0  0  0  0
  187.8380  177.0930  144.2040 C   0  0  2  0  0  3  0  0  0  0  0  0
  185.9690  176.5110  142.6920 C   0  0  0  0  0  3  0  0  0  0  0  0
  185.2270  177.7290  143.1690 C   0  0  2  0  0  3  0  0  0  0  0  0
  185.5680  178.8090  142.3750 F   0  0  0  0  0  0  0  0  0  0  0  0
  187.2470  177.9210  146.7870 S   0  0  0  0  0  0  0  0  0  0  0  0
  188.0550  176.3140  146.5520 C   0  0  1  0  0  3  0  0  0  0  0  0
  188.7360  176.3250  145.1760 C   0  0  2  0  0  3  0  0  0  0  0  0
  185.5670  178.0390  144.6000 C   0  0  0  0  0  0  0  0  0  0  0  0
  184.5060  178.6190  145.4780 C   0  0  0  0  0  1  0  0  0  0  0  0
  189.0830  174.6700  147.6160 C   0  0  0  0  0  1  0  0  0  0  0  0
  188.9600  176.0590  147.5850 O   0  0  0  0  0  0  0  0  0  0  0  0
  2 26  1  1  0  0  0
  3  8  1  6  0  0  0
  3  2  1  0  0  0  0
  4 15  1  0  0  0  0
  4 12  1  0  0  0  0
  5 20  1  0  0  0  0
  6 22  1  0  0  0  0
  7  3  1  0  0  0  0
  9  2  1  0  0  0  0
  9 18  1  0  0  0  0
 11  9  1  0  0  0  0
 12 23  1  0  0  0  0
 12 30  1  0  0  0  0
 13 21  1  0  0  0  0
 14 17  1  0  0  0  0
 14 29  1  0  0  0  0
 15 34  1  0  0  0  0
 16 11  1  0  0  0  0
 17  5  1  0  0  0  0
 18 25  1  0  0  0  0
 18 21  1  0  0  0  0
 19 35  1  0  0  0  0
 20 15  1  0  0  0  0
 20  1  1  0  0  0  0
 21 35  1  0  0  0  0
 21  6  1  0  0  0  0
 22  4  1  0  0  0  0
 24 16  1  0  0  0  0
 24  7  1  0  0  0  0
 26 19  1  0  0  0  0
 27 38  1  0  0  0  0
 27  1  2  0  0  0  0
 28  5  1  0  0  0  0
 28 22  1  0  0  0  0
 29 27  1  0  0  0  0
 30 10  1  0  0  0  0
 31 32  1  0  0  0  0
 32 23  1  0  0  0  0
 33 24  1  0  0  0  0
 33  8  1  0  0  0  0
 34 10  1  0  0  0  0
 35 31  1  0  0  0  0
 36 43  1  0  0  0  0
 38 39  1  0  0  0  0
 39 36  1  0  0  0  0
 39 45  1  0  0  0  0
 40 38  2  0  0  0  0
 40 41  1  0  0  0  0
 41 46  1  0  0  0  0
 42 41  1  0  0  0  0
 44 43  1  0  0  0  0
 44 49  1  0  0  0  0
 45 37  1  0  0  0  0
 45 44  1  0  0  0  0
 46 36  2  0  0  0  0
 46 47  1  0  0  0  0
 49 48  1  0  0  0  0
M  END
>  <MODEL>
7

>  <REMARK>
 VINA RESULT:      -7.9      2.133      3.045
  Name = 
  2 active torsions:
  status: ('A' for Active; 'I' for Inactive)
    1  A    between atoms: C_10  and  C_37
    2  A    between atoms: O_27  and  C_43
                            x       y       z     vdW  Elec       q    Type
                         _______ _______ _______ _____ _____    ______ ____

>  <TORSDO>
F 2

$$$$
=
 OpenBabel11062418193D

 49 57  0  0  1  0  0  0  0  0999 V2000
  190.5250  174.5960  143.3430 N   0  0  0  0  0  0  0  0  0  0  0  0
  197.1790  171.8920  137.4890 C   0  0  2  0  0  3  0  0  0  0  0  0
  197.8290  171.8230  136.0990 C   0  0  2  0  0  3  0  0  0  0  0  0
  194.2120  173.6260  142.7710 C   0  0  1  0  0  3  0  0  0  0  0  0
  191.4930  172.8240  141.8210 C   0  0  2  0  0  3  0  0  0  0  0  0
  195.0590  171.8170  141.3610 O   0  0  0  0  0  0  0  0  0  0  0  0
  197.0590  172.4910  135.1500 O   0  0  0  0  0  0  0  0  0  0  0  0
  197.9390  170.4010  135.6290 C   0  0  0  0  0  2  0  0  0  0  0  0
  195.6230  171.9570  137.4860 C   0  0  1  0  0  3  0  0  0  0  0  0
  194.5100  175.8740  144.4550 N   0  0  0  0  0  2  0  0  0  0  0  0
  194.9840  170.8990  136.5910 C   0  0  0  0  0  2  0  0  0  0  0  0
  195.4660  174.5290  142.6470 C   0  0  2  0  0  3  0  0  0  0  0  0
  196.7140  170.7550  140.1140 C   0  0  0  0  0  1  0  0  0  0  0  0
  189.6680  173.8570  140.4650 C   0  0  0  0  0  2  0  0  0  0  0  0
  192.9630  174.5050  143.0080 C   0  0  1  0  0  3  0  0  0  0  0  0
  194.9360  171.3510  135.1320 C   0  0  0  0  0  2  0  0  0  0  0  0
  191.1720  173.6530  140.5890 C   0  0  0  0  0  2  0  0  0  0  0  0
  194.9080  171.9290  138.8580 C   0  0  1  0  0  3  0  0  0  0  0  0
  196.9570  173.8450  138.9560 O   0  0  0  0  0  0  0  0  0  0  0  0
  191.6600  173.6990  143.0700 C   0  0  1  0  0  3  0  0  0  0  0  0
  195.7960  171.9760  140.1500 C   0  0  1  0  0  0  0  0  0  0  0  0
  194.0190  172.7550  141.5080 C   0  0  1  0  0  3  0  0  0  0  0  0
  196.6760  173.9480  143.3760 C   0  0  0  0  0  2  0  0  0  0  0  0
  196.3320  171.4700  134.5160 C   0  0  2  0  0  3  0  0  0  0  0  0
  193.9470  172.9410  138.8430 O   0  0  0  0  0  1  0  0  0  0  0  0
  197.8680  173.0060  138.2900 C   0  0  0  0  0  2  0  0  0  0  0  0
  189.3410  174.6330  142.7960 C   0  0  0  0  0  0  0  0  0  0  0  0
  192.7200  171.9510  141.6030 C   0  0  0  0  0  2  0  0  0  0  0  0
  189.0030  173.7990  141.7260 O   0  0  0  0  0  0  0  0  0  0  0  0
  195.2280  175.9440  143.1840 C   0  0  0  0  0  2  0  0  0  0  0  0
  197.8220  173.2910  141.2050 C   0  0  0  0  0  2  0  0  0  0  0  0
  197.3870  172.8470  142.6010 C   0  0  0  0  0  2  0  0  0  0  0  0
  197.0150  170.2410  134.5960 O   0  0  0  0  0  0  0  0  0  0  0  0
  193.1360  175.3910  144.2560 C   0  0  0  0  0  2  0  0  0  0  0  0
  196.6450  173.2790  140.2120 C   0  0  1  0  0  3  0  0  0  0  0  0
  187.5180  177.2760  144.9800 C   0  0  0  0  0  0  0  0  0  0  0  0
  190.8850  177.6020  144.9660 C   0  0  0  0  0  1  0  0  0  0  0  0
  188.3230  175.5760  143.3130 C   0  0  0  0  0  0  0  0  0  0  0  0
  188.6850  176.7970  144.1530 C   0  0  2  0  0  3  0  0  0  0  0  0
  187.0520  175.4070  142.9220 C   0  0  0  0  0  3  0  0  0  0  0  0
  185.9740  176.3950  143.2700 C   0  0  2  0  0  3  0  0  0  0  0  0
  185.9180  177.3720  142.2930 F   0  0  0  0  0  0  0  0  0  0  0  0
  187.9510  177.8350  146.6200 S   0  0  0  0  0  0  0  0  0  0  0  0
  189.2260  176.5460  146.5630 C   0  0  1  0  0  3  0  0  0  0  0  0
  189.8180  176.5300  145.1470 C   0  0  2  0  0  3  0  0  0  0  0  0
  186.2460  177.0400  144.6010 C   0  0  0  0  0  0  0  0  0  0  0  0
  185.0870  177.4030  145.4710 C   0  0  0  0  0  1  0  0  0  0  0  0
  190.7030  175.5050  147.8380 C   0  0  0  0  0  1  0  0  0  0  0  0
  190.2010  176.7710  147.5380 O   0  0  0  0  0  0  0  0  0  0  0  0
  2 26  1  6  0  0  0
  3  8  1  6  0  0  0
  3  2  1  0  0  0  0
  4 15  1  0  0  0  0
  5 20  1  0  0  0  0
  6 22  1  0  0  0  0
  7  3  1  0  0  0  0
  9  2  1  0  0  0  0
  9 18  1  0  0  0  0
 11  9  1  0  0  0  0
 12  4  1  0  0  0  0
 12 30  1  0  0  0  0
 12 23  1  0  0  0  0
 13 21  1  0  0  0  0
 14 17  1  0  0  0  0
 14 29  1  0  0  0  0
 15 20  1  0  0  0  0
 15 34  1  0  0  0  0
 16 11  1  0  0  0  0
 17  5  1  0  0  0  0
 18 21  1  0  0  0  0
 19 35  1  0  0  0  0
 20  1  1  0  0  0  0
 21 35  1  0  0  0  0
 21  6  1  0  0  0  0
 22 28  1  0  0  0  0
 22  4  1  0  0  0  0
 24 33  1  0  0  0  0
 24 16  1  0  0  0  0
 24  7  1  0  0  0  0
 25 18  1  0  0  0  0
 26 19  1  0  0  0  0
 27 38  1  0  0  0  0
 27  1  2  0  0  0  0
 28  5  1  0  0  0  0
 29 27  1  0  0  0  0
 30 10  1  0  0  0  0
 31 32  1  0  0  0  0
 32 23  1  0  0  0  0
 33  8  1  0  0  0  0
 34 10  1  0  0  0  0
 35 31  1  0  0  0  0
 36 43  1  0  0  0  0
 37 45  1  0  0  0  0
 38 39  1  0  0  0  0
 39 36  1  0  0  0  0
 39 45  1  0  0  0  0
 40 41  1  0  0  0  0
 40 38  2  0  0  0  0
 41 46  1  0  0  0  0
 42 41  1  0  0  0  0
 44 43  1  0  0  0  0
 44 49  1  0  0  0  0
 45 44  1  0  0  0  0
 46 36  2  0  0  0  0
 46 47  1  0  0  0  0
 49 48  1  0  0  0  0
M  END
>  <MODEL>
8

>  <REMARK>
 VINA RESULT:      -7.8      2.263      2.971
  Name = 
  2 active torsions:
  status: ('A' for Active; 'I' for Inactive)
    1  A    between atoms: C_10  and  C_37
    2  A    between atoms: O_27  and  C_43
                            x       y       z     vdW  Elec       q    Type
                         _______ _______ _______ _____ _____    ______ ____

>  <TORSDO>
F 2

$$$$
=
 OpenBabel11062418193D

 49 57  0  0  1  0  0  0  0  0999 V2000
  190.9280  174.0710  144.7210 N   0  0  0  0  0  0  0  0  0  0  0  0
  197.0410  173.2560  137.8060 C   0  0  2  0  0  3  0  0  0  0  0  0
  197.6470  173.6870  136.4620 C   0  0  2  0  0  3  0  0  0  0  0  0
  194.4400  173.0080  143.5400 C   0  0  1  0  0  3  0  0  0  0  0  0
  191.6200  172.9770  142.5490 C   0  0  2  0  0  3  0  0  0  0  0  0
  195.0100  171.8490  141.4650 O   0  0  0  0  0  0  0  0  0  0  0  0
  196.9540  174.7670  135.9200 O   0  0  0  0  0  0  0  0  0  0  0  0
  197.5580  172.5790  135.4540 C   0  0  0  0  0  2  0  0  0  0  0  0
  195.5090  173.4930  137.9420 C   0  0  1  0  0  3  0  0  0  0  0  0
  195.0690  174.3240  145.9590 N   0  0  0  0  0  2  0  0  0  0  0  0
  194.7160  172.9720  136.7470 C   0  0  0  0  0  2  0  0  0  0  0  0
  195.8010  173.7350  143.6990 C   0  0  2  0  0  3  0  0  0  0  0  0
  196.4830  171.2090  139.7790 C   0  0  0  0  0  1  0  0  0  0  0  0
  189.9210  174.6730  141.8590 C   0  0  0  0  0  2  0  0  0  0  0  0
  193.3240  173.8500  144.2000 C   0  0  1  0  0  3  0  0  0  0  0  0
  194.6980  173.9820  135.6000 C   0  0  0  0  0  2  0  0  0  0  0  0
  191.3860  174.2670  141.7800 C   0  0  0  0  0  2  0  0  0  0  0  0
  194.8240  172.9880  139.2360 C   0  0  1  0  0  3  0  0  0  0  0  0
  197.1120  174.4520  139.9460 O   0  0  0  0  0  0  0  0  0  0  0  0
  191.9270  173.2420  144.0280 C   0  0  1  0  0  3  0  0  0  0  0  0
  195.7360  172.4030  140.3690 C   0  0  1  0  0  0  0  0  0  0  0  0
  194.1070  172.7570  142.0510 C   0  0  1  0  0  3  0  0  0  0  0  0
  196.9370  172.7750  144.0430 C   0  0  0  0  0  2  0  0  0  0  0  0
  196.0850  174.1830  134.9840 C   0  0  2  0  0  3  0  0  0  0  0  0
  194.0060  174.0200  139.6990 O   0  0  0  0  0  1  0  0  0  0  0  0
  197.8880  173.8610  138.9340 C   0  0  0  0  0  2  0  0  0  0  0  0
  189.7480  174.4610  144.3220 C   0  0  0  0  0  0  0  0  0  0  0  0
  192.7150  172.1360  141.9090 C   0  0  0  0  0  2  0  0  0  0  0  0
  189.2800  174.1810  143.0340 O   0  0  0  0  0  0  0  0  0  0  0  0
  195.7640  174.8250  144.7750 C   0  0  0  0  0  2  0  0  0  0  0  0
  197.9410  172.9350  141.7140 C   0  0  0  0  0  2  0  0  0  0  0  0
  197.4800  172.0120  142.8400 C   0  0  0  0  0  2  0  0  0  0  0  0
  196.6000  172.9600  134.5140 O   0  0  0  0  0  0  0  0  0  0  0  0
  193.6390  174.1230  145.6830 C   0  0  0  0  0  2  0  0  0  0  0  0
  196.7520  173.4630  140.8880 C   0  0  1  0  0  3  0  0  0  0  0  0
  187.1190  176.9560  145.7180 C   0  0  0  0  0  0  0  0  0  0  0  0
  186.4370  175.8570  142.5920 C   0  0  0  0  0  1  0  0  0  0  0  0
  188.8750  175.2200  145.2470 C   0  0  0  0  0  0  0  0  0  0  0  0
  187.5470  175.8300  144.8090 C   0  0  2  0  0  3  0  0  0  0  0  0
  189.2160  175.2620  146.5430 C   0  0  0  0  0  3  0  0  0  0  0  0
  188.3200  175.8770  147.5830 C   0  0  2  0  0  3  0  0  0  0  0  0
  187.4530  174.9140  148.0640 F   0  0  0  0  0  0  0  0  0  0  0  0
  186.3630  178.3400  144.8780 S   0  0  0  0  0  0  0  0  0  0  0  0
  187.5070  177.9550  143.5250 C   0  0  1  0  0  3  0  0  0  0  0  0
  187.5950  176.4280  143.4010 C   0  0  2  0  0  3  0  0  0  0  0  0
  187.5260  177.0140  147.0020 C   0  0  0  0  0  0  0  0  0  0  0  0
  187.2090  178.1850  147.8740 C   0  0  0  0  0  1  0  0  0  0  0  0
  185.8710  179.1620  142.6540 C   0  0  0  0  0  1  0  0  0  0  0  0
  187.0860  178.5560  142.3360 O   0  0  0  0  0  0  0  0  0  0  0  0
  2  9  1  0  0  0  0
  2 26  1  1  0  0  0
  3  8  1  6  0  0  0
  3  2  1  0  0  0  0
  4 12  1  0  0  0  0
  4 15  1  0  0  0  0
  5 20  1  0  0  0  0
  6 22  1  0  0  0  0
  7  3  1  0  0  0  0
  9 18  1  0  0  0  0
 11  9  1  0  0  0  0
 12 23  1  0  0  0  0
 12 30  1  0  0  0  0
 13 21  1  0  0  0  0
 14 29  1  0  0  0  0
 15 34  1  0  0  0  0
 16 11  1  0  0  0  0
 17 14  1  0  0  0  0
 17  5  1  0  0  0  0
 18 25  1  0  0  0  0
 18 21  1  0  0  0  0
 19 35  1  0  0  0  0
 20 15  1  0  0  0  0
 20  1  1  0  0  0  0
 21 35  1  0  0  0  0
 21  6  1  0  0  0  0
 22  4  1  0  0  0  0
 24 16  1  0  0  0  0
 24  7  1  0  0  0  0
 26 19  1  0  0  0  0
 27  1  2  0  0  0  0
 27 38  1  0  0  0  0
 28 22  1  0  0  0  0
 28  5  1  0  0  0  0
 29 27  1  0  0  0  0
 30 10  1  0  0  0  0
 31 32  1  0  0  0  0
 32 23  1  0  0  0  0
 33 24  1  0  0  0  0
 33  8  1  0  0  0  0
 34 10  1  0  0  0  0
 35 31  1  0  0  0  0
 36 46  2  0  0  0  0
 37 45  1  0  0  0  0
 38 40  2  0  0  0  0
 39 38  1  0  0  0  0
 39 36  1  0  0  0  0
 40 41  1  0  0  0  0
 41 42  1  0  0  0  0
 43 36  1  0  0  0  0
 44 43  1  0  0  0  0
 45 44  1  0  0  0  0
 45 39  1  0  0  0  0
 46 41  1  0  0  0  0
 46 47  1  0  0  0  0
 49 48  1  0  0  0  0
 49 44  1  0  0  0  0
M  END
>  <MODEL>
9

>  <REMARK>
 VINA RESULT:      -7.2      2.848      3.865
  Name = 
  2 active torsions:
  status: ('A' for Active; 'I' for Inactive)
    1  A    between atoms: C_10  and  C_37
    2  A    between atoms: O_27  and  C_43
                            x       y       z     vdW  Elec       q    Type
                         _______ _______ _______ _____ _____    ______ ____

>  <TORSDO>
F 2

$$$$
