=
 OpenBabel11062422103D

 27 29  0  0  1  0  0  0  0  0999 V2000
  186.7930  176.4680  142.3620 C   0  0  0  0  0  0  0  0  0  0  0  0
  187.7590  175.5330  142.8600 N   0  0  0  0  0  2  0  0  0  0  0  0
  185.7970  177.7360  140.5480 C   0  0  0  0  0  2  0  0  0  0  0  0
  186.7950  176.8290  141.1110 N   0  0  0  0  0  0  0  0  0  0  0  0
  184.6610  177.5980  142.6530 O   0  0  0  0  0  0  0  0  0  0  0  0
  185.7980  177.0820  143.3260 C   0  0  2  0  0  3  0  0  0  0  0  0
  185.0920  178.5030  141.6610 C   0  0  0  0  0  2  0  0  0  0  0  0
  190.7850  173.6220  140.6390 C   0  0  0  0  0  0  0  0  0  0  0  0
  191.1230  174.4470  141.7130 C   0  0  0  0  0  3  0  0  0  0  0  0
  190.1200  175.0790  142.4490 C   0  0  0  0  0  3  0  0  0  0  0  0
  188.4740  174.0690  141.0480 N   0  0  0  0  0  0  0  0  0  0  0  0
  189.4320  173.4390  140.3160 C   0  0  0  0  0  0  0  0  0  0  0  0
  188.7820  174.8790  142.1000 C   0  0  0  0  0  0  0  0  0  0  0  0
  191.8140  172.9800  139.8920 N   0  0  0  0  0  1  0  0  0  0  0  0
  188.3070  173.8100  137.9930 C   0  0  0  0  0  1  0  0  0  0  0  0
  188.9380  172.3980  138.9440 S   0  0  0  0  0  0  0  0  0  0  0  0
  186.4360  178.1240  144.2700 C   0  0  2  0  0  3  0  0  0  0  0  0
  187.8260  178.1450  144.1150 O   0  0  0  0  0  1  0  0  0  0  0  0
  187.2870  178.0100  146.6710 C   0  0  0  0  0  2  0  0  0  0  0  0
  185.9490  176.4390  146.0860 C   0  0  0  0  0  2  0  0  0  0  0  0
  187.1640  176.5310  146.9930 C   0  0  1  0  0  3  0  0  0  0  0  0
  188.3240  175.7750  146.3720 C   0  0  0  0  0  1  0  0  0  0  0  0
  186.0740  177.9200  145.7580 C   0  0  2  0  0  0  0  0  0  0  0  0
  184.8710  178.7390  146.2760 C   0  0  0  0  0  0  0  0  0  0  0  0
  183.8280  177.9010  146.6320 F   0  0  0  0  0  0  0  0  0  0  0  0
  184.4240  179.6040  145.2930 F   0  0  0  0  0  0  0  0  0  0  0  0
  185.2360  179.4770  147.3880 F   0  0  0  0  0  0  0  0  0  0  0  0
  1  2  1  0  0  0  0
  1  6  1  0  0  0  0
  3  4  1  0  0  0  0
  3  7  1  0  0  0  0
  4  1  2  0  0  0  0
  5  6  1  0  0  0  0
  6 17  1  6  0  0  0
  7  5  1  0  0  0  0
  8  9  1  0  0  0  0
  9 10  2  0  0  0  0
 11 13  2  0  0  0  0
 12  8  2  0  0  0  0
 12 11  1  0  0  0  0
 13 10  1  0  0  0  0
 13  2  1  0  0  0  0
 14  8  1  0  0  0  0
 15 16  1  0  0  0  0
 16 12  1  0  0  0  0
 17 18  1  1  0  0  0
 17 23  1  0  0  0  0
 19 21  1  0  0  0  0
 20 21  1  0  0  0  0
 21 22  1  6  0  0  0
 23 20  1  0  0  0  0
 23 24  1  1  0  0  0
 23 19  1  0  0  0  0
 24 25  1  0  0  0  0
 24 27  1  0  0  0  0
 26 24  1  0  0  0  0
M  END
>  <MODEL>
1

>  <REMARK>
 VINA RESULT:      -7.4      0.000      0.000
  Name = 
  5 active torsions:
  status: ('A' for Active; 'I' for Inactive)
    1  A    between atoms: C_1  and  C_23
    2  A    between atoms: C_7  and  C_20
    3  A    between atoms: C_7  and  C_23
    4  A    between atoms: N_11  and  C_22
    5  A    between atoms: C_21  and  S_27
                            x       y       z     vdW  Elec       q    Type
                         _______ _______ _______ _____ _____    ______ ____

>  <TORSDO>
F 5

$$$$
=
 OpenBabel11062422103D

 27 29  0  0  1  0  0  0  0  0999 V2000
  187.2500  176.1930  142.3950 C   0  0  0  0  0  0  0  0  0  0  0  0
  188.0940  175.2200  143.0270 N   0  0  0  0  0  2  0  0  0  0  0  0
  186.4860  177.3890  140.4270 C   0  0  0  0  0  2  0  0  0  0  0  0
  187.3600  176.4480  141.1240 N   0  0  0  0  0  0  0  0  0  0  0  0
  185.2180  177.5240  142.4560 O   0  0  0  0  0  0  0  0  0  0  0  0
  186.2600  176.9680  143.2400 C   0  0  2  0  0  3  0  0  0  0  0  0
  185.7900  178.3040  141.4290 C   0  0  0  0  0  2  0  0  0  0  0  0
  191.0250  172.8480  141.1500 C   0  0  0  0  0  0  0  0  0  0  0  0
  189.7270  172.3600  141.3040 C   0  0  0  0  0  3  0  0  0  0  0  0
  188.7560  173.1460  141.9250 C   0  0  0  0  0  3  0  0  0  0  0  0
  190.3700  174.8770  142.2290 N   0  0  0  0  0  0  0  0  0  0  0  0
  191.3350  174.1310  141.6240 C   0  0  0  0  0  0  0  0  0  0  0  0
  189.0970  174.4190  142.3890 C   0  0  0  0  0  0  0  0  0  0  0  0
  192.0120  172.0390  140.5170 N   0  0  0  0  0  1  0  0  0  0  0  0
  192.6390  176.1530  142.6290 C   0  0  0  0  0  1  0  0  0  0  0  0
  192.9860  174.8080  141.4610 S   0  0  0  0  0  0  0  0  0  0  0  0
  186.9340  178.0240  144.1430 C   0  0  2  0  0  3  0  0  0  0  0  0
  188.3270  177.8980  144.0950 O   0  0  0  0  0  1  0  0  0  0  0  0
  187.6030  177.9770  146.6030 C   0  0  0  0  0  2  0  0  0  0  0  0
  186.0900  176.5700  146.0260 C   0  0  0  0  0  2  0  0  0  0  0  0
  187.2440  176.5600  147.0140 C   0  0  1  0  0  3  0  0  0  0  0  0
  188.3190  175.6010  146.5350 C   0  0  0  0  0  1  0  0  0  0  0  0
  186.4510  177.9890  145.6100 C   0  0  2  0  0  0  0  0  0  0  0  0
  185.3500  179.0070  145.9800 C   0  0  0  0  0  0  0  0  0  0  0  0
  184.1590  178.3570  146.2580 F   0  0  0  0  0  0  0  0  0  0  0  0
  185.1380  179.8820  144.9300 F   0  0  0  0  0  0  0  0  0  0  0  0
  185.7220  179.7320  147.0980 F   0  0  0  0  0  0  0  0  0  0  0  0
  1  2  1  0  0  0  0
  1  6  1  0  0  0  0
  3  4  1  0  0  0  0
  3  7  1  0  0  0  0
  4  1  2  0  0  0  0
  5  6  1  0  0  0  0
  6 17  1  6  0  0  0
  7  5  1  0  0  0  0
  8  9  1  0  0  0  0
  8 12  2  0  0  0  0
  9 10  2  0  0  0  0
 10 13  1  0  0  0  0
 11 13  2  0  0  0  0
 12 11  1  0  0  0  0
 13  2  1  0  0  0  0
 14  8  1  0  0  0  0
 16 12  1  0  0  0  0
 16 15  1  0  0  0  0
 17 18  1  1  0  0  0
 17 23  1  0  0  0  0
 19 21  1  0  0  0  0
 20 21  1  0  0  0  0
 21 22  1  6  0  0  0
 23 24  1  1  0  0  0
 23 20  1  0  0  0  0
 23 19  1  0  0  0  0
 24 25  1  0  0  0  0
 24 27  1  0  0  0  0
 26 24  1  0  0  0  0
M  END
>  <MODEL>
2

>  <REMARK>
 VINA RESULT:      -7.3      1.505      1.985
  Name = 
  5 active torsions:
  status: ('A' for Active; 'I' for Inactive)
    1  A    between atoms: C_1  and  C_23
    2  A    between atoms: C_7  and  C_20
    3  A    between atoms: C_7  and  C_23
    4  A    between atoms: N_11  and  C_22
    5  A    between atoms: C_21  and  S_27
                            x       y       z     vdW  Elec       q    Type
                         _______ _______ _______ _____ _____    ______ ____

>  <TORSDO>
F 5

$$$$
=
 OpenBabel11062422103D

 27 29  0  0  1  0  0  0  0  0999 V2000
  188.1930  175.8600  143.4270 C   0  0  0  0  0  0  0  0  0  0  0  0
  188.9260  175.4650  144.5940 N   0  0  0  0  0  2  0  0  0  0  0  0
  187.9950  176.1120  141.0220 C   0  0  0  0  0  2  0  0  0  0  0  0
  188.7240  175.7730  142.2420 N   0  0  0  0  0  0  0  0  0  0  0  0
  186.0470  176.3480  142.3950 O   0  0  0  0  0  0  0  0  0  0  0  0
  186.8010  176.4380  143.5920 C   0  0  2  0  0  3  0  0  0  0  0  0
  186.7740  176.9610  141.3530 C   0  0  0  0  0  2  0  0  0  0  0  0
  192.8200  173.8600  144.6840 C   0  0  0  0  0  0  0  0  0  0  0  0
  191.7140  173.0080  144.6550 C   0  0  0  0  0  3  0  0  0  0  0  0
  190.4250  173.5400  144.6250 C   0  0  0  0  0  3  0  0  0  0  0  0
  191.3460  175.7410  144.6520 N   0  0  0  0  0  0  0  0  0  0  0  0
  192.6140  175.2480  144.6790 C   0  0  0  0  0  0  0  0  0  0  0  0
  190.2540  174.9270  144.6240 C   0  0  0  0  0  0  0  0  0  0  0  0
  194.1330  173.3100  144.7160 N   0  0  0  0  0  1  0  0  0  0  0  0
  193.9700  176.4790  146.5350 C   0  0  0  0  0  1  0  0  0  0  0  0
  193.9940  176.3910  144.7220 S   0  0  0  0  0  0  0  0  0  0  0  0
  186.8070  177.8700  144.1690 C   0  0  2  0  0  3  0  0  0  0  0  0
  188.0620  178.1820  144.7040 O   0  0  0  0  0  1  0  0  0  0  0  0
  186.2730  178.5850  146.5580 C   0  0  0  0  0  2  0  0  0  0  0  0
  185.2730  176.8150  145.8730 C   0  0  0  0  0  2  0  0  0  0  0  0
  185.8430  177.2790  147.2030 C   0  0  1  0  0  3  0  0  0  0  0  0
  187.0680  176.4540  147.5500 C   0  0  0  0  0  1  0  0  0  0  0  0
  185.7070  178.1210  145.2240 C   0  0  2  0  0  0  0  0  0  0  0  0
  184.5060  178.9710  144.7540 C   0  0  0  0  0  0  0  0  0  0  0  0
  184.9300  180.2160  144.3210 F   0  0  0  0  0  0  0  0  0  0  0  0
  183.6110  179.1490  145.7930 F   0  0  0  0  0  0  0  0  0  0  0  0
  183.8550  178.3450  143.7060 F   0  0  0  0  0  0  0  0  0  0  0  0
  1  6  1  0  0  0  0
  1  2  1  0  0  0  0
  2 13  1  0  0  0  0
  3  7  1  0  0  0  0
  3  4  1  0  0  0  0
  4  1  2  0  0  0  0
  5  6  1  0  0  0  0
  6 17  1  6  0  0  0
  7  5  1  0  0  0  0
  8 14  1  0  0  0  0
  9  8  1  0  0  0  0
 10  9  2  0  0  0  0
 11 12  1  0  0  0  0
 12  8  2  0  0  0  0
 12 16  1  0  0  0  0
 13 10  1  0  0  0  0
 13 11  2  0  0  0  0
 16 15  1  0  0  0  0
 17 18  1  1  0  0  0
 17 23  1  0  0  0  0
 19 21  1  0  0  0  0
 20 21  1  0  0  0  0
 21 22  1  6  0  0  0
 23 24  1  6  0  0  0
 23 20  1  0  0  0  0
 23 19  1  0  0  0  0
 24 26  1  0  0  0  0
 25 24  1  0  0  0  0
 27 24  1  0  0  0  0
M  END
>  <MODEL>
3

>  <REMARK>
 VINA RESULT:      -7.2      2.929      3.814
  Name = 
  5 active torsions:
  status: ('A' for Active; 'I' for Inactive)
    1  A    between atoms: C_1  and  C_23
    2  A    between atoms: C_7  and  C_20
    3  A    between atoms: C_7  and  C_23
    4  A    between atoms: N_11  and  C_22
    5  A    between atoms: C_21  and  S_27
                            x       y       z     vdW  Elec       q    Type
                         _______ _______ _______ _____ _____    ______ ____

>  <TORSDO>
F 5

$$$$
=
 OpenBabel11062422103D

 27 29  0  0  1  0  0  0  0  0999 V2000
  187.1570  176.2650  142.2790 C   0  0  0  0  0  0  0  0  0  0  0  0
  188.1160  175.2750  142.6750 N   0  0  0  0  0  2  0  0  0  0  0  0
  186.1380  177.6890  140.5990 C   0  0  0  0  0  2  0  0  0  0  0  0
  187.1320  176.7220  141.0610 N   0  0  0  0  0  0  0  0  0  0  0  0
  185.0590  177.4100  142.7190 O   0  0  0  0  0  0  0  0  0  0  0  0
  186.2020  176.8220  143.3170 C   0  0  2  0  0  3  0  0  0  0  0  0
  185.4810  178.3810  141.7880 C   0  0  0  0  0  2  0  0  0  0  0  0
  191.0370  173.4840  140.2250 C   0  0  0  0  0  0  0  0  0  0  0  0
  191.4210  174.2000  141.3600 C   0  0  0  0  0  3  0  0  0  0  0  0
  190.4540  174.7920  142.1720 C   0  0  0  0  0  3  0  0  0  0  0  0
  188.7490  173.9600  140.7240 N   0  0  0  0  0  0  0  0  0  0  0  0
  189.6730  173.3700  139.9180 C   0  0  0  0  0  0  0  0  0  0  0  0
  189.1040  174.6630  141.8370 C   0  0  0  0  0  0  0  0  0  0  0  0
  192.0300  172.8830  139.4010 N   0  0  0  0  0  1  0  0  0  0  0  0
  188.3230  173.9400  137.7610 C   0  0  0  0  0  1  0  0  0  0  0  0
  189.1190  172.4710  138.4700 S   0  0  0  0  0  0  0  0  0  0  0  0
  186.8890  177.7740  144.3190 C   0  0  2  0  0  3  0  0  0  0  0  0
  188.2610  177.8610  144.0570 O   0  0  0  0  0  1  0  0  0  0  0  0
  185.2940  176.7600  146.0300 C   0  0  0  0  0  2  0  0  0  0  0  0
  186.2180  178.6090  146.6050 C   0  0  0  0  0  2  0  0  0  0  0  0
  184.8560  177.9740  146.8300 C   0  0  1  0  0  3  0  0  0  0  0  0
  183.8000  178.7420  146.0580 C   0  0  0  0  0  1  0  0  0  0  0  0
  186.6560  177.3950  145.7980 C   0  0  2  0  0  0  0  0  0  0  0  0
  187.8040  176.6190  146.4820 C   0  0  0  0  0  0  0  0  0  0  0  0
  187.3430  175.9640  147.6110 F   0  0  0  0  0  0  0  0  0  0  0  0
  188.8100  177.4900  146.8600 F   0  0  0  0  0  0  0  0  0  0  0  0
  188.3300  175.6770  145.6160 F   0  0  0  0  0  0  0  0  0  0  0  0
  1  2  1  0  0  0  0
  1  6  1  0  0  0  0
  3  4  1  0  0  0  0
  3  7  1  0  0  0  0
  4  1  2  0  0  0  0
  5  6  1  0  0  0  0
  6 17  1  6  0  0  0
  7  5  1  0  0  0  0
  8  9  1  0  0  0  0
  9 10  2  0  0  0  0
 11 13  2  0  0  0  0
 12  8  2  0  0  0  0
 12 11  1  0  0  0  0
 13 10  1  0  0  0  0
 13  2  1  0  0  0  0
 14  8  1  0  0  0  0
 15 16  1  0  0  0  0
 16 12  1  0  0  0  0
 17 18  1  6  0  0  0
 17 23  1  0  0  0  0
 19 21  1  0  0  0  0
 20 21  1  0  0  0  0
 21 22  1  6  0  0  0
 23 19  1  0  0  0  0
 23 24  1  1  0  0  0
 23 20  1  0  0  0  0
 24 26  1  0  0  0  0
 24 25  1  0  0  0  0
 27 24  1  0  0  0  0
M  END
>  <MODEL>
4

>  <REMARK>
 VINA RESULT:      -7.1      1.601      2.243
  Name = 
  5 active torsions:
  status: ('A' for Active; 'I' for Inactive)
    1  A    between atoms: C_1  and  C_23
    2  A    between atoms: C_7  and  C_20
    3  A    between atoms: C_7  and  C_23
    4  A    between atoms: N_11  and  C_22
    5  A    between atoms: C_21  and  S_27
                            x       y       z     vdW  Elec       q    Type
                         _______ _______ _______ _____ _____    ______ ____

>  <TORSDO>
F 5

$$$$
=
 OpenBabel11062422103D

 27 29  0  0  1  0  0  0  0  0999 V2000
  188.5780  175.5900  143.7190 C   0  0  0  0  0  0  0  0  0  0  0  0
  189.3810  175.1440  144.8200 N   0  0  0  0  0  2  0  0  0  0  0  0
  188.2220  175.9220  141.3410 C   0  0  0  0  0  2  0  0  0  0  0  0
  189.0250  175.5310  142.4980 N   0  0  0  0  0  0  0  0  0  0  0  0
  186.3780  176.1520  142.8530 O   0  0  0  0  0  0  0  0  0  0  0  0
  187.2140  176.1890  143.9970 C   0  0  2  0  0  3  0  0  0  0  0  0
  187.0440  176.7840  141.7820 C   0  0  0  0  0  2  0  0  0  0  0  0
  193.2360  173.4630  144.5900 C   0  0  0  0  0  0  0  0  0  0  0  0
  192.1110  172.6410  144.5160 C   0  0  0  0  0  3  0  0  0  0  0  0
  190.8340  173.1980  144.5910 C   0  0  0  0  0  3  0  0  0  0  0  0
  191.8080  175.3650  144.8120 N   0  0  0  0  0  0  0  0  0  0  0  0
  193.0640  174.8470  144.7370 C   0  0  0  0  0  0  0  0  0  0  0  0
  190.6960  174.5800  144.7420 C   0  0  0  0  0  0  0  0  0  0  0  0
  194.5360  172.8870  144.5130 N   0  0  0  0  0  1  0  0  0  0  0  0
  194.0010  176.5200  146.5050 C   0  0  0  0  0  1  0  0  0  0  0  0
  194.4710  175.9520  144.8460 S   0  0  0  0  0  0  0  0  0  0  0  0
  187.2900  177.6020  144.6160 C   0  0  2  0  0  3  0  0  0  0  0  0
  188.6110  177.9270  144.9430 O   0  0  0  0  0  1  0  0  0  0  0  0
  184.9770  177.2440  145.6270 C   0  0  0  0  0  2  0  0  0  0  0  0
  185.8100  179.2040  145.8860 C   0  0  0  0  0  2  0  0  0  0  0  0
  184.4120  178.6530  145.6610 C   0  0  1  0  0  3  0  0  0  0  0  0
  183.9260  179.0410  144.2770 C   0  0  0  0  0  1  0  0  0  0  0  0
  186.3790  177.7930  145.8480 C   0  0  2  0  0  0  0  0  0  0  0  0
  186.9830  177.3660  147.2040 C   0  0  0  0  0  0  0  0  0  0  0  0
  187.9700  178.2550  147.5980 F   0  0  0  0  0  0  0  0  0  0  0  0
  187.5440  176.1060  147.1010 F   0  0  0  0  0  0  0  0  0  0  0  0
  186.0040  177.3420  148.1810 F   0  0  0  0  0  0  0  0  0  0  0  0
  1  6  1  0  0  0  0
  1  2  1  0  0  0  0
  3  7  1  0  0  0  0
  3  4  1  0  0  0  0
  4  1  2  0  0  0  0
  5  6  1  0  0  0  0
  6 17  1  6  0  0  0
  7  5  1  0  0  0  0
  8 12  2  0  0  0  0
  9  8  1  0  0  0  0
  9 10  2  0  0  0  0
 10 13  1  0  0  0  0
 12 11  1  0  0  0  0
 12 16  1  0  0  0  0
 13 11  2  0  0  0  0
 13  2  1  0  0  0  0
 14  8  1  0  0  0  0
 16 15  1  0  0  0  0
 17 18  1  1  0  0  0
 17 23  1  0  0  0  0
 19 21  1  0  0  0  0
 19 23  1  0  0  0  0
 21 22  1  6  0  0  0
 21 20  1  0  0  0  0
 23 20  1  0  0  0  0
 23 24  1  1  0  0  0
 24 25  1  0  0  0  0
 24 27  1  0  0  0  0
 26 24  1  0  0  0  0
M  END
>  <MODEL>
5

>  <REMARK>
 VINA RESULT:      -6.9      3.213      4.311
  Name = 
  5 active torsions:
  status: ('A' for Active; 'I' for Inactive)
    1  A    between atoms: C_1  and  C_23
    2  A    between atoms: C_7  and  C_20
    3  A    between atoms: C_7  and  C_23
    4  A    between atoms: N_11  and  C_22
    5  A    between atoms: C_21  and  S_27
                            x       y       z     vdW  Elec       q    Type
                         _______ _______ _______ _____ _____    ______ ____

>  <TORSDO>
F 5

$$$$
=
 OpenBabel11062422103D

 27 29  0  0  1  0  0  0  0  0999 V2000
  189.6080  175.8330  143.8290 C   0  0  0  0  0  0  0  0  0  0  0  0
  189.2910  176.8060  144.8330 N   0  0  0  0  0  2  0  0  0  0  0  0
  188.9420  174.1780  142.1850 C   0  0  0  0  0  2  0  0  0  0  0  0
  188.6710  175.1400  143.2500 N   0  0  0  0  0  0  0  0  0  0  0  0
  191.2040  174.9670  142.2130 O   0  0  0  0  0  0  0  0  0  0  0  0
  191.0620  175.5760  143.4860 C   0  0  2  0  0  3  0  0  0  0  0  0
  190.4180  173.7960  142.1790 C   0  0  0  0  0  2  0  0  0  0  0  0
  185.4420  177.8190  146.2140 C   0  0  0  0  0  0  0  0  0  0  0  0
  186.2120  176.8880  146.9130 C   0  0  0  0  0  3  0  0  0  0  0  0
  187.4860  176.5530  146.4550 C   0  0  0  0  0  3  0  0  0  0  0  0
  187.2140  178.0630  144.6290 N   0  0  0  0  0  0  0  0  0  0  0  0
  185.9690  178.4100  145.0550 C   0  0  0  0  0  0  0  0  0  0  0  0
  187.9810  177.1570  145.2960 C   0  0  0  0  0  0  0  0  0  0  0  0
  184.1410  178.1550  146.6860 N   0  0  0  0  0  1  0  0  0  0  0  0
  184.3540  178.3290  143.0090 C   0  0  0  0  0  1  0  0  0  0  0  0
  185.0250  179.6060  144.1120 S   0  0  0  0  0  0  0  0  0  0  0  0
  191.8130  174.7990  144.5880 C   0  0  2  0  0  3  0  0  0  0  0  0
  190.9120  174.2410  145.5020 O   0  0  0  0  0  1  0  0  0  0  0  0
  193.3600  176.8250  144.5140 C   0  0  0  0  0  2  0  0  0  0  0  0
  194.2460  175.0070  145.2290 C   0  0  0  0  0  2  0  0  0  0  0  0
  194.7330  176.1860  144.4030 C   0  0  1  0  0  3  0  0  0  0  0  0
  194.9760  175.7430  142.9730 C   0  0  0  0  0  1  0  0  0  0  0  0
  192.8680  175.6440  145.3370 C   0  0  2  0  0  0  0  0  0  0  0  0
  192.5120  176.0320  146.7890 C   0  0  0  0  0  0  0  0  0  0  0  0
  191.3250  176.7440  146.8260 F   0  0  0  0  0  0  0  0  0  0  0  0
  193.5130  176.8180  147.3320 F   0  0  0  0  0  0  0  0  0  0  0  0
  192.3640  174.8970  147.5660 F   0  0  0  0  0  0  0  0  0  0  0  0
  1  2  1  0  0  0  0
  2 13  1  0  0  0  0
  3  4  1  0  0  0  0
  4  1  2  0  0  0  0
  5  6  1  0  0  0  0
  6  1  1  0  0  0  0
  6 17  1  1  0  0  0
  7  3  1  0  0  0  0
  7  5  1  0  0  0  0
  8 14  1  0  0  0  0
  8  9  1  0  0  0  0
 10  9  2  0  0  0  0
 11 12  1  0  0  0  0
 11 13  2  0  0  0  0
 12  8  2  0  0  0  0
 13 10  1  0  0  0  0
 15 16  1  0  0  0  0
 16 12  1  0  0  0  0
 17 23  1  0  0  0  0
 17 18  1  1  0  0  0
 19 23  1  0  0  0  0
 20 23  1  0  0  0  0
 21 22  1  6  0  0  0
 21 19  1  0  0  0  0
 21 20  1  0  0  0  0
 23 24  1  1  0  0  0
 24 25  1  0  0  0  0
 24 26  1  0  0  0  0
 24 27  1  0  0  0  0
M  END
>  <MODEL>
6

>  <REMARK>
 VINA RESULT:      -6.9      4.428      7.149
  Name = 
  5 active torsions:
  status: ('A' for Active; 'I' for Inactive)
    1  A    between atoms: C_1  and  C_23
    2  A    between atoms: C_7  and  C_20
    3  A    between atoms: C_7  and  C_23
    4  A    between atoms: N_11  and  C_22
    5  A    between atoms: C_21  and  S_27
                            x       y       z     vdW  Elec       q    Type
                         _______ _______ _______ _____ _____    ______ ____

>  <TORSDO>
F 5

$$$$
=
 OpenBabel11062422103D

 27 29  0  0  1  0  0  0  0  0999 V2000
  188.4900  176.5520  144.4560 C   0  0  0  0  0  0  0  0  0  0  0  0
  188.9580  176.5870  143.1010 N   0  0  0  0  0  2  0  0  0  0  0  0
  188.5570  175.6510  146.7080 C   0  0  0  0  0  2  0  0  0  0  0  0
  188.9640  175.6870  145.3050 N   0  0  0  0  0  0  0  0  0  0  0  0
  187.3520  177.6780  146.2850 O   0  0  0  0  0  0  0  0  0  0  0  0
  187.3860  177.5010  144.8780 C   0  0  2  0  0  3  0  0  0  0  0  0
  187.2510  176.4120  146.8990 C   0  0  0  0  0  2  0  0  0  0  0  0
  191.9150  174.1120  141.4050 C   0  0  0  0  0  0  0  0  0  0  0  0
  190.5640  173.8350  141.1880 C   0  0  0  0  0  3  0  0  0  0  0  0
  189.5850  174.6540  141.7500 C   0  0  0  0  0  3  0  0  0  0  0  0
  191.2930  176.0040  142.7260 N   0  0  0  0  0  0  0  0  0  0  0  0
  192.2680  175.2210  142.1880 C   0  0  0  0  0  0  0  0  0  0  0  0
  189.9690  175.7500  142.5270 C   0  0  0  0  0  0  0  0  0  0  0  0
  192.9090  173.2700  140.8300 N   0  0  0  0  0  1  0  0  0  0  0  0
  193.6040  176.3160  144.1410 C   0  0  0  0  0  1  0  0  0  0  0  0
  193.9850  175.6240  142.5070 S   0  0  0  0  0  0  0  0  0  0  0  0
  186.0050  177.1130  144.3080 C   0  0  2  0  0  3  0  0  0  0  0  0
  186.1000  175.9540  143.5300 O   0  0  0  0  0  1  0  0  0  0  0  0
  184.6270  177.7200  142.2500 C   0  0  0  0  0  2  0  0  0  0  0  0
  186.3410  178.9570  142.6170 C   0  0  0  0  0  2  0  0  0  0  0  0
  185.6420  178.4330  141.3750 C   0  0  1  0  0  3  0  0  0  0  0  0
  186.5260  177.4120  140.6820 C   0  0  0  0  0  1  0  0  0  0  0  0
  185.3270  178.2390  143.4970 C   0  0  2  0  0  0  0  0  0  0  0  0
  184.4550  179.2220  144.3100 C   0  0  0  0  0  0  0  0  0  0  0  0
  183.1600  179.2440  143.8200 F   0  0  0  0  0  0  0  0  0  0  0  0
  184.9760  180.5010  144.2290 F   0  0  0  0  0  0  0  0  0  0  0  0
  184.4110  178.8390  145.6390 F   0  0  0  0  0  0  0  0  0  0  0  0
  1  6  1  0  0  0  0
  1  4  2  0  0  0  0
  2  1  1  0  0  0  0
  3  7  1  0  0  0  0
  4  3  1  0  0  0  0
  5  7  1  0  0  0  0
  6 17  1  1  0  0  0
  6  5  1  0  0  0  0
  8 12  2  0  0  0  0
  9  8  1  0  0  0  0
  9 10  2  0  0  0  0
 10 13  1  0  0  0  0
 12 16  1  0  0  0  0
 12 11  1  0  0  0  0
 13 11  2  0  0  0  0
 13  2  1  0  0  0  0
 14  8  1  0  0  0  0
 16 15  1  0  0  0  0
 17 18  1  6  0  0  0
 19 23  1  0  0  0  0
 20 23  1  0  0  0  0
 21 22  1  1  0  0  0
 21 19  1  0  0  0  0
 21 20  1  0  0  0  0
 23 17  1  0  0  0  0
 23 24  1  1  0  0  0
 24 27  1  0  0  0  0
 25 24  1  0  0  0  0
 26 24  1  0  0  0  0
M  END
>  <MODEL>
7

>  <REMARK>
 VINA RESULT:      -6.9      2.192      4.131
  Name = 
  5 active torsions:
  status: ('A' for Active; 'I' for Inactive)
    1  A    between atoms: C_1  and  C_23
    2  A    between atoms: C_7  and  C_20
    3  A    between atoms: C_7  and  C_23
    4  A    between atoms: N_11  and  C_22
    5  A    between atoms: C_21  and  S_27
                            x       y       z     vdW  Elec       q    Type
                         _______ _______ _______ _____ _____    ______ ____

>  <TORSDO>
F 5

$$$$
=
 OpenBabel11062422103D

 27 29  0  0  1  0  0  0  0  0999 V2000
  189.5720  175.8150  143.7470 C   0  0  0  0  0  0  0  0  0  0  0  0
  189.3130  176.6820  144.8600 N   0  0  0  0  0  2  0  0  0  0  0  0
  188.8090  174.4140  141.9200 C   0  0  0  0  0  2  0  0  0  0  0  0
  188.5950  175.2580  143.0930 N   0  0  0  0  0  0  0  0  0  0  0  0
  191.1170  175.0440  142.0380 O   0  0  0  0  0  0  0  0  0  0  0  0
  191.0070  175.5050  143.3740 C   0  0  2  0  0  3  0  0  0  0  0  0
  190.2560  173.9390  141.8670 C   0  0  0  0  0  2  0  0  0  0  0  0
  185.5330  177.7770  146.3610 C   0  0  0  0  0  0  0  0  0  0  0  0
  186.3070  176.8350  147.0400 C   0  0  0  0  0  3  0  0  0  0  0  0
  187.5590  176.4730  146.5430 C   0  0  0  0  0  3  0  0  0  0  0  0
  187.2550  177.9770  144.7170 N   0  0  0  0  0  0  0  0  0  0  0  0
  186.0310  178.3500  145.1810 C   0  0  0  0  0  0  0  0  0  0  0  0
  188.0260  177.0600  145.3650 C   0  0  0  0  0  0  0  0  0  0  0  0
  184.2550  178.1410  146.8730 N   0  0  0  0  0  1  0  0  0  0  0  0
  184.3630  178.2910  143.1790 C   0  0  0  0  0  1  0  0  0  0  0  0
  185.0800  179.5590  144.2620 S   0  0  0  0  0  0  0  0  0  0  0  0
  191.7000  174.5560  144.3750 C   0  0  2  0  0  3  0  0  0  0  0  0
  190.8000  174.1340  145.3590 O   0  0  0  0  0  1  0  0  0  0  0  0
  193.0670  174.8120  146.5130 C   0  0  0  0  0  2  0  0  0  0  0  0
  192.7300  176.6180  145.4050 C   0  0  0  0  0  2  0  0  0  0  0  0
  192.8330  176.2660  146.8790 C   0  0  1  0  0  3  0  0  0  0  0  0
  191.4730  176.4150  147.5370 C   0  0  0  0  0  1  0  0  0  0  0  0
  192.9600  175.1590  145.0360 C   0  0  2  0  0  0  0  0  0  0  0  0
  194.2860  174.9490  144.2720 C   0  0  0  0  0  0  0  0  0  0  0  0
  195.2620  174.4520  145.1190 F   0  0  0  0  0  0  0  0  0  0  0  0
  194.7300  176.1490  143.7470 F   0  0  0  0  0  0  0  0  0  0  0  0
  194.1070  174.0470  143.2380 F   0  0  0  0  0  0  0  0  0  0  0  0
  1  2  1  0  0  0  0
  2 13  1  0  0  0  0
  3  4  1  0  0  0  0
  4  1  2  0  0  0  0
  5  6  1  0  0  0  0
  6  1  1  0  0  0  0
  6 17  1  1  0  0  0
  7  3  1  0  0  0  0
  7  5  1  0  0  0  0
  8 14  1  0  0  0  0
  8  9  1  0  0  0  0
 10  9  2  0  0  0  0
 11 12  1  0  0  0  0
 11 13  2  0  0  0  0
 12  8  2  0  0  0  0
 13 10  1  0  0  0  0
 15 16  1  0  0  0  0
 16 12  1  0  0  0  0
 17 23  1  0  0  0  0
 17 18  1  1  0  0  0
 19 21  1  0  0  0  0
 20 21  1  0  0  0  0
 21 22  1  1  0  0  0
 23 24  1  6  0  0  0
 23 20  1  0  0  0  0
 23 19  1  0  0  0  0
 24 25  1  0  0  0  0
 26 24  1  0  0  0  0
 27 24  1  0  0  0  0
M  END
>  <MODEL>
8

>  <REMARK>
 VINA RESULT:      -6.8      5.075      7.416
  Name = 
  5 active torsions:
  status: ('A' for Active; 'I' for Inactive)
    1  A    between atoms: C_1  and  C_23
    2  A    between atoms: C_7  and  C_20
    3  A    between atoms: C_7  and  C_23
    4  A    between atoms: N_11  and  C_22
    5  A    between atoms: C_21  and  S_27
                            x       y       z     vdW  Elec       q    Type
                         _______ _______ _______ _____ _____    ______ ____

>  <TORSDO>
F 5

$$$$
=
 OpenBabel11062422103D

 27 29  0  0  1  0  0  0  0  0999 V2000
  188.4820  176.6040  144.5990 C   0  0  0  0  0  0  0  0  0  0  0  0
  188.9960  176.6630  143.2620 N   0  0  0  0  0  2  0  0  0  0  0  0
  188.4780  175.6660  146.8370 C   0  0  0  0  0  2  0  0  0  0  0  0
  188.9320  175.7270  145.4500 N   0  0  0  0  0  0  0  0  0  0  0  0
  187.2780  177.6940  146.4060 O   0  0  0  0  0  0  0  0  0  0  0  0
  187.3600  177.5410  144.9990 C   0  0  2  0  0  3  0  0  0  0  0  0
  187.1610  176.4190  146.9970 C   0  0  0  0  0  2  0  0  0  0  0  0
  192.0530  174.2590  141.6450 C   0  0  0  0  0  0  0  0  0  0  0  0
  192.3780  175.3960  142.3880 C   0  0  0  0  0  3  0  0  0  0  0  0
  191.3650  176.1910  142.9230 C   0  0  0  0  0  3  0  0  0  0  0  0
  189.7350  174.7260  141.9810 N   0  0  0  0  0  0  0  0  0  0  0  0
  190.7030  173.9320  141.4510 C   0  0  0  0  0  0  0  0  0  0  0  0
  190.0300  175.8400  142.7090 C   0  0  0  0  0  0  0  0  0  0  0  0
  193.0930  173.4520  141.1000 N   0  0  0  0  0  1  0  0  0  0  0  0
  188.5000  173.0410  140.3770 C   0  0  0  0  0  1  0  0  0  0  0  0
  190.2250  172.4900  140.5000 S   0  0  0  0  0  0  0  0  0  0  0  0
  186.0010  177.1570  144.3760 C   0  0  2  0  0  3  0  0  0  0  0  0
  186.1300  176.0180  143.5730 O   0  0  0  0  0  1  0  0  0  0  0  0
  184.6760  177.8040  142.2960 C   0  0  0  0  0  2  0  0  0  0  0  0
  186.3720  179.0400  142.7380 C   0  0  0  0  0  2  0  0  0  0  0  0
  185.7100  178.5410  141.4650 C   0  0  1  0  0  3  0  0  0  0  0  0
  186.6180  177.5410  140.7740 C   0  0  0  0  0  1  0  0  0  0  0  0
  185.3390  178.2980  143.5730 C   0  0  2  0  0  0  0  0  0  0  0  0
  184.4400  179.2570  144.3840 C   0  0  0  0  0  0  0  0  0  0  0  0
  184.4030  178.8810  145.7160 F   0  0  0  0  0  0  0  0  0  0  0  0
  183.1490  179.2360  143.8870 F   0  0  0  0  0  0  0  0  0  0  0  0
  184.9260  180.5500  144.3100 F   0  0  0  0  0  0  0  0  0  0  0  0
  1  6  1  0  0  0  0
  1  4  2  0  0  0  0
  2  1  1  0  0  0  0
  3  7  1  0  0  0  0
  4  3  1  0  0  0  0
  5  7  1  0  0  0  0
  6 17  1  1  0  0  0
  6  5  1  0  0  0  0
  8  9  1  0  0  0  0
  9 10  2  0  0  0  0
 11 13  2  0  0  0  0
 12  8  2  0  0  0  0
 12 11  1  0  0  0  0
 13 10  1  0  0  0  0
 13  2  1  0  0  0  0
 14  8  1  0  0  0  0
 15 16  1  0  0  0  0
 16 12  1  0  0  0  0
 17 18  1  6  0  0  0
 19 23  1  0  0  0  0
 20 23  1  0  0  0  0
 21 22  1  1  0  0  0
 21 19  1  0  0  0  0
 21 20  1  0  0  0  0
 23 17  1  0  0  0  0
 23 24  1  1  0  0  0
 24 25  1  0  0  0  0
 26 24  1  0  0  0  0
 27 24  1  0  0  0  0
M  END
>  <MODEL>
9

>  <REMARK>
 VINA RESULT:      -6.8      1.629      3.521
  Name = 
  5 active torsions:
  status: ('A' for Active; 'I' for Inactive)
    1  A    between atoms: C_1  and  C_23
    2  A    between atoms: C_7  and  C_20
    3  A    between atoms: C_7  and  C_23
    4  A    between atoms: N_11  and  C_22
    5  A    between atoms: C_21  and  S_27
                            x       y       z     vdW  Elec       q    Type
                         _______ _______ _______ _____ _____    ______ ____

>  <TORSDO>
F 5

$$$$
