=
 OpenBabel11062419593D

 42 45  0  0  1  0  0  0  0  0999 V2000
  190.4620  175.1690  144.4540 C   0  0  2  0  0  3  0  0  0  0  0  0
  189.0880  175.7840  144.7930 C   0  0  1  0  0  3  0  0  0  0  0  0
  185.2220  177.4420  145.5980 C   0  0  0  0  0  3  0  0  0  0  0  0
  186.5000  176.7070  145.2730 C   0  0  1  0  0  3  0  0  0  0  0  0
  184.9600  177.9620  146.8060 C   0  0  0  0  0  3  0  0  0  0  0  0
  188.6590  175.6490  146.2630 C   0  0  2  0  0  3  0  0  0  0  0  0
  187.3270  177.5210  144.2580 C   0  0  1  0  0  3  0  0  0  0  0  0
  188.8200  177.1730  144.2200 C   0  0  0  0  0  2  0  0  0  0  0  0
  187.2930  176.3210  146.5440 C   0  0  1  0  0  3  0  0  0  0  0  0
  187.3120  177.4510  147.5830 C   0  0  1  0  0  3  0  0  0  0  0  0
  187.9520  178.5880  147.0810 O   0  0  0  0  0  1  0  0  0  0  0  0
  185.8790  177.7840  147.9890 C   0  0  0  0  0  2  0  0  0  0  0  0
  186.7580  177.3660  142.9280 N   0  0  0  0  0  2  0  0  0  0  0  0
  186.0360  179.5850  142.7990 O   0  0  0  0  0  0  0  0  0  0  0  0
  186.1190  178.4520  142.2530 C   0  0  0  0  0  0  0  0  0  0  0  0
  185.5140  178.2320  140.9100 C   0  0  0  0  0  2  0  0  0  0  0  0
  183.3280  177.9590  140.0000 O   0  0  0  0  0  0  0  0  0  0  0  0
  183.4360  178.1250  142.2850 O   0  0  0  0  0  1  0  0  0  0  0  0
  184.0350  178.0900  141.0330 C   0  0  0  0  0  0  0  0  0  0  0  0
  189.6520  176.1030  147.1390 O   0  0  0  0  0  0  0  0  0  0  0  0
  190.1880  174.9450  147.7090 C   0  0  0  0  0  1  0  0  0  0  0  0
  191.4800  176.1550  143.8390 C   0  0  2  0  0  3  0  0  0  0  0  0
  191.9670  175.6470  142.4890 C   0  0  0  0  0  1  0  0  0  0  0  0
  192.6890  176.3440  144.7390 C   0  0  0  0  0  2  0  0  0  0  0  0
  195.9570  175.8170  143.2160 C   0  0  2  0  0  3  0  0  0  0  0  0
  193.8940  175.5920  144.1960 C   0  0  1  0  0  3  0  0  0  0  0  0
  196.5150  173.6310  146.3260 C   0  0  0  0  0  2  0  0  0  0  0  0
  196.5160  171.2900  146.0590 O   0  0  0  0  0  0  0  0  0  0  0  0
  196.5730  173.5600  143.4020 C   0  0  0  0  0  2  0  0  0  0  0  0
  196.7290  172.3760  145.5470 C   0  0  0  0  0  0  0  0  0  0  0  0
  193.7360  173.9320  145.8980 O   0  0  0  0  0  0  0  0  0  0  0  0
  195.9370  174.7370  145.4290 C   0  0  1  0  0  3  0  0  0  0  0  0
  196.6210  174.8430  144.1150 N   0  0  2  0  0  0  0  0  0  0  0  0
  196.9840  176.8130  142.7130 C   0  0  0  0  0  1  0  0  0  0  0  0
  194.8910  176.5220  143.8300 O   0  0  0  0  0  0  0  0  0  0  0  0
  194.4480  174.6850  145.2500 C   0  0  0  0  0  0  0  0  0  0  0  0
  197.3020  172.4650  144.1740 C   0  0  0  0  0  2  0  0  0  0  0  0
  190.2780  173.9380  143.5470 C   0  0  2  0  0  3  0  0  0  0  0  0
  189.0020  173.9390  142.9670 O   0  0  0  0  0  1  0  0  0  0  0  0
  189.6290  172.1470  145.0350 N   0  0  0  0  0  1  0  0  0  0  0  0
  191.6620  171.8260  143.9110 N   0  0  0  0  0  2  0  0  0  0  0  0
  190.5310  172.6290  144.2470 C   0  0  0  0  0  0  0  0  0  0  0  0
  1 38  1  6  0  0  0
  2  1  1  1  0  0  0
  2  6  1  0  0  0  0
  3  5  2  0  0  0  0
  4  3  1  1  0  0  0
  4  9  1  0  0  0  0
  5 12  1  0  0  0  0
  6  9  1  0  0  0  0
  6 20  1  1  0  0  0
  7 13  1  6  0  0  0
  7  4  1  0  0  0  0
  8  7  1  0  0  0  0
  8  2  1  0  0  0  0
  9 10  1  0  0  0  0
 10 12  1  0  0  0  0
 11 10  1  0  0  0  0
 15 14  2  0  0  0  0
 15 13  1  0  0  0  0
 16 19  1  0  0  0  0
 16 15  1  0  0  0  0
 17 19  2  0  0  0  0
 19 18  1  0  0  0  0
 20 21  1  0  0  0  0
 22  1  1  0  0  0  0
 22 24  1  0  0  0  0
 23 22  1  0  0  0  0
 25 35  1  0  0  0  0
 25 33  1  0  0  0  0
 26 24  1  0  0  0  0
 26 36  1  0  0  0  0
 29 33  1  0  0  0  0
 29 37  1  0  0  0  0
 30 28  2  0  0  0  0
 30 27  1  0  0  0  0
 32 27  1  0  0  0  0
 33 32  1  0  0  0  0
 34 25  1  0  0  0  0
 35 26  1  0  0  0  0
 36 32  1  0  0  0  0
 36 31  2  0  0  0  0
 37 30  1  0  0  0  0
 38 42  1  0  0  0  0
 39 38  1  0  0  0  0
 41 42  2  0  0  0  0
 42 40  1  0  0  0  0
M  END
>  <MODEL>
1

>  <REMARK>
 VINA RESULT:      -7.8      0.000      0.000
  Name = 
  10 active torsions:
  status: ('A' for Active; 'I' for Inactive)
    1  A    between atoms: C_3  and  C_23
    2  A    between atoms: C_4  and  C_13
    3  A    between atoms: C_4  and  C_23
    4  A    between atoms: C_5  and  C_13
    5  A    between atoms: N_9  and  C_24
    6  A    between atoms: C_11  and  C_16
    7  A    between atoms: C_11  and  C_33
    8  A    between atoms: C_13  and  C_35
    9  A    between atoms: O_19  and  C_22
   10  A    between atoms: C_29  and  C_35
                            x       y       z     vdW  Elec       q    Type
                         _______ _______ _______ _____ _____    ______ ____

>  <TORSDO>
F 10

$$$$
=
 OpenBabel11062419593D

 42 45  0  0  1  0  0  0  0  0999 V2000
  191.8460  175.7950  143.4200 C   0  0  2  0  0  3  0  0  0  0  0  0
  191.6060  174.5250  142.5780 C   0  0  1  0  0  3  0  0  0  0  0  0
  190.9380  171.0860  140.1140 C   0  0  0  0  0  3  0  0  0  0  0  0
  191.3060  172.3390  140.8720 C   0  0  1  0  0  3  0  0  0  0  0  0
  190.9710  169.8610  140.6590 C   0  0  0  0  0  3  0  0  0  0  0  0
  192.3600  173.2740  143.0580 C   0  0  2  0  0  3  0  0  0  0  0  0
  190.0560  173.2220  141.0600 C   0  0  1  0  0  3  0  0  0  0  0  0
  190.1540  174.2380  142.2040 C   0  0  0  0  0  2  0  0  0  0  0  0
  192.0440  172.0270  142.1950 C   0  0  1  0  0  3  0  0  0  0  0  0
  191.4170  170.8450  142.9460 C   0  0  1  0  0  3  0  0  0  0  0  0
  190.0990  171.1240  143.3170 O   0  0  0  0  0  1  0  0  0  0  0  0
  191.4680  169.6040  142.0590 C   0  0  0  0  0  2  0  0  0  0  0  0
  189.7570  173.9170  139.8170 N   0  0  0  0  0  2  0  0  0  0  0  0
  187.8630  172.6260  139.3600 O   0  0  0  0  0  0  0  0  0  0  0  0
  188.6330  173.5610  139.0090 C   0  0  0  0  0  0  0  0  0  0  0  0
  188.3940  174.2740  137.7240 C   0  0  0  0  0  2  0  0  0  0  0  0
  189.6540  172.6440  136.5240 O   0  0  0  0  0  1  0  0  0  0  0  0
  190.1110  174.8300  136.0010 O   0  0  0  0  0  0  0  0  0  0  0  0
  189.4130  173.8640  136.7150 C   0  0  0  0  0  0  0  0  0  0  0  0
  192.1530  173.0300  144.4200 O   0  0  0  0  0  0  0  0  0  0  0  0
  193.4320  172.8570  144.9550 C   0  0  0  0  0  1  0  0  0  0  0  0
  190.7160  176.8460  143.3460 C   0  0  2  0  0  3  0  0  0  0  0  0
  191.2940  178.2430  143.1670 C   0  0  0  0  0  1  0  0  0  0  0  0
  189.8660  176.8420  144.6060 C   0  0  0  0  0  2  0  0  0  0  0  0
  186.7780  177.7520  142.8990 C   0  0  2  0  0  3  0  0  0  0  0  0
  188.5320  177.5300  144.3630 C   0  0  1  0  0  3  0  0  0  0  0  0
  185.2030  176.8040  146.2740 C   0  0  0  0  0  2  0  0  0  0  0  0
  184.4140  178.5360  147.6620 O   0  0  0  0  0  0  0  0  0  0  0  0
  185.4000  178.9900  144.3400 C   0  0  0  0  0  2  0  0  0  0  0  0
  184.6410  178.1640  146.5230 C   0  0  0  0  0  0  0  0  0  0  0  0
  187.9400  177.3950  146.6670 O   0  0  0  0  0  0  0  0  0  0  0  0
  186.2120  176.8360  145.1140 C   0  0  1  0  0  3  0  0  0  0  0  0
  185.7350  177.6160  143.9440 N   0  0  2  0  0  0  0  0  0  0  0  0
  186.2140  177.2930  141.5680 C   0  0  0  0  0  1  0  0  0  0  0  0
  187.9590  177.0190  143.1780 O   0  0  0  0  0  0  0  0  0  0  0  0
  187.6000  177.2560  145.5020 C   0  0  0  0  0  0  0  0  0  0  0  0
  184.2670  179.0170  145.3600 C   0  0  0  0  0  2  0  0  0  0  0  0
  193.2010  176.4250  143.0470 C   0  0  2  0  0  3  0  0  0  0  0  0
  193.6620  175.9160  141.8260 O   0  0  0  0  0  1  0  0  0  0  0  0
  195.4220  175.8230  143.7840 N   0  0  0  0  0  2  0  0  0  0  0  0
  194.0470  176.7690  145.4290 N   0  0  0  0  0  1  0  0  0  0  0  0
  194.2540  176.2660  144.1100 C   0  0  0  0  0  0  0  0  0  0  0  0
  1 38  1  6  0  0  0
  2  6  1  0  0  0  0
  2  1  1  1  0  0  0
  3  5  2  0  0  0  0
  4  3  1  1  0  0  0
  4  7  1  0  0  0  0
  4  9  1  0  0  0  0
  5 12  1  0  0  0  0
  6 20  1  1  0  0  0
  7 13  1  6  0  0  0
  7  8  1  0  0  0  0
  8  2  1  0  0  0  0
  9 10  1  0  0  0  0
  9  6  1  0  0  0  0
 10 11  1  0  0  0  0
 12 10  1  0  0  0  0
 15 14  2  0  0  0  0
 15 13  1  0  0  0  0
 16 15  1  0  0  0  0
 17 19  1  0  0  0  0
 18 19  2  0  0  0  0
 19 16  1  0  0  0  0
 20 21  1  0  0  0  0
 22  1  1  0  0  0  0
 22 24  1  0  0  0  0
 23 22  1  0  0  0  0
 25 35  1  0  0  0  0
 25 33  1  0  0  0  0
 26 24  1  0  0  0  0
 26 36  1  0  0  0  0
 27 30  1  0  0  0  0
 29 37  1  0  0  0  0
 30 28  2  0  0  0  0
 32 36  1  0  0  0  0
 32 27  1  0  0  0  0
 33 29  1  0  0  0  0
 33 32  1  0  0  0  0
 34 25  1  0  0  0  0
 35 26  1  0  0  0  0
 36 31  2  0  0  0  0
 37 30  1  0  0  0  0
 38 42  1  0  0  0  0
 39 38  1  0  0  0  0
 40 42  2  0  0  0  0
 42 41  1  0  0  0  0
M  END
>  <MODEL>
2

>  <REMARK>
 VINA RESULT:      -7.2      3.164      8.273
  Name = 
  10 active torsions:
  status: ('A' for Active; 'I' for Inactive)
    1  A    between atoms: C_3  and  C_23
    2  A    between atoms: C_4  and  C_13
    3  A    between atoms: C_4  and  C_23
    4  A    between atoms: C_5  and  C_13
    5  A    between atoms: N_9  and  C_24
    6  A    between atoms: C_11  and  C_16
    7  A    between atoms: C_11  and  C_33
    8  A    between atoms: C_13  and  C_35
    9  A    between atoms: O_19  and  C_22
   10  A    between atoms: C_29  and  C_35
                            x       y       z     vdW  Elec       q    Type
                         _______ _______ _______ _____ _____    ______ ____

>  <TORSDO>
F 10

$$$$
=
 OpenBabel11062419593D

 42 45  0  0  1  0  0  0  0  0999 V2000
  190.4330  173.7050  142.2650 C   0  0  2  0  0  3  0  0  0  0  0  0
  189.4850  174.6650  143.0130 C   0  0  1  0  0  3  0  0  0  0  0  0
  186.7410  177.2920  144.9910 C   0  0  0  0  0  3  0  0  0  0  0  0
  187.5830  176.2410  144.3080 C   0  0  1  0  0  3  0  0  0  0  0  0
  187.1070  177.9040  146.1260 C   0  0  0  0  0  3  0  0  0  0  0  0
  189.6620  174.6970  144.5400 C   0  0  2  0  0  3  0  0  0  0  0  0
  188.0930  176.7780  142.9560 C   0  0  1  0  0  3  0  0  0  0  0  0
  189.3260  176.0550  142.4030 C   0  0  0  0  0  2  0  0  0  0  0  0
  188.7100  175.7090  145.2230 C   0  0  1  0  0  3  0  0  0  0  0  0
  189.3950  176.8310  146.0150 C   0  0  1  0  0  3  0  0  0  0  0  0
  190.0160  177.7460  145.1600 O   0  0  0  0  0  1  0  0  0  0  0  0
  188.3580  177.5360  146.8850 C   0  0  0  0  0  2  0  0  0  0  0  0
  187.0200  176.7280  141.9740 N   0  0  0  0  0  2  0  0  0  0  0  0
  186.7000  179.0430  141.9640 O   0  0  0  0  0  0  0  0  0  0  0  0
  186.3610  177.9120  141.5210 C   0  0  0  0  0  0  0  0  0  0  0  0
  185.2390  177.8050  140.5470 C   0  0  0  0  0  2  0  0  0  0  0  0
  183.8830  177.9270  142.5030 O   0  0  0  0  0  1  0  0  0  0  0  0
  182.7750  178.1950  140.5130 O   0  0  0  0  0  0  0  0  0  0  0  0
  183.9350  177.9860  141.2470 C   0  0  0  0  0  0  0  0  0  0  0  0
  190.9970  174.9100  144.9050 O   0  0  0  0  0  0  0  0  0  0  0  0
  191.2070  174.0760  146.0060 C   0  0  0  0  0  1  0  0  0  0  0  0
  190.9240  174.2170  140.8920 C   0  0  2  0  0  3  0  0  0  0  0  0
  190.3660  173.3540  139.7690 C   0  0  0  0  0  1  0  0  0  0  0  0
  192.4410  174.1970  140.7980 C   0  0  0  0  0  2  0  0  0  0  0  0
  194.5870  172.7730  143.3750 C   0  0  2  0  0  3  0  0  0  0  0  0
  193.0670  173.9990  142.1700 C   0  0  1  0  0  3  0  0  0  0  0  0
  195.5500  176.4530  143.9220 C   0  0  0  0  0  2  0  0  0  0  0  0
  194.7340  177.5460  145.8430 O   0  0  0  0  0  0  0  0  0  0  0  0
  194.5050  174.0990  145.3090 C   0  0  0  0  0  2  0  0  0  0  0  0
  195.0660  176.4890  145.3340 C   0  0  0  0  0  0  0  0  0  0  0  0
  193.0450  176.3400  142.6150 O   0  0  0  0  0  0  0  0  0  0  0  0
  195.0520  175.1860  143.2080 C   0  0  1  0  0  3  0  0  0  0  0  0
  195.2030  173.9550  144.0250 N   0  0  2  0  0  0  0  0  0  0  0  0
  195.6100  171.6550  143.3010 C   0  0  0  0  0  1  0  0  0  0  0  0
  194.0940  173.0350  142.0720 O   0  0  0  0  0  0  0  0  0  0  0  0
  193.6630  175.2860  142.6490 C   0  0  0  0  0  0  0  0  0  0  0  0
  195.0920  175.2350  146.1400 C   0  0  0  0  0  2  0  0  0  0  0  0
  189.7770  172.3180  142.1280 C   0  0  2  0  0  3  0  0  0  0  0  0
  188.5420  172.2900  142.7890 O   0  0  0  0  0  1  0  0  0  0  0  0
  191.2190  171.2700  143.7590 N   0  0  0  0  0  1  0  0  0  0  0  0
  190.7050  169.9550  141.8870 N   0  0  0  0  0  2  0  0  0  0  0  0
  190.6490  171.1880  142.6030 C   0  0  0  0  0  0  0  0  0  0  0  0
  1 22  1  6  0  0  0
  2  1  1  6  0  0  0
  2  6  1  0  0  0  0
  3  5  2  0  0  0  0
  4  3  1  1  0  0  0
  4  9  1  0  0  0  0
  5 12  1  0  0  0  0
  6 20  1  6  0  0  0
  6  9  1  0  0  0  0
  7 13  1  6  0  0  0
  7  4  1  0  0  0  0
  8  7  1  0  0  0  0
  8  2  1  0  0  0  0
  9 10  1  0  0  0  0
 10 12  1  0  0  0  0
 11 10  1  0  0  0  0
 15 14  2  0  0  0  0
 15 13  1  0  0  0  0
 16 19  1  0  0  0  0
 16 15  1  0  0  0  0
 18 19  2  0  0  0  0
 19 17  1  0  0  0  0
 20 21  1  0  0  0  0
 23 22  1  0  0  0  0
 24 22  1  0  0  0  0
 24 26  1  0  0  0  0
 25 33  1  0  0  0  0
 26 36  1  0  0  0  0
 27 30  1  0  0  0  0
 29 37  1  0  0  0  0
 30 28  2  0  0  0  0
 30 37  1  0  0  0  0
 31 36  2  0  0  0  0
 32 27  1  0  0  0  0
 32 33  1  0  0  0  0
 33 29  1  0  0  0  0
 34 25  1  0  0  0  0
 35 26  1  0  0  0  0
 35 25  1  0  0  0  0
 36 32  1  0  0  0  0
 38  1  1  0  0  0  0
 38 42  1  0  0  0  0
 38 39  1  0  0  0  0
 41 42  2  0  0  0  0
 42 40  1  0  0  0  0
M  END
>  <MODEL>
3

>  <REMARK>
 VINA RESULT:      -7.0      1.884      2.932
  Name = 
  10 active torsions:
  status: ('A' for Active; 'I' for Inactive)
    1  A    between atoms: C_3  and  C_23
    2  A    between atoms: C_4  and  C_13
    3  A    between atoms: C_4  and  C_23
    4  A    between atoms: C_5  and  C_13
    5  A    between atoms: N_9  and  C_24
    6  A    between atoms: C_11  and  C_16
    7  A    between atoms: C_11  and  C_33
    8  A    between atoms: C_13  and  C_35
    9  A    between atoms: O_19  and  C_22
   10  A    between atoms: C_29  and  C_35
                            x       y       z     vdW  Elec       q    Type
                         _______ _______ _______ _____ _____    ______ ____

>  <TORSDO>
F 10

$$$$
=
 OpenBabel11062419593D

 42 45  0  0  1  0  0  0  0  0999 V2000
  192.0390  175.5250  144.2800 C   0  0  2  0  0  3  0  0  0  0  0  0
  192.2890  174.4150  143.2380 C   0  0  1  0  0  3  0  0  0  0  0  0
  193.1320  171.3730  140.3440 C   0  0  0  0  0  3  0  0  0  0  0  0
  192.9700  172.3800  141.4580 C   0  0  1  0  0  3  0  0  0  0  0  0
  192.1720  170.5050  139.9920 C   0  0  0  0  0  3  0  0  0  0  0  0
  191.4820  173.1250  143.4550 C   0  0  2  0  0  3  0  0  0  0  0  0
  192.9560  173.8070  140.8740 C   0  0  1  0  0  3  0  0  0  0  0  0
  192.3130  174.8640  141.7790 C   0  0  0  0  0  2  0  0  0  0  0  0
  191.7490  172.0690  142.3540 C   0  0  1  0  0  3  0  0  0  0  0  0
  190.5220  171.6400  141.5370 C   0  0  1  0  0  3  0  0  0  0  0  0
  190.1010  172.6630  140.6830 O   0  0  0  0  0  1  0  0  0  0  0  0
  190.8660  170.3870  140.7370 C   0  0  0  0  0  2  0  0  0  0  0  0
  194.3140  174.2130  140.5420 N   0  0  0  0  0  2  0  0  0  0  0  0
  193.7150  175.1000  138.4650 O   0  0  0  0  0  0  0  0  0  0  0  0
  194.6230  174.8590  139.3060 C   0  0  0  0  0  0  0  0  0  0  0  0
  196.0350  175.2170  138.9940 C   0  0  0  0  0  2  0  0  0  0  0  0
  197.7370  174.9580  140.6420 O   0  0  0  0  0  0  0  0  0  0  0  0
  196.3040  176.7190  140.9670 O   0  0  0  0  0  1  0  0  0  0  0  0
  196.7470  175.6220  140.2390 C   0  0  0  0  0  0  0  0  0  0  0  0
  190.1150  173.3840  143.6070 O   0  0  0  0  0  0  0  0  0  0  0  0
  189.7730  172.8140  144.8360 C   0  0  0  0  0  1  0  0  0  0  0  0
  190.9220  176.5250  143.9080 C   0  0  2  0  0  3  0  0  0  0  0  0
  191.5190  177.8340  143.4110 C   0  0  0  0  0  1  0  0  0  0  0  0
  190.0260  176.8330  145.0970 C   0  0  0  0  0  2  0  0  0  0  0  0
  187.1290  177.4740  142.9830 C   0  0  2  0  0  3  0  0  0  0  0  0
  188.7140  177.4530  144.6420 C   0  0  1  0  0  3  0  0  0  0  0  0
  185.2100  176.8230  146.2480 C   0  0  0  0  0  2  0  0  0  0  0  0
  184.2410  178.6610  147.3580 O   0  0  0  0  0  0  0  0  0  0  0  0
  185.5780  178.8090  144.1320 C   0  0  0  0  0  2  0  0  0  0  0  0
  184.5990  178.1840  146.2940 C   0  0  0  0  0  0  0  0  0  0  0  0
  187.8760  177.5320  146.8700 O   0  0  0  0  0  0  0  0  0  0  0  0
  186.3400  176.7690  145.2070 C   0  0  1  0  0  3  0  0  0  0  0  0
  185.9800  177.4130  143.9180 N   0  0  2  0  0  0  0  0  0  0  0  0
  186.7230  176.8680  141.6530 C   0  0  0  0  0  1  0  0  0  0  0  0
  188.2850  176.8090  143.4610 O   0  0  0  0  0  0  0  0  0  0  0  0
  187.6690  177.2670  145.6960 C   0  0  0  0  0  0  0  0  0  0  0  0
  184.3390  178.9040  145.0160 C   0  0  0  0  0  2  0  0  0  0  0  0
  193.3540  176.2650  144.5870 C   0  0  2  0  0  3  0  0  0  0  0  0
  194.4410  175.5990  144.0060 O   0  0  0  0  0  1  0  0  0  0  0  0
  193.0340  175.6950  146.9130 N   0  0  0  0  0  1  0  0  0  0  0  0
  194.5830  177.4070  146.5080 N   0  0  0  0  0  2  0  0  0  0  0  0
  193.5980  176.4790  146.0570 C   0  0  0  0  0  0  0  0  0  0  0  0
  1 22  1  6  0  0  0
  1 38  1  0  0  0  0
  2  6  1  0  0  0  0
  2  1  1  1  0  0  0
  4  3  1  6  0  0  0
  4  9  1  0  0  0  0
  5  3  2  0  0  0  0
  5 12  1  0  0  0  0
  6 20  1  6  0  0  0
  7 13  1  1  0  0  0
  7  4  1  0  0  0  0
  7  8  1  0  0  0  0
  8  2  1  0  0  0  0
  9  6  1  0  0  0  0
 10  9  1  0  0  0  0
 11 10  1  0  0  0  0
 12 10  1  0  0  0  0
 14 15  2  0  0  0  0
 15 13  1  0  0  0  0
 16 15  1  0  0  0  0
 16 19  1  0  0  0  0
 19 17  2  0  0  0  0
 19 18  1  0  0  0  0
 20 21  1  0  0  0  0
 22 24  1  0  0  0  0
 23 22  1  0  0  0  0
 25 35  1  0  0  0  0
 25 33  1  0  0  0  0
 26 24  1  0  0  0  0
 26 36  1  0  0  0  0
 27 30  1  0  0  0  0
 29 37  1  0  0  0  0
 30 28  2  0  0  0  0
 32 36  1  0  0  0  0
 32 27  1  0  0  0  0
 33 29  1  0  0  0  0
 33 32  1  0  0  0  0
 34 25  1  0  0  0  0
 35 26  1  0  0  0  0
 36 31  2  0  0  0  0
 37 30  1  0  0  0  0
 38 42  1  0  0  0  0
 39 38  1  0  0  0  0
 42 41  2  0  0  0  0
 42 40  1  0  0  0  0
M  END
>  <MODEL>
4

>  <REMARK>
 VINA RESULT:      -7.0      2.918      9.036
  Name = 
  10 active torsions:
  status: ('A' for Active; 'I' for Inactive)
    1  A    between atoms: C_3  and  C_23
    2  A    between atoms: C_4  and  C_13
    3  A    between atoms: C_4  and  C_23
    4  A    between atoms: C_5  and  C_13
    5  A    between atoms: N_9  and  C_24
    6  A    between atoms: C_11  and  C_16
    7  A    between atoms: C_11  and  C_33
    8  A    between atoms: C_13  and  C_35
    9  A    between atoms: O_19  and  C_22
   10  A    between atoms: C_29  and  C_35
                            x       y       z     vdW  Elec       q    Type
                         _______ _______ _______ _____ _____    ______ ____

>  <TORSDO>
F 10

$$$$
=
 OpenBabel11062419593D

 42 45  0  0  1  0  0  0  0  0999 V2000
  190.3700  174.2740  141.7820 C   0  0  2  0  0  3  0  0  0  0  0  0
  191.6270  174.2870  142.6760 C   0  0  1  0  0  3  0  0  0  0  0  0
  195.1760  174.2080  145.0720 C   0  0  0  0  0  3  0  0  0  0  0  0
  194.0330  174.2400  144.0860 C   0  0  1  0  0  3  0  0  0  0  0  0
  195.3740  175.1570  145.9990 C   0  0  0  0  0  3  0  0  0  0  0  0
  192.1050  175.6840  143.1060 C   0  0  2  0  0  3  0  0  0  0  0  0
  193.0580  173.0820  144.3800 C   0  0  1  0  0  3  0  0  0  0  0  0
  191.6450  173.2740  143.8170 C   0  0  0  0  0  2  0  0  0  0  0  0
  193.3450  175.6240  144.0320 C   0  0  1  0  0  3  0  0  0  0  0  0
  193.1590  176.2360  145.4280 C   0  0  1  0  0  3  0  0  0  0  0  0
  192.3260  175.4410  146.2210 O   0  0  0  0  0  1  0  0  0  0  0  0
  194.5240  176.4000  146.0890 C   0  0  0  0  0  2  0  0  0  0  0  0
  193.6160  171.8350  143.8770 N   0  0  0  0  0  2  0  0  0  0  0  0
  194.2480  171.0730  145.9940 O   0  0  0  0  0  0  0  0  0  0  0  0
  194.2020  170.8680  144.7510 C   0  0  0  0  0  0  0  0  0  0  0  0
  194.7980  169.6260  144.1830 C   0  0  0  0  0  2  0  0  0  0  0  0
  192.7000  168.5050  144.3320 O   0  0  0  0  0  1  0  0  0  0  0  0
  193.8640  168.1720  142.3840 O   0  0  0  0  0  0  0  0  0  0  0  0
  193.7240  168.7450  143.6420 C   0  0  0  0  0  0  0  0  0  0  0  0
  191.0700  176.4380  143.6710 O   0  0  0  0  0  0  0  0  0  0  0  0
  191.0650  177.6370  142.9550 C   0  0  0  0  0  1  0  0  0  0  0  0
  189.0340  174.1300  142.5450 C   0  0  2  0  0  3  0  0  0  0  0  0
  188.3740  172.7970  142.2220 C   0  0  0  0  0  1  0  0  0  0  0  0
  188.0610  175.2410  142.1840 C   0  0  0  0  0  2  0  0  0  0  0  0
  187.5570  176.4010  145.6010 C   0  0  2  0  0  3  0  0  0  0  0  0
  187.3210  175.7370  143.4170 C   0  0  1  0  0  3  0  0  0  0  0  0
  185.6910  179.2610  143.8400 C   0  0  0  0  0  2  0  0  0  0  0  0
  183.3380  179.2990  143.9610 O   0  0  0  0  0  0  0  0  0  0  0  0
  185.3590  177.1780  145.8680 C   0  0  0  0  0  2  0  0  0  0  0  0
  184.3830  178.9630  144.4930 C   0  0  0  0  0  0  0  0  0  0  0  0
  185.8170  177.0340  142.1020 O   0  0  0  0  0  0  0  0  0  0  0  0
  186.6820  178.1060  144.0540 C   0  0  1  0  0  3  0  0  0  0  0  0
  186.7020  177.6030  145.4520 N   0  0  2  0  0  0  0  0  0  0  0  0
  188.5530  176.6320  146.7220 C   0  0  0  0  0  1  0  0  0  0  0  0
  188.2620  176.0550  144.4210 O   0  0  0  0  0  0  0  0  0  0  0  0
  186.5410  176.9700  143.0830 C   0  0  0  0  0  0  0  0  0  0  0  0
  184.3750  178.3430  145.8490 C   0  0  0  0  0  2  0  0  0  0  0  0
  190.5020  173.1830  140.7030 C   0  0  2  0  0  3  0  0  0  0  0  0
  191.7540  172.5600  140.7840 O   0  0  0  0  0  1  0  0  0  0  0  0
  191.2220  173.6630  138.4470 N   0  0  0  0  0  2  0  0  0  0  0  0
  188.9400  174.0040  138.8610 N   0  0  0  0  0  1  0  0  0  0  0  0
  190.2580  173.6840  139.3050 C   0  0  0  0  0  0  0  0  0  0  0  0
  1 38  1  6  0  0  0
  1 22  1  0  0  0  0
  2  1  1  1  0  0  0
  2  6  1  0  0  0  0
  2  8  1  0  0  0  0
  3  5  2  0  0  0  0
  4  7  1  0  0  0  0
  4  3  1  1  0  0  0
  5 12  1  0  0  0  0
  6 20  1  1  0  0  0
  6  9  1  0  0  0  0
  7 13  1  6  0  0  0
  8  7  1  0  0  0  0
  9  4  1  0  0  0  0
  9 10  1  0  0  0  0
 10 12  1  0  0  0  0
 10 11  1  0  0  0  0
 13 15  1  0  0  0  0
 15 14  2  0  0  0  0
 16 15  1  0  0  0  0
 18 19  2  0  0  0  0
 19 16  1  0  0  0  0
 19 17  1  0  0  0  0
 21 20  1  0  0  0  0
 23 22  1  0  0  0  0
 24 22  1  0  0  0  0
 24 26  1  0  0  0  0
 25 34  1  0  0  0  0
 26 35  1  0  0  0  0
 27 32  1  0  0  0  0
 27 30  1  0  0  0  0
 28 30  2  0  0  0  0
 30 37  1  0  0  0  0
 31 36  2  0  0  0  0
 32 33  1  0  0  0  0
 33 25  1  0  0  0  0
 33 29  1  0  0  0  0
 35 25  1  0  0  0  0
 36 26  1  0  0  0  0
 36 32  1  0  0  0  0
 37 29  1  0  0  0  0
 38 39  1  0  0  0  0
 40 42  2  0  0  0  0
 41 42  1  0  0  0  0
 42 38  1  0  0  0  0
M  END
>  <MODEL>
5

>  <REMARK>
 VINA RESULT:      -7.0      2.753      9.164
  Name = 
  10 active torsions:
  status: ('A' for Active; 'I' for Inactive)
    1  A    between atoms: C_3  and  C_23
    2  A    between atoms: C_4  and  C_13
    3  A    between atoms: C_4  and  C_23
    4  A    between atoms: C_5  and  C_13
    5  A    between atoms: N_9  and  C_24
    6  A    between atoms: C_11  and  C_16
    7  A    between atoms: C_11  and  C_33
    8  A    between atoms: C_13  and  C_35
    9  A    between atoms: O_19  and  C_22
   10  A    between atoms: C_29  and  C_35
                            x       y       z     vdW  Elec       q    Type
                         _______ _______ _______ _____ _____    ______ ____

>  <TORSDO>
F 10

$$$$
=
 OpenBabel11062419593D

 42 45  0  0  1  0  0  0  0  0999 V2000
  191.1060  175.4500  144.3180 C   0  0  2  0  0  3  0  0  0  0  0  0
  192.0720  174.2910  143.9940 C   0  0  1  0  0  3  0  0  0  0  0  0
  194.8720  171.1700  143.1220 C   0  0  0  0  0  3  0  0  0  0  0  0
  193.9760  172.2970  143.5790 C   0  0  1  0  0  3  0  0  0  0  0  0
  194.4310  169.9240  142.9000 C   0  0  0  0  0  3  0  0  0  0  0  0
  191.6160  172.9070  144.4840 C   0  0  2  0  0  3  0  0  0  0  0  0
  193.8580  173.3550  142.4640 C   0  0  1  0  0  3  0  0  0  0  0  0
  192.6300  174.2660  142.5730 C   0  0  0  0  0  2  0  0  0  0  0  0
  192.6100  171.7860  144.0910 C   0  0  1  0  0  3  0  0  0  0  0  0
  192.0340  170.6740  143.2030 C   0  0  1  0  0  3  0  0  0  0  0  0
  191.7930  171.1370  141.9070 O   0  0  0  0  0  1  0  0  0  0  0  0
  193.0100  169.5000  143.1750 C   0  0  0  0  0  2  0  0  0  0  0  0
  195.0640  174.1680  142.4310 N   0  0  0  0  0  2  0  0  0  0  0  0
  195.6890  173.4450  140.2980 O   0  0  0  0  0  0  0  0  0  0  0  0
  195.9430  174.1610  141.3050 C   0  0  0  0  0  0  0  0  0  0  0  0
  197.1890  174.9780  141.3360 C   0  0  0  0  0  2  0  0  0  0  0  0
  196.1660  177.1300  141.2930 O   0  0  0  0  0  0  0  0  0  0  0  0
  197.4700  176.6910  143.1280 O   0  0  0  0  0  1  0  0  0  0  0  0
  196.9040  176.3220  141.9140 C   0  0  0  0  0  0  0  0  0  0  0  0
  190.3110  172.6130  144.0740 O   0  0  0  0  0  0  0  0  0  0  0  0
  189.5750  172.5110  145.2570 C   0  0  0  0  0  1  0  0  0  0  0  0
  190.4860  176.1420  143.0840 C   0  0  2  0  0  3  0  0  0  0  0  0
  190.5360  177.6560  143.2390 C   0  0  0  0  0  1  0  0  0  0  0  0
  189.0370  175.7330  142.8820 C   0  0  0  0  0  2  0  0  0  0  0  0
  186.3110  178.1300  142.5680 C   0  0  2  0  0  3  0  0  0  0  0  0
  188.0950  176.8650  143.2620 C   0  0  1  0  0  3  0  0  0  0  0  0
  185.3010  176.6950  145.9860 C   0  0  0  0  0  2  0  0  0  0  0  0
  185.6470  178.0240  147.9010 O   0  0  0  0  0  0  0  0  0  0  0  0
  185.9450  179.2020  144.6240 C   0  0  0  0  0  2  0  0  0  0  0  0
  185.4320  177.9990  146.7010 C   0  0  0  0  0  0  0  0  0  0  0  0
  188.0450  176.1760  145.5420 O   0  0  0  0  0  0  0  0  0  0  0  0
  185.9370  176.7740  144.5890 C   0  0  1  0  0  3  0  0  0  0  0  0
  185.5750  178.0100  143.8500 N   0  0  2  0  0  0  0  0  0  0  0  0
  185.3190  178.3560  141.4430 C   0  0  0  0  0  1  0  0  0  0  0  0
  187.1070  176.9990  142.2620 O   0  0  0  0  0  0  0  0  0  0  0  0
  187.4220  176.5540  144.5620 C   0  0  0  0  0  0  0  0  0  0  0  0
  185.1930  179.2630  145.9490 C   0  0  0  0  0  2  0  0  0  0  0  0
  191.8030  176.4780  145.2280 C   0  0  2  0  0  3  0  0  0  0  0  0
  193.1920  176.4360  145.0450 O   0  0  0  0  0  1  0  0  0  0  0  0
  190.5970  177.1120  147.2240 N   0  0  0  0  0  2  0  0  0  0  0  0
  191.9410  175.2030  147.4330 N   0  0  0  0  0  1  0  0  0  0  0  0
  191.4650  176.3210  146.6860 C   0  0  0  0  0  0  0  0  0  0  0  0
  1 22  1  6  0  0  0
  1 38  1  0  0  0  0
  2  1  1  6  0  0  0
  2  6  1  0  0  0  0
  4  3  1  6  0  0  0
  4  9  1  0  0  0  0
  5  3  2  0  0  0  0
  5 12  1  0  0  0  0
  6 20  1  6  0  0  0
  7 13  1  1  0  0  0
  7  8  1  0  0  0  0
  7  4  1  0  0  0  0
  8  2  1  0  0  0  0
  9  6  1  0  0  0  0
 10  9  1  0  0  0  0
 11 10  1  0  0  0  0
 12 10  1  0  0  0  0
 14 15  2  0  0  0  0
 15 16  1  0  0  0  0
 15 13  1  0  0  0  0
 16 19  1  0  0  0  0
 17 19  2  0  0  0  0
 19 18  1  0  0  0  0
 20 21  1  0  0  0  0
 22 23  1  0  0  0  0
 24 22  1  0  0  0  0
 24 26  1  0  0  0  0
 25 33  1  0  0  0  0
 26 36  1  0  0  0  0
 27 30  1  0  0  0  0
 29 37  1  0  0  0  0
 30 28  2  0  0  0  0
 32 27  1  0  0  0  0
 33 32  1  0  0  0  0
 33 29  1  0  0  0  0
 34 25  1  0  0  0  0
 35 25  1  0  0  0  0
 35 26  1  0  0  0  0
 36 32  1  0  0  0  0
 36 31  2  0  0  0  0
 37 30  1  0  0  0  0
 38 42  1  0  0  0  0
 39 38  1  0  0  0  0
 42 40  2  0  0  0  0
 42 41  1  0  0  0  0
M  END
>  <MODEL>
6

>  <REMARK>
 VINA RESULT:      -7.0      2.524      9.194
  Name = 
  10 active torsions:
  status: ('A' for Active; 'I' for Inactive)
    1  A    between atoms: C_3  and  C_23
    2  A    between atoms: C_4  and  C_13
    3  A    between atoms: C_4  and  C_23
    4  A    between atoms: C_5  and  C_13
    5  A    between atoms: N_9  and  C_24
    6  A    between atoms: C_11  and  C_16
    7  A    between atoms: C_11  and  C_33
    8  A    between atoms: C_13  and  C_35
    9  A    between atoms: O_19  and  C_22
   10  A    between atoms: C_29  and  C_35
                            x       y       z     vdW  Elec       q    Type
                         _______ _______ _______ _____ _____    ______ ____

>  <TORSDO>
F 10

$$$$
=
 OpenBabel11062419593D

 42 45  0  0  1  0  0  0  0  0999 V2000
  190.8950  173.1820  142.2300 C   0  0  2  0  0  3  0  0  0  0  0  0
  190.2600  174.1300  143.2680 C   0  0  1  0  0  3  0  0  0  0  0  0
  188.3560  176.7220  146.0960 C   0  0  0  0  0  3  0  0  0  0  0  0
  188.9150  175.6820  145.1540 C   0  0  1  0  0  3  0  0  0  0  0  0
  189.0880  177.3270  147.0420 C   0  0  0  0  0  3  0  0  0  0  0  0
  190.9520  174.1510  144.6400 C   0  0  2  0  0  3  0  0  0  0  0  0
  188.9260  176.2340  143.7150 C   0  0  1  0  0  3  0  0  0  0  0  0
  189.8960  175.5240  142.7630 C   0  0  0  0  0  2  0  0  0  0  0  0
  190.2890  175.1500  145.6200 C   0  0  1  0  0  3  0  0  0  0  0  0
  191.2020  176.2710  146.1390 C   0  0  1  0  0  3  0  0  0  0  0  0
  191.4870  177.1960  145.1320 O   0  0  0  0  0  1  0  0  0  0  0  0
  190.5250  176.9620  147.3200 C   0  0  0  0  0  2  0  0  0  0  0  0
  187.5810  176.1850  143.1620 N   0  0  0  0  0  2  0  0  0  0  0  0
  187.5690  178.4440  142.5620 O   0  0  0  0  0  0  0  0  0  0  0  0
  186.9580  177.3410  142.5980 C   0  0  0  0  0  0  0  0  0  0  0  0
  185.5630  177.2510  142.0840 C   0  0  0  0  0  2  0  0  0  0  0  0
  183.5700  178.4210  142.6660 O   0  0  0  0  0  0  0  0  0  0  0  0
  184.9000  177.7940  144.4260 O   0  0  0  0  0  1  0  0  0  0  0  0
  184.6160  177.8490  143.0680 C   0  0  0  0  0  0  0  0  0  0  0  0
  192.3290  174.3690  144.5260 O   0  0  0  0  0  0  0  0  0  0  0  0
  192.9190  173.3660  145.3000 C   0  0  0  0  0  1  0  0  0  0  0  0
  191.0950  173.7970  140.8270 C   0  0  2  0  0  3  0  0  0  0  0  0
  190.0520  173.2610  139.8550 C   0  0  0  0  0  1  0  0  0  0  0  0
  192.4720  173.4800  140.2670 C   0  0  0  0  0  2  0  0  0  0  0  0
  195.1360  172.1110  142.3420 C   0  0  2  0  0  3  0  0  0  0  0  0
  193.5060  173.4090  141.3800 C   0  0  1  0  0  3  0  0  0  0  0  0
  196.8150  175.4770  141.5590 C   0  0  0  0  0  2  0  0  0  0  0  0
  196.9290  177.0920  143.2710 O   0  0  0  0  0  0  0  0  0  0  0  0
  195.9660  173.7700  143.7790 C   0  0  0  0  0  2  0  0  0  0  0  0
  196.8800  175.9070  142.9870 C   0  0  0  0  0  0  0  0  0  0  0  0
  194.0260  175.7240  141.1660 O   0  0  0  0  0  0  0  0  0  0  0  0
  195.8960  174.2550  141.4000 C   0  0  1  0  0  3  0  0  0  0  0  0
  196.1260  173.2110  142.4300 N   0  0  2  0  0  0  0  0  0  0  0  0
  195.8680  170.7850  142.2610 C   0  0  0  0  0  1  0  0  0  0  0  0
  194.2590  172.2230  141.2340 O   0  0  0  0  0  0  0  0  0  0  0  0
  194.4340  174.5800  141.2900 C   0  0  0  0  0  0  0  0  0  0  0  0
  196.9880  174.8690  144.0510 C   0  0  0  0  0  2  0  0  0  0  0  0
  190.0850  171.8760  142.1430 C   0  0  2  0  0  3  0  0  0  0  0  0
  189.0450  171.8780  143.0820 O   0  0  0  0  0  1  0  0  0  0  0  0
  190.8050  169.6820  141.4310 N   0  0  0  0  0  2  0  0  0  0  0  0
  191.9690  170.5700  143.2610 N   0  0  0  0  0  1  0  0  0  0  0  0
  190.9210  170.6340  142.2950 C   0  0  0  0  0  0  0  0  0  0  0  0
  1 22  1  6  0  0  0
  2  1  1  6  0  0  0
  2  6  1  0  0  0  0
  3  5  2  0  0  0  0
  4  9  1  0  0  0  0
  4  3  1  1  0  0  0
  5 12  1  0  0  0  0
  6 20  1  6  0  0  0
  6  9  1  0  0  0  0
  7 13  1  6  0  0  0
  7  4  1  0  0  0  0
  8  2  1  0  0  0  0
  8  7  1  0  0  0  0
  9 10  1  0  0  0  0
 10 12  1  0  0  0  0
 11 10  1  0  0  0  0
 14 15  2  0  0  0  0
 15 13  1  0  0  0  0
 16 15  1  0  0  0  0
 16 19  1  0  0  0  0
 17 19  2  0  0  0  0
 19 18  1  0  0  0  0
 20 21  1  0  0  0  0
 23 22  1  0  0  0  0
 24 22  1  0  0  0  0
 24 26  1  0  0  0  0
 25 33  1  0  0  0  0
 27 30  1  0  0  0  0
 29 37  1  0  0  0  0
 30 28  2  0  0  0  0
 30 37  1  0  0  0  0
 31 36  2  0  0  0  0
 32 27  1  0  0  0  0
 32 33  1  0  0  0  0
 33 29  1  0  0  0  0
 34 25  1  0  0  0  0
 35 26  1  0  0  0  0
 35 25  1  0  0  0  0
 36 26  1  0  0  0  0
 36 32  1  0  0  0  0
 38  1  1  0  0  0  0
 38 42  1  0  0  0  0
 38 39  1  0  0  0  0
 40 42  2  0  0  0  0
 42 41  1  0  0  0  0
M  END
>  <MODEL>
7

>  <REMARK>
 VINA RESULT:      -6.9      2.227      3.626
  Name = 
  10 active torsions:
  status: ('A' for Active; 'I' for Inactive)
    1  A    between atoms: C_3  and  C_23
    2  A    between atoms: C_4  and  C_13
    3  A    between atoms: C_4  and  C_23
    4  A    between atoms: C_5  and  C_13
    5  A    between atoms: N_9  and  C_24
    6  A    between atoms: C_11  and  C_16
    7  A    between atoms: C_11  and  C_33
    8  A    between atoms: C_13  and  C_35
    9  A    between atoms: O_19  and  C_22
   10  A    between atoms: C_29  and  C_35
                            x       y       z     vdW  Elec       q    Type
                         _______ _______ _______ _____ _____    ______ ____

>  <TORSDO>
F 10

$$$$
=
 OpenBabel11062419593D

 42 45  0  0  1  0  0  0  0  0999 V2000
  190.5880  173.5160  141.0060 C   0  0  2  0  0  3  0  0  0  0  0  0
  192.1280  173.6090  141.0300 C   0  0  1  0  0  3  0  0  0  0  0  0
  196.4010  173.8160  141.2410 C   0  0  0  0  0  3  0  0  0  0  0  0
  194.9090  173.5770  141.2290 C   0  0  1  0  0  3  0  0  0  0  0  0
  197.1080  174.1080  140.1400 C   0  0  0  0  0  3  0  0  0  0  0  0
  192.8240  173.2080  139.7200 C   0  0  2  0  0  3  0  0  0  0  0  0
  194.1940  174.7070  141.9950 C   0  0  1  0  0  3  0  0  0  0  0  0
  192.7100  174.8770  141.6500 C   0  0  0  0  0  2  0  0  0  0  0  0
  194.3640  173.3620  139.7980 C   0  0  1  0  0  3  0  0  0  0  0  0
  194.9830  174.3360  138.7860 C   0  0  1  0  0  3  0  0  0  0  0  0
  194.6710  175.6610  139.1040 O   0  0  0  0  0  1  0  0  0  0  0  0
  196.4960  174.1380  138.7610 C   0  0  0  0  0  2  0  0  0  0  0  0
  194.3370  174.4930  143.4280 N   0  0  0  0  0  2  0  0  0  0  0  0
  195.4140  176.5350  143.7900 O   0  0  0  0  0  0  0  0  0  0  0  0
  194.9660  175.4600  144.2720 C   0  0  0  0  0  0  0  0  0  0  0  0
  195.1280  175.1750  145.7250 C   0  0  0  0  0  2  0  0  0  0  0  0
  192.9930  175.2330  146.7830 O   0  0  0  0  0  0  0  0  0  0  0  0
  194.2050  177.1770  146.8930 O   0  0  0  0  0  1  0  0  0  0  0  0
  194.0510  175.8540  146.5010 C   0  0  0  0  0  0  0  0  0  0  0  0
  192.2890  173.8830  138.6170 O   0  0  0  0  0  0  0  0  0  0  0  0
  192.2950  172.9450  137.5810 C   0  0  0  0  0  1  0  0  0  0  0  0
  189.8850  174.0750  142.2640 C   0  0  2  0  0  3  0  0  0  0  0  0
  189.3140  172.9420  143.1060 C   0  0  0  0  0  1  0  0  0  0  0  0
  188.7480  175.0140  141.8980 C   0  0  0  0  0  2  0  0  0  0  0  0
  188.7460  176.8800  145.0280 C   0  0  2  0  0  3  0  0  0  0  0  0
  188.1950  175.7040  143.1360 C   0  0  1  0  0  3  0  0  0  0  0  0
  186.1630  179.0400  143.1760 C   0  0  0  0  0  2  0  0  0  0  0  0
  183.9000  178.8600  143.8070 O   0  0  0  0  0  0  0  0  0  0  0  0
  186.5490  177.4650  145.6110 C   0  0  0  0  0  2  0  0  0  0  0  0
  185.0670  178.7670  144.1520 C   0  0  0  0  0  0  0  0  0  0  0  0
  186.2850  176.4940  141.9500 O   0  0  0  0  0  0  0  0  0  0  0  0
  187.3400  178.0760  143.3980 C   0  0  1  0  0  3  0  0  0  0  0  0
  187.7060  177.9180  144.8280 N   0  0  2  0  0  0  0  0  0  0  0  0
  189.8930  177.4690  145.8270 C   0  0  0  0  0  1  0  0  0  0  0  0
  189.2530  176.3440  143.8180 O   0  0  0  0  0  0  0  0  0  0  0  0
  187.1880  176.7370  142.7370 C   0  0  0  0  0  0  0  0  0  0  0  0
  185.4160  178.4840  145.5720 C   0  0  0  0  0  2  0  0  0  0  0  0
  190.1520  172.0640  140.7380 C   0  0  2  0  0  3  0  0  0  0  0  0
  191.2510  171.1980  140.8140 O   0  0  0  0  0  1  0  0  0  0  0  0
  188.7070  172.8420  138.9650 N   0  0  0  0  0  1  0  0  0  0  0  0
  189.6910  170.7450  138.6040 N   0  0  0  0  0  2  0  0  0  0  0  0
  189.4340  171.8810  139.4280 C   0  0  0  0  0  0  0  0  0  0  0  0
  1 38  1  1  0  0  0
  1 22  1  0  0  0  0
  2  1  1  6  0  0  0
  2  8  1  0  0  0  0
  4  3  1  6  0  0  0
  4  7  1  0  0  0  0
  5  3  2  0  0  0  0
  6 20  1  6  0  0  0
  6  9  1  0  0  0  0
  6  2  1  0  0  0  0
  7 13  1  1  0  0  0
  8  7  1  0  0  0  0
  9  4  1  0  0  0  0
 10 11  1  0  0  0  0
 10  9  1  0  0  0  0
 12 10  1  0  0  0  0
 12  5  1  0  0  0  0
 13 15  1  0  0  0  0
 14 15  2  0  0  0  0
 15 16  1  0  0  0  0
 16 19  1  0  0  0  0
 19 17  2  0  0  0  0
 19 18  1  0  0  0  0
 21 20  1  0  0  0  0
 22 23  1  0  0  0  0
 24 22  1  0  0  0  0
 24 26  1  0  0  0  0
 25 34  1  0  0  0  0
 26 35  1  0  0  0  0
 27 32  1  0  0  0  0
 27 30  1  0  0  0  0
 28 30  2  0  0  0  0
 30 37  1  0  0  0  0
 31 36  2  0  0  0  0
 32 33  1  0  0  0  0
 33 25  1  0  0  0  0
 33 29  1  0  0  0  0
 35 25  1  0  0  0  0
 36 26  1  0  0  0  0
 36 32  1  0  0  0  0
 37 29  1  0  0  0  0
 38 39  1  0  0  0  0
 40 42  1  0  0  0  0
 41 42  2  0  0  0  0
 42 38  1  0  0  0  0
M  END
>  <MODEL>
8

>  <REMARK>
 VINA RESULT:      -6.3      3.093      9.455
  Name = 
  10 active torsions:
  status: ('A' for Active; 'I' for Inactive)
    1  A    between atoms: C_3  and  C_23
    2  A    between atoms: C_4  and  C_13
    3  A    between atoms: C_4  and  C_23
    4  A    between atoms: C_5  and  C_13
    5  A    between atoms: N_9  and  C_24
    6  A    between atoms: C_11  and  C_16
    7  A    between atoms: C_11  and  C_33
    8  A    between atoms: C_13  and  C_35
    9  A    between atoms: O_19  and  C_22
   10  A    between atoms: C_29  and  C_35
                            x       y       z     vdW  Elec       q    Type
                         _______ _______ _______ _____ _____    ______ ____

>  <TORSDO>
F 10

$$$$
=
 OpenBabel11062419593D

 42 45  0  0  1  0  0  0  0  0999 V2000
  191.0520  174.8420  143.3630 C   0  0  2  0  0  3  0  0  0  0  0  0
  191.2440  173.8640  142.1850 C   0  0  1  0  0  3  0  0  0  0  0  0
  191.9050  171.0940  138.9870 C   0  0  0  0  0  3  0  0  0  0  0  0
  191.6900  171.9320  140.2240 C   0  0  1  0  0  3  0  0  0  0  0  0
  190.9880  170.9670  138.0170 C   0  0  0  0  0  3  0  0  0  0  0  0
  189.9470  173.2680  141.6160 C   0  0  2  0  0  3  0  0  0  0  0  0
  192.6500  173.1380  140.2110 C   0  0  1  0  0  3  0  0  0  0  0  0
  192.2220  174.3100  141.1010 C   0  0  0  0  0  2  0  0  0  0  0  0
  190.2080  172.3280  140.4130 C   0  0  1  0  0  3  0  0  0  0  0  0
  189.5440  172.7440  139.0930 C   0  0  1  0  0  3  0  0  0  0  0  0
  190.1610  173.8740  138.5510 O   0  0  0  0  0  1  0  0  0  0  0  0
  189.6120  171.5780  138.1090 C   0  0  0  0  0  2  0  0  0  0  0  0
  193.9870  172.7040  140.5900 N   0  0  0  0  0  2  0  0  0  0  0  0
  195.0490  174.0030  138.9640 O   0  0  0  0  0  0  0  0  0  0  0  0
  195.1520  173.1810  139.9150 C   0  0  0  0  0  0  0  0  0  0  0  0
  196.4950  172.6730  140.3120 C   0  0  0  0  0  2  0  0  0  0  0  0
  196.8410  174.2450  142.0700 O   0  0  0  0  0  0  0  0  0  0  0  0
  196.9960  172.0380  142.6720 O   0  0  0  0  0  1  0  0  0  0  0  0
  196.7780  173.0350  141.7300 C   0  0  0  0  0  0  0  0  0  0  0  0
  189.0090  174.2600  141.3070 O   0  0  0  0  0  0  0  0  0  0  0  0
  187.8610  173.9070  142.0190 C   0  0  0  0  0  1  0  0  0  0  0  0
  191.8600  176.1550  143.2540 C   0  0  2  0  0  3  0  0  0  0  0  0
  192.6880  176.3790  144.5120 C   0  0  0  0  0  1  0  0  0  0  0  0
  190.9510  177.3580  143.0650 C   0  0  0  0  0  2  0  0  0  0  0  0
  188.2020  177.1480  145.4480 C   0  0  2  0  0  3  0  0  0  0  0  0
  189.5540  177.0710  143.5950 C   0  0  1  0  0  3  0  0  0  0  0  0
  186.3170  179.0680  142.7040 C   0  0  0  0  0  2  0  0  0  0  0  0
  184.7080  177.9060  141.4350 O   0  0  0  0  0  0  0  0  0  0  0  0
  186.2060  176.6360  144.3260 C   0  0  0  0  0  2  0  0  0  0  0  0
  185.2950  178.0000  142.5000 C   0  0  0  0  0  0  0  0  0  0  0  0
  188.5410  177.7560  141.5500 O   0  0  0  0  0  0  0  0  0  0  0  0
  187.4910  178.5430  143.5470 C   0  0  1  0  0  3  0  0  0  0  0  0
  187.0570  177.7610  144.7330 N   0  0  2  0  0  0  0  0  0  0  0  0
  188.1360  177.5290  146.9150 C   0  0  0  0  0  1  0  0  0  0  0  0
  189.4650  177.5280  144.9280 O   0  0  0  0  0  0  0  0  0  0  0  0
  188.5360  177.7960  142.7710 C   0  0  0  0  0  0  0  0  0  0  0  0
  184.9300  177.1190  143.6450 C   0  0  0  0  0  2  0  0  0  0  0  0
  191.3480  174.1280  144.6950 C   0  0  2  0  0  3  0  0  0  0  0  0
  192.2860  173.1040  144.5070 O   0  0  0  0  0  1  0  0  0  0  0  0
  189.6380  172.4500  145.0120 N   0  0  0  0  0  2  0  0  0  0  0  0
  189.5900  174.2260  146.5400 N   0  0  0  0  0  1  0  0  0  0  0  0
  190.1190  173.5910  145.3780 C   0  0  0  0  0  0  0  0  0  0  0  0
  1 22  1  6  0  0  0
  1 38  1  0  0  0  0
  2  1  1  6  0  0  0
  4  3  1  6  0  0  0
  4  9  1  0  0  0  0
  5 12  1  0  0  0  0
  5  3  2  0  0  0  0
  6 20  1  6  0  0  0
  6  2  1  0  0  0  0
  7  4  1  0  0  0  0
  7 13  1  1  0  0  0
  7  8  1  0  0  0  0
  8  2  1  0  0  0  0
  9  6  1  0  0  0  0
 10  9  1  0  0  0  0
 11 10  1  0  0  0  0
 12 10  1  0  0  0  0
 14 15  2  0  0  0  0
 15 16  1  0  0  0  0
 15 13  1  0  0  0  0
 16 19  1  0  0  0  0
 19 17  2  0  0  0  0
 19 18  1  0  0  0  0
 20 21  1  0  0  0  0
 22 23  1  0  0  0  0
 24 22  1  0  0  0  0
 24 26  1  0  0  0  0
 25 34  1  0  0  0  0
 26 35  1  0  0  0  0
 27 32  1  0  0  0  0
 28 30  2  0  0  0  0
 29 33  1  0  0  0  0
 30 27  1  0  0  0  0
 30 37  1  0  0  0  0
 31 36  2  0  0  0  0
 32 33  1  0  0  0  0
 33 25  1  0  0  0  0
 35 25  1  0  0  0  0
 36 32  1  0  0  0  0
 36 26  1  0  0  0  0
 37 29  1  0  0  0  0
 38 42  1  0  0  0  0
 39 38  1  0  0  0  0
 40 42  2  0  0  0  0
 42 41  1  0  0  0  0
M  END
>  <MODEL>
9

>  <REMARK>
 VINA RESULT:      -6.2      2.973      9.074
  Name = 
  10 active torsions:
  status: ('A' for Active; 'I' for Inactive)
    1  A    between atoms: C_3  and  C_23
    2  A    between atoms: C_4  and  C_13
    3  A    between atoms: C_4  and  C_23
    4  A    between atoms: C_5  and  C_13
    5  A    between atoms: N_9  and  C_24
    6  A    between atoms: C_11  and  C_16
    7  A    between atoms: C_11  and  C_33
    8  A    between atoms: C_13  and  C_35
    9  A    between atoms: O_19  and  C_22
   10  A    between atoms: C_29  and  C_35
                            x       y       z     vdW  Elec       q    Type
                         _______ _______ _______ _____ _____    ______ ____

>  <TORSDO>
F 10

$$$$
