=
 OpenBabel11062422113D

 44 47  0  0  1  0  0  0  0  0999 V2000
  188.7720  175.8190  147.2210 C   0  0  0  0  0  2  0  0  0  0  0  0
  191.9400  174.8590  147.3840 O   0  0  0  0  0  0  0  0  0  0  0  0
  193.6180  173.3760  144.0790 O   0  0  0  0  0  0  0  0  0  0  0  0
  187.7570  177.0980  141.7770 C   0  0  2  0  0  3  0  0  0  0  0  0
  186.4980  177.3910  142.6050 C   0  0  1  0  0  3  0  0  0  0  0  0
  189.2830  176.3270  145.8670 C   0  0  2  0  0  3  0  0  0  0  0  0
  190.8150  176.5640  145.8220 C   0  0  1  0  0  3  0  0  0  0  0  0
  186.3840  176.7530  145.5330 O   0  0  0  0  0  0  0  0  0  0  0  0
  194.7190  174.0570  141.9630 C   0  0  0  0  0  2  0  0  0  0  0  0
  190.8930  175.1930  148.2630 C   0  0  0  0  0  2  0  0  0  0  0  0
  191.0160  176.8690  143.3210 C   0  0  0  0  0  0  0  0  0  0  0  0
  191.7130  175.3140  146.0600 C   0  0  2  0  0  3  0  0  0  0  0  0
  187.4270  176.5340  140.5430 O   0  0  0  0  0  1  0  0  0  0  0  0
  192.1800  176.8070  142.3730 C   0  0  0  0  0  2  0  0  0  0  0  0
  192.5760  174.3130  143.9860 C   0  0  2  0  0  3  0  0  0  0  0  0
  194.4670  176.0450  140.7350 O   0  0  0  0  0  0  0  0  0  0  0  0
  188.6440  176.1470  142.5020 C   0  0  0  0  0  3  0  0  0  0  0  0
  191.5510  174.1520  145.0910 C   0  0  0  0  0  2  0  0  0  0  0  0
  186.8450  178.2790  143.7940 C   0  0  0  0  0  2  0  0  0  0  0  0
  187.2120  177.4810  145.0050 C   0  0  0  0  0  0  0  0  0  0  0  0
  192.4450  175.4040  141.7720 C   0  0  1  0  0  3  0  0  0  0  0  0
  193.9140  175.2320  141.4600 C   0  0  0  0  0  0  0  0  0  0  0  0
  194.7870  173.9410  143.5030 C   0  0  1  0  0  3  0  0  0  0  0  0
  191.9090  174.2510  142.6280 C   0  0  0  0  0  2  0  0  0  0  0  0
  189.8250  176.5220  142.9050 C   0  0  0  0  0  0  0  0  0  0  0  0
  191.2440  177.2760  144.6480 O   0  0  0  0  0  0  0  0  0  0  0  0
  189.5560  174.6530  147.7890 C   0  0  0  0  0  2  0  0  0  0  0  0
  188.5710  177.6550  145.6120 C   0  0  0  0  0  2  0  0  0  0  0  0
  195.3340  175.1770  144.2550 C   0  0  2  0  0  3  0  0  0  0  0  0
  196.8010  176.8170  143.0530 O   0  0  0  0  0  0  0  0  0  0  0  0
  197.6680  174.8650  143.8830 O   0  0  0  0  0  1  0  0  0  0  0  0
  196.6660  175.6070  143.7250 C   0  0  0  0  0  0  0  0  0  0  0  0
  195.4710  174.8950  145.7190 C   0  0  0  0  0  3  0  0  0  0  0  0
  195.0780  175.6970  146.5510 O   0  0  0  0  0  0  0  0  0  0  0  0
  185.4470  178.1290  141.7820 C   0  0  0  0  0  2  0  0  0  0  0  0
  184.3480  178.7580  143.7960 O   0  0  0  0  0  0  0  0  0  0  0  0
  184.2210  178.4110  142.5920 C   0  0  0  0  0  0  0  0  0  0  0  0
  182.5770  177.9960  140.6760 C   0  0  0  0  0  0  0  0  0  0  0  0
  183.4750  177.8310  139.8080 O   0  0  0  0  0  0  0  0  0  0  0  0
  182.9030  178.3080  142.0360 N   0  0  0  0  0  2  0  0  0  0  0  0
  181.1480  177.9040  140.2730 C   0  0  0  0  0  2  0  0  0  0  0  0
  180.3070  178.8190  141.1420 C   0  0  0  0  0  2  0  0  0  0  0  0
  179.2250  178.0100  141.8250 C   0  0  0  0  0  2  0  0  0  0  0  0
  178.7660  178.7350  143.0730 C   0  0  0  0  0  1  0  0  0  0  0  0
  1 27  1  0  0  0  0
  2 10  1  0  0  0  0
  4 13  1  6  0  0  0
  4 17  1  0  0  0  0
  4  5  1  0  0  0  0
  5 35  1  6  0  0  0
  5 19  1  0  0  0  0
  6 28  1  1  0  0  0
  6  1  1  0  0  0  0
  7 26  1  6  0  0  0
  7  6  1  0  0  0  0
  7 12  1  0  0  0  0
  9 23  1  0  0  0  0
 11 26  1  0  0  0  0
 12 18  1  6  0  0  0
 12  2  1  0  0  0  0
 14 11  1  0  0  0  0
 15 24  1  6  0  0  0
 15  3  1  0  0  0  0
 15 18  1  0  0  0  0
 16 22  2  0  0  0  0
 17 25  2  0  0  0  0
 19 20  1  0  0  0  0
 20  8  2  0  0  0  0
 20 28  1  0  0  0  0
 21 14  1  1  0  0  0
 21 24  1  0  0  0  0
 22 21  1  0  0  0  0
 22  9  1  0  0  0  0
 23  3  1  0  0  0  0
 23 29  1  1  0  0  0
 25 11  2  0  0  0  0
 27 10  1  0  0  0  0
 29 33  1  1  0  0  0
 30 32  2  0  0  0  0
 32 31  1  0  0  0  0
 32 29  1  0  0  0  0
 33 34  2  0  0  0  0
 35 37  1  0  0  0  0
 37 36  2  0  0  0  0
 38 40  1  0  0  0  0
 39 38  2  0  0  0  0
 40 37  1  0  0  0  0
 41 38  1  0  0  0  0
 41 42  1  0  0  0  0
 42 43  1  0  0  0  0
 43 44  1  0  0  0  0
M  END
>  <MODEL>
1

>  <REMARK>
 VINA RESULT:      -8.1      0.000      0.000
  Name = 
  8 active torsions:
  status: ('A' for Active; 'I' for Inactive)
    1  A    between atoms: C_6  and  C_8
    2  A    between atoms: C_6  and  C_18
    3  A    between atoms: C_6  and  C_37
    4  A    between atoms: C_9  and  C_40
    5  A    between atoms: C_13  and  C_40
    6  A    between atoms: C_23  and  C_33
    7  A    between atoms: C_30  and  C_34
    8  A    between atoms: C_33  and  C_34
                            x       y       z     vdW  Elec       q    Type
                         _______ _______ _______ _____ _____    ______ ____

>  <TORSDO>
F 8

$$$$
=
 OpenBabel11062422113D

 44 47  0  0  1  0  0  0  0  0999 V2000
  192.5010  176.4040  145.6120 C   0  0  0  0  0  2  0  0  0  0  0  0
  194.1520  173.5610  145.1920 O   0  0  0  0  0  0  0  0  0  0  0  0
  192.1240  170.4020  143.8360 O   0  0  0  0  0  0  0  0  0  0  0  0
  188.0590  176.2220  142.0720 C   0  0  2  0  0  3  0  0  0  0  0  0
  188.0720  177.5770  142.7930 C   0  0  1  0  0  3  0  0  0  0  0  0
  191.8810  175.9180  144.2960 C   0  0  2  0  0  3  0  0  0  0  0  0
  192.7790  174.9320  143.5060 C   0  0  1  0  0  3  0  0  0  0  0  0
  190.1010  178.1870  144.9150 O   0  0  0  0  0  0  0  0  0  0  0  0
  191.2930  169.3530  141.7470 C   0  0  0  0  0  2  0  0  0  0  0  0
  194.3350  174.8020  145.8300 C   0  0  0  0  0  2  0  0  0  0  0  0
  191.0380  174.1900  141.8310 C   0  0  0  0  0  0  0  0  0  0  0  0
  193.1230  173.5900  144.2170 C   0  0  2  0  0  3  0  0  0  0  0  0
  186.7580  175.7340  141.9420 O   0  0  0  0  0  1  0  0  0  0  0  0
  190.9430  173.0070  140.9090 C   0  0  0  0  0  2  0  0  0  0  0  0
  191.7230  171.7040  143.4920 C   0  0  2  0  0  3  0  0  0  0  0  0
  190.7530  170.3650  139.6950 O   0  0  0  0  0  0  0  0  0  0  0  0
  188.8580  175.2230  142.8330 C   0  0  0  0  0  3  0  0  0  0  0  0
  191.9550  172.6980  144.6110 C   0  0  0  0  0  2  0  0  0  0  0  0
  189.4380  178.2370  142.6520 C   0  0  0  0  0  2  0  0  0  0  0  0
  190.3630  177.8610  143.7660 C   0  0  0  0  0  0  0  0  0  0  0  0
  190.2340  171.7720  141.5190 C   0  0  1  0  0  3  0  0  0  0  0  0
  190.7760  170.4990  140.9090 C   0  0  0  0  0  0  0  0  0  0  0  0
  192.4950  169.7140  142.6500 C   0  0  1  0  0  3  0  0  0  0  0  0
  190.2750  171.7280  143.0510 C   0  0  0  0  0  2  0  0  0  0  0  0
  189.9440  174.7160  142.3200 C   0  0  0  0  0  0  0  0  0  0  0  0
  192.3090  174.6850  142.1680 O   0  0  0  0  0  0  0  0  0  0  0  0
  193.0600  175.3000  146.4870 C   0  0  0  0  0  2  0  0  0  0  0  0
  191.6510  177.1660  143.4460 C   0  0  0  0  0  2  0  0  0  0  0  0
  193.7320  170.3030  141.9340 C   0  0  2  0  0  3  0  0  0  0  0  0
  194.6740  168.1670  141.0200 O   0  0  0  0  0  1  0  0  0  0  0  0
  194.1050  169.8870  139.6160 O   0  0  0  0  0  0  0  0  0  0  0  0
  194.1760  169.4450  140.7920 C   0  0  0  0  0  0  0  0  0  0  0  0
  194.8780  170.4600  142.8860 C   0  0  0  0  0  3  0  0  0  0  0  0
  195.6570  171.3930  142.7800 O   0  0  0  0  0  0  0  0  0  0  0  0
  187.0440  178.5360  142.2000 C   0  0  0  0  0  2  0  0  0  0  0  0
  185.8450  178.7050  144.2470 O   0  0  0  0  0  0  0  0  0  0  0  0
  185.7800  178.5410  143.0010 C   0  0  0  0  0  0  0  0  0  0  0  0
  184.2290  178.2510  140.9870 C   0  0  0  0  0  0  0  0  0  0  0  0
  185.1540  178.3310  140.1350 O   0  0  0  0  0  0  0  0  0  0  0  0
  184.4930  178.3780  142.3890 N   0  0  0  0  0  2  0  0  0  0  0  0
  182.8280  178.0590  140.5240 C   0  0  0  0  0  2  0  0  0  0  0  0
  181.8650  178.4000  141.6450 C   0  0  0  0  0  2  0  0  0  0  0  0
  180.5920  178.9720  141.0580 C   0  0  0  0  0  2  0  0  0  0  0  0
  179.3970  178.2480  141.6440 C   0  0  0  0  0  1  0  0  0  0  0  0
  1 27  1  0  0  0  0
  2 10  1  0  0  0  0
  4 13  1  1  0  0  0
  4  5  1  0  0  0  0
  4 17  1  0  0  0  0
  5 35  1  6  0  0  0
  6 28  1  6  0  0  0
  6  1  1  0  0  0  0
  7 26  1  6  0  0  0
  7 12  1  0  0  0  0
  7  6  1  0  0  0  0
  9 23  1  0  0  0  0
 10 27  1  0  0  0  0
 11 26  1  0  0  0  0
 11 25  2  0  0  0  0
 12 18  1  1  0  0  0
 12  2  1  0  0  0  0
 14 11  1  0  0  0  0
 15 24  1  1  0  0  0
 15  3  1  0  0  0  0
 15 18  1  0  0  0  0
 16 22  2  0  0  0  0
 19  5  1  0  0  0  0
 19 20  1  0  0  0  0
 20  8  2  0  0  0  0
 21 14  1  6  0  0  0
 21 24  1  0  0  0  0
 22 21  1  0  0  0  0
 22  9  1  0  0  0  0
 23 29  1  6  0  0  0
 23  3  1  0  0  0  0
 25 17  2  0  0  0  0
 28 20  1  0  0  0  0
 29 33  1  1  0  0  0
 31 32  2  0  0  0  0
 32 30  1  0  0  0  0
 32 29  1  0  0  0  0
 34 33  2  0  0  0  0
 35 37  1  0  0  0  0
 37 36  2  0  0  0  0
 38 40  1  0  0  0  0
 39 38  2  0  0  0  0
 40 37  1  0  0  0  0
 41 38  1  0  0  0  0
 41 42  1  0  0  0  0
 43 44  1  0  0  0  0
 43 42  1  0  0  0  0
M  END
>  <MODEL>
2

>  <REMARK>
 VINA RESULT:      -8.0      2.736      3.968
  Name = 
  8 active torsions:
  status: ('A' for Active; 'I' for Inactive)
    1  A    between atoms: C_6  and  C_8
    2  A    between atoms: C_6  and  C_18
    3  A    between atoms: C_6  and  C_37
    4  A    between atoms: C_9  and  C_40
    5  A    between atoms: C_13  and  C_40
    6  A    between atoms: C_23  and  C_33
    7  A    between atoms: C_30  and  C_34
    8  A    between atoms: C_33  and  C_34
                            x       y       z     vdW  Elec       q    Type
                         _______ _______ _______ _____ _____    ______ ____

>  <TORSDO>
F 8

$$$$
=
 OpenBabel11062422113D

 44 47  0  0  1  0  0  0  0  0999 V2000
  190.0270  171.2620  141.3330 C   0  0  0  0  0  2  0  0  0  0  0  0
  192.4530  169.1890  142.2270 O   0  0  0  0  0  0  0  0  0  0  0  0
  196.0670  170.7310  142.9340 O   0  0  0  0  0  0  0  0  0  0  0  0
  191.4260  176.3650  143.4100 C   0  0  2  0  0  3  0  0  0  0  0  0
  190.0570  176.4600  142.7200 C   0  0  1  0  0  3  0  0  0  0  0  0
  190.7240  172.1040  142.4100 C   0  0  2  0  0  3  0  0  0  0  0  0
  191.5360  171.2670  143.4320 C   0  0  1  0  0  3  0  0  0  0  0  0
  188.8730  174.1070  141.2890 O   0  0  0  0  0  0  0  0  0  0  0  0
  197.4090  171.8590  144.6880 C   0  0  0  0  0  2  0  0  0  0  0  0
  191.1630  169.1240  141.6690 C   0  0  0  0  0  2  0  0  0  0  0  0
  192.7560  173.1940  144.5210 C   0  0  0  0  0  0  0  0  0  0  0  0
  192.7180  170.4320  142.8560 C   0  0  2  0  0  3  0  0  0  0  0  0
  192.1980  177.4980  143.1520 O   0  0  0  0  0  1  0  0  0  0  0  0
  193.9890  173.2730  145.3770 C   0  0  0  0  0  2  0  0  0  0  0  0
  194.9120  171.5040  143.1420 C   0  0  2  0  0  3  0  0  0  0  0  0
  196.6810  173.1840  146.4880 O   0  0  0  0  0  0  0  0  0  0  0  0
  192.1690  175.1720  142.9200 C   0  0  0  0  0  3  0  0  0  0  0  0
  193.8200  171.1970  142.1380 C   0  0  0  0  0  2  0  0  0  0  0  0
  189.1200  175.3840  143.2560 C   0  0  0  0  0  2  0  0  0  0  0  0
  189.2070  174.1170  142.4640 C   0  0  0  0  0  0  0  0  0  0  0  0
  195.3070  173.4690  144.5890 C   0  0  1  0  0  3  0  0  0  0  0  0
  196.4660  172.8460  145.3340 C   0  0  0  0  0  0  0  0  0  0  0  0
  196.7320  170.5660  144.1780 C   0  0  1  0  0  3  0  0  0  0  0  0
  195.2400  172.9820  143.1370 C   0  0  0  0  0  2  0  0  0  0  0  0
  192.4550  174.1930  143.7300 C   0  0  0  0  0  0  0  0  0  0  0  0
  191.9690  172.0300  144.5730 O   0  0  0  0  0  0  0  0  0  0  0  0
  190.9190  170.2360  140.6650 C   0  0  0  0  0  2  0  0  0  0  0  0
  189.6170  172.8510  143.1520 C   0  0  0  0  0  2  0  0  0  0  0  0
  195.9310  169.7580  145.2250 C   0  0  2  0  0  3  0  0  0  0  0  0
  197.9230  168.5690  146.1750 O   0  0  0  0  0  0  0  0  0  0  0  0
  196.4680  169.6880  147.5470 O   0  0  0  0  0  1  0  0  0  0  0  0
  196.7860  169.3420  146.3810 C   0  0  0  0  0  0  0  0  0  0  0  0
  195.3290  168.5330  144.6100 C   0  0  0  0  0  3  0  0  0  0  0  0
  194.2060  168.1670  144.9140 O   0  0  0  0  0  0  0  0  0  0  0  0
  189.3920  177.8080  142.9830 C   0  0  0  0  0  2  0  0  0  0  0  0
  188.0870  177.8920  140.9960 O   0  0  0  0  0  0  0  0  0  0  0  0
  188.0900  177.9230  142.2540 C   0  0  0  0  0  0  0  0  0  0  0  0
  186.6520  178.0390  144.3670 C   0  0  0  0  0  0  0  0  0  0  0  0
  187.6160  177.8430  145.1550 O   0  0  0  0  0  0  0  0  0  0  0  0
  186.8420  178.0560  142.9470 N   0  0  0  0  0  2  0  0  0  0  0  0
  185.2830  178.2180  144.9210 C   0  0  0  0  0  2  0  0  0  0  0  0
  185.3040  179.2610  146.0210 C   0  0  0  0  0  2  0  0  0  0  0  0
  184.7350  178.6650  147.2910 C   0  0  0  0  0  2  0  0  0  0  0  0
  185.8030  177.8470  147.9870 C   0  0  0  0  0  1  0  0  0  0  0  0
  2 12  1  0  0  0  0
  3 15  1  0  0  0  0
  3 23  1  0  0  0  0
  4 13  1  6  0  0  0
  5 35  1  1  0  0  0
  5 19  1  0  0  0  0
  5  4  1  0  0  0  0
  6  1  1  6  0  0  0
  6 28  1  0  0  0  0
  6  7  1  0  0  0  0
  7 26  1  1  0  0  0
  8 20  2  0  0  0  0
  9 22  1  0  0  0  0
 10  2  1  0  0  0  0
 11 26  1  0  0  0  0
 11 14  1  0  0  0  0
 12 18  1  6  0  0  0
 12  7  1  0  0  0  0
 15 18  1  6  0  0  0
 17  4  1  0  0  0  0
 17 25  2  0  0  0  0
 20 28  1  0  0  0  0
 20 19  1  0  0  0  0
 21 24  1  6  0  0  0
 21 22  1  0  0  0  0
 21 14  1  0  0  0  0
 22 16  2  0  0  0  0
 23  9  1  0  0  0  0
 23 29  1  1  0  0  0
 24 15  1  0  0  0  0
 25 11  2  0  0  0  0
 27  1  1  0  0  0  0
 27 10  1  0  0  0  0
 29 33  1  6  0  0  0
 29 32  1  0  0  0  0
 30 32  2  0  0  0  0
 32 31  1  0  0  0  0
 33 34  2  0  0  0  0
 36 37  2  0  0  0  0
 37 40  1  0  0  0  0
 37 35  1  0  0  0  0
 38 41  1  0  0  0  0
 38 39  2  0  0  0  0
 40 38  1  0  0  0  0
 41 42  1  0  0  0  0
 42 43  1  0  0  0  0
 43 44  1  0  0  0  0
M  END
>  <MODEL>
3

>  <REMARK>
 VINA RESULT:      -7.9      3.308      5.813
  Name = 
  8 active torsions:
  status: ('A' for Active; 'I' for Inactive)
    1  A    between atoms: C_6  and  C_8
    2  A    between atoms: C_6  and  C_18
    3  A    between atoms: C_6  and  C_37
    4  A    between atoms: C_9  and  C_40
    5  A    between atoms: C_13  and  C_40
    6  A    between atoms: C_23  and  C_33
    7  A    between atoms: C_30  and  C_34
    8  A    between atoms: C_33  and  C_34
                            x       y       z     vdW  Elec       q    Type
                         _______ _______ _______ _____ _____    ______ ____

>  <TORSDO>
F 8

$$$$
=
 OpenBabel11062422113D

 44 47  0  0  1  0  0  0  0  0999 V2000
  192.2990  176.9880  145.8040 C   0  0  0  0  0  2  0  0  0  0  0  0
  194.9930  175.0710  146.0200 O   0  0  0  0  0  0  0  0  0  0  0  0
  194.5840  171.1750  145.2500 O   0  0  0  0  0  0  0  0  0  0  0  0
  188.7510  174.3780  142.2120 C   0  0  2  0  0  3  0  0  0  0  0  0
  188.1320  175.7140  142.6490 C   0  0  1  0  0  3  0  0  0  0  0  0
  192.0840  176.0760  144.5900 C   0  0  2  0  0  3  0  0  0  0  0  0
  193.3890  175.4390  144.0450 C   0  0  1  0  0  3  0  0  0  0  0  0
  189.4810  177.4600  144.6780 O   0  0  0  0  0  0  0  0  0  0  0  0
  194.4950  169.5430  143.3840 C   0  0  0  0  0  2  0  0  0  0  0  0
  194.5840  176.3610  146.4040 C   0  0  0  0  0  2  0  0  0  0  0  0
  192.3020  173.7690  142.4900 C   0  0  0  0  0  0  0  0  0  0  0  0
  194.1600  174.5040  145.0220 C   0  0  2  0  0  3  0  0  0  0  0  0
  187.7820  173.3760  142.1350 O   0  0  0  0  0  1  0  0  0  0  0  0
  192.8000  172.5190  141.8210 C   0  0  0  0  0  2  0  0  0  0  0  0
  193.7350  172.1130  144.6380 C   0  0  2  0  0  3  0  0  0  0  0  0
  193.8350  169.8790  141.1530 O   0  0  0  0  0  0  0  0  0  0  0  0
  189.7910  173.9470  143.1860 C   0  0  0  0  0  3  0  0  0  0  0  0
  193.4150  173.2840  145.5440 C   0  0  0  0  0  2  0  0  0  0  0  0
  189.1220  176.8510  142.4280 C   0  0  0  0  0  2  0  0  0  0  0  0
  189.9840  177.0880  143.6280 C   0  0  0  0  0  0  0  0  0  0  0  0
  192.5850  171.2220  142.6390 C   0  0  1  0  0  3  0  0  0  0  0  0
  193.6610  170.2100  142.3160 C   0  0  0  0  0  0  0  0  0  0  0  0
  195.3360  170.5190  144.2400 C   0  0  1  0  0  3  0  0  0  0  0  0
  192.4620  171.4550  144.1490 C   0  0  0  0  0  2  0  0  0  0  0  0
  191.0400  173.8630  142.8250 C   0  0  0  0  0  0  0  0  0  0  0  0
  193.2170  174.7990  142.7670 O   0  0  0  0  0  0  0  0  0  0  0  0
  193.1500  176.3820  146.9010 C   0  0  0  0  0  2  0  0  0  0  0  0
  191.4710  176.9530  143.4990 C   0  0  0  0  0  2  0  0  0  0  0  0
  196.3040  171.4430  143.4650 C   0  0  2  0  0  3  0  0  0  0  0  0
  197.2420  170.9420  141.1950 O   0  0  0  0  0  0  0  0  0  0  0  0
  197.9350  169.7590  143.0310 O   0  0  0  0  0  1  0  0  0  0  0  0
  197.2070  170.6690  142.5580 C   0  0  0  0  0  0  0  0  0  0  0  0
  197.1480  172.2440  144.4080 C   0  0  0  0  0  3  0  0  0  0  0  0
  197.4700  173.3900  144.1400 O   0  0  0  0  0  0  0  0  0  0  0  0
  186.8810  176.0410  141.8390 C   0  0  0  0  0  2  0  0  0  0  0  0
  187.0920  177.9520  140.4390 O   0  0  0  0  0  0  0  0  0  0  0  0
  186.7730  177.5100  141.5740 C   0  0  0  0  0  0  0  0  0  0  0  0
  185.8380  178.0930  143.8830 C   0  0  0  0  0  0  0  0  0  0  0  0
  185.7480  176.8940  144.2600 O   0  0  0  0  0  0  0  0  0  0  0  0
  186.3060  178.4280  142.5710 N   0  0  0  0  0  2  0  0  0  0  0  0
  185.4130  179.1810  144.8050 C   0  0  0  0  0  2  0  0  0  0  0  0
  184.1540  178.7690  145.5420 C   0  0  0  0  0  2  0  0  0  0  0  0
  184.5000  178.4220  146.9740 C   0  0  0  0  0  2  0  0  0  0  0  0
  185.7600  179.1590  147.3810 C   0  0  0  0  0  1  0  0  0  0  0  0
  1 27  1  0  0  0  0
  2 10  1  0  0  0  0
  4 13  1  1  0  0  0
  4  5  1  0  0  0  0
  4 17  1  0  0  0  0
  5 35  1  6  0  0  0
  6 28  1  6  0  0  0
  6  1  1  0  0  0  0
  7 26  1  6  0  0  0
  7  6  1  0  0  0  0
  7 12  1  0  0  0  0
  9 23  1  0  0  0  0
 10 27  1  0  0  0  0
 11 26  1  0  0  0  0
 11 25  2  0  0  0  0
 12 18  1  1  0  0  0
 12  2  1  0  0  0  0
 14 11  1  0  0  0  0
 15 24  1  1  0  0  0
 15  3  1  0  0  0  0
 15 18  1  0  0  0  0
 16 22  2  0  0  0  0
 19  5  1  0  0  0  0
 19 20  1  0  0  0  0
 20  8  2  0  0  0  0
 21 14  1  6  0  0  0
 21 24  1  0  0  0  0
 22 21  1  0  0  0  0
 22  9  1  0  0  0  0
 23 29  1  6  0  0  0
 23  3  1  0  0  0  0
 25 17  2  0  0  0  0
 28 20  1  0  0  0  0
 29 33  1  1  0  0  0
 30 32  2  0  0  0  0
 32 31  1  0  0  0  0
 32 29  1  0  0  0  0
 34 33  2  0  0  0  0
 36 37  2  0  0  0  0
 37 35  1  0  0  0  0
 37 40  1  0  0  0  0
 38 39  2  0  0  0  0
 38 41  1  0  0  0  0
 40 38  1  0  0  0  0
 41 42  1  0  0  0  0
 42 43  1  0  0  0  0
 43 44  1  0  0  0  0
M  END
>  <MODEL>
4

>  <REMARK>
 VINA RESULT:      -7.9      2.825      4.240
  Name = 
  8 active torsions:
  status: ('A' for Active; 'I' for Inactive)
    1  A    between atoms: C_6  and  C_8
    2  A    between atoms: C_6  and  C_18
    3  A    between atoms: C_6  and  C_37
    4  A    between atoms: C_9  and  C_40
    5  A    between atoms: C_13  and  C_40
    6  A    between atoms: C_23  and  C_33
    7  A    between atoms: C_30  and  C_34
    8  A    between atoms: C_33  and  C_34
                            x       y       z     vdW  Elec       q    Type
                         _______ _______ _______ _____ _____    ______ ____

>  <TORSDO>
F 8

$$$$
=
 OpenBabel11062422113D

 44 47  0  0  1  0  0  0  0  0999 V2000
  192.6980  172.7360  142.8140 C   0  0  0  0  0  2  0  0  0  0  0  0
  191.6350  174.6650  145.2900 O   0  0  0  0  0  0  0  0  0  0  0  0
  189.2750  177.7530  144.3760 O   0  0  0  0  0  0  0  0  0  0  0  0
  188.8850  173.2430  138.6300 C   0  0  2  0  0  3  0  0  0  0  0  0
  189.9580  172.2270  138.2120 C   0  0  1  0  0  3  0  0  0  0  0  0
  191.2510  172.9810  142.3690 C   0  0  2  0  0  3  0  0  0  0  0  0
  190.2930  173.3590  143.5290 C   0  0  1  0  0  3  0  0  0  0  0  0
  192.3300  171.6690  139.9580 O   0  0  0  0  0  0  0  0  0  0  0  0
  186.9130  178.3440  143.9050 C   0  0  0  0  0  2  0  0  0  0  0  0
  192.6110  173.6760  145.0690 C   0  0  0  0  0  2  0  0  0  0  0  0
  188.3350  174.0790  142.1020 C   0  0  0  0  0  0  0  0  0  0  0  0
  190.6240  174.6730  144.2960 C   0  0  2  0  0  3  0  0  0  0  0  0
  188.5130  174.0520  137.5550 O   0  0  0  0  0  1  0  0  0  0  0  0
  187.1130  174.9060  142.3840 C   0  0  0  0  0  2  0  0  0  0  0  0
  189.2790  176.6000  143.5720 C   0  0  2  0  0  3  0  0  0  0  0  0
  185.1910  176.9950  143.0450 O   0  0  0  0  0  0  0  0  0  0  0  0
  189.3990  174.1200  139.7170 C   0  0  0  0  0  3  0  0  0  0  0  0
  190.6500  175.9600  143.4830 C   0  0  0  0  0  2  0  0  0  0  0  0
  190.1260  171.1630  139.2900 C   0  0  0  0  0  2  0  0  0  0  0  0
  191.1630  171.5430  140.2990 C   0  0  0  0  0  0  0  0  0  0  0  0
  187.2870  176.4220  142.1190 C   0  0  1  0  0  3  0  0  0  0  0  0
  186.3910  177.2240  143.0370 C   0  0  0  0  0  0  0  0  0  0  0  0
  187.9800  177.9090  144.9360 C   0  0  1  0  0  3  0  0  0  0  0  0
  188.7420  176.9000  142.1890 C   0  0  0  0  0  2  0  0  0  0  0  0
  188.8590  174.0890  140.9020 C   0  0  0  0  0  0  0  0  0  0  0  0
  188.9050  173.3340  143.1490 O   0  0  0  0  0  0  0  0  0  0  0  0
  193.2700  173.8170  143.7090 C   0  0  0  0  0  2  0  0  0  0  0  0
  190.7700  171.6740  141.7390 C   0  0  0  0  0  2  0  0  0  0  0  0
  187.5670  176.7800  145.9090 C   0  0  2  0  0  3  0  0  0  0  0  0
  185.1160  176.5930  146.4000 O   0  0  0  0  0  0  0  0  0  0  0  0
  186.4560  177.9670  147.6520 O   0  0  0  0  0  1  0  0  0  0  0  0
  186.3540  177.1470  146.7050 C   0  0  0  0  0  0  0  0  0  0  0  0
  188.6810  176.4560  146.8560 C   0  0  0  0  0  3  0  0  0  0  0  0
  188.8390  175.3200  147.2710 O   0  0  0  0  0  0  0  0  0  0  0  0
  189.5740  171.5070  136.9230 C   0  0  0  0  0  2  0  0  0  0  0  0
  190.6700  172.9250  135.3590 O   0  0  0  0  0  0  0  0  0  0  0  0
  190.5720  171.7650  135.8370 C   0  0  0  0  0  0  0  0  0  0  0  0
  191.5020  169.3820  135.8080 C   0  0  0  0  0  0  0  0  0  0  0  0
  190.8170  168.9940  136.7920 O   0  0  0  0  0  0  0  0  0  0  0  0
  191.4300  170.7320  135.3350 N   0  0  0  0  0  2  0  0  0  0  0  0
  192.4350  168.4280  135.1490 C   0  0  0  0  0  2  0  0  0  0  0  0
  193.7050  168.3020  135.9670 C   0  0  0  0  0  2  0  0  0  0  0  0
  194.8110  169.0960  135.3050 C   0  0  0  0  0  2  0  0  0  0  0  0
  195.2280  170.2340  136.2130 C   0  0  0  0  0  1  0  0  0  0  0  0
  1 27  1  0  0  0  0
  3 23  1  0  0  0  0
  4 13  1  6  0  0  0
  4 17  1  0  0  0  0
  5 35  1  6  0  0  0
  5  4  1  0  0  0  0
  5 19  1  0  0  0  0
  6 28  1  1  0  0  0
  6  1  1  0  0  0  0
  6  7  1  0  0  0  0
  7 26  1  6  0  0  0
  7 12  1  0  0  0  0
  8 20  2  0  0  0  0
  9 23  1  0  0  0  0
 10  2  1  0  0  0  0
 11 14  1  0  0  0  0
 11 26  1  0  0  0  0
 12 18  1  6  0  0  0
 12  2  1  0  0  0  0
 15 24  1  6  0  0  0
 15  3  1  0  0  0  0
 17 25  2  0  0  0  0
 18 15  1  0  0  0  0
 19 20  1  0  0  0  0
 20 28  1  0  0  0  0
 21 24  1  1  0  0  0
 21 14  1  0  0  0  0
 21 22  1  0  0  0  0
 22 16  2  0  0  0  0
 22  9  1  0  0  0  0
 23 29  1  6  0  0  0
 25 11  2  0  0  0  0
 27 10  1  0  0  0  0
 29 32  1  0  0  0  0
 29 33  1  1  0  0  0
 30 32  2  0  0  0  0
 32 31  1  0  0  0  0
 33 34  2  0  0  0  0
 36 37  2  0  0  0  0
 37 35  1  0  0  0  0
 38 39  2  0  0  0  0
 40 38  1  0  0  0  0
 40 37  1  0  0  0  0
 41 38  1  0  0  0  0
 41 42  1  0  0  0  0
 43 42  1  0  0  0  0
 43 44  1  0  0  0  0
M  END
>  <MODEL>
5

>  <REMARK>
 VINA RESULT:      -7.6      4.714      9.276
  Name = 
  8 active torsions:
  status: ('A' for Active; 'I' for Inactive)
    1  A    between atoms: C_6  and  C_8
    2  A    between atoms: C_6  and  C_18
    3  A    between atoms: C_6  and  C_37
    4  A    between atoms: C_9  and  C_40
    5  A    between atoms: C_13  and  C_40
    6  A    between atoms: C_23  and  C_33
    7  A    between atoms: C_30  and  C_34
    8  A    between atoms: C_33  and  C_34
                            x       y       z     vdW  Elec       q    Type
                         _______ _______ _______ _____ _____    ______ ____

>  <TORSDO>
F 8

$$$$
=
 OpenBabel11062422113D

 44 47  0  0  1  0  0  0  0  0999 V2000
  192.5410  172.6010  142.9590 C   0  0  0  0  0  2  0  0  0  0  0  0
  191.4060  174.5340  145.4000 O   0  0  0  0  0  0  0  0  0  0  0  0
  189.1820  177.6960  144.4020 O   0  0  0  0  0  0  0  0  0  0  0  0
  188.9650  173.2590  138.5910 C   0  0  2  0  0  3  0  0  0  0  0  0
  190.0300  172.2180  138.2170 C   0  0  1  0  0  3  0  0  0  0  0  0
  191.1260  172.8910  142.4440 C   0  0  2  0  0  3  0  0  0  0  0  0
  190.1210  173.2840  143.5570 C   0  0  1  0  0  3  0  0  0  0  0  0
  192.2920  171.5740  140.0760 O   0  0  0  0  0  0  0  0  0  0  0  0
  186.8650  178.3590  143.8180 C   0  0  0  0  0  2  0  0  0  0  0  0
  192.3630  173.5190  145.2180 C   0  0  0  0  0  2  0  0  0  0  0  0
  188.2600  174.0740  142.0400 C   0  0  0  0  0  0  0  0  0  0  0  0
  190.4480  174.5810  144.3550 C   0  0  2  0  0  3  0  0  0  0  0  0
  188.6710  174.0890  137.5080 O   0  0  0  0  0  1  0  0  0  0  0  0
  187.0480  174.9320  142.2680 C   0  0  0  0  0  2  0  0  0  0  0  0
  189.1960  176.5520  143.5860 C   0  0  2  0  0  3  0  0  0  0  0  0
  185.1530  177.0680  142.8540 O   0  0  0  0  0  0  0  0  0  0  0  0
  189.4460  174.1100  139.7130 C   0  0  0  0  0  3  0  0  0  0  0  0
  190.5510  175.8740  143.5600 C   0  0  0  0  0  2  0  0  0  0  0  0
  190.1120  171.1380  139.2900 C   0  0  0  0  0  2  0  0  0  0  0  0
  191.1060  171.4780  140.3550 C   0  0  0  0  0  0  0  0  0  0  0  0
  187.2770  176.4460  142.0310 C   0  0  1  0  0  3  0  0  0  0  0  0
  186.3580  177.2630  142.9100 C   0  0  0  0  0  0  0  0  0  0  0  0
  187.8650  177.8830  144.8970 C   0  0  1  0  0  3  0  0  0  0  0  0
  188.7390  176.8820  142.1810 C   0  0  0  0  0  2  0  0  0  0  0  0
  188.8450  174.0820  140.8690 C   0  0  0  0  0  0  0  0  0  0  0  0
  188.7540  173.3030  143.1060 O   0  0  0  0  0  0  0  0  0  0  0  0
  193.0950  173.6560  143.8960 C   0  0  0  0  0  2  0  0  0  0  0  0
  190.6430  171.6050  141.7740 C   0  0  0  0  0  2  0  0  0  0  0  0
  187.3710  176.7570  145.8340 C   0  0  2  0  0  3  0  0  0  0  0  0
  186.1060  178.1610  147.4810 O   0  0  0  0  0  1  0  0  0  0  0  0
  185.0440  176.5140  146.2930 O   0  0  0  0  0  0  0  0  0  0  0  0
  186.1080  177.1350  146.5430 C   0  0  0  0  0  0  0  0  0  0  0  0
  188.4100  176.4170  146.8570 C   0  0  0  0  0  3  0  0  0  0  0  0
  188.5450  175.2730  147.2570 O   0  0  0  0  0  0  0  0  0  0  0  0
  189.6930  171.5220  136.9010 C   0  0  0  0  0  2  0  0  0  0  0  0
  190.7950  169.4230  136.7020 O   0  0  0  0  0  0  0  0  0  0  0  0
  190.8220  170.6540  136.4400 C   0  0  0  0  0  0  0  0  0  0  0  0
  192.0900  172.5350  135.2560 C   0  0  0  0  0  0  0  0  0  0  0  0
  191.1930  173.3990  135.4510 O   0  0  0  0  0  0  0  0  0  0  0  0
  191.9300  171.1820  135.6990 N   0  0  0  0  0  2  0  0  0  0  0  0
  193.3220  172.9180  134.5160 C   0  0  0  0  0  2  0  0  0  0  0  0
  194.4960  172.9890  135.4730 C   0  0  0  0  0  2  0  0  0  0  0  0
  194.4680  174.3130  136.2070 C   0  0  0  0  0  2  0  0  0  0  0  0
  194.9950  174.1200  137.6140 C   0  0  0  0  0  1  0  0  0  0  0  0
  1 27  1  0  0  0  0
  3 23  1  0  0  0  0
  4 13  1  6  0  0  0
  4 17  1  0  0  0  0
  5 35  1  6  0  0  0
  5  4  1  0  0  0  0
  5 19  1  0  0  0  0
  6 28  1  1  0  0  0
  6  1  1  0  0  0  0
  6  7  1  0  0  0  0
  7 26  1  6  0  0  0
  7 12  1  0  0  0  0
  8 20  2  0  0  0  0
  9 23  1  0  0  0  0
 10  2  1  0  0  0  0
 11 14  1  0  0  0  0
 11 26  1  0  0  0  0
 12 18  1  6  0  0  0
 12  2  1  0  0  0  0
 15 24  1  6  0  0  0
 15  3  1  0  0  0  0
 16 22  2  0  0  0  0
 17 25  2  0  0  0  0
 18 15  1  0  0  0  0
 19 20  1  0  0  0  0
 20 28  1  0  0  0  0
 21 24  1  1  0  0  0
 21 14  1  0  0  0  0
 21 22  1  0  0  0  0
 22  9  1  0  0  0  0
 23 29  1  6  0  0  0
 25 11  2  0  0  0  0
 27 10  1  0  0  0  0
 29 32  1  0  0  0  0
 29 33  1  1  0  0  0
 31 32  2  0  0  0  0
 32 30  1  0  0  0  0
 33 34  2  0  0  0  0
 37 36  2  0  0  0  0
 37 35  1  0  0  0  0
 38 39  2  0  0  0  0
 38 40  1  0  0  0  0
 40 37  1  0  0  0  0
 41 38  1  0  0  0  0
 41 42  1  0  0  0  0
 42 43  1  0  0  0  0
 43 44  1  0  0  0  0
M  END
>  <MODEL>
6

>  <REMARK>
 VINA RESULT:      -7.4      4.311      8.958
  Name = 
  8 active torsions:
  status: ('A' for Active; 'I' for Inactive)
    1  A    between atoms: C_6  and  C_8
    2  A    between atoms: C_6  and  C_18
    3  A    between atoms: C_6  and  C_37
    4  A    between atoms: C_9  and  C_40
    5  A    between atoms: C_13  and  C_40
    6  A    between atoms: C_23  and  C_33
    7  A    between atoms: C_30  and  C_34
    8  A    between atoms: C_33  and  C_34
                            x       y       z     vdW  Elec       q    Type
                         _______ _______ _______ _____ _____    ______ ____

>  <TORSDO>
F 8

$$$$
=
 OpenBabel11062422113D

 44 47  0  0  1  0  0  0  0  0999 V2000
  195.0090  172.8590  143.5590 C   0  0  0  0  0  2  0  0  0  0  0  0
  195.0630  170.7960  140.9670 O   0  0  0  0  0  0  0  0  0  0  0  0
  191.5710  169.5000  139.5330 O   0  0  0  0  0  0  0  0  0  0  0  0
  189.9720  175.4890  143.4160 C   0  0  2  0  0  3  0  0  0  0  0  0
  190.7990  176.0490  144.5820 C   0  0  1  0  0  3  0  0  0  0  0  0
  193.8280  173.4070  142.7480 C   0  0  2  0  0  3  0  0  0  0  0  0
  193.8960  173.0700  141.2360 C   0  0  1  0  0  3  0  0  0  0  0  0
  193.4940  174.9220  145.2560 O   0  0  0  0  0  0  0  0  0  0  0  0
  189.7100  170.1420  138.0230 C   0  0  0  0  0  2  0  0  0  0  0  0
  195.9560  171.3040  141.9280 C   0  0  0  0  0  2  0  0  0  0  0  0
  191.5420  173.7780  140.6470 C   0  0  0  0  0  0  0  0  0  0  0  0
  193.8720  171.5580  140.8640 C   0  0  2  0  0  3  0  0  0  0  0  0
  188.6310  175.3460  143.7740 O   0  0  0  0  0  1  0  0  0  0  0  0
  190.6490  173.4860  139.4750 C   0  0  0  0  0  2  0  0  0  0  0  0
  191.6580  170.7510  140.1650 C   0  0  2  0  0  3  0  0  0  0  0  0
  188.9650  172.2880  137.4200 O   0  0  0  0  0  0  0  0  0  0  0  0
  190.4910  174.1550  143.0080 C   0  0  0  0  0  3  0  0  0  0  0  0
  192.6560  170.7570  141.3050 C   0  0  0  0  0  2  0  0  0  0  0  0
  192.1730  176.4900  144.0910 C   0  0  0  0  0  2  0  0  0  0  0  0
  193.1800  175.3860  144.1700 C   0  0  0  0  0  0  0  0  0  0  0  0
  189.7500  172.2360  139.6460 C   0  0  1  0  0  3  0  0  0  0  0  0
  189.4620  171.6050  138.3020 C   0  0  0  0  0  0  0  0  0  0  0  0
  191.1840  169.7010  138.1810 C   0  0  1  0  0  3  0  0  0  0  0  0
  190.2980  171.2120  140.6470 C   0  0  0  0  0  2  0  0  0  0  0  0
  191.0130  173.9820  141.8270 C   0  0  0  0  0  0  0  0  0  0  0  0
  192.9340  173.7970  140.4500 O   0  0  0  0  0  0  0  0  0  0  0  0
  195.3210  171.3990  143.3040 C   0  0  0  0  0  2  0  0  0  0  0  0
  193.8600  174.9250  142.9170 C   0  0  0  0  0  2  0  0  0  0  0  0
  192.2200  170.4730  137.3310 C   0  0  2  0  0  3  0  0  0  0  0  0
  191.8010  171.6240  135.1440 O   0  0  0  0  0  0  0  0  0  0  0  0
  191.6510  169.3440  135.3100 O   0  0  0  0  0  1  0  0  0  0  0  0
  191.8780  170.4440  135.8750 C   0  0  0  0  0  0  0  0  0  0  0  0
  193.5920  169.9000  137.5110 C   0  0  0  0  0  3  0  0  0  0  0  0
  194.5790  170.6160  137.4660 O   0  0  0  0  0  0  0  0  0  0  0  0
  190.1290  177.2700  145.2060 C   0  0  0  0  0  2  0  0  0  0  0  0
  190.8400  176.7860  147.4240 O   0  0  0  0  0  0  0  0  0  0  0  0
  189.8740  177.0640  146.6660 C   0  0  0  0  0  0  0  0  0  0  0  0
  187.3670  177.5610  146.5340 C   0  0  0  0  0  0  0  0  0  0  0  0
  187.3930  177.8820  145.3160 O   0  0  0  0  0  0  0  0  0  0  0  0
  188.5610  177.1850  147.2310 N   0  0  0  0  0  2  0  0  0  0  0  0
  186.0770  177.6100  147.2740 C   0  0  0  0  0  2  0  0  0  0  0  0
  184.9280  177.3310  146.3260 C   0  0  0  0  0  2  0  0  0  0  0  0
  184.0990  178.5860  146.1570 C   0  0  0  0  0  2  0  0  0  0  0  0
  184.1220  179.0140  144.7040 C   0  0  0  0  0  1  0  0  0  0  0  0
  2 10  1  0  0  0  0
  3 15  1  0  0  0  0
  4 13  1  1  0  0  0
  4  5  1  0  0  0  0
  5 35  1  6  0  0  0
  6 28  1  6  0  0  0
  6  1  1  0  0  0  0
  7 26  1  6  0  0  0
  7  6  1  0  0  0  0
  9 23  1  0  0  0  0
  9 22  1  0  0  0  0
 10 27  1  0  0  0  0
 11 25  2  0  0  0  0
 12  2  1  0  0  0  0
 12  7  1  0  0  0  0
 12 18  1  1  0  0  0
 14 11  1  0  0  0  0
 15 24  1  1  0  0  0
 15 18  1  0  0  0  0
 16 22  2  0  0  0  0
 17  4  1  0  0  0  0
 19 20  1  0  0  0  0
 19  5  1  0  0  0  0
 20  8  2  0  0  0  0
 21 14  1  6  0  0  0
 21 24  1  0  0  0  0
 22 21  1  0  0  0  0
 23 29  1  1  0  0  0
 23  3  1  0  0  0  0
 25 17  2  0  0  0  0
 26 11  1  0  0  0  0
 27  1  1  0  0  0  0
 28 20  1  0  0  0  0
 29 33  1  6  0  0  0
 30 32  2  0  0  0  0
 31 32  1  0  0  0  0
 32 29  1  0  0  0  0
 34 33  2  0  0  0  0
 35 37  1  0  0  0  0
 37 40  1  0  0  0  0
 37 36  2  0  0  0  0
 38 40  1  0  0  0  0
 38 41  1  0  0  0  0
 39 38  2  0  0  0  0
 42 41  1  0  0  0  0
 43 42  1  0  0  0  0
 44 43  1  0  0  0  0
M  END
>  <MODEL>
7

>  <REMARK>
 VINA RESULT:      -7.3      4.185      7.083
  Name = 
  8 active torsions:
  status: ('A' for Active; 'I' for Inactive)
    1  A    between atoms: C_6  and  C_8
    2  A    between atoms: C_6  and  C_18
    3  A    between atoms: C_6  and  C_37
    4  A    between atoms: C_9  and  C_40
    5  A    between atoms: C_13  and  C_40
    6  A    between atoms: C_23  and  C_33
    7  A    between atoms: C_30  and  C_34
    8  A    between atoms: C_33  and  C_34
                            x       y       z     vdW  Elec       q    Type
                         _______ _______ _______ _____ _____    ______ ____

>  <TORSDO>
F 8

$$$$
=
 OpenBabel11062422113D

 44 47  0  0  1  0  0  0  0  0999 V2000
  193.8540  176.3810  141.4610 C   0  0  0  0  0  2  0  0  0  0  0  0
  196.4780  174.3570  141.3980 O   0  0  0  0  0  0  0  0  0  0  0  0
  197.4550  172.4540  144.7690 O   0  0  0  0  0  0  0  0  0  0  0  0
  190.4990  174.5330  145.6600 C   0  0  2  0  0  3  0  0  0  0  0  0
  189.8190  175.7170  144.9570 C   0  0  1  0  0  3  0  0  0  0  0  0
  193.3280  175.2230  142.3180 C   0  0  2  0  0  3  0  0  0  0  0  0
  194.0400  173.8710  142.0510 C   0  0  1  0  0  3  0  0  0  0  0  0
  191.1980  177.2150  142.7570 O   0  0  0  0  0  0  0  0  0  0  0  0
  196.8940  170.4560  146.1270 C   0  0  0  0  0  2  0  0  0  0  0  0
  195.9100  175.3720  140.6060 C   0  0  0  0  0  2  0  0  0  0  0  0
  193.0980  172.6190  144.0350 C   0  0  0  0  0  0  0  0  0  0  0  0
  195.5680  173.8250  142.3470 C   0  0  2  0  0  3  0  0  0  0  0  0
  190.3080  174.5920  147.0410 O   0  0  0  0  0  1  0  0  0  0  0  0
  193.5120  171.3590  144.7400 C   0  0  0  0  0  2  0  0  0  0  0  0
  196.1210  172.8160  144.5190 C   0  0  2  0  0  3  0  0  0  0  0  0
  194.8710  169.2650  146.2440 O   0  0  0  0  0  0  0  0  0  0  0  0
  191.9620  174.5420  145.3900 C   0  0  0  0  0  3  0  0  0  0  0  0
  196.0050  174.1290  143.7720 C   0  0  0  0  0  2  0  0  0  0  0  0
  189.7650  175.4760  143.4530 C   0  0  0  0  0  2  0  0  0  0  0  0
  190.9730  176.0140  142.7530 C   0  0  0  0  0  0  0  0  0  0  0  0
  194.5010  171.5730  145.9140 C   0  0  1  0  0  3  0  0  0  0  0  0
  195.3870  170.3600  146.0850 C   0  0  0  0  0  0  0  0  0  0  0  0
  197.5340  171.0380  144.8450 C   0  0  1  0  0  3  0  0  0  0  0  0
  195.3210  172.8630  145.8040 C   0  0  0  0  0  2  0  0  0  0  0  0
  192.5150  173.5760  144.7120 C   0  0  0  0  0  0  0  0  0  0  0  0
  193.3750  172.7500  142.6630 O   0  0  0  0  0  0  0  0  0  0  0  0
  195.3640  176.5130  141.4450 C   0  0  0  0  0  2  0  0  0  0  0  0
  191.8460  175.0760  141.9760 C   0  0  0  0  0  2  0  0  0  0  0  0
  197.1950  170.3100  143.5240 C   0  0  2  0  0  3  0  0  0  0  0  0
  197.7600  168.1660  142.3540 O   0  0  0  0  0  0  0  0  0  0  0  0
  197.9410  168.3350  144.6320 O   0  0  0  0  0  1  0  0  0  0  0  0
  197.6550  168.8860  143.5390 C   0  0  0  0  0  0  0  0  0  0  0  0
  197.8250  171.0030  142.3550 C   0  0  0  0  0  3  0  0  0  0  0  0
  197.2590  171.0470  141.2740 O   0  0  0  0  0  0  0  0  0  0  0  0
  188.3820  175.9010  145.4360 C   0  0  0  0  0  2  0  0  0  0  0  0
  188.6620  177.6120  147.0660 O   0  0  0  0  0  0  0  0  0  0  0  0
  188.1570  177.2860  145.9600 C   0  0  0  0  0  0  0  0  0  0  0  0
  186.8100  178.0810  143.9350 C   0  0  0  0  0  0  0  0  0  0  0  0
  186.9790  177.0190  143.2790 O   0  0  0  0  0  0  0  0  0  0  0  0
  187.3930  178.2560  145.2320 N   0  0  0  0  0  2  0  0  0  0  0  0
  186.0210  179.1910  143.3350 C   0  0  0  0  0  2  0  0  0  0  0  0
  185.0990  179.7900  144.3790 C   0  0  0  0  0  2  0  0  0  0  0  0
  184.0850  178.7520  144.8100 C   0  0  0  0  0  2  0  0  0  0  0  0
  184.0700  178.6600  146.3220 C   0  0  0  0  0  1  0  0  0  0  0  0
  2 12  1  0  0  0  0
  3 23  1  0  0  0  0
  4 13  1  1  0  0  0
  5 35  1  1  0  0  0
  5  4  1  0  0  0  0
  6  1  1  6  0  0  0
  7  6  1  0  0  0  0
  7 12  1  0  0  0  0
  7 26  1  1  0  0  0
 10  2  1  0  0  0  0
 10 27  1  0  0  0  0
 11 25  2  0  0  0  0
 11 14  1  0  0  0  0
 12 18  1  1  0  0  0
 15 18  1  1  0  0  0
 15  3  1  0  0  0  0
 15 24  1  0  0  0  0
 17  4  1  0  0  0  0
 19  5  1  0  0  0  0
 20  8  2  0  0  0  0
 20 19  1  0  0  0  0
 21 14  1  6  0  0  0
 21 22  1  0  0  0  0
 22  9  1  0  0  0  0
 22 16  2  0  0  0  0
 23 29  1  6  0  0  0
 23  9  1  0  0  0  0
 24 21  1  0  0  0  0
 25 17  2  0  0  0  0
 26 11  1  0  0  0  0
 27  1  1  0  0  0  0
 28  6  1  0  0  0  0
 28 20  1  0  0  0  0
 29 33  1  6  0  0  0
 29 32  1  0  0  0  0
 30 32  2  0  0  0  0
 32 31  1  0  0  0  0
 34 33  2  0  0  0  0
 35 37  1  0  0  0  0
 37 36  2  0  0  0  0
 38 40  1  0  0  0  0
 39 38  2  0  0  0  0
 40 37  1  0  0  0  0
 41 38  1  0  0  0  0
 41 42  1  0  0  0  0
 42 43  1  0  0  0  0
 43 44  1  0  0  0  0
M  END
>  <MODEL>
8

>  <REMARK>
 VINA RESULT:      -7.3      3.070      5.996
  Name = 
  8 active torsions:
  status: ('A' for Active; 'I' for Inactive)
    1  A    between atoms: C_6  and  C_8
    2  A    between atoms: C_6  and  C_18
    3  A    between atoms: C_6  and  C_37
    4  A    between atoms: C_9  and  C_40
    5  A    between atoms: C_13  and  C_40
    6  A    between atoms: C_23  and  C_33
    7  A    between atoms: C_30  and  C_34
    8  A    between atoms: C_33  and  C_34
                            x       y       z     vdW  Elec       q    Type
                         _______ _______ _______ _____ _____    ______ ____

>  <TORSDO>
F 8

$$$$
=
 OpenBabel11062422113D

 44 47  0  0  1  0  0  0  0  0999 V2000
  195.9610  175.4940  144.6240 C   0  0  0  0  0  2  0  0  0  0  0  0
  197.7520  175.0000  141.8790 O   0  0  0  0  0  0  0  0  0  0  0  0
  196.5410  172.1700  139.3390 O   0  0  0  0  0  0  0  0  0  0  0  0
  190.6900  173.7240  143.4450 C   0  0  2  0  0  3  0  0  0  0  0  0
  190.7200  174.3030  144.8670 C   0  0  1  0  0  3  0  0  0  0  0  0
  194.8400  175.2760  143.6000 C   0  0  2  0  0  3  0  0  0  0  0  0
  195.2590  175.5730  142.1370 C   0  0  1  0  0  3  0  0  0  0  0  0
  193.2830  175.2460  146.1050 O   0  0  0  0  0  0  0  0  0  0  0  0
  194.9580  171.7530  137.4750 C   0  0  0  0  0  2  0  0  0  0  0  0
  197.8800  175.6550  143.1180 C   0  0  0  0  0  2  0  0  0  0  0  0
  193.2280  174.5700  141.0150 C   0  0  0  0  0  0  0  0  0  0  0  0
  196.4050  174.6940  141.5560 C   0  0  2  0  0  3  0  0  0  0  0  0
  189.8860  172.5850  143.3820 O   0  0  0  0  0  1  0  0  0  0  0  0
  192.9530  174.1210  139.6080 C   0  0  0  0  0  2  0  0  0  0  0  0
  195.6100  172.8430  140.1470 C   0  0  2  0  0  3  0  0  0  0  0  0
  192.9100  172.8070  137.0070 O   0  0  0  0  0  0  0  0  0  0  0  0
  192.0640  173.3500  143.0090 C   0  0  0  0  0  3  0  0  0  0  0  0
  196.1700  173.1920  141.5110 C   0  0  0  0  0  2  0  0  0  0  0  0
  191.3340  175.6980  144.8560 C   0  0  0  0  0  2  0  0  0  0  0  0
  192.8160  175.6620  145.0550 C   0  0  0  0  0  0  0  0  0  0  0  0
  193.2850  172.6330  139.3320 C   0  0  1  0  0  3  0  0  0  0  0  0
  193.6760  172.4400  137.8840 C   0  0  0  0  0  0  0  0  0  0  0  0
  196.2450  172.4480  137.9780 C   0  0  1  0  0  3  0  0  0  0  0  0
  194.3310  172.0440  140.2850 C   0  0  0  0  0  2  0  0  0  0  0  0
  192.6320  173.9680  142.0130 C   0  0  0  0  0  0  0  0  0  0  0  0
  194.1460  175.6140  141.2260 O   0  0  0  0  0  0  0  0  0  0  0  0
  197.2810  174.8470  144.2550 C   0  0  0  0  0  2  0  0  0  0  0  0
  193.7110  176.2270  143.9930 C   0  0  0  0  0  2  0  0  0  0  0  0
  196.4170  173.9320  137.5800 C   0  0  2  0  0  3  0  0  0  0  0  0
  197.0560  173.3490  135.2270 O   0  0  0  0  0  0  0  0  0  0  0  0
  195.5360  175.0120  135.6450 O   0  0  0  0  0  1  0  0  0  0  0  0
  196.3070  174.1290  136.1000 C   0  0  0  0  0  0  0  0  0  0  0  0
  197.7440  174.4570  138.0340 C   0  0  0  0  0  3  0  0  0  0  0  0
  197.8640  175.6090  138.4180 O   0  0  0  0  0  0  0  0  0  0  0  0
  189.3150  174.4320  145.4480 C   0  0  0  0  0  2  0  0  0  0  0  0
  190.1430  174.9220  147.6230 O   0  0  0  0  0  0  0  0  0  0  0  0
  189.3220  175.2240  146.7170 C   0  0  0  0  0  0  0  0  0  0  0  0
  187.4850  176.8480  145.9860 C   0  0  0  0  0  0  0  0  0  0  0  0
  187.4020  176.3850  144.8170 O   0  0  0  0  0  0  0  0  0  0  0  0
  188.4290  176.3250  146.9290 N   0  0  0  0  0  2  0  0  0  0  0  0
  186.6120  177.9850  146.3830 C   0  0  0  0  0  2  0  0  0  0  0  0
  185.2060  177.4870  146.6500 C   0  0  0  0  0  2  0  0  0  0  0  0
  184.2080  178.5350  146.2040 C   0  0  0  0  0  2  0  0  0  0  0  0
  184.3460  178.7600  144.7130 C   0  0  0  0  0  1  0  0  0  0  0  0
  2 10  1  0  0  0  0
  3 15  1  0  0  0  0
  4 13  1  1  0  0  0
  4  5  1  0  0  0  0
  5 35  1  6  0  0  0
  6 28  1  1  0  0  0
  6  1  1  0  0  0  0
  7 26  1  6  0  0  0
  7  6  1  0  0  0  0
  9 22  1  0  0  0  0
  9 23  1  0  0  0  0
 10 27  1  0  0  0  0
 11 26  1  0  0  0  0
 11 25  2  0  0  0  0
 12 18  1  1  0  0  0
 12  2  1  0  0  0  0
 12  7  1  0  0  0  0
 14 11  1  0  0  0  0
 15 24  1  1  0  0  0
 15 18  1  0  0  0  0
 16 22  2  0  0  0  0
 17  4  1  0  0  0  0
 19  5  1  0  0  0  0
 19 20  1  0  0  0  0
 20  8  2  0  0  0  0
 21 14  1  1  0  0  0
 21 24  1  0  0  0  0
 22 21  1  0  0  0  0
 23 29  1  1  0  0  0
 23  3  1  0  0  0  0
 25 17  2  0  0  0  0
 27  1  1  0  0  0  0
 28 20  1  0  0  0  0
 29 33  1  6  0  0  0
 30 32  2  0  0  0  0
 31 32  1  0  0  0  0
 32 29  1  0  0  0  0
 33 34  2  0  0  0  0
 35 37  1  0  0  0  0
 37 40  1  0  0  0  0
 37 36  2  0  0  0  0
 38 41  1  0  0  0  0
 38 40  1  0  0  0  0
 39 38  2  0  0  0  0
 41 42  1  0  0  0  0
 43 42  1  0  0  0  0
 44 43  1  0  0  0  0
M  END
>  <MODEL>
9

>  <REMARK>
 VINA RESULT:      -7.3      3.239      6.467
  Name = 
  8 active torsions:
  status: ('A' for Active; 'I' for Inactive)
    1  A    between atoms: C_6  and  C_8
    2  A    between atoms: C_6  and  C_18
    3  A    between atoms: C_6  and  C_37
    4  A    between atoms: C_9  and  C_40
    5  A    between atoms: C_13  and  C_40
    6  A    between atoms: C_23  and  C_33
    7  A    between atoms: C_30  and  C_34
    8  A    between atoms: C_33  and  C_34
                            x       y       z     vdW  Elec       q    Type
                         _______ _______ _______ _____ _____    ______ ____

>  <TORSDO>
F 8

$$$$
