=
 OpenBabel11072409293D

 40 44  0  0  1  0  0  0  0  0999 V2000
  191.5070  172.1470  142.2500 C   0  0  2  0  0  3  0  0  0  0  0  0
  191.1510  176.5110  146.8570 C   0  0  0  0  0  2  0  0  0  0  0  0
  189.3230  177.5210  144.9200 C   0  0  0  0  0  2  0  0  0  0  0  0
  192.6480  173.0900  142.0210 C   0  0  1  0  0  3  0  0  0  0  0  0
  190.6020  175.2290  144.7230 C   0  0  2  0  0  3  0  0  0  0  0  0
  189.7070  174.9180  142.0970 N   0  0  0  0  0  2  0  0  0  0  0  0
  189.4470  173.5110  142.1720 C   0  0  0  0  0  0  0  0  0  0  0  0
  188.7530  175.1800  146.6450 C   0  0  0  0  0  2  0  0  0  0  0  0
  191.9810  170.8390  141.8170 N   0  0  0  0  0  2  0  0  0  0  0  0
  193.0930  173.7430  143.2910 C   0  0  0  0  0  0  0  0  0  0  0  0
  193.7110  172.1710  141.4950 C   0  0  2  0  0  3  0  0  0  0  0  0
  189.3980  176.1020  144.3240 C   0  0  2  0  0  0  0  0  0  0  0  0
  188.9800  175.9540  142.8380 C   0  0  2  0  0  3  0  0  0  0  0  0
  186.8220  177.1640  142.2390 C   0  0  2  0  0  3  0  0  0  0  0  0
  187.2830  178.2190  143.0710 O   0  0  0  0  0  0  0  0  0  0  0  0
  193.7420  175.8720  144.4850 C   0  0  1  0  0  3  0  0  0  0  0  0
  193.2020  173.0740  144.3560 O   0  0  0  0  0  0  0  0  0  0  0  0
  190.3070  172.5600  141.4130 C   0  0  0  0  0  2  0  0  0  0  0  0
  192.5090  176.6360  144.9550 C   0  0  0  0  0  2  0  0  0  0  0  0
  189.1800  174.8600  145.2130 C   0  0  1  0  0  3  0  0  0  0  0  0
  194.4690  172.8490  140.3710 C   0  0  0  0  0  1  0  0  0  0  0  0
  186.9950  178.2210  144.4330 C   0  0  0  0  0  3  0  0  0  0  0  0
  190.8140  175.5740  148.0090 C   0  0  0  0  0  2  0  0  0  0  0  0
  187.4680  175.8310  142.6420 C   0  0  0  0  0  2  0  0  0  0  0  0
  188.5130  173.0610  142.8880 O   0  0  0  0  0  0  0  0  0  0  0  0
  189.7290  174.5720  147.6360 C   0  0  0  0  0  2  0  0  0  0  0  0
  191.6060  175.7610  145.6890 N   0  0  1  0  0  0  0  0  0  0  0  0
  193.4240  175.1320  143.2740 N   0  0  0  0  0  2  0  0  0  0  0  0
  187.9340  177.9160  145.3220 C   0  0  0  0  0  3  0  0  0  0  0  0
  193.0600  171.0300  141.0050 O   0  0  0  0  0  0  0  0  0  0  0  0
  187.0610  177.5010  140.7680 C   0  0  0  0  0  0  0  0  0  0  0  0
  187.2460  176.3480  140.0260 F   0  0  0  0  0  0  0  0  0  0  0  0
  188.1920  178.2910  140.6600 F   0  0  0  0  0  0  0  0  0  0  0  0
  185.9800  178.2010  140.2630 F   0  0  0  0  0  0  0  0  0  0  0  0
  194.8650  176.8510  144.1850 C   0  0  0  0  0  2  0  0  0  0  0  0
  196.1380  176.1280  143.8560 C   0  0  0  0  0  0  0  0  0  0  0  0
  196.5130  175.2130  144.5720 O   0  0  0  0  0  0  0  0  0  0  0  0
  196.0830  176.7410  141.4570 C   0  0  0  0  0  1  0  0  0  0  0  0
  197.9230  175.5430  142.3730 O   0  0  0  0  0  1  0  0  0  0  0  0
  196.9690  176.5200  142.6680 C   0  0  2  0  0  3  0  0  0  0  0  0
  1 18  1  6  0  0  0
  2 23  1  0  0  0  0
  3 29  1  0  0  0  0
  4  1  1  0  0  0  0
  4 10  1  1  0  0  0
  5 20  1  0  0  0  0
  5 27  1  0  0  0  0
  6  7  1  0  0  0  0
  6 13  1  0  0  0  0
  7 25  2  0  0  0  0
  8 26  1  0  0  0  0
  9  1  1  0  0  0  0
 10 17  2  0  0  0  0
 11  4  1  0  0  0  0
 12  5  1  0  0  0  0
 12  3  1  0  0  0  0
 12 20  1  0  0  0  0
 13 12  1  0  0  0  0
 14 24  1  0  0  0  0
 14 15  1  0  0  0  0
 15 22  1  0  0  0  0
 16 19  1  0  0  0  0
 18  7  1  0  0  0  0
 19 27  1  0  0  0  0
 20  8  1  0  0  0  0
 21 11  1  0  0  0  0
 22 29  2  0  0  0  0
 24 13  1  0  0  0  0
 26 23  1  0  0  0  0
 27  2  1  0  0  0  0
 28 10  1  0  0  0  0
 28 16  1  0  0  0  0
 30 11  1  0  0  0  0
 30  9  1  0  0  0  0
 31 14  1  0  0  0  0
 32 31  1  0  0  0  0
 33 31  1  0  0  0  0
 34 31  1  0  0  0  0
 35 16  1  0  0  0  0
 36 35  1  0  0  0  0
 36 37  2  0  0  0  0
 38 40  1  0  0  0  0
 39 40  1  0  0  0  0
 40 36  1  0  0  0  0
M  END
>  <MODEL>
1

>  <REMARK>
 VINA RESULT:      -8.3      0.000      0.000
  Name = 
  4 active torsions:
  status: ('A' for Active; 'I' for Inactive)
    1  A    between atoms: C_6  and  C_7
    2  A    between atoms: C_6  and  C_22
    3  A    between atoms: C_7  and  C_21
    4  A    between atoms: C_13  and  C_19
                            x       y       z     vdW  Elec       q    Type
                         _______ _______ _______ _____ _____    ______ ____

>  <TORSDO>
F 4

$$$$
=
 OpenBabel11072409293D

 40 44  0  0  1  0  0  0  0  0999 V2000
  190.6340  171.8840  140.7870 C   0  0  2  0  0  3  0  0  0  0  0  0
  191.7470  176.1370  145.3770 C   0  0  0  0  0  2  0  0  0  0  0  0
  189.5910  177.3330  143.9500 C   0  0  0  0  0  2  0  0  0  0  0  0
  191.7580  172.7460  140.2950 C   0  0  1  0  0  3  0  0  0  0  0  0
  190.5990  174.9580  143.4300 C   0  0  2  0  0  3  0  0  0  0  0  0
  189.0760  174.7850  141.0980 N   0  0  0  0  0  2  0  0  0  0  0  0
  188.7320  173.4000  141.2220 C   0  0  0  0  0  0  0  0  0  0  0  0
  189.2700  174.9960  145.7430 C   0  0  0  0  0  2  0  0  0  0  0  0
  190.8850  170.5570  140.2410 N   0  0  0  0  0  2  0  0  0  0  0  0
  192.5460  173.3290  141.4250 C   0  0  0  0  0  0  0  0  0  0  0  0
  192.5860  171.7640  139.5190 C   0  0  2  0  0  3  0  0  0  0  0  0
  189.4070  175.9280  143.3420 C   0  0  2  0  0  0  0  0  0  0  0  0
  188.6330  175.8520  142.0010 C   0  0  2  0  0  3  0  0  0  0  0  0
  186.4970  177.2350  141.9530 C   0  0  2  0  0  3  0  0  0  0  0  0
  187.2270  178.2310  142.6570 O   0  0  0  0  0  0  0  0  0  0  0  0
  193.6300  175.3710  142.4430 C   0  0  1  0  0  3  0  0  0  0  0  0
  192.8560  172.6250  142.4260 O   0  0  0  0  0  0  0  0  0  0  0  0
  189.3050  172.4090  140.2690 C   0  0  0  0  0  2  0  0  0  0  0  0
  192.6110  176.2120  143.2030 C   0  0  0  0  0  2  0  0  0  0  0  0
  189.3130  174.6830  144.2470 C   0  0  1  0  0  3  0  0  0  0  0  0
  193.1020  172.4140  138.2510 C   0  0  0  0  0  1  0  0  0  0  0  0
  187.2770  178.2170  144.0480 C   0  0  0  0  0  3  0  0  0  0  0  0
  191.6240  175.1970  146.5690 C   0  0  0  0  0  2  0  0  0  0  0  0
  187.1130  175.8480  142.1760 C   0  0  0  0  0  2  0  0  0  0  0  0
  187.9650  173.0020  142.1400 O   0  0  0  0  0  0  0  0  0  0  0  0
  190.4060  174.2890  146.4630 C   0  0  0  0  0  2  0  0  0  0  0  0
  191.8460  175.3870  144.1280 N   0  0  1  0  0  0  0  0  0  0  0  0
  192.9720  174.6890  141.3390 N   0  0  0  0  0  2  0  0  0  0  0  0
  188.3760  177.8190  144.6800 C   0  0  0  0  0  3  0  0  0  0  0  0
  191.7490  170.6880  139.1940 O   0  0  0  0  0  0  0  0  0  0  0  0
  186.4000  177.5940  140.4710 C   0  0  0  0  0  0  0  0  0  0  0  0
  185.3180  178.4240  140.2390 F   0  0  0  0  0  0  0  0  0  0  0  0
  186.2450  176.4360  139.7310 F   0  0  0  0  0  0  0  0  0  0  0  0
  187.5590  178.2300  140.0630 F   0  0  0  0  0  0  0  0  0  0  0  0
  194.7210  176.2700  141.8870 C   0  0  0  0  0  2  0  0  0  0  0  0
  196.0600  175.5960  141.9460 C   0  0  0  0  0  0  0  0  0  0  0  0
  196.3470  174.7520  141.1120 O   0  0  0  0  0  0  0  0  0  0  0  0
  196.9890  174.9010  144.1330 C   0  0  0  0  0  1  0  0  0  0  0  0
  196.8130  177.2010  143.5540 O   0  0  0  0  0  1  0  0  0  0  0  0
  197.0520  175.9320  143.0230 C   0  0  2  0  0  3  0  0  0  0  0  0
  1 18  1  6  0  0  0
  2 23  1  0  0  0  0
  3 29  1  0  0  0  0
  4  1  1  0  0  0  0
  4 10  1  1  0  0  0
  5 27  1  0  0  0  0
  5 20  1  0  0  0  0
  6  7  1  0  0  0  0
  6 13  1  0  0  0  0
  7 25  2  0  0  0  0
  8 26  1  0  0  0  0
  9  1  1  0  0  0  0
 10 17  2  0  0  0  0
 11  4  1  0  0  0  0
 12  5  1  0  0  0  0
 12  3  1  0  0  0  0
 12 20  1  0  0  0  0
 13 24  1  0  0  0  0
 13 12  1  0  0  0  0
 14 24  1  0  0  0  0
 14 15  1  0  0  0  0
 15 22  1  0  0  0  0
 16 19  1  0  0  0  0
 18  7  1  0  0  0  0
 19 27  1  0  0  0  0
 20  8  1  0  0  0  0
 21 11  1  0  0  0  0
 22 29  2  0  0  0  0
 26 23  1  0  0  0  0
 27  2  1  0  0  0  0
 28 10  1  0  0  0  0
 28 16  1  0  0  0  0
 30 11  1  0  0  0  0
 30  9  1  0  0  0  0
 31 14  1  0  0  0  0
 32 31  1  0  0  0  0
 33 31  1  0  0  0  0
 34 31  1  0  0  0  0
 35 36  1  0  0  0  0
 35 16  1  0  0  0  0
 36 40  1  0  0  0  0
 37 36  2  0  0  0  0
 40 39  1  0  0  0  0
 40 38  1  0  0  0  0
M  END
>  <MODEL>
2

>  <REMARK>
 VINA RESULT:      -7.6      1.416      1.804
  Name = 
  4 active torsions:
  status: ('A' for Active; 'I' for Inactive)
    1  A    between atoms: C_6  and  C_7
    2  A    between atoms: C_6  and  C_22
    3  A    between atoms: C_7  and  C_21
    4  A    between atoms: C_13  and  C_19
                            x       y       z     vdW  Elec       q    Type
                         _______ _______ _______ _____ _____    ______ ____

>  <TORSDO>
F 4

$$$$
=
 OpenBabel11072409293D

 40 44  0  0  1  0  0  0  0  0999 V2000
  192.8290  170.8140  144.1680 C   0  0  2  0  0  3  0  0  0  0  0  0
  191.3500  176.6930  146.0780 C   0  0  0  0  0  2  0  0  0  0  0  0
  189.8480  176.4400  143.6720 C   0  0  0  0  0  2  0  0  0  0  0  0
  193.9300  171.7030  143.6750 C   0  0  1  0  0  3  0  0  0  0  0  0
  191.2870  174.5180  144.7510 C   0  0  2  0  0  3  0  0  0  0  0  0
  190.9120  172.9240  142.4900 N   0  0  0  0  0  2  0  0  0  0  0  0
  190.7350  171.6830  143.1850 C   0  0  0  0  0  0  0  0  0  0  0  0
  189.1230  175.0830  146.2050 C   0  0  0  0  0  2  0  0  0  0  0  0
  193.4590  169.5360  144.4710 N   0  0  0  0  0  2  0  0  0  0  0  0
  194.0900  172.9180  144.5330 C   0  0  0  0  0  0  0  0  0  0  0  0
  195.1290  170.8090  143.7900 C   0  0  2  0  0  3  0  0  0  0  0  0
  190.1230  174.9320  143.8320 C   0  0  2  0  0  0  0  0  0  0  0  0
  189.9960  174.0670  142.5520 C   0  0  2  0  0  3  0  0  0  0  0  0
  187.9110  174.5490  141.1730 C   0  0  2  0  0  3  0  0  0  0  0  0
  188.1410  175.9220  141.4620 O   0  0  0  0  0  0  0  0  0  0  0  0
  194.3690  175.4260  144.6550 C   0  0  1  0  0  3  0  0  0  0  0  0
  194.0450  172.8290  145.7910 O   0  0  0  0  0  0  0  0  0  0  0  0
  191.7790  170.6260  143.0850 C   0  0  0  0  0  2  0  0  0  0  0  0
  193.0240  176.1340  144.5410 C   0  0  0  0  0  2  0  0  0  0  0  0
  189.8260  174.2120  145.1640 C   0  0  1  0  0  3  0  0  0  0  0  0
  196.0340  171.0030  142.5900 C   0  0  0  0  0  1  0  0  0  0  0  0
  187.6090  176.5000  142.6100 C   0  0  0  0  0  3  0  0  0  0  0  0
  190.8690  176.3440  147.4810 C   0  0  0  0  0  2  0  0  0  0  0  0
  188.5560  173.6530  142.2380 C   0  0  0  0  0  2  0  0  0  0  0  0
  189.7170  171.4790  143.8980 O   0  0  0  0  0  0  0  0  0  0  0  0
  189.9380  175.1380  147.4850 C   0  0  0  0  0  2  0  0  0  0  0  0
  192.0600  175.5680  145.4750 N   0  0  1  0  0  0  0  0  0  0  0  0
  194.3280  174.1790  143.9060 N   0  0  0  0  0  2  0  0  0  0  0  0
  188.3860  176.7700  143.6530 C   0  0  0  0  0  3  0  0  0  0  0  0
  194.6550  169.4900  143.8160 O   0  0  0  0  0  0  0  0  0  0  0  0
  188.3940  174.2130  139.7630 C   0  0  0  0  0  0  0  0  0  0  0  0
  189.7740  174.2930  139.6870 F   0  0  0  0  0  0  0  0  0  0  0  0
  187.8420  175.1090  138.8660 F   0  0  0  0  0  0  0  0  0  0  0  0
  187.9910  172.9350  139.4200 F   0  0  0  0  0  0  0  0  0  0  0  0
  195.4620  176.3110  144.0800 C   0  0  0  0  0  2  0  0  0  0  0  0
  196.6840  175.5090  143.7390 C   0  0  0  0  0  0  0  0  0  0  0  0
  197.2250  174.8380  144.6050 O   0  0  0  0  0  0  0  0  0  0  0  0
  196.4020  176.3730  141.4360 C   0  0  0  0  0  1  0  0  0  0  0  0
  197.3680  174.2360  141.8320 O   0  0  0  0  0  1  0  0  0  0  0  0
  197.2640  175.5270  142.3540 C   0  0  2  0  0  3  0  0  0  0  0  0
  1 18  1  6  0  0  0
  1  9  1  0  0  0  0
  2 23  1  0  0  0  0
  3 12  1  0  0  0  0
  4 11  1  0  0  0  0
  4  1  1  0  0  0  0
  4 10  1  1  0  0  0
  5 20  1  0  0  0  0
  5 27  1  0  0  0  0
  6 13  1  0  0  0  0
  6  7  1  0  0  0  0
  7 25  2  0  0  0  0
  8 26  1  0  0  0  0
 10 17  2  0  0  0  0
 11 30  1  0  0  0  0
 12  5  1  0  0  0  0
 12 20  1  0  0  0  0
 13 12  1  0  0  0  0
 14 15  1  0  0  0  0
 14 24  1  0  0  0  0
 15 22  1  0  0  0  0
 18  7  1  0  0  0  0
 19 16  1  0  0  0  0
 19 27  1  0  0  0  0
 20  8  1  0  0  0  0
 21 11  1  0  0  0  0
 22 29  2  0  0  0  0
 23 26  1  0  0  0  0
 24 13  1  0  0  0  0
 27  2  1  0  0  0  0
 28 10  1  0  0  0  0
 28 16  1  0  0  0  0
 29  3  1  0  0  0  0
 30  9  1  0  0  0  0
 31 14  1  0  0  0  0
 32 31  1  0  0  0  0
 33 31  1  0  0  0  0
 34 31  1  0  0  0  0
 35 16  1  0  0  0  0
 36 35  1  0  0  0  0
 36 37  2  0  0  0  0
 38 40  1  0  0  0  0
 39 40  1  0  0  0  0
 40 36  1  0  0  0  0
M  END
>  <MODEL>
3

>  <REMARK>
 VINA RESULT:      -7.4      1.867      2.329
  Name = 
  4 active torsions:
  status: ('A' for Active; 'I' for Inactive)
    1  A    between atoms: C_6  and  C_7
    2  A    between atoms: C_6  and  C_22
    3  A    between atoms: C_7  and  C_21
    4  A    between atoms: C_13  and  C_19
                            x       y       z     vdW  Elec       q    Type
                         _______ _______ _______ _____ _____    ______ ____

>  <TORSDO>
F 4

$$$$
=
 OpenBabel11072409293D

 40 44  0  0  1  0  0  0  0  0999 V2000
  195.6470  174.8490  143.2350 C   0  0  2  0  0  3  0  0  0  0  0  0
  191.0250  170.9940  141.1900 C   0  0  0  0  0  2  0  0  0  0  0  0
  189.5650  173.0300  142.5440 C   0  0  0  0  0  2  0  0  0  0  0  0
  195.5360  173.7540  144.2510 C   0  0  1  0  0  3  0  0  0  0  0  0
  192.1730  173.0390  142.1920 C   0  0  2  0  0  3  0  0  0  0  0  0
  192.4280  175.2400  143.8890 N   0  0  0  0  0  2  0  0  0  0  0  0
  193.4270  175.9280  143.1250 C   0  0  0  0  0  0  0  0  0  0  0  0
  190.8530  173.4210  139.9050 C   0  0  0  0  0  2  0  0  0  0  0  0
  197.0560  175.2180  143.2030 N   0  0  0  0  0  2  0  0  0  0  0  0
  195.0070  172.4890  143.6510 C   0  0  0  0  0  0  0  0  0  0  0  0
  196.9630  173.5820  144.6810 C   0  0  2  0  0  3  0  0  0  0  0  0
  190.8780  173.8310  142.4510 C   0  0  2  0  0  0  0  0  0  0  0  0
  191.0480  174.9990  143.4560 C   0  0  2  0  0  3  0  0  0  0  0  0
  188.9970  176.4910  143.6740 C   0  0  2  0  0  3  0  0  0  0  0  0
  188.2280  175.2970  143.6130 O   0  0  0  0  0  0  0  0  0  0  0  0
  193.3940  170.5540  143.8250 C   0  0  1  0  0  3  0  0  0  0  0  0
  195.4180  172.0890  142.5260 O   0  0  0  0  0  0  0  0  0  0  0  0
  194.8120  176.0470  143.6580 C   0  0  0  0  0  2  0  0  0  0  0  0
  192.0120  170.9430  143.3120 C   0  0  0  0  0  2  0  0  0  0  0  0
  191.6130  173.9890  141.1040 C   0  0  1  0  0  3  0  0  0  0  0  0
  197.0270  173.3570  146.1790 C   0  0  0  0  0  1  0  0  0  0  0  0
  187.8180  174.7830  142.3870 C   0  0  0  0  0  3  0  0  0  0  0  0
  191.3970  170.9860  139.7130 C   0  0  0  0  0  2  0  0  0  0  0  0
  190.3650  176.2920  143.0060 C   0  0  0  0  0  2  0  0  0  0  0  0
  193.1560  176.4190  141.9970 O   0  0  0  0  0  0  0  0  0  0  0  0
  191.6980  172.3830  139.1880 C   0  0  0  0  0  2  0  0  0  0  0  0
  192.1030  171.5620  141.9960 N   0  0  1  0  0  0  0  0  0  0  0  0
  194.0520  171.7230  144.3860 N   0  0  0  0  0  2  0  0  0  0  0  0
  188.4130  173.7130  141.8700 C   0  0  0  0  0  3  0  0  0  0  0  0
  197.6360  174.7670  144.3520 O   0  0  0  0  0  0  0  0  0  0  0  0
  189.1220  176.9710  145.1190 C   0  0  0  0  0  0  0  0  0  0  0  0
  188.1170  177.8730  145.4230 F   0  0  0  0  0  0  0  0  0  0  0  0
  190.3470  177.5910  145.2880 F   0  0  0  0  0  0  0  0  0  0  0  0
  189.0450  175.8940  145.9820 F   0  0  0  0  0  0  0  0  0  0  0  0
  193.2570  169.4980  144.9080 C   0  0  0  0  0  2  0  0  0  0  0  0
  194.6000  169.0940  145.4430 C   0  0  0  0  0  0  0  0  0  0  0  0
  195.4270  168.6070  144.6880 O   0  0  0  0  0  0  0  0  0  0  0  0
  196.4450  169.2200  147.0890 C   0  0  0  0  0  1  0  0  0  0  0  0
  194.3420  168.2770  147.6780 O   0  0  0  0  0  1  0  0  0  0  0  0
  194.9410  169.2670  146.8950 C   0  0  2  0  0  3  0  0  0  0  0  0
  1 18  1  1  0  0  0
  1  4  1  0  0  0  0
  2 27  1  0  0  0  0
  4 10  1  6  0  0  0
  4 11  1  0  0  0  0
  5 12  1  0  0  0  0
  7 18  1  0  0  0  0
  7  6  1  0  0  0  0
  8 20  1  0  0  0  0
  9  1  1  0  0  0  0
  9 30  1  0  0  0  0
 10 28  1  0  0  0  0
 11 21  1  0  0  0  0
 12  3  1  0  0  0  0
 12 13  1  0  0  0  0
 13  6  1  0  0  0  0
 14 31  1  0  0  0  0
 15 14  1  0  0  0  0
 16 28  1  0  0  0  0
 16 35  1  0  0  0  0
 17 10  2  0  0  0  0
 19 16  1  0  0  0  0
 20  5  1  0  0  0  0
 20 12  1  0  0  0  0
 22 15  1  0  0  0  0
 23  2  1  0  0  0  0
 24 13  1  0  0  0  0
 24 14  1  0  0  0  0
 25  7  2  0  0  0  0
 26 23  1  0  0  0  0
 26  8  1  0  0  0  0
 27  5  1  0  0  0  0
 27 19  1  0  0  0  0
 29 22  2  0  0  0  0
 29  3  1  0  0  0  0
 30 11  1  0  0  0  0
 31 33  1  0  0  0  0
 31 32  1  0  0  0  0
 31 34  1  0  0  0  0
 35 36  1  0  0  0  0
 36 40  1  0  0  0  0
 37 36  2  0  0  0  0
 40 38  1  0  0  0  0
 40 39  1  0  0  0  0
M  END
>  <MODEL>
4

>  <REMARK>
 VINA RESULT:      -7.4      3.208      5.924
  Name = 
  4 active torsions:
  status: ('A' for Active; 'I' for Inactive)
    1  A    between atoms: C_6  and  C_7
    2  A    between atoms: C_6  and  C_22
    3  A    between atoms: C_7  and  C_21
    4  A    between atoms: C_13  and  C_19
                            x       y       z     vdW  Elec       q    Type
                         _______ _______ _______ _____ _____    ______ ____

>  <TORSDO>
F 4

$$$$
=
 OpenBabel11072409293D

 40 44  0  0  1  0  0  0  0  0999 V2000
  189.7770  171.8860  139.4500 C   0  0  2  0  0  3  0  0  0  0  0  0
  193.4420  174.6860  143.8230 C   0  0  0  0  0  2  0  0  0  0  0  0
  191.2080  176.4470  143.6840 C   0  0  0  0  0  2  0  0  0  0  0  0
  190.7790  172.7050  138.6940 C   0  0  1  0  0  3  0  0  0  0  0  0
  191.4130  174.1780  142.3670 C   0  0  2  0  0  3  0  0  0  0  0  0
  189.1080  174.7780  140.9100 N   0  0  0  0  0  2  0  0  0  0  0  0
  188.5550  173.4560  140.9160 C   0  0  0  0  0  0  0  0  0  0  0  0
  191.1180  173.7890  144.9900 C   0  0  0  0  0  2  0  0  0  0  0  0
  189.5120  170.7190  138.6200 N   0  0  0  0  0  2  0  0  0  0  0  0
  192.0450  172.8890  139.4680 C   0  0  0  0  0  0  0  0  0  0  0  0
  191.0170  171.8600  137.4770 C   0  0  2  0  0  3  0  0  0  0  0  0
  190.5130  175.2730  142.9680 C   0  0  2  0  0  0  0  0  0  0  0  0
  189.2840  175.6280  142.0920 C   0  0  2  0  0  3  0  0  0  0  0  0
  187.6380  177.2200  143.2030 C   0  0  2  0  0  3  0  0  0  0  0  0
  188.7750  177.9130  143.6990 O   0  0  0  0  0  0  0  0  0  0  0  0
  193.8410  174.4670  140.2820 C   0  0  1  0  0  3  0  0  0  0  0  0
  192.5600  171.9240  140.0990 O   0  0  0  0  0  0  0  0  0  0  0  0
  188.4940  172.6760  139.6480 C   0  0  0  0  0  2  0  0  0  0  0  0
  193.3970  175.2030  141.5400 C   0  0  0  0  0  2  0  0  0  0  0  0
  190.5130  173.8590  143.5870 C   0  0  1  0  0  3  0  0  0  0  0  0
  191.1280  172.7430  136.2500 C   0  0  0  0  0  1  0  0  0  0  0  0
  189.3540  177.5450  144.9100 C   0  0  0  0  0  3  0  0  0  0  0  0
  193.5930  173.4980  144.7630 C   0  0  0  0  0  2  0  0  0  0  0  0
  187.9850  175.7580  142.8900 C   0  0  0  0  0  2  0  0  0  0  0  0
  188.1360  172.9340  141.9830 O   0  0  0  0  0  0  0  0  0  0  0  0
  192.2670  172.7960  145.0200 C   0  0  0  0  0  2  0  0  0  0  0  0
  192.8920  174.2680  142.5360 N   0  0  1  0  0  0  0  0  0  0  0  0
  192.6820  174.1670  139.4580 N   0  0  0  0  0  2  0  0  0  0  0  0
  190.5000  176.8740  144.9340 C   0  0  0  0  0  3  0  0  0  0  0  0
  189.9120  171.0070  137.3480 O   0  0  0  0  0  0  0  0  0  0  0  0
  187.0560  177.9490  141.9930 C   0  0  0  0  0  0  0  0  0  0  0  0
  186.3060  179.0410  142.3940 F   0  0  0  0  0  0  0  0  0  0  0  0
  186.2430  177.0810  141.2860 F   0  0  0  0  0  0  0  0  0  0  0  0
  188.0770  178.3760  141.1640 F   0  0  0  0  0  0  0  0  0  0  0  0
  194.7970  175.3420  139.4890 C   0  0  0  0  0  2  0  0  0  0  0  0
  196.2250  174.9720  139.7650 C   0  0  0  0  0  0  0  0  0  0  0  0
  196.7640  174.1080  139.0910 O   0  0  0  0  0  0  0  0  0  0  0  0
  197.1140  174.7110  142.0610 C   0  0  0  0  0  1  0  0  0  0  0  0
  196.3980  176.8330  141.2590 O   0  0  0  0  0  1  0  0  0  0  0  0
  197.0020  175.6370  140.8650 C   0  0  2  0  0  3  0  0  0  0  0  0
  1 18  1  6  0  0  0
  2 23  1  0  0  0  0
  3 29  1  0  0  0  0
  4  1  1  0  0  0  0
  4 10  1  1  0  0  0
  5 27  1  0  0  0  0
  5 12  1  0  0  0  0
  5 20  1  0  0  0  0
  6  7  1  0  0  0  0
  6 13  1  0  0  0  0
  7 25  2  0  0  0  0
  8 26  1  0  0  0  0
  9  1  1  0  0  0  0
 10 17  2  0  0  0  0
 11  4  1  0  0  0  0
 12 20  1  0  0  0  0
 12  3  1  0  0  0  0
 13 24  1  0  0  0  0
 13 12  1  0  0  0  0
 14 15  1  0  0  0  0
 15 22  1  0  0  0  0
 16 19  1  0  0  0  0
 18  7  1  0  0  0  0
 19 27  1  0  0  0  0
 20  8  1  0  0  0  0
 21 11  1  0  0  0  0
 22 29  2  0  0  0  0
 23 26  1  0  0  0  0
 24 14  1  0  0  0  0
 27  2  1  0  0  0  0
 28 10  1  0  0  0  0
 28 16  1  0  0  0  0
 30 11  1  0  0  0  0
 30  9  1  0  0  0  0
 31 32  1  0  0  0  0
 31 14  1  0  0  0  0
 33 31  1  0  0  0  0
 34 31  1  0  0  0  0
 35 36  1  0  0  0  0
 35 16  1  0  0  0  0
 36 40  1  0  0  0  0
 37 36  2  0  0  0  0
 40 39  1  0  0  0  0
 40 38  1  0  0  0  0
M  END
>  <MODEL>
5

>  <REMARK>
 VINA RESULT:      -7.2      2.339      3.365
  Name = 
  4 active torsions:
  status: ('A' for Active; 'I' for Inactive)
    1  A    between atoms: C_6  and  C_7
    2  A    between atoms: C_6  and  C_22
    3  A    between atoms: C_7  and  C_21
    4  A    between atoms: C_13  and  C_19
                            x       y       z     vdW  Elec       q    Type
                         _______ _______ _______ _____ _____    ______ ____

>  <TORSDO>
F 4

$$$$
=
 OpenBabel11072409293D

 40 44  0  0  1  0  0  0  0  0999 V2000
  191.6610  175.0820  146.4970 C   0  0  2  0  0  3  0  0  0  0  0  0
  190.5270  171.9780  141.0680 C   0  0  0  0  0  2  0  0  0  0  0  0
  192.9170  173.4060  140.4650 C   0  0  0  0  0  2  0  0  0  0  0  0
  190.6790  175.9190  145.7340 C   0  0  1  0  0  3  0  0  0  0  0  0
  191.7380  173.3820  142.8180 C   0  0  2  0  0  3  0  0  0  0  0  0
  193.4570  175.3810  143.7350 N   0  0  0  0  0  2  0  0  0  0  0  0
  193.6510  174.8470  145.0510 C   0  0  0  0  0  0  0  0  0  0  0  0
  192.8330  171.0230  142.2240 C   0  0  0  0  0  2  0  0  0  0  0  0
  191.3360  175.2750  147.9040 N   0  0  0  0  0  2  0  0  0  0  0  0
  189.8460  175.0920  144.8070 C   0  0  0  0  0  0  0  0  0  0  0  0
  189.8390  176.4950  146.8350 C   0  0  2  0  0  3  0  0  0  0  0  0
  193.0210  173.5850  141.9920 C   0  0  2  0  0  0  0  0  0  0  0  0
  193.9110  174.7530  142.4900 C   0  0  2  0  0  3  0  0  0  0  0  0
  196.1660  174.9160  141.3220 C   0  0  2  0  0  3  0  0  0  0  0  0
  195.4720  174.5990  140.1230 O   0  0  0  0  0  0  0  0  0  0  0  0
  188.8720  174.8010  142.4950 C   0  0  1  0  0  3  0  0  0  0  0  0
  189.3740  173.9830  145.1820 O   0  0  0  0  0  0  0  0  0  0  0  0
  193.0790  175.5590  146.2280 C   0  0  0  0  0  2  0  0  0  0  0  0
  189.8890  174.1790  141.5450 C   0  0  0  0  0  2  0  0  0  0  0  0
  192.9060  172.3730  142.9390 C   0  0  1  0  0  3  0  0  0  0  0  0
  189.5140  177.9440  146.5320 C   0  0  0  0  0  1  0  0  0  0  0  0
  195.2850  173.2730  139.7440 C   0  0  0  0  0  3  0  0  0  0  0  0
  190.4410  170.5710  141.6440 C   0  0  0  0  0  2  0  0  0  0  0  0
  195.3990  174.4010  142.5470 C   0  0  0  0  0  2  0  0  0  0  0  0
  194.2820  173.7710  145.2270 O   0  0  0  0  0  0  0  0  0  0  0  0
  191.5700  170.2820  142.6240 C   0  0  0  0  0  2  0  0  0  0  0  0
  190.4770  172.9810  142.1280 N   0  0  1  0  0  0  0  0  0  0  0  0
  189.5640  175.5920  143.5000 N   0  0  0  0  0  2  0  0  0  0  0  0
  194.0970  172.6940  139.8760 C   0  0  0  0  0  3  0  0  0  0  0  0
  190.5950  176.4150  148.0130 O   0  0  0  0  0  0  0  0  0  0  0  0
  196.4410  176.4170  141.3980 C   0  0  0  0  0  0  0  0  0  0  0  0
  195.3270  177.1380  141.0040 F   0  0  0  0  0  0  0  0  0  0  0  0
  197.4980  176.7300  140.5630 F   0  0  0  0  0  0  0  0  0  0  0  0
  196.7770  176.7690  142.6930 F   0  0  0  0  0  0  0  0  0  0  0  0
  187.9330  175.7060  141.7160 C   0  0  0  0  0  2  0  0  0  0  0  0
  187.0000  176.4380  142.6350 C   0  0  0  0  0  0  0  0  0  0  0  0
  186.1240  175.8200  143.2210 O   0  0  0  0  0  0  0  0  0  0  0  0
  186.6910  178.2920  144.2460 C   0  0  0  0  0  1  0  0  0  0  0  0
  186.3280  178.6200  141.9180 O   0  0  0  0  0  1  0  0  0  0  0  0
  187.1140  177.9220  142.8380 C   0  0  2  0  0  3  0  0  0  0  0  0
  1 18  1  1  0  0  0
  1  9  1  0  0  0  0
  2 23  1  0  0  0  0
  2 27  1  0  0  0  0
  3 12  1  0  0  0  0
  4 10  1  6  0  0  0
  4  1  1  0  0  0  0
  4 11  1  0  0  0  0
  5 20  1  0  0  0  0
  6  7  1  0  0  0  0
  7 25  2  0  0  0  0
  7 18  1  0  0  0  0
  8 26  1  0  0  0  0
  8 20  1  0  0  0  0
  9 30  1  0  0  0  0
 10 17  2  0  0  0  0
 11 30  1  0  0  0  0
 12 13  1  0  0  0  0
 12  5  1  0  0  0  0
 12 20  1  0  0  0  0
 13 24  1  0  0  0  0
 13  6  1  0  0  0  0
 14 31  1  0  0  0  0
 14 24  1  0  0  0  0
 15 14  1  0  0  0  0
 16 28  1  0  0  0  0
 19 27  1  0  0  0  0
 19 16  1  0  0  0  0
 21 11  1  0  0  0  0
 22 29  2  0  0  0  0
 22 15  1  0  0  0  0
 23 26  1  0  0  0  0
 27  5  1  0  0  0  0
 28 10  1  0  0  0  0
 29  3  1  0  0  0  0
 31 34  1  0  0  0  0
 32 31  1  0  0  0  0
 33 31  1  0  0  0  0
 35 16  1  0  0  0  0
 35 36  1  0  0  0  0
 36 40  1  0  0  0  0
 36 37  2  0  0  0  0
 39 40  1  0  0  0  0
 40 38  1  0  0  0  0
M  END
>  <MODEL>
6

>  <REMARK>
 VINA RESULT:      -7.1      2.934      7.686
  Name = 
  4 active torsions:
  status: ('A' for Active; 'I' for Inactive)
    1  A    between atoms: C_6  and  C_7
    2  A    between atoms: C_6  and  C_22
    3  A    between atoms: C_7  and  C_21
    4  A    between atoms: C_13  and  C_19
                            x       y       z     vdW  Elec       q    Type
                         _______ _______ _______ _____ _____    ______ ____

>  <TORSDO>
F 4

$$$$
=
 OpenBabel11072409293D

 40 44  0  0  1  0  0  0  0  0999 V2000
  189.7920  175.3750  144.8240 C   0  0  2  0  0  3  0  0  0  0  0  0
  192.8240  170.6530  141.8400 C   0  0  0  0  0  2  0  0  0  0  0  0
  194.8840  172.5940  142.1570 C   0  0  0  0  0  2  0  0  0  0  0  0
  189.5120  175.5560  143.3640 C   0  0  1  0  0  3  0  0  0  0  0  0
  192.4410  172.8330  143.1060 C   0  0  2  0  0  3  0  0  0  0  0  0
  192.9440  175.4820  143.8250 N   0  0  0  0  0  2  0  0  0  0  0  0
  192.2490  175.4520  145.0780 C   0  0  0  0  0  0  0  0  0  0  0  0
  193.8310  170.9480  144.3840 C   0  0  0  0  0  2  0  0  0  0  0  0
  188.5970  175.8360  145.5170 N   0  0  0  0  0  2  0  0  0  0  0  0
  189.5790  174.2590  142.6200 C   0  0  0  0  0  0  0  0  0  0  0  0
  188.1090  176.0880  143.3790 C   0  0  2  0  0  3  0  0  0  0  0  0
  193.9270  173.2290  143.1840 C   0  0  2  0  0  0  0  0  0  0  0  0
  194.1610  174.7260  143.5130 C   0  0  2  0  0  3  0  0  0  0  0  0
  196.5970  175.3310  143.9310 C   0  0  2  0  0  3  0  0  0  0  0  0
  196.9100  174.4600  142.8520 O   0  0  0  0  0  0  0  0  0  0  0  0
  190.4270  172.9930  140.6060 C   0  0  1  0  0  3  0  0  0  0  0  0
  189.0650  173.2120  143.1030 O   0  0  0  0  0  0  0  0  0  0  0  0
  190.9840  176.2220  145.2400 C   0  0  0  0  0  2  0  0  0  0  0  0
  191.8620  172.5250  140.8160 C   0  0  0  0  0  2  0  0  0  0  0  0
  193.3020  172.3800  144.3110 C   0  0  1  0  0  3  0  0  0  0  0  0
  187.9590  177.1780  142.3370 C   0  0  0  0  0  1  0  0  0  0  0  0
  197.1280  173.1050  143.0800 C   0  0  0  0  0  3  0  0  0  0  0  0
  192.4850  169.5350  142.8160 C   0  0  0  0  0  2  0  0  0  0  0  0
  195.2500  174.9540  144.5630 C   0  0  0  0  0  2  0  0  0  0  0  0
  192.6820  174.7670  146.0430 O   0  0  0  0  0  0  0  0  0  0  0  0
  192.6860  169.9560  144.2660 C   0  0  0  0  0  2  0  0  0  0  0  0
  192.0000  171.8330  142.0900 N   0  0  1  0  0  0  0  0  0  0  0  0
  190.2060  174.2300  141.3380 N   0  0  0  0  0  2  0  0  0  0  0  0
  196.2060  172.2080  142.7490 C   0  0  0  0  0  3  0  0  0  0  0  0
  187.8870  176.6210  144.6570 O   0  0  0  0  0  0  0  0  0  0  0  0
  196.6330  176.7870  143.4690 C   0  0  0  0  0  0  0  0  0  0  0  0
  195.9120  177.5920  144.3340 F   0  0  0  0  0  0  0  0  0  0  0  0
  196.0790  176.8770  142.2050 F   0  0  0  0  0  0  0  0  0  0  0  0
  197.9410  177.2320  143.4150 F   0  0  0  0  0  0  0  0  0  0  0  0
  190.1830  173.2450  139.1270 C   0  0  0  0  0  2  0  0  0  0  0  0
  188.7160  173.2590  138.8160 C   0  0  0  0  0  0  0  0  0  0  0  0
  187.9390  172.6660  139.5480 O   0  0  0  0  0  0  0  0  0  0  0  0
  189.3120  174.2840  136.6420 C   0  0  0  0  0  1  0  0  0  0  0  0
  187.5460  175.1670  137.9690 O   0  0  0  0  0  1  0  0  0  0  0  0
  188.1840  173.9780  137.6090 C   0  0  2  0  0  3  0  0  0  0  0  0
  1 18  1  1  0  0  0
  1  9  1  0  0  0  0
  2 27  1  0  0  0  0
  2 23  1  0  0  0  0
  3 29  1  0  0  0  0
  3 12  1  0  0  0  0
  4 10  1  6  0  0  0
  4 11  1  0  0  0  0
  4  1  1  0  0  0  0
  5 12  1  0  0  0  0
  5 20  1  0  0  0  0
  6  7  1  0  0  0  0
  7 18  1  0  0  0  0
  7 25  2  0  0  0  0
 10 17  2  0  0  0  0
 11 30  1  0  0  0  0
 12 13  1  0  0  0  0
 12 20  1  0  0  0  0
 13  6  1  0  0  0  0
 13 24  1  0  0  0  0
 14 24  1  0  0  0  0
 15 22  1  0  0  0  0
 15 14  1  0  0  0  0
 16 19  1  0  0  0  0
 16 28  1  0  0  0  0
 19 27  1  0  0  0  0
 20  8  1  0  0  0  0
 21 11  1  0  0  0  0
 23 26  1  0  0  0  0
 26  8  1  0  0  0  0
 27  5  1  0  0  0  0
 28 10  1  0  0  0  0
 29 22  2  0  0  0  0
 30  9  1  0  0  0  0
 31 14  1  0  0  0  0
 31 32  1  0  0  0  0
 33 31  1  0  0  0  0
 34 31  1  0  0  0  0
 35 16  1  0  0  0  0
 36 35  1  0  0  0  0
 36 37  2  0  0  0  0
 38 40  1  0  0  0  0
 40 39  1  0  0  0  0
 40 36  1  0  0  0  0
M  END
>  <MODEL>
7

>  <REMARK>
 VINA RESULT:      -7.1      3.349      7.714
  Name = 
  4 active torsions:
  status: ('A' for Active; 'I' for Inactive)
    1  A    between atoms: C_6  and  C_7
    2  A    between atoms: C_6  and  C_22
    3  A    between atoms: C_7  and  C_21
    4  A    between atoms: C_13  and  C_19
                            x       y       z     vdW  Elec       q    Type
                         _______ _______ _______ _____ _____    ______ ____

>  <TORSDO>
F 4

$$$$
=
 OpenBabel11072409293D

 40 44  0  0  1  0  0  0  0  0999 V2000
  190.5590  172.1020  140.5570 C   0  0  2  0  0  3  0  0  0  0  0  0
  195.3460  174.0450  144.2590 C   0  0  0  0  0  2  0  0  0  0  0  0
  193.1690  175.6200  145.2040 C   0  0  0  0  0  2  0  0  0  0  0  0
  191.2940  173.1480  139.7750 C   0  0  1  0  0  3  0  0  0  0  0  0
  192.9780  173.7490  143.3620 C   0  0  2  0  0  3  0  0  0  0  0  0
  190.3480  174.5080  142.8170 N   0  0  0  0  0  2  0  0  0  0  0  0
  189.8210  173.1860  142.6510 C   0  0  0  0  0  0  0  0  0  0  0  0
  193.4670  172.7280  145.7780 C   0  0  0  0  0  2  0  0  0  0  0  0
  190.0620  171.1490  139.5730 N   0  0  0  0  0  2  0  0  0  0  0  0
  192.7320  173.2350  140.1780 C   0  0  0  0  0  0  0  0  0  0  0  0
  191.1650  172.6360  138.3710 C   0  0  2  0  0  3  0  0  0  0  0  0
  192.2940  174.6010  144.4470 C   0  0  2  0  0  0  0  0  0  0  0  0
  190.8630  175.0640  144.0730 C   0  0  2  0  0  3  0  0  0  0  0  0
  189.6150  176.2210  145.9650 C   0  0  2  0  0  3  0  0  0  0  0  0
  190.8470  176.8580  146.2740 O   0  0  0  0  0  0  0  0  0  0  0  0
  194.6880  174.7020  140.8130 C   0  0  1  0  0  3  0  0  0  0  0  0
  193.4100  172.1890  140.3750 O   0  0  0  0  0  0  0  0  0  0  0  0
  189.3900  172.7270  141.3010 C   0  0  0  0  0  2  0  0  0  0  0  0
  194.6320  175.0840  142.2870 C   0  0  0  0  0  2  0  0  0  0  0  0
  192.4770  173.0850  144.6690 C   0  0  1  0  0  3  0  0  0  0  0  0
  190.9100  173.7910  137.4220 C   0  0  0  0  0  1  0  0  0  0  0  0
  191.7560  176.2560  147.1390 C   0  0  0  0  0  3  0  0  0  0  0  0
  195.7670  172.6810  144.7920 C   0  0  0  0  0  2  0  0  0  0  0  0
  189.8550  174.9050  145.2140 C   0  0  0  0  0  2  0  0  0  0  0  0
  189.7340  172.3960  143.6290 O   0  0  0  0  0  0  0  0  0  0  0  0
  194.5740  171.8430  145.2330 C   0  0  0  0  0  2  0  0  0  0  0  0
  194.4420  173.9050  143.1210 N   0  0  1  0  0  0  0  0  0  0  0  0
  193.3370  174.5220  140.3040 N   0  0  0  0  0  2  0  0  0  0  0  0
  192.8590  175.6840  146.6690 C   0  0  0  0  0  3  0  0  0  0  0  0
  190.0710  171.7590  138.3530 O   0  0  0  0  0  0  0  0  0  0  0  0
  188.7030  177.1720  145.1910 C   0  0  0  0  0  0  0  0  0  0  0  0
  187.9020  176.4690  144.3080 F   0  0  0  0  0  0  0  0  0  0  0  0
  189.4780  178.0680  144.4790 F   0  0  0  0  0  0  0  0  0  0  0  0
  187.9020  177.8770  146.0710 F   0  0  0  0  0  0  0  0  0  0  0  0
  195.3690  175.8080  140.0240 C   0  0  0  0  0  2  0  0  0  0  0  0
  196.5650  175.2870  139.2830 C   0  0  0  0  0  0  0  0  0  0  0  0
  197.6420  175.2160  139.8530 O   0  0  0  0  0  0  0  0  0  0  0  0
  197.4330  175.6640  136.9950 C   0  0  0  0  0  1  0  0  0  0  0  0
  195.1680  175.0350  137.3570 O   0  0  0  0  0  1  0  0  0  0  0  0
  196.4650  174.8640  137.8460 C   0  0  2  0  0  3  0  0  0  0  0  0
  1 18  1  6  0  0  0
  2 23  1  0  0  0  0
  3 29  1  0  0  0  0
  4 10  1  1  0  0  0
  4  1  1  0  0  0  0
  5 12  1  0  0  0  0
  5 20  1  0  0  0  0
  6 13  1  0  0  0  0
  7  6  1  0  0  0  0
  7 25  2  0  0  0  0
  9  1  1  0  0  0  0
 10 28  1  0  0  0  0
 10 17  2  0  0  0  0
 11  4  1  0  0  0  0
 12 20  1  0  0  0  0
 12  3  1  0  0  0  0
 13 12  1  0  0  0  0
 13 24  1  0  0  0  0
 14 15  1  0  0  0  0
 15 22  1  0  0  0  0
 16 19  1  0  0  0  0
 18  7  1  0  0  0  0
 19 27  1  0  0  0  0
 20  8  1  0  0  0  0
 21 11  1  0  0  0  0
 23 26  1  0  0  0  0
 24 14  1  0  0  0  0
 26  8  1  0  0  0  0
 27  5  1  0  0  0  0
 27  2  1  0  0  0  0
 28 16  1  0  0  0  0
 29 22  2  0  0  0  0
 30 11  1  0  0  0  0
 30  9  1  0  0  0  0
 31 14  1  0  0  0  0
 31 34  1  0  0  0  0
 32 31  1  0  0  0  0
 33 31  1  0  0  0  0
 35 16  1  0  0  0  0
 36 37  2  0  0  0  0
 36 35  1  0  0  0  0
 38 40  1  0  0  0  0
 39 40  1  0  0  0  0
 40 36  1  0  0  0  0
M  END
>  <MODEL>
8

>  <REMARK>
 VINA RESULT:      -7.0      2.780      4.267
  Name = 
  4 active torsions:
  status: ('A' for Active; 'I' for Inactive)
    1  A    between atoms: C_6  and  C_7
    2  A    between atoms: C_6  and  C_22
    3  A    between atoms: C_7  and  C_21
    4  A    between atoms: C_13  and  C_19
                            x       y       z     vdW  Elec       q    Type
                         _______ _______ _______ _____ _____    ______ ____

>  <TORSDO>
F 4

$$$$
=
 OpenBabel11072409293D

 40 44  0  0  1  0  0  0  0  0999 V2000
  195.7520  174.6020  143.0120 C   0  0  2  0  0  3  0  0  0  0  0  0
  189.8780  172.1770  142.8910 C   0  0  0  0  0  2  0  0  0  0  0  0
  189.7720  173.9150  145.1450 C   0  0  0  0  0  2  0  0  0  0  0  0
  195.8280  173.2860  143.7240 C   0  0  1  0  0  3  0  0  0  0  0  0
  191.8430  173.6660  143.5390 C   0  0  2  0  0  3  0  0  0  0  0  0
  193.3990  175.2260  145.2530 N   0  0  0  0  0  2  0  0  0  0  0  0
  194.0880  175.9610  144.2330 C   0  0  0  0  0  0  0  0  0  0  0  0
  189.7860  174.8710  142.3400 C   0  0  0  0  0  2  0  0  0  0  0  0
  197.0370  174.7680  142.3460 N   0  0  0  0  0  2  0  0  0  0  0  0
  194.7760  172.3350  143.2490 C   0  0  0  0  0  0  0  0  0  0  0  0
  197.1960  172.8030  143.3390 C   0  0  2  0  0  3  0  0  0  0  0  0
  191.0610  174.5200  144.5550 C   0  0  2  0  0  0  0  0  0  0  0  0
  191.9630  175.3120  145.5350 C   0  0  2  0  0  3  0  0  0  0  0  0
  190.7000  176.9450  147.0240 C   0  0  2  0  0  3  0  0  0  0  0  0
  189.7040  175.9370  147.1390 O   0  0  0  0  0  0  0  0  0  0  0  0
  192.9710  170.6730  143.8470 C   0  0  1  0  0  3  0  0  0  0  0  0
  194.5160  172.2240  142.0180 O   0  0  0  0  0  0  0  0  0  0  0  0
  195.5420  175.7290  144.0100 C   0  0  0  0  0  2  0  0  0  0  0  0
  191.6620  171.3790  144.1790 C   0  0  0  0  0  2  0  0  0  0  0  0
  191.1230  174.9580  143.0770 C   0  0  1  0  0  3  0  0  0  0  0  0
  197.8650  172.1480  144.5310 C   0  0  0  0  0  1  0  0  0  0  0  0
  188.6680  175.8610  146.2130 C   0  0  0  0  0  3  0  0  0  0  0  0
  189.5280  172.5440  141.4550 C   0  0  0  0  0  2  0  0  0  0  0  0
  191.5150  176.7610  145.7370 C   0  0  0  0  0  2  0  0  0  0  0  0
  193.4770  176.7900  143.5070 O   0  0  0  0  0  0  0  0  0  0  0  0
  189.9140  173.9780  141.1180 C   0  0  0  0  0  2  0  0  0  0  0  0
  191.3090  172.3330  143.1370 N   0  0  1  0  0  0  0  0  0  0  0  0
  194.0910  171.5280  144.2070 N   0  0  0  0  0  2  0  0  0  0  0  0
  188.6640  174.9150  145.2800 C   0  0  0  0  0  3  0  0  0  0  0  0
  197.9310  173.9280  142.9420 O   0  0  0  0  0  0  0  0  0  0  0  0
  191.5820  176.9650  148.2710 C   0  0  0  0  0  0  0  0  0  0  0  0
  191.1870  177.9730  149.1330 F   0  0  0  0  0  0  0  0  0  0  0  0
  192.8950  177.1850  147.8960 F   0  0  0  0  0  0  0  0  0  0  0  0
  191.5040  175.7490  148.9240 F   0  0  0  0  0  0  0  0  0  0  0  0
  193.0670  169.3770  144.6360 C   0  0  0  0  0  2  0  0  0  0  0  0
  194.3510  168.6580  144.3430 C   0  0  0  0  0  0  0  0  0  0  0  0
  194.5910  168.2970  143.2020 O   0  0  0  0  0  0  0  0  0  0  0  0
  194.8730  168.9620  146.7440 C   0  0  0  0  0  1  0  0  0  0  0  0
  196.6050  168.8650  145.1170 O   0  0  0  0  0  1  0  0  0  0  0  0
  195.3410  168.3620  145.4320 C   0  0  2  0  0  3  0  0  0  0  0  0
  1  4  1  0  0  0  0
  1 18  1  1  0  0  0
  2 27  1  0  0  0  0
  3 29  1  0  0  0  0
  4 10  1  6  0  0  0
  5 12  1  0  0  0  0
  6 13  1  0  0  0  0
  7  6  1  0  0  0  0
  8 20  1  0  0  0  0
  9 30  1  0  0  0  0
  9  1  1  0  0  0  0
 10 28  1  0  0  0  0
 11  4  1  0  0  0  0
 11 21  1  0  0  0  0
 12  3  1  0  0  0  0
 12 13  1  0  0  0  0
 13 24  1  0  0  0  0
 14 15  1  0  0  0  0
 14 31  1  0  0  0  0
 16 19  1  0  0  0  0
 16 28  1  0  0  0  0
 16 35  1  0  0  0  0
 17 10  2  0  0  0  0
 18  7  1  0  0  0  0
 20  5  1  0  0  0  0
 20 12  1  0  0  0  0
 22 15  1  0  0  0  0
 23  2  1  0  0  0  0
 24 14  1  0  0  0  0
 25  7  2  0  0  0  0
 26 23  1  0  0  0  0
 26  8  1  0  0  0  0
 27  5  1  0  0  0  0
 27 19  1  0  0  0  0
 29 22  2  0  0  0  0
 30 11  1  0  0  0  0
 31 34  1  0  0  0  0
 31 32  1  0  0  0  0
 33 31  1  0  0  0  0
 36 35  1  0  0  0  0
 36 40  1  0  0  0  0
 37 36  2  0  0  0  0
 39 40  1  0  0  0  0
 40 38  1  0  0  0  0
M  END
>  <MODEL>
9

>  <REMARK>
 VINA RESULT:      -7.0      3.724      6.070
  Name = 
  4 active torsions:
  status: ('A' for Active; 'I' for Inactive)
    1  A    between atoms: C_6  and  C_7
    2  A    between atoms: C_6  and  C_22
    3  A    between atoms: C_7  and  C_21
    4  A    between atoms: C_13  and  C_19
                            x       y       z     vdW  Elec       q    Type
                         _______ _______ _______ _____ _____    ______ ____

>  <TORSDO>
F 4

$$$$
