=
 OpenBabel11062420373D

 32 36  0  0  1  0  0  0  0  0999 V2000
  192.7420  177.1830  144.4480 N   0  0  2  0  0  0  0  0  0  0  0  0
  190.6120  177.1650  143.3170 C   0  0  0  0  0  3  0  0  0  0  0  0
  189.7160  177.1850  144.3150 C   0  0  0  0  0  0  0  0  0  0  0  0
  194.2800  176.9150  146.9120 O   0  0  0  0  0  1  0  0  0  0  0  0
  194.1360  176.7940  144.5770 C   0  0  1  0  0  3  0  0  0  0  0  0
  192.3250  176.5580  145.6560 N   0  0  0  0  0  0  0  0  0  0  0  0
  193.7440  176.1850  145.8500 C   0  0  2  0  0  3  0  0  0  0  0  0
  189.9180  176.6040  145.6730 C   0  0  0  0  0  3  0  0  0  0  0  0
  191.0700  176.2840  146.2780 C   0  0  0  0  0  0  0  0  0  0  0  0
  191.9770  176.5590  143.3750 C   0  0  0  0  0  2  0  0  0  0  0  0
  184.3150  178.3430  143.1920 C   0  0  0  0  0  3  0  0  0  0  0  0
  187.8340  177.2410  142.6850 C   0  0  0  0  0  2  0  0  0  0  0  0
  187.3840  177.5400  145.1190 C   0  0  0  0  0  2  0  0  0  0  0  0
  186.1620  178.0610  141.0020 C   0  0  0  0  0  2  0  0  0  0  0  0
  186.0970  178.3180  144.8660 C   0  0  0  0  0  2  0  0  0  0  0  0
  183.8230  178.2230  141.8110 C   0  0  0  0  0  3  0  0  0  0  0  0
  185.5990  178.1210  143.4660 C   0  0  0  0  0  0  0  0  0  0  0  0
  184.6700  178.0560  140.7930 C   0  0  0  0  0  3  0  0  0  0  0  0
  188.3870  177.7940  143.9970 C   0  0  1  0  0  3  0  0  0  0  0  0
  186.5140  177.7950  142.3990 N   0  0  0  0  0  0  0  0  0  0  0  0
  196.6340  174.9420  144.8210 F   0  0  0  0  0  0  0  0  0  0  0  0
  196.1370  173.8780  141.9660 C   0  0  0  0  0  0  0  0  0  0  0  0
  196.0600  175.1480  141.5510 C   0  0  0  0  0  3  0  0  0  0  0  0
  195.5420  176.2690  142.4070 C   0  0  0  0  0  2  0  0  0  0  0  0
  195.4070  174.5730  144.2970 C   0  0  1  0  0  3  0  0  0  0  0  0
  196.6710  172.9250  141.1100 O   0  0  0  0  0  1  0  0  0  0  0  0
  194.7230  175.7470  143.5970 C   0  0  1  0  0  3  0  0  0  0  0  0
  195.5980  173.4300  143.3020 C   0  0  0  0  0  2  0  0  0  0  0  0
  191.2620  176.6680  148.5970 F   0  0  0  0  0  0  0  0  0  0  0  0
  192.0380  174.7160  147.7970 F   0  0  0  0  0  0  0  0  0  0  0  0
  189.8200  175.0940  147.8780 F   0  0  0  0  0  0  0  0  0  0  0  0
  191.0520  175.6790  147.6540 C   0  0  0  0  0  0  0  0  0  0  0  0
  1 10  1  6  0  0  0
  1  5  1  0  0  0  0
  1  6  1  0  0  0  0
  2 10  1  0  0  0  0
  2  3  2  0  0  0  0
  3  8  1  0  0  0  0
  5 27  1  6  0  0  0
  5  7  1  0  0  0  0
  6  7  1  0  0  0  0
  6  9  1  0  0  0  0
  7  4  1  1  0  0  0
  8  9  2  0  0  0  0
  9 32  1  0  0  0  0
 11 17  2  0  0  0  0
 12 19  1  0  0  0  0
 14 20  1  0  0  0  0
 15 13  1  0  0  0  0
 16 11  1  0  0  0  0
 17 15  1  0  0  0  0
 18 14  1  0  0  0  0
 18 16  2  0  0  0  0
 19  3  1  1  0  0  0
 19 13  1  0  0  0  0
 20 12  1  0  0  0  0
 20 17  1  0  0  0  0
 22 28  1  0  0  0  0
 23 22  2  0  0  0  0
 23 24  1  0  0  0  0
 25 21  1  6  0  0  0
 26 22  1  0  0  0  0
 27 24  1  6  0  0  0
 27 25  1  0  0  0  0
 28 25  1  0  0  0  0
 32 30  1  0  0  0  0
 32 31  1  0  0  0  0
 32 29  1  0  0  0  0
M  END
>  <MODEL>
1

>  <REMARK>
 VINA RESULT:      -8.8      0.000      0.000
  Name = 
  3 active torsions:
  status: ('A' for Active; 'I' for Inactive)
    1  A    between atoms: C_9  and  C_25
    2  A    between atoms: C_15  and  C_27
    3  A    between atoms: C_29  and  C_31
                            x       y       z     vdW  Elec       q    Type
                         _______ _______ _______ _____ _____    ______ ____

>  <TORSDO>
F 3

$$$$
=
 OpenBabel11062420373D

 32 36  0  0  1  0  0  0  0  0999 V2000
  189.2760  177.5830  142.7090 N   0  0  2  0  0  0  0  0  0  0  0  0
  191.2310  177.2130  144.0700 C   0  0  0  0  0  3  0  0  0  0  0  0
  191.8760  176.2160  143.4450 C   0  0  0  0  0  0  0  0  0  0  0  0
  187.5060  176.7060  140.5630 O   0  0  0  0  0  1  0  0  0  0  0  0
  187.8730  177.9190  142.5330 C   0  0  1  0  0  3  0  0  0  0  0  0
  189.1580  176.2690  142.1770 N   0  0  0  0  0  0  0  0  0  0  0  0
  187.7340  176.5890  141.9350 C   0  0  2  0  0  3  0  0  0  0  0  0
  191.2330  175.1400  142.6390 C   0  0  0  0  0  3  0  0  0  0  0  0
  190.0090  175.1260  142.0920 C   0  0  0  0  0  0  0  0  0  0  0  0
  189.7530  177.4320  144.0780 C   0  0  0  0  0  2  0  0  0  0  0  0
  197.3670  174.9540  143.6270 C   0  0  0  0  0  3  0  0  0  0  0  0
  193.7540  174.9890  144.5250 C   0  0  0  0  0  2  0  0  0  0  0  0
  194.0810  176.0560  142.2960 C   0  0  0  0  0  2  0  0  0  0  0  0
  195.7490  174.4660  145.9570 C   0  0  0  0  0  2  0  0  0  0  0  0
  195.5880  176.1900  142.4920 C   0  0  0  0  0  2  0  0  0  0  0  0
  197.8840  174.1410  144.7380 C   0  0  0  0  0  3  0  0  0  0  0  0
  196.0810  175.3020  143.5940 C   0  0  0  0  0  0  0  0  0  0  0  0
  197.1280  173.8790  145.8060 C   0  0  0  0  0  3  0  0  0  0  0  0
  193.3590  176.1660  143.6360 C   0  0  1  0  0  3  0  0  0  0  0  0
  195.2050  174.9080  144.6710 N   0  0  0  0  0  0  0  0  0  0  0  0
  185.1310  176.6210  143.2600 F   0  0  0  0  0  0  0  0  0  0  0  0
  185.0230  178.2800  145.8600 C   0  0  0  0  0  0  0  0  0  0  0  0
  185.2780  179.3700  145.1270 C   0  0  0  0  0  3  0  0  0  0  0  0
  186.1090  179.3500  143.8750 C   0  0  0  0  0  2  0  0  0  0  0  0
  186.1830  176.8220  144.1360 C   0  0  1  0  0  3  0  0  0  0  0  0
  184.2080  178.4000  146.9780 O   0  0  0  0  0  1  0  0  0  0  0  0
  186.9710  178.0830  143.7830 C   0  0  1  0  0  3  0  0  0  0  0  0
  185.6470  176.9400  145.5610 C   0  0  0  0  0  2  0  0  0  0  0  0
  189.3300  174.2580  140.0070 F   0  0  0  0  0  0  0  0  0  0  0  0
  188.3560  173.4200  141.8520 F   0  0  0  0  0  0  0  0  0  0  0  0
  190.5070  172.9340  141.3980 F   0  0  0  0  0  0  0  0  0  0  0  0
  189.5400  173.9190  141.3310 C   0  0  0  0  0  0  0  0  0  0  0  0
  1 10  1  1  0  0  0
  2 10  1  0  0  0  0
  3  2  2  0  0  0  0
  5  1  1  0  0  0  0
  5 27  1  1  0  0  0
  6  1  1  0  0  0  0
  7  4  1  6  0  0  0
  7  6  1  0  0  0  0
  7  5  1  0  0  0  0
  8  3  1  0  0  0  0
  9  6  1  0  0  0  0
  9  8  2  0  0  0  0
 11 16  1  0  0  0  0
 12 20  1  0  0  0  0
 13 15  1  0  0  0  0
 13 19  1  0  0  0  0
 15 17  1  0  0  0  0
 16 18  2  0  0  0  0
 17 11  2  0  0  0  0
 17 20  1  0  0  0  0
 18 14  1  0  0  0  0
 19  3  1  6  0  0  0
 19 12  1  0  0  0  0
 20 14  1  0  0  0  0
 22 26  1  0  0  0  0
 23 22  2  0  0  0  0
 24 23  1  0  0  0  0
 25 21  1  6  0  0  0
 25 28  1  0  0  0  0
 27 24  1  6  0  0  0
 27 25  1  0  0  0  0
 28 22  1  0  0  0  0
 29 32  1  0  0  0  0
 32 31  1  0  0  0  0
 32 30  1  0  0  0  0
 32  9  1  0  0  0  0
M  END
>  <MODEL>
2

>  <REMARK>
 VINA RESULT:      -8.6      3.985      9.174
  Name = 
  3 active torsions:
  status: ('A' for Active; 'I' for Inactive)
    1  A    between atoms: C_9  and  C_25
    2  A    between atoms: C_15  and  C_27
    3  A    between atoms: C_29  and  C_31
                            x       y       z     vdW  Elec       q    Type
                         _______ _______ _______ _____ _____    ______ ____

>  <TORSDO>
F 3

$$$$
=
 OpenBabel11062420373D

 32 36  0  0  1  0  0  0  0  0999 V2000
  189.1190  175.7550  144.6900 N   0  0  2  0  0  0  0  0  0  0  0  0
  190.6980  176.6010  143.0760 C   0  0  0  0  0  3  0  0  0  0  0  0
  191.8840  176.4860  143.6930 C   0  0  0  0  0  0  0  0  0  0  0  0
  188.5240  174.9080  147.4170 O   0  0  0  0  0  1  0  0  0  0  0  0
  187.8240  175.7570  145.3490 C   0  0  1  0  0  3  0  0  0  0  0  0
  189.8580  176.0650  145.8650 N   0  0  0  0  0  0  0  0  0  0  0  0
  188.5650  176.0270  146.5830 C   0  0  2  0  0  3  0  0  0  0  0  0
  192.1060  176.5680  145.1650 C   0  0  0  0  0  3  0  0  0  0  0  0
  191.2110  176.4180  146.1510 C   0  0  0  0  0  0  0  0  0  0  0  0
  189.3800  176.8320  143.7420 C   0  0  0  0  0  2  0  0  0  0  0  0
  196.4480  174.7790  140.8590 C   0  0  0  0  0  3  0  0  0  0  0  0
  194.3430  176.0990  143.6310 C   0  0  0  0  0  2  0  0  0  0  0  0
  192.8880  175.1560  141.8400 C   0  0  0  0  0  2  0  0  0  0  0  0
  196.7960  176.4160  143.2010 C   0  0  0  0  0  2  0  0  0  0  0  0
  194.0260  175.1160  140.8260 C   0  0  0  0  0  2  0  0  0  0  0  0
  197.7770  174.9370  141.4690 C   0  0  0  0  0  3  0  0  0  0  0  0
  195.3630  175.2220  141.4940 C   0  0  0  0  0  0  0  0  0  0  0  0
  197.9410  175.6650  142.5760 C   0  0  0  0  0  3  0  0  0  0  0  0
  193.0770  176.3230  142.8060 C   0  0  1  0  0  3  0  0  0  0  0  0
  195.5000  175.8880  142.7670 N   0  0  0  0  0  0  0  0  0  0  0  0
  185.0720  176.4630  146.6360 F   0  0  0  0  0  0  0  0  0  0  0  0
  184.6880  178.7420  144.5900 C   0  0  0  0  0  0  0  0  0  0  0  0
  184.9700  177.8630  143.6210 C   0  0  0  0  0  3  0  0  0  0  0  0
  185.9070  176.7030  143.8030 C   0  0  0  0  0  2  0  0  0  0  0  0
  186.0370  177.3760  146.2510 C   0  0  1  0  0  3  0  0  0  0  0  0
  183.7760  179.7570  144.3300 O   0  0  0  0  0  1  0  0  0  0  0  0
  186.8130  176.8870  145.0280 C   0  0  1  0  0  3  0  0  0  0  0  0
  185.3770  178.7160  145.9310 C   0  0  0  0  0  2  0  0  0  0  0  0
  192.9610  176.9770  147.6310 F   0  0  0  0  0  0  0  0  0  0  0  0
  191.5260  175.3710  148.2740 F   0  0  0  0  0  0  0  0  0  0  0  0
  190.8500  177.5180  148.2010 F   0  0  0  0  0  0  0  0  0  0  0  0
  191.6410  176.5670  147.5840 C   0  0  0  0  0  0  0  0  0  0  0  0
  1 10  1  6  0  0  0
  1  5  1  0  0  0  0
  1  6  1  0  0  0  0
  2  3  2  0  0  0  0
  2 10  1  0  0  0  0
  3  8  1  0  0  0  0
  5 27  1  6  0  0  0
  5  7  1  0  0  0  0
  6  9  1  0  0  0  0
  6  7  1  0  0  0  0
  7  4  1  1  0  0  0
  8  9  2  0  0  0  0
  9 32  1  0  0  0  0
 11 16  1  0  0  0  0
 11 17  2  0  0  0  0
 13 19  1  0  0  0  0
 15 17  1  0  0  0  0
 15 13  1  0  0  0  0
 16 18  2  0  0  0  0
 17 20  1  0  0  0  0
 18 14  1  0  0  0  0
 19 12  1  0  0  0  0
 19  3  1  1  0  0  0
 20 14  1  0  0  0  0
 20 12  1  0  0  0  0
 22 28  1  0  0  0  0
 23 24  1  0  0  0  0
 23 22  2  0  0  0  0
 25 21  1  6  0  0  0
 26 22  1  0  0  0  0
 27 24  1  6  0  0  0
 27 25  1  0  0  0  0
 28 25  1  0  0  0  0
 32 29  1  0  0  0  0
 32 31  1  0  0  0  0
 32 30  1  0  0  0  0
M  END
>  <MODEL>
3

>  <REMARK>
 VINA RESULT:      -8.5      2.900      8.464
  Name = 
  3 active torsions:
  status: ('A' for Active; 'I' for Inactive)
    1  A    between atoms: C_9  and  C_25
    2  A    between atoms: C_15  and  C_27
    3  A    between atoms: C_29  and  C_31
                            x       y       z     vdW  Elec       q    Type
                         _______ _______ _______ _____ _____    ______ ____

>  <TORSDO>
F 3

$$$$
=
 OpenBabel11062420373D

 32 36  0  0  1  0  0  0  0  0999 V2000
  192.7960  176.9930  144.4250 N   0  0  2  0  0  0  0  0  0  0  0  0
  190.7300  176.5570  143.2600 C   0  0  0  0  0  3  0  0  0  0  0  0
  189.8120  176.5120  144.2370 C   0  0  0  0  0  0  0  0  0  0  0  0
  194.2820  177.1540  146.9290 O   0  0  0  0  0  1  0  0  0  0  0  0
  194.2290  176.8380  144.6090 C   0  0  1  0  0  3  0  0  0  0  0  0
  192.4440  176.4030  145.6700 N   0  0  0  0  0  0  0  0  0  0  0  0
  193.8970  176.2720  145.9190 C   0  0  2  0  0  3  0  0  0  0  0  0
  190.0600  176.0730  145.6400 C   0  0  0  0  0  3  0  0  0  0  0  0
  191.2280  175.9830  146.2900 C   0  0  0  0  0  0  0  0  0  0  0  0
  192.1700  176.1780  143.3910 C   0  0  0  0  0  2  0  0  0  0  0  0
  184.8920  179.0110  143.0840 C   0  0  0  0  0  3  0  0  0  0  0  0
  187.6510  177.4550  145.0390 C   0  0  0  0  0  2  0  0  0  0  0  0
  188.4120  177.8930  142.7060 C   0  0  0  0  0  2  0  0  0  0  0  0
  185.2190  177.6850  145.6180 C   0  0  0  0  0  2  0  0  0  0  0  0
  186.9910  178.1190  142.2010 C   0  0  0  0  0  2  0  0  0  0  0  0
  183.9150  179.2140  144.1650 C   0  0  0  0  0  3  0  0  0  0  0  0
  186.0390  178.3790  143.3290 C   0  0  0  0  0  0  0  0  0  0  0  0
  184.0780  178.6310  145.3540 C   0  0  0  0  0  3  0  0  0  0  0  0
  188.4150  176.8800  143.8480 C   0  0  1  0  0  3  0  0  0  0  0  0
  186.3050  177.8630  144.6500 N   0  0  0  0  0  0  0  0  0  0  0  0
  196.5810  174.9060  145.2920 F   0  0  0  0  0  0  0  0  0  0  0  0
  196.7070  174.0010  142.3430 C   0  0  0  0  0  0  0  0  0  0  0  0
  196.7440  175.2920  141.9920 C   0  0  0  0  0  3  0  0  0  0  0  0
  196.0690  176.3830  142.7740 C   0  0  0  0  0  2  0  0  0  0  0  0
  195.4940  174.5990  144.4920 C   0  0  1  0  0  3  0  0  0  0  0  0
  197.4010  173.0770  141.5730 O   0  0  0  0  0  1  0  0  0  0  0  0
  195.0000  175.8250  143.7260 C   0  0  1  0  0  3  0  0  0  0  0  0
  195.8800  173.5020  143.5020 C   0  0  0  0  0  2  0  0  0  0  0  0
  191.4900  176.5500  148.5640 F   0  0  0  0  0  0  0  0  0  0  0  0
  192.2650  174.5490  147.8930 F   0  0  0  0  0  0  0  0  0  0  0  0
  190.0460  174.9090  148.0180 F   0  0  0  0  0  0  0  0  0  0  0  0
  191.2620  175.4880  147.7080 C   0  0  0  0  0  0  0  0  0  0  0  0
  1 10  1  6  0  0  0
  1  5  1  0  0  0  0
  1  6  1  0  0  0  0
  2 10  1  0  0  0  0
  2  3  2  0  0  0  0
  3  8  1  0  0  0  0
  5 27  1  6  0  0  0
  5  7  1  0  0  0  0
  6  7  1  0  0  0  0
  6  9  1  0  0  0  0
  7  4  1  1  0  0  0
  8  9  2  0  0  0  0
  9 32  1  0  0  0  0
 11 17  2  0  0  0  0
 11 16  1  0  0  0  0
 13 19  1  0  0  0  0
 15 13  1  0  0  0  0
 15 17  1  0  0  0  0
 16 18  2  0  0  0  0
 17 20  1  0  0  0  0
 18 14  1  0  0  0  0
 19  3  1  1  0  0  0
 19 12  1  0  0  0  0
 20 12  1  0  0  0  0
 20 14  1  0  0  0  0
 22 28  1  0  0  0  0
 23 22  2  0  0  0  0
 23 24  1  0  0  0  0
 25 21  1  6  0  0  0
 26 22  1  0  0  0  0
 27 24  1  1  0  0  0
 27 25  1  0  0  0  0
 28 25  1  0  0  0  0
 32 30  1  0  0  0  0
 32 31  1  0  0  0  0
 32 29  1  0  0  0  0
M  END
>  <MODEL>
4

>  <REMARK>
 VINA RESULT:      -8.5      0.905      1.609
  Name = 
  3 active torsions:
  status: ('A' for Active; 'I' for Inactive)
    1  A    between atoms: C_9  and  C_25
    2  A    between atoms: C_15  and  C_27
    3  A    between atoms: C_29  and  C_31
                            x       y       z     vdW  Elec       q    Type
                         _______ _______ _______ _____ _____    ______ ____

>  <TORSDO>
F 3

$$$$
=
 OpenBabel11062420373D

 32 36  0  0  1  0  0  0  0  0999 V2000
  189.3670  176.7210  143.4060 N   0  0  2  0  0  0  0  0  0  0  0  0
  190.7700  176.0880  145.2620 C   0  0  0  0  0  3  0  0  0  0  0  0
  191.2920  174.9110  144.8850 C   0  0  0  0  0  0  0  0  0  0  0  0
  188.0380  176.0170  140.9070 O   0  0  0  0  0  1  0  0  0  0  0  0
  188.1770  177.3330  142.8390 C   0  0  1  0  0  3  0  0  0  0  0  0
  189.0750  175.4140  142.9280 N   0  0  0  0  0  0  0  0  0  0  0  0
  187.8780  176.0080  142.2930 C   0  0  2  0  0  3  0  0  0  0  0  0
  190.6340  173.9180  143.9900 C   0  0  0  0  0  3  0  0  0  0  0  0
  189.6200  174.1110  143.1340 C   0  0  0  0  0  0  0  0  0  0  0  0
  189.4340  176.6250  144.8580 C   0  0  0  0  0  2  0  0  0  0  0  0
  196.6970  173.7340  145.9690 C   0  0  0  0  0  3  0  0  0  0  0  0
  193.1770  173.2850  144.8420 C   0  0  0  0  0  2  0  0  0  0  0  0
  193.6220  175.6980  145.2840 C   0  0  0  0  0  2  0  0  0  0  0  0
  194.8550  171.5600  145.5600 C   0  0  0  0  0  2  0  0  0  0  0  0
  194.9120  175.4030  146.0430 C   0  0  0  0  0  2  0  0  0  0  0  0
  197.1920  172.3630  145.7660 C   0  0  0  0  0  3  0  0  0  0  0  0
  195.4120  174.0180  145.7640 C   0  0  0  0  0  0  0  0  0  0  0  0
  196.3460  171.3560  145.5400 C   0  0  0  0  0  3  0  0  0  0  0  0
  192.6220  174.5610  145.4730 C   0  0  1  0  0  3  0  0  0  0  0  0
  194.4990  172.9700  145.3770 N   0  0  0  0  0  0  0  0  0  0  0  0
  185.1900  176.4710  143.1010 F   0  0  0  0  0  0  0  0  0  0  0  0
  184.7490  178.6220  145.2710 C   0  0  0  0  0  0  0  0  0  0  0  0
  185.3060  179.5130  144.4420 C   0  0  0  0  0  3  0  0  0  0  0  0
  186.3780  179.1640  143.4500 C   0  0  0  0  0  2  0  0  0  0  0  0
  186.0440  176.7440  144.1550 C   0  0  1  0  0  3  0  0  0  0  0  0
  183.7350  179.0400  146.1220 O   0  0  0  0  0  1  0  0  0  0  0  0
  187.0560  177.8290  143.7880 C   0  0  1  0  0  3  0  0  0  0  0  0
  185.2320  177.1960  145.3680 C   0  0  0  0  0  2  0  0  0  0  0  0
  189.4570  173.0950  141.0120 F   0  0  0  0  0  0  0  0  0  0  0  0
  187.6990  172.8990  142.3990 F   0  0  0  0  0  0  0  0  0  0  0  0
  189.6010  171.7770  142.8330 F   0  0  0  0  0  0  0  0  0  0  0  0
  189.0820  172.9570  142.3360 C   0  0  0  0  0  0  0  0  0  0  0  0
  1 10  1  1  0  0  0
  3  2  2  0  0  0  0
  5  1  1  0  0  0  0
  5 27  1  1  0  0  0
  6  9  1  0  0  0  0
  6  1  1  0  0  0  0
  7  4  1  6  0  0  0
  7  5  1  0  0  0  0
  7  6  1  0  0  0  0
  8  3  1  0  0  0  0
  9  8  2  0  0  0  0
 10  2  1  0  0  0  0
 12 20  1  0  0  0  0
 12 19  1  0  0  0  0
 13 19  1  0  0  0  0
 13 15  1  0  0  0  0
 16 11  1  0  0  0  0
 17 11  2  0  0  0  0
 17 15  1  0  0  0  0
 18 14  1  0  0  0  0
 18 16  2  0  0  0  0
 19  3  1  6  0  0  0
 20 14  1  0  0  0  0
 20 17  1  0  0  0  0
 22 28  1  0  0  0  0
 22 26  1  0  0  0  0
 23 22  2  0  0  0  0
 24 23  1  0  0  0  0
 25 21  1  6  0  0  0
 25 28  1  0  0  0  0
 27 24  1  6  0  0  0
 27 25  1  0  0  0  0
 29 32  1  0  0  0  0
 32 30  1  0  0  0  0
 32 31  1  0  0  0  0
 32  9  1  0  0  0  0
M  END
>  <MODEL>
5

>  <REMARK>
 VINA RESULT:      -8.4      4.016      9.130
  Name = 
  3 active torsions:
  status: ('A' for Active; 'I' for Inactive)
    1  A    between atoms: C_9  and  C_25
    2  A    between atoms: C_15  and  C_27
    3  A    between atoms: C_29  and  C_31
                            x       y       z     vdW  Elec       q    Type
                         _______ _______ _______ _____ _____    ______ ____

>  <TORSDO>
F 3

$$$$
=
 OpenBabel11062420373D

 32 36  0  0  1  0  0  0  0  0999 V2000
  192.5410  175.1520  145.0780 N   0  0  2  0  0  0  0  0  0  0  0  0
  190.8390  176.8340  144.7790 C   0  0  0  0  0  3  0  0  0  0  0  0
  189.6920  176.1730  144.9930 C   0  0  0  0  0  0  0  0  0  0  0  0
  193.2750  172.3440  145.3680 O   0  0  0  0  0  1  0  0  0  0  0  0
  193.8170  174.5380  144.7520 C   0  0  1  0  0  3  0  0  0  0  0  0
  191.7610  174.0200  144.7150 N   0  0  0  0  0  0  0  0  0  0  0  0
  193.0420  173.3410  144.4200 C   0  0  2  0  0  3  0  0  0  0  0  0
  189.4600  174.7270  144.7180 C   0  0  0  0  0  3  0  0  0  0  0  0
  190.3670  173.7540  144.5550 C   0  0  0  0  0  0  0  0  0  0  0  0
  192.0980  176.2480  144.2250 C   0  0  0  0  0  2  0  0  0  0  0  0
  184.7050  178.3050  146.5330 C   0  0  0  0  0  3  0  0  0  0  0  0
  187.5620  177.3010  144.3670 C   0  0  0  0  0  2  0  0  0  0  0  0
  187.8090  176.2710  146.6230 C   0  0  0  0  0  2  0  0  0  0  0  0
  185.8220  179.0720  143.9930 C   0  0  0  0  0  2  0  0  0  0  0  0
  186.7610  177.1880  147.2440 C   0  0  0  0  0  2  0  0  0  0  0  0
  183.8820  179.0070  145.5360 C   0  0  0  0  0  3  0  0  0  0  0  0
  185.9070  177.8380  146.1980 C   0  0  0  0  0  0  0  0  0  0  0  0
  184.3820  179.3350  144.3430 C   0  0  0  0  0  3  0  0  0  0  0  0
  188.5430  176.9900  145.4950 C   0  0  1  0  0  3  0  0  0  0  0  0
  186.4140  178.0540  144.8640 N   0  0  0  0  0  0  0  0  0  0  0  0
  196.0680  173.1950  143.0600 F   0  0  0  0  0  0  0  0  0  0  0  0
  196.3660  175.7740  141.3900 C   0  0  0  0  0  0  0  0  0  0  0  0
  196.4590  176.4570  142.5380 C   0  0  0  0  0  3  0  0  0  0  0  0
  195.7620  176.0480  143.8040 C   0  0  0  0  0  2  0  0  0  0  0  0
  195.0290  173.9570  142.5560 C   0  0  1  0  0  3  0  0  0  0  0  0
  197.0840  176.2150  140.2870 O   0  0  0  0  0  1  0  0  0  0  0  0
  194.6190  175.0590  143.5330 C   0  0  1  0  0  3  0  0  0  0  0  0
  195.4510  174.5850  141.2290 C   0  0  0  0  0  2  0  0  0  0  0  0
  189.5050  171.7380  145.4240 F   0  0  0  0  0  0  0  0  0  0  0  0
  190.9430  171.5990  143.7020 F   0  0  0  0  0  0  0  0  0  0  0  0
  188.8630  172.3900  143.3660 F   0  0  0  0  0  0  0  0  0  0  0  0
  189.9190  172.3510  144.2560 C   0  0  0  0  0  0  0  0  0  0  0  0
  1 10  1  6  0  0  0
  2  3  2  0  0  0  0
  5 27  1  6  0  0  0
  5  1  1  0  0  0  0
  6  1  1  0  0  0  0
  7  6  1  0  0  0  0
  7  5  1  0  0  0  0
  7  4  1  1  0  0  0
  8  3  1  0  0  0  0
  9  6  1  0  0  0  0
  9  8  2  0  0  0  0
 10  2  1  0  0  0  0
 12 20  1  0  0  0  0
 12 19  1  0  0  0  0
 13 15  1  0  0  0  0
 14 18  1  0  0  0  0
 14 20  1  0  0  0  0
 16 11  1  0  0  0  0
 17 11  2  0  0  0  0
 17 15  1  0  0  0  0
 18 16  2  0  0  0  0
 19  3  1  6  0  0  0
 19 13  1  0  0  0  0
 20 17  1  0  0  0  0
 22 23  2  0  0  0  0
 23 24  1  0  0  0  0
 25 21  1  1  0  0  0
 25 27  1  0  0  0  0
 26 22  1  0  0  0  0
 27 24  1  1  0  0  0
 28 22  1  0  0  0  0
 28 25  1  0  0  0  0
 30 32  1  0  0  0  0
 31 32  1  0  0  0  0
 32  9  1  0  0  0  0
 32 29  1  0  0  0  0
M  END
>  <MODEL>
6

>  <REMARK>
 VINA RESULT:      -8.3      2.575      3.098
  Name = 
  3 active torsions:
  status: ('A' for Active; 'I' for Inactive)
    1  A    between atoms: C_9  and  C_25
    2  A    between atoms: C_15  and  C_27
    3  A    between atoms: C_29  and  C_31
                            x       y       z     vdW  Elec       q    Type
                         _______ _______ _______ _____ _____    ______ ____

>  <TORSDO>
F 3

$$$$
=
 OpenBabel11062420373D

 32 36  0  0  1  0  0  0  0  0999 V2000
  188.9740  177.5210  142.6740 N   0  0  2  0  0  0  0  0  0  0  0  0
  190.8870  176.8640  143.9870 C   0  0  0  0  0  3  0  0  0  0  0  0
  191.4190  175.8450  143.2940 C   0  0  0  0  0  0  0  0  0  0  0  0
  187.1100  176.9700  140.5000 O   0  0  0  0  0  1  0  0  0  0  0  0
  187.6140  178.0130  142.5350 C   0  0  1  0  0  3  0  0  0  0  0  0
  188.7160  176.2620  142.0640 N   0  0  0  0  0  0  0  0  0  0  0  0
  187.3320  176.7450  141.8590 C   0  0  2  0  0  3  0  0  0  0  0  0
  190.6620  174.8940  142.4320 C   0  0  0  0  0  3  0  0  0  0  0  0
  189.4410  175.0440  141.9000 C   0  0  0  0  0  0  0  0  0  0  0  0
  189.4400  177.2370  144.0260 C   0  0  0  0  0  2  0  0  0  0  0  0
  197.0440  176.1540  143.5130 C   0  0  0  0  0  3  0  0  0  0  0  0
  193.6150  175.7380  142.1240 C   0  0  0  0  0  2  0  0  0  0  0  0
  193.4830  176.6330  144.4470 C   0  0  0  0  0  2  0  0  0  0  0  0
  195.8070  174.8900  141.2420 C   0  0  0  0  0  2  0  0  0  0  0  0
  194.9370  176.2870  144.7480 C   0  0  0  0  0  2  0  0  0  0  0  0
  197.8310  175.8470  142.3090 C   0  0  0  0  0  3  0  0  0  0  0  0
  195.7170  176.0390  143.4920 C   0  0  0  0  0  0  0  0  0  0  0  0
  197.2580  175.2940  141.2380 C   0  0  0  0  0  3  0  0  0  0  0  0
  192.8900  175.6280  143.4640 C   0  0  1  0  0  3  0  0  0  0  0  0
  195.0560  175.5780  142.2950 N   0  0  0  0  0  0  0  0  0  0  0  0
  184.8170  176.8460  143.2750 F   0  0  0  0  0  0  0  0  0  0  0  0
  184.8380  178.4420  145.9170 C   0  0  0  0  0  0  0  0  0  0  0  0
  185.1410  179.5350  145.2060 C   0  0  0  0  0  3  0  0  0  0  0  0
  185.9510  179.5020  143.9410 C   0  0  0  0  0  2  0  0  0  0  0  0
  185.8910  176.9680  144.1380 C   0  0  1  0  0  3  0  0  0  0  0  0
  184.0480  178.5770  147.0500 O   0  0  0  0  0  1  0  0  0  0  0  0
  186.7410  178.1930  143.8030 C   0  0  1  0  0  3  0  0  0  0  0  0
  185.3840  177.0780  145.5750 C   0  0  0  0  0  2  0  0  0  0  0  0
  189.7420  172.8960  140.9730 F   0  0  0  0  0  0  0  0  0  0  0  0
  188.5300  174.3790  139.7950 F   0  0  0  0  0  0  0  0  0  0  0  0
  187.6880  173.4890  141.6830 F   0  0  0  0  0  0  0  0  0  0  0  0
  188.8420  173.9410  141.0730 C   0  0  0  0  0  0  0  0  0  0  0  0
  1 10  1  1  0  0  0
  2 10  1  0  0  0  0
  3  2  2  0  0  0  0
  5  1  1  0  0  0  0
  5 27  1  1  0  0  0
  6  1  1  0  0  0  0
  7  4  1  6  0  0  0
  7  6  1  0  0  0  0
  7  5  1  0  0  0  0
  8  3  1  0  0  0  0
  9  6  1  0  0  0  0
  9  8  2  0  0  0  0
 12 20  1  0  0  0  0
 12 19  1  0  0  0  0
 13 15  1  0  0  0  0
 14 20  1  0  0  0  0
 16 11  1  0  0  0  0
 17 11  2  0  0  0  0
 17 15  1  0  0  0  0
 18 14  1  0  0  0  0
 18 16  2  0  0  0  0
 19  3  1  6  0  0  0
 19 13  1  0  0  0  0
 20 17  1  0  0  0  0
 22 26  1  0  0  0  0
 23 22  2  0  0  0  0
 24 23  1  0  0  0  0
 25 21  1  6  0  0  0
 25 28  1  0  0  0  0
 27 24  1  6  0  0  0
 27 25  1  0  0  0  0
 28 22  1  0  0  0  0
 29 32  1  0  0  0  0
 30 32  1  0  0  0  0
 32 31  1  0  0  0  0
 32  9  1  0  0  0  0
M  END
>  <MODEL>
7

>  <REMARK>
 VINA RESULT:      -8.3      4.163      9.061
  Name = 
  3 active torsions:
  status: ('A' for Active; 'I' for Inactive)
    1  A    between atoms: C_9  and  C_25
    2  A    between atoms: C_15  and  C_27
    3  A    between atoms: C_29  and  C_31
                            x       y       z     vdW  Elec       q    Type
                         _______ _______ _______ _____ _____    ______ ____

>  <TORSDO>
F 3

$$$$
=
 OpenBabel11062420373D

 32 36  0  0  1  0  0  0  0  0999 V2000
  192.5230  176.6940  143.5120 N   0  0  2  0  0  0  0  0  0  0  0  0
  190.2230  176.2420  142.9460 C   0  0  0  0  0  3  0  0  0  0  0  0
  189.5720  176.3750  144.1120 C   0  0  0  0  0  0  0  0  0  0  0  0
  194.5820  177.0770  145.5410 O   0  0  0  0  0  1  0  0  0  0  0  0
  193.9520  176.4760  143.3670 C   0  0  1  0  0  3  0  0  0  0  0  0
  192.4710  176.2870  144.8740 N   0  0  0  0  0  0  0  0  0  0  0  0
  193.9360  176.1000  144.7820 C   0  0  2  0  0  3  0  0  0  0  0  0
  190.1440  176.1010  145.4610 C   0  0  0  0  0  3  0  0  0  0  0  0
  191.4330  176.0220  145.8180 C   0  0  0  0  0  0  0  0  0  0  0  0
  191.6390  175.7950  142.7790 C   0  0  0  0  0  2  0  0  0  0  0  0
  184.5590  178.9550  144.1500 C   0  0  0  0  0  3  0  0  0  0  0  0
  187.6000  177.2000  145.3890 C   0  0  0  0  0  2  0  0  0  0  0  0
  187.9420  177.9160  143.0260 C   0  0  0  0  0  2  0  0  0  0  0  0
  185.3120  177.3420  146.4120 C   0  0  0  0  0  2  0  0  0  0  0  0
  186.4570  178.1890  142.8110 C   0  0  0  0  0  2  0  0  0  0  0  0
  183.7920  179.0210  145.4030 C   0  0  0  0  0  3  0  0  0  0  0  0
  185.7230  178.3070  144.1120 C   0  0  0  0  0  0  0  0  0  0  0  0
  184.1550  178.3040  146.4680 C   0  0  0  0  0  3  0  0  0  0  0  0
  188.1330  176.7760  144.0230 C   0  0  1  0  0  3  0  0  0  0  0  0
  186.2110  177.6410  145.2950 N   0  0  0  0  0  0  0  0  0  0  0  0
  196.7040  175.0110  143.2710 F   0  0  0  0  0  0  0  0  0  0  0  0
  195.7280  173.3100  140.8870 C   0  0  0  0  0  0  0  0  0  0  0  0
  195.3490  174.4450  140.2860 C   0  0  0  0  0  3  0  0  0  0  0  0
  194.8720  175.6580  141.0330 C   0  0  0  0  0  2  0  0  0  0  0  0
  195.4660  174.4030  143.1640 C   0  0  1  0  0  3  0  0  0  0  0  0
  196.1920  172.2610  140.1050 O   0  0  0  0  0  1  0  0  0  0  0  0
  194.4540  175.3160  142.4710 C   0  0  1  0  0  3  0  0  0  0  0  0
  195.6000  173.1020  142.3760 C   0  0  0  0  0  2  0  0  0  0  0  0
  190.6640  175.3610  147.9460 F   0  0  0  0  0  0  0  0  0  0  0  0
  192.3920  176.7950  147.8630 F   0  0  0  0  0  0  0  0  0  0  0  0
  192.6860  174.6470  147.2580 F   0  0  0  0  0  0  0  0  0  0  0  0
  191.8010  175.7080  147.2400 C   0  0  0  0  0  0  0  0  0  0  0  0
  1 10  1  6  0  0  0
  1  6  1  0  0  0  0
  2  3  2  0  0  0  0
  3  8  1  0  0  0  0
  5 27  1  6  0  0  0
  5  1  1  0  0  0  0
  5  7  1  0  0  0  0
  6  9  1  0  0  0  0
  7  6  1  0  0  0  0
  7  4  1  1  0  0  0
  8  9  2  0  0  0  0
  9 32  1  0  0  0  0
 10  2  1  0  0  0  0
 11 16  1  0  0  0  0
 13 19  1  0  0  0  0
 14 18  1  0  0  0  0
 15 13  1  0  0  0  0
 15 17  1  0  0  0  0
 16 18  2  0  0  0  0
 17 11  2  0  0  0  0
 17 20  1  0  0  0  0
 19  3  1  1  0  0  0
 19 12  1  0  0  0  0
 20 12  1  0  0  0  0
 20 14  1  0  0  0  0
 22 28  1  0  0  0  0
 23 22  2  0  0  0  0
 23 24  1  0  0  0  0
 25 21  1  6  0  0  0
 26 22  1  0  0  0  0
 27 24  1  6  0  0  0
 27 25  1  0  0  0  0
 28 25  1  0  0  0  0
 32 31  1  0  0  0  0
 32 30  1  0  0  0  0
 32 29  1  0  0  0  0
M  END
>  <MODEL>
8

>  <REMARK>
 VINA RESULT:      -8.2      1.328      2.138
  Name = 
  3 active torsions:
  status: ('A' for Active; 'I' for Inactive)
    1  A    between atoms: C_9  and  C_25
    2  A    between atoms: C_15  and  C_27
    3  A    between atoms: C_29  and  C_31
                            x       y       z     vdW  Elec       q    Type
                         _______ _______ _______ _____ _____    ______ ____

>  <TORSDO>
F 3

$$$$
=
 OpenBabel11062420373D

 32 36  0  0  1  0  0  0  0  0999 V2000
  191.1940  176.9790  144.0370 N   0  0  2  0  0  0  0  0  0  0  0  0
  189.1310  177.1780  142.8050 C   0  0  0  0  0  3  0  0  0  0  0  0
  188.1820  177.0980  143.7500 C   0  0  0  0  0  0  0  0  0  0  0  0
  192.5860  176.3430  146.5200 O   0  0  0  0  0  1  0  0  0  0  0  0
  192.5680  176.5320  144.1850 C   0  0  1  0  0  3  0  0  0  0  0  0
  190.6950  176.2170  145.1290 N   0  0  0  0  0  0  0  0  0  0  0  0
  192.0910  175.7760  145.3450 C   0  0  2  0  0  3  0  0  0  0  0  0
  188.2930  176.3400  145.0280 C   0  0  0  0  0  3  0  0  0  0  0  0
  189.4010  175.9050  145.6450 C   0  0  0  0  0  0  0  0  0  0  0  0
  190.4740  176.5250  142.8540 C   0  0  0  0  0  2  0  0  0  0  0  0
  182.8380  178.5910  142.7510 C   0  0  0  0  0  3  0  0  0  0  0  0
  186.2500  177.2150  142.1830 C   0  0  0  0  0  2  0  0  0  0  0  0
  185.9120  177.6570  144.6120 C   0  0  0  0  0  2  0  0  0  0  0  0
  184.5800  178.0750  140.5180 C   0  0  0  0  0  2  0  0  0  0  0  0
  184.6740  178.5130  144.3650 C   0  0  0  0  0  2  0  0  0  0  0  0
  182.2900  178.4430  141.3940 C   0  0  0  0  0  3  0  0  0  0  0  0
  184.1130  178.2890  142.9930 C   0  0  0  0  0  0  0  0  0  0  0  0
  183.0860  178.1680  140.3590 C   0  0  0  0  0  3  0  0  0  0  0  0
  186.8890  177.7860  143.4470 C   0  0  1  0  0  3  0  0  0  0  0  0
  184.9630  177.8490  141.9130 N   0  0  0  0  0  0  0  0  0  0  0  0
  194.9620  174.5360  144.3300 F   0  0  0  0  0  0  0  0  0  0  0  0
  194.6320  173.9070  141.3260 C   0  0  0  0  0  0  0  0  0  0  0  0
  194.6390  175.2250  141.0910 C   0  0  0  0  0  3  0  0  0  0  0  0
  194.1070  176.2410  142.0610 C   0  0  0  0  0  2  0  0  0  0  0  0
  193.7630  174.3080  143.6770 C   0  0  1  0  0  3  0  0  0  0  0  0
  195.1870  173.0550  140.3800 O   0  0  0  0  0  1  0  0  0  0  0  0
  193.1820  175.6020  143.1080 C   0  0  1  0  0  3  0  0  0  0  0  0
  193.9780  173.3060  142.5450 C   0  0  0  0  0  2  0  0  0  0  0  0
  188.0130  175.2570  147.4380 F   0  0  0  0  0  0  0  0  0  0  0  0
  190.1940  175.5840  147.8740 F   0  0  0  0  0  0  0  0  0  0  0  0
  189.5460  173.7940  146.6730 F   0  0  0  0  0  0  0  0  0  0  0  0
  189.2920  175.1280  146.9260 C   0  0  0  0  0  0  0  0  0  0  0  0
  1 10  1  6  0  0  0
  1  5  1  0  0  0  0
  1  6  1  0  0  0  0
  2 10  1  0  0  0  0
  2  3  2  0  0  0  0
  3  8  1  0  0  0  0
  5 27  1  6  0  0  0
  5  7  1  0  0  0  0
  6  7  1  0  0  0  0
  6  9  1  0  0  0  0
  7  4  1  1  0  0  0
  8  9  2  0  0  0  0
  9 32  1  0  0  0  0
 11 17  2  0  0  0  0
 12 19  1  0  0  0  0
 14 20  1  0  0  0  0
 15 13  1  0  0  0  0
 16 11  1  0  0  0  0
 17 15  1  0  0  0  0
 18 14  1  0  0  0  0
 18 16  2  0  0  0  0
 19  3  1  1  0  0  0
 19 13  1  0  0  0  0
 20 12  1  0  0  0  0
 20 17  1  0  0  0  0
 22 28  1  0  0  0  0
 23 22  2  0  0  0  0
 23 24  1  0  0  0  0
 25 21  1  6  0  0  0
 26 22  1  0  0  0  0
 27 24  1  1  0  0  0
 27 25  1  0  0  0  0
 28 25  1  0  0  0  0
 31 32  1  0  0  0  0
 32 29  1  0  0  0  0
 32 30  1  0  0  0  0
M  END
>  <MODEL>
9

>  <REMARK>
 VINA RESULT:      -8.2      1.459      1.784
  Name = 
  3 active torsions:
  status: ('A' for Active; 'I' for Inactive)
    1  A    between atoms: C_9  and  C_25
    2  A    between atoms: C_15  and  C_27
    3  A    between atoms: C_29  and  C_31
                            x       y       z     vdW  Elec       q    Type
                         _______ _______ _______ _____ _____    ______ ____

>  <TORSDO>
F 3

$$$$
