=
 OpenBabel11062422083D

 27 30  0  0  1  0  0  0  0  0999 V2000
  189.6010  174.8140  143.0400 C   0  0  2  0  0  3  0  0  0  0  0  0
  188.1600  176.5710  142.4330 C   0  0  0  0  0  3  0  0  0  0  0  0
  188.2430  175.7610  141.2700 N   0  0  0  0  0  0  0  0  0  0  0  0
  189.0940  174.6910  141.6430 C   0  0  0  0  0  0  0  0  0  0  0  0
  188.8900  176.0780  143.4320 C   0  0  1  0  0  3  0  0  0  0  0  0
  189.3640  173.7370  140.8680 O   0  0  0  0  0  0  0  0  0  0  0  0
  191.5140  176.2590  143.5950 O   0  0  0  0  0  0  0  0  0  0  0  0
  194.6580  175.3320  146.1170 C   0  0  0  0  0  3  0  0  0  0  0  0
  193.2740  177.0820  145.1280 C   0  0  0  0  0  3  0  0  0  0  0  0
  192.8820  174.7590  144.6020 C   0  0  0  0  0  0  0  0  0  0  0  0
  191.9430  173.9220  143.8090 C   0  0  2  0  0  3  0  0  0  0  0  0
  191.1270  175.0040  143.0320 C   0  0  1  0  0  3  0  0  0  0  0  0
  193.9260  174.3470  145.4310 C   0  0  0  0  0  3  0  0  0  0  0  0
  194.3320  176.6940  145.9660 C   0  0  0  0  0  3  0  0  0  0  0  0
  191.1050  173.1610  144.7260 N   0  0  0  0  0  1  0  0  0  0  0  0
  192.5700  176.0820  144.4590 C   0  0  0  0  0  0  0  0  0  0  0  0
  188.9570  176.6870  144.7980 C   0  0  1  0  0  3  0  0  0  0  0  0
  187.8870  177.6580  144.9800 N   0  0  0  0  0  2  0  0  0  0  0  0
  187.5410  177.5910  146.3920 C   0  0  2  0  0  3  0  0  0  0  0  0
  188.8380  175.6340  145.8830 C   0  0  0  0  0  2  0  0  0  0  0  0
  187.8130  176.1720  146.8500 C   0  0  0  0  0  2  0  0  0  0  0  0
  185.1630  176.7530  146.5130 C   0  0  0  0  0  1  0  0  0  0  0  0
  186.0720  177.9700  146.6070 C   0  0  2  0  0  3  0  0  0  0  0  0
  185.6010  179.0620  145.6430 C   0  0  0  0  0  2  0  0  0  0  0  0
  184.1620  178.8530  145.1830 C   0  0  0  0  0  2  0  0  0  0  0  0
  184.0790  178.9190  143.6690 C   0  0  0  0  0  2  0  0  0  0  0  0
  184.7150  177.7520  143.0850 N   0  0  0  0  0  1  0  0  0  0  0  0
  1  4  1  6  0  0  0
  1  5  1  0  0  0  0
  3  4  1  0  0  0  0
  3  2  2  0  0  0  0
  5  2  1  1  0  0  0
  5 17  1  0  0  0  0
  6  4  2  0  0  0  0
  7 16  1  0  0  0  0
  9 14  2  0  0  0  0
 10 13  1  0  0  0  0
 11 10  1  0  0  0  0
 11 15  1  1  0  0  0
 12  1  1  0  0  0  0
 12  7  1  1  0  0  0
 12 11  1  0  0  0  0
 13  8  2  0  0  0  0
 14  8  1  0  0  0  0
 16 10  2  0  0  0  0
 16  9  1  0  0  0  0
 17 18  1  0  0  0  0
 17 20  1  1  0  0  0
 18 19  1  0  0  0  0
 19 23  1  6  0  0  0
 19 21  1  0  0  0  0
 20 21  1  0  0  0  0
 23 22  1  6  0  0  0
 24 23  1  0  0  0  0
 25 24  1  0  0  0  0
 26 25  1  0  0  0  0
 27 26  1  0  0  0  0
M  END
>  <MODEL>
1

>  <REMARK>
 VINA RESULT:      -7.1      0.000      0.000
  Name = 
  6 active torsions:
  status: ('A' for Active; 'I' for Inactive)
    1  A    between atoms: C_1  and  C_10
    2  A    between atoms: C_2  and  C_22
    3  A    between atoms: C_3  and  C_26
    4  A    between atoms: C_11  and  C_21
    5  A    between atoms: C_11  and  C_26
    6  A    between atoms: C_14  and  C_21
                            x       y       z     vdW  Elec       q    Type
                         _______ _______ _______ _____ _____    ______ ____

>  <TORSDO>
F 6

$$$$
=
 OpenBabel11062422083D

 27 30  0  0  1  0  0  0  0  0999 V2000
  188.1740  176.0900  142.4860 C   0  0  2  0  0  3  0  0  0  0  0  0
  189.4120  174.1310  142.8870 C   0  0  0  0  0  3  0  0  0  0  0  0
  189.0250  174.0340  141.5240 N   0  0  0  0  0  0  0  0  0  0  0  0
  188.2970  175.2250  141.2780 C   0  0  0  0  0  0  0  0  0  0  0  0
  188.9660  175.2530  143.4490 C   0  0  1  0  0  3  0  0  0  0  0  0
  187.8310  175.5130  140.1450 O   0  0  0  0  0  0  0  0  0  0  0  0
  186.5240  175.9480  144.3070 O   0  0  0  0  0  0  0  0  0  0  0  0
  183.9810  178.9520  145.5750 C   0  0  0  0  0  3  0  0  0  0  0  0
  185.2080  176.9250  146.1600 C   0  0  0  0  0  3  0  0  0  0  0  0
  185.3320  177.8370  143.9290 C   0  0  0  0  0  0  0  0  0  0  0  0
  186.0160  177.5720  142.6360 C   0  0  2  0  0  3  0  0  0  0  0  0
  186.6990  176.1950  142.9110 C   0  0  1  0  0  3  0  0  0  0  0  0
  184.4790  178.8900  144.2620 C   0  0  0  0  0  3  0  0  0  0  0  0
  184.3450  177.9740  146.5200 C   0  0  0  0  0  3  0  0  0  0  0  0
  186.9930  178.6260  142.3980 N   0  0  0  0  0  1  0  0  0  0  0  0
  185.6820  176.8900  144.8500 C   0  0  0  0  0  0  0  0  0  0  0  0
  189.2600  175.6540  144.8610 C   0  0  1  0  0  3  0  0  0  0  0  0
  190.2470  174.7620  145.4530 N   0  0  0  0  0  2  0  0  0  0  0  0
  191.0070  175.5870  146.3810 C   0  0  2  0  0  3  0  0  0  0  0  0
  189.7920  177.0730  144.9370 C   0  0  0  0  0  2  0  0  0  0  0  0
  191.0100  176.9960  145.8230 C   0  0  0  0  0  2  0  0  0  0  0  0
  193.4520  176.1810  146.5770 C   0  0  0  0  0  1  0  0  0  0  0  0
  192.4340  175.0500  146.5380 C   0  0  2  0  0  3  0  0  0  0  0  0
  192.8030  174.0390  145.4490 C   0  0  0  0  0  2  0  0  0  0  0  0
  193.7330  174.6310  144.3950 C   0  0  0  0  0  2  0  0  0  0  0  0
  193.0370  174.6820  143.0480 C   0  0  0  0  0  2  0  0  0  0  0  0
  192.5940  176.0370  142.7700 N   0  0  0  0  0  1  0  0  0  0  0  0
  1  4  1  6  0  0  0
  1 12  1  0  0  0  0
  1  5  1  0  0  0  0
  3  2  2  0  0  0  0
  4  3  1  0  0  0  0
  5  2  1  6  0  0  0
  5 17  1  0  0  0  0
  6  4  2  0  0  0  0
  7 16  1  0  0  0  0
  8 14  1  0  0  0  0
  9 14  2  0  0  0  0
 10 13  1  0  0  0  0
 10 16  2  0  0  0  0
 11 15  1  1  0  0  0
 11 12  1  0  0  0  0
 11 10  1  0  0  0  0
 12  7  1  1  0  0  0
 13  8  2  0  0  0  0
 16  9  1  0  0  0  0
 17 20  1  6  0  0  0
 17 18  1  0  0  0  0
 18 19  1  0  0  0  0
 19 23  1  6  0  0  0
 20 21  1  0  0  0  0
 21 19  1  0  0  0  0
 23 22  1  6  0  0  0
 24 23  1  0  0  0  0
 25 24  1  0  0  0  0
 26 25  1  0  0  0  0
 27 26  1  0  0  0  0
M  END
>  <MODEL>
2

>  <REMARK>
 VINA RESULT:      -7.1      1.929      6.693
  Name = 
  6 active torsions:
  status: ('A' for Active; 'I' for Inactive)
    1  A    between atoms: C_1  and  C_10
    2  A    between atoms: C_2  and  C_22
    3  A    between atoms: C_3  and  C_26
    4  A    between atoms: C_11  and  C_21
    5  A    between atoms: C_11  and  C_26
    6  A    between atoms: C_14  and  C_21
                            x       y       z     vdW  Elec       q    Type
                         _______ _______ _______ _____ _____    ______ ____

>  <TORSDO>
F 6

$$$$
=
 OpenBabel11062422083D

 27 30  0  0  1  0  0  0  0  0999 V2000
  187.7350  176.6140  142.1190 C   0  0  2  0  0  3  0  0  0  0  0  0
  189.0690  174.6830  141.9740 C   0  0  0  0  0  3  0  0  0  0  0  0
  188.4950  174.8160  140.6820 N   0  0  0  0  0  0  0  0  0  0  0  0
  187.7080  175.9920  140.7640 C   0  0  0  0  0  0  0  0  0  0  0  0
  188.6780  175.6590  142.7910 C   0  0  1  0  0  3  0  0  0  0  0  0
  187.0770  176.4570  139.7790 O   0  0  0  0  0  0  0  0  0  0  0  0
  186.3800  176.1830  144.1280 O   0  0  0  0  0  0  0  0  0  0  0  0
  183.8460  178.8520  146.0160 C   0  0  0  0  0  3  0  0  0  0  0  0
  185.2810  176.8890  146.2300 C   0  0  0  0  0  3  0  0  0  0  0  0
  185.0190  177.9950  144.1000 C   0  0  0  0  0  0  0  0  0  0  0  0
  185.5250  177.8970  142.7060 C   0  0  2  0  0  3  0  0  0  0  0  0
  186.3330  176.5620  142.7510 C   0  0  1  0  0  3  0  0  0  0  0  0
  184.1530  178.9430  144.6470 C   0  0  0  0  0  3  0  0  0  0  0  0
  184.4090  177.8290  146.8040 C   0  0  0  0  0  3  0  0  0  0  0  0
  186.3820  179.0440  142.4370 N   0  0  0  0  0  1  0  0  0  0  0  0
  185.5620  177.0040  144.8690 C   0  0  0  0  0  0  0  0  0  0  0  0
  189.1600  175.8100  144.2010 C   0  0  1  0  0  3  0  0  0  0  0  0
  190.2440  174.8770  144.4760 N   0  0  0  0  0  2  0  0  0  0  0  0
  191.1060  175.5580  145.4320 C   0  0  2  0  0  3  0  0  0  0  0  0
  189.6600  177.2170  144.4690 C   0  0  0  0  0  2  0  0  0  0  0  0
  190.9930  177.0430  145.1530 C   0  0  0  0  0  2  0  0  0  0  0  0
  192.6200  173.5810  145.0180 C   0  0  0  0  0  1  0  0  0  0  0  0
  192.5550  175.0770  145.2910 C   0  0  2  0  0  3  0  0  0  0  0  0
  193.4120  175.4350  146.5080 C   0  0  0  0  0  2  0  0  0  0  0  0
  194.8580  175.7380  146.1330 C   0  0  0  0  0  2  0  0  0  0  0  0
  194.9090  176.7580  145.0110 C   0  0  0  0  0  2  0  0  0  0  0  0
  195.8310  176.3160  143.9790 N   0  0  0  0  0  1  0  0  0  0  0  0
  1  4  1  6  0  0  0
  1 12  1  0  0  0  0
  1  5  1  0  0  0  0
  3  4  1  0  0  0  0
  3  2  2  0  0  0  0
  5  2  1  6  0  0  0
  5 17  1  0  0  0  0
  6  4  2  0  0  0  0
  7 16  1  0  0  0  0
  8 14  1  0  0  0  0
  9 14  2  0  0  0  0
 10 13  1  0  0  0  0
 10 16  2  0  0  0  0
 11 15  1  1  0  0  0
 11 12  1  0  0  0  0
 11 10  1  0  0  0  0
 12  7  1  1  0  0  0
 13  8  2  0  0  0  0
 16  9  1  0  0  0  0
 17 20  1  6  0  0  0
 17 18  1  0  0  0  0
 18 19  1  0  0  0  0
 19 23  1  6  0  0  0
 20 21  1  0  0  0  0
 21 19  1  0  0  0  0
 23 22  1  1  0  0  0
 23 24  1  0  0  0  0
 25 24  1  0  0  0  0
 26 25  1  0  0  0  0
 27 26  1  0  0  0  0
M  END
>  <MODEL>
3

>  <REMARK>
 VINA RESULT:      -7.0      2.074      7.100
  Name = 
  6 active torsions:
  status: ('A' for Active; 'I' for Inactive)
    1  A    between atoms: C_1  and  C_10
    2  A    between atoms: C_2  and  C_22
    3  A    between atoms: C_3  and  C_26
    4  A    between atoms: C_11  and  C_21
    5  A    between atoms: C_11  and  C_26
    6  A    between atoms: C_14  and  C_21
                            x       y       z     vdW  Elec       q    Type
                         _______ _______ _______ _____ _____    ______ ____

>  <TORSDO>
F 6

$$$$
=
 OpenBabel11062422083D

 27 30  0  0  1  0  0  0  0  0999 V2000
  188.6590  175.1740  142.3340 C   0  0  2  0  0  3  0  0  0  0  0  0
  189.7190  173.7030  143.8320 C   0  0  0  0  0  3  0  0  0  0  0  0
  189.1370  172.8550  142.8530 N   0  0  0  0  0  0  0  0  0  0  0  0
  188.5170  173.7430  141.9390 C   0  0  0  0  0  0  0  0  0  0  0  0
  189.4830  174.9880  143.5760 C   0  0  1  0  0  3  0  0  0  0  0  0
  187.9300  173.3460  140.8990 O   0  0  0  0  0  0  0  0  0  0  0  0
  187.1100  176.0060  144.0550 O   0  0  0  0  0  0  0  0  0  0  0  0
  185.4660  179.7950  144.2730 C   0  0  0  0  0  3  0  0  0  0  0  0
  186.1660  177.7940  145.4820 C   0  0  0  0  0  3  0  0  0  0  0  0
  186.4180  177.9340  143.0860 C   0  0  0  0  0  0  0  0  0  0  0  0
  186.9550  177.1310  141.9570 C   0  0  2  0  0  3  0  0  0  0  0  0
  187.2790  175.7720  142.6560 C   0  0  1  0  0  3  0  0  0  0  0  0
  185.8750  179.2190  143.0580 C   0  0  0  0  0  3  0  0  0  0  0  0
  185.6120  179.0850  145.4810 C   0  0  0  0  0  3  0  0  0  0  0  0
  188.1560  177.7810  141.4480 N   0  0  0  0  0  1  0  0  0  0  0  0
  186.5570  177.2490  144.2600 C   0  0  0  0  0  0  0  0  0  0  0  0
  190.0140  176.1160  144.4050 C   0  0  1  0  0  3  0  0  0  0  0  0
  190.6790  175.6080  145.5970 N   0  0  0  0  0  2  0  0  0  0  0  0
  191.7510  176.5530  145.8730 C   0  0  2  0  0  3  0  0  0  0  0  0
  191.0060  176.9590  143.6260 C   0  0  0  0  0  2  0  0  0  0  0  0
  192.1920  177.1270  144.5420 C   0  0  0  0  0  2  0  0  0  0  0  0
  194.1820  176.6990  146.5390 C   0  0  0  0  0  1  0  0  0  0  0  0
  192.9150  175.8580  146.5890 C   0  0  2  0  0  3  0  0  0  0  0  0
  193.1850  174.4540  146.0400 C   0  0  0  0  0  2  0  0  0  0  0  0
  194.6200  174.2860  145.5520 C   0  0  0  0  0  2  0  0  0  0  0  0
  194.6340  173.7280  144.1410 C   0  0  0  0  0  2  0  0  0  0  0  0
  193.3180  173.8640  143.5400 N   0  0  0  0  0  1  0  0  0  0  0  0
  1  4  1  1  0  0  0
  1 12  1  0  0  0  0
  1  5  1  0  0  0  0
  3  2  2  0  0  0  0
  4  3  1  0  0  0  0
  5  2  1  6  0  0  0
  5 17  1  0  0  0  0
  6  4  2  0  0  0  0
  7 16  1  0  0  0  0
  8 14  1  0  0  0  0
 10 16  2  0  0  0  0
 11 15  1  1  0  0  0
 11 12  1  0  0  0  0
 11 10  1  0  0  0  0
 12  7  1  1  0  0  0
 13 10  1  0  0  0  0
 13  8  2  0  0  0  0
 14  9  2  0  0  0  0
 16  9  1  0  0  0  0
 17 20  1  6  0  0  0
 17 18  1  0  0  0  0
 18 19  1  0  0  0  0
 19 23  1  6  0  0  0
 20 21  1  0  0  0  0
 21 19  1  0  0  0  0
 23 22  1  6  0  0  0
 24 23  1  0  0  0  0
 25 24  1  0  0  0  0
 26 25  1  0  0  0  0
 27 26  1  0  0  0  0
M  END
>  <MODEL>
4

>  <REMARK>
 VINA RESULT:      -7.0      1.966      6.701
  Name = 
  6 active torsions:
  status: ('A' for Active; 'I' for Inactive)
    1  A    between atoms: C_1  and  C_10
    2  A    between atoms: C_2  and  C_22
    3  A    between atoms: C_3  and  C_26
    4  A    between atoms: C_11  and  C_21
    5  A    between atoms: C_11  and  C_26
    6  A    between atoms: C_14  and  C_21
                            x       y       z     vdW  Elec       q    Type
                         _______ _______ _______ _____ _____    ______ ____

>  <TORSDO>
F 6

$$$$
=
 OpenBabel11062422083D

 27 30  0  0  1  0  0  0  0  0999 V2000
  190.7360  176.4710  145.1850 C   0  0  2  0  0  3  0  0  0  0  0  0
  188.6740  177.0850  146.1340 C   0  0  0  0  0  3  0  0  0  0  0  0
  189.5950  177.1490  147.2130 N   0  0  0  0  0  2  0  0  0  0  0  0
  190.8410  176.8000  146.6350 C   0  0  0  0  0  0  0  0  0  0  0  0
  189.2670  176.7210  144.9990 C   0  0  0  0  0  0  0  0  0  0  0  0
  191.9150  176.7940  147.2920 O   0  0  0  0  0  0  0  0  0  0  0  0
  189.9280  174.1900  144.7360 O   0  0  0  0  0  0  0  0  0  0  0  0
  190.9040  171.8210  141.4890 C   0  0  0  0  0  3  0  0  0  0  0  0
  189.2630  172.3550  143.2150 C   0  0  0  0  0  3  0  0  0  0  0  0
  191.3400  173.5760  143.0730 C   0  0  0  0  0  0  0  0  0  0  0  0
  192.0330  174.7100  143.7390 C   0  0  2  0  0  3  0  0  0  0  0  0
  191.0910  174.9930  144.9530 C   0  0  1  0  0  3  0  0  0  0  0  0
  191.7580  172.8290  141.9710 C   0  0  0  0  0  3  0  0  0  0  0  0
  189.6610  171.5860  142.1090 C   0  0  0  0  0  3  0  0  0  0  0  0
  192.0850  175.8360  142.8160 N   0  0  0  0  0  1  0  0  0  0  0  0
  190.1330  173.3440  143.6710 C   0  0  0  0  0  0  0  0  0  0  0  0
  188.5600  176.6180  143.6830 C   0  0  1  0  0  3  0  0  0  0  0  0
  187.1170  176.6680  143.8700 N   0  0  0  0  0  2  0  0  0  0  0  0
  186.5960  177.3270  142.6810 C   0  0  2  0  0  3  0  0  0  0  0  0
  188.9610  177.7430  142.7470 C   0  0  0  0  0  2  0  0  0  0  0  0
  187.6650  178.2870  142.2000 C   0  0  0  0  0  2  0  0  0  0  0  0
  184.4190  178.2140  141.7610 C   0  0  0  0  0  1  0  0  0  0  0  0
  185.2910  178.0650  143.0000 C   0  0  2  0  0  3  0  0  0  0  0  0
  185.5340  179.4320  143.6460 C   0  0  0  0  0  2  0  0  0  0  0  0
  185.4820  179.3730  145.1690 C   0  0  0  0  0  2  0  0  0  0  0  0
  184.2020  178.6990  145.6270 C   0  0  0  0  0  2  0  0  0  0  0  0
  184.5070  177.6450  146.5770 N   0  0  0  0  0  1  0  0  0  0  0  0
  1  5  1  1  0  0  0
  1  4  1  0  0  0  0
  2  3  1  0  0  0  0
  4  3  1  0  0  0  0
  4  6  2  0  0  0  0
  5  2  2  0  0  0  0
  8 13  2  0  0  0  0
  8 14  1  0  0  0  0
  9 16  1  0  0  0  0
 10 16  2  0  0  0  0
 10 11  1  0  0  0  0
 11 15  1  6  0  0  0
 11 12  1  0  0  0  0
 12  7  1  6  0  0  0
 12  1  1  0  0  0  0
 13 10  1  0  0  0  0
 14  9  2  0  0  0  0
 16  7  1  0  0  0  0
 17 18  1  0  0  0  0
 17  5  1  1  0  0  0
 19 23  1  1  0  0  0
 19 18  1  0  0  0  0
 20 17  1  0  0  0  0
 21 19  1  0  0  0  0
 21 20  1  0  0  0  0
 23 22  1  6  0  0  0
 23 24  1  0  0  0  0
 24 25  1  0  0  0  0
 25 26  1  0  0  0  0
 26 27  1  0  0  0  0
M  END
>  <MODEL>
5

>  <REMARK>
 VINA RESULT:      -6.6      2.199      4.265
  Name = 
  6 active torsions:
  status: ('A' for Active; 'I' for Inactive)
    1  A    between atoms: C_1  and  C_10
    2  A    between atoms: C_2  and  C_22
    3  A    between atoms: C_3  and  C_26
    4  A    between atoms: C_11  and  C_21
    5  A    between atoms: C_11  and  C_26
    6  A    between atoms: C_14  and  C_21
                            x       y       z     vdW  Elec       q    Type
                         _______ _______ _______ _____ _____    ______ ____

>  <TORSDO>
F 6

$$$$
=
 OpenBabel11062422083D

 27 30  0  0  1  0  0  0  0  0999 V2000
  191.9570  176.2380  145.5130 C   0  0  2  0  0  3  0  0  0  0  0  0
  190.5890  176.6160  147.3890 C   0  0  0  0  0  3  0  0  0  0  0  0
  191.9140  176.6590  147.9000 N   0  0  0  0  0  2  0  0  0  0  0  0
  192.7370  176.4530  146.7650 C   0  0  0  0  0  0  0  0  0  0  0  0
  190.5730  176.3920  146.0760 C   0  0  0  0  0  0  0  0  0  0  0  0
  193.9950  176.4730  146.8270 O   0  0  0  0  0  0  0  0  0  0  0  0
  191.0950  173.9470  145.2630 O   0  0  0  0  0  0  0  0  0  0  0  0
  190.4390  171.9300  141.7120 C   0  0  0  0  0  3  0  0  0  0  0  0
  189.8260  172.1960  144.0590 C   0  0  0  0  0  3  0  0  0  0  0  0
  191.5400  173.5790  143.0710 C   0  0  0  0  0  0  0  0  0  0  0  0
  192.4380  174.7040  143.4420 C   0  0  2  0  0  3  0  0  0  0  0  0
  192.1950  174.8150  144.9810 C   0  0  1  0  0  3  0  0  0  0  0  0
  191.3910  172.9580  141.8310 C   0  0  0  0  0  3  0  0  0  0  0  0
  189.6590  171.5520  142.8220 C   0  0  0  0  0  3  0  0  0  0  0  0
  192.0060  175.9020  142.7350 N   0  0  0  0  0  1  0  0  0  0  0  0
  190.7810  173.2080  144.1460 C   0  0  0  0  0  0  0  0  0  0  0  0
  189.3240  176.3460  145.2520 C   0  0  1  0  0  3  0  0  0  0  0  0
  188.1450  176.3470  146.1070 N   0  0  0  0  0  2  0  0  0  0  0  0
  187.1230  177.0590  145.3530 C   0  0  2  0  0  3  0  0  0  0  0  0
  189.2350  177.5320  144.3110 C   0  0  0  0  0  2  0  0  0  0  0  0
  187.8370  178.0730  144.4820 C   0  0  0  0  0  2  0  0  0  0  0  0
  185.0260  176.7910  146.7330 C   0  0  0  0  0  1  0  0  0  0  0  0
  186.1310  177.7440  146.3000 C   0  0  2  0  0  3  0  0  0  0  0  0
  185.5300  179.0170  145.6990 C   0  0  0  0  0  2  0  0  0  0  0  0
  184.1270  178.7950  145.1450 C   0  0  0  0  0  2  0  0  0  0  0  0
  184.1070  179.0410  143.6480 C   0  0  0  0  0  2  0  0  0  0  0  0
  184.4420  177.8190  142.9390 N   0  0  0  0  0  1  0  0  0  0  0  0
  1  5  1  1  0  0  0
  1  4  1  0  0  0  0
  2  3  1  0  0  0  0
  4  6  2  0  0  0  0
  4  3  1  0  0  0  0
  5  2  2  0  0  0  0
  8 13  2  0  0  0  0
  8 14  1  0  0  0  0
  9 16  1  0  0  0  0
 10 11  1  0  0  0  0
 10 16  2  0  0  0  0
 11 15  1  6  0  0  0
 11 12  1  0  0  0  0
 12  7  1  6  0  0  0
 12  1  1  0  0  0  0
 13 10  1  0  0  0  0
 14  9  2  0  0  0  0
 16  7  1  0  0  0  0
 17  5  1  1  0  0  0
 17 18  1  0  0  0  0
 19 18  1  0  0  0  0
 19 23  1  1  0  0  0
 20 21  1  0  0  0  0
 20 17  1  0  0  0  0
 21 19  1  0  0  0  0
 23 22  1  6  0  0  0
 24 23  1  0  0  0  0
 25 24  1  0  0  0  0
 26 25  1  0  0  0  0
 27 26  1  0  0  0  0
M  END
>  <MODEL>
6

>  <REMARK>
 VINA RESULT:      -6.6      2.124      4.078
  Name = 
  6 active torsions:
  status: ('A' for Active; 'I' for Inactive)
    1  A    between atoms: C_1  and  C_10
    2  A    between atoms: C_2  and  C_22
    3  A    between atoms: C_3  and  C_26
    4  A    between atoms: C_11  and  C_21
    5  A    between atoms: C_11  and  C_26
    6  A    between atoms: C_14  and  C_21
                            x       y       z     vdW  Elec       q    Type
                         _______ _______ _______ _____ _____    ______ ____

>  <TORSDO>
F 6

$$$$
=
 OpenBabel11062422083D

 27 30  0  0  1  0  0  0  0  0999 V2000
  191.1080  175.6230  145.6170 C   0  0  2  0  0  3  0  0  0  0  0  0
  191.9310  175.3590  143.4300 C   0  0  0  0  0  3  0  0  0  0  0  0
  192.9460  176.0870  144.1060 N   0  0  0  0  0  0  0  0  0  0  0  0
  192.4580  176.2270  145.4300 C   0  0  0  0  0  0  0  0  0  0  0  0
  190.9060  175.0790  144.2320 C   0  0  1  0  0  3  0  0  0  0  0  0
  193.1210  176.7870  146.3410 O   0  0  0  0  0  0  0  0  0  0  0  0
  189.3340  177.1190  144.7990 O   0  0  0  0  0  0  0  0  0  0  0  0
  185.4150  177.2500  146.1130 C   0  0  0  0  0  3  0  0  0  0  0  0
  186.9740  177.6490  144.2780 C   0  0  0  0  0  3  0  0  0  0  0  0
  187.7580  176.7980  146.3960 C   0  0  0  0  0  0  0  0  0  0  0  0
  189.0220  176.3420  147.0330 C   0  0  2  0  0  3  0  0  0  0  0  0
  190.0820  176.7190  145.9490 C   0  0  1  0  0  3  0  0  0  0  0  0
  186.4690  176.8050  146.9290 C   0  0  0  0  0  3  0  0  0  0  0  0
  185.6670  177.6700  144.7920 C   0  0  0  0  0  3  0  0  0  0  0  0
  188.9480  174.9020  147.2440 N   0  0  0  0  0  1  0  0  0  0  0  0
  187.9980  177.2060  145.1140 C   0  0  0  0  0  0  0  0  0  0  0  0
  189.7120  174.2780  143.8120 C   0  0  1  0  0  3  0  0  0  0  0  0
  189.6350  174.1940  142.3610 N   0  0  0  0  0  2  0  0  0  0  0  0
  189.0430  172.8940  142.0800 C   0  0  2  0  0  3  0  0  0  0  0  0
  189.7650  172.8690  144.3720 C   0  0  0  0  0  2  0  0  0  0  0  0
  189.4580  171.9650  143.2040 C   0  0  0  0  0  2  0  0  0  0  0  0
  190.4540  171.1770  140.8830 C   0  0  0  0  0  1  0  0  0  0  0  0
  189.5180  172.3660  140.7220 C   0  0  2  0  0  3  0  0  0  0  0  0
  190.1780  173.4520  139.8690 C   0  0  0  0  0  2  0  0  0  0  0  0
  189.7110  173.4190  138.4180 C   0  0  0  0  0  2  0  0  0  0  0  0
  188.2000  173.5280  138.3490 C   0  0  0  0  0  2  0  0  0  0  0  0
  187.8200  174.7850  137.7290 N   0  0  0  0  0  1  0  0  0  0  0  0
  1  4  1  6  0  0  0
  1 12  1  0  0  0  0
  2  3  2  0  0  0  0
  3  4  1  0  0  0  0
  4  6  2  0  0  0  0
  5  2  1  1  0  0  0
  5  1  1  0  0  0  0
  7 16  1  0  0  0  0
  8 13  1  0  0  0  0
  9 14  1  0  0  0  0
  9 16  2  0  0  0  0
 10 13  2  0  0  0  0
 10 11  1  0  0  0  0
 11 15  1  6  0  0  0
 12  7  1  6  0  0  0
 12 11  1  0  0  0  0
 14  8  2  0  0  0  0
 16 10  1  0  0  0  0
 17  5  1  0  0  0  0
 17 20  1  1  0  0  0
 18 17  1  0  0  0  0
 19 23  1  6  0  0  0
 19 18  1  0  0  0  0
 19 21  1  0  0  0  0
 21 20  1  0  0  0  0
 23 22  1  1  0  0  0
 24 23  1  0  0  0  0
 25 24  1  0  0  0  0
 26 25  1  0  0  0  0
 27 26  1  0  0  0  0
M  END
>  <MODEL>
7

>  <REMARK>
 VINA RESULT:      -6.3      2.404      6.464
  Name = 
  6 active torsions:
  status: ('A' for Active; 'I' for Inactive)
    1  A    between atoms: C_1  and  C_10
    2  A    between atoms: C_2  and  C_22
    3  A    between atoms: C_3  and  C_26
    4  A    between atoms: C_11  and  C_21
    5  A    between atoms: C_11  and  C_26
    6  A    between atoms: C_14  and  C_21
                            x       y       z     vdW  Elec       q    Type
                         _______ _______ _______ _____ _____    ______ ____

>  <TORSDO>
F 6

$$$$
=
 OpenBabel11062422083D

 27 30  0  0  1  0  0  0  0  0999 V2000
  191.1240  175.5340  145.5490 C   0  0  2  0  0  3  0  0  0  0  0  0
  191.9440  175.5580  143.3450 C   0  0  0  0  0  3  0  0  0  0  0  0
  192.9930  176.1200  144.1210 N   0  0  0  0  0  2  0  0  0  0  0  0
  192.5060  176.0850  145.4510 C   0  0  0  0  0  0  0  0  0  0  0  0
  190.9000  175.2170  144.0980 C   0  0  0  0  0  0  0  0  0  0  0  0
  193.1930  176.4650  146.4350 O   0  0  0  0  0  0  0  0  0  0  0  0
  189.4050  177.1990  144.9760 O   0  0  0  0  0  0  0  0  0  0  0  0
  185.5240  177.3310  146.3990 C   0  0  0  0  0  3  0  0  0  0  0  0
  187.0620  177.8940  144.5890 C   0  0  0  0  0  3  0  0  0  0  0  0
  187.8490  176.7440  146.5600 C   0  0  0  0  0  0  0  0  0  0  0  0
  189.1030  176.1550  147.1000 C   0  0  2  0  0  3  0  0  0  0  0  0
  190.1570  176.6220  146.0460 C   0  0  1  0  0  3  0  0  0  0  0  0
  186.5730  176.7390  147.1230 C   0  0  0  0  0  3  0  0  0  0  0  0
  185.7680  177.9050  145.1360 C   0  0  0  0  0  3  0  0  0  0  0  0
  188.9660  174.7050  147.1270 N   0  0  0  0  0  1  0  0  0  0  0  0
  188.0810  177.3030  145.3340 C   0  0  0  0  0  0  0  0  0  0  0  0
  189.6670  174.5550  143.5660 C   0  0  1  0  0  3  0  0  0  0  0  0
  189.5230  174.8090  142.1400 N   0  0  0  0  0  2  0  0  0  0  0  0
  188.8840  173.6180  141.5980 C   0  0  2  0  0  3  0  0  0  0  0  0
  189.7050  173.0540  143.7840 C   0  0  0  0  0  2  0  0  0  0  0  0
  189.3220  172.4490  142.4570 C   0  0  0  0  0  2  0  0  0  0  0  0
  188.1980  172.6710  139.3610 C   0  0  0  0  0  1  0  0  0  0  0  0
  189.2830  173.4090  140.1330 C   0  0  2  0  0  3  0  0  0  0  0  0
  190.6250  172.6870  139.9880 C   0  0  0  0  0  2  0  0  0  0  0  0
  191.7150  173.5910  139.4230 C   0  0  0  0  0  2  0  0  0  0  0  0
  193.0390  173.3120  140.1090 C   0  0  0  0  0  2  0  0  0  0  0  0
  192.8110  172.6150  141.3630 N   0  0  0  0  0  1  0  0  0  0  0  0
  1  5  1  6  0  0  0
  1 12  1  0  0  0  0
  2  5  2  0  0  0  0
  2  3  1  0  0  0  0
  3  4  1  0  0  0  0
  4  1  1  0  0  0  0
  4  6  2  0  0  0  0
  7 16  1  0  0  0  0
  8 13  1  0  0  0  0
  9 14  1  0  0  0  0
  9 16  2  0  0  0  0
 10 11  1  0  0  0  0
 10 13  2  0  0  0  0
 11 15  1  6  0  0  0
 12  7  1  6  0  0  0
 12 11  1  0  0  0  0
 14  8  2  0  0  0  0
 16 10  1  0  0  0  0
 17 20  1  0  0  0  0
 17  5  1  6  0  0  0
 18 17  1  0  0  0  0
 19 23  1  6  0  0  0
 19 18  1  0  0  0  0
 19 21  1  0  0  0  0
 21 20  1  0  0  0  0
 23 22  1  6  0  0  0
 24 23  1  0  0  0  0
 25 24  1  0  0  0  0
 25 26  1  0  0  0  0
 26 27  1  0  0  0  0
M  END
>  <MODEL>
8

>  <REMARK>
 VINA RESULT:      -6.1      2.367      6.717
  Name = 
  6 active torsions:
  status: ('A' for Active; 'I' for Inactive)
    1  A    between atoms: C_1  and  C_10
    2  A    between atoms: C_2  and  C_22
    3  A    between atoms: C_3  and  C_26
    4  A    between atoms: C_11  and  C_21
    5  A    between atoms: C_11  and  C_26
    6  A    between atoms: C_14  and  C_21
                            x       y       z     vdW  Elec       q    Type
                         _______ _______ _______ _____ _____    ______ ____

>  <TORSDO>
F 6

$$$$
=
 OpenBabel11062422083D

 27 30  0  0  1  0  0  0  0  0999 V2000
  190.8120  176.4970  145.4560 C   0  0  2  0  0  3  0  0  0  0  0  0
  188.5620  176.0560  145.9800 C   0  0  0  0  0  3  0  0  0  0  0  0
  189.2230  176.0750  147.2370 N   0  0  0  0  0  2  0  0  0  0  0  0
  190.5740  176.3630  146.9220 C   0  0  0  0  0  0  0  0  0  0  0  0
  189.4040  176.2900  144.9750 C   0  0  0  0  0  0  0  0  0  0  0  0
  191.4610  176.5060  147.8030 O   0  0  0  0  0  0  0  0  0  0  0  0
  191.4300  174.9570  143.6380 O   0  0  0  0  0  0  0  0  0  0  0  0
  195.0960  174.7290  141.7360 C   0  0  0  0  0  3  0  0  0  0  0  0
  192.6870  174.3690  141.5890 C   0  0  0  0  0  3  0  0  0  0  0  0
  193.6790  175.2400  143.6100 C   0  0  0  0  0  0  0  0  0  0  0  0
  193.2670  175.7270  144.9520 C   0  0  2  0  0  3  0  0  0  0  0  0
  191.7450  175.3760  144.9680 C   0  0  1  0  0  3  0  0  0  0  0  0
  194.9580  175.2000  143.0540 C   0  0  0  0  0  3  0  0  0  0  0  0
  193.9640  174.3170  141.0070 C   0  0  0  0  0  3  0  0  0  0  0  0
  193.4950  177.1640  145.0200 N   0  0  0  0  0  1  0  0  0  0  0  0
  192.5840  174.8380  142.8980 C   0  0  0  0  0  0  0  0  0  0  0  0
  188.9870  176.3820  143.5400 C   0  0  1  0  0  3  0  0  0  0  0  0
  187.5350  176.3940  143.4270 N   0  0  0  0  0  2  0  0  0  0  0  0
  187.2450  177.2210  142.2650 C   0  0  2  0  0  3  0  0  0  0  0  0
  189.5280  177.6380  142.8840 C   0  0  0  0  0  2  0  0  0  0  0  0
  188.3530  178.2500  142.1640 C   0  0  0  0  0  2  0  0  0  0  0  0
  185.2190  178.1150  141.0540 C   0  0  0  0  0  1  0  0  0  0  0  0
  185.8750  177.8950  142.4090 C   0  0  2  0  0  3  0  0  0  0  0  0
  185.9490  179.2120  143.1860 C   0  0  0  0  0  2  0  0  0  0  0  0
  185.8700  179.0050  144.6940 C   0  0  0  0  0  2  0  0  0  0  0  0
  184.5790  178.2970  145.0610 C   0  0  0  0  0  2  0  0  0  0  0  0
  184.8280  177.3190  146.1060 N   0  0  0  0  0  1  0  0  0  0  0  0
  1  5  1  6  0  0  0
  1  4  1  0  0  0  0
  2  3  1  0  0  0  0
  4  3  1  0  0  0  0
  4  6  2  0  0  0  0
  5  2  2  0  0  0  0
  8 13  1  0  0  0  0
  9 16  2  0  0  0  0
 10 11  1  0  0  0  0
 11 12  1  0  0  0  0
 11 15  1  6  0  0  0
 12  7  1  6  0  0  0
 12  1  1  0  0  0  0
 13 10  2  0  0  0  0
 14  9  1  0  0  0  0
 14  8  2  0  0  0  0
 16 10  1  0  0  0  0
 16  7  1  0  0  0  0
 17  5  1  1  0  0  0
 18 17  1  0  0  0  0
 19 23  1  1  0  0  0
 19 18  1  0  0  0  0
 20 17  1  0  0  0  0
 21 19  1  0  0  0  0
 21 20  1  0  0  0  0
 23 22  1  6  0  0  0
 23 24  1  0  0  0  0
 24 25  1  0  0  0  0
 25 26  1  0  0  0  0
 26 27  1  0  0  0  0
M  END
>  <MODEL>
9

>  <REMARK>
 VINA RESULT:      -5.9      2.309      3.882
  Name = 
  6 active torsions:
  status: ('A' for Active; 'I' for Inactive)
    1  A    between atoms: C_1  and  C_10
    2  A    between atoms: C_2  and  C_22
    3  A    between atoms: C_3  and  C_26
    4  A    between atoms: C_11  and  C_21
    5  A    between atoms: C_11  and  C_26
    6  A    between atoms: C_14  and  C_21
                            x       y       z     vdW  Elec       q    Type
                         _______ _______ _______ _____ _____    ______ ____

>  <TORSDO>
F 6

$$$$
