=
 OpenBabel11072409373D

 63 70  0  0  1  0  0  0  0  0999 V2000
  195.8390  171.8850  141.5440 O   0  0  0  0  0  0  0  0  0  0  0  0
  196.0280  171.4680  145.5120 C   0  0  1  0  0  3  0  0  0  0  0  0
  195.8240  174.6740  139.1930 O   0  0  0  0  0  0  0  0  0  0  0  0
  194.3200  175.9040  140.6980 C   0  0  1  0  0  3  0  0  0  0  0  0
  191.9560  175.0260  143.6170 C   0  0  1  0  0  3  0  0  0  0  0  0
  195.1950  174.4720  137.9650 C   0  0  2  0  0  3  0  0  0  0  0  0
  191.6190  174.5930  145.8930 C   0  0  0  0  0  0  0  0  0  0  0  0
  195.3660  173.0150  137.5930 C   0  0  2  0  0  3  0  0  0  0  0  0
  194.2530  170.2680  140.8650 C   0  0  2  0  0  3  0  0  0  0  0  0
  193.6620  171.1890  139.9540 O   0  0  0  0  0  0  0  0  0  0  0  0
  192.4900  174.2130  140.2730 C   0  0  0  0  0  1  0  0  0  0  0  0
  193.4420  175.0960  143.2180 C   0  0  1  0  0  3  0  0  0  0  0  0
  193.0050  174.2310  146.4480 C   0  0  0  0  0  2  0  0  0  0  0  0
  195.7370  174.4250  135.6470 O   0  0  0  0  0  1  0  0  0  0  0  0
  194.2120  168.1730  145.4870 C   0  0  0  0  0  2  0  0  0  0  0  0
  193.8280  172.5060  144.7700 C   0  0  0  0  0  2  0  0  0  0  0  0
  197.9120  170.1560  144.6800 C   0  0  0  0  0  2  0  0  0  0  0  0
  194.3640  175.0260  144.4500 C   0  0  1  0  0  3  0  0  0  0  0  0
  193.0510  172.0220  137.6870 C   0  0  0  0  0  2  0  0  0  0  0  0
  196.8280  169.2020  145.1640 C   0  0  0  0  0  2  0  0  0  0  0  0
  193.8700  169.8210  138.0990 O   0  0  0  0  0  0  0  0  0  0  0  0
  193.7660  174.0480  142.3290 O   0  0  0  0  0  0  0  0  0  0  0  0
  196.4390  170.0240  147.3290 O   0  0  0  0  0  1  0  0  0  0  0  0
  193.8080  174.4780  140.9770 C   0  0  2  0  0  3  0  0  0  0  0  0
  193.1640  169.3780  141.5060 C   0  0  2  0  0  3  0  0  0  0  0  0
  194.9520  170.6640  143.3630 C   0  0  2  0  0  3  0  0  0  0  0  0
  193.7030  169.8320  143.6300 C   0  0  2  0  0  3  0  0  0  0  0  0
  190.8460  173.3360  145.4730 C   0  0  0  0  0  1  0  0  0  0  0  0
  196.2210  174.0840  136.9130 C   0  0  1  0  0  3  0  0  0  0  0  0
  193.3970  169.3800  145.0680 C   0  0  2  0  0  3  0  0  0  0  0  0
  197.4760  171.5640  145.0620 C   0  0  0  0  0  2  0  0  0  0  0  0
  195.1330  171.8460  144.3220 C   0  0  2  0  0  3  0  0  0  0  0  0
  195.8940  170.0320  146.0420 C   0  0  1  0  0  0  0  0  0  0  0  0
  194.4380  169.5020  146.2000 C   0  0  2  0  0  3  0  0  0  0  0  0
  190.8450  175.1950  147.0460 C   0  0  0  0  0  1  0  0  0  0  0  0
  193.5320  170.9330  138.5880 C   0  0  0  0  0  0  0  0  0  0  0  0
  194.1660  172.5350  136.7790 C   0  0  0  0  0  2  0  0  0  0  0  0
  191.7110  175.5920  144.8870 O   0  0  0  0  0  0  0  0  0  0  0  0
  195.7740  176.0800  141.0860 C   0  0  0  0  0  2  0  0  0  0  0  0
  193.5990  168.7840  142.7060 O   0  0  0  0  0  0  0  0  0  0  0  0
  194.0780  173.8690  145.4200 C   0  0  1  0  0  3  0  0  0  0  0  0
  195.8330  175.0670  144.0730 C   0  0  0  0  0  1  0  0  0  0  0  0
  195.4150  175.9430  139.6220 C   0  0  1  0  0  3  0  0  0  0  0  0
  195.0430  171.0330  141.9050 C   0  0  0  0  0  0  0  0  0  0  0  0
  191.0400  175.6680  142.5710 C   0  0  1  0  0  3  0  0  0  0  0  0
  190.0710  174.7540  142.1470 O   0  0  0  0  0  1  0  0  0  0  0  0
  190.4030  176.9960  143.0110 C   0  0  1  0  0  3  0  0  0  0  0  0
  191.2750  179.0400  143.9520 O   0  0  0  0  0  1  0  0  0  0  0  0
  191.3890  178.1580  142.8730 C   0  0  0  0  0  2  0  0  0  0  0  0
  189.0370  178.2040  141.3680 O   0  0  0  0  0  1  0  0  0  0  0  0
  189.0130  177.2520  142.3930 C   0  0  2  0  0  3  0  0  0  0  0  0
  187.9600  177.6160  143.4510 C   0  0  0  0  0  2  0  0  0  0  0  0
  185.7840  176.6840  142.9510 O   0  0  0  0  0  1  0  0  0  0  0  0
  186.5380  177.8570  142.9300 C   0  0  1  0  0  3  0  0  0  0  0  0
  185.8290  178.9780  143.6850 C   0  0  0  0  0  2  0  0  0  0  0  0
  184.9050  178.2320  145.9290 C   0  0  0  0  0  0  0  0  0  0  0  0
  186.1560  178.4820  146.5750 N   0  0  0  0  0  2  0  0  0  0  0  0
  183.9150  177.8200  146.5930 O   0  0  0  0  0  0  0  0  0  0  0  0
  186.3290  178.3060  148.0060 C   0  0  0  0  0  1  0  0  0  0  0  0
  184.7620  178.4440  144.5220 N   0  0  0  0  0  2  0  0  0  0  0  0
  192.6560  168.3090  140.5350 C   0  0  0  0  0  2  0  0  0  0  0  0
  191.1540  168.4040  140.2650 C   0  0  0  0  0  2  0  0  0  0  0  0
  190.8370  168.1670  138.8000 C   0  0  0  0  0  1  0  0  0  0  0  0
  1 44  2  0  0  0  0
  2 31  1  6  0  0  0
  2 33  1  0  0  0  0
  3 43  1  0  0  0  0
  4 24  1  0  0  0  0
  4 39  1  1  0  0  0
  5 45  1  6  0  0  0
  5 38  1  0  0  0  0
  6  3  1  1  0  0  0
  7 13  1  0  0  0  0
  7 35  1  0  0  0  0
  8 37  1  6  0  0  0
  8  6  1  0  0  0  0
  9 10  1  6  0  0  0
  9 25  1  0  0  0  0
  9 44  1  0  0  0  0
 12 22  1  6  0  0  0
 12  5  1  0  0  0  0
 12 18  1  0  0  0  0
 17 31  1  0  0  0  0
 17 20  1  0  0  0  0
 18 42  1  6  0  0  0
 18 41  1  0  0  0  0
 19 36  1  0  0  0  0
 20 33  1  0  0  0  0
 21 36  2  0  0  0  0
 24 11  1  1  0  0  0
 24 22  1  0  0  0  0
 25 61  1  6  0  0  0
 25 40  1  0  0  0  0
 26 44  1  6  0  0  0
 26 27  1  0  0  0  0
 26 32  1  0  0  0  0
 27 40  1  6  0  0  0
 27 30  1  0  0  0  0
 28  7  1  0  0  0  0
 29 14  1  6  0  0  0
 29  8  1  0  0  0  0
 29  6  1  0  0  0  0
 30 15  1  6  0  0  0
 30 34  1  0  0  0  0
 32 16  1  1  0  0  0
 32  2  1  0  0  0  0
 33 34  1  0  0  0  0
 33 23  1  1  0  0  0
 34 15  1  6  0  0  0
 36 10  1  0  0  0  0
 37 19  1  0  0  0  0
 38  7  1  0  0  0  0
 41 16  1  6  0  0  0
 41 13  1  0  0  0  0
 43  4  1  0  0  0  0
 43 39  1  1  0  0  0
 45 46  1  1  0  0  0
 45 47  1  0  0  0  0
 47 49  1  6  0  0  0
 49 48  1  0  0  0  0
 51 50  1  6  0  0  0
 51 47  1  0  0  0  0
 51 52  1  0  0  0  0
 54 53  1  1  0  0  0
 54 52  1  0  0  0  0
 54 55  1  0  0  0  0
 55 60  1  0  0  0  0
 56 57  1  0  0  0  0
 56 58  2  0  0  0  0
 57 59  1  0  0  0  0
 60 56  1  0  0  0  0
 62 61  1  0  0  0  0
 63 62  1  0  0  0  0
M  END
>  <MODEL>
1

>  <REMARK>
 VINA RESULT:      -7.3      0.000      0.000
  Name = 
  10 active torsions:
  status: ('A' for Active; 'I' for Inactive)
    1  A    between atoms: C_2  and  C_6
    2  A    between atoms: C_2  and  C_63
    3  A    between atoms: C_12  and  C_19
    4  A    between atoms: C_12  and  C_35
    5  A    between atoms: C_18  and  C_49
    6  A    between atoms: C_18  and  N_56
    7  A    between atoms: C_25  and  C_63
    8  A    between atoms: C_49  and  C_51
    9  A    between atoms: C_51  and  C_54
   10  A    between atoms: C_54  and  C_63
                            x       y       z     vdW  Elec       q    Type
                         _______ _______ _______ _____ _____    ______ ____

>  <TORSDO>
F 10

$$$$
=
 OpenBabel11072409373D

 63 70  0  0  1  0  0  0  0  0999 V2000
  196.3320  172.3050  142.1050 O   0  0  0  0  0  0  0  0  0  0  0  0
  195.5890  171.3090  145.9010 C   0  0  1  0  0  3  0  0  0  0  0  0
  196.9290  175.4000  140.2680 O   0  0  0  0  0  0  0  0  0  0  0  0
  195.1490  176.4860  141.5680 C   0  0  1  0  0  3  0  0  0  0  0  0
  192.1530  175.3370  143.7110 C   0  0  1  0  0  3  0  0  0  0  0  0
  196.5950  175.4140  138.9150 C   0  0  2  0  0  3  0  0  0  0  0  0
  191.2900  174.6020  145.7580 C   0  0  0  0  0  0  0  0  0  0  0  0
  196.8130  174.0180  138.3700 C   0  0  2  0  0  3  0  0  0  0  0  0
  194.9060  170.8990  140.8460 C   0  0  2  0  0  3  0  0  0  0  0  0
  194.5650  171.9760  139.9780 O   0  0  0  0  0  0  0  0  0  0  0  0
  193.4250  174.9860  140.4870 C   0  0  0  0  0  1  0  0  0  0  0  0
  193.6930  175.3770  143.6710 C   0  0  1  0  0  3  0  0  0  0  0  0
  192.5000  174.0820  146.5480 C   0  0  0  0  0  2  0  0  0  0  0  0
  197.6570  175.6710  136.7990 O   0  0  0  0  0  1  0  0  0  0  0  0
  193.7480  168.1660  144.9610 C   0  0  0  0  0  2  0  0  0  0  0  0
  193.6460  172.5720  144.8530 C   0  0  0  0  0  2  0  0  0  0  0  0
  197.5820  170.0210  145.3210 C   0  0  0  0  0  2  0  0  0  0  0  0
  194.3030  175.0750  145.0530 C   0  0  1  0  0  3  0  0  0  0  0  0
  194.5150  173.1610  137.7890 C   0  0  0  0  0  2  0  0  0  0  0  0
  196.3930  169.0740  145.3960 C   0  0  0  0  0  2  0  0  0  0  0  0
  195.1620  170.8790  138.0300 O   0  0  0  0  0  0  0  0  0  0  0  0
  194.1870  174.4510  142.7270 O   0  0  0  0  0  0  0  0  0  0  0  0
  195.5340  169.5960  147.5190 O   0  0  0  0  0  1  0  0  0  0  0  0
  194.5510  175.0680  141.5020 C   0  0  2  0  0  3  0  0  0  0  0  0
  193.6780  169.9920  141.0810 C   0  0  2  0  0  3  0  0  0  0  0  0
  195.0190  170.8880  143.4670 C   0  0  2  0  0  3  0  0  0  0  0  0
  193.7220  170.1030  143.3160 C   0  0  2  0  0  3  0  0  0  0  0  0
  190.6040  173.4660  144.9870 C   0  0  0  0  0  1  0  0  0  0  0  0
  197.8270  175.1220  138.0730 C   0  0  1  0  0  3  0  0  0  0  0  0
  193.0810  169.4670  144.5620 C   0  0  2  0  0  3  0  0  0  0  0  0
  197.1040  171.3830  145.8070 C   0  0  0  0  0  2  0  0  0  0  0  0
  195.0030  171.9060  144.6130 C   0  0  2  0  0  3  0  0  0  0  0  0
  195.3010  169.8220  146.1600 C   0  0  1  0  0  0  0  0  0  0  0  0
  193.8350  169.3620  145.9030 C   0  0  2  0  0  3  0  0  0  0  0  0
  190.2860  175.0760  146.7870 C   0  0  0  0  0  1  0  0  0  0  0  0
  194.7480  171.9270  138.5950 C   0  0  0  0  0  0  0  0  0  0  0  0
  195.8220  173.7330  137.2440 C   0  0  0  0  0  2  0  0  0  0  0  0
  191.6360  175.7290  144.9650 O   0  0  0  0  0  0  0  0  0  0  0  0
  196.4780  176.5180  142.2950 C   0  0  0  0  0  2  0  0  0  0  0  0
  193.8090  169.2060  142.2420 O   0  0  0  0  0  0  0  0  0  0  0  0
  193.7730  173.8090  145.7440 C   0  0  1  0  0  3  0  0  0  0  0  0
  195.8200  175.0830  145.0270 C   0  0  0  0  0  1  0  0  0  0  0  0
  196.4640  176.6150  140.7850 C   0  0  1  0  0  3  0  0  0  0  0  0
  195.4530  171.4580  142.1420 C   0  0  0  0  0  0  0  0  0  0  0  0
  191.5200  176.1770  142.5970 C   0  0  1  0  0  3  0  0  0  0  0  0
  190.9050  175.3490  141.6550 O   0  0  0  0  0  1  0  0  0  0  0  0
  190.5610  177.2720  143.0920 C   0  0  1  0  0  3  0  0  0  0  0  0
  191.5820  179.1220  144.2580 O   0  0  0  0  0  1  0  0  0  0  0  0
  191.2020  178.6580  142.9950 C   0  0  0  0  0  2  0  0  0  0  0  0
  188.8330  178.2430  141.6440 O   0  0  0  0  0  1  0  0  0  0  0  0
  189.1440  177.1730  142.4900 C   0  0  2  0  0  3  0  0  0  0  0  0
  188.0620  176.9970  143.5670 C   0  0  0  0  0  2  0  0  0  0  0  0
  185.7180  176.7040  143.0430 O   0  0  0  0  0  1  0  0  0  0  0  0
  186.9240  176.0270  143.2250 C   0  0  1  0  0  3  0  0  0  0  0  0
  187.2520  175.1550  142.0170 C   0  0  0  0  0  2  0  0  0  0  0  0
  188.5410  173.0180  141.5510 C   0  0  0  0  0  0  0  0  0  0  0  0
  188.6700  173.3480  140.1650 N   0  0  0  0  0  2  0  0  0  0  0  0
  189.0570  171.9610  142.0060 O   0  0  0  0  0  0  0  0  0  0  0  0
  189.4140  172.5090  139.2430 C   0  0  0  0  0  1  0  0  0  0  0  0
  187.8260  173.8830  142.4370 N   0  0  0  0  0  2  0  0  0  0  0  0
  193.3810  169.1070  139.8680 C   0  0  0  0  0  2  0  0  0  0  0  0
  191.9200  169.1600  139.4240 C   0  0  0  0  0  2  0  0  0  0  0  0
  191.7780  169.7920  138.0520 C   0  0  0  0  0  1  0  0  0  0  0  0
  1 44  2  0  0  0  0
  2 31  1  6  0  0  0
  2 33  1  0  0  0  0
  3 43  1  0  0  0  0
  4 39  1  1  0  0  0
  5 45  1  6  0  0  0
  5 38  1  0  0  0  0
  6  3  1  1  0  0  0
  7 13  1  0  0  0  0
  7 35  1  0  0  0  0
  8 37  1  6  0  0  0
  8  6  1  0  0  0  0
  9 10  1  6  0  0  0
  9 25  1  0  0  0  0
  9 44  1  0  0  0  0
 12 22  1  6  0  0  0
 12  5  1  0  0  0  0
 12 18  1  0  0  0  0
 17 20  1  0  0  0  0
 17 31  1  0  0  0  0
 18 42  1  6  0  0  0
 18 41  1  0  0  0  0
 19 36  1  0  0  0  0
 20 33  1  0  0  0  0
 21 36  2  0  0  0  0
 24 11  1  6  0  0  0
 24  4  1  0  0  0  0
 24 22  1  0  0  0  0
 25 61  1  6  0  0  0
 25 40  1  0  0  0  0
 26 44  1  6  0  0  0
 26 32  1  0  0  0  0
 27 40  1  6  0  0  0
 27 26  1  0  0  0  0
 27 30  1  0  0  0  0
 28  7  1  0  0  0  0
 29 14  1  6  0  0  0
 29  8  1  0  0  0  0
 29  6  1  0  0  0  0
 30 15  1  6  0  0  0
 30 34  1  0  0  0  0
 32 16  1  1  0  0  0
 32  2  1  0  0  0  0
 33 23  1  1  0  0  0
 34 15  1  6  0  0  0
 34 33  1  0  0  0  0
 36 10  1  0  0  0  0
 37 19  1  0  0  0  0
 38  7  1  0  0  0  0
 41 16  1  6  0  0  0
 41 13  1  0  0  0  0
 43  4  1  0  0  0  0
 43 39  1  1  0  0  0
 45 46  1  6  0  0  0
 45 47  1  0  0  0  0
 47 49  1  6  0  0  0
 49 48  1  0  0  0  0
 51 50  1  1  0  0  0
 51 47  1  0  0  0  0
 51 52  1  0  0  0  0
 54 53  1  6  0  0  0
 54 52  1  0  0  0  0
 55 60  1  0  0  0  0
 55 54  1  0  0  0  0
 56 58  2  0  0  0  0
 56 60  1  0  0  0  0
 57 56  1  0  0  0  0
 59 57  1  0  0  0  0
 62 61  1  0  0  0  0
 63 62  1  0  0  0  0
M  END
>  <MODEL>
2

>  <REMARK>
 VINA RESULT:      -7.1      1.769      2.705
  Name = 
  10 active torsions:
  status: ('A' for Active; 'I' for Inactive)
    1  A    between atoms: C_2  and  C_6
    2  A    between atoms: C_2  and  C_63
    3  A    between atoms: C_12  and  C_19
    4  A    between atoms: C_12  and  C_35
    5  A    between atoms: C_18  and  C_49
    6  A    between atoms: C_18  and  N_56
    7  A    between atoms: C_25  and  C_63
    8  A    between atoms: C_49  and  C_51
    9  A    between atoms: C_51  and  C_54
   10  A    between atoms: C_54  and  C_63
                            x       y       z     vdW  Elec       q    Type
                         _______ _______ _______ _____ _____    ______ ____

>  <TORSDO>
F 10

$$$$
=
 OpenBabel11072409373D

 63 70  0  0  1  0  0  0  0  0999 V2000
  192.5360  172.8460  144.7490 O   0  0  0  0  0  0  0  0  0  0  0  0
  194.6140  169.5290  143.9540 C   0  0  1  0  0  3  0  0  0  0  0  0
  189.2230  174.1330  143.9250 O   0  0  0  0  0  0  0  0  0  0  0  0
  189.4920  173.2900  141.6320 C   0  0  1  0  0  3  0  0  0  0  0  0
  192.4300  172.2020  139.3810 C   0  0  1  0  0  3  0  0  0  0  0  0
  189.0630  175.5180  143.8990 C   0  0  2  0  0  3  0  0  0  0  0  0
  193.9460  170.5620  138.6780 C   0  0  0  0  0  0  0  0  0  0  0  0
  190.0000  176.1100  144.9300 C   0  0  2  0  0  3  0  0  0  0  0  0
  194.1280  174.5860  144.5690 C   0  0  2  0  0  3  0  0  0  0  0  0
  193.1940  175.4070  143.8740 O   0  0  0  0  0  0  0  0  0  0  0  0
  191.3520  174.9530  141.2250 C   0  0  0  0  0  1  0  0  0  0  0  0
  191.6270  171.8010  140.6330 C   0  0  1  0  0  3  0  0  0  0  0  0
  193.9650  169.5160  139.8040 C   0  0  0  0  0  2  0  0  0  0  0  0
  187.8350  177.2120  145.0340 O   0  0  0  0  0  1  0  0  0  0  0  0
  197.9410  171.2490  144.3060 C   0  0  0  0  0  2  0  0  0  0  0  0
  194.2740  170.9560  141.8770 C   0  0  0  0  0  2  0  0  0  0  0  0
  194.5750  169.6440  146.3940 C   0  0  0  0  0  2  0  0  0  0  0  0
  191.8970  170.3390  141.0350 C   0  0  1  0  0  3  0  0  0  0  0  0
  191.7200  177.3970  143.6100 C   0  0  0  0  0  2  0  0  0  0  0  0
  195.9740  169.9990  145.9100 C   0  0  0  0  0  2  0  0  0  0  0  0
  193.3680  177.2030  145.3220 O   0  0  0  0  0  0  0  0  0  0  0  0
  191.9410  172.6510  141.7150 O   0  0  0  0  0  0  0  0  0  0  0  0
  196.4500  168.1660  144.5230 O   0  0  0  0  0  1  0  0  0  0  0  0
  190.9610  173.6580  141.9140 C   0  0  2  0  0  3  0  0  0  0  0  0
  195.5490  174.7960  144.0010 C   0  0  2  0  0  3  0  0  0  0  0  0
  194.6860  172.0530  144.1720 C   0  0  2  0  0  3  0  0  0  0  0  0
  195.9510  172.6400  143.5560 C   0  0  2  0  0  3  0  0  0  0  0  0
  195.0590  171.6020  138.8700 C   0  0  0  0  0  1  0  0  0  0  0  0
  188.5050  176.0010  145.2270 C   0  0  1  0  0  3  0  0  0  0  0  0
  197.0880  171.6930  143.1350 C   0  0  2  0  0  3  0  0  0  0  0  0
  193.7810  169.1830  145.1780 C   0  0  0  0  0  2  0  0  0  0  0  0
  194.1060  170.8660  143.3950 C   0  0  2  0  0  3  0  0  0  0  0  0
  196.0620  169.5060  144.4670 C   0  0  1  0  0  0  0  0  0  0  0  0
  197.1130  170.2100  143.5570 C   0  0  2  0  0  3  0  0  0  0  0  0
  194.2820  169.8190  137.4040 C   0  0  0  0  0  1  0  0  0  0  0  0
  192.8250  176.6800  144.3120 C   0  0  0  0  0  0  0  0  0  0  0  0
  190.4690  177.4930  144.4810 C   0  0  0  0  0  2  0  0  0  0  0  0
  192.6470  171.1130  138.5080 O   0  0  0  0  0  0  0  0  0  0  0  0
  188.9760  172.2180  142.5700 C   0  0  0  0  0  2  0  0  0  0  0  0
  196.4120  173.7260  144.3120 O   0  0  0  0  0  0  0  0  0  0  0  0
  193.3800  169.9510  141.1490 C   0  0  1  0  0  3  0  0  0  0  0  0
  191.1350  169.9350  142.2830 C   0  0  0  0  0  1  0  0  0  0  0  0
  188.5540  173.6540  142.7920 C   0  0  1  0  0  3  0  0  0  0  0  0
  193.6880  173.1410  144.4730 C   0  0  0  0  0  0  0  0  0  0  0  0
  191.7820  173.3620  138.6200 C   0  0  1  0  0  3  0  0  0  0  0  0
  192.7330  174.3460  138.3330 O   0  0  0  0  0  1  0  0  0  0  0  0
  191.0110  172.9450  137.3570 C   0  0  1  0  0  3  0  0  0  0  0  0
  189.6170  171.0570  136.7920 O   0  0  0  0  0  1  0  0  0  0  0  0
  189.7850  172.0990  137.7090 C   0  0  0  0  0  2  0  0  0  0  0  0
  189.3850  174.2110  136.0230 O   0  0  0  0  0  1  0  0  0  0  0  0
  190.7320  174.1110  136.3860 C   0  0  2  0  0  3  0  0  0  0  0  0
  191.6310  174.0620  135.1410 C   0  0  0  0  0  2  0  0  0  0  0  0
  191.2920  176.4570  135.0960 O   0  0  0  0  0  1  0  0  0  0  0  0
  192.0540  175.4180  134.5630 C   0  0  1  0  0  3  0  0  0  0  0  0
  193.5460  175.6820  134.7450 C   0  0  0  0  0  2  0  0  0  0  0  0
  195.3620  174.2500  135.7920 C   0  0  0  0  0  0  0  0  0  0  0  0
  195.8170  175.3410  136.5980 N   0  0  0  0  0  2  0  0  0  0  0  0
  195.9110  173.1190  135.8830 O   0  0  0  0  0  0  0  0  0  0  0  0
  196.8920  175.1870  137.5620 C   0  0  0  0  0  1  0  0  0  0  0  0
  194.2820  174.4310  134.8740 N   0  0  0  0  0  2  0  0  0  0  0  0
  196.1580  176.1230  144.4620 C   0  0  0  0  0  2  0  0  0  0  0  0
  196.7630  176.9390  143.3200 C   0  0  0  0  0  2  0  0  0  0  0  0
  197.0030  176.0830  142.0910 C   0  0  0  0  0  1  0  0  0  0  0  0
  2 33  1  0  0  0  0
  2 31  1  1  0  0  0
  4 24  1  0  0  0  0
  4 39  1  1  0  0  0
  4 43  1  0  0  0  0
  5 45  1  6  0  0  0
  5 12  1  0  0  0  0
  6  3  1  1  0  0  0
  6  8  1  0  0  0  0
  6 29  1  0  0  0  0
  7 28  1  0  0  0  0
  7 13  1  0  0  0  0
  8 37  1  6  0  0  0
  8 29  1  0  0  0  0
  9 10  1  6  0  0  0
 10 36  1  0  0  0  0
 12 18  1  0  0  0  0
 12 22  1  1  0  0  0
 18 41  1  0  0  0  0
 18 42  1  1  0  0  0
 19 36  1  0  0  0  0
 19 37  1  0  0  0  0
 20 17  1  0  0  0  0
 22 24  1  0  0  0  0
 24 11  1  6  0  0  0
 25 40  1  0  0  0  0
 25 61  1  1  0  0  0
 25  9  1  0  0  0  0
 26 44  1  6  0  0  0
 27 26  1  0  0  0  0
 27 40  1  1  0  0  0
 29 14  1  6  0  0  0
 30 27  1  0  0  0  0
 30 34  1  0  0  0  0
 30 15  1  1  0  0  0
 31 17  1  0  0  0  0
 32 16  1  6  0  0  0
 32  2  1  0  0  0  0
 32 26  1  0  0  0  0
 33 23  1  1  0  0  0
 33 20  1  0  0  0  0
 34 15  1  1  0  0  0
 34 33  1  0  0  0  0
 35  7  1  0  0  0  0
 36 21  2  0  0  0  0
 38  7  1  0  0  0  0
 38  5  1  0  0  0  0
 41 13  1  6  0  0  0
 41 16  1  0  0  0  0
 43 39  1  1  0  0  0
 43  3  1  0  0  0  0
 44  9  1  0  0  0  0
 44  1  2  0  0  0  0
 45 46  1  6  0  0  0
 47 49  1  1  0  0  0
 47 45  1  0  0  0  0
 48 49  1  0  0  0  0
 51 50  1  6  0  0  0
 51 47  1  0  0  0  0
 52 51  1  0  0  0  0
 54 55  1  0  0  0  0
 54 53  1  1  0  0  0
 54 52  1  0  0  0  0
 55 60  1  0  0  0  0
 56 58  2  0  0  0  0
 56 57  1  0  0  0  0
 57 59  1  0  0  0  0
 60 56  1  0  0  0  0
 62 61  1  0  0  0  0
 63 62  1  0  0  0  0
M  END
>  <MODEL>
3

>  <REMARK>
 VINA RESULT:      -6.6      3.431      8.167
  Name = 
  10 active torsions:
  status: ('A' for Active; 'I' for Inactive)
    1  A    between atoms: C_2  and  C_6
    2  A    between atoms: C_2  and  C_63
    3  A    between atoms: C_12  and  C_19
    4  A    between atoms: C_12  and  C_35
    5  A    between atoms: C_18  and  C_49
    6  A    between atoms: C_18  and  N_56
    7  A    between atoms: C_25  and  C_63
    8  A    between atoms: C_49  and  C_51
    9  A    between atoms: C_51  and  C_54
   10  A    between atoms: C_54  and  C_63
                            x       y       z     vdW  Elec       q    Type
                         _______ _______ _______ _____ _____    ______ ____

>  <TORSDO>
F 10

$$$$
=
 OpenBabel11072409373D

 63 70  0  0  1  0  0  0  0  0999 V2000
  192.5390  172.8520  144.6480 O   0  0  0  0  0  0  0  0  0  0  0  0
  194.6150  169.5140  143.9400 C   0  0  1  0  0  3  0  0  0  0  0  0
  189.2010  174.0890  143.8530 O   0  0  0  0  0  0  0  0  0  0  0  0
  189.4190  173.1540  141.5900 C   0  0  1  0  0  3  0  0  0  0  0  0
  192.3090  171.9880  139.3150 C   0  0  1  0  0  3  0  0  0  0  0  0
  189.0330  175.4710  143.7740 C   0  0  2  0  0  3  0  0  0  0  0  0
  193.8160  170.3280  138.6440 C   0  0  0  0  0  0  0  0  0  0  0  0
  189.9910  176.1090  144.7570 C   0  0  2  0  0  3  0  0  0  0  0  0
  194.1180  174.5890  144.3590 C   0  0  2  0  0  3  0  0  0  0  0  0
  193.1630  175.3770  143.6540 O   0  0  0  0  0  0  0  0  0  0  0  0
  191.2600  174.8070  141.0710 C   0  0  0  0  0  1  0  0  0  0  0  0
  191.5380  171.6350  140.6010 C   0  0  1  0  0  3  0  0  0  0  0  0
  193.8680  169.3290  139.8100 C   0  0  0  0  0  2  0  0  0  0  0  0
  187.8230  177.2050  144.8690 O   0  0  0  0  0  1  0  0  0  0  0  0
  197.9410  171.2610  144.1410 C   0  0  0  0  0  2  0  0  0  0  0  0
  194.2180  170.8540  141.8150 C   0  0  0  0  0  2  0  0  0  0  0  0
  194.6340  169.7280  146.3730 C   0  0  0  0  0  2  0  0  0  0  0  0
  191.8260  170.1920  141.0570 C   0  0  1  0  0  3  0  0  0  0  0  0
  191.6720  177.3480  143.3460 C   0  0  0  0  0  2  0  0  0  0  0  0
  196.0190  170.0690  145.8420 C   0  0  0  0  0  2  0  0  0  0  0  0
  193.3610  177.2320  145.0240 O   0  0  0  0  0  0  0  0  0  0  0  0
  191.8730  172.5300  141.6400 O   0  0  0  0  0  0  0  0  0  0  0  0
  196.4720  168.1830  144.5190 O   0  0  0  0  0  1  0  0  0  0  0  0
  190.8930  173.5400  141.8220 C   0  0  2  0  0  3  0  0  0  0  0  0
  195.5240  174.7820  143.7500 C   0  0  2  0  0  3  0  0  0  0  0  0
  194.6800  172.0450  144.0530 C   0  0  2  0  0  3  0  0  0  0  0  0
  195.9260  172.6120  143.3830 C   0  0  2  0  0  3  0  0  0  0  0  0
  194.9280  171.3790  138.7660 C   0  0  0  0  0  1  0  0  0  0  0  0
  188.5040  176.0060  145.0950 C   0  0  1  0  0  3  0  0  0  0  0  0
  197.0580  171.6530  142.9740 C   0  0  2  0  0  3  0  0  0  0  0  0
  193.8140  169.2150  145.1960 C   0  0  0  0  0  2  0  0  0  0  0  0
  194.0870  170.8250  143.3390 C   0  0  2  0  0  3  0  0  0  0  0  0
  196.0750  169.5180  144.4180 C   0  0  1  0  0  0  0  0  0  0  0  0
  197.1010  170.1890  143.4560 C   0  0  2  0  0  3  0  0  0  0  0  0
  194.1260  169.5340  137.3930 C   0  0  0  0  0  1  0  0  0  0  0  0
  192.7970  176.6650  144.0490 C   0  0  0  0  0  0  0  0  0  0  0  0
  190.4420  177.4740  144.2410 C   0  0  0  0  0  2  0  0  0  0  0  0
  192.5110  170.8650  138.4830 O   0  0  0  0  0  0  0  0  0  0  0  0
  188.9320  172.1190  142.5830 C   0  0  0  0  0  2  0  0  0  0  0  0
  196.3990  173.7300  144.0830 O   0  0  0  0  0  0  0  0  0  0  0  0
  193.3130  169.8150  141.1500 C   0  0  1  0  0  3  0  0  0  0  0  0
  191.0950  169.8360  142.3380 C   0  0  0  0  0  1  0  0  0  0  0  0
  188.5070  173.5610  142.7560 C   0  0  1  0  0  3  0  0  0  0  0  0
  193.6830  173.1400  144.3330 C   0  0  0  0  0  0  0  0  0  0  0  0
  191.6360  173.1130  138.5240 C   0  0  1  0  0  3  0  0  0  0  0  0
  192.5940  174.0210  138.0610 O   0  0  0  0  0  1  0  0  0  0  0  0
  190.7240  172.6340  137.3830 C   0  0  1  0  0  3  0  0  0  0  0  0
  189.6760  170.5110  136.9130 O   0  0  0  0  0  1  0  0  0  0  0  0
  189.7700  171.5360  137.8600 C   0  0  0  0  0  2  0  0  0  0  0  0
  190.8740  174.9010  136.4560 O   0  0  0  0  0  1  0  0  0  0  0  0
  190.0490  173.7810  136.6040 C   0  0  2  0  0  3  0  0  0  0  0  0
  188.6920  174.1780  137.2050 C   0  0  0  0  0  2  0  0  0  0  0  0
  187.5940  175.3390  135.3880 O   0  0  0  0  0  1  0  0  0  0  0  0
  188.0830  175.4870  136.6860 C   0  0  1  0  0  3  0  0  0  0  0  0
  187.0060  176.0320  137.6190 C   0  0  0  0  0  2  0  0  0  0  0  0
  186.7980  176.6970  140.0610 C   0  0  0  0  0  0  0  0  0  0  0  0
  185.6880  177.5540  139.7760 N   0  0  0  0  0  2  0  0  0  0  0  0
  187.2110  176.5610  141.2440 O   0  0  0  0  0  0  0  0  0  0  0  0
  184.9810  178.2680  140.8250 C   0  0  0  0  0  1  0  0  0  0  0  0
  187.4520  175.9870  139.0060 N   0  0  0  0  0  2  0  0  0  0  0  0
  196.1360  176.1290  144.1420 C   0  0  0  0  0  2  0  0  0  0  0  0
  196.9690  176.7620  143.0260 C   0  0  0  0  0  2  0  0  0  0  0  0
  196.2580  176.6820  141.6880 C   0  0  0  0  0  1  0  0  0  0  0  0
  2 33  1  0  0  0  0
  2 31  1  1  0  0  0
  4 24  1  0  0  0  0
  4 39  1  1  0  0  0
  4 43  1  0  0  0  0
  5 45  1  6  0  0  0
  5 12  1  0  0  0  0
  6  3  1  1  0  0  0
  6  8  1  0  0  0  0
  6 29  1  0  0  0  0
  7 28  1  0  0  0  0
  7 13  1  0  0  0  0
  8 37  1  6  0  0  0
  8 29  1  0  0  0  0
  9 10  1  6  0  0  0
 10 36  1  0  0  0  0
 12 18  1  0  0  0  0
 12 22  1  1  0  0  0
 18 41  1  0  0  0  0
 18 42  1  1  0  0  0
 19 36  1  0  0  0  0
 19 37  1  0  0  0  0
 20 17  1  0  0  0  0
 22 24  1  0  0  0  0
 24 11  1  6  0  0  0
 25 40  1  0  0  0  0
 25 61  1  1  0  0  0
 25  9  1  0  0  0  0
 26 44  1  6  0  0  0
 27 26  1  0  0  0  0
 27 40  1  1  0  0  0
 29 14  1  6  0  0  0
 30 27  1  0  0  0  0
 30 34  1  0  0  0  0
 30 15  1  1  0  0  0
 31 17  1  0  0  0  0
 32 16  1  6  0  0  0
 32  2  1  0  0  0  0
 32 26  1  0  0  0  0
 33 23  1  1  0  0  0
 33 20  1  0  0  0  0
 34 15  1  1  0  0  0
 34 33  1  0  0  0  0
 35  7  1  0  0  0  0
 36 21  2  0  0  0  0
 38  7  1  0  0  0  0
 38  5  1  0  0  0  0
 41 13  1  6  0  0  0
 41 16  1  0  0  0  0
 43 39  1  1  0  0  0
 43  3  1  0  0  0  0
 44  9  1  0  0  0  0
 44  1  2  0  0  0  0
 45 46  1  6  0  0  0
 47 49  1  1  0  0  0
 47 45  1  0  0  0  0
 48 49  1  0  0  0  0
 51 50  1  1  0  0  0
 51 52  1  0  0  0  0
 51 47  1  0  0  0  0
 54 53  1  6  0  0  0
 54 52  1  0  0  0  0
 54 55  1  0  0  0  0
 55 60  1  0  0  0  0
 56 58  2  0  0  0  0
 57 56  1  0  0  0  0
 57 59  1  0  0  0  0
 60 56  1  0  0  0  0
 62 61  1  0  0  0  0
 63 62  1  0  0  0  0
M  END
>  <MODEL>
4

>  <REMARK>
 VINA RESULT:      -6.4      2.775      6.954
  Name = 
  10 active torsions:
  status: ('A' for Active; 'I' for Inactive)
    1  A    between atoms: C_2  and  C_6
    2  A    between atoms: C_2  and  C_63
    3  A    between atoms: C_12  and  C_19
    4  A    between atoms: C_12  and  C_35
    5  A    between atoms: C_18  and  C_49
    6  A    between atoms: C_18  and  N_56
    7  A    between atoms: C_25  and  C_63
    8  A    between atoms: C_49  and  C_51
    9  A    between atoms: C_51  and  C_54
   10  A    between atoms: C_54  and  C_63
                            x       y       z     vdW  Elec       q    Type
                         _______ _______ _______ _____ _____    ______ ____

>  <TORSDO>
F 10

$$$$
=
 OpenBabel11072409373D

 63 70  0  0  1  0  0  0  0  0999 V2000
  195.9860  170.3810  140.9010 O   0  0  0  0  0  0  0  0  0  0  0  0
  195.2270  170.4150  136.9790 C   0  0  1  0  0  3  0  0  0  0  0  0
  194.3200  169.1140  143.8890 O   0  0  0  0  0  0  0  0  0  0  0  0
  192.1700  169.8940  142.9920 C   0  0  1  0  0  3  0  0  0  0  0  0
  191.0080  172.4080  140.3040 C   0  0  1  0  0  3  0  0  0  0  0  0
  194.5880  169.7630  145.0930 C   0  0  2  0  0  3  0  0  0  0  0  0
  190.5430  172.9110  138.0660 C   0  0  0  0  0  0  0  0  0  0  0  0
  196.0110  170.2750  145.0360 C   0  0  2  0  0  3  0  0  0  0  0  0
  196.8730  172.5290  141.3390 C   0  0  2  0  0  3  0  0  0  0  0  0
  196.1090  172.6310  142.5360 O   0  0  0  0  0  0  0  0  0  0  0  0
  192.9370  172.2940  143.2030 C   0  0  0  0  0  1  0  0  0  0  0  0
  191.7140  171.0520  140.4960 C   0  0  1  0  0  3  0  0  0  0  0  0
  191.2860  171.8450  137.2460 C   0  0  0  0  0  2  0  0  0  0  0  0
  195.5610  169.2950  147.2160 O   0  0  0  0  0  1  0  0  0  0  0  0
  197.2420  173.5350  136.3790 C   0  0  0  0  0  2  0  0  0  0  0  0
  193.6130  171.8960  138.2710 C   0  0  0  0  0  2  0  0  0  0  0  0
  197.4110  169.3360  137.1590 C   0  0  0  0  0  2  0  0  0  0  0  0
  191.8040  170.2680  139.1730 C   0  0  1  0  0  3  0  0  0  0  0  0
  195.8190  172.7880  145.0050 C   0  0  0  0  0  2  0  0  0  0  0  0
  197.6030  170.7370  136.5950 C   0  0  0  0  0  2  0  0  0  0  0  0
  197.9190  173.0650  143.9110 O   0  0  0  0  0  0  0  0  0  0  0  0
  193.0120  171.2400  141.0190 O   0  0  0  0  0  0  0  0  0  0  0  0
  196.0850  170.7140  134.8040 O   0  0  0  0  0  1  0  0  0  0  0  0
  193.0720  171.0030  142.4170 C   0  0  2  0  0  3  0  0  0  0  0  0
  196.9620  173.9050  140.6430 C   0  0  2  0  0  3  0  0  0  0  0  0
  196.0890  171.7330  138.9650 C   0  0  2  0  0  3  0  0  0  0  0  0
  196.1710  173.2250  138.6640 C   0  0  2  0  0  3  0  0  0  0  0  0
  191.4010  174.1720  138.2400 C   0  0  0  0  0  1  0  0  0  0  0  0
  195.6800  169.0240  145.8500 C   0  0  1  0  0  3  0  0  0  0  0  0
  195.9890  173.7080  137.2140 C   0  0  2  0  0  3  0  0  0  0  0  0
  195.9110  169.0810  137.2320 C   0  0  0  0  0  2  0  0  0  0  0  0
  194.8760  171.0350  138.3400 C   0  0  2  0  0  3  0  0  0  0  0  0
  196.2280  171.1910  136.1100 C   0  0  1  0  0  0  0  0  0  0  0  0
  195.9980  172.7300  136.0210 C   0  0  2  0  0  3  0  0  0  0  0  0
  189.3490  173.3280  137.2350 C   0  0  0  0  0  1  0  0  0  0  0  0
  196.6810  172.8600  143.7890 C   0  0  0  0  0  0  0  0  0  0  0  0
  196.1420  171.5590  145.8520 C   0  0  0  0  0  2  0  0  0  0  0  0
  190.0380  172.3700  139.2790 O   0  0  0  0  0  0  0  0  0  0  0  0
  192.5350  168.5220  142.4650 C   0  0  0  0  0  2  0  0  0  0  0  0
  197.2950  173.7940  139.2790 O   0  0  0  0  0  0  0  0  0  0  0  0
  192.3700  171.0530  137.9800 C   0  0  1  0  0  3  0  0  0  0  0  0
  192.5210  168.9410  139.3380 C   0  0  0  0  0  1  0  0  0  0  0  0
  192.9360  168.8990  143.8750 C   0  0  1  0  0  3  0  0  0  0  0  0
  196.2540  171.4800  140.4410 C   0  0  0  0  0  0  0  0  0  0  0  0
  190.3800  172.9250  141.6020 C   0  0  1  0  0  3  0  0  0  0  0  0
  190.8100  174.2300  141.8630 O   0  0  0  0  0  1  0  0  0  0  0  0
  188.8470  172.8220  141.6530 C   0  0  1  0  0  3  0  0  0  0  0  0
  189.3560  171.9110  143.8300 O   0  0  0  0  0  1  0  0  0  0  0  0
  188.3890  171.9450  142.8210 C   0  0  0  0  0  2  0  0  0  0  0  0
  188.4450  174.8780  140.3750 O   0  0  0  0  0  1  0  0  0  0  0  0
  188.1290  174.1820  141.5470 C   0  0  2  0  0  3  0  0  0  0  0  0
  188.3590  175.0640  142.7830 C   0  0  0  0  0  2  0  0  0  0  0  0
  186.2390  176.2300  142.7640 O   0  0  0  0  0  1  0  0  0  0  0  0
  187.6220  176.4090  142.7980 C   0  0  1  0  0  3  0  0  0  0  0  0
  188.0330  177.2800  143.9820 C   0  0  0  0  0  2  0  0  0  0  0  0
  186.1890  177.3590  145.7250 C   0  0  0  0  0  0  0  0  0  0  0  0
  185.5560  178.4610  145.0680 N   0  0  0  0  0  2  0  0  0  0  0  0
  185.6810  176.8600  146.7660 O   0  0  0  0  0  0  0  0  0  0  0  0
  184.3050  179.0230  145.5440 C   0  0  0  0  0  1  0  0  0  0  0  0
  187.4060  176.8120  145.2110 N   0  0  0  0  0  2  0  0  0  0  0  0
  197.9410  174.8430  141.3550 C   0  0  0  0  0  2  0  0  0  0  0  0
  197.2470  175.9550  142.1430 C   0  0  0  0  0  2  0  0  0  0  0  0
  196.2930  176.7440  141.2680 C   0  0  0  0  0  1  0  0  0  0  0  0
  2 31  1  1  0  0  0
  2 32  1  0  0  0  0
  4 39  1  6  0  0  0
  4 43  1  0  0  0  0
  5 12  1  0  0  0  0
  5 45  1  1  0  0  0
  6  3  1  6  0  0  0
  6 29  1  0  0  0  0
  7 28  1  0  0  0  0
  7 38  1  0  0  0  0
  8  6  1  0  0  0  0
  8 29  1  0  0  0  0
  8 37  1  1  0  0  0
  9 44  1  6  0  0  0
  9 10  1  0  0  0  0
 10 36  1  0  0  0  0
 12 22  1  6  0  0  0
 13  7  1  0  0  0  0
 17 31  1  0  0  0  0
 18 42  1  1  0  0  0
 18 12  1  0  0  0  0
 19 37  1  0  0  0  0
 20 17  1  0  0  0  0
 22 24  1  0  0  0  0
 24  4  1  0  0  0  0
 24 11  1  1  0  0  0
 25  9  1  0  0  0  0
 25 61  1  1  0  0  0
 26 44  1  1  0  0  0
 27 26  1  0  0  0  0
 27 40  1  6  0  0  0
 29 14  1  1  0  0  0
 30 15  1  6  0  0  0
 30 27  1  0  0  0  0
 32 16  1  6  0  0  0
 32 26  1  0  0  0  0
 33 23  1  6  0  0  0
 33 20  1  0  0  0  0
 33  2  1  0  0  0  0
 34 33  1  0  0  0  0
 34 15  1  6  0  0  0
 34 30  1  0  0  0  0
 35  7  1  0  0  0  0
 36 21  2  0  0  0  0
 36 19  1  0  0  0  0
 38  5  1  0  0  0  0
 40 25  1  0  0  0  0
 41 13  1  1  0  0  0
 41 16  1  0  0  0  0
 41 18  1  0  0  0  0
 43 39  1  6  0  0  0
 43  3  1  0  0  0  0
 44  1  2  0  0  0  0
 45 47  1  0  0  0  0
 45 46  1  6  0  0  0
 47 49  1  1  0  0  0
 49 48  1  0  0  0  0
 51 50  1  6  0  0  0
 51 47  1  0  0  0  0
 51 52  1  0  0  0  0
 52 54  1  0  0  0  0
 54 53  1  1  0  0  0
 54 55  1  0  0  0  0
 55 60  1  0  0  0  0
 56 58  2  0  0  0  0
 57 59  1  0  0  0  0
 57 56  1  0  0  0  0
 60 56  1  0  0  0  0
 61 62  1  0  0  0  0
 63 62  1  0  0  0  0
M  END
>  <MODEL>
5

>  <REMARK>
 VINA RESULT:      -6.1      2.258      7.060
  Name = 
  10 active torsions:
  status: ('A' for Active; 'I' for Inactive)
    1  A    between atoms: C_2  and  C_6
    2  A    between atoms: C_2  and  C_63
    3  A    between atoms: C_12  and  C_19
    4  A    between atoms: C_12  and  C_35
    5  A    between atoms: C_18  and  C_49
    6  A    between atoms: C_18  and  N_56
    7  A    between atoms: C_25  and  C_63
    8  A    between atoms: C_49  and  C_51
    9  A    between atoms: C_51  and  C_54
   10  A    between atoms: C_54  and  C_63
                            x       y       z     vdW  Elec       q    Type
                         _______ _______ _______ _____ _____    ______ ____

>  <TORSDO>
F 10

$$$$
=
 OpenBabel11072409373D

 63 70  0  0  1  0  0  0  0  0999 V2000
  191.8690  174.5650  139.5580 O   0  0  0  0  0  0  0  0  0  0  0  0
  195.7470  174.1650  138.6870 C   0  0  1  0  0  3  0  0  0  0  0  0
  189.8710  176.7110  141.7290 O   0  0  0  0  0  0  0  0  0  0  0  0
  191.5770  176.4840  143.4830 C   0  0  1  0  0  3  0  0  0  0  0  0
  194.4710  174.0580  144.2720 C   0  0  1  0  0  3  0  0  0  0  0  0
  188.6570  176.2020  142.1880 C   0  0  2  0  0  3  0  0  0  0  0  0
  196.6910  173.3830  143.9640 C   0  0  0  0  0  0  0  0  0  0  0  0
  188.1060  175.2850  141.1180 C   0  0  2  0  0  3  0  0  0  0  0  0
  191.0720  172.3420  139.6910 C   0  0  2  0  0  3  0  0  0  0  0  0
  190.3040  172.6560  140.8480 O   0  0  0  0  0  0  0  0  0  0  0  0
  191.0330  174.0260  143.7140 C   0  0  0  0  0  1  0  0  0  0  0  0
  194.0180  175.1520  143.2860 C   0  0  1  0  0  3  0  0  0  0  0  0
  197.1380  174.0400  142.6490 C   0  0  0  0  0  2  0  0  0  0  0  0
  186.3280  176.6730  142.0270 O   0  0  0  0  0  1  0  0  0  0  0  0
  195.4070  170.5310  137.7730 C   0  0  0  0  0  2  0  0  0  0  0  0
  195.2320  173.4500  141.0720 C   0  0  0  0  0  2  0  0  0  0  0  0
  194.6820  174.5540  136.5240 C   0  0  0  0  0  2  0  0  0  0  0  0
  195.1920  175.6630  142.4290 C   0  0  1  0  0  3  0  0  0  0  0  0
  188.1830  172.9710  142.1140 C   0  0  0  0  0  2  0  0  0  0  0  0
  195.0950  173.0910  136.6090 C   0  0  0  0  0  2  0  0  0  0  0  0
  188.2920  171.9140  139.9800 O   0  0  0  0  0  0  0  0  0  0  0  0
  192.9970  174.6650  142.4410 O   0  0  0  0  0  0  0  0  0  0  0  0
  197.3580  173.2960  137.2020 O   0  0  0  0  0  1  0  0  0  0  0  0
  191.7070  175.0830  142.8570 C   0  0  2  0  0  3  0  0  0  0  0  0
  191.6490  170.9130  139.8040 C   0  0  2  0  0  3  0  0  0  0  0  0
  193.5660  172.9660  139.1670 C   0  0  2  0  0  3  0  0  0  0  0  0
  193.7860  171.4910  139.4800 C   0  0  2  0  0  3  0  0  0  0  0  0
  196.1580  171.9650  143.7200 C   0  0  0  0  0  1  0  0  0  0  0  0
  187.5220  176.6850  141.3000 C   0  0  1  0  0  3  0  0  0  0  0  0
  195.1720  170.8710  139.2310 C   0  0  2  0  0  3  0  0  0  0  0  0
  195.2480  175.2550  137.7510 C   0  0  0  0  0  2  0  0  0  0  0  0
  194.6510  173.8920  139.7280 C   0  0  2  0  0  3  0  0  0  0  0  0
  196.1070  173.0020  137.7500 C   0  0  1  0  0  0  0  0  0  0  0  0
  196.2640  171.6090  138.4290 C   0  0  2  0  0  3  0  0  0  0  0  0
  197.9410  173.2230  144.8020 C   0  0  0  0  0  1  0  0  0  0  0  0
  188.9240  172.4600  140.9240 C   0  0  0  0  0  0  0  0  0  0  0  0
  187.2940  174.1600  141.7560 C   0  0  0  0  0  2  0  0  0  0  0  0
  195.8090  174.2280  144.6890 O   0  0  0  0  0  0  0  0  0  0  0  0
  191.9200  177.5880  142.5030 C   0  0  0  0  0  2  0  0  0  0  0  0
  192.7490  170.7120  138.9490 O   0  0  0  0  0  0  0  0  0  0  0  0
  196.0280  174.5730  141.7410 C   0  0  1  0  0  3  0  0  0  0  0  0
  194.7590  176.7230  141.4330 C   0  0  0  0  0  1  0  0  0  0  0  0
  190.4670  177.3260  142.8370 C   0  0  1  0  0  3  0  0  0  0  0  0
  192.1610  173.3790  139.5180 C   0  0  0  0  0  0  0  0  0  0  0  0
  193.5500  173.9550  145.4910 C   0  0  1  0  0  3  0  0  0  0  0  0
  193.6860  172.7030  146.0980 O   0  0  0  0  0  1  0  0  0  0  0  0
  193.7160  175.0920  146.5130 C   0  0  1  0  0  3  0  0  0  0  0  0
  194.4740  177.2570  145.7600 O   0  0  0  0  0  1  0  0  0  0  0  0
  194.9060  175.9880  146.1580 C   0  0  0  0  0  2  0  0  0  0  0  0
  192.5920  176.9380  147.6760 O   0  0  0  0  0  1  0  0  0  0  0  0
  192.4070  175.8490  146.8180 C   0  0  2  0  0  3  0  0  0  0  0  0
  191.3040  174.9190  147.3460 C   0  0  0  0  0  2  0  0  0  0  0  0
  188.9400  174.4690  147.6030 O   0  0  0  0  0  1  0  0  0  0  0  0
  189.8660  175.3010  146.9720 C   0  0  1  0  0  3  0  0  0  0  0  0
  189.5670  176.7690  147.2570 C   0  0  0  0  0  2  0  0  0  0  0  0
  187.6570  177.5400  145.7730 C   0  0  0  0  0  0  0  0  0  0  0  0
  186.6880  176.9270  146.6280 N   0  0  0  0  0  2  0  0  0  0  0  0
  187.2900  178.1810  144.7500 O   0  0  0  0  0  0  0  0  0  0  0  0
  185.2620  177.0390  146.3770 C   0  0  0  0  0  1  0  0  0  0  0  0
  189.0520  177.4340  146.0660 N   0  0  0  0  0  2  0  0  0  0  0  0
  190.5800  169.8450  139.5590 C   0  0  0  0  0  2  0  0  0  0  0  0
  190.6130  169.2720  138.1420 C   0  0  0  0  0  2  0  0  0  0  0  0
  189.7150  170.0580  137.2050 C   0  0  0  0  0  1  0  0  0  0  0  0
  2 31  1  6  0  0  0
  2 32  1  0  0  0  0
  3 43  1  0  0  0  0
  4 39  1  6  0  0  0
  5 38  1  0  0  0  0
  5 45  1  1  0  0  0
  6  3  1  6  0  0  0
  7 38  1  0  0  0  0
  7 35  1  0  0  0  0
  8 29  1  0  0  0  0
  8 37  1  1  0  0  0
  8  6  1  0  0  0  0
  9 44  1  1  0  0  0
  9 25  1  0  0  0  0
  9 10  1  0  0  0  0
 10 36  1  0  0  0  0
 12 22  1  6  0  0  0
 12  5  1  0  0  0  0
 13  7  1  0  0  0  0
 17 20  1  0  0  0  0
 17 31  1  0  0  0  0
 18 42  1  6  0  0  0
 18 12  1  0  0  0  0
 20 33  1  0  0  0  0
 21 36  2  0  0  0  0
 22 24  1  0  0  0  0
 24  4  1  0  0  0  0
 24 11  1  1  0  0  0
 25 61  1  6  0  0  0
 26 27  1  0  0  0  0
 26 44  1  1  0  0  0
 26 32  1  0  0  0  0
 27 40  1  6  0  0  0
 28  7  1  0  0  0  0
 29 14  1  1  0  0  0
 29  6  1  0  0  0  0
 30 15  1  6  0  0  0
 30 27  1  0  0  0  0
 32 16  1  1  0  0  0
 33 23  1  6  0  0  0
 33 34  1  0  0  0  0
 33  2  1  0  0  0  0
 34 15  1  6  0  0  0
 34 30  1  0  0  0  0
 36 19  1  0  0  0  0
 37 19  1  0  0  0  0
 40 25  1  0  0  0  0
 41 16  1  1  0  0  0
 41 18  1  0  0  0  0
 41 13  1  0  0  0  0
 43 39  1  6  0  0  0
 43  4  1  0  0  0  0
 44  1  2  0  0  0  0
 45 46  1  1  0  0  0
 45 47  1  0  0  0  0
 47 49  1  6  0  0  0
 47 51  1  0  0  0  0
 48 49  1  0  0  0  0
 51 52  1  0  0  0  0
 51 50  1  1  0  0  0
 54 55  1  0  0  0  0
 54 52  1  0  0  0  0
 54 53  1  1  0  0  0
 56 60  1  0  0  0  0
 56 57  1  0  0  0  0
 58 56  2  0  0  0  0
 59 57  1  0  0  0  0
 60 55  1  0  0  0  0
 62 61  1  0  0  0  0
 63 62  1  0  0  0  0
M  END
>  <MODEL>
6

>  <REMARK>
 VINA RESULT:      -6.1      2.260      5.910
  Name = 
  10 active torsions:
  status: ('A' for Active; 'I' for Inactive)
    1  A    between atoms: C_2  and  C_6
    2  A    between atoms: C_2  and  C_63
    3  A    between atoms: C_12  and  C_19
    4  A    between atoms: C_12  and  C_35
    5  A    between atoms: C_18  and  C_49
    6  A    between atoms: C_18  and  N_56
    7  A    between atoms: C_25  and  C_63
    8  A    between atoms: C_49  and  C_51
    9  A    between atoms: C_51  and  C_54
   10  A    between atoms: C_54  and  C_63
                            x       y       z     vdW  Elec       q    Type
                         _______ _______ _______ _____ _____    ______ ____

>  <TORSDO>
F 10

$$$$
=
 OpenBabel11072409373D

 63 70  0  0  1  0  0  0  0  0999 V2000
  191.8930  174.5490  139.0420 O   0  0  0  0  0  0  0  0  0  0  0  0
  195.5420  173.8920  137.5580 C   0  0  1  0  0  3  0  0  0  0  0  0
  190.5190  176.0320  142.0790 O   0  0  0  0  0  0  0  0  0  0  0  0
  192.2680  174.9090  143.3900 C   0  0  1  0  0  3  0  0  0  0  0  0
  194.6750  171.9390  142.8740 C   0  0  1  0  0  3  0  0  0  0  0  0
  189.2640  175.5880  142.4960 C   0  0  2  0  0  3  0  0  0  0  0  0
  196.6910  171.0840  142.0460 C   0  0  0  0  0  0  0  0  0  0  0  0
  188.4670  175.2290  141.2600 C   0  0  2  0  0  3  0  0  0  0  0  0
  190.6840  172.5900  138.5000 C   0  0  2  0  0  3  0  0  0  0  0  0
  190.0790  172.5730  139.7890 O   0  0  0  0  0  0  0  0  0  0  0  0
  191.2680  172.6580  142.8220 C   0  0  0  0  0  1  0  0  0  0  0  0
  194.3780  173.3760  142.4050 C   0  0  1  0  0  3  0  0  0  0  0  0
  197.1630  172.0990  140.9940 C   0  0  0  0  0  2  0  0  0  0  0  0
  187.0690  176.4470  142.8330 O   0  0  0  0  0  1  0  0  0  0  0  0
  194.4270  170.9520  135.4910 C   0  0  0  0  0  2  0  0  0  0  0  0
  195.0690  172.4400  139.5910 C   0  0  0  0  0  2  0  0  0  0  0  0
  194.4220  175.2130  135.8360 C   0  0  0  0  0  2  0  0  0  0  0  0
  195.5640  173.9740  141.6250 C   0  0  1  0  0  3  0  0  0  0  0  0
  188.1570  172.7290  141.3660 C   0  0  0  0  0  2  0  0  0  0  0  0
  194.5440  173.7760  135.3470 C   0  0  0  0  0  2  0  0  0  0  0  0
  187.9020  172.5290  139.0040 O   0  0  0  0  0  0  0  0  0  0  0  0
  193.2220  173.4020  141.5930 O   0  0  0  0  0  0  0  0  0  0  0  0
  196.8390  173.3880  135.6550 O   0  0  0  0  0  1  0  0  0  0  0  0
  192.0730  173.8350  142.3020 C   0  0  2  0  0  3  0  0  0  0  0  0
  190.9740  171.1480  138.0280 C   0  0  2  0  0  3  0  0  0  0  0  0
  193.2080  172.9610  137.8870 C   0  0  2  0  0  3  0  0  0  0  0  0
  193.1540  171.4590  137.6320 C   0  0  2  0  0  3  0  0  0  0  0  0
  195.8720  169.9580  141.3990 C   0  0  0  0  0  1  0  0  0  0  0  0
  188.1860  176.5370  141.9980 C   0  0  1  0  0  3  0  0  0  0  0  0
  194.3700  170.7640  136.9930 C   0  0  2  0  0  3  0  0  0  0  0  0
  195.2020  175.3130  137.1400 C   0  0  0  0  0  2  0  0  0  0  0  0
  194.4920  173.4320  138.5790 C   0  0  2  0  0  3  0  0  0  0  0  0
  195.5970  173.1150  136.2330 C   0  0  1  0  0  0  0  0  0  0  0  0
  195.5250  171.5630  136.3560 C   0  0  2  0  0  3  0  0  0  0  0  0
  197.9410  170.4300  142.5940 C   0  0  0  0  0  1  0  0  0  0  0  0
  188.6960  172.5830  139.9820 C   0  0  0  0  0  0  0  0  0  0  0  0
  187.4970  174.0910  141.5720 C   0  0  0  0  0  2  0  0  0  0  0  0
  196.0470  171.7300  143.1350 O   0  0  0  0  0  0  0  0  0  0  0  0
  192.7500  176.2270  142.8190 C   0  0  0  0  0  2  0  0  0  0  0  0
  191.9490  171.1050  137.0120 O   0  0  0  0  0  0  0  0  0  0  0  0
  196.1170  173.0970  140.4920 C   0  0  1  0  0  3  0  0  0  0  0  0
  195.2780  175.3800  141.1320 C   0  0  0  0  0  1  0  0  0  0  0  0
  191.3020  176.0930  143.2380 C   0  0  1  0  0  3  0  0  0  0  0  0
  191.9400  173.4320  138.5510 C   0  0  0  0  0  0  0  0  0  0  0  0
  193.8430  171.5410  144.0960 C   0  0  1  0  0  3  0  0  0  0  0  0
  193.4700  170.1960  144.0130 O   0  0  0  0  0  1  0  0  0  0  0  0
  194.5040  171.8550  145.4480 C   0  0  1  0  0  3  0  0  0  0  0  0
  195.1920  170.0040  146.8360 O   0  0  0  0  0  1  0  0  0  0  0  0
  195.5930  170.8330  145.7840 C   0  0  0  0  0  2  0  0  0  0  0  0
  196.2480  173.4720  146.0560 O   0  0  0  0  0  1  0  0  0  0  0  0
  194.9320  173.3290  145.6020 C   0  0  2  0  0  3  0  0  0  0  0  0
  193.9610  174.1310  146.4820 C   0  0  0  0  0  2  0  0  0  0  0  0
  194.8800  176.0700  145.3640 O   0  0  0  0  0  1  0  0  0  0  0  0
  194.1500  175.6540  146.4770 C   0  0  1  0  0  3  0  0  0  0  0  0
  192.8230  176.4000  146.5730 C   0  0  0  0  0  2  0  0  0  0  0  0
  190.3800  175.8440  146.9850 C   0  0  0  0  0  0  0  0  0  0  0  0
  189.9590  177.1040  146.4530 N   0  0  0  0  0  2  0  0  0  0  0  0
  189.5280  175.0050  147.3850 O   0  0  0  0  0  0  0  0  0  0  0  0
  188.5560  177.4540  146.3260 C   0  0  0  0  0  1  0  0  0  0  0  0
  191.7700  175.5220  147.0680 N   0  0  0  0  0  2  0  0  0  0  0  0
  189.7010  170.4280  137.5760 C   0  0  0  0  0  2  0  0  0  0  0  0
  189.7050  168.9340  137.8990 C   0  0  0  0  0  2  0  0  0  0  0  0
  190.5160  168.6370  139.1460 C   0  0  0  0  0  1  0  0  0  0  0  0
  2 31  1  6  0  0  0
  2 32  1  0  0  0  0
  3 43  1  0  0  0  0
  4 39  1  6  0  0  0
  5 38  1  0  0  0  0
  5 45  1  1  0  0  0
  6  3  1  6  0  0  0
  7 35  1  0  0  0  0
  7 38  1  0  0  0  0
  8 37  1  1  0  0  0
  8 29  1  0  0  0  0
  8  6  1  0  0  0  0
  9 44  1  1  0  0  0
  9 10  1  0  0  0  0
 10 36  1  0  0  0  0
 12 22  1  6  0  0  0
 12  5  1  0  0  0  0
 13  7  1  0  0  0  0
 17 31  1  0  0  0  0
 18 42  1  6  0  0  0
 18 12  1  0  0  0  0
 19 37  1  0  0  0  0
 20 17  1  0  0  0  0
 20 33  1  0  0  0  0
 21 36  2  0  0  0  0
 22 24  1  0  0  0  0
 24 11  1  1  0  0  0
 24  4  1  0  0  0  0
 25 61  1  6  0  0  0
 25  9  1  0  0  0  0
 26 44  1  1  0  0  0
 26 32  1  0  0  0  0
 27 40  1  6  0  0  0
 27 26  1  0  0  0  0
 28  7  1  0  0  0  0
 29  6  1  0  0  0  0
 29 14  1  1  0  0  0
 30 15  1  6  0  0  0
 30 27  1  0  0  0  0
 32 16  1  6  0  0  0
 33 23  1  6  0  0  0
 33 34  1  0  0  0  0
 33  2  1  0  0  0  0
 34 15  1  6  0  0  0
 34 30  1  0  0  0  0
 36 19  1  0  0  0  0
 40 25  1  0  0  0  0
 41 16  1  1  0  0  0
 41 13  1  0  0  0  0
 41 18  1  0  0  0  0
 43 39  1  6  0  0  0
 43  4  1  0  0  0  0
 44  1  2  0  0  0  0
 45 46  1  6  0  0  0
 45 47  1  0  0  0  0
 47 51  1  0  0  0  0
 47 49  1  6  0  0  0
 49 48  1  0  0  0  0
 51 50  1  1  0  0  0
 51 52  1  0  0  0  0
 54 53  1  6  0  0  0
 54 52  1  0  0  0  0
 54 55  1  0  0  0  0
 55 60  1  0  0  0  0
 56 60  1  0  0  0  0
 56 58  2  0  0  0  0
 57 56  1  0  0  0  0
 59 57  1  0  0  0  0
 61 62  1  0  0  0  0
 62 63  1  0  0  0  0
M  END
>  <MODEL>
7

>  <REMARK>
 VINA RESULT:      -6.0      2.328      7.073
  Name = 
  10 active torsions:
  status: ('A' for Active; 'I' for Inactive)
    1  A    between atoms: C_2  and  C_6
    2  A    between atoms: C_2  and  C_63
    3  A    between atoms: C_12  and  C_19
    4  A    between atoms: C_12  and  C_35
    5  A    between atoms: C_18  and  C_49
    6  A    between atoms: C_18  and  N_56
    7  A    between atoms: C_25  and  C_63
    8  A    between atoms: C_49  and  C_51
    9  A    between atoms: C_51  and  C_54
   10  A    between atoms: C_54  and  C_63
                            x       y       z     vdW  Elec       q    Type
                         _______ _______ _______ _____ _____    ______ ____

>  <TORSDO>
F 10

$$$$
=
 OpenBabel11072409373D

 63 70  0  0  1  0  0  0  0  0999 V2000
  195.5830  171.3330  140.8020 O   0  0  0  0  0  0  0  0  0  0  0  0
  193.7150  169.3770  137.8620 C   0  0  1  0  0  3  0  0  0  0  0  0
  195.0460  171.8450  144.3730 O   0  0  0  0  0  0  0  0  0  0  0  0
  192.6440  172.1360  143.9460 C   0  0  1  0  0  3  0  0  0  0  0  0
  190.4260  172.9550  140.8970 C   0  0  1  0  0  3  0  0  0  0  0  0
  195.5650  173.0100  144.9370 C   0  0  2  0  0  3  0  0  0  0  0  0
  189.2650  172.2550  138.9890 C   0  0  0  0  0  0  0  0  0  0  0  0
  196.8290  173.3640  144.1830 C   0  0  2  0  0  3  0  0  0  0  0  0
  196.2670  173.3650  139.8030 C   0  0  2  0  0  3  0  0  0  0  0  0
  195.8790  174.0970  140.9620 O   0  0  0  0  0  0  0  0  0  0  0  0
  193.1140  174.2720  142.6780 C   0  0  0  0  0  1  0  0  0  0  0  0
  191.3300  171.8640  141.5020 C   0  0  1  0  0  3  0  0  0  0  0  0
  189.8700  170.8910  138.6210 C   0  0  0  0  0  2  0  0  0  0  0  0
  197.1690  173.6610  146.5730 O   0  0  0  0  0  1  0  0  0  0  0  0
  195.0340  171.6660  135.1840 C   0  0  0  0  0  2  0  0  0  0  0  0
  192.3670  171.3720  138.6820 C   0  0  0  0  0  2  0  0  0  0  0  0
  195.9790  168.4610  137.8500 C   0  0  0  0  0  2  0  0  0  0  0  0
  191.1330  170.5090  140.7960 C   0  0  1  0  0  3  0  0  0  0  0  0
  196.3050  175.5100  142.9680 C   0  0  0  0  0  2  0  0  0  0  0  0
  195.8110  169.3640  136.6360 C   0  0  0  0  0  2  0  0  0  0  0  0
  197.9370  175.1050  141.2790 O   0  0  0  0  0  0  0  0  0  0  0  0
  192.6870  172.2440  141.4170 O   0  0  0  0  0  0  0  0  0  0  0  0
  193.8520  168.4840  135.6860 O   0  0  0  0  0  1  0  0  0  0  0  0
  193.1840  172.7560  142.6430 C   0  0  2  0  0  3  0  0  0  0  0  0
  195.9660  174.1840  138.5290 C   0  0  2  0  0  3  0  0  0  0  0  0
  194.9360  171.4940  138.5340 C   0  0  2  0  0  3  0  0  0  0  0  0
  194.7280  172.6150  137.5220 C   0  0  2  0  0  3  0  0  0  0  0  0
  189.9610  173.3920  138.2280 C   0  0  0  0  0  1  0  0  0  0  0  0
  196.9180  172.7230  145.5680 C   0  0  1  0  0  3  0  0  0  0  0  0
  194.0680  172.2910  136.1710 C   0  0  2  0  0  3  0  0  0  0  0  0
  194.6130  168.3370  138.5120 C   0  0  0  0  0  2  0  0  0  0  0  0
  193.6970  170.6210  138.7630 C   0  0  2  0  0  3  0  0  0  0  0  0
  194.3060  169.5570  136.4560 C   0  0  1  0  0  0  0  0  0  0  0  0
  193.8580  170.8400  135.6920 C   0  0  2  0  0  3  0  0  0  0  0  0
  187.8360  172.2310  138.4910 C   0  0  0  0  0  1  0  0  0  0  0  0
  196.7570  174.9140  141.6770 C   0  0  0  0  0  0  0  0  0  0  0  0
  197.0210  174.8800  144.1610 C   0  0  0  0  0  2  0  0  0  0  0  0
  189.2120  172.4330  140.3970 O   0  0  0  0  0  0  0  0  0  0  0  0
  193.0180  170.6750  144.0880 C   0  0  0  0  0  2  0  0  0  0  0  0
  195.8970  173.3750  137.3780 O   0  0  0  0  0  0  0  0  0  0  0  0
  191.2160  170.5470  139.2620 C   0  0  1  0  0  3  0  0  0  0  0  0
  192.0360  169.4290  141.3610 C   0  0  0  0  0  1  0  0  0  0  0  0
  193.7600  171.7070  144.9090 C   0  0  1  0  0  3  0  0  0  0  0  0
  195.5570  172.0280  139.7980 C   0  0  0  0  0  0  0  0  0  0  0  0
  190.1410  174.0890  141.8860 C   0  0  1  0  0  3  0  0  0  0  0  0
  189.9950  175.3010  141.2050 O   0  0  0  0  0  1  0  0  0  0  0  0
  188.9540  173.8300  142.8280 C   0  0  1  0  0  3  0  0  0  0  0  0
  188.8840  171.6910  143.9440 O   0  0  0  0  0  1  0  0  0  0  0  0
  189.3770  172.9960  144.0390 C   0  0  0  0  0  2  0  0  0  0  0  0
  187.4690  175.6300  142.0660 O   0  0  0  0  0  1  0  0  0  0  0  0
  188.1440  175.0980  143.1700 C   0  0  2  0  0  3  0  0  0  0  0  0
  189.0020  176.1730  143.8550 C   0  0  0  0  0  2  0  0  0  0  0  0
  187.7960  175.8250  145.9240 O   0  0  0  0  0  1  0  0  0  0  0  0
  188.4140  176.7910  145.1300 C   0  0  1  0  0  3  0  0  0  0  0  0
  189.4550  177.5720  145.9260 C   0  0  0  0  0  2  0  0  0  0  0  0
  191.2290  176.2620  147.1840 C   0  0  0  0  0  0  0  0  0  0  0  0
  192.1590  176.4040  146.1060 N   0  0  0  0  0  2  0  0  0  0  0  0
  191.5630  175.6560  148.2380 O   0  0  0  0  0  0  0  0  0  0  0  0
  193.5160  175.8930  146.1910 C   0  0  0  0  0  1  0  0  0  0  0  0
  189.9100  176.8030  147.0770 N   0  0  0  0  0  2  0  0  0  0  0  0
  196.9760  175.3160  138.3250 C   0  0  0  0  0  2  0  0  0  0  0  0
  197.6270  175.3020  136.9420 C   0  0  0  0  0  2  0  0  0  0  0  0
  196.9130  176.2340  135.9820 C   0  0  0  0  0  1  0  0  0  0  0  0
  2 31  1  1  0  0  0
  2 32  1  0  0  0  0
  3 43  1  0  0  0  0
  4 39  1  6  0  0  0
  4 43  1  0  0  0  0
  5 12  1  0  0  0  0
  5 45  1  1  0  0  0
  6  3  1  6  0  0  0
  6 29  1  0  0  0  0
  7 38  1  0  0  0  0
  8 37  1  1  0  0  0
  8  6  1  0  0  0  0
  8 29  1  0  0  0  0
  9 44  1  6  0  0  0
  9 10  1  0  0  0  0
 10 36  1  0  0  0  0
 12 22  1  6  0  0  0
 13  7  1  0  0  0  0
 16 41  1  0  0  0  0
 17 31  1  0  0  0  0
 18 42  1  1  0  0  0
 18 12  1  0  0  0  0
 19 37  1  0  0  0  0
 20 17  1  0  0  0  0
 21 36  2  0  0  0  0
 22 24  1  0  0  0  0
 24 11  1  1  0  0  0
 24  4  1  0  0  0  0
 25 61  1  6  0  0  0
 25  9  1  0  0  0  0
 26 32  1  0  0  0  0
 26 44  1  1  0  0  0
 27 40  1  6  0  0  0
 27 26  1  0  0  0  0
 28  7  1  0  0  0  0
 29 14  1  1  0  0  0
 30 15  1  6  0  0  0
 30 27  1  0  0  0  0
 32 16  1  6  0  0  0
 33 23  1  6  0  0  0
 33 20  1  0  0  0  0
 33  2  1  0  0  0  0
 34 15  1  6  0  0  0
 34 30  1  0  0  0  0
 34 33  1  0  0  0  0
 35  7  1  0  0  0  0
 36 19  1  0  0  0  0
 38  5  1  0  0  0  0
 40 25  1  0  0  0  0
 41 13  1  6  0  0  0
 41 18  1  0  0  0  0
 43 39  1  6  0  0  0
 44  1  2  0  0  0  0
 45 46  1  6  0  0  0
 45 47  1  0  0  0  0
 47 51  1  0  0  0  0
 47 49  1  1  0  0  0
 48 49  1  0  0  0  0
 51 50  1  6  0  0  0
 51 52  1  0  0  0  0
 52 54  1  0  0  0  0
 54 53  1  1  0  0  0
 54 55  1  0  0  0  0
 55 60  1  0  0  0  0
 56 58  2  0  0  0  0
 57 59  1  0  0  0  0
 57 56  1  0  0  0  0
 60 56  1  0  0  0  0
 62 61  1  0  0  0  0
 63 62  1  0  0  0  0
M  END
>  <MODEL>
8

>  <REMARK>
 VINA RESULT:      -5.7      2.514      6.880
  Name = 
  10 active torsions:
  status: ('A' for Active; 'I' for Inactive)
    1  A    between atoms: C_2  and  C_6
    2  A    between atoms: C_2  and  C_63
    3  A    between atoms: C_12  and  C_19
    4  A    between atoms: C_12  and  C_35
    5  A    between atoms: C_18  and  C_49
    6  A    between atoms: C_18  and  N_56
    7  A    between atoms: C_25  and  C_63
    8  A    between atoms: C_49  and  C_51
    9  A    between atoms: C_51  and  C_54
   10  A    between atoms: C_54  and  C_63
                            x       y       z     vdW  Elec       q    Type
                         _______ _______ _______ _____ _____    ______ ____

>  <TORSDO>
F 10

$$$$
=
 OpenBabel11072409373D

 63 70  0  0  1  0  0  0  0  0999 V2000
  191.8860  172.0670  143.9100 O   0  0  0  0  0  0  0  0  0  0  0  0
  194.8480  169.3890  143.7930 C   0  0  1  0  0  3  0  0  0  0  0  0
  189.1890  173.1010  141.6810 O   0  0  0  0  0  0  0  0  0  0  0  0
  190.7410  172.9660  139.7800 C   0  0  1  0  0  3  0  0  0  0  0  0
  194.5680  172.9240  139.2920 C   0  0  1  0  0  3  0  0  0  0  0  0
  188.7200  174.4080  141.8100 C   0  0  2  0  0  3  0  0  0  0  0  0
  196.5910  171.7480  139.2380 C   0  0  0  0  0  0  0  0  0  0  0  0
  188.8540  174.8050  143.2640 C   0  0  2  0  0  3  0  0  0  0  0  0
  192.8680  173.9750  144.9040 C   0  0  2  0  0  3  0  0  0  0  0  0
  192.2170  174.8310  143.9700 O   0  0  0  0  0  0  0  0  0  0  0  0
  192.0760  174.8980  140.7150 C   0  0  0  0  0  1  0  0  0  0  0  0
  193.3880  172.0940  139.8350 C   0  0  1  0  0  3  0  0  0  0  0  0
  196.3240  170.4430  140.0040 C   0  0  0  0  0  2  0  0  0  0  0  0
  186.7120  175.5530  142.3860 O   0  0  0  0  0  1  0  0  0  0  0  0
  197.0290  171.3510  146.1490 C   0  0  0  0  0  2  0  0  0  0  0  0
  195.2120  171.2800  142.1330 C   0  0  0  0  0  2  0  0  0  0  0  0
  193.6010  168.8190  145.8150 C   0  0  0  0  0  2  0  0  0  0  0  0
  193.7880  170.6240  140.0640 C   0  0  1  0  0  3  0  0  0  0  0  0
  190.6090  176.6140  143.3050 C   0  0  0  0  0  2  0  0  0  0  0  0
  194.9170  169.4680  146.2190 C   0  0  0  0  0  2  0  0  0  0  0  0
  191.2060  176.1640  145.5690 O   0  0  0  0  0  0  0  0  0  0  0  0
  192.9110  172.6450  141.0440 O   0  0  0  0  0  0  0  0  0  0  0  0
  196.4530  168.1660  145.0110 O   0  0  0  0  0  1  0  0  0  0  0  0
  191.7410  173.4250  140.8590 C   0  0  2  0  0  3  0  0  0  0  0  0
  194.2800  174.5120  145.2260 C   0  0  2  0  0  3  0  0  0  0  0  0
  194.1670  171.7430  144.4410 C   0  0  2  0  0  3  0  0  0  0  0  0
  195.3760  172.6320  144.7040 C   0  0  2  0  0  3  0  0  0  0  0  0
  197.1670  172.8260  140.1660 C   0  0  0  0  0  1  0  0  0  0  0  0
  187.4850  174.4310  142.6970 C   0  0  1  0  0  3  0  0  0  0  0  0
  196.7710  171.9900  144.7990 C   0  0  2  0  0  3  0  0  0  0  0  0
  193.6440  168.6160  144.3060 C   0  0  0  0  0  2  0  0  0  0  0  0
  194.3570  170.7530  143.2860 C   0  0  2  0  0  3  0  0  0  0  0  0
  195.8160  169.4090  144.9860 C   0  0  1  0  0  0  0  0  0  0  0  0
  196.9610  170.4640  144.9110 C   0  0  2  0  0  3  0  0  0  0  0  0
  197.6790  171.4340  138.2340 C   0  0  0  0  0  1  0  0  0  0  0  0
  191.3740  175.8760  144.3530 C   0  0  0  0  0  0  0  0  0  0  0  0
  189.1150  176.3060  143.3770 C   0  0  0  0  0  2  0  0  0  0  0  0
  195.4480  172.1550  138.4990 O   0  0  0  0  0  0  0  0  0  0  0  0
  190.1240  171.6200  140.1010 C   0  0  0  0  0  2  0  0  0  0  0  0
  195.1210  173.5170  145.7600 O   0  0  0  0  0  0  0  0  0  0  0  0
  195.0710  170.4100  140.8810 C   0  0  1  0  0  3  0  0  0  0  0  0
  192.6450  169.7980  140.6240 C   0  0  0  0  0  1  0  0  0  0  0  0
  189.3000  172.8740  140.3040 C   0  0  1  0  0  3  0  0  0  0  0  0
  192.9110  172.5690  144.3450 C   0  0  0  0  0  0  0  0  0  0  0  0
  194.1020  174.1570  138.5140 C   0  0  1  0  0  3  0  0  0  0  0  0
  194.9110  175.2560  138.8170 O   0  0  0  0  0  1  0  0  0  0  0  0
  193.9890  173.9480  136.9950 C   0  0  1  0  0  3  0  0  0  0  0  0
  193.7900  172.2780  135.2630 O   0  0  0  0  0  1  0  0  0  0  0  0
  193.8650  172.4630  136.6470 C   0  0  0  0  0  2  0  0  0  0  0  0
  193.2420  176.2200  136.4440 O   0  0  0  0  0  1  0  0  0  0  0  0
  192.9450  174.8590  136.3180 C   0  0  2  0  0  3  0  0  0  0  0  0
  191.5150  174.5670  136.7990 C   0  0  0  0  0  2  0  0  0  0  0  0
  190.6710  175.4640  134.7170 O   0  0  0  0  0  1  0  0  0  0  0  0
  190.4360  174.5130  135.7090 C   0  0  1  0  0  3  0  0  0  0  0  0
  190.2910  173.1180  135.1100 C   0  0  0  0  0  2  0  0  0  0  0  0
  190.2800  170.7920  136.1280 C   0  0  0  0  0  0  0  0  0  0  0  0
  191.1020  170.2810  135.0740 N   0  0  0  0  0  2  0  0  0  0  0  0
  189.9130  170.0410  137.0720 O   0  0  0  0  0  0  0  0  0  0  0  0
  191.5660  168.9050  135.0620 C   0  0  0  0  0  1  0  0  0  0  0  0
  189.8650  172.1600  136.1220 N   0  0  0  0  0  2  0  0  0  0  0  0
  194.2320  175.7260  146.1580 C   0  0  0  0  0  2  0  0  0  0  0  0
  194.8030  176.9960  145.5260 C   0  0  0  0  0  2  0  0  0  0  0  0
  195.4700  176.7030  144.1960 C   0  0  0  0  0  1  0  0  0  0  0  0
  1 44  2  0  0  0  0
  2 31  1  1  0  0  0
  2 33  1  0  0  0  0
  4 39  1  1  0  0  0
  4 43  1  0  0  0  0
  4 24  1  0  0  0  0
  5 45  1  6  0  0  0
  5 12  1  0  0  0  0
  6  3  1  1  0  0  0
  6 29  1  0  0  0  0
  6  8  1  0  0  0  0
  7 13  1  0  0  0  0
  7 28  1  0  0  0  0
  8 37  1  6  0  0  0
  9 10  1  6  0  0  0
  9 25  1  0  0  0  0
 10 36  1  0  0  0  0
 12 18  1  0  0  0  0
 12 22  1  1  0  0  0
 17 20  1  0  0  0  0
 18 42  1  1  0  0  0
 18 41  1  0  0  0  0
 19 37  1  0  0  0  0
 19 36  1  0  0  0  0
 24 11  1  6  0  0  0
 24 22  1  0  0  0  0
 25 40  1  0  0  0  0
 25 61  1  1  0  0  0
 26 44  1  6  0  0  0
 26 27  1  0  0  0  0
 27 30  1  0  0  0  0
 27 40  1  1  0  0  0
 29 14  1  6  0  0  0
 29  8  1  0  0  0  0
 30 34  1  0  0  0  0
 30 15  1  1  0  0  0
 31 17  1  0  0  0  0
 32 16  1  6  0  0  0
 32  2  1  0  0  0  0
 32 26  1  0  0  0  0
 33 23  1  1  0  0  0
 33 20  1  0  0  0  0
 34 33  1  0  0  0  0
 34 15  1  1  0  0  0
 35  7  1  0  0  0  0
 36 21  2  0  0  0  0
 38  7  1  0  0  0  0
 38  5  1  0  0  0  0
 41 13  1  6  0  0  0
 41 16  1  0  0  0  0
 43 39  1  1  0  0  0
 43  3  1  0  0  0  0
 44  9  1  0  0  0  0
 45 46  1  6  0  0  0
 47 49  1  1  0  0  0
 47 45  1  0  0  0  0
 48 49  1  0  0  0  0
 51 50  1  1  0  0  0
 51 52  1  0  0  0  0
 51 47  1  0  0  0  0
 54 53  1  6  0  0  0
 54 52  1  0  0  0  0
 55 54  1  0  0  0  0
 55 60  1  0  0  0  0
 56 58  2  0  0  0  0
 57 56  1  0  0  0  0
 59 57  1  0  0  0  0
 60 56  1  0  0  0  0
 62 61  1  0  0  0  0
 63 62  1  0  0  0  0
M  END
>  <MODEL>
9

>  <REMARK>
 VINA RESULT:      -5.7      3.211      7.874
  Name = 
  10 active torsions:
  status: ('A' for Active; 'I' for Inactive)
    1  A    between atoms: C_2  and  C_6
    2  A    between atoms: C_2  and  C_63
    3  A    between atoms: C_12  and  C_19
    4  A    between atoms: C_12  and  C_35
    5  A    between atoms: C_18  and  C_49
    6  A    between atoms: C_18  and  N_56
    7  A    between atoms: C_25  and  C_63
    8  A    between atoms: C_49  and  C_51
    9  A    between atoms: C_51  and  C_54
   10  A    between atoms: C_54  and  C_63
                            x       y       z     vdW  Elec       q    Type
                         _______ _______ _______ _____ _____    ______ ____

>  <TORSDO>
F 10

$$$$
