=
 OpenBabel11062418473D

 43 49  0  0  1  0  0  0  0  0999 V2000
  189.4990  177.4070  144.9740 C   0  0  0  0  0  2  0  0  0  0  0  0
  189.3070  176.9920  142.5290 C   0  0  1  0  0  3  0  0  0  0  0  0
  190.3710  172.3170  141.2940 C   0  0  0  0  0  0  0  0  0  0  0  0
  192.7760  171.5200  140.3550 S   0  0  0  0  0  0  0  0  0  0  0  0
  189.6170  175.9340  145.3340 C   0  0  1  0  0  3  0  0  0  0  0  0
  188.9880  175.7020  146.6940 C   0  0  0  0  0  1  0  0  0  0  0  0
  188.0530  174.8730  141.9030 C   0  0  0  0  0  2  0  0  0  0  0  0
  192.5360  171.3340  138.6030 C   0  0  0  0  0  0  0  0  0  0  0  0
  191.2700  171.0900  138.1920 C   0  0  0  0  0  0  0  0  0  0  0  0
  189.5190  174.5490  141.6890 C   0  0  2  0  0  3  0  0  0  0  0  0
  191.1040  171.6170  136.9630 N   0  0  0  0  0  0  0  0  0  0  0  0
  189.7660  173.1310  142.1130 C   0  0  0  0  0  0  0  0  0  0  0  0
  192.2750  172.1490  136.6250 N   0  0  0  0  0  0  0  0  0  0  0  0
  190.2420  171.0160  139.2520 C   0  0  0  0  0  2  0  0  0  0  0  0
  189.3010  172.6220  143.4350 C   0  0  0  0  0  2  0  0  0  0  0  0
  189.7000  173.6220  144.4980 C   0  0  0  0  0  2  0  0  0  0  0  0
  190.9720  171.5040  140.4710 C   0  0  0  0  0  0  0  0  0  0  0  0
  193.1450  172.0070  137.6130 N   0  0  0  0  0  0  0  0  0  0  0  0
  190.1440  177.6500  143.6180 C   0  0  0  0  0  2  0  0  0  0  0  0
  189.0970  175.4930  142.8230 C   0  0  1  0  0  0  0  0  0  0  0  0
  189.0070  174.9750  144.2950 C   0  0  2  0  0  3  0  0  0  0  0  0
  187.8280  178.1160  141.0140 O   0  0  0  0  0  1  0  0  0  0  0  0
  187.9890  177.7470  142.3500 C   0  0  0  0  0  2  0  0  0  0  0  0
  194.4220  172.6980  137.6830 C   0  0  0  0  0  2  0  0  0  0  0  0
  194.2480  173.9620  138.2830 O   0  0  0  0  0  0  0  0  0  0  0  0
  195.9330  173.3640  139.9940 C   0  0  2  0  0  3  0  0  0  0  0  0
  196.4030  175.8150  140.8360 C   0  0  1  0  0  3  0  0  0  0  0  0
  195.8210  174.4290  141.0780 C   0  0  1  0  0  0  0  0  0  0  0  0
  197.6780  172.9710  139.6620 S   0  0  0  0  0  1  0  0  0  0  0  0
  195.4220  174.3710  138.9770 C   0  0  2  0  0  3  0  0  0  0  0  0
  195.1670  175.3920  140.0830 C   0  0  2  0  0  3  0  0  0  0  0  0
  196.4100  173.2790  143.6210 O   0  0  0  0  0  0  0  0  0  0  0  0
  194.8550  174.2130  142.1470 N   0  0  0  0  0  2  0  0  0  0  0  0
  195.2130  173.5970  143.3850 C   0  0  0  0  0  0  0  0  0  0  0  0
  194.1540  173.2760  144.3800 C   0  0  0  0  0  2  0  0  0  0  0  0
  195.0510  175.1990  146.0870 O   0  0  0  0  0  1  0  0  0  0  0  0
  193.7870  174.7410  145.3900 P   0  0  0  0  0  0  0  0  0  0  0  0
  193.2140  175.9780  144.3900 O   0  0  0  0  0  0  0  0  0  0  0  0
  192.6080  174.3560  146.5390 O   0  0  0  0  0  1  0  0  0  0  0  0
  196.0390  176.7010  141.8860 O   0  0  0  0  0  0  0  0  0  0  0  0
  196.3130  177.4890  144.1590 O   0  0  0  0  0  1  0  0  0  0  0  0
  196.8000  176.8050  143.0480 C   0  0  0  0  0  0  0  0  0  0  0  0
  197.9400  176.2730  143.0950 O   0  0  0  0  0  0  0  0  0  0  0  0
  1  5  1  0  0  0  0
  2 23  1  1  0  0  0
  2 20  1  0  0  0  0
  2 19  1  0  0  0  0
  3 12  2  0  0  0  0
  4 17  1  0  0  0  0
  5  6  1  1  0  0  0
  8  4  1  0  0  0  0
  9  8  2  0  0  0  0
  9 14  1  0  0  0  0
 10  7  1  6  0  0  0
 10 12  1  0  0  0  0
 10 20  1  0  0  0  0
 11  9  1  0  0  0  0
 12 15  1  0  0  0  0
 13 11  2  0  0  0  0
 13 18  1  0  0  0  0
 14 17  1  0  0  0  0
 15 16  1  0  0  0  0
 17  3  2  0  0  0  0
 18 24  1  0  0  0  0
 18  8  1  0  0  0  0
 19  1  1  0  0  0  0
 20  7  1  6  0  0  0
 20 21  1  0  0  0  0
 21 16  1  6  0  0  0
 21  5  1  0  0  0  0
 22 23  1  0  0  0  0
 24 25  1  0  0  0  0
 26 29  1  6  0  0  0
 26 28  1  0  0  0  0
 27 28  1  0  0  0  0
 27 40  1  1  0  0  0
 28 33  1  1  0  0  0
 30 25  1  1  0  0  0
 30 26  1  0  0  0  0
 30 31  1  0  0  0  0
 31 27  1  0  0  0  0
 31 28  1  0  0  0  0
 33 34  1  0  0  0  0
 34 32  2  0  0  0  0
 34 35  1  0  0  0  0
 35 37  1  0  0  0  0
 37 36  1  0  0  0  0
 37 39  1  0  0  0  0
 38 37  2  0  0  0  0
 40 42  1  0  0  0  0
 42 43  2  0  0  0  0
 42 41  1  0  0  0  0
M  END
>  <MODEL>
1

>  <REMARK>
 VINA RESULT:      -6.3      0.000      0.000
  Name = 
  9 active torsions:
  status: ('A' for Active; 'I' for Inactive)
    1  A    between atoms: C_4  and  C_28
    2  A    between atoms: C_8  and  O_42
    3  A    between atoms: P_15  and  C_34
    4  A    between atoms: C_18  and  O_42
    5  A    between atoms: N_21  and  C_23
    6  A    between atoms: C_29  and  N_33
    7  A    between atoms: C_29  and  O_38
    8  A    between atoms: C_32  and  C_34
    9  A    between atoms: C_35  and  O_38
                            x       y       z     vdW  Elec       q    Type
                         _______ _______ _______ _____ _____    ______ ____

>  <TORSDO>
F 9

$$$$
=
 OpenBabel11062418473D

 43 49  0  0  1  0  0  0  0  0999 V2000
  189.5700  171.2050  138.6260 C   0  0  0  0  0  2  0  0  0  0  0  0
  190.9260  173.2620  138.9710 C   0  0  1  0  0  3  0  0  0  0  0  0
  194.4410  172.6800  142.4100 C   0  0  0  0  0  0  0  0  0  0  0  0
  194.1780  173.4760  144.9780 S   0  0  0  0  0  0  0  0  0  0  0  0
  190.5010  170.3140  139.4340 C   0  0  1  0  0  3  0  0  0  0  0  0
  190.4800  168.9140  138.8510 C   0  0  0  0  0  1  0  0  0  0  0  0
  193.4370  172.8800  139.0580 C   0  0  0  0  0  2  0  0  0  0  0  0
  195.1170  174.9830  145.0810 C   0  0  0  0  0  0  0  0  0  0  0  0
  196.1130  175.1340  144.1760 C   0  0  0  0  0  0  0  0  0  0  0  0
  193.0150  173.1010  140.4980 C   0  0  2  0  0  3  0  0  0  0  0  0
  196.2650  176.4470  143.9160 N   0  0  0  0  0  0  0  0  0  0  0  0
  193.8130  172.1860  141.3800 C   0  0  0  0  0  0  0  0  0  0  0  0
  195.3860  177.0840  144.6830 N   0  0  0  0  0  0  0  0  0  0  0  0
  196.2900  174.0290  143.2100 C   0  0  0  0  0  2  0  0  0  0  0  0
  193.9340  170.7290  141.0830 C   0  0  0  0  0  2  0  0  0  0  0  0
  192.5540  170.1870  140.7840 C   0  0  0  0  0  2  0  0  0  0  0  0
  195.0720  173.1780  143.4350 C   0  0  0  0  0  0  0  0  0  0  0  0
  194.6680  176.2130  145.3770 N   0  0  0  0  0  0  0  0  0  0  0  0
  189.5730  172.6070  139.2170 C   0  0  0  0  0  2  0  0  0  0  0  0
  192.0710  172.3870  139.5200 C   0  0  1  0  0  0  0  0  0  0  0  0
  191.9500  170.8280  139.5290 C   0  0  2  0  0  3  0  0  0  0  0  0
  189.9320  174.1860  136.9940 O   0  0  0  0  0  1  0  0  0  0  0  0
  191.0930  173.5840  137.4850 C   0  0  0  0  0  2  0  0  0  0  0  0
  193.4560  176.5490  146.1040 C   0  0  0  0  0  2  0  0  0  0  0  0
  192.3740  176.6560  145.2050 O   0  0  0  0  0  0  0  0  0  0  0  0
  190.4000  175.2310  144.7610 C   0  0  2  0  0  3  0  0  0  0  0  0
  188.7650  176.4340  146.4390 C   0  0  1  0  0  3  0  0  0  0  0  0
  189.1840  176.1150  145.0100 C   0  0  1  0  0  0  0  0  0  0  0  0
  190.1290  173.5650  145.4380 S   0  0  0  0  0  1  0  0  0  0  0  0
  191.1930  176.0740  145.7460 C   0  0  2  0  0  3  0  0  0  0  0  0
  190.0270  177.0490  145.8850 C   0  0  2  0  0  3  0  0  0  0  0  0
  187.9300  175.0850  142.6660 O   0  0  0  0  0  0  0  0  0  0  0  0
  188.6870  176.9190  143.9010 N   0  0  0  0  0  2  0  0  0  0  0  0
  188.1000  176.3320  142.7390 C   0  0  0  0  0  0  0  0  0  0  0  0
  187.7420  177.1960  141.5810 C   0  0  0  0  0  2  0  0  0  0  0  0
  185.2170  177.0070  142.5860 O   0  0  0  0  0  1  0  0  0  0  0  0
  186.1290  177.9820  141.8710 P   0  0  0  0  0  0  0  0  0  0  0  0
  186.3430  179.3600  142.8260 O   0  0  0  0  0  1  0  0  0  0  0  0
  185.4430  178.4260  140.3910 O   0  0  0  0  0  0  0  0  0  0  0  0
  187.7300  177.4070  146.4520 O   0  0  0  0  0  0  0  0  0  0  0  0
  185.9620  177.1250  148.0820 O   0  0  0  0  0  1  0  0  0  0  0  0
  186.4160  177.0680  146.7660 C   0  0  0  0  0  0  0  0  0  0  0  0
  185.6300  176.7070  145.8520 O   0  0  0  0  0  0  0  0  0  0  0  0
  1 19  1  0  0  0  0
  1  5  1  0  0  0  0
  2 23  1  6  0  0  0
  2 19  1  0  0  0  0
  2 20  1  0  0  0  0
  3 17  2  0  0  0  0
  4  8  1  0  0  0  0
  5  6  1  6  0  0  0
  5 21  1  0  0  0  0
  8 18  1  0  0  0  0
  9  8  2  0  0  0  0
 10  7  1  6  0  0  0
 10 12  1  0  0  0  0
 11  9  1  0  0  0  0
 11 13  2  0  0  0  0
 12  3  2  0  0  0  0
 13 18  1  0  0  0  0
 14 17  1  0  0  0  0
 14  9  1  0  0  0  0
 15 12  1  0  0  0  0
 16 15  1  0  0  0  0
 17  4  1  0  0  0  0
 18 24  1  0  0  0  0
 20  7  1  6  0  0  0
 20 21  1  0  0  0  0
 20 10  1  0  0  0  0
 21 16  1  1  0  0  0
 22 23  1  0  0  0  0
 25 24  1  0  0  0  0
 26 28  1  0  0  0  0
 26 29  1  1  0  0  0
 26 30  1  0  0  0  0
 27 40  1  6  0  0  0
 28 33  1  6  0  0  0
 28 31  1  0  0  0  0
 28 27  1  0  0  0  0
 30 25  1  6  0  0  0
 30 31  1  0  0  0  0
 31 27  1  0  0  0  0
 32 34  2  0  0  0  0
 34 33  1  0  0  0  0
 35 37  1  0  0  0  0
 35 34  1  0  0  0  0
 37 36  1  0  0  0  0
 37 38  1  0  0  0  0
 39 37  2  0  0  0  0
 40 42  1  0  0  0  0
 42 41  1  0  0  0  0
 43 42  2  0  0  0  0
M  END
>  <MODEL>
2

>  <REMARK>
 VINA RESULT:      -6.3      3.901      8.156
  Name = 
  9 active torsions:
  status: ('A' for Active; 'I' for Inactive)
    1  A    between atoms: C_4  and  C_28
    2  A    between atoms: C_8  and  O_42
    3  A    between atoms: P_15  and  C_34
    4  A    between atoms: C_18  and  O_42
    5  A    between atoms: N_21  and  C_23
    6  A    between atoms: C_29  and  N_33
    7  A    between atoms: C_29  and  O_38
    8  A    between atoms: C_32  and  C_34
    9  A    between atoms: C_35  and  O_38
                            x       y       z     vdW  Elec       q    Type
                         _______ _______ _______ _____ _____    ______ ____

>  <TORSDO>
F 9

$$$$
=
 OpenBabel11062418473D

 43 49  0  0  1  0  0  0  0  0999 V2000
  189.6490  176.7230  144.4350 C   0  0  0  0  0  2  0  0  0  0  0  0
  190.4300  174.8320  145.8510 C   0  0  1  0  0  3  0  0  0  0  0  0
  195.2060  173.7440  145.1230 C   0  0  0  0  0  0  0  0  0  0  0  0
  196.0650  171.7490  143.5160 S   0  0  0  0  0  0  0  0  0  0  0  0
  191.0480  177.1220  143.9900 C   0  0  1  0  0  3  0  0  0  0  0  0
  191.0930  178.6220  143.7740 C   0  0  0  0  0  1  0  0  0  0  0  0
  192.6550  175.2220  147.0170 C   0  0  0  0  0  2  0  0  0  0  0  0
  196.5170  170.4370  144.6290 C   0  0  0  0  0  0  0  0  0  0  0  0
  196.8560  170.8060  145.8860 C   0  0  0  0  0  0  0  0  0  0  0  0
  192.9650  174.2870  145.8640 C   0  0  2  0  0  3  0  0  0  0  0  0
  196.5230  169.8120  146.7330 N   0  0  0  0  0  0  0  0  0  0  0  0
  194.2960  174.6640  145.2830 C   0  0  0  0  0  0  0  0  0  0  0  0
  196.0150  168.8390  145.9830 N   0  0  0  0  0  0  0  0  0  0  0  0
  196.8000  172.2540  146.1800 C   0  0  0  0  0  2  0  0  0  0  0  0
  194.6140  176.0740  144.9190 C   0  0  0  0  0  2  0  0  0  0  0  0
  193.4560  176.6350  144.1240 C   0  0  0  0  0  2  0  0  0  0  0  0
  196.1150  172.8220  144.9700 C   0  0  0  0  0  0  0  0  0  0  0  0
  195.9820  169.2090  144.7120 N   0  0  0  0  0  0  0  0  0  0  0  0
  189.5930  175.2160  144.6380 C   0  0  0  0  0  2  0  0  0  0  0  0
  191.8740  175.3570  145.7150 C   0  0  1  0  0  0  0  0  0  0  0  0
  192.1690  176.6910  144.9550 C   0  0  2  0  0  3  0  0  0  0  0  0
  188.8790  174.3280  147.6090 O   0  0  0  0  0  1  0  0  0  0  0  0
  189.7490  175.3120  147.1330 C   0  0  0  0  0  2  0  0  0  0  0  0
  195.2530  168.5010  143.6730 C   0  0  0  0  0  2  0  0  0  0  0  0
  193.8670  168.5880  143.9190 O   0  0  0  0  0  0  0  0  0  0  0  0
  193.8880  169.4430  141.5980 C   0  0  2  0  0  3  0  0  0  0  0  0
  191.3200  170.0080  141.4530 C   0  0  1  0  0  3  0  0  0  0  0  0
  192.7680  170.4730  141.5230 C   0  0  1  0  0  0  0  0  0  0  0  0
  193.9110  168.4160  140.0960 S   0  0  0  0  0  1  0  0  0  0  0  0
  193.1350  168.7300  142.7080 C   0  0  2  0  0  3  0  0  0  0  0  0
  192.0870  169.8390  142.7400 C   0  0  2  0  0  3  0  0  0  0  0  0
  193.2180  172.6050  139.6830 O   0  0  0  0  0  0  0  0  0  0  0  0
  193.0820  171.8480  141.8900 N   0  0  0  0  0  2  0  0  0  0  0  0
  193.3310  172.8590  140.9130 C   0  0  0  0  0  0  0  0  0  0  0  0
  193.7860  174.2070  141.3500 C   0  0  0  0  0  2  0  0  0  0  0  0
  195.3700  175.4520  139.5170 O   0  0  0  0  0  0  0  0  0  0  0  0
  195.4580  174.5320  140.7160 P   0  0  0  0  0  0  0  0  0  0  0  0
  196.3790  175.2690  141.9270 O   0  0  0  0  0  1  0  0  0  0  0  0
  196.1850  173.0740  140.2660 O   0  0  0  0  0  1  0  0  0  0  0  0
  190.4330  171.1130  141.5710 O   0  0  0  0  0  0  0  0  0  0  0  0
  190.2350  171.3290  139.1670 O   0  0  0  0  0  0  0  0  0  0  0  0
  189.8360  171.6890  140.4520 C   0  0  0  0  0  0  0  0  0  0  0  0
  188.9240  172.5440  140.6040 O   0  0  0  0  0  1  0  0  0  0  0  0
  1 19  1  0  0  0  0
  2 23  1  1  0  0  0
  3 12  2  0  0  0  0
  4  8  1  0  0  0  0
  4 17  1  0  0  0  0
  5  6  1  1  0  0  0
  5  1  1  0  0  0  0
  5 21  1  0  0  0  0
  8 18  1  0  0  0  0
  8  9  2  0  0  0  0
  9 14  1  0  0  0  0
  9 11  1  0  0  0  0
 10  7  1  1  0  0  0
 12 10  1  0  0  0  0
 13 11  2  0  0  0  0
 15 12  1  0  0  0  0
 16 15  1  0  0  0  0
 17  3  2  0  0  0  0
 17 14  1  0  0  0  0
 18 13  1  0  0  0  0
 19  2  1  0  0  0  0
 20  2  1  0  0  0  0
 20 10  1  0  0  0  0
 20  7  1  1  0  0  0
 21 16  1  6  0  0  0
 21 20  1  0  0  0  0
 23 22  1  0  0  0  0
 24 25  1  0  0  0  0
 24 18  1  0  0  0  0
 26 29  1  6  0  0  0
 26 30  1  0  0  0  0
 27 28  1  0  0  0  0
 27 40  1  1  0  0  0
 27 31  1  0  0  0  0
 28 26  1  0  0  0  0
 28 33  1  6  0  0  0
 28 31  1  0  0  0  0
 30 31  1  0  0  0  0
 30 25  1  1  0  0  0
 32 34  2  0  0  0  0
 34 35  1  0  0  0  0
 34 33  1  0  0  0  0
 36 37  2  0  0  0  0
 37 35  1  0  0  0  0
 37 38  1  0  0  0  0
 39 37  1  0  0  0  0
 41 42  2  0  0  0  0
 42 43  1  0  0  0  0
 42 40  1  0  0  0  0
M  END
>  <MODEL>
3

>  <REMARK>
 VINA RESULT:      -6.2      3.515      6.638
  Name = 
  9 active torsions:
  status: ('A' for Active; 'I' for Inactive)
    1  A    between atoms: C_4  and  C_28
    2  A    between atoms: C_8  and  O_42
    3  A    between atoms: P_15  and  C_34
    4  A    between atoms: C_18  and  O_42
    5  A    between atoms: N_21  and  C_23
    6  A    between atoms: C_29  and  N_33
    7  A    between atoms: C_29  and  O_38
    8  A    between atoms: C_32  and  C_34
    9  A    between atoms: C_35  and  O_38
                            x       y       z     vdW  Elec       q    Type
                         _______ _______ _______ _____ _____    ______ ____

>  <TORSDO>
F 9

$$$$
=
 OpenBabel11062418473D

 43 49  0  0  1  0  0  0  0  0999 V2000
  190.3600  170.7820  138.5020 C   0  0  0  0  0  2  0  0  0  0  0  0
  190.9490  173.0610  139.3080 C   0  0  1  0  0  3  0  0  0  0  0  0
  194.6080  173.0220  142.6440 C   0  0  0  0  0  0  0  0  0  0  0  0
  194.2080  173.1320  145.3140 S   0  0  0  0  0  0  0  0  0  0  0  0
  191.5750  170.1180  139.1300 C   0  0  1  0  0  3  0  0  0  0  0  0
  192.0060  168.9480  138.2660 C   0  0  0  0  0  1  0  0  0  0  0  0
  193.4410  173.5540  139.3830 C   0  0  0  0  0  2  0  0  0  0  0  0
  194.5810  174.8130  145.7570 C   0  0  0  0  0  0  0  0  0  0  0  0
  195.4230  175.4790  144.9320 C   0  0  0  0  0  0  0  0  0  0  0  0
  193.0360  173.3140  140.8250 C   0  0  2  0  0  3  0  0  0  0  0  0
  195.1070  176.7890  144.9580 N   0  0  0  0  0  0  0  0  0  0  0  0
  194.1380  172.5670  141.5170 C   0  0  0  0  0  0  0  0  0  0  0  0
  194.1000  176.9130  145.8170 N   0  0  0  0  0  0  0  0  0  0  0  0
  195.9210  174.7270  143.7610 C   0  0  0  0  0  2  0  0  0  0  0  0
  194.7340  171.3350  140.9240 C   0  0  0  0  0  2  0  0  0  0  0  0
  193.6090  170.4270  140.4800 C   0  0  0  0  0  2  0  0  0  0  0  0
  195.0780  173.4840  143.7690 C   0  0  0  0  0  0  0  0  0  0  0  0
  193.7540  175.7260  146.2920 N   0  0  0  0  0  0  0  0  0  0  0  0
  189.9130  171.9470  139.3730 C   0  0  0  0  0  2  0  0  0  0  0  0
  192.3480  172.5390  139.6930 C   0  0  1  0  0  0  0  0  0  0  0  0
  192.7650  171.0670  139.3710 C   0  0  2  0  0  3  0  0  0  0  0  0
  189.6160  174.0490  137.5770 O   0  0  0  0  0  1  0  0  0  0  0  0
  190.9270  173.7200  137.9280 C   0  0  0  0  0  2  0  0  0  0  0  0
  192.5350  175.4680  147.0390 C   0  0  0  0  0  2  0  0  0  0  0  0
  191.5210  176.3520  146.6180 O   0  0  0  0  0  0  0  0  0  0  0  0
  190.3620  177.2880  144.6420 C   0  0  2  0  0  3  0  0  0  0  0  0
  189.8870  174.9920  143.4440 C   0  0  1  0  0  3  0  0  0  0  0  0
  189.3770  176.2170  144.1900 C   0  0  1  0  0  0  0  0  0  0  0  0
  191.1770  178.0530  143.2060 S   0  0  0  0  0  1  0  0  0  0  0  0
  191.2480  176.2020  145.2290 C   0  0  2  0  0  3  0  0  0  0  0  0
  190.1960  175.1420  144.9130 C   0  0  2  0  0  3  0  0  0  0  0  0
  187.0210  177.3010  143.0060 O   0  0  0  0  0  0  0  0  0  0  0  0
  188.0530  176.2110  144.7970 N   0  0  0  0  0  2  0  0  0  0  0  0
  186.9210  176.8050  144.1610 C   0  0  0  0  0  0  0  0  0  0  0  0
  185.6280  176.8920  144.8920 C   0  0  0  0  0  2  0  0  0  0  0  0
  186.7480  178.3110  146.9290 O   0  0  0  0  0  1  0  0  0  0  0  0
  185.6060  178.3780  145.9370 P   0  0  0  0  0  0  0  0  0  0  0  0
  185.7840  179.7480  144.9630 O   0  0  0  0  0  0  0  0  0  0  0  0
  184.1340  178.4660  146.7650 O   0  0  0  0  0  1  0  0  0  0  0  0
  188.8450  174.0400  143.2740 O   0  0  0  0  0  0  0  0  0  0  0  0
  187.4400  172.7330  141.7980 O   0  0  0  0  0  1  0  0  0  0  0  0
  188.2120  173.8660  142.0450 C   0  0  0  0  0  0  0  0  0  0  0  0
  188.3390  174.7410  141.1500 O   0  0  0  0  0  0  0  0  0  0  0  0
  1  5  1  0  0  0  0
  1 19  1  0  0  0  0
  2 23  1  6  0  0  0
  2 19  1  0  0  0  0
  2 20  1  0  0  0  0
  3 17  2  0  0  0  0
  4  8  1  0  0  0  0
  5  6  1  6  0  0  0
  5 21  1  0  0  0  0
  8 18  1  0  0  0  0
  9 11  1  0  0  0  0
  9  8  2  0  0  0  0
 10  7  1  6  0  0  0
 10 12  1  0  0  0  0
 11 13  2  0  0  0  0
 12  3  2  0  0  0  0
 13 18  1  0  0  0  0
 14 17  1  0  0  0  0
 14  9  1  0  0  0  0
 15 12  1  0  0  0  0
 16 15  1  0  0  0  0
 17  4  1  0  0  0  0
 18 24  1  0  0  0  0
 20  7  1  6  0  0  0
 20 10  1  0  0  0  0
 21 20  1  0  0  0  0
 21 16  1  1  0  0  0
 22 23  1  0  0  0  0
 25 24  1  0  0  0  0
 26 29  1  6  0  0  0
 26 30  1  0  0  0  0
 27 40  1  1  0  0  0
 27 28  1  0  0  0  0
 27 31  1  0  0  0  0
 28 26  1  0  0  0  0
 28 33  1  1  0  0  0
 28 31  1  0  0  0  0
 30 25  1  1  0  0  0
 31 30  1  0  0  0  0
 32 34  2  0  0  0  0
 34 33  1  0  0  0  0
 34 35  1  0  0  0  0
 35 37  1  0  0  0  0
 37 39  1  0  0  0  0
 37 36  1  0  0  0  0
 38 37  2  0  0  0  0
 41 42  1  0  0  0  0
 42 40  1  0  0  0  0
 43 42  2  0  0  0  0
M  END
>  <MODEL>
4

>  <REMARK>
 VINA RESULT:      -6.2      4.179      8.096
  Name = 
  9 active torsions:
  status: ('A' for Active; 'I' for Inactive)
    1  A    between atoms: C_4  and  C_28
    2  A    between atoms: C_8  and  O_42
    3  A    between atoms: P_15  and  C_34
    4  A    between atoms: C_18  and  O_42
    5  A    between atoms: N_21  and  C_23
    6  A    between atoms: C_29  and  N_33
    7  A    between atoms: C_29  and  O_38
    8  A    between atoms: C_32  and  C_34
    9  A    between atoms: C_35  and  O_38
                            x       y       z     vdW  Elec       q    Type
                         _______ _______ _______ _____ _____    ______ ____

>  <TORSDO>
F 9

$$$$
=
 OpenBabel11062418473D

 43 49  0  0  1  0  0  0  0  0999 V2000
  187.2600  176.7430  146.8790 C   0  0  0  0  0  2  0  0  0  0  0  0
  189.3110  176.3430  145.5290 C   0  0  1  0  0  3  0  0  0  0  0  0
  188.3020  174.9290  140.8920 C   0  0  0  0  0  0  0  0  0  0  0  0
  188.3130  172.3560  140.0680 S   0  0  0  0  0  0  0  0  0  0  0  0
  186.3200  176.6860  145.6840 C   0  0  1  0  0  3  0  0  0  0  0  0
  185.1470  177.6150  145.9280 C   0  0  0  0  0  1  0  0  0  0  0  0
  189.2760  177.3740  143.2060 C   0  0  0  0  0  2  0  0  0  0  0  0
  189.8500  172.1700  139.1920 C   0  0  0  0  0  0  0  0  0  0  0  0
  190.3820  173.2990  138.6670 C   0  0  0  0  0  0  0  0  0  0  0  0
  189.0290  175.8920  142.9910 C   0  0  2  0  0  3  0  0  0  0  0  0
  191.7240  173.1780  138.6540 N   0  0  0  0  0  0  0  0  0  0  0  0
  188.0280  175.7260  141.8860 C   0  0  0  0  0  0  0  0  0  0  0  0
  191.9940  171.9710  139.1400 N   0  0  0  0  0  0  0  0  0  0  0  0
  189.6230  174.5470  138.8950 C   0  0  0  0  0  2  0  0  0  0  0  0
  186.7420  176.4820  141.8820 C   0  0  0  0  0  2  0  0  0  0  0  0
  186.1150  176.3650  143.2540 C   0  0  0  0  0  2  0  0  0  0  0  0
  188.5810  174.1350  139.8960 C   0  0  0  0  0  0  0  0  0  0  0  0
  190.8750  171.3570  139.4920 N   0  0  0  0  0  0  0  0  0  0  0  0
  188.4310  175.8000  146.6470 C   0  0  0  0  0  2  0  0  0  0  0  0
  188.4880  176.5890  144.2480 C   0  0  1  0  0  0  0  0  0  0  0  0
  186.9870  177.0150  144.3350 C   0  0  2  0  0  3  0  0  0  0  0  0
  190.3990  177.4640  147.3480 O   0  0  0  0  0  1  0  0  0  0  0  0
  190.0500  177.5950  146.0020 C   0  0  0  0  0  2  0  0  0  0  0  0
  190.8240  170.1470  140.2940 C   0  0  0  0  0  2  0  0  0  0  0  0
  191.9810  170.0550  141.0950 O   0  0  0  0  0  0  0  0  0  0  0  0
  191.1930  171.9040  142.5390 C   0  0  2  0  0  3  0  0  0  0  0  0
  192.7080  171.3420  144.6180 C   0  0  1  0  0  3  0  0  0  0  0  0
  192.3660  172.2520  143.4470 C   0  0  1  0  0  0  0  0  0  0  0  0
  189.6330  171.9170  143.4760 S   0  0  0  0  0  1  0  0  0  0  0  0
  191.7230  170.4840  142.4270 C   0  0  2  0  0  3  0  0  0  0  0  0
  192.9760  170.8670  143.2110 C   0  0  2  0  0  3  0  0  0  0  0  0
  192.4450  175.0060  144.1820 O   0  0  0  0  0  0  0  0  0  0  0  0
  193.3370  173.2240  142.9610 N   0  0  0  0  0  2  0  0  0  0  0  0
  193.2950  174.5990  143.3450 C   0  0  0  0  0  0  0  0  0  0  0  0
  194.2260  175.5690  142.7060 C   0  0  0  0  0  2  0  0  0  0  0  0
  196.6130  176.8050  143.1430 O   0  0  0  0  0  0  0  0  0  0  0  0
  195.5380  176.0300  143.8750 P   0  0  0  0  0  0  0  0  0  0  0  0
  194.8820  176.9930  145.1000 O   0  0  0  0  0  1  0  0  0  0  0  0
  196.2050  174.6330  144.5570 O   0  0  0  0  0  1  0  0  0  0  0  0
  193.9300  171.7430  145.2230 O   0  0  0  0  0  0  0  0  0  0  0  0
  196.1500  170.8470  144.8600 O   0  0  0  0  0  0  0  0  0  0  0  0
  194.9290  170.8200  145.5290 C   0  0  0  0  0  0  0  0  0  0  0  0
  194.7250  169.9560  146.4200 O   0  0  0  0  0  1  0  0  0  0  0  0
  2 23  1  1  0  0  0
  2 19  1  0  0  0  0
  3 12  2  0  0  0  0
  5  6  1  1  0  0  0
  5  1  1  0  0  0  0
  8 18  1  0  0  0  0
  8  4  1  0  0  0  0
  9 14  1  0  0  0  0
  9  8  2  0  0  0  0
 10  7  1  6  0  0  0
 10 20  1  0  0  0  0
 11  9  1  0  0  0  0
 11 13  2  0  0  0  0
 12 10  1  0  0  0  0
 13 18  1  0  0  0  0
 14 17  1  0  0  0  0
 15 12  1  0  0  0  0
 15 16  1  0  0  0  0
 17  4  1  0  0  0  0
 17  3  2  0  0  0  0
 18 24  1  0  0  0  0
 19  1  1  0  0  0  0
 20  7  1  6  0  0  0
 20 21  1  0  0  0  0
 20  2  1  0  0  0  0
 21 16  1  6  0  0  0
 21  5  1  0  0  0  0
 23 22  1  0  0  0  0
 24 25  1  0  0  0  0
 26 28  1  0  0  0  0
 26 29  1  1  0  0  0
 27 40  1  1  0  0  0
 28 33  1  6  0  0  0
 28 27  1  0  0  0  0
 30 25  1  6  0  0  0
 30 26  1  0  0  0  0
 30 31  1  0  0  0  0
 31 28  1  0  0  0  0
 31 27  1  0  0  0  0
 33 34  1  0  0  0  0
 34 32  2  0  0  0  0
 35 34  1  0  0  0  0
 35 37  1  0  0  0  0
 36 37  2  0  0  0  0
 37 39  1  0  0  0  0
 37 38  1  0  0  0  0
 40 42  1  0  0  0  0
 41 42  2  0  0  0  0
 42 43  1  0  0  0  0
M  END
>  <MODEL>
5

>  <REMARK>
 VINA RESULT:      -6.2      2.850      4.536
  Name = 
  9 active torsions:
  status: ('A' for Active; 'I' for Inactive)
    1  A    between atoms: C_4  and  C_28
    2  A    between atoms: C_8  and  O_42
    3  A    between atoms: P_15  and  C_34
    4  A    between atoms: C_18  and  O_42
    5  A    between atoms: N_21  and  C_23
    6  A    between atoms: C_29  and  N_33
    7  A    between atoms: C_29  and  O_38
    8  A    between atoms: C_32  and  C_34
    9  A    between atoms: C_35  and  O_38
                            x       y       z     vdW  Elec       q    Type
                         _______ _______ _______ _____ _____    ______ ____

>  <TORSDO>
F 9

$$$$
=
 OpenBabel11062418473D

 43 49  0  0  1  0  0  0  0  0999 V2000
  197.3030  173.7280  143.8650 C   0  0  0  0  0  2  0  0  0  0  0  0
  195.7000  175.0990  142.5460 C   0  0  1  0  0  3  0  0  0  0  0  0
  191.0280  174.6110  144.1130 C   0  0  0  0  0  0  0  0  0  0  0  0
  189.2200  172.9670  142.9600 S   0  0  0  0  0  0  0  0  0  0  0  0
  196.2980  173.3880  144.9540 C   0  0  1  0  0  3  0  0  0  0  0  0
  197.0270  173.2450  146.2770 C   0  0  0  0  0  1  0  0  0  0  0  0
  194.0280  176.4140  143.9360 C   0  0  0  0  0  2  0  0  0  0  0  0
  188.1880  174.0420  141.9890 C   0  0  0  0  0  0  0  0  0  0  0  0
  188.1220  175.3340  142.3890 C   0  0  0  0  0  0  0  0  0  0  0  0
  193.2480  175.2390  143.3760 C   0  0  2  0  0  3  0  0  0  0  0  0
  187.9190  176.1110  141.3070 N   0  0  0  0  0  0  0  0  0  0  0  0
  192.2860  174.7580  144.4220 C   0  0  0  0  0  0  0  0  0  0  0  0
  187.8320  175.2880  140.2670 N   0  0  0  0  0  0  0  0  0  0  0  0
  188.9240  175.6920  143.5780 C   0  0  0  0  0  2  0  0  0  0  0  0
  192.7290  174.4810  145.8190 C   0  0  0  0  0  2  0  0  0  0  0  0
  193.9890  173.6440  145.7620 C   0  0  0  0  0  2  0  0  0  0  0  0
  189.7700  174.4700  143.8000 C   0  0  0  0  0  0  0  0  0  0  0  0
  188.0150  174.0350  140.6580 N   0  0  0  0  0  0  0  0  0  0  0  0
  196.5810  173.8570  142.5320 C   0  0  0  0  0  2  0  0  0  0  0  0
  194.7300  175.0760  143.7440 C   0  0  1  0  0  0  0  0  0  0  0  0
  195.1430  174.3980  145.0910 C   0  0  2  0  0  3  0  0  0  0  0  0
  196.4090  177.0180  141.2950 O   0  0  0  0  0  1  0  0  0  0  0  0
  196.5670  176.3590  142.5160 C   0  0  0  0  0  2  0  0  0  0  0  0
  188.2470  172.9230  139.7530 C   0  0  0  0  0  2  0  0  0  0  0  0
  188.1980  173.3750  138.4180 O   0  0  0  0  0  0  0  0  0  0  0  0
  190.0150  171.7090  138.1990 C   0  0  2  0  0  3  0  0  0  0  0  0
  191.8510  173.3700  137.3010 C   0  0  1  0  0  3  0  0  0  0  0  0
  191.3130  172.4790  138.4120 C   0  0  1  0  0  0  0  0  0  0  0  0
  190.1950  170.5180  136.8360 S   0  0  0  0  0  1  0  0  0  0  0  0
  189.3610  172.9850  137.6970 C   0  0  2  0  0  3  0  0  0  0  0  0
  190.6090  173.7900  138.0480 C   0  0  2  0  0  3  0  0  0  0  0  0
  193.3360  170.8780  139.6270 O   0  0  0  0  0  0  0  0  0  0  0  0
  191.7980  172.6310  139.7780 N   0  0  0  0  0  2  0  0  0  0  0  0
  192.7910  171.7690  140.3340 C   0  0  0  0  0  0  0  0  0  0  0  0
  193.1410  171.8850  141.7750 C   0  0  0  0  0  2  0  0  0  0  0  0
  193.3230  169.3710  142.8090 O   0  0  0  0  0  1  0  0  0  0  0  0
  192.3620  170.5370  142.7130 P   0  0  0  0  0  0  0  0  0  0  0  0
  191.9810  171.0850  144.2660 O   0  0  0  0  0  1  0  0  0  0  0  0
  190.9470  170.0460  141.9280 O   0  0  0  0  0  0  0  0  0  0  0  0
  192.9610  174.1290  137.7620 O   0  0  0  0  0  0  0  0  0  0  0  0
  194.7530  175.6330  137.1400 O   0  0  0  0  0  1  0  0  0  0  0  0
  193.4170  175.2470  137.0670 C   0  0  0  0  0  0  0  0  0  0  0  0
  192.6130  175.9140  136.3640 O   0  0  0  0  0  0  0  0  0  0  0  0
  1  5  1  0  0  0  0
  2 23  1  1  0  0  0
  2 20  1  0  0  0  0
  3 12  2  0  0  0  0
  4 17  1  0  0  0  0
  5 21  1  0  0  0  0
  5  6  1  1  0  0  0
  8  9  2  0  0  0  0
  8  4  1  0  0  0  0
  9 14  1  0  0  0  0
 10 20  1  0  0  0  0
 10  7  1  1  0  0  0
 10 12  1  0  0  0  0
 11  9  1  0  0  0  0
 12 15  1  0  0  0  0
 13 18  1  0  0  0  0
 13 11  2  0  0  0  0
 14 17  1  0  0  0  0
 16 15  1  0  0  0  0
 17  3  2  0  0  0  0
 18  8  1  0  0  0  0
 19  2  1  0  0  0  0
 19  1  1  0  0  0  0
 20  7  1  1  0  0  0
 20 21  1  0  0  0  0
 21 16  1  6  0  0  0
 22 23  1  0  0  0  0
 24 18  1  0  0  0  0
 25 24  1  0  0  0  0
 26 29  1  6  0  0  0
 26 28  1  0  0  0  0
 27 40  1  1  0  0  0
 27 31  1  0  0  0  0
 27 28  1  0  0  0  0
 28 33  1  1  0  0  0
 30 31  1  0  0  0  0
 30 26  1  0  0  0  0
 30 25  1  1  0  0  0
 31 28  1  0  0  0  0
 32 34  2  0  0  0  0
 33 34  1  0  0  0  0
 34 35  1  0  0  0  0
 35 37  1  0  0  0  0
 37 36  1  0  0  0  0
 37 38  1  0  0  0  0
 39 37  2  0  0  0  0
 42 41  1  0  0  0  0
 42 40  1  0  0  0  0
 43 42  2  0  0  0  0
M  END
>  <MODEL>
6

>  <REMARK>
 VINA RESULT:      -6.0      3.209      6.305
  Name = 
  9 active torsions:
  status: ('A' for Active; 'I' for Inactive)
    1  A    between atoms: C_4  and  C_28
    2  A    between atoms: C_8  and  O_42
    3  A    between atoms: P_15  and  C_34
    4  A    between atoms: C_18  and  O_42
    5  A    between atoms: N_21  and  C_23
    6  A    between atoms: C_29  and  N_33
    7  A    between atoms: C_29  and  O_38
    8  A    between atoms: C_32  and  C_34
    9  A    between atoms: C_35  and  O_38
                            x       y       z     vdW  Elec       q    Type
                         _______ _______ _______ _____ _____    ______ ____

>  <TORSDO>
F 9

$$$$
=
 OpenBabel11062418473D

 43 49  0  0  1  0  0  0  0  0999 V2000
  187.2680  176.6690  146.8850 C   0  0  0  0  0  2  0  0  0  0  0  0
  189.3160  176.2310  145.5420 C   0  0  1  0  0  3  0  0  0  0  0  0
  188.2980  174.8280  140.9040 C   0  0  0  0  0  0  0  0  0  0  0  0
  188.2670  172.2540  140.0840 S   0  0  0  0  0  0  0  0  0  0  0  0
  186.3310  176.6260  145.6870 C   0  0  1  0  0  3  0  0  0  0  0  0
  185.1740  177.5760  145.9260 C   0  0  0  0  0  1  0  0  0  0  0  0
  189.3070  177.2590  143.2180 C   0  0  0  0  0  2  0  0  0  0  0  0
  189.8030  172.0400  139.2130 C   0  0  0  0  0  0  0  0  0  0  0  0
  190.3570  173.1590  138.6880 C   0  0  0  0  0  0  0  0  0  0  0  0
  189.0350  175.7810  143.0050 C   0  0  2  0  0  3  0  0  0  0  0  0
  191.6970  173.0150  138.6800 N   0  0  0  0  0  0  0  0  0  0  0  0
  188.0350  175.6320  141.8960 C   0  0  0  0  0  0  0  0  0  0  0  0
  191.9440  171.8030  139.1690 N   0  0  0  0  0  0  0  0  0  0  0  0
  189.6190  174.4200  138.9120 C   0  0  0  0  0  2  0  0  0  0  0  0
  186.7620  176.4090  141.8860 C   0  0  0  0  0  2  0  0  0  0  0  0
  186.1290  176.3050  143.2570 C   0  0  0  0  0  2  0  0  0  0  0  0
  188.5670  174.0280  139.9110 C   0  0  0  0  0  0  0  0  0  0  0  0
  190.8130  171.2100  139.5180 N   0  0  0  0  0  0  0  0  0  0  0  0
  188.4230  175.7050  146.6580 C   0  0  0  0  0  2  0  0  0  0  0  0
  188.5020  176.4890  144.2580 C   0  0  1  0  0  0  0  0  0  0  0  0
  187.0080  176.9420  144.3400 C   0  0  2  0  0  3  0  0  0  0  0  0
  190.8070  177.1720  147.1680 O   0  0  0  0  0  1  0  0  0  0  0  0
  190.0760  177.4710  146.0160 C   0  0  0  0  0  2  0  0  0  0  0  0
  190.7380  170.0020  140.3210 C   0  0  0  0  0  2  0  0  0  0  0  0
  190.8410  170.3300  141.6890 O   0  0  0  0  0  0  0  0  0  0  0  0
  192.3020  170.1740  143.6800 C   0  0  2  0  0  3  0  0  0  0  0  0
  194.4530  171.2090  142.5680 C   0  0  1  0  0  3  0  0  0  0  0  0
  193.2990  171.3190  143.5560 C   0  0  1  0  0  0  0  0  0  0  0  0
  193.1320  168.6630  144.2610 S   0  0  0  0  0  1  0  0  0  0  0  0
  192.1690  170.1480  142.1660 C   0  0  2  0  0  3  0  0  0  0  0  0
  193.0490  171.3890  142.0460 C   0  0  2  0  0  3  0  0  0  0  0  0
  194.3770  172.4850  145.9240 O   0  0  0  0  0  0  0  0  0  0  0  0
  192.9190  172.6150  144.1020 N   0  0  0  0  0  2  0  0  0  0  0  0
  193.4750  173.1220  145.3150 C   0  0  0  0  0  0  0  0  0  0  0  0
  192.9440  174.3850  145.8960 C   0  0  0  0  0  2  0  0  0  0  0  0
  195.0920  175.3170  144.5050 O   0  0  0  0  0  1  0  0  0  0  0  0
  193.8510  175.8080  145.2200 P   0  0  0  0  0  0  0  0  0  0  0  0
  192.8600  176.6340  144.1290 O   0  0  0  0  0  0  0  0  0  0  0  0
  194.2910  176.8480  146.4780 O   0  0  0  0  0  1  0  0  0  0  0  0
  195.1540  172.4420  142.4790 O   0  0  0  0  0  0  0  0  0  0  0  0
  194.4920  174.4410  141.2850 O   0  0  0  0  0  1  0  0  0  0  0  0
  195.1360  173.2070  141.3140 C   0  0  0  0  0  0  0  0  0  0  0  0
  195.7100  172.7780  140.2800 O   0  0  0  0  0  0  0  0  0  0  0  0
  2 23  1  1  0  0  0
  2 19  1  0  0  0  0
  3 12  2  0  0  0  0
  5  6  1  1  0  0  0
  5  1  1  0  0  0  0
  8 18  1  0  0  0  0
  8  4  1  0  0  0  0
  9 14  1  0  0  0  0
  9  8  2  0  0  0  0
 10  7  1  6  0  0  0
 10 20  1  0  0  0  0
 11  9  1  0  0  0  0
 11 13  2  0  0  0  0
 12 10  1  0  0  0  0
 13 18  1  0  0  0  0
 14 17  1  0  0  0  0
 15 12  1  0  0  0  0
 15 16  1  0  0  0  0
 17  4  1  0  0  0  0
 17  3  2  0  0  0  0
 18 24  1  0  0  0  0
 19  1  1  0  0  0  0
 20  7  1  6  0  0  0
 20 21  1  0  0  0  0
 20  2  1  0  0  0  0
 21 16  1  6  0  0  0
 21  5  1  0  0  0  0
 23 22  1  0  0  0  0
 24 25  1  0  0  0  0
 26 29  1  6  0  0  0
 27 40  1  1  0  0  0
 27 28  1  0  0  0  0
 28 26  1  0  0  0  0
 28 33  1  1  0  0  0
 30 25  1  1  0  0  0
 30 26  1  0  0  0  0
 31 30  1  0  0  0  0
 31 27  1  0  0  0  0
 31 28  1  0  0  0  0
 33 34  1  0  0  0  0
 34 35  1  0  0  0  0
 34 32  2  0  0  0  0
 36 37  1  0  0  0  0
 37 35  1  0  0  0  0
 37 39  1  0  0  0  0
 38 37  2  0  0  0  0
 41 42  1  0  0  0  0
 42 40  1  0  0  0  0
 43 42  2  0  0  0  0
M  END
>  <MODEL>
7

>  <REMARK>
 VINA RESULT:      -6.0      2.691      4.046
  Name = 
  9 active torsions:
  status: ('A' for Active; 'I' for Inactive)
    1  A    between atoms: C_4  and  C_28
    2  A    between atoms: C_8  and  O_42
    3  A    between atoms: P_15  and  C_34
    4  A    between atoms: C_18  and  O_42
    5  A    between atoms: N_21  and  C_23
    6  A    between atoms: C_29  and  N_33
    7  A    between atoms: C_29  and  O_38
    8  A    between atoms: C_32  and  C_34
    9  A    between atoms: C_35  and  O_38
                            x       y       z     vdW  Elec       q    Type
                         _______ _______ _______ _____ _____    ______ ____

>  <TORSDO>
F 9

$$$$
=
 OpenBabel11062418473D

 43 49  0  0  1  0  0  0  0  0999 V2000
  187.7760  177.4360  143.2260 C   0  0  0  0  0  2  0  0  0  0  0  0
  189.0560  175.4500  142.4480 C   0  0  1  0  0  3  0  0  0  0  0  0
  192.6410  174.1320  145.5980 C   0  0  0  0  0  0  0  0  0  0  0  0
  195.2350  174.8290  145.3020 S   0  0  0  0  0  0  0  0  0  0  0  0
  188.3720  177.4200  144.6250 C   0  0  1  0  0  3  0  0  0  0  0  0
  187.3420  177.9340  145.6120 C   0  0  0  0  0  1  0  0  0  0  0  0
  189.4510  173.6750  144.2220 C   0  0  0  0  0  2  0  0  0  0  0  0
  196.0250  173.3660  144.6710 C   0  0  0  0  0  0  0  0  0  0  0  0
  195.4240  172.1880  144.9570 C   0  0  0  0  0  0  0  0  0  0  0  0
  190.7770  174.3970  144.0750 C   0  0  2  0  0  3  0  0  0  0  0  0
  195.6730  171.3210  143.9560 N   0  0  0  0  0  0  0  0  0  0  0  0
  191.4090  174.5230  145.4310 C   0  0  0  0  0  0  0  0  0  0  0  0
  196.4440  171.9670  143.0870 N   0  0  0  0  0  0  0  0  0  0  0  0
  194.1800  172.2640  145.7520 C   0  0  0  0  0  2  0  0  0  0  0  0
  190.6470  175.0510  146.5990 C   0  0  0  0  0  2  0  0  0  0  0  0
  189.9360  176.3160  146.1710 C   0  0  0  0  0  2  0  0  0  0  0  0
  193.8720  173.7350  145.7630 C   0  0  0  0  0  0  0  0  0  0  0  0
  196.6480  173.2110  143.4920 N   0  0  0  0  0  0  0  0  0  0  0  0
  188.8110  176.9370  142.2290 C   0  0  0  0  0  2  0  0  0  0  0  0
  189.4590  175.1660  143.9090 C   0  0  1  0  0  0  0  0  0  0  0  0
  188.8990  176.0430  145.0750 C   0  0  2  0  0  3  0  0  0  0  0  0
  188.2020  173.7030  141.0450 O   0  0  0  0  0  1  0  0  0  0  0  0
  187.8330  174.6450  142.0070 C   0  0  0  0  0  2  0  0  0  0  0  0
  197.2180  174.2580  142.6610 C   0  0  0  0  0  2  0  0  0  0  0  0
  197.0160  173.9500  141.2990 O   0  0  0  0  0  0  0  0  0  0  0  0
  194.6760  174.7560  141.3270 C   0  0  2  0  0  3  0  0  0  0  0  0
  194.4870  175.2460  138.7460 C   0  0  1  0  0  3  0  0  0  0  0  0
  194.1010  174.4100  139.9590 C   0  0  1  0  0  0  0  0  0  0  0  0
  194.1390  176.4150  141.8450 S   0  0  0  0  0  1  0  0  0  0  0  0
  196.0620  174.8250  140.7070 C   0  0  2  0  0  3  0  0  0  0  0  0
  195.5130  174.3340  139.3700 C   0  0  2  0  0  3  0  0  0  0  0  0
  191.3490  173.7850  140.3660 O   0  0  0  0  0  0  0  0  0  0  0  0
  193.5040  173.0930  139.7850 N   0  0  0  0  0  2  0  0  0  0  0  0
  192.1220  172.8430  140.0410 C   0  0  0  0  0  0  0  0  0  0  0  0
  191.6030  171.4490  139.9820 C   0  0  0  0  0  2  0  0  0  0  0  0
  193.3490  169.7240  141.1620 O   0  0  0  0  0  0  0  0  0  0  0  0
  192.1090  170.5360  141.4700 P   0  0  0  0  0  0  0  0  0  0  0  0
  192.4470  171.6340  142.7100 O   0  0  0  0  0  1  0  0  0  0  0  0
  190.8580  169.5080  141.9550 O   0  0  0  0  0  1  0  0  0  0  0  0
  193.9910  174.6550  137.5530 O   0  0  0  0  0  0  0  0  0  0  0  0
  192.9400  176.4150  136.2630 O   0  0  0  0  0  0  0  0  0  0  0  0
  192.8790  175.1730  136.8920 C   0  0  0  0  0  0  0  0  0  0  0  0
  191.8090  174.5110  136.8610 O   0  0  0  0  0  1  0  0  0  0  0  0
  1  5  1  0  0  0  0
  2 23  1  1  0  0  0
  2 20  1  0  0  0  0
  3 17  2  0  0  0  0
  4 17  1  0  0  0  0
  5 21  1  0  0  0  0
  5  6  1  1  0  0  0
  8  9  2  0  0  0  0
  8  4  1  0  0  0  0
  9 14  1  0  0  0  0
 10  7  1  1  0  0  0
 10 12  1  0  0  0  0
 11  9  1  0  0  0  0
 12  3  2  0  0  0  0
 12 15  1  0  0  0  0
 13 18  1  0  0  0  0
 13 11  2  0  0  0  0
 14 17  1  0  0  0  0
 16 15  1  0  0  0  0
 18  8  1  0  0  0  0
 19  2  1  0  0  0  0
 19  1  1  0  0  0  0
 20 10  1  0  0  0  0
 20  7  1  1  0  0  0
 20 21  1  0  0  0  0
 21 16  1  1  0  0  0
 22 23  1  0  0  0  0
 24 18  1  0  0  0  0
 25 24  1  0  0  0  0
 26 29  1  6  0  0  0
 27 40  1  6  0  0  0
 27 31  1  0  0  0  0
 27 28  1  0  0  0  0
 28 33  1  6  0  0  0
 28 26  1  0  0  0  0
 30 25  1  1  0  0  0
 30 26  1  0  0  0  0
 31 28  1  0  0  0  0
 31 30  1  0  0  0  0
 33 34  1  0  0  0  0
 34 32  2  0  0  0  0
 35 34  1  0  0  0  0
 35 37  1  0  0  0  0
 36 37  2  0  0  0  0
 37 39  1  0  0  0  0
 37 38  1  0  0  0  0
 41 42  2  0  0  0  0
 42 40  1  0  0  0  0
 43 42  1  0  0  0  0
M  END
>  <MODEL>
8

>  <REMARK>
 VINA RESULT:      -6.0      2.842      5.243
  Name = 
  9 active torsions:
  status: ('A' for Active; 'I' for Inactive)
    1  A    between atoms: C_4  and  C_28
    2  A    between atoms: C_8  and  O_42
    3  A    between atoms: P_15  and  C_34
    4  A    between atoms: C_18  and  O_42
    5  A    between atoms: N_21  and  C_23
    6  A    between atoms: C_29  and  N_33
    7  A    between atoms: C_29  and  O_38
    8  A    between atoms: C_32  and  C_34
    9  A    between atoms: C_35  and  O_38
                            x       y       z     vdW  Elec       q    Type
                         _______ _______ _______ _____ _____    ______ ____

>  <TORSDO>
F 9

$$$$
=
 OpenBabel11062418473D

 43 49  0  0  1  0  0  0  0  0999 V2000
  193.9830  174.7740  144.3680 C   0  0  0  0  0  2  0  0  0  0  0  0
  192.9110  176.7070  145.5100 C   0  0  1  0  0  3  0  0  0  0  0  0
  188.1990  175.8220  146.7470 C   0  0  0  0  0  0  0  0  0  0  0  0
  186.0810  176.6350  145.2790 S   0  0  0  0  0  0  0  0  0  0  0  0
  192.8570  173.8060  144.6930 C   0  0  1  0  0  3  0  0  0  0  0  0
  193.4320  172.4130  144.8680 C   0  0  0  0  0  1  0  0  0  0  0  0
  191.5860  176.1110  147.5950 C   0  0  0  0  0  2  0  0  0  0  0  0
  185.4520  178.0560  146.1440 C   0  0  0  0  0  0  0  0  0  0  0  0
  185.7230  178.1210  147.4690 C   0  0  0  0  0  0  0  0  0  0  0  0
  190.5480  176.3660  146.5200 C   0  0  2  0  0  3  0  0  0  0  0  0
  185.8130  179.4170  147.8280 N   0  0  0  0  0  0  0  0  0  0  0  0
  189.4250  175.3840  146.6920 C   0  0  0  0  0  0  0  0  0  0  0  0
  185.5660  180.1260  146.7310 N   0  0  0  0  0  0  0  0  0  0  0  0
  186.5170  177.0060  148.0300 C   0  0  0  0  0  2  0  0  0  0  0  0
  189.6850  173.9230  146.8400 C   0  0  0  0  0  2  0  0  0  0  0  0
  190.6640  173.5020  145.7650 C   0  0  0  0  0  2  0  0  0  0  0  0
  186.9740  176.2630  146.8060 C   0  0  0  0  0  0  0  0  0  0  0  0
  185.3690  179.3190  145.6990 N   0  0  0  0  0  0  0  0  0  0  0  0
  193.4110  176.1700  144.1750 C   0  0  0  0  0  2  0  0  0  0  0  0
  191.8990  175.7360  146.1520 C   0  0  1  0  0  0  0  0  0  0  0  0
  192.0220  174.1940  145.9280 C   0  0  2  0  0  3  0  0  0  0  0  0
  194.9580  177.9190  145.8080 O   0  0  0  0  0  1  0  0  0  0  0  0
  194.0940  177.0150  146.4290 C   0  0  0  0  0  2  0  0  0  0  0  0
  185.3380  179.7570  144.3140 C   0  0  0  0  0  2  0  0  0  0  0  0
  185.1300  178.6490  143.4670 O   0  0  0  0  0  0  0  0  0  0  0  0
  185.9090  177.4650  141.4390 C   0  0  2  0  0  3  0  0  0  0  0  0
  188.4220  178.2410  141.5730 C   0  0  1  0  0  3  0  0  0  0  0  0
  187.3770  177.1390  141.6850 C   0  0  1  0  0  0  0  0  0  0  0  0
  185.6580  178.0290  139.7270 S   0  0  0  0  0  1  0  0  0  0  0  0
  186.0360  178.6590  142.3700 C   0  0  2  0  0  3  0  0  0  0  0  0
  187.4610  178.2520  142.7350 C   0  0  2  0  0  3  0  0  0  0  0  0
  188.3600  174.7750  140.4300 O   0  0  0  0  0  0  0  0  0  0  0  0
  187.6920  175.8930  142.3700 N   0  0  0  0  0  2  0  0  0  0  0  0
  188.1480  174.7340  141.6720 C   0  0  0  0  0  0  0  0  0  0  0  0
  188.3170  173.4510  142.4080 C   0  0  0  0  0  2  0  0  0  0  0  0
  190.2500  171.6090  142.9420 O   0  0  0  0  0  1  0  0  0  0  0  0
  189.8730  172.6540  141.9140 P   0  0  0  0  0  0  0  0  0  0  0  0
  189.6680  171.9160  140.4070 O   0  0  0  0  0  0  0  0  0  0  0  0
  191.0960  173.8170  141.8080 O   0  0  0  0  0  1  0  0  0  0  0  0
  189.6910  177.7740  142.0110 O   0  0  0  0  0  0  0  0  0  0  0  0
  191.4620  178.8730  143.2420 O   0  0  0  0  0  0  0  0  0  0  0  0
  190.2450  178.1960  143.2170 C   0  0  0  0  0  0  0  0  0  0  0  0
  189.6380  177.9650  144.2950 O   0  0  0  0  0  1  0  0  0  0  0  0
  1  5  1  0  0  0  0
  2 20  1  0  0  0  0
  2 23  1  1  0  0  0
  3 17  2  0  0  0  0
  4  8  1  0  0  0  0
  4 17  1  0  0  0  0
  5  6  1  1  0  0  0
  5 21  1  0  0  0  0
  8  9  2  0  0  0  0
  9 11  1  0  0  0  0
  9 14  1  0  0  0  0
 10 12  1  0  0  0  0
 10  7  1  1  0  0  0
 12  3  2  0  0  0  0
 12 15  1  0  0  0  0
 13 11  2  0  0  0  0
 16 15  1  0  0  0  0
 17 14  1  0  0  0  0
 18  8  1  0  0  0  0
 18 13  1  0  0  0  0
 19  1  1  0  0  0  0
 19  2  1  0  0  0  0
 20 10  1  0  0  0  0
 20  7  1  1  0  0  0
 21 16  1  6  0  0  0
 21 20  1  0  0  0  0
 22 23  1  0  0  0  0
 24 18  1  0  0  0  0
 25 24  1  0  0  0  0
 26 29  1  6  0  0  0
 26 28  1  0  0  0  0
 26 30  1  0  0  0  0
 27 28  1  0  0  0  0
 27 40  1  1  0  0  0
 27 31  1  0  0  0  0
 28 33  1  1  0  0  0
 28 31  1  0  0  0  0
 30 31  1  0  0  0  0
 30 25  1  1  0  0  0
 32 34  2  0  0  0  0
 34 33  1  0  0  0  0
 34 35  1  0  0  0  0
 37 35  1  0  0  0  0
 37 36  1  0  0  0  0
 38 37  2  0  0  0  0
 39 37  1  0  0  0  0
 40 42  1  0  0  0  0
 42 41  2  0  0  0  0
 42 43  1  0  0  0  0
M  END
>  <MODEL>
9

>  <REMARK>
 VINA RESULT:      -6.0      4.806      8.555
  Name = 
  9 active torsions:
  status: ('A' for Active; 'I' for Inactive)
    1  A    between atoms: C_4  and  C_28
    2  A    between atoms: C_8  and  O_42
    3  A    between atoms: P_15  and  C_34
    4  A    between atoms: C_18  and  O_42
    5  A    between atoms: N_21  and  C_23
    6  A    between atoms: C_29  and  N_33
    7  A    between atoms: C_29  and  O_38
    8  A    between atoms: C_32  and  C_34
    9  A    between atoms: C_35  and  O_38
                            x       y       z     vdW  Elec       q    Type
                         _______ _______ _______ _____ _____    ______ ____

>  <TORSDO>
F 9

$$$$
