=
 OpenBabel11062422173D

 41 44  0  0  1  0  0  0  0  0999 V2000
  194.1480  176.0920  141.4990 C   0  0  0  0  0  3  0  0  0  0  0  0
  193.3800  175.6250  142.5780 C   0  0  0  0  0  0  0  0  0  0  0  0
  195.6800  176.4870  141.1780 C   0  0  0  0  0  2  0  0  0  0  0  0
  194.0290  175.3210  143.9720 C   0  0  1  0  0  3  0  0  0  0  0  0
  196.6180  176.0720  142.1430 N   0  0  0  0  0  2  0  0  0  0  0  0
  195.0570  176.3770  144.0490 N   0  0  0  0  0  2  0  0  0  0  0  0
  196.3860  175.9290  143.5540 C   0  0  0  0  0  0  0  0  0  0  0  0
  197.1020  175.3270  144.2840 O   0  0  0  0  0  0  0  0  0  0  0  0
  193.6040  175.0400  145.4320 N   0  0  0  0  0  0  0  0  0  0  0  0
  193.2510  173.6250  145.5170 C   0  0  0  0  0  2  0  0  0  0  0  0
  194.3690  172.7870  144.9430 C   0  0  0  0  0  2  0  0  0  0  0  0
  193.5440  171.6090  144.3970 C   0  0  0  0  0  2  0  0  0  0  0  0
  192.1080  171.9420  144.3190 C   0  0  0  0  0  2  0  0  0  0  0  0
  191.5630  171.2300  143.0840 C   0  0  0  0  0  2  0  0  0  0  0  0
  192.5240  171.4770  141.9390 C   0  0  0  0  0  2  0  0  0  0  0  0
  191.7490  171.7380  140.6370 C   0  0  0  0  0  2  0  0  0  0  0  0
  190.2830  171.9170  140.7490 N   0  0  0  0  0  2  0  0  0  0  0  0
  189.4270  172.9140  140.1610 C   0  0  0  0  0  0  0  0  0  0  0  0
  188.0630  172.8790  140.3710 O   0  0  0  0  0  1  0  0  0  0  0  0
  189.9180  173.7800  139.3160 O   0  0  0  0  0  0  0  0  0  0  0  0
  192.8100  175.9130  146.3610 C   0  0  0  0  0  2  0  0  0  0  0  0
  191.8840  175.3160  147.4780 C   0  0  0  0  0  2  0  0  0  0  0  0
  190.1000  177.0410  147.4360 N   0  0  0  0  0  2  0  0  0  0  0  0
  190.4510  175.7930  147.5180 C   0  0  0  0  0  0  0  0  0  0  0  0
  189.4230  174.7580  147.2710 C   0  0  0  0  0  1  0  0  0  0  0  0
  191.9330  175.2860  142.1850 C   0  0  0  0  0  2  0  0  0  0  0  0
  189.5800  175.6030  142.3970 O   0  0  0  0  0  0  0  0  0  0  0  0
  188.5190  175.4080  143.3630 C   0  0  0  0  0  2  0  0  0  0  0  0
  190.5990  177.3760  143.4470 C   0  0  0  0  0  2  0  0  0  0  0  0
  188.4150  176.5580  144.4200 C   0  0  1  0  0  3  0  0  0  0  0  0
  190.7560  175.8640  143.0440 C   0  0  2  0  0  3  0  0  0  0  0  0
  189.4400  177.5900  144.0850 C   0  0  0  0  0  2  0  0  0  0  0  0
  185.8940  177.0890  142.2250 N   0  0  0  0  0  2  0  0  0  0  0  0
  184.8760  176.8730  146.1820 O   0  0  0  0  0  0  0  0  0  0  0  0
  186.7920  178.2320  146.8290 O   0  0  0  0  0  0  0  0  0  0  0  0
  186.3280  178.4790  142.3320 C   0  0  0  0  0  2  0  0  0  0  0  0
  185.7510  178.8700  144.7250 C   0  0  0  0  0  2  0  0  0  0  0  0
  186.2870  176.4160  143.2030 N   0  0  0  0  0  2  0  0  0  0  0  0
  186.9730  177.2930  144.2780 C   0  0  2  0  0  0  0  0  0  0  0  0
  186.7200  178.5730  143.5680 C   0  0  1  0  0  3  0  0  0  0  0  0
  186.1110  177.5280  145.7370 S   0  0  0  0  0  0  0  0  0  0  0  0
  1  2  2  0  0  0  0
  2  4  1  0  0  0  0
  3  1  1  0  0  0  0
  3  5  1  0  0  0  0
  4  6  1  0  0  0  0
  4  9  1  1  0  0  0
  5  7  1  0  0  0  0
  7  6  1  0  0  0  0
  7  8  2  0  0  0  0
  9 10  1  0  0  0  0
  9 21  1  0  0  0  0
 11 10  1  0  0  0  0
 12 11  1  0  0  0  0
 13 12  1  0  0  0  0
 14 13  1  0  0  0  0
 15 14  1  0  0  0  0
 16 17  1  0  0  0  0
 16 15  1  0  0  0  0
 18 19  1  0  0  0  0
 18 17  1  0  0  0  0
 20 18  2  0  0  0  0
 21 22  1  0  0  0  0
 22 24  1  0  0  0  0
 23 24  2  0  0  0  0
 25 24  1  0  0  0  0
 26  2  1  0  0  0  0
 27 31  1  0  0  0  0
 27 28  1  0  0  0  0
 29 32  1  0  0  0  0
 30 28  1  6  0  0  0
 31 26  1  6  0  0  0
 31 29  1  0  0  0  0
 32 30  1  0  0  0  0
 33 36  1  0  0  0  0
 33 38  1  0  0  0  0
 37 41  1  0  0  0  0
 39 38  1  6  0  0  0
 39 30  1  0  0  0  0
 39 41  1  0  0  0  0
 40 36  1  6  0  0  0
 40 39  1  0  0  0  0
 40 37  1  0  0  0  0
 41 34  2  0  0  0  0
 41 35  2  0  0  0  0
M  END
>  <MODEL>
1

>  <REMARK>
 VINA RESULT:      -6.4      0.000      0.000
  Name = 
  15 active torsions:
  status: ('A' for Active; 'I' for Inactive)
    1  A    between atoms: C_1  and  C_19
    2  A    between atoms: C_1  and  C_29
    3  A    between atoms: C_3  and  C_17
    4  A    between atoms: C_7  and  N_8
    5  A    between atoms: N_8  and  C_10
    6  A    between atoms: N_8  and  C_26
    7  A    between atoms: C_10  and  C_25
    8  A    between atoms: C_12  and  N_15
    9  A    between atoms: C_12  and  C_28
   10  A    between atoms: C_17  and  C_40
   11  A    between atoms: C_19  and  C_28
   12  A    between atoms: C_20  and  C_32
   13  A    between atoms: C_25  and  C_29
   14  A    between atoms: C_26  and  C_32
   15  A    between atoms: C_27  and  C_33
                            x       y       z     vdW  Elec       q    Type
                         _______ _______ _______ _____ _____    ______ ____

>  <TORSDO>
F 15

$$$$
=
 OpenBabel11062422173D

 41 44  0  0  1  0  0  0  0  0999 V2000
  188.9120  177.8960  142.2200 C   0  0  0  0  0  3  0  0  0  0  0  0
  189.2950  177.6940  143.5550 C   0  0  0  0  0  0  0  0  0  0  0  0
  187.5740  177.8390  141.3170 C   0  0  0  0  0  2  0  0  0  0  0  0
  188.2510  177.3050  144.6570 C   0  0  1  0  0  3  0  0  0  0  0  0
  186.3680  177.7850  142.0410 N   0  0  0  0  0  2  0  0  0  0  0  0
  187.3320  176.4390  143.8910 N   0  0  0  0  0  2  0  0  0  0  0  0
  186.1710  177.1790  143.3300 C   0  0  0  0  0  0  0  0  0  0  0  0
  185.2290  177.3860  144.0210 O   0  0  0  0  0  0  0  0  0  0  0  0
  188.2130  176.7780  146.1100 N   0  0  0  0  0  0  0  0  0  0  0  0
  189.4450  176.0260  146.3320 C   0  0  0  0  0  2  0  0  0  0  0  0
  189.1620  174.8380  147.2210 C   0  0  0  0  0  2  0  0  0  0  0  0
  189.5540  173.7050  146.2570 C   0  0  0  0  0  2  0  0  0  0  0  0
  190.2630  174.2220  145.0710 C   0  0  0  0  0  2  0  0  0  0  0  0
  189.9210  173.2840  143.9170 C   0  0  0  0  0  2  0  0  0  0  0  0
  189.7760  174.1200  142.6610 C   0  0  0  0  0  2  0  0  0  0  0  0
  190.5200  173.4580  141.4890 C   0  0  0  0  0  2  0  0  0  0  0  0
  190.0850  173.8210  140.1220 N   0  0  0  0  0  2  0  0  0  0  0  0
  188.9010  173.4410  139.3970 C   0  0  0  0  0  0  0  0  0  0  0  0
  188.6710  173.9260  138.1250 O   0  0  0  0  0  0  0  0  0  0  0  0
  187.9710  172.7390  139.9880 O   0  0  0  0  0  1  0  0  0  0  0  0
  187.0390  176.2500  146.8840 C   0  0  0  0  0  3  0  0  0  0  0  0
  186.0820  177.1930  147.6940 C   0  0  0  0  0  3  0  0  0  0  0  0
  185.5310  179.3560  146.6070 N   0  0  0  0  0  2  0  0  0  0  0  0
  186.2270  178.6810  147.4720 C   0  0  0  0  0  0  0  0  0  0  0  0
  186.9250  179.4240  148.5440 C   0  0  0  0  0  1  0  0  0  0  0  0
  190.7620  178.0690  143.8230 C   0  0  0  0  0  2  0  0  0  0  0  0
  192.9000  177.3240  144.5690 O   0  0  0  0  0  0  0  0  0  0  0  0
  193.5250  176.1540  145.1480 C   0  0  0  0  0  2  0  0  0  0  0  0
  192.5800  176.4630  142.4620 C   0  0  0  0  0  2  0  0  0  0  0  0
  193.9000  175.0570  144.0960 C   0  0  1  0  0  3  0  0  0  0  0  0
  191.8560  176.9470  143.7710 C   0  0  2  0  0  3  0  0  0  0  0  0
  193.5440  175.5740  142.7420 C   0  0  0  0  0  2  0  0  0  0  0  0
  196.8010  176.6600  143.4060 N   0  0  0  0  0  2  0  0  0  0  0  0
  196.9100  173.8510  146.3790 O   0  0  0  0  0  0  0  0  0  0  0  0
  195.5470  172.3070  145.0770 O   0  0  0  0  0  0  0  0  0  0  0  0
  196.8990  175.6590  142.3490 C   0  0  0  0  0  2  0  0  0  0  0  0
  197.1230  173.6270  143.7750 C   0  0  0  0  0  2  0  0  0  0  0  0
  196.0110  176.2930  144.3050 N   0  0  0  0  0  2  0  0  0  0  0  0
  195.5110  174.8450  144.0880 C   0  0  2  0  0  0  0  0  0  0  0  0
  196.3470  174.6090  142.8820 C   0  0  1  0  0  3  0  0  0  0  0  0
  196.1100  173.6590  145.1640 S   0  0  0  0  0  0  0  0  0  0  0  0
  1  2  2  0  0  0  0
  2 26  1  0  0  0  0
  2  4  1  0  0  0  0
  3  5  1  0  0  0  0
  3  1  1  0  0  0  0
  4  9  1  1  0  0  0
  5  7  1  0  0  0  0
  6  4  1  0  0  0  0
  7  6  1  0  0  0  0
  7  8  2  0  0  0  0
  9 10  1  0  0  0  0
  9 21  1  0  0  0  0
 10 11  1  0  0  0  0
 12 11  1  0  0  0  0
 13 12  1  0  0  0  0
 14 13  1  0  0  0  0
 15 14  1  0  0  0  0
 16 15  1  0  0  0  0
 17 16  1  0  0  0  0
 18 20  1  0  0  0  0
 18 17  1  0  0  0  0
 19 18  2  0  0  0  0
 21 22  2  0  0  0  0
 23 24  2  0  0  0  0
 24 22  1  0  0  0  0
 24 25  1  0  0  0  0
 27 28  1  0  0  0  0
 29 32  1  0  0  0  0
 29 31  1  0  0  0  0
 30 32  1  6  0  0  0
 30 28  1  0  0  0  0
 31 26  1  6  0  0  0
 31 27  1  0  0  0  0
 33 38  1  0  0  0  0
 35 41  2  0  0  0  0
 36 33  1  0  0  0  0
 37 41  1  0  0  0  0
 39 30  1  0  0  0  0
 39 38  1  1  0  0  0
 39 41  1  0  0  0  0
 40 36  1  1  0  0  0
 40 37  1  0  0  0  0
 40 39  1  0  0  0  0
 41 34  2  0  0  0  0
M  END
>  <MODEL>
2

>  <REMARK>
 VINA RESULT:      -6.4      2.674      7.136
  Name = 
  15 active torsions:
  status: ('A' for Active; 'I' for Inactive)
    1  A    between atoms: C_1  and  C_19
    2  A    between atoms: C_1  and  C_29
    3  A    between atoms: C_3  and  C_17
    4  A    between atoms: C_7  and  N_8
    5  A    between atoms: N_8  and  C_10
    6  A    between atoms: N_8  and  C_26
    7  A    between atoms: C_10  and  C_25
    8  A    between atoms: C_12  and  N_15
    9  A    between atoms: C_12  and  C_28
   10  A    between atoms: C_17  and  C_40
   11  A    between atoms: C_19  and  C_28
   12  A    between atoms: C_20  and  C_32
   13  A    between atoms: C_25  and  C_29
   14  A    between atoms: C_26  and  C_32
   15  A    between atoms: C_27  and  C_33
                            x       y       z     vdW  Elec       q    Type
                         _______ _______ _______ _____ _____    ______ ____

>  <TORSDO>
F 15

$$$$
=
 OpenBabel11062422173D

 41 44  0  0  1  0  0  0  0  0999 V2000
  193.8150  176.5910  146.4430 C   0  0  0  0  0  3  0  0  0  0  0  0
  193.2250  175.3310  146.2580 C   0  0  0  0  0  0  0  0  0  0  0  0
  194.9490  177.5160  145.7570 C   0  0  0  0  0  2  0  0  0  0  0  0
  193.6480  174.3950  145.0740 C   0  0  1  0  0  3  0  0  0  0  0  0
  195.3630  177.1000  144.4780 N   0  0  0  0  0  2  0  0  0  0  0  0
  195.0930  174.6840  144.9800 N   0  0  0  0  0  2  0  0  0  0  0  0
  195.4070  175.7480  143.9900 C   0  0  0  0  0  0  0  0  0  0  0  0
  195.4980  175.4620  142.8430 O   0  0  0  0  0  0  0  0  0  0  0  0
  193.4820  172.9270  144.6160 N   0  0  0  0  0  0  0  0  0  0  0  0
  192.3100  172.8740  143.7460 C   0  0  0  0  0  2  0  0  0  0  0  0
  191.1090  172.4150  144.5370 C   0  0  0  0  0  2  0  0  0  0  0  0
  190.0120  173.2150  143.8150 C   0  0  0  0  0  2  0  0  0  0  0  0
  190.5690  174.3820  143.1050 C   0  0  0  0  0  2  0  0  0  0  0  0
  189.3870  175.2730  142.7370 C   0  0  0  0  0  2  0  0  0  0  0  0
  188.4600  174.4760  141.8420 C   0  0  0  0  0  2  0  0  0  0  0  0
  188.2380  175.2130  140.5100 C   0  0  0  0  0  2  0  0  0  0  0  0
  187.1530  176.2200  140.4690 N   0  0  0  0  0  2  0  0  0  0  0  0
  187.1540  177.5960  140.8900 C   0  0  0  0  0  0  0  0  0  0  0  0
  186.0280  178.3790  140.7300 O   0  0  0  0  0  0  0  0  0  0  0  0
  188.2610  178.1510  141.3040 O   0  0  0  0  0  1  0  0  0  0  0  0
  193.7000  171.6690  145.4070 C   0  0  0  0  0  2  0  0  0  0  0  0
  194.8840  170.6880  145.1000 C   0  0  0  0  0  2  0  0  0  0  0  0
  196.4930  171.6840  143.4940 N   0  0  0  0  0  2  0  0  0  0  0  0
  196.2060  171.3020  144.7020 C   0  0  0  0  0  0  0  0  0  0  0  0
  197.0390  171.8090  145.8150 C   0  0  0  0  0  1  0  0  0  0  0  0
  192.0390  175.0780  147.2020 C   0  0  0  0  0  2  0  0  0  0  0  0
  190.3800  176.7520  146.8460 O   0  0  0  0  0  0  0  0  0  0  0  0
  189.4850  177.2210  145.8100 C   0  0  0  0  0  2  0  0  0  0  0  0
  189.2740  174.7920  147.3120 C   0  0  0  0  0  2  0  0  0  0  0  0
  188.1650  176.3870  145.6970 C   0  0  1  0  0  3  0  0  0  0  0  0
  190.5880  175.4080  146.7080 C   0  0  2  0  0  3  0  0  0  0  0  0
  188.1830  175.3440  146.7640 C   0  0  0  0  0  2  0  0  0  0  0  0
  186.9450  178.5010  148.0420 N   0  0  0  0  0  2  0  0  0  0  0  0
  185.9630  179.3010  144.1520 O   0  0  0  0  0  0  0  0  0  0  0  0
  185.5350  176.9470  143.6930 O   0  0  0  0  0  0  0  0  0  0  0  0
  185.9120  177.4780  148.1740 C   0  0  0  0  0  2  0  0  0  0  0  0
  184.8810  177.6910  145.9150 C   0  0  0  0  0  2  0  0  0  0  0  0
  187.5360  178.4060  146.9440 N   0  0  0  0  0  2  0  0  0  0  0  0
  186.8920  177.3440  146.0220 C   0  0  2  0  0  0  0  0  0  0  0  0
  185.7870  177.0230  146.9630 C   0  0  1  0  0  3  0  0  0  0  0  0
  186.0340  177.9280  144.6630 S   0  0  0  0  0  0  0  0  0  0  0  0
  2  1  2  0  0  0  0
  2 26  1  0  0  0  0
  3  1  1  0  0  0  0
  4  9  1  1  0  0  0
  4  2  1  0  0  0  0
  5  3  1  0  0  0  0
  6  4  1  0  0  0  0
  7  5  1  0  0  0  0
  7  6  1  0  0  0  0
  8  7  2  0  0  0  0
  9 21  1  0  0  0  0
 10 11  1  0  0  0  0
 10  9  1  0  0  0  0
 12 11  1  0  0  0  0
 13 12  1  0  0  0  0
 14 13  1  0  0  0  0
 15 14  1  0  0  0  0
 16 15  1  0  0  0  0
 17 16  1  0  0  0  0
 17 18  1  0  0  0  0
 18 20  1  0  0  0  0
 19 18  2  0  0  0  0
 22 21  1  0  0  0  0
 23 24  2  0  0  0  0
 24 22  1  0  0  0  0
 24 25  1  0  0  0  0
 28 27  1  0  0  0  0
 30 28  1  1  0  0  0
 30 39  1  0  0  0  0
 30 32  1  0  0  0  0
 31 27  1  0  0  0  0
 31 26  1  1  0  0  0
 31 29  1  0  0  0  0
 32 29  1  0  0  0  0
 33 36  1  0  0  0  0
 34 41  2  0  0  0  0
 35 41  2  0  0  0  0
 38 33  1  0  0  0  0
 39 38  1  1  0  0  0
 39 40  1  0  0  0  0
 40 37  1  6  0  0  0
 40 36  1  0  0  0  0
 41 37  1  0  0  0  0
 41 39  1  0  0  0  0
M  END
>  <MODEL>
3

>  <REMARK>
 VINA RESULT:      -6.2      2.421      4.509
  Name = 
  15 active torsions:
  status: ('A' for Active; 'I' for Inactive)
    1  A    between atoms: C_1  and  C_19
    2  A    between atoms: C_1  and  C_29
    3  A    between atoms: C_3  and  C_17
    4  A    between atoms: C_7  and  N_8
    5  A    between atoms: N_8  and  C_10
    6  A    between atoms: N_8  and  C_26
    7  A    between atoms: C_10  and  C_25
    8  A    between atoms: C_12  and  N_15
    9  A    between atoms: C_12  and  C_28
   10  A    between atoms: C_17  and  C_40
   11  A    between atoms: C_19  and  C_28
   12  A    between atoms: C_20  and  C_32
   13  A    between atoms: C_25  and  C_29
   14  A    between atoms: C_26  and  C_32
   15  A    between atoms: C_27  and  C_33
                            x       y       z     vdW  Elec       q    Type
                         _______ _______ _______ _____ _____    ______ ____

>  <TORSDO>
F 15

$$$$
=
 OpenBabel11062422173D

 41 44  0  0  1  0  0  0  0  0999 V2000
  193.0640  176.1050  146.7950 C   0  0  0  0  0  3  0  0  0  0  0  0
  192.0600  175.2430  146.3240 C   0  0  0  0  0  0  0  0  0  0  0  0
  194.6160  176.4400  146.4990 C   0  0  0  0  0  2  0  0  0  0  0  0
  192.3270  174.2400  145.1500 C   0  0  1  0  0  3  0  0  0  0  0  0
  195.1220  175.9090  145.2980 N   0  0  0  0  0  2  0  0  0  0  0  0
  193.7290  173.8570  145.4110 N   0  0  0  0  0  2  0  0  0  0  0  0
  194.7060  174.6890  144.6600 C   0  0  0  0  0  0  0  0  0  0  0  0
  194.9520  174.4160  143.5320 O   0  0  0  0  0  0  0  0  0  0  0  0
  191.6720  173.0100  144.4800 N   0  0  0  0  0  0  0  0  0  0  0  0
  190.2580  173.0180  144.8450 C   0  0  0  0  0  2  0  0  0  0  0  0
  189.4150  172.7370  143.6240 C   0  0  0  0  0  2  0  0  0  0  0  0
  189.4440  174.1300  142.9730 C   0  0  0  0  0  2  0  0  0  0  0  0
  189.3670  174.0440  141.5020 C   0  0  0  0  0  2  0  0  0  0  0  0
  188.2030  173.1120  141.1810 C   0  0  0  0  0  2  0  0  0  0  0  0
  188.3350  172.6790  139.7340 C   0  0  0  0  0  2  0  0  0  0  0  0
  188.4080  173.9090  138.8130 C   0  0  0  0  0  2  0  0  0  0  0  0
  189.5030  173.9420  137.8170 N   0  0  0  0  0  2  0  0  0  0  0  0
  189.5030  174.4230  136.4610 C   0  0  0  0  0  0  0  0  0  0  0  0
  190.6590  174.3900  135.7060 O   0  0  0  0  0  0  0  0  0  0  0  0
  188.4440  175.0150  135.9780 O   0  0  0  0  0  1  0  0  0  0  0  0
  192.2370  171.6310  144.2980 C   0  0  0  0  0  2  0  0  0  0  0  0
  193.0500  171.2260  143.0190 C   0  0  0  0  0  2  0  0  0  0  0  0
  191.4060  171.0070  141.1720 N   0  0  0  0  0  2  0  0  0  0  0  0
  192.4540  171.5850  141.6780 C   0  0  0  0  0  0  0  0  0  0  0  0
  192.8770  172.8870  141.1170 C   0  0  0  0  0  1  0  0  0  0  0  0
  190.6830  175.5270  146.9460 C   0  0  0  0  0  2  0  0  0  0  0  0
  188.5660  175.7370  145.8710 O   0  0  0  0  0  0  0  0  0  0  0  0
  187.4020  176.5960  145.8770 C   0  0  0  0  0  2  0  0  0  0  0  0
  189.9990  177.2070  144.8380 C   0  0  0  0  0  2  0  0  0  0  0  0
  187.5740  177.8920  145.0170 C   0  0  1  0  0  3  0  0  0  0  0  0
  189.6810  176.4620  146.1850 C   0  0  2  0  0  3  0  0  0  0  0  0
  188.9170  177.8430  144.3680 C   0  0  0  0  0  2  0  0  0  0  0  0
  186.2520  175.8920  142.6270 N   0  0  0  0  0  2  0  0  0  0  0  0
  183.7900  178.7570  144.2010 O   0  0  0  0  0  0  0  0  0  0  0  0
  185.5630  180.4270  144.1360 O   0  0  0  0  0  0  0  0  0  0  0  0
  186.9030  176.8370  141.7240 C   0  0  0  0  0  2  0  0  0  0  0  0
  185.5610  178.8650  142.2710 C   0  0  0  0  0  2  0  0  0  0  0  0
  186.0890  176.3910  143.7630 N   0  0  0  0  0  2  0  0  0  0  0  0
  186.4880  177.8850  143.8070 C   0  0  2  0  0  0  0  0  0  0  0  0
  186.8070  177.9680  142.3580 C   0  0  1  0  0  3  0  0  0  0  0  0
  185.2110  179.0150  143.9480 S   0  0  0  0  0  0  0  0  0  0  0  0
  2  1  2  0  0  0  0
  2 26  1  0  0  0  0
  3  1  1  0  0  0  0
  4  9  1  1  0  0  0
  4  6  1  0  0  0  0
  4  2  1  0  0  0  0
  5  3  1  0  0  0  0
  7  5  1  0  0  0  0
  7  6  1  0  0  0  0
  8  7  2  0  0  0  0
  9 10  1  0  0  0  0
 11 10  1  0  0  0  0
 12 11  1  0  0  0  0
 13 12  1  0  0  0  0
 14 13  1  0  0  0  0
 15 14  1  0  0  0  0
 16 15  1  0  0  0  0
 17 16  1  0  0  0  0
 18 17  1  0  0  0  0
 19 18  2  0  0  0  0
 20 18  1  0  0  0  0
 21  9  1  0  0  0  0
 22 21  1  0  0  0  0
 23 24  2  0  0  0  0
 24 22  1  0  0  0  0
 25 24  1  0  0  0  0
 27 28  1  0  0  0  0
 27 31  1  0  0  0  0
 29 31  1  0  0  0  0
 30 32  1  6  0  0  0
 30 28  1  0  0  0  0
 31 26  1  6  0  0  0
 32 29  1  0  0  0  0
 33 38  1  0  0  0  0
 36 33  1  0  0  0  0
 37 40  1  0  0  0  0
 37 41  1  0  0  0  0
 39 38  1  1  0  0  0
 39 41  1  0  0  0  0
 39 30  1  0  0  0  0
 40 36  1  6  0  0  0
 40 39  1  0  0  0  0
 41 35  2  0  0  0  0
 41 34  2  0  0  0  0
M  END
>  <MODEL>
4

>  <REMARK>
 VINA RESULT:      -6.1      2.276      4.113
  Name = 
  15 active torsions:
  status: ('A' for Active; 'I' for Inactive)
    1  A    between atoms: C_1  and  C_19
    2  A    between atoms: C_1  and  C_29
    3  A    between atoms: C_3  and  C_17
    4  A    between atoms: C_7  and  N_8
    5  A    between atoms: N_8  and  C_10
    6  A    between atoms: N_8  and  C_26
    7  A    between atoms: C_10  and  C_25
    8  A    between atoms: C_12  and  N_15
    9  A    between atoms: C_12  and  C_28
   10  A    between atoms: C_17  and  C_40
   11  A    between atoms: C_19  and  C_28
   12  A    between atoms: C_20  and  C_32
   13  A    between atoms: C_25  and  C_29
   14  A    between atoms: C_26  and  C_32
   15  A    between atoms: C_27  and  C_33
                            x       y       z     vdW  Elec       q    Type
                         _______ _______ _______ _____ _____    ______ ____

>  <TORSDO>
F 15

$$$$
=
 OpenBabel11062422173D

 41 44  0  0  1  0  0  0  0  0999 V2000
  193.5770  176.4710  146.2080 C   0  0  0  0  0  3  0  0  0  0  0  0
  193.0860  175.1810  145.9550 C   0  0  0  0  0  0  0  0  0  0  0  0
  194.8320  177.3990  145.7900 C   0  0  0  0  0  2  0  0  0  0  0  0
  193.8310  174.1970  144.9890 C   0  0  1  0  0  3  0  0  0  0  0  0
  195.5830  176.9280  144.6960 N   0  0  0  0  0  2  0  0  0  0  0  0
  195.2410  174.5360  145.2620 N   0  0  0  0  0  2  0  0  0  0  0  0
  195.7850  175.5540  144.3250 C   0  0  0  0  0  0  0  0  0  0  0  0
  196.1850  175.2080  143.2640 O   0  0  0  0  0  0  0  0  0  0  0  0
  193.8250  172.7010  144.5980 N   0  0  0  0  0  0  0  0  0  0  0  0
  192.7920  172.5210  143.5810 C   0  0  0  0  0  2  0  0  0  0  0  0
  191.8090  171.4670  144.0350 C   0  0  0  0  0  2  0  0  0  0  0  0
  190.5620  172.3490  144.2160 C   0  0  0  0  0  2  0  0  0  0  0  0
  190.6140  173.5470  143.3560 C   0  0  0  0  0  2  0  0  0  0  0  0
  189.1740  173.8630  142.9630 C   0  0  0  0  0  2  0  0  0  0  0  0
  188.5860  172.6290  142.3100 C   0  0  0  0  0  2  0  0  0  0  0  0
  188.1950  172.9300  140.8530 C   0  0  0  0  0  3  0  0  0  0  0  0
  189.2930  173.2480  139.9120 N   0  0  0  0  0  0  0  0  0  0  0  0
  189.2380  173.6510  138.5320 C   0  0  0  0  0  0  0  0  0  0  0  0
  190.3980  173.9350  137.8370 O   0  0  0  0  0  0  0  0  0  0  0  0
  188.0850  173.8800  137.9630 O   0  0  0  0  0  1  0  0  0  0  0  0
  194.0120  171.5010  145.4820 C   0  0  0  0  0  2  0  0  0  0  0  0
  195.4170  170.8380  145.7000 C   0  0  0  0  0  2  0  0  0  0  0  0
  196.1700  168.4930  145.3900 N   0  0  0  0  0  2  0  0  0  0  0  0
  195.4440  169.3630  146.0260 C   0  0  0  0  0  0  0  0  0  0  0  0
  194.9000  168.9880  147.3500 C   0  0  0  0  0  1  0  0  0  0  0  0
  191.6960  174.9350  146.5640 C   0  0  0  0  0  2  0  0  0  0  0  0
  189.3620  175.2920  146.2380 O   0  0  0  0  0  0  0  0  0  0  0  0
  188.2930  176.1400  146.7230 C   0  0  0  0  0  2  0  0  0  0  0  0
  190.4690  176.8970  145.0210 C   0  0  0  0  0  2  0  0  0  0  0  0
  188.2470  177.5450  146.0350 C   0  0  1  0  0  3  0  0  0  0  0  0
  190.5500  175.9680  146.2860 C   0  0  2  0  0  3  0  0  0  0  0  0
  189.3220  177.5910  145.0010 C   0  0  0  0  0  2  0  0  0  0  0  0
  186.6070  176.4680  143.2770 N   0  0  0  0  0  2  0  0  0  0  0  0
  184.3170  177.3870  146.5410 O   0  0  0  0  0  0  0  0  0  0  0  0
  185.6190  179.3980  146.9860 O   0  0  0  0  0  0  0  0  0  0  0  0
  186.7300  177.8650  142.8730 C   0  0  0  0  0  2  0  0  0  0  0  0
  185.2910  178.8930  144.6290 C   0  0  0  0  0  2  0  0  0  0  0  0
  186.7410  176.3420  144.5150 N   0  0  0  0  0  2  0  0  0  0  0  0
  186.8430  177.7080  145.2340 C   0  0  2  0  0  0  0  0  0  0  0  0
  186.6400  178.5090  143.9990 C   0  0  1  0  0  3  0  0  0  0  0  0
  185.4970  178.1790  146.1790 S   0  0  0  0  0  0  0  0  0  0  0  0
  2  1  2  0  0  0  0
  2 26  1  0  0  0  0
  3  1  1  0  0  0  0
  4  9  1  1  0  0  0
  4  6  1  0  0  0  0
  4  2  1  0  0  0  0
  5  3  1  0  0  0  0
  7  5  1  0  0  0  0
  7  6  1  0  0  0  0
  8  7  2  0  0  0  0
  9 21  1  0  0  0  0
 10 11  1  0  0  0  0
 10  9  1  0  0  0  0
 11 12  1  0  0  0  0
 13 12  1  0  0  0  0
 14 13  1  0  0  0  0
 15 14  1  0  0  0  0
 16 15  1  0  0  0  0
 17 16  2  0  0  0  0
 18 17  1  0  0  0  0
 19 18  2  0  0  0  0
 20 18  1  0  0  0  0
 21 22  1  0  0  0  0
 22 24  1  0  0  0  0
 23 24  2  0  0  0  0
 24 25  1  0  0  0  0
 27 31  1  0  0  0  0
 27 28  1  0  0  0  0
 29 31  1  0  0  0  0
 30 32  1  6  0  0  0
 30 28  1  0  0  0  0
 31 26  1  6  0  0  0
 32 29  1  0  0  0  0
 33 38  1  0  0  0  0
 36 33  1  0  0  0  0
 37 41  1  0  0  0  0
 39 38  1  6  0  0  0
 39 30  1  0  0  0  0
 39 41  1  0  0  0  0
 40 36  1  6  0  0  0
 40 37  1  0  0  0  0
 40 39  1  0  0  0  0
 41 34  2  0  0  0  0
 41 35  2  0  0  0  0
M  END
>  <MODEL>
5

>  <REMARK>
 VINA RESULT:      -6.0      2.088      3.689
  Name = 
  15 active torsions:
  status: ('A' for Active; 'I' for Inactive)
    1  A    between atoms: C_1  and  C_19
    2  A    between atoms: C_1  and  C_29
    3  A    between atoms: C_3  and  C_17
    4  A    between atoms: C_7  and  N_8
    5  A    between atoms: N_8  and  C_10
    6  A    between atoms: N_8  and  C_26
    7  A    between atoms: C_10  and  C_25
    8  A    between atoms: C_12  and  N_15
    9  A    between atoms: C_12  and  C_28
   10  A    between atoms: C_17  and  C_40
   11  A    between atoms: C_19  and  C_28
   12  A    between atoms: C_20  and  C_32
   13  A    between atoms: C_25  and  C_29
   14  A    between atoms: C_26  and  C_32
   15  A    between atoms: C_27  and  C_33
                            x       y       z     vdW  Elec       q    Type
                         _______ _______ _______ _____ _____    ______ ____

>  <TORSDO>
F 15

$$$$
=
 OpenBabel11062422173D

 41 44  0  0  1  0  0  0  0  0999 V2000
  193.8110  176.7970  146.4900 C   0  0  0  0  0  3  0  0  0  0  0  0
  193.3290  175.4880  146.3320 C   0  0  0  0  0  0  0  0  0  0  0  0
  194.9360  177.7640  145.8510 C   0  0  0  0  0  2  0  0  0  0  0  0
  193.9240  174.5220  145.2510 C   0  0  1  0  0  3  0  0  0  0  0  0
  195.4950  177.3110  144.6410 N   0  0  0  0  0  2  0  0  0  0  0  0
  195.3470  174.9130  145.2660 N   0  0  0  0  0  2  0  0  0  0  0  0
  195.6770  175.9410  144.2440 C   0  0  0  0  0  0  0  0  0  0  0  0
  195.8920  175.5990  143.1290 O   0  0  0  0  0  0  0  0  0  0  0  0
  193.9030  173.0230  144.8710 N   0  0  0  0  0  0  0  0  0  0  0  0
  192.8260  172.8350  143.9020 C   0  0  0  0  0  2  0  0  0  0  0  0
  191.9370  171.6980  144.3430 C   0  0  0  0  0  2  0  0  0  0  0  0
  190.6070  172.4580  144.4830 C   0  0  0  0  0  2  0  0  0  0  0  0
  189.8110  172.3930  143.2420 C   0  0  0  0  0  2  0  0  0  0  0  0
  188.9800  173.6720  143.1910 C   0  0  0  0  0  2  0  0  0  0  0  0
  188.0550  173.5810  141.9940 C   0  0  0  0  0  2  0  0  0  0  0  0
  188.4980  174.5670  140.9000 C   0  0  0  0  0  2  0  0  0  0  0  0
  187.8600  175.9030  140.8970 N   0  0  0  0  0  2  0  0  0  0  0  0
  188.2240  177.1020  141.6050 C   0  0  0  0  0  0  0  0  0  0  0  0
  187.5010  178.2650  141.4320 O   0  0  0  0  0  0  0  0  0  0  0  0
  189.3190  177.1340  142.3150 O   0  0  0  0  0  1  0  0  0  0  0  0
  194.1290  171.8300  145.7550 C   0  0  0  0  0  3  0  0  0  0  0  0
  195.4800  171.0340  145.7500 C   0  0  0  0  0  3  0  0  0  0  0  0
  194.5630  169.2510  147.2130 N   0  0  0  0  0  2  0  0  0  0  0  0
  195.4820  169.6670  146.3940 C   0  0  0  0  0  0  0  0  0  0  0  0
  196.3700  168.6630  145.7680 C   0  0  0  0  0  1  0  0  0  0  0  0
  192.0810  175.1990  147.1820 C   0  0  0  0  0  2  0  0  0  0  0  0
  190.4080  176.8640  146.8480 O   0  0  0  0  0  0  0  0  0  0  0  0
  189.5880  177.4120  145.7890 C   0  0  0  0  0  2  0  0  0  0  0  0
  189.3260  174.8450  147.0290 C   0  0  0  0  0  2  0  0  0  0  0  0
  188.3070  176.5650  145.4850 C   0  0  1  0  0  3  0  0  0  0  0  0
  190.6670  175.5450  146.6000 C   0  0  2  0  0  3  0  0  0  0  0  0
  188.2680  175.4240  146.4460 C   0  0  0  0  0  2  0  0  0  0  0  0
  185.1900  177.2020  144.3300 N   0  0  0  0  0  2  0  0  0  0  0  0
  185.7480  177.4800  148.3740 O   0  0  0  0  0  0  0  0  0  0  0  0
  187.8690  178.6430  148.0790 O   0  0  0  0  0  0  0  0  0  0  0  0
  185.7430  178.5310  144.0830 C   0  0  0  0  0  2  0  0  0  0  0  0
  186.1570  179.2090  146.4450 C   0  0  0  0  0  2  0  0  0  0  0  0
  185.8720  176.5780  145.1730 N   0  0  0  0  0  2  0  0  0  0  0  0
  186.9840  177.4580  145.7910 C   0  0  2  0  0  0  0  0  0  0  0  0
  186.5840  178.6890  145.0620 C   0  0  1  0  0  3  0  0  0  0  0  0
  186.7680  177.9320  147.4210 S   0  0  0  0  0  0  0  0  0  0  0  0
  2  1  2  0  0  0  0
  2 26  1  0  0  0  0
  3  1  1  0  0  0  0
  4  9  1  1  0  0  0
  4  6  1  0  0  0  0
  4  2  1  0  0  0  0
  5  3  1  0  0  0  0
  7  5  1  0  0  0  0
  7  6  1  0  0  0  0
  8  7  2  0  0  0  0
  9 21  1  0  0  0  0
 10 11  1  0  0  0  0
 10  9  1  0  0  0  0
 11 12  1  0  0  0  0
 13 12  1  0  0  0  0
 14 13  1  0  0  0  0
 15 14  1  0  0  0  0
 16 15  1  0  0  0  0
 17 16  1  0  0  0  0
 17 18  1  0  0  0  0
 18 20  1  0  0  0  0
 19 18  2  0  0  0  0
 22 21  2  0  0  0  0
 22 24  1  0  0  0  0
 24 23  2  0  0  0  0
 25 24  1  0  0  0  0
 28 27  1  0  0  0  0
 30 28  1  1  0  0  0
 30 39  1  0  0  0  0
 30 32  1  0  0  0  0
 31 27  1  0  0  0  0
 31 29  1  0  0  0  0
 31 26  1  1  0  0  0
 32 29  1  0  0  0  0
 33 38  1  0  0  0  0
 36 33  1  0  0  0  0
 37 41  1  0  0  0  0
 39 38  1  6  0  0  0
 39 41  1  0  0  0  0
 40 36  1  6  0  0  0
 40 39  1  0  0  0  0
 40 37  1  0  0  0  0
 41 35  2  0  0  0  0
 41 34  2  0  0  0  0
M  END
>  <MODEL>
6

>  <REMARK>
 VINA RESULT:      -5.9      2.358      4.090
  Name = 
  15 active torsions:
  status: ('A' for Active; 'I' for Inactive)
    1  A    between atoms: C_1  and  C_19
    2  A    between atoms: C_1  and  C_29
    3  A    between atoms: C_3  and  C_17
    4  A    between atoms: C_7  and  N_8
    5  A    between atoms: N_8  and  C_10
    6  A    between atoms: N_8  and  C_26
    7  A    between atoms: C_10  and  C_25
    8  A    between atoms: C_12  and  N_15
    9  A    between atoms: C_12  and  C_28
   10  A    between atoms: C_17  and  C_40
   11  A    between atoms: C_19  and  C_28
   12  A    between atoms: C_20  and  C_32
   13  A    between atoms: C_25  and  C_29
   14  A    between atoms: C_26  and  C_32
   15  A    between atoms: C_27  and  C_33
                            x       y       z     vdW  Elec       q    Type
                         _______ _______ _______ _____ _____    ______ ____

>  <TORSDO>
F 15

$$$$
=
 OpenBabel11062422173D

 41 44  0  0  1  0  0  0  0  0999 V2000
  193.2730  176.2380  146.2480 C   0  0  0  0  0  3  0  0  0  0  0  0
  192.7620  175.2090  145.4430 C   0  0  0  0  0  0  0  0  0  0  0  0
  194.5800  177.1840  146.3300 C   0  0  0  0  0  2  0  0  0  0  0  0
  193.5410  174.6920  144.1850 C   0  0  1  0  0  3  0  0  0  0  0  0
  195.3880  177.1850  145.1770 N   0  0  0  0  0  2  0  0  0  0  0  0
  194.9390  174.8030  144.6440 N   0  0  0  0  0  2  0  0  0  0  0  0
  195.5740  176.0920  144.2620 C   0  0  0  0  0  0  0  0  0  0  0  0
  196.0340  176.2100  143.1750 O   0  0  0  0  0  0  0  0  0  0  0  0
  193.5170  173.5080  143.1900 N   0  0  0  0  0  0  0  0  0  0  0  0
  193.6130  172.2790  143.9740 C   0  0  0  0  0  2  0  0  0  0  0  0
  192.7880  171.1950  143.3230 C   0  0  0  0  0  2  0  0  0  0  0  0
  191.4040  171.5640  143.8840 C   0  0  0  0  0  2  0  0  0  0  0  0
  190.4070  171.7270  142.8080 C   0  0  0  0  0  2  0  0  0  0  0  0
  189.5880  172.9660  143.1580 C   0  0  0  0  0  2  0  0  0  0  0  0
  189.9700  174.0680  142.1910 C   0  0  0  0  0  2  0  0  0  0  0  0
  190.5370  173.4680  140.8930 C   0  0  0  0  0  2  0  0  0  0  0  0
  189.8590  173.8310  139.6280 N   0  0  0  0  0  2  0  0  0  0  0  0
  188.5990  173.3840  139.0940 C   0  0  0  0  0  0  0  0  0  0  0  0
  188.1300  173.8820  137.8950 O   0  0  0  0  0  0  0  0  0  0  0  0
  187.8280  172.6050  139.8040 O   0  0  0  0  0  1  0  0  0  0  0  0
  194.1630  173.4090  141.8370 C   0  0  0  0  0  2  0  0  0  0  0  0
  194.0200  174.5420  140.7610 C   0  0  0  0  0  2  0  0  0  0  0  0
  196.2660  175.1710  139.9130 N   0  0  0  0  0  2  0  0  0  0  0  0
  195.1000  174.6370  139.7090 C   0  0  0  0  0  0  0  0  0  0  0  0
  194.9290  173.7560  138.5330 C   0  0  0  0  0  1  0  0  0  0  0  0
  191.3290  174.8040  145.8210 C   0  0  0  0  0  2  0  0  0  0  0  0
  188.9880  175.2530  145.7510 O   0  0  0  0  0  0  0  0  0  0  0  0
  187.9920  176.0450  146.4390 C   0  0  0  0  0  2  0  0  0  0  0  0
  190.0430  176.9900  144.6780 C   0  0  0  0  0  2  0  0  0  0  0  0
  187.9360  177.5350  145.9610 C   0  0  1  0  0  3  0  0  0  0  0  0
  190.1970  175.8890  145.7890 C   0  0  2  0  0  3  0  0  0  0  0  0
  188.9230  177.7040  144.8540 C   0  0  0  0  0  2  0  0  0  0  0  0
  185.9850  176.7810  143.2990 N   0  0  0  0  0  2  0  0  0  0  0  0
  184.0660  177.5460  146.8310 O   0  0  0  0  0  0  0  0  0  0  0  0
  185.5250  179.4400  147.3030 O   0  0  0  0  0  0  0  0  0  0  0  0
  186.1560  178.1980  142.9950 C   0  0  0  0  0  2  0  0  0  0  0  0
  184.9500  179.1520  144.9560 C   0  0  0  0  0  2  0  0  0  0  0  0
  186.2250  176.5450  144.5040 N   0  0  0  0  0  2  0  0  0  0  0  0
  186.4760  177.8390  145.3140 C   0  0  2  0  0  0  0  0  0  0  0  0
  186.2100  178.7500  144.1710 C   0  0  1  0  0  3  0  0  0  0  0  0
  185.2550  178.3010  146.4190 S   0  0  0  0  0  0  0  0  0  0  0  0
  1  3  1  0  0  0  0
  2 26  1  0  0  0  0
  2  1  2  0  0  0  0
  4  9  1  1  0  0  0
  4  6  1  0  0  0  0
  4  2  1  0  0  0  0
  5  3  1  0  0  0  0
  7  6  1  0  0  0  0
  7  5  1  0  0  0  0
  8  7  2  0  0  0  0
  9 10  1  0  0  0  0
 11 12  1  0  0  0  0
 11 10  1  0  0  0  0
 13 14  1  0  0  0  0
 13 12  1  0  0  0  0
 15 14  1  0  0  0  0
 16 15  1  0  0  0  0
 17 16  1  0  0  0  0
 18 17  1  0  0  0  0
 18 20  1  0  0  0  0
 19 18  2  0  0  0  0
 21  9  1  0  0  0  0
 22 21  1  0  0  0  0
 24 23  2  0  0  0  0
 24 22  1  0  0  0  0
 25 24  1  0  0  0  0
 27 31  1  0  0  0  0
 27 28  1  0  0  0  0
 29 32  1  0  0  0  0
 29 31  1  0  0  0  0
 30 32  1  6  0  0  0
 30 28  1  0  0  0  0
 31 26  1  6  0  0  0
 33 38  1  0  0  0  0
 36 33  1  0  0  0  0
 37 41  1  0  0  0  0
 39 38  1  6  0  0  0
 39 30  1  0  0  0  0
 39 41  1  0  0  0  0
 40 36  1  6  0  0  0
 40 37  1  0  0  0  0
 40 39  1  0  0  0  0
 41 34  2  0  0  0  0
 41 35  2  0  0  0  0
M  END
>  <MODEL>
7

>  <REMARK>
 VINA RESULT:      -5.9      1.790      3.782
  Name = 
  15 active torsions:
  status: ('A' for Active; 'I' for Inactive)
    1  A    between atoms: C_1  and  C_19
    2  A    between atoms: C_1  and  C_29
    3  A    between atoms: C_3  and  C_17
    4  A    between atoms: C_7  and  N_8
    5  A    between atoms: N_8  and  C_10
    6  A    between atoms: N_8  and  C_26
    7  A    between atoms: C_10  and  C_25
    8  A    between atoms: C_12  and  N_15
    9  A    between atoms: C_12  and  C_28
   10  A    between atoms: C_17  and  C_40
   11  A    between atoms: C_19  and  C_28
   12  A    between atoms: C_20  and  C_32
   13  A    between atoms: C_25  and  C_29
   14  A    between atoms: C_26  and  C_32
   15  A    between atoms: C_27  and  C_33
                            x       y       z     vdW  Elec       q    Type
                         _______ _______ _______ _____ _____    ______ ____

>  <TORSDO>
F 15

$$$$
=
 OpenBabel11062422173D

 41 44  0  0  1  0  0  0  0  0999 V2000
  194.1610  176.4640  146.0400 C   0  0  0  0  0  3  0  0  0  0  0  0
  193.4270  175.2740  145.9160 C   0  0  0  0  0  0  0  0  0  0  0  0
  195.3320  177.2580  145.2600 C   0  0  0  0  0  2  0  0  0  0  0  0
  193.6560  174.2920  144.7170 C   0  0  1  0  0  3  0  0  0  0  0  0
  195.6010  176.7930  143.9580 N   0  0  0  0  0  2  0  0  0  0  0  0
  195.1120  174.4240  144.5100 N   0  0  0  0  0  2  0  0  0  0  0  0
  195.4620  175.4420  143.4860 C   0  0  0  0  0  0  0  0  0  0  0  0
  195.4340  175.1430  142.3390 O   0  0  0  0  0  0  0  0  0  0  0  0
  193.2990  172.8490  144.2920 N   0  0  0  0  0  0  0  0  0  0  0  0
  191.9670  172.8900  143.6930 C   0  0  0  0  0  2  0  0  0  0  0  0
  190.9790  172.1990  144.6020 C   0  0  0  0  0  2  0  0  0  0  0  0
  189.6690  172.7370  144.0030 C   0  0  0  0  0  2  0  0  0  0  0  0
  189.9000  173.9470  143.1900 C   0  0  0  0  0  2  0  0  0  0  0  0
  188.6460  174.1490  142.3440 C   0  0  0  0  0  2  0  0  0  0  0  0
  188.3130  172.8280  141.6790 C   0  0  0  0  0  2  0  0  0  0  0  0
  188.3300  172.9820  140.1480 C   0  0  0  0  0  2  0  0  0  0  0  0
  189.5400  172.5120  139.4360 N   0  0  0  0  0  2  0  0  0  0  0  0
  190.5580  171.5870  139.8570 C   0  0  0  0  0  0  0  0  0  0  0  0
  191.6000  171.2580  139.0120 O   0  0  0  0  0  0  0  0  0  0  0  0
  190.4330  170.9490  140.9900 O   0  0  0  0  0  1  0  0  0  0  0  0
  193.5970  171.5610  145.0060 C   0  0  0  0  0  2  0  0  0  0  0  0
  194.8220  170.6610  144.6220 C   0  0  0  0  0  2  0  0  0  0  0  0
  196.8130  170.6930  146.1040 N   0  0  0  0  0  2  0  0  0  0  0  0
  195.6870  170.1510  145.7520 C   0  0  0  0  0  0  0  0  0  0  0  0
  195.0230  169.2310  146.7020 C   0  0  0  0  0  1  0  0  0  0  0  0
  192.2960  175.1550  146.9500 C   0  0  0  0  0  2  0  0  0  0  0  0
  190.5890  176.7190  146.3810 O   0  0  0  0  0  0  0  0  0  0  0  0
  189.6300  176.9770  145.3280 C   0  0  0  0  0  2  0  0  0  0  0  0
  189.5470  174.8730  147.2700 C   0  0  0  0  0  2  0  0  0  0  0  0
  188.3210  176.1260  145.4500 C   0  0  1  0  0  3  0  0  0  0  0  0
  190.8140  175.3750  146.4870 C   0  0  2  0  0  3  0  0  0  0  0  0
  188.4170  175.3030  146.6910 C   0  0  0  0  0  2  0  0  0  0  0  0
  186.9680  178.2940  147.6690 N   0  0  0  0  0  2  0  0  0  0  0  0
  186.3250  179.0760  143.7040 O   0  0  0  0  0  0  0  0  0  0  0  0
  185.8780  176.7270  143.2340 O   0  0  0  0  0  0  0  0  0  0  0  0
  185.9020  177.2980  147.7250 C   0  0  0  0  0  2  0  0  0  0  0  0
  185.0640  177.5110  145.3880 C   0  0  0  0  0  2  0  0  0  0  0  0
  187.6440  178.1730  146.6240 N   0  0  0  0  0  2  0  0  0  0  0  0
  187.0510  177.1160  145.6620 C   0  0  2  0  0  0  0  0  0  0  0  0
  185.8650  176.8330  146.5120 C   0  0  1  0  0  3  0  0  0  0  0  0
  186.3210  177.7070  144.2320 S   0  0  0  0  0  0  0  0  0  0  0  0
  2  1  2  0  0  0  0
  2 26  1  0  0  0  0
  3  1  1  0  0  0  0
  4  9  1  1  0  0  0
  4  2  1  0  0  0  0
  5  3  1  0  0  0  0
  6  4  1  0  0  0  0
  7  5  1  0  0  0  0
  7  6  1  0  0  0  0
  8  7  2  0  0  0  0
  9 21  1  0  0  0  0
 10  9  1  0  0  0  0
 10 11  1  0  0  0  0
 12 11  1  0  0  0  0
 13 12  1  0  0  0  0
 14 13  1  0  0  0  0
 15 14  1  0  0  0  0
 16 15  1  0  0  0  0
 17 18  1  0  0  0  0
 17 16  1  0  0  0  0
 18 20  1  0  0  0  0
 19 18  2  0  0  0  0
 22 21  1  0  0  0  0
 22 24  1  0  0  0  0
 24 23  2  0  0  0  0
 24 25  1  0  0  0  0
 27 31  1  0  0  0  0
 28 27  1  0  0  0  0
 30 28  1  1  0  0  0
 30 39  1  0  0  0  0
 30 32  1  0  0  0  0
 31 26  1  1  0  0  0
 31 29  1  0  0  0  0
 32 29  1  0  0  0  0
 33 36  1  0  0  0  0
 34 41  2  0  0  0  0
 35 41  2  0  0  0  0
 38 33  1  0  0  0  0
 39 40  1  0  0  0  0
 39 38  1  1  0  0  0
 40 37  1  6  0  0  0
 40 36  1  0  0  0  0
 41 37  1  0  0  0  0
 41 39  1  0  0  0  0
M  END
>  <MODEL>
8

>  <REMARK>
 VINA RESULT:      -5.8      2.292      4.130
  Name = 
  15 active torsions:
  status: ('A' for Active; 'I' for Inactive)
    1  A    between atoms: C_1  and  C_19
    2  A    between atoms: C_1  and  C_29
    3  A    between atoms: C_3  and  C_17
    4  A    between atoms: C_7  and  N_8
    5  A    between atoms: N_8  and  C_10
    6  A    between atoms: N_8  and  C_26
    7  A    between atoms: C_10  and  C_25
    8  A    between atoms: C_12  and  N_15
    9  A    between atoms: C_12  and  C_28
   10  A    between atoms: C_17  and  C_40
   11  A    between atoms: C_19  and  C_28
   12  A    between atoms: C_20  and  C_32
   13  A    between atoms: C_25  and  C_29
   14  A    between atoms: C_26  and  C_32
   15  A    between atoms: C_27  and  C_33
                            x       y       z     vdW  Elec       q    Type
                         _______ _______ _______ _____ _____    ______ ____

>  <TORSDO>
F 15

$$$$
=
 OpenBabel11062422173D

 41 44  0  0  1  0  0  0  0  0999 V2000
  192.6460  176.3520  144.9320 C   0  0  0  0  0  3  0  0  0  0  0  0
  192.4800  175.2370  144.0950 C   0  0  0  0  0  0  0  0  0  0  0  0
  193.6890  176.8980  146.0370 C   0  0  0  0  0  2  0  0  0  0  0  0
  193.5260  174.0700  144.0690 C   0  0  1  0  0  3  0  0  0  0  0  0
  194.9240  176.2210  146.0780 N   0  0  0  0  0  2  0  0  0  0  0  0
  193.9390  174.0210  145.4850 N   0  0  0  0  0  2  0  0  0  0  0  0
  195.1500  174.8370  145.7640 C   0  0  0  0  0  0  0  0  0  0  0  0
  196.2210  174.3750  145.5470 O   0  0  0  0  0  0  0  0  0  0  0  0
  193.6640  172.6240  143.5390 N   0  0  0  0  0  0  0  0  0  0  0  0
  192.6930  171.8040  144.2590 C   0  0  0  0  0  2  0  0  0  0  0  0
  191.5160  171.5030  143.3620 C   0  0  0  0  0  2  0  0  0  0  0  0
  190.3730  171.9340  144.2960 C   0  0  0  0  0  2  0  0  0  0  0  0
  189.1560  172.2840  143.5390 C   0  0  0  0  0  2  0  0  0  0  0  0
  189.5550  172.3250  142.0670 C   0  0  0  0  0  2  0  0  0  0  0  0
  188.4360  172.9970  141.2980 C   0  0  0  0  0  2  0  0  0  0  0  0
  188.9970  174.1270  140.4170 C   0  0  0  0  0  2  0  0  0  0  0  0
  189.2620  173.8060  138.9960 N   0  0  0  0  0  2  0  0  0  0  0  0
  188.5030  174.1330  137.8180 C   0  0  0  0  0  0  0  0  0  0  0  0
  188.9530  173.7590  136.5670 O   0  0  0  0  0  0  0  0  0  0  0  0
  187.4500  174.9010  137.9120 O   0  0  0  0  0  1  0  0  0  0  0  0
  194.9130  171.8810  143.1580 C   0  0  0  0  0  2  0  0  0  0  0  0
  195.4590  170.6810  144.0080 C   0  0  0  0  0  2  0  0  0  0  0  0
  197.8140  171.4550  144.1500 N   0  0  0  0  0  2  0  0  0  0  0  0
  196.7900  170.8710  144.6980 C   0  0  0  0  0  0  0  0  0  0  0  0
  196.7790  170.7070  146.1680 C   0  0  0  0  0  1  0  0  0  0  0  0
  191.3020  175.3880  143.1190 C   0  0  0  0  0  2  0  0  0  0  0  0
  189.1210  175.6300  144.0500 O   0  0  0  0  0  0  0  0  0  0  0  0
  188.4170  176.4330  145.0270 C   0  0  0  0  0  2  0  0  0  0  0  0
  189.3620  177.2680  142.4550 C   0  0  0  0  0  2  0  0  0  0  0  0
  187.9560  177.8260  144.4790 C   0  0  1  0  0  3  0  0  0  0  0  0
  190.1290  176.3610  143.4850 C   0  0  2  0  0  3  0  0  0  0  0  0
  188.3390  177.9070  143.0390 C   0  0  0  0  0  2  0  0  0  0  0  0
  185.2020  177.2070  142.6110 N   0  0  0  0  0  2  0  0  0  0  0  0
  184.8190  176.7630  146.6600 O   0  0  0  0  0  0  0  0  0  0  0  0
  186.0820  178.8030  147.0820 O   0  0  0  0  0  0  0  0  0  0  0  0
  185.0470  178.6570  142.6770 C   0  0  0  0  0  2  0  0  0  0  0  0
  184.6390  178.8800  145.1250 C   0  0  0  0  0  2  0  0  0  0  0  0
  185.9440  176.7900  143.5280 N   0  0  0  0  0  2  0  0  0  0  0  0
  186.3340  177.9110  144.5200 C   0  0  2  0  0  0  0  0  0  0  0  0
  185.5060  178.9520  143.8570 C   0  0  1  0  0  3  0  0  0  0  0  0
  185.6240  177.8400  146.0750 S   0  0  0  0  0  0  0  0  0  0  0  0
  1  3  1  0  0  0  0
  2  1  2  0  0  0  0
  3  5  1  0  0  0  0
  4  9  1  1  0  0  0
  4  2  1  0  0  0  0
  4  6  1  0  0  0  0
  6  7  1  0  0  0  0
  7  5  1  0  0  0  0
  8  7  2  0  0  0  0
  9 10  1  0  0  0  0
 11 10  1  0  0  0  0
 11 12  1  0  0  0  0
 13 12  1  0  0  0  0
 14 13  1  0  0  0  0
 15 14  1  0  0  0  0
 16 15  1  0  0  0  0
 17 16  1  0  0  0  0
 18 20  1  0  0  0  0
 18 17  1  0  0  0  0
 19 18  2  0  0  0  0
 21  9  1  0  0  0  0
 21 22  1  0  0  0  0
 22 24  1  0  0  0  0
 23 24  2  0  0  0  0
 24 25  1  0  0  0  0
 26  2  1  0  0  0  0
 27 28  1  0  0  0  0
 29 32  1  0  0  0  0
 29 31  1  0  0  0  0
 30 32  1  6  0  0  0
 30 39  1  0  0  0  0
 30 28  1  0  0  0  0
 31 26  1  6  0  0  0
 31 27  1  0  0  0  0
 33 36  1  0  0  0  0
 33 38  1  0  0  0  0
 37 41  1  0  0  0  0
 39 38  1  6  0  0  0
 39 41  1  0  0  0  0
 40 36  1  6  0  0  0
 40 39  1  0  0  0  0
 40 37  1  0  0  0  0
 41 34  2  0  0  0  0
 41 35  2  0  0  0  0
M  END
>  <MODEL>
9

>  <REMARK>
 VINA RESULT:      -5.8      2.147      3.690
  Name = 
  15 active torsions:
  status: ('A' for Active; 'I' for Inactive)
    1  A    between atoms: C_1  and  C_19
    2  A    between atoms: C_1  and  C_29
    3  A    between atoms: C_3  and  C_17
    4  A    between atoms: C_7  and  N_8
    5  A    between atoms: N_8  and  C_10
    6  A    between atoms: N_8  and  C_26
    7  A    between atoms: C_10  and  C_25
    8  A    between atoms: C_12  and  N_15
    9  A    between atoms: C_12  and  C_28
   10  A    between atoms: C_17  and  C_40
   11  A    between atoms: C_19  and  C_28
   12  A    between atoms: C_20  and  C_32
   13  A    between atoms: C_25  and  C_29
   14  A    between atoms: C_26  and  C_32
   15  A    between atoms: C_27  and  C_33
                            x       y       z     vdW  Elec       q    Type
                         _______ _______ _______ _____ _____    ______ ____

>  <TORSDO>
F 15

$$$$
